data_PCOD9263119
_publ_section_title
;
Structure prediction by ZEFSAII (Michael W. Deem and Ramdas Pophale) SiO2 
 PCOD9263119
Probable space group: C 2/C
;
_chemical_formula_sum "Si O2"
_cell_formula_units_Z 48
_cell_length_a 33.224766
_cell_length_b 15.837851
_cell_length_c 8.234680
_cell_angle_alpha 90.000000
_cell_angle_beta 143.984257
_cell_angle_gamma 90.000000
_cell_volume 2547.931760
_symmetry_space_group_name_H-M "C 2/C"
_symmetry_group_IT_number 15
_symmetry_cell_setting 'monoclinic'
loop_
_space_group_symop_operation_xyz
x,y,z
-x,y,1/2-z
-x,-y,-z
x,-y,1/2+z
1/2+x,1/2+y,z
1/2-x,1/2+y,1/2-z
1/2-x,1/2-y,-z
1/2+x,1/2-y,1/2+z
loop_
_atom_site_type_symbol
_atom_site_label
_atom_site_fract_x
_atom_site_fract_y
_atom_site_fract_z
Si Si1 0.248066 0.483208 0.774154
Si Si2 0.897449 0.945941 0.834009
Si Si3 0.799502 0.375521 0.189479
Si Si4 0.338682 0.297755 0.834949
Si Si5 0.201381 0.179850 0.917005
Si Si6 0.937798 0.117948 0.143024
O O1 0.219418 0.431663 0.528513
O O2 0.195549 0.556345 0.652843
O O3 0.323923 0.526242 0.011379
O O4 0.260296 0.410716 0.950486
O O5 0.887887 0.872722 0.937173
O O6 0.947064 0.909964 0.858037
O O7 0.923055 0.031887 0.996267
O O8 0.854009 0.300536 0.348506
O O9 0.729140 0.323515 0.988681
O O10 0.321508 0.304024 0.970322
O O11 0.131273 0.172248 0.589283
O O12 0.250000 0.250000 0.000000
O O13 0.000000 0.160140 0.250000
#
# Coordination Sequence:
#
# PCOD9263119 Si02
#       6
#     8   8   8   8   8   8
#     4   9  17  28  44  71  99 140 175 214 262 322
#     4  10  19  34  51  73 107 148 181 217 258 328
#     4   9  17  27  44  66 103 135 174 209 273 308
#     4   9  19  31  46  71 104 142 180 220 265 324
#     4  10  21  33  50  75 107 143 181 223 274 312
#     4  11  22  35  54  78 109 149 184 214 264 325
#
# _framework density 18.838809000000001
#
# number of rings (size 3 to 8) (size 9 to 14) (size 15 to 20)
#    0.000    2.333    0.000    5.500   11.667    0.000 
#    0.000    0.000    0.000    0.000    0.000    0.000 
#    0.000    6.667    0.000    0.000    0.000    0.000 
#
# Total GULP energy -133693.390428 kJ/mol
# GULP energy per Si atom -5570.557935 kJ/mol
# Density = 1.879593 g / cm^3
# Si number density = 18.838809 Si / 1000 Ang^3
#
#
#
# Elastic Constant Matrix: (Units=GPa)
#
#
# Indices 1 2 3 4 5 6 
#
# 1 77.6077 27.0498 12.2386 0.0000 -0.0913 0.0000
# 2 27.0498 103.6928 16.9052 0.0000 3.8480 0.0000
# 3 12.2386 16.9052 26.4697 0.0000 3.6401 0.0000
# 4 0.0000 0.0000 0.0000 16.5660 0.0000 -2.9678
# 5 -0.0913 3.8480 3.6401 0.0000 20.7975 0.0000
# 6 0.0000 0.0000 0.0000 -2.9678 0.0000 32.1443
#
#
#
# Elastic Compliance Matrix: (Units=1/GPa)
#
#
# Indices 1 2 3 4 5 6 
#
# 1 0.014760 -0.003081 -0.005066 0.000000 0.001521 0.000000
# 2 -0.003081 0.011421 -0.005715 0.000000 -0.001126 0.000000
# 3 -0.005066 -0.005715 0.044705 0.000000 -0.006789 0.000000
# 4 0.000000 0.000000 0.000000 0.061380 0.000000 0.005667
# 5 0.001521 -0.001126 -0.006789 0.000000 0.049486 0.000000
# 6 0.000000 0.000000 0.000000 0.005667 0.000000 0.031633
#
#
# Mechanical properties :
#
#
# Convention : Reuss Voigt Hill
#
# Bulk Modulus (GPa) = 23.16829 35.57303 29.37066
# Shear Modulus (GPa) = 19.56983 24.00668 21.78826
#
# Velocity S-wave (km/s) = 3.22654 3.57364 3.40452
# Velocity P-wave (km/s) = 5.11915 5.99597 5.57482
#
# Compressibility (1/GPa) = 0.04316244
#
# Stress axis : x y z
#
# Youngs Moduli (GPa) = 67.75149 87.55753 22.36892
#
# Poissons Ratio (x) = 0.26975 0.11332
# Poissons Ratio (y) = 0.20873 0.12783
# Poissons Ratio (z) = 0.34323 0.50037
#
# Static dielectric constant tensor:
#      x y z
#    x 1.742500 0.000000 -0.011700 
#    y 0.000000 1.711400 0.000000 
#    z -0.011700 0.000000 1.706590 
# 
# From -- ./inp_files/47948.got.cif
#   From: 2010.05.17/outbox.cif.g08.bks.cpg/sg15_24_cif.got.tgz:47948.got - 2010.06.03 18:47:42.
