data_PCOD9263075
_publ_section_title
;
Structure prediction by ZEFSAII (Michael W. Deem and Ramdas Pophale) SiO2 
 PCOD9263075
Probable space group: C 2/C
;
_chemical_formula_sum "Si O2"
_cell_formula_units_Z 40
_cell_length_a 9.806117
_cell_length_b 23.550339
_cell_length_c 8.605467
_cell_angle_alpha 90.000000
_cell_angle_beta 58.068995
_cell_angle_gamma 90.000000
_cell_volume 1686.613270
_symmetry_space_group_name_H-M "C 2/C"
_symmetry_group_IT_number 15
_symmetry_cell_setting 'monoclinic'
loop_
_space_group_symop_operation_xyz
x,y,z
-x,y,1/2-z
-x,-y,-z
x,-y,1/2+z
1/2+x,1/2+y,z
1/2-x,1/2+y,1/2-z
1/2-x,1/2-y,-z
1/2+x,1/2-y,1/2+z
loop_
_atom_site_type_symbol
_atom_site_label
_atom_site_fract_x
_atom_site_fract_y
_atom_site_fract_z
Si Si1 0.820505 0.518947 0.586757
Si Si2 0.270315 0.228931 0.671035
Si Si3 0.344784 0.134644 0.442857
Si Si4 0.024562 0.826705 0.971552
Si Si5 0.883901 0.949114 0.006171
O O1 0.835829 0.567416 0.449088
O O2 0.699683 0.470592 0.600989
O O3 0.751385 0.549802 0.779174
O O4 0.000000 0.500000 0.500000
O O5 0.250000 0.250000 0.500000
O O6 0.365015 0.169986 0.589754
O O7 0.108485 0.210982 0.857005
O O8 0.370375 0.280227 0.688068
O O9 0.500000 0.152370 0.250000
O O10 0.163307 0.148148 0.499146
O O11 0.948390 0.884841 0.952436
O O12 0.000000 0.000000 0.000000
#
# Coordination Sequence:
#
# PCOD9263075 Si02
#       5
#     8   8   8   8   8
#     4  12  26  45  69 105 142 190 236 293 359 430
#     4  10  19  33  62  95 139 177 237 294 353 414
#     4  11  20  36  61  97 141 177 238 293 344 422
#     4  11  22  39  63 104 140 187 237 301 357 421
#     4  12  25  44  73 104 149 185 237 297 362 432
#
# _framework density 23.716166000000001
#
# number of rings (size 3 to 8) (size 9 to 14) (size 15 to 20)
#    0.000    0.800    4.000    7.200    0.000    0.000 
#    0.000    0.000    0.000    1.200    0.000    0.000 
#    0.000    0.000    0.000    0.000    0.000    0.000 
#
# Total GULP energy -111461.978976 kJ/mol
# GULP energy per Si atom -5573.098949 kJ/mol
# Density = 2.366219 g / cm^3
# Si number density = 23.716166 Si / 1000 Ang^3
#
#
#
# Elastic Constant Matrix: (Units=GPa)
#
#
# Indices 1 2 3 4 5 6 
#
# 1 79.4813 67.7254 27.4774 0.0000 -20.6693 0.0000
# 2 67.7254 204.7252 49.9714 0.0000 -34.8819 0.0000
# 3 27.4774 49.9714 141.7986 0.0000 -32.4187 0.0000
# 4 0.0000 0.0000 0.0000 42.4619 0.0000 -22.2614
# 5 -20.6693 -34.8819 -32.4187 0.0000 33.3843 0.0000
# 6 0.0000 0.0000 0.0000 -22.2614 0.0000 39.1787
#
#
#
# Elastic Compliance Matrix: (Units=1/GPa)
#
#
# Indices 1 2 3 4 5 6 
#
# 1 0.018533 -0.005032 -0.000510 0.000000 0.005722 0.000000
# 2 -0.005032 0.007393 -0.000741 0.000000 0.003890 0.000000
# 3 -0.000510 -0.000741 0.009207 0.000000 0.007851 0.000000
# 4 0.000000 0.000000 0.000000 0.033543 0.000000 0.019059
# 5 0.005722 0.003890 0.007851 0.000000 0.045185 0.000000
# 6 0.000000 0.000000 0.000000 0.019059 0.000000 0.036353
#
#
# Mechanical properties :
#
#
# Convention : Reuss Voigt Hill
#
# Bulk Modulus (GPa) = 44.31060 79.59486 61.95273
# Shear Modulus (GPa) = 29.35968 41.72701 35.54335
#
# Velocity S-wave (km/s) = 3.52228 4.19911 3.87550
# Velocity P-wave (km/s) = 5.93854 7.55939 6.79745
#
# Compressibility (1/GPa) = 0.02256796
#
# Stress axis : x y z
#
# Youngs Moduli (GPa) = 53.95695 135.26866 108.61173
#
# Poissons Ratio (x) = 0.68062 0.05539
# Poissons Ratio (y) = 0.27149 0.08048
# Poissons Ratio (z) = 0.02751 0.10024
#
# Static dielectric constant tensor:
#      x y z
#    x 1.999110 0.000000 0.167880 
#    y 0.000000 2.055500 0.000000 
#    z 0.167880 0.000000 1.787820 
# 
# From -- ./inp_files/90576.got.cif
#   From: 2010.05.17/outbox.cif.g08.bks.cpg/sg15_46_cif.got.tgz:90576.got - 2010.06.03 18:47:42.
