data_PCOD9263058
_publ_section_title
;
Structure prediction by ZEFSAII (Michael W. Deem and Ramdas Pophale) SiO2 
 PCOD9263058
Probable space group: C 2/C
;
_chemical_formula_sum "Si O2"
_cell_formula_units_Z 56
_cell_length_a 9.888862
_cell_length_b 16.505996
_cell_length_c 20.687893
_cell_angle_alpha 90.000000
_cell_angle_beta 60.252908
_cell_angle_gamma 90.000000
_cell_volume 2931.811872
_symmetry_space_group_name_H-M "C 2/C"
_symmetry_group_IT_number 15
_symmetry_cell_setting 'monoclinic'
loop_
_space_group_symop_operation_xyz
x,y,z
-x,y,1/2-z
-x,-y,-z
x,-y,1/2+z
1/2+x,1/2+y,z
1/2-x,1/2+y,1/2-z
1/2-x,1/2-y,-z
1/2+x,1/2-y,1/2+z
loop_
_atom_site_type_symbol
_atom_site_label
_atom_site_fract_x
_atom_site_fract_y
_atom_site_fract_z
Si Si1 0.733681 0.817959 0.337900
Si Si2 0.317529 0.103829 0.787500
Si Si3 0.331638 0.061728 0.217821
Si Si4 0.000000 0.889912 0.750000
Si Si5 0.441537 0.299422 0.898087
Si Si6 0.028333 0.541482 0.925486
Si Si7 0.763733 0.146517 0.554898
Si Si8 0.500000 0.793235 0.750000
O O1 0.744864 0.850737 0.261249
O O2 0.592496 0.754456 0.375883
O O3 0.676212 0.897055 0.390441
O O4 0.887732 0.767121 0.316501
O O5 0.500000 0.130958 0.750000
O O6 0.219276 0.119767 0.875063
O O7 0.324539 0.007813 0.773642
O O8 0.159813 0.064980 0.228262
O O9 0.393415 0.146392 0.231921
O O10 0.442512 0.025940 0.136060
O O11 0.966169 0.841219 0.823684
O O12 0.295764 0.238888 0.925155
O O13 0.400767 0.355109 0.969607
O O14 0.879605 0.594190 0.939285
O O15 0.000000 0.500000 0.000000
#
# Coordination Sequence:
#
# PCOD9263058 Si02
#       8
#     8   8   8   4   8   8   8   4
#     4  10  22  37  63  87 124 163 215 259 317 380
#     4  11  18  39  61  87 120 176 207 249 317 400
#     4  11  23  37  67  86 127 167 218 254 326 385
#     4  12  22  37  59  94 118 160 208 262 310 381
#     4  10  19  34  58  92 115 152 206 264 304 372
#     4  10  20  39  59  89 126 175 204 254 321 393
#     4  10  19  33  61  87 119 155 209 252 308 377
#     4  12  22  41  63 100 124 162 212 286 310 371
#
# _framework density 19.100815999999998
#
# number of rings (size 3 to 8) (size 9 to 14) (size 15 to 20)
#    0.000    1.429    6.429    1.714    0.000    2.286 
#    0.000    1.429    3.143    0.000    0.000    0.000 
#    0.000    0.000    0.000    0.000    0.000    0.000 
#
# Total GULP energy -156124.422364 kJ/mol
# GULP energy per Si atom -5575.872227 kJ/mol
# Density = 1.905734 g / cm^3
# Si number density = 19.100816 Si / 1000 Ang^3
#
#
#
# Elastic Constant Matrix: (Units=GPa)
#
#
# Indices 1 2 3 4 5 6 
#
# 1 47.6051 22.5620 13.9349 0.0000 -6.2947 0.0000
# 2 22.5620 73.2915 54.8261 0.0000 0.6734 0.0000
# 3 13.9349 54.8261 165.8105 0.0000 15.5623 0.0000
# 4 0.0000 0.0000 0.0000 21.7859 0.0000 -3.7891
# 5 -6.2947 0.6734 15.5623 0.0000 21.7006 0.0000
# 6 0.0000 0.0000 0.0000 -3.7891 0.0000 4.5567
#
#
#
# Elastic Compliance Matrix: (Units=1/GPa)
#
#
# Indices 1 2 3 4 5 6 
#
# 1 0.025847 -0.007765 -0.000355 0.000000 0.007993 0.000000
# 2 -0.007765 0.020791 -0.006380 0.000000 0.001678 0.000000
# 3 -0.000355 -0.006380 0.008750 0.000000 -0.006180 0.000000
# 4 0.000000 0.000000 0.000000 0.053662 0.000000 0.044622
# 5 0.007993 0.001678 -0.006180 0.000000 0.052780 0.000000
# 6 0.000000 0.000000 0.000000 0.044622 0.000000 0.256561
#
#
# Mechanical properties :
#
#
# Convention : Reuss Voigt Hill
#
# Bulk Modulus (GPa) = 37.89302 52.15035 45.02169
# Shear Modulus (GPa) = 10.96041 22.63425 16.79733
#
# Velocity S-wave (km/s) = 2.39805 3.44610 2.96869
# Velocity P-wave (km/s) = 5.24872 6.57237 5.94748
#
# Compressibility (1/GPa) = 0.02639008
#
# Stress axis : x y z
#
# Youngs Moduli (GPa) = 38.68932 48.09699 114.28128
#
# Poissons Ratio (x) = 0.37345 0.04057
# Poissons Ratio (y) = 0.30041 0.72908
# Poissons Ratio (z) = 0.01373 0.30684
#
# Static dielectric constant tensor:
#      x y z
#    x 1.829180 0.000000 -0.084040 
#    y 0.000000 1.688020 0.000000 
#    z -0.084040 0.000000 1.728180 
# 
# From -- ./inp_files/232616.got.cif
#   From: 2010.05.17/outbox.cif.g08.bks.cpg/sg15_117_cif.got.tgz:232616.got - 2010.06.03 18:47:42.
