data_PCOD9263428
_publ_section_title
;
Structure prediction by ZEFSAII (Michael W. Deem and Ramdas Pophale) SiO2 
 PCOD9263428
Probable space group: C 2/C
;
_chemical_formula_sum "Si O2"
_cell_formula_units_Z 48
_cell_length_a 11.908509
_cell_length_b 19.615876
_cell_length_c 11.205604
_cell_angle_alpha 90.000000
_cell_angle_beta 76.602132
_cell_angle_gamma 90.000000
_cell_volume 2546.343621
_symmetry_space_group_name_H-M "C 2/C"
_symmetry_group_IT_number 15
_symmetry_cell_setting 'monoclinic'
loop_
_space_group_symop_operation_xyz
x,y,z
-x,y,1/2-z
-x,-y,-z
x,-y,1/2+z
1/2+x,1/2+y,z
1/2-x,1/2+y,1/2-z
1/2-x,1/2-y,-z
1/2+x,1/2-y,1/2+z
loop_
_atom_site_type_symbol
_atom_site_label
_atom_site_fract_x
_atom_site_fract_y
_atom_site_fract_z
Si Si1 0.992765 0.404595 0.111840
Si Si2 0.500000 0.126500 0.250000
Si Si3 0.114998 0.299764 0.934183
Si Si4 0.354586 0.649761 0.490461
Si Si5 0.377926 0.491216 0.095997
Si Si6 0.000000 0.923664 0.750000
Si Si7 0.351009 0.033279 0.466254
O O1 0.000000 0.401078 0.250000
O O2 0.090264 0.458765 0.045747
O O3 0.873311 0.434124 0.090031
O O4 0.020722 0.332971 0.045531
O O5 0.417376 0.172516 0.188177
O O6 0.426182 0.078075 0.355288
O O7 0.237008 0.329910 0.950041
O O8 0.111403 0.218925 0.950491
O O9 0.344189 0.588137 0.588537
O O10 0.443930 0.622690 0.367679
O O11 0.401681 0.526824 0.217290
O O12 0.277801 0.529757 0.048736
O O13 0.500000 0.500000 0.000000
#
# Coordination Sequence:
#
# PCOD9263428 Si02
#       7
#     8   4   8   8   8   4   8
#     4  10  20  32  56  88 114 144 183 245 288 342
#     4  10  20  35  61  86 116 150 182 248 292 344
#     4  10  21  37  58  84 116 151 185 232 295 348
#     4  10  21  38  57  81 114 151 193 229 286 350
#     4  10  21  37  56  81 110 150 195 233 276 341
#     4  10  22  37  61  78 110 156 190 244 274 332
#     4  10  19  34  56  87 115 144 189 239 296 330
#
# _framework density 18.850560000000002
#
# number of rings (size 3 to 8) (size 9 to 14) (size 15 to 20)
#    0.000    2.000    2.500    1.000    1.167    3.333 
#    0.000    0.000    3.667    9.000    0.000    0.000 
#    0.000    0.000    0.000    0.000    0.000    0.000 
#
# Total GULP energy -133848.177437 kJ/mol
# GULP energy per Si atom -5577.007393 kJ/mol
# Density = 1.880765 g / cm^3
# Si number density = 18.850560 Si / 1000 Ang^3
#
#
#
# Elastic Constant Matrix: (Units=GPa)
#
#
# Indices 1 2 3 4 5 6 
#
# 1 117.6190 41.2846 8.8386 0.0000 24.6028 0.0000
# 2 41.2846 129.3345 29.1669 0.0000 15.9343 0.0000
# 3 8.8386 29.1669 48.2480 0.0000 19.2991 0.0000
# 4 0.0000 0.0000 0.0000 -78.5614 0.0000 36.0289
# 5 24.6028 15.9343 19.2991 0.0000 29.7882 0.0000
# 6 0.0000 0.0000 0.0000 36.0289 0.0000 17.0949
#
#
#
# Elastic Compliance Matrix: (Units=1/GPa)
#
#
# Indices 1 2 3 4 5 6 
#
# 1 0.011530 -0.003314 0.004038 0.000000 -0.010366 0.000000
# 2 -0.003314 0.009971 -0.005915 0.000000 0.001235 0.000000
# 3 0.004038 -0.005915 0.031897 0.000000 -0.020836 0.000000
# 4 0.000000 0.000000 0.000000 -0.006473 0.000000 0.013642
# 5 -0.010366 0.001235 -0.020836 0.000000 0.054970 0.000000
# 6 0.000000 0.000000 0.000000 0.013642 0.000000 0.029746
#
#
# Mechanical properties :
#
#
# Convention : Reuss Voigt Hill
#
# Bulk Modulus (GPa) = 23.24738 50.42019 36.83378
# Shear Modulus (GPa) = 31.97688 8.05844 20.01766
#
# Velocity S-wave (km/s) = 4.12313 2.06983 3.26224
# Velocity P-wave (km/s) = 5.91829 5.70242 5.81136
#
# Compressibility (1/GPa) = 0.04301560
#
# Stress axis : x y z
#
# Youngs Moduli (GPa) = 86.72915 100.28645 31.35130
#
# Poissons Ratio (x) = 0.33234 -0.12658
# Poissons Ratio (y) = 0.28741 0.18544
# Poissons Ratio (z) = -0.35018 0.59319
#
# Static dielectric constant tensor:
#      x y z
#    x 1.678780 0.000000 -0.006440 
#    y 0.000000 1.651300 0.000000 
#    z -0.006440 0.000000 1.709350 
# 
# From -- ./inp_files/87307.got.cif
#   From: 2010.05.17/outbox.cif.g08.bks.cpg/sg15_44_cif.got.tgz:87307.got - 2010.06.03 18:47:42.
