data_PCOD9263665
_publ_section_title
;
Structure prediction by ZEFSAII (Michael W. Deem and Ramdas Pophale) SiO2 
 PCOD9263665
Probable space group: C 2/C
;
_chemical_formula_sum "Si O2"
_cell_formula_units_Z 56
_cell_length_a 27.023891
_cell_length_b 10.766893
_cell_length_c 13.319802
_cell_angle_alpha 90.000000
_cell_angle_beta 43.225947
_cell_angle_gamma 90.000000
_cell_volume 2654.292182
_symmetry_space_group_name_H-M "C 2/C"
_symmetry_group_IT_number 15
_symmetry_cell_setting 'monoclinic'
loop_
_space_group_symop_operation_xyz
x,y,z
-x,y,1/2-z
-x,-y,-z
x,-y,1/2+z
1/2+x,1/2+y,z
1/2-x,1/2+y,1/2-z
1/2-x,1/2-y,-z
1/2+x,1/2-y,1/2+z
loop_
_atom_site_type_symbol
_atom_site_label
_atom_site_fract_x
_atom_site_fract_y
_atom_site_fract_z
Si Si1 0.837738 0.943690 0.715788
Si Si2 0.577415 0.624407 0.598263
Si Si3 0.706349 0.621782 0.565339
Si Si4 0.825487 0.387845 0.588790
Si Si5 0.662606 0.762711 0.129498
Si Si6 0.649839 0.970219 0.727201
Si Si7 0.921876 0.403301 0.858797
O O1 0.894948 0.939547 0.543002
O O2 0.761717 0.888112 0.786109
O O3 0.862301 0.859103 0.773938
O O4 0.818465 0.077992 0.788626
O O5 0.500000 0.578817 0.750000
O O6 0.638877 0.615820 0.591695
O O7 0.571297 0.773863 0.593468
O O8 0.750000 0.750000 0.500000
O O9 0.767440 0.529796 0.433367
O O10 0.853746 0.287668 0.464754
O O11 0.850953 0.400729 0.665437
O O12 0.633392 0.882883 0.235841
O O13 0.750000 0.750000 0.000000
O O14 0.599401 0.892858 0.726177
O O15 0.643310 0.016545 0.001680
O O16 0.000000 0.467494 0.750000
#
# Coordination Sequence:
#
# PCOD9263665 Si02
#       7
#     8   8   8   8   8   8   8
#     4  11  21  39  64  92 127 169 207 271 317 383
#     4  11  24  41  62  91 126 173 217 261 325 383
#     4  12  22  40  64  94 121 157 220 270 308 382
#     4  10  19  34  58  95 122 167 210 259 322 373
#     4   9  18  34  56  91 127 158 205 259 321 377
#     4  11  19  35  62  93 123 161 212 267 316 376
#     4  10  21  39  59  88 130 165 214 267 321 391
#
# _framework density 21.097902000000001
#
# number of rings (size 3 to 8) (size 9 to 14) (size 15 to 20)
#    0.000    1.429    7.143    0.857    0.000    1.143 
#    2.571    1.429    0.000    3.429    0.000    0.000 
#    0.000    0.000    0.000    0.000    0.000    0.000 
#
# Total GULP energy -156084.880928 kJ/mol
# GULP energy per Si atom -5574.460033 kJ/mol
# Density = 2.104988 g / cm^3
# Si number density = 21.097902 Si / 1000 Ang^3
#
#
#
# Elastic Constant Matrix: (Units=GPa)
#
#
# Indices 1 2 3 4 5 6 
#
# 1 97.2103 11.4049 73.2487 0.0000 14.8540 0.0000
# 2 11.4049 66.5145 32.7353 0.0000 7.4120 0.0000
# 3 73.2487 32.7353 140.1703 0.0000 18.8120 0.0000
# 4 0.0000 0.0000 0.0000 11.2340 0.0000 8.8638
# 5 14.8540 7.4120 18.8120 0.0000 37.7051 0.0000
# 6 0.0000 0.0000 0.0000 8.8638 0.0000 21.0408
#
#
#
# Elastic Compliance Matrix: (Units=1/GPa)
#
#
# Indices 1 2 3 4 5 6 
#
# 1 0.017369 0.001817 -0.009147 0.000000 -0.002636 0.000000
# 2 0.001817 0.017252 -0.004745 0.000000 -0.001740 0.000000
# 3 -0.009147 -0.004745 0.013304 0.000000 -0.002102 0.000000
# 4 0.000000 0.000000 0.000000 0.133334 0.000000 -0.056170
# 5 -0.002636 -0.001740 -0.002102 0.000000 0.028951 0.000000
# 6 0.000000 0.000000 0.000000 -0.056170 0.000000 0.071189
#
#
# Mechanical properties :
#
#
# Convention : Reuss Voigt Hill
#
# Bulk Modulus (GPa) = 42.06030 59.85255 50.95642
# Shear Modulus (GPa) = 15.95024 26.42972 21.18998
#
# Velocity S-wave (km/s) = 2.75255 3.54322 3.17261
# Velocity P-wave (km/s) = 5.48462 6.72084 6.13395
#
# Compressibility (1/GPa) = 0.02377539
#
# Stress axis : x y z
#
# Youngs Moduli (GPa) = 57.57380 57.96447 75.16282
#
# Poissons Ratio (x) = -0.10534 0.68753
# Poissons Ratio (y) = -0.10463 0.35666
# Poissons Ratio (z) = 0.52664 0.27505
#
# Static dielectric constant tensor:
#      x y z
#    x 1.820790 0.000000 0.048480 
#    y 0.000000 1.892990 0.000000 
#    z 0.048480 0.000000 1.795950 
# 
# From -- ./inp_files/122625.got.cif
#   From: 2010.05.17/outbox.cif.g08.bks.cpg/sg15_62_cif.got.tgz:122625.got - 2010.06.03 18:47:42.
