data_PCOD9263453
_publ_section_title
;
Structure prediction by ZEFSAII (Michael W. Deem and Ramdas Pophale) SiO2 
 PCOD9263453
Probable space group: C 2/C
;
_chemical_formula_sum "Si O2"
_cell_formula_units_Z 52
_cell_length_a 15.230798
_cell_length_b 9.826803
_cell_length_c 15.356976
_cell_angle_alpha 90.000000
_cell_angle_beta 110.645654
_cell_angle_gamma 90.000000
_cell_volume 2150.868483
_symmetry_space_group_name_H-M "C 2/C"
_symmetry_group_IT_number 15
_symmetry_cell_setting 'monoclinic'
loop_
_space_group_symop_operation_xyz
x,y,z
-x,y,1/2-z
-x,-y,-z
x,-y,1/2+z
1/2+x,1/2+y,z
1/2-x,1/2+y,1/2-z
1/2-x,1/2-y,-z
1/2+x,1/2-y,1/2+z
loop_
_atom_site_type_symbol
_atom_site_label
_atom_site_fract_x
_atom_site_fract_y
_atom_site_fract_z
Si Si1 0.434575 0.823003 0.006407
Si Si2 0.500000 0.380624 0.250000
Si Si3 0.607206 0.095936 0.817801
Si Si4 0.823281 0.304694 0.657676
Si Si5 0.089658 0.981978 0.933719
Si Si6 0.240657 0.825537 0.901970
Si Si7 0.863991 0.261810 0.469708
O O1 0.407377 0.905156 0.082936
O O2 0.430929 0.662032 0.030233
O O3 0.542057 0.844062 0.019673
O O4 0.347620 0.845766 0.910004
O O5 0.591795 0.286543 0.277982
O O6 0.490554 0.470768 0.160392
O O7 0.500000 0.110474 0.750000
O O8 0.673942 0.225922 0.823829
O O9 0.658849 0.958975 0.806013
O O10 0.834983 0.307927 0.556316
O O11 0.719959 0.240315 0.629161
O O12 0.181747 0.958747 0.905137
O O13 0.110664 0.101913 0.007576
O O14 0.250000 0.750000 0.000000
#
# Coordination Sequence:
#
# PCOD9263453 Si02
#       7
#     8   4   8   8   8   8   8
#     4  10  20  34  56  86 107 135 186 228 271 318
#     4  10  20  34  56  76 102 144 184 212 266 340
#     4  10  19  34  57  78 112 146 175 221 276 329
#     4  10  20  37  55  75 106 150 185 216 268 328
#     4   9  18  33  58  79 109 141 176 225 270 327
#     4   8  17  32  55  82 104 135 181 218 271 318
#     4  10  20  35  57  78 107 143 185 226 264 316
#
# _framework density 24.176279999999998
#
# number of rings (size 3 to 8) (size 9 to 14) (size 15 to 20)
#    0.000    2.769    0.769    3.231    4.308    0.615 
#    0.000    4.615    0.000    0.000    0.000    0.000 
#    0.000    0.000    0.000    0.000    0.000    0.000 
#
# Total GULP energy -145168.382697 kJ/mol
# GULP energy per Si atom -5583.399335 kJ/mol
# Density = 2.412125 g / cm^3
# Si number density = 24.176280 Si / 1000 Ang^3
#
#
#
# Elastic Constant Matrix: (Units=GPa)
#
#
# Indices 1 2 3 4 5 6 
#
# 1 105.0284 15.6957 47.3471 0.0000 46.4207 0.0000
# 2 15.6957 70.7259 25.8952 0.0000 13.0618 0.0000
# 3 47.3471 25.8952 115.1956 0.0000 57.3867 0.0000
# 4 0.0000 0.0000 0.0000 17.6012 0.0000 -8.4957
# 5 46.4207 13.0618 57.3867 0.0000 55.4105 0.0000
# 6 0.0000 0.0000 0.0000 -8.4957 0.0000 -3.8627
#
#
#
# Elastic Compliance Matrix: (Units=1/GPa)
#
#
# Indices 1 2 3 4 5 6 
#
# 1 0.015207 -0.001152 0.000454 0.000000 -0.012939 0.000000
# 2 -0.001152 0.015495 -0.003452 0.000000 0.000887 0.000000
# 3 0.000454 -0.003452 0.018705 0.000000 -0.018939 0.000000
# 4 0.000000 0.000000 0.000000 0.027558 0.000000 -0.060612
# 5 -0.012939 0.000887 -0.018939 0.000000 0.048292 0.000000
# 6 0.000000 0.000000 0.000000 -0.060612 0.000000 -0.125574
#
#
# Mechanical properties :
#
#
# Convention : Reuss Voigt Hill
#
# Bulk Modulus (GPa) = 24.32560 52.09178 38.20869
# Shear Modulus (GPa) = 230.58608 27.29725 128.94166
#
# Velocity S-wave (km/s) = 9.77671 3.36384 7.31093
# Velocity P-wave (km/s) = 11.72728 6.05646 9.33300
#
# Compressibility (1/GPa) = 0.04110896
#
# Stress axis : x y z
#
# Youngs Moduli (GPa) = 65.75739 64.53860 53.46231
#
# Poissons Ratio (x) = 0.07432 -0.02429
# Poissons Ratio (y) = 0.07572 0.18453
# Poissons Ratio (z) = -0.02987 0.22276
#
# Static dielectric constant tensor:
#      x y z
#    x 2.060720 0.000000 0.063500 
#    y 0.000000 1.924900 0.000000 
#    z 0.063500 0.000000 1.961430 
# 
# From -- ./inp_files/243820.got.cif
#   From: 2010.05.17/outbox.cif.g08.bks.cpg/sg15_122_cif.got.tgz:243820.got - 2010.06.03 18:47:42.
