data_PCOD9263806
_publ_section_title
;
Structure prediction by ZEFSAII (Michael W. Deem and Ramdas Pophale) SiO2 
 PCOD9263806
Probable space group: C 2/C
;
_chemical_formula_sum "Si O2"
_cell_formula_units_Z 56
_cell_length_a 15.204565
_cell_length_b 15.813897
_cell_length_c 12.052480
_cell_angle_alpha 90.000000
_cell_angle_beta 115.837259
_cell_angle_gamma 90.000000
_cell_volume 2608.248644
_symmetry_space_group_name_H-M "C 2/C"
_symmetry_group_IT_number 15
_symmetry_cell_setting 'monoclinic'
loop_
_space_group_symop_operation_xyz
x,y,z
-x,y,1/2-z
-x,-y,-z
x,-y,1/2+z
1/2+x,1/2+y,z
1/2-x,1/2+y,1/2-z
1/2-x,1/2-y,-z
1/2+x,1/2-y,1/2+z
loop_
_atom_site_type_symbol
_atom_site_label
_atom_site_fract_x
_atom_site_fract_y
_atom_site_fract_z
Si Si1 0.108538 0.571584 0.795245
Si Si2 0.720256 0.401082 0.258365
Si Si3 0.608114 0.725641 0.848931
Si Si4 0.392842 0.390102 0.958881
Si Si5 0.762261 0.424495 0.914460
Si Si6 0.829658 0.391626 0.730499
Si Si7 0.913280 0.073643 0.033940
O O1 0.179420 0.620741 0.750076
O O2 0.107165 0.476207 0.745610
O O3 0.000000 0.604913 0.750000
O O4 0.164730 0.563996 0.942804
O O5 0.684453 0.330369 0.322513
O O6 0.738972 0.486533 0.339794
O O7 0.639968 0.412317 0.115428
O O8 0.500000 0.703170 0.750000
O O9 0.628956 0.821329 0.827885
O O10 0.611745 0.697082 0.977483
O O11 0.282514 0.409583 0.864052
O O12 0.421605 0.471510 0.050390
O O13 0.477867 0.389610 0.913854
O O14 0.816029 0.367015 0.851975
O O15 0.660382 0.393788 0.912412
#
# Coordination Sequence:
#
# PCOD9263806 Si02
#       7
#     8   8   8   8   8   8   8
#     4  10  21  40  62  85 117 160 213 257 293 360
#     4  10  19  37  59  89 118 154 207 248 310 355
#     4  12  23  38  61  88 126 167 192 254 313 373
#     4  11  20  35  60  91 125 154 204 254 303 367
#     4  10  19  38  61  90 120 156 205 261 296 357
#     4  11  23  38  56  93 125 163 204 248 312 367
#     4  10  19  34  60  93 118 155 208 254 307 353
#
# _framework density 21.470347
#
# number of rings (size 3 to 8) (size 9 to 14) (size 15 to 20)
#    0.000    1.429    7.143    0.857    0.000    2.857 
#    0.000    5.714    3.143    0.000    0.000    0.000 
#    0.000    0.000    0.000    0.000    0.000    0.000 
#
# Total GULP energy -156290.417146 kJ/mol
# GULP energy per Si atom -5581.800612 kJ/mol
# Density = 2.142148 g / cm^3
# Si number density = 21.470347 Si / 1000 Ang^3
#
#
#
# Elastic Constant Matrix: (Units=GPa)
#
#
# Indices 1 2 3 4 5 6 
#
# 1 141.1815 4.6950 21.1441 0.0000 -4.6422 0.0000
# 2 4.6950 24.2889 -8.8654 0.0000 -10.5337 0.0000
# 3 21.1441 -8.8654 40.1746 0.0000 -9.2466 0.0000
# 4 0.0000 0.0000 0.0000 16.3452 0.0000 -7.3970
# 5 -4.6422 -10.5337 -9.2466 0.0000 28.8590 0.0000
# 6 0.0000 0.0000 0.0000 -7.3970 0.0000 14.0128
#
#
#
# Elastic Compliance Matrix: (Units=1/GPa)
#
#
# Indices 1 2 3 4 5 6 
#
# 1 0.008026 -0.004628 -0.005762 0.000000 -0.002244 0.000000
# 2 -0.004628 0.063578 0.023358 0.000000 0.029946 0.000000
# 3 -0.005762 0.023358 0.037600 0.000000 0.019646 0.000000
# 4 0.000000 0.000000 0.000000 0.080382 0.000000 0.042432
# 5 -0.002244 0.029946 0.019646 0.000000 0.051516 0.000000
# 6 0.000000 0.000000 0.000000 0.042432 0.000000 0.093762
#
#
# Mechanical properties :
#
#
# Convention : Reuss Voigt Hill
#
# Bulk Modulus (GPa) = 7.39967 26.62136 17.01051
# Shear Modulus (GPa) = 14.12529 24.42149 19.27339
#
# Velocity S-wave (km/s) = 2.56773 3.37627 2.99937
# Velocity P-wave (km/s) = 3.49928 5.25595 4.46486
#
# Compressibility (1/GPa) = 0.13514120
#
# Stress axis : x y z
#
# Youngs Moduli (GPa) = 124.59305 15.72861 26.59562
#
# Poissons Ratio (x) = 0.07279 0.15324
# Poissons Ratio (y) = 0.57660 -0.62122
# Poissons Ratio (z) = 0.71790 -0.36739
#
# Static dielectric constant tensor:
#      x y z
#    x 1.789890 0.000000 -0.017690 
#    y 0.000000 1.788450 0.000000 
#    z -0.017690 0.000000 1.836240 
# 
# From -- ./inp_files/98404.got.cif
#   From: 2010.05.17/outbox.cif.g08.bks.cpg/sg15_50_cif.got.tgz:98404.got - 2010.06.03 18:47:42.
