data_PCOD9263182
_publ_section_title
;
Structure prediction by ZEFSAII (Michael W. Deem and Ramdas Pophale) SiO2 
 PCOD9263182
Probable space group: C 2/C
;
_chemical_formula_sum "Si O2"
_cell_formula_units_Z 48
_cell_length_a 32.158784
_cell_length_b 10.325948
_cell_length_c 8.654643
_cell_angle_alpha 90.000000
_cell_angle_beta 70.453938
_cell_angle_gamma 90.000000
_cell_volume 2708.329285
_symmetry_space_group_name_H-M "C 2/C"
_symmetry_group_IT_number 15
_symmetry_cell_setting 'monoclinic'
loop_
_space_group_symop_operation_xyz
x,y,z
-x,y,1/2-z
-x,-y,-z
x,-y,1/2+z
1/2+x,1/2+y,z
1/2-x,1/2+y,1/2-z
1/2-x,1/2-y,-z
1/2+x,1/2-y,1/2+z
loop_
_atom_site_type_symbol
_atom_site_label
_atom_site_fract_x
_atom_site_fract_y
_atom_site_fract_z
Si Si1 0.358150 0.438386 0.812858
Si Si2 0.860094 0.199504 0.975717
Si Si3 0.262777 0.615024 0.558290
Si Si4 0.543378 0.588978 0.288570
Si Si5 0.225796 0.365355 0.442715
Si Si6 0.957318 0.188490 0.859865
O O1 0.357835 0.594311 0.839142
O O2 0.354578 0.385700 0.641107
O O3 0.405132 0.381912 0.817430
O O4 0.314465 0.399430 0.958808
O O5 0.909761 0.253843 0.912866
O O6 0.823737 0.311374 0.015785
O O7 0.250000 0.750000 0.500000
O O8 0.234279 0.498212 0.521633
O O9 0.250540 0.617216 0.751148
O O10 0.500000 0.638874 0.250000
O O11 0.538481 0.630014 0.472598
O O12 0.543236 0.434798 0.255975
O O13 0.250000 0.250000 0.500000
O O14 0.000000 0.266449 0.750000
#
# Coordination Sequence:
#
# PCOD9263182 Si02
#       6
#     8   8   8   8   8   8
#     4  10  19  34  53  78 113 149 182 226 280 329
#     4  10  20  34  53  81 112 150 188 230 278 335
#     4  12  23  39  59  82 114 151 190 230 280 331
#     4   9  16  26  44  72 106 141 178 217 271 330
#     4  12  24  40  58  83 112 148 191 231 280 337
#     4   9  16  27  45  71 107 143 178 225 273 328
#
# _framework density 17.723103999999999
#
# number of rings (size 3 to 8) (size 9 to 14) (size 15 to 20)
#    0.000    1.667    3.333    4.000    0.000    1.333 
#    0.000    0.000    0.000    0.000    0.000    2.333 
#    0.000    0.000    0.000    0.000    0.000    0.000 
#
# Total GULP energy -133615.453120 kJ/mol
# GULP energy per Si atom -5567.310547 kJ/mol
# Density = 1.768277 g / cm^3
# Si number density = 17.723104 Si / 1000 Ang^3
#
#
#
# Elastic Constant Matrix: (Units=GPa)
#
#
# Indices 1 2 3 4 5 6 
#
# 1 165.0405 41.0759 60.6229 0.0000 -39.1328 0.0000
# 2 41.0759 72.7949 30.3717 0.0000 2.9010 0.0000
# 3 60.6229 30.3717 102.1727 0.0000 -18.1392 0.0000
# 4 0.0000 0.0000 0.0000 22.7646 0.0000 3.0791
# 5 -39.1328 2.9010 -18.1392 0.0000 36.9648 0.0000
# 6 0.0000 0.0000 0.0000 3.0791 0.0000 21.6689
#
#
#
# Elastic Compliance Matrix: (Units=1/GPa)
#
#
# Indices 1 2 3 4 5 6 
#
# 1 0.011036 -0.005368 -0.003071 0.000000 0.010598 0.000000
# 2 -0.005368 0.018811 -0.004029 0.000000 -0.009137 0.000000
# 3 -0.003071 -0.004029 0.013458 0.000000 0.003669 0.000000
# 4 0.000000 0.000000 0.000000 0.044789 0.000000 -0.006364
# 5 0.010598 -0.009137 0.003669 0.000000 0.040790 0.000000
# 6 0.000000 0.000000 0.000000 -0.006364 0.000000 0.047054
#
#
# Mechanical properties :
#
#
# Convention : Reuss Voigt Hill
#
# Bulk Modulus (GPa) = 54.43625 67.12769 60.78197
# Shear Modulus (GPa) = 24.15494 30.14215 27.14854
#
# Velocity S-wave (km/s) = 3.69576 4.12846 3.91809
# Velocity P-wave (km/s) = 6.99951 7.78997 7.40529
#
# Compressibility (1/GPa) = 0.01837011
#
# Stress axis : x y z
#
# Youngs Moduli (GPa) = 90.61212 53.15928 74.30313
#
# Poissons Ratio (x) = 0.28538 0.22817
# Poissons Ratio (y) = 0.48644 0.29934
# Poissons Ratio (z) = 0.27825 0.21416
#
# Static dielectric constant tensor:
#      x y z
#    x 1.715940 0.000000 -0.008460 
#    y 0.000000 1.585640 0.000000 
#    z -0.008460 0.000000 1.600730 
# 
# From -- ./inp_files/68834.got.cif
#   From: 2010.05.17/outbox.cif.g08.bks.cpg/sg15_35_cif.got.tgz:68834.got - 2010.06.03 18:47:42.
