data_PCOD9263527
_publ_section_title
;
Structure prediction by ZEFSAII (Michael W. Deem and Ramdas Pophale) SiO2 
 PCOD9263527
Probable space group: C 2/C
;
_chemical_formula_sum "Si O2"
_cell_formula_units_Z 56
_cell_length_a 15.172549
_cell_length_b 17.357940
_cell_length_c 11.388856
_cell_angle_alpha 90.000000
_cell_angle_beta 71.257786
_cell_angle_gamma 90.000000
_cell_volume 2840.369219
_symmetry_space_group_name_H-M "C 2/C"
_symmetry_group_IT_number 15
_symmetry_cell_setting 'monoclinic'
loop_
_space_group_symop_operation_xyz
x,y,z
-x,y,1/2-z
-x,-y,-z
x,-y,1/2+z
1/2+x,1/2+y,z
1/2-x,1/2+y,1/2-z
1/2-x,1/2-y,-z
1/2+x,1/2-y,1/2+z
loop_
_atom_site_type_symbol
_atom_site_label
_atom_site_fract_x
_atom_site_fract_y
_atom_site_fract_z
Si Si1 0.403999 0.392518 0.013436
Si Si2 0.554383 0.933537 0.903724
Si Si3 0.396704 0.561040 0.113777
Si Si4 0.113990 0.374201 0.654940
Si Si5 0.705659 0.401401 0.070846
Si Si6 0.259157 0.576253 0.379606
Si Si7 0.096321 0.209721 0.773704
O O1 0.394332 0.467794 0.103170
O O2 0.411118 0.316480 0.089061
O O3 0.499390 0.410607 0.902306
O O4 0.316872 0.389501 0.963423
O O5 0.598576 0.945825 0.752369
O O6 0.471024 0.876209 0.901278
O O7 0.648658 0.907098 0.928794
O O8 0.500000 0.000000 0.000000
O O9 0.317713 0.592535 0.235493
O O10 0.375804 0.588437 0.990120
O O11 0.206124 0.376818 0.541734
O O12 0.115383 0.297896 0.733183
O O13 0.730559 0.484206 0.111883
O O14 0.676715 0.340902 0.180139
O O15 0.000000 0.189518 0.750000
#
# Coordination Sequence:
#
# PCOD9263527 Si02
#       7
#     8   8   8   8   8   8   8
#     4  10  22  33  57  93 124 167 194 252 306 370
#     4  11  22  40  64  88 116 158 215 270 308 351
#     4  10  19  34  57  87 127 159 205 242 313 362
#     4  11  24  41  63  90 119 166 210 257 311 365
#     4  11  21  36  63  90 123 168 199 260 307 362
#     4  11  21  36  61  92 126 155 211 258 316 360
#     4  12  22  39  61  90 130 162 210 245 306 384
#
# _framework density 19.715745999999999
#
# number of rings (size 3 to 8) (size 9 to 14) (size 15 to 20)
#    0.000    1.143    7.143    0.857    0.000    0.000 
#    0.000    0.714    0.000    0.000    7.429    0.000 
#    0.000    0.000    0.000    0.000    0.000    0.000 
#
# Total GULP energy -156003.180848 kJ/mol
# GULP energy per Si atom -5571.542173 kJ/mol
# Density = 1.967087 g / cm^3
# Si number density = 19.715746 Si / 1000 Ang^3
#
#
#
# Elastic Constant Matrix: (Units=GPa)
#
#
# Indices 1 2 3 4 5 6 
#
# 1 133.1482 11.4569 27.0906 0.0000 1.8577 0.0000
# 2 11.4569 52.1290 35.2749 0.0000 9.2233 0.0000
# 3 27.0906 35.2749 81.2441 0.0000 -11.8617 0.0000
# 4 0.0000 0.0000 0.0000 27.1829 0.0000 2.0522
# 5 1.8577 9.2233 -11.8617 0.0000 32.2520 0.0000
# 6 0.0000 0.0000 0.0000 2.0522 0.0000 17.8080
#
#
#
# Elastic Compliance Matrix: (Units=1/GPa)
#
#
# Indices 1 2 3 4 5 6 
#
# 1 0.008150 0.000825 -0.003359 0.000000 -0.001941 0.000000
# 2 0.000825 0.033368 -0.017080 0.000000 -0.015872 0.000000
# 3 -0.003359 -0.017080 0.022811 0.000000 0.013468 0.000000
# 4 0.000000 0.000000 0.000000 0.037111 0.000000 -0.004277
# 5 -0.001941 -0.015872 0.013468 0.000000 0.040610 0.000000
# 6 0.000000 0.000000 0.000000 -0.004277 0.000000 0.056647
#
#
# Mechanical properties :
#
#
# Convention : Reuss Voigt Hill
#
# Bulk Modulus (GPa) = 39.83995 46.01848 42.92921
# Shear Modulus (GPa) = 20.30106 28.29518 24.29812
#
# Velocity S-wave (km/s) = 3.21236 3.79246 3.51440
# Velocity P-wave (km/s) = 5.83181 6.52446 6.18784
#
# Compressibility (1/GPa) = 0.02510044
#
# Stress axis : x y z
#
# Youngs Moduli (GPa) = 122.69955 29.96876 43.83829
#
# Poissons Ratio (x) = -0.02474 0.14727
# Poissons Ratio (y) = -0.10129 0.74878
# Poissons Ratio (z) = 0.41220 0.51188
#
# Static dielectric constant tensor:
#      x y z
#    x 1.754930 0.000000 -0.011840 
#    y 0.000000 1.718500 0.000000 
#    z -0.011840 0.000000 1.729230 
# 
# From -- ./inp_files/98244.got.cif
#   From: 2010.05.17/outbox.cif.g08.bks.cpg/sg15_50_cif.got.tgz:98244.got - 2010.06.03 18:47:42.
