data_PCOD9263798
_publ_section_title
;
Structure prediction by ZEFSAII (Michael W. Deem and Ramdas Pophale) SiO2 
 PCOD9263798
Probable space group: C 2/C
;
_chemical_formula_sum "Si O2"
_cell_formula_units_Z 64
_cell_length_a 10.693911
_cell_length_b 12.061607
_cell_length_c 21.317212
_cell_angle_alpha 90.000000
_cell_angle_beta 67.176436
_cell_angle_gamma 90.000000
_cell_volume 2534.331809
_symmetry_space_group_name_H-M "C 2/C"
_symmetry_group_IT_number 15
_symmetry_cell_setting 'monoclinic'
loop_
_space_group_symop_operation_xyz
x,y,z
-x,y,1/2-z
-x,-y,-z
x,-y,1/2+z
1/2+x,1/2+y,z
1/2-x,1/2+y,1/2-z
1/2-x,1/2-y,-z
1/2+x,1/2-y,1/2+z
loop_
_atom_site_type_symbol
_atom_site_label
_atom_site_fract_x
_atom_site_fract_y
_atom_site_fract_z
Si Si1 0.104611 0.629173 0.779357
Si Si2 0.516411 0.350019 0.174776
Si Si3 0.904738 0.269664 0.421354
Si Si4 0.485692 0.525074 0.093812
Si Si5 0.787944 0.746703 0.145233
Si Si6 0.426695 0.862037 0.011021
Si Si7 0.194833 0.114735 0.467425
Si Si8 0.777974 0.509832 0.637743
O O1 0.202688 0.707502 0.720609
O O2 0.180143 0.533348 0.800065
O O3 0.000000 0.582913 0.750000
O O4 0.024630 0.692972 0.850164
O O5 0.500000 0.314071 0.250000
O O6 0.453864 0.469851 0.166897
O O7 0.442680 0.269467 0.138421
O O8 0.671077 0.392485 0.142601
O O9 0.770206 0.301004 0.407801
O O10 0.930190 0.324078 0.484778
O O11 0.930303 0.138548 0.423318
O O12 0.583539 0.438745 0.037298
O O13 0.344108 0.549869 0.087770
O O14 0.750820 0.619229 0.142403
O O15 0.348612 0.897067 0.961906
O O16 0.390845 0.963515 0.064338
O O17 0.346202 0.743136 0.034928
#
# Coordination Sequence:
#
# PCOD9263798 Si02
#       8
#     8   8   8   8   8   8   8   8
#     4   9  20  35  53  79 116 159 205 243 306 373
#     4  12  24  37  59  92 126 158 205 261 305 376
#     4   9  18  32  56  82 114 160 198 249 309 375
#     4  10  19  34  60  91 118 153 208 253 312 369
#     4  11  22  35  58  84 119 163 205 252 307 374
#     4   9  17  33  61  85 117 158 201 254 314 367
#     4   9  17  32  61  95 111 156 209 254 309 373
#     4  11  21  39  59  84 123 163 202 258 313 368
#
# _framework density 25.253205000000001
#
# number of rings (size 3 to 8) (size 9 to 14) (size 15 to 20)
#    0.000    2.000    3.750    0.000    1.750    0.500 
#    0.000    0.000   13.750   13.500    0.000    0.000 
#    0.000    0.000    0.000    0.000    0.000    0.000 
#
# Total GULP energy -178303.574342 kJ/mol
# GULP energy per Si atom -5571.986698 kJ/mol
# Density = 2.519573 g / cm^3
# Si number density = 25.253205 Si / 1000 Ang^3
#
#
#
# Elastic Constant Matrix: (Units=GPa)
#
#
# Indices 1 2 3 4 5 6 
#
# 1 124.3461 36.3248 72.2401 0.0000 37.9402 0.0000
# 2 36.3248 72.4921 13.4212 0.0000 24.3216 0.0000
# 3 72.2401 13.4212 72.3525 0.0000 29.8557 0.0000
# 4 0.0000 0.0000 0.0000 34.3892 0.0000 6.4772
# 5 37.9402 24.3216 29.8557 0.0000 55.5647 0.0000
# 6 0.0000 0.0000 0.0000 6.4772 0.0000 21.1852
#
#
#
# Elastic Compliance Matrix: (Units=1/GPa)
#
#
# Indices 1 2 3 4 5 6 
#
# 1 0.022417 -0.007030 -0.020599 0.000000 -0.001162 0.000000
# 2 -0.007030 0.018374 0.006358 0.000000 -0.006659 0.000000
# 3 -0.020599 0.006358 0.036688 0.000000 -0.008431 0.000000
# 4 0.000000 0.000000 0.000000 0.030856 0.000000 -0.009434
# 5 -0.001162 -0.006659 -0.008431 0.000000 0.026235 0.000000
# 6 0.000000 0.000000 0.000000 -0.009434 0.000000 0.050087
#
#
# Mechanical properties :
#
#
# Convention : Reuss Voigt Hill
#
# Bulk Modulus (GPa) = 28.62225 57.01809 42.82017
# Shear Modulus (GPa) = 20.93417 32.04146 26.48782
#
# Velocity S-wave (km/s) = 2.88231 3.56590 3.24217
# Velocity P-wave (km/s) = 4.73663 6.29140 5.56855
#
# Compressibility (1/GPa) = 0.03493785
#
# Stress axis : x y z
#
# Youngs Moduli (GPa) = 44.60845 54.42466 27.25708
#
# Poissons Ratio (x) = 0.38258 0.56147
# Poissons Ratio (y) = 0.31358 -0.17330
# Poissons Ratio (z) = 0.91890 -0.34604
#
# Static dielectric constant tensor:
#      x y z
#    x 2.174530 0.000000 -0.009000 
#    y 0.000000 1.939940 0.000000 
#    z -0.009000 0.000000 2.030900 
# 
# From -- ./inp_files/292027.got.cif
#   From: 2010.05.17/outbox.cif.g08.bks.cpg/sg15_147_cif.got.tgz:292027.got - 2010.06.03 18:47:42.
