data_PCOD9263835
_publ_section_title
;
Structure prediction by ZEFSAII (Michael W. Deem and Ramdas Pophale) SiO2 
 PCOD9263835
Probable space group: C 2/C
;
_chemical_formula_sum "Si O2"
_cell_formula_units_Z 44
_cell_length_a 24.173711
_cell_length_b 19.866240
_cell_length_c 4.945161
_cell_angle_alpha 90.000000
_cell_angle_beta 106.031345
_cell_angle_gamma 90.000000
_cell_volume 2282.510992
_symmetry_space_group_name_H-M "C 2/C"
_symmetry_group_IT_number 15
_symmetry_cell_setting 'monoclinic'
loop_
_space_group_symop_operation_xyz
x,y,z
-x,y,1/2-z
-x,-y,-z
x,-y,1/2+z
1/2+x,1/2+y,z
1/2-x,1/2+y,1/2-z
1/2-x,1/2-y,-z
1/2+x,1/2-y,1/2+z
loop_
_atom_site_type_symbol
_atom_site_label
_atom_site_fract_x
_atom_site_fract_y
_atom_site_fract_z
Si Si1 0.443010 0.849745 0.365636
Si Si2 0.000000 0.548295 0.250000
Si Si3 0.849723 0.551238 0.534469
Si Si4 0.000000 0.854974 0.750000
Si Si5 0.402188 0.547187 0.333079
Si Si6 0.277496 0.455264 0.540962
Si Si7 0.000000 0.766858 0.250000
O O1 0.500000 0.854248 0.250000
O O2 0.448636 0.901307 0.623528
O O3 0.390973 0.884182 0.132095
O O4 0.451488 0.778746 0.531326
O O5 0.000000 0.500000 0.500000
O O6 0.857514 0.506150 0.277104
O O7 0.783619 0.576543 0.469657
O O8 0.048896 0.901101 0.682995
O O9 0.976220 0.810562 0.467745
O O10 0.407347 0.517391 0.639983
O O11 0.338421 0.577454 0.197321
O O12 0.277968 0.522748 0.729244
#
# Coordination Sequence:
#
# PCOD9263835 Si02
#       7
#     8   4   8   4   8   8   4
#     4  11  23  36  51  70 104 150 186 230 259 300
#     4  11  20  29  46  73 100 123 168 228 276 305
#     4  10  21  31  52  80 107 138 177 219 269 316
#     4  12  22  38  58  82 106 138 176 214 260 328
#     4  10  19  34  61  89 114 128 156 208 274 333
#     4   8  16  32  49  79 113 137 156 199 267 332
#     4  11  26  39  50  73 108 149 186 220 262 295
#
# _framework density 19.277018000000002
#
# number of rings (size 3 to 8) (size 9 to 14) (size 15 to 20)
#    0.000    1.818    1.818    2.727    5.091    0.000 
#    0.000    0.000    0.000    2.182    0.000    0.000 
#    0.000    0.000    0.000    0.000    0.000    0.000 
#
# Total GULP energy -122485.254137 kJ/mol
# GULP energy per Si atom -5567.511552 kJ/mol
# Density = 1.923314 g / cm^3
# Si number density = 19.277018 Si / 1000 Ang^3
#
#
#
# Elastic Constant Matrix: (Units=GPa)
#
#
# Indices 1 2 3 4 5 6 
#
# 1 112.8284 26.9442 9.2929 0.0000 11.3370 0.0000
# 2 26.9442 46.0961 10.9748 0.0000 3.0579 0.0000
# 3 9.2929 10.9748 84.1617 0.0000 -21.4739 0.0000
# 4 0.0000 0.0000 0.0000 5.8501 0.0000 10.0010
# 5 11.3370 3.0579 -21.4739 0.0000 32.9079 0.0000
# 6 0.0000 0.0000 0.0000 10.0010 0.0000 -4.5789
#
#
#
# Elastic Compliance Matrix: (Units=1/GPa)
#
#
# Indices 1 2 3 4 5 6 
#
# 1 0.010756 -0.005650 -0.001515 0.000000 -0.004169 0.000000
# 2 -0.005650 0.026002 -0.003463 0.000000 -0.002730 0.000000
# 3 -0.001515 -0.003463 0.015256 0.000000 0.010799 0.000000
# 4 0.000000 0.000000 0.000000 0.036110 0.000000 0.078868
# 5 -0.004169 -0.002730 0.010799 0.000000 0.039124 0.000000
# 6 0.000000 0.000000 0.000000 0.078868 0.000000 -0.046134
#
#
# Mechanical properties :
#
#
# Convention : Reuss Voigt Hill
#
# Bulk Modulus (GPa) = 32.51149 37.50109 35.00629
# Shear Modulus (GPa) = 44.39627 19.89410 32.14519
#
# Velocity S-wave (km/s) = 4.80423 3.21598 4.08798
# Velocity P-wave (km/s) = 6.90480 5.76941 6.36248
#
# Compressibility (1/GPa) = 0.03075835
#
# Stress axis : x y z
#
# Youngs Moduli (GPa) = 92.97249 38.45860 65.54770
#
# Poissons Ratio (x) = 0.21729 0.09927
# Poissons Ratio (y) = 0.52529 0.22701
# Poissons Ratio (z) = 0.14081 0.13320
#
# Static dielectric constant tensor:
#      x y z
#    x 1.765410 0.000000 0.042270 
#    y 0.000000 1.683330 0.000000 
#    z 0.042270 0.000000 1.772460 
# 
# From -- ./inp_files/17019.got.cif
#   From: 2010.05.17/outbox.cif.g08.bks.cpg/sg15_9_cif.got.tgz:17019.got - 2010.06.03 18:47:42.
