data_PCOD9263191
_publ_section_title
;
Structure prediction by ZEFSAII (Michael W. Deem and Ramdas Pophale) SiO2 
 PCOD9263191
Probable space group: C 2/C
;
_chemical_formula_sum "Si O2"
_cell_formula_units_Z 64
_cell_length_a 20.612842
_cell_length_b 7.082298
_cell_length_c 22.879642
_cell_angle_alpha 90.000000
_cell_angle_beta 124.269632
_cell_angle_gamma 90.000000
_cell_volume 2760.259757
_symmetry_space_group_name_H-M "C 2/C"
_symmetry_group_IT_number 15
_symmetry_cell_setting 'monoclinic'
loop_
_space_group_symop_operation_xyz
x,y,z
-x,y,1/2-z
-x,-y,-z
x,-y,1/2+z
1/2+x,1/2+y,z
1/2-x,1/2+y,1/2-z
1/2-x,1/2-y,-z
1/2+x,1/2-y,1/2+z
loop_
_atom_site_type_symbol
_atom_site_label
_atom_site_fract_x
_atom_site_fract_y
_atom_site_fract_z
Si Si1 0.505883 0.533317 0.930281
Si Si2 0.459765 0.004476 0.791807
Si Si3 0.278517 0.576650 0.187533
Si Si4 0.970754 0.576363 0.548858
Si Si5 0.142079 0.024813 0.076965
Si Si6 0.455971 0.463510 0.785027
Si Si7 0.205768 0.319178 0.535796
Si Si8 0.214113 0.517092 0.277617
O O1 0.509634 0.302745 0.939698
O O2 0.420052 0.581319 0.912049
O O3 0.503862 0.557787 0.861180
O O4 0.579459 0.624055 0.001378
O O5 0.500000 0.951411 0.750000
O O6 0.492526 0.976798 0.874906
O O7 0.459073 0.234890 0.789629
O O8 0.371974 0.922070 0.747056
O O9 0.364264 0.493497 0.241335
O O10 0.254328 0.558914 0.107733
O O11 0.222543 0.515181 0.211971
O O12 0.282146 0.800559 0.200674
O O13 0.877121 0.575032 0.512585
O O14 0.000000 0.500000 0.500000
O O15 0.184098 0.876302 0.056737
O O16 0.210444 0.113573 0.151899
O O17 0.500000 0.521408 0.750000
O O18 0.250000 0.250000 0.500000
#
# Coordination Sequence:
#
# PCOD9263191 Si02
#       8
#     8   8   8   8   8   8   8   8
#     4   9  17  32  51  77 104 139 177 214 269 332
#     4   9  19  31  52  75 103 136 182 226 273 325
#     4  10  20  33  54  80 108 142 179 227 277 327
#     4  10  20  34  53  78 109 144 180 228 275 335
#     4   9  18  31  51  76 104 138 176 217 272 329
#     4   9  17  28  49  78 104 129 172 223 267 312
#     4  10  22  33  54  81 109 139 182 235 282 321
#     4  10  19  34  53  81 107 141 181 227 274 329
#
# _framework density 23.186222000000001
#
# number of rings (size 3 to 8) (size 9 to 14) (size 15 to 20)
#    0.000    2.500    1.250    0.750   10.500    0.000 
#    0.000    0.000    0.000    3.000    0.000    0.000 
#    0.000    0.000    0.000    0.000    0.000    0.000 
#
# Total GULP energy -178367.623178 kJ/mol
# GULP energy per Si atom -5573.988224 kJ/mol
# Density = 2.313345 g / cm^3
# Si number density = 23.186222 Si / 1000 Ang^3
#
#
#
# Elastic Constant Matrix: (Units=GPa)
#
#
# Indices 1 2 3 4 5 6 
#
# 1 159.9042 23.8927 104.0265 0.0000 -26.9259 0.0000
# 2 23.8927 80.1137 15.3847 0.0000 -2.1547 0.0001
# 3 104.0265 15.3847 204.4968 0.0000 -17.9943 0.0000
# 4 0.0000 0.0000 0.0000 -2.1520 0.0000 -3.8403
# 5 -26.9259 -2.1547 -17.9943 0.0000 42.5981 0.0000
# 6 0.0000 0.0001 0.0000 -3.8403 0.0000 1.9475
#
#
#
# Elastic Compliance Matrix: (Units=1/GPa)
#
#
# Indices 1 2 3 4 5 6 
#
# 1 0.010400 -0.002071 -0.004742 0.000000 0.004466 0.000000
# 2 -0.002071 0.013080 0.000013 0.000000 -0.000642 0.000000
# 3 -0.004742 0.000013 0.007309 0.000000 0.000091 0.000000
# 4 0.000000 0.000000 0.000000 -0.102831 0.000000 -0.202775
# 5 0.004466 -0.000642 0.000091 0.000000 0.026304 0.000000
# 6 0.000000 0.000000 0.000000 -0.202775 0.000000 0.113631
#
#
# Mechanical properties :
#
#
# Convention : Reuss Voigt Hill
#
# Bulk Modulus (GPa) = 58.17348 81.23584 69.70466
# Shear Modulus (GPa) = 57.32504 28.55943 42.94223
#
# Velocity S-wave (km/s) = 4.97769 3.51342 4.30822
# Velocity P-wave (km/s) = 7.62763 7.18131 7.40783
#
# Compressibility (1/GPa) = 0.01718996
#
# Stress axis : x y z
#
# Youngs Moduli (GPa) = 96.15528 76.45178 136.81566
#
# Poissons Ratio (x) = 0.15833 0.64872
# Poissons Ratio (y) = 0.19913 -0.00177
# Poissons Ratio (z) = 0.45593 -0.00099
#
# Static dielectric constant tensor:
#      x y z
#    x 1.707750 0.000000 -0.235090 
#    y 0.000000 1.939450 0.000000 
#    z -0.235090 0.000000 1.296060 
# 
# From -- ./inp_files/248413.got.cif
#   From: 2010.05.17/outbox.cif.g08.bks.cpg/sg15_125_cif.got.tgz:248413.got - 2010.06.03 18:47:42.
