data_PCOD9263097
_publ_section_title
;
Structure prediction by ZEFSAII (Michael W. Deem and Ramdas Pophale) SiO2 
 PCOD9263097
Probable space group: C 2/C
;
_chemical_formula_sum "Si O2"
_cell_formula_units_Z 56
_cell_length_a 12.843679
_cell_length_b 24.723093
_cell_length_c 14.605092
_cell_angle_alpha 90.000000
_cell_angle_beta 45.825072
_cell_angle_gamma 90.000000
_cell_volume 3326.184045
_symmetry_space_group_name_H-M "C 2/C"
_symmetry_group_IT_number 15
_symmetry_cell_setting 'monoclinic'
loop_
_space_group_symop_operation_xyz
x,y,z
-x,y,1/2-z
-x,-y,-z
x,-y,1/2+z
1/2+x,1/2+y,z
1/2-x,1/2+y,1/2-z
1/2-x,1/2-y,-z
1/2+x,1/2-y,1/2+z
loop_
_atom_site_type_symbol
_atom_site_label
_atom_site_fract_x
_atom_site_fract_y
_atom_site_fract_z
Si Si1 0.125311 0.579687 0.746689
Si Si2 0.334302 0.513119 0.081447
Si Si3 0.669541 0.505993 0.631693
Si Si4 0.825137 0.193944 0.343932
Si Si5 0.740335 0.091127 0.282611
Si Si6 0.054573 0.561428 0.981769
Si Si7 0.823823 0.314538 0.366598
O O1 0.225947 0.527879 0.698941
O O2 0.048449 0.591980 0.889283
O O3 0.220358 0.630420 0.656462
O O4 0.000000 0.567116 0.750000
O O5 0.304918 0.570922 0.146669
O O6 0.500000 0.500000 0.000000
O O7 0.306591 0.500813 0.991813
O O8 0.500000 0.517858 0.750000
O O9 0.707787 0.452738 0.670080
O O10 0.779953 0.554033 0.590145
O O11 0.785007 0.149391 0.293335
O O12 0.784039 0.256456 0.348527
O O13 0.741169 0.182660 0.491249
O O14 0.000000 0.191672 0.250000
O O15 0.566090 0.087478 0.380489
O O16 0.000000 0.500000 0.000000
O O17 0.000000 0.316766 0.250000
#
# Coordination Sequence:
#
# PCOD9263097 Si02
#       7
#     8   8   8   8   8   8   8
#     4  11  19  33  55  76 107 143 179 212 260 329
#     4  12  23  32  50  77 107 143 181 216 274 323
#     4  11  20  35  48  70 110 140 174 220 259 319
#     4  10  20  34  52  79 114 142 180 225 270 318
#     4  11  21  34  51  77 110 145 174 217 269 323
#     4  10  19  34  48  74 105 138 177 213 265 318
#     4   9  19  34  54  78 105 149 182 214 271 331
#
# _framework density 16.836110000000001
#
# number of rings (size 3 to 8) (size 9 to 14) (size 15 to 20)
#    0.000    1.429    4.286    4.714    2.000    0.000 
#    0.000    0.000    0.000    0.000    0.000    1.000 
#    4.286    0.000    0.000    0.000    0.000    0.000 
#
# Total GULP energy -155926.437409 kJ/mol
# GULP energy per Si atom -5568.801336 kJ/mol
# Density = 1.679779 g / cm^3
# Si number density = 16.836110 Si / 1000 Ang^3
#
#
#
# Elastic Constant Matrix: (Units=GPa)
#
#
# Indices 1 2 3 4 5 6 
#
# 1 51.2109 9.0621 10.3746 0.0000 -11.1630 0.0000
# 2 9.0621 77.6319 1.3669 0.0000 -2.2330 0.0000
# 3 10.3746 1.3669 84.6186 0.0000 -6.5372 0.0000
# 4 0.0000 0.0000 0.0000 27.2853 0.0000 4.0187
# 5 -11.1630 -2.2330 -6.5372 0.0000 35.1910 0.0000
# 6 0.0000 0.0000 0.0000 4.0187 0.0000 21.8738
#
#
#
# Elastic Compliance Matrix: (Units=1/GPa)
#
#
# Indices 1 2 3 4 5 6 
#
# 1 0.021756 -0.002319 -0.002139 0.000000 0.006357 0.000000
# 2 -0.002319 0.013154 0.000081 0.000000 0.000114 0.000000
# 3 -0.002139 0.000081 0.012202 0.000000 0.001593 0.000000
# 4 0.000000 0.000000 0.000000 0.037669 0.000000 -0.006921
# 5 0.006357 0.000114 0.001593 0.000000 0.030736 0.000000
# 6 0.000000 0.000000 0.000000 -0.006921 0.000000 0.046988
#
#
# Mechanical properties :
#
#
# Convention : Reuss Voigt Hill
#
# Bulk Modulus (GPa) = 26.07062 28.34096 27.20579
# Shear Modulus (GPa) = 27.16713 29.71388 28.44050
#
# Velocity S-wave (km/s) = 4.02135 4.20562 4.11451
# Velocity P-wave (km/s) = 6.08935 6.36026 6.22628
#
# Compressibility (1/GPa) = 0.03835736
#
# Stress axis : x y z
#
# Youngs Moduli (GPa) = 45.96334 76.02320 81.95538
#
# Poissons Ratio (x) = 0.17631 0.17529
# Poissons Ratio (y) = 0.10660 -0.00661
# Poissons Ratio (z) = 0.09831 -0.00613
#
# Static dielectric constant tensor:
#      x y z
#    x 1.584860 0.000000 0.025150 
#    y 0.000000 1.592570 0.000000 
#    z 0.025150 0.000000 1.649460 
# 
# From -- ./inp_files/120129.got.cif
#   From: 2010.05.17/outbox.cif.g08.bks.cpg/sg15_61_cif.got.tgz:120129.got - 2010.06.03 18:47:42.
