data_PCOD9263146
_publ_section_title
;
Structure prediction by ZEFSAII (Michael W. Deem and Ramdas Pophale) SiO2 
 PCOD9263146
Probable space group: C 2/C
;
_chemical_formula_sum "Si O2"
_cell_formula_units_Z 56
_cell_length_a 6.866334
_cell_length_b 13.466931
_cell_length_c 23.122839
_cell_angle_alpha 90.000000
_cell_angle_beta 69.092063
_cell_angle_gamma 90.000000
_cell_volume 1997.347729
_symmetry_space_group_name_H-M "C 2/C"
_symmetry_group_IT_number 15
_symmetry_cell_setting 'monoclinic'
loop_
_space_group_symop_operation_xyz
x,y,z
-x,y,1/2-z
-x,-y,-z
x,-y,1/2+z
1/2+x,1/2+y,z
1/2-x,1/2+y,1/2-z
1/2-x,1/2-y,-z
1/2+x,1/2-y,1/2+z
loop_
_atom_site_type_symbol
_atom_site_label
_atom_site_fract_x
_atom_site_fract_y
_atom_site_fract_z
Si Si1 0.980984 0.328520 0.999573
Si Si2 0.271254 0.032401 0.226543
Si Si3 0.564117 0.340176 0.841588
Si Si4 0.825959 0.642704 0.810520
Si Si5 0.429077 0.190210 0.135102
Si Si6 0.824366 0.371350 0.135716
Si Si7 0.439264 0.598485 0.472415
O O1 0.015360 0.210027 0.007055
O O2 0.831359 0.369902 0.065732
O O3 0.937353 0.332387 0.935862
O O4 0.191547 0.391300 0.987803
O O5 0.447260 0.104201 0.180305
O O6 0.140796 0.110591 0.276177
O O7 0.297982 0.952784 0.274093
O O8 0.205874 0.961196 0.179611
O O9 0.317719 0.315247 0.859605
O O10 0.702650 0.243401 0.842360
O O11 0.558257 0.406770 0.898951
O O12 0.603172 0.697186 0.839675
O O13 0.000000 0.696874 0.750000
O O14 0.941730 0.616271 0.858644
O O15 0.500000 0.500000 0.500000
#
# Coordination Sequence:
#
# PCOD9263146 Si02
#       7
#     8   8   8   8   8   8   8
#     4   9  19  33  51  79 115 138 178 235 280 323
#     4  11  19  28  53  78 101 144 177 205 276 330
#     4   9  19  33  51  80 106 131 176 228 269 317
#     4   9  18  31  50  74 103 131 169 226 265 309
#     4  10  19  34  52  76 108 135 174 228 268 323
#     4   9  19  36  51  76 109 134 173 230 268 318
#     4   9  17  30  55  86 106 139 180 233 280 327
#
# _framework density 28.037181
#
# number of rings (size 3 to 8) (size 9 to 14) (size 15 to 20)
#    0.000    2.571    0.000    5.571    4.000    0.571 
#    0.000    0.000    0.000   20.571    0.000    5.000 
#    0.000    0.000    0.000    0.000    0.000    0.000 
#
# Total GULP energy -156446.804384 kJ/mol
# GULP energy per Si atom -5587.385871 kJ/mol
# Density = 2.797337 g / cm^3
# Si number density = 28.037181 Si / 1000 Ang^3
#
#
#
# Elastic Constant Matrix: (Units=GPa)
#
#
# Indices 1 2 3 4 5 6 
#
# 1 87.5516 24.9149 20.7677 0.0000 -9.9772 0.0000
# 2 24.9149 166.8009 77.0681 0.0000 2.8432 0.0000
# 3 20.7677 77.0681 225.6379 0.0000 0.8477 0.0000
# 4 0.0000 0.0000 0.0000 54.3161 0.0000 8.7246
# 5 -9.9772 2.8432 0.8477 0.0000 30.6252 0.0000
# 6 0.0000 0.0000 0.0000 8.7246 0.0000 45.1747
#
#
#
# Elastic Compliance Matrix: (Units=1/GPa)
#
#
# Indices 1 2 3 4 5 6 
#
# 1 0.012523 -0.001666 -0.000600 0.000000 0.004251 0.000000
# 2 -0.001666 0.007351 -0.002353 0.000000 -0.001160 0.000000
# 3 -0.000600 -0.002353 0.005291 0.000000 -0.000123 0.000000
# 4 0.000000 0.000000 0.000000 0.019000 0.000000 -0.003669
# 5 0.004251 -0.001160 -0.000123 0.000000 0.034149 0.000000
# 6 0.000000 0.000000 0.000000 -0.003669 0.000000 0.022845
#
#
# Mechanical properties :
#
#
# Convention : Reuss Voigt Hill
#
# Bulk Modulus (GPa) = 62.78384 80.61021 71.69703
# Shear Modulus (GPa) = 43.21329 49.83917 46.52623
#
# Velocity S-wave (km/s) = 3.93018 4.22075 4.07805
# Velocity P-wave (km/s) = 6.56024 7.25028 6.91387
#
# Compressibility (1/GPa) = 0.01592767
#
# Stress axis : x y z
#
# Youngs Moduli (GPa) = 79.85596 136.03596 188.99174
#
# Poissons Ratio (x) = 0.22663 0.11331
# Poissons Ratio (y) = 0.13303 0.44471
# Poissons Ratio (z) = 0.04788 0.32011
#
# Static dielectric constant tensor:
#      x y z
#    x 2.568640 0.000000 -0.008740 
#    y 0.000000 2.325310 0.000000 
#    z -0.008740 0.000000 2.120010 
# 
# From -- ./inp_files/291964.got.cif
#   From: 2010.05.17/outbox.cif.g08.bks.cpg/sg15_146_cif.got.tgz:291964.got - 2010.06.03 18:47:42.
