data_PCOD9263197
_publ_section_title
;
Structure prediction by ZEFSAII (Michael W. Deem and Ramdas Pophale) SiO2 
 PCOD9263197
Probable space group: C 2/C
;
_chemical_formula_sum "Si O2"
_cell_formula_units_Z 60
_cell_length_a 18.890703
_cell_length_b 25.795882
_cell_length_c 5.695728
_cell_angle_alpha 90.000000
_cell_angle_beta 80.672838
_cell_angle_gamma 90.000000
_cell_volume 2738.846163
_symmetry_space_group_name_H-M "C 2/C"
_symmetry_group_IT_number 15
_symmetry_cell_setting 'monoclinic'
loop_
_space_group_symop_operation_xyz
x,y,z
-x,y,1/2-z
-x,-y,-z
x,-y,1/2+z
1/2+x,1/2+y,z
1/2-x,1/2+y,1/2-z
1/2-x,1/2-y,-z
1/2+x,1/2-y,1/2+z
loop_
_atom_site_type_symbol
_atom_site_label
_atom_site_fract_x
_atom_site_fract_y
_atom_site_fract_z
Si Si1 0.388979 0.679399 0.160668
Si Si2 0.000000 0.789531 0.250000
Si Si3 0.425182 0.220110 0.921111
Si Si4 0.732787 0.477404 0.234789
Si Si5 0.206603 0.125344 0.978450
Si Si6 0.342459 0.128420 0.207264
Si Si7 0.897666 0.484652 0.685179
Si Si8 0.252538 0.308706 0.421511
O O1 0.387628 0.737060 0.275574
O O2 0.370212 0.637152 0.368389
O O3 0.461723 0.677859 0.973950
O O4 0.323900 0.672562 0.016528
O O5 0.056102 0.751978 0.351312
O O6 0.500000 0.207057 0.750000
O O7 0.382614 0.169011 0.016734
O O8 0.706466 0.502764 0.495435
O O9 0.711798 0.417617 0.276196
O O10 0.818908 0.487320 0.199004
O O11 0.268204 0.109211 0.128397
O O12 0.233818 0.179698 0.856385
O O13 0.387288 0.076905 0.227616
O O14 0.316636 0.160248 0.448739
O O15 0.929952 0.493556 0.409280
O O16 0.250000 0.250000 0.500000
#
# Coordination Sequence:
#
# PCOD9263197 Si02
#       8
#     8   4   8   8   8   8   8   8
#     4  10  21  35  54  80 112 147 188 236 279 351
#     4  10  20  40  58  74 110 152 196 238 282 338
#     4  10  22  40  56  79 109 151 199 238 284 345
#     4  10  19  34  53  81 120 155 191 237 286 350
#     4  11  21  32  55  85 117 148 190 231 296 349
#     4  11  21  33  57  81 113 153 189 240 294 349
#     4  10  19  35  54  83 113 154 194 240 293 350
#     4  11  21  32  50  84 119 146 180 232 294 352
#
# _framework density 21.907036000000002
#
# number of rings (size 3 to 8) (size 9 to 14) (size 15 to 20)
#    0.000    1.600    2.667    4.800    1.867    3.200 
#    0.000    0.000    0.000    0.800    0.000    0.933 
#    0.000    0.000    0.000    0.000    0.000    0.000 
#
# Total GULP energy -167491.976191 kJ/mol
# GULP energy per Si atom -5583.065873 kJ/mol
# Density = 2.185717 g / cm^3
# Si number density = 21.907036 Si / 1000 Ang^3
#
#
#
# Elastic Constant Matrix: (Units=GPa)
#
#
# Indices 1 2 3 4 5 6 
#
# 1 49.0172 30.2649 24.4323 0.0000 -11.3122 0.0000
# 2 30.2649 85.9913 44.4890 0.0000 -23.6207 0.0000
# 3 24.4323 44.4890 127.2936 0.0000 -18.2245 0.0000
# 4 0.0000 0.0000 0.0000 34.9938 0.0000 -1.1830
# 5 -11.3122 -23.6207 -18.2245 0.0000 39.7722 0.0000
# 6 0.0000 0.0000 0.0000 -1.1830 0.0000 4.9020
#
#
#
# Elastic Compliance Matrix: (Units=1/GPa)
#
#
# Indices 1 2 3 4 5 6 
#
# 1 0.026711 -0.007743 -0.002131 0.000000 0.002022 0.000000
# 2 -0.007743 0.018261 -0.003916 0.000000 0.006849 0.000000
# 3 -0.002131 -0.003916 0.009861 0.000000 0.001587 0.000000
# 4 0.000000 0.000000 0.000000 0.028812 0.000000 0.006953
# 5 0.002022 0.006849 0.001587 0.000000 0.030513 0.000000
# 6 0.000000 0.000000 0.000000 0.006953 0.000000 0.205676
#
#
# Mechanical properties :
#
#
# Convention : Reuss Voigt Hill
#
# Bulk Modulus (GPa) = 36.69278 51.18607 43.93943
# Shear Modulus (GPa) = 14.02539 26.80801 20.41670
#
# Velocity S-wave (km/s) = 2.53301 3.50196 3.05613
# Velocity P-wave (km/s) = 5.03394 6.30615 5.70561
#
# Compressibility (1/GPa) = 0.02725332
#
# Stress axis : x y z
#
# Youngs Moduli (GPa) = 37.43825 54.76051 101.41401
#
# Poissons Ratio (x) = 0.42400 0.21613
# Poissons Ratio (y) = 0.28988 0.39710
# Poissons Ratio (z) = 0.07979 0.21442
#
# Static dielectric constant tensor:
#      x y z
#    x 1.811200 0.000000 0.005470 
#    y 0.000000 1.820830 0.000000 
#    z 0.005470 0.000000 1.907250 
# 
# From -- ./inp_files/14270.got.cif
#   From: 2010.05.17/outbox.cif.g08.bks.cpg/sg15_8_cif.got.tgz:14270.got - 2010.06.03 18:47:42.
