data_PCOD9263910
_publ_section_title
;
Structure prediction by ZEFSAII (Michael W. Deem and Ramdas Pophale) SiO2 
 PCOD9263910
Probable space group: C 2/C
;
_chemical_formula_sum "Si O2"
_cell_formula_units_Z 56
_cell_length_a 17.441435
_cell_length_b 8.157040
_cell_length_c 28.370680
_cell_angle_alpha 90.000000
_cell_angle_beta 132.382483
_cell_angle_gamma 90.000000
_cell_volume 2981.466893
_symmetry_space_group_name_H-M "C 2/C"
_symmetry_group_IT_number 15
_symmetry_cell_setting 'monoclinic'
loop_
_space_group_symop_operation_xyz
x,y,z
-x,y,1/2-z
-x,-y,-z
x,-y,1/2+z
1/2+x,1/2+y,z
1/2-x,1/2+y,1/2-z
1/2-x,1/2-y,-z
1/2+x,1/2-y,1/2+z
loop_
_atom_site_type_symbol
_atom_site_label
_atom_site_fract_x
_atom_site_fract_y
_atom_site_fract_z
Si Si1 0.811912 0.815559 0.884319
Si Si2 0.298772 0.985556 0.935130
Si Si3 0.917435 0.650915 0.182621
Si Si4 0.011923 0.177805 0.111173
Si Si5 0.353674 0.372793 0.467447
Si Si6 0.947911 0.977735 0.681056
Si Si7 0.149636 0.459984 0.437552
O O1 0.835045 0.645652 0.921602
O O2 0.687709 0.826332 0.831165
O O3 0.872527 0.807378 0.860459
O O4 0.844600 0.979225 0.926817
O O5 0.358591 0.813809 0.949859
O O6 0.176766 0.954013 0.873482
O O7 0.312722 0.027601 0.996460
O O8 0.885714 0.576232 0.119440
O O9 0.000000 0.558905 0.250000
O O10 0.963571 0.827582 0.189432
O O11 0.000331 0.089216 0.155875
O O12 0.947979 0.345395 0.091516
O O13 0.947236 0.092718 0.042061
O O14 0.249016 0.369371 0.455928
O O15 0.000000 0.907105 0.750000
#
# Coordination Sequence:
#
# PCOD9263910 Si02
#       7
#     8   8   8   8   8   8   8
#     4  10  23  35  59  86 119 148 183 243 299 329
#     4  10  19  38  59  84 117 150 199 235 282 351
#     4   9  21  40  57  82 113 153 199 236 281 355
#     4  11  20  37  55  89 117 139 193 242 283 344
#     4  10  19  36  58  89 117 152 185 235 283 349
#     4  10  20  36  62  80 111 157 197 233 283 347
#     4  10  19  34  63  85 110 156 196 239 280 341
#
# _framework density 18.782700999999999
#
# number of rings (size 3 to 8) (size 9 to 14) (size 15 to 20)
#    0.000    2.000    2.857    1.286    2.000    4.571 
#    2.571    4.286    0.000    0.000    0.000    0.000 
#    0.000    0.000    0.000    0.000    0.000    0.000 
#
# Total GULP energy -156029.004679 kJ/mol
# GULP energy per Si atom -5572.464453 kJ/mol
# Density = 1.873995 g / cm^3
# Si number density = 18.782701 Si / 1000 Ang^3
#
#
#
# Elastic Constant Matrix: (Units=GPa)
#
#
# Indices 1 2 3 4 5 6 
#
# 1 104.6715 32.3327 30.8587 0.0000 -7.2281 0.0000
# 2 32.3327 66.6942 28.3262 0.0000 -4.4024 0.0000
# 3 30.8587 28.3262 113.8449 0.0000 1.8284 0.0000
# 4 0.0000 0.0000 0.0000 13.4928 0.0000 -0.9351
# 5 -7.2281 -4.4024 1.8284 0.0000 7.1366 0.0000
# 6 0.0000 0.0000 0.0000 -0.9351 0.0000 13.4618
#
#
#
# Elastic Compliance Matrix: (Units=1/GPa)
#
#
# Indices 1 2 3 4 5 6 
#
# 1 0.012308 -0.004234 -0.002451 0.000000 0.010482 0.000000
# 2 -0.004234 0.019210 -0.003769 0.000000 0.008528 0.000000
# 3 -0.002451 -0.003769 0.010507 0.000000 -0.007499 0.000000
# 4 0.000000 0.000000 0.000000 0.074472 0.000000 0.005173
# 5 0.010482 0.008528 -0.007499 0.000000 0.157922 0.000000
# 6 0.000000 0.000000 0.000000 0.005173 0.000000 0.074644
#
#
# Mechanical properties :
#
#
# Convention : Reuss Voigt Hill
#
# Bulk Modulus (GPa) = 47.35633 52.02731 49.69182
# Shear Modulus (GPa) = 13.26228 19.73110 16.49669
#
# Velocity S-wave (km/s) = 2.66012 3.24465 2.96681
# Velocity P-wave (km/s) = 5.89088 6.46504 6.18462
#
# Compressibility (1/GPa) = 0.02111650
#
# Stress axis : x y z
#
# Youngs Moduli (GPa) = 81.24810 52.05613 95.17910
#
# Poissons Ratio (x) = 0.22040 0.23329
# Poissons Ratio (y) = 0.34399 0.35874
# Poissons Ratio (z) = 0.19915 0.19620
#
# Static dielectric constant tensor:
#      x y z
#    x 1.638600 0.000000 0.029010 
#    y 0.000000 1.695910 0.000000 
#    z 0.029010 0.000000 1.736460 
# 
# From -- ./inp_files/298189.got.cif
#   From: 2010.05.17/outbox.cif.g08.bks.cpg/sg15_150_cif.got.tgz:298189.got - 2010.06.03 18:47:42.
