data_PCOD9263059
_publ_section_title
;
Structure prediction by ZEFSAII (Michael W. Deem and Ramdas Pophale) SiO2 
 PCOD9263059
Probable space group: C 2/C
;
_chemical_formula_sum "Si O2"
_cell_formula_units_Z 56
_cell_length_a 11.597242
_cell_length_b 11.802707
_cell_length_c 24.635270
_cell_angle_alpha 90.000000
_cell_angle_beta 55.178877
_cell_angle_gamma 90.000000
_cell_volume 2768.244389
_symmetry_space_group_name_H-M "C 2/C"
_symmetry_group_IT_number 15
_symmetry_cell_setting 'monoclinic'
loop_
_space_group_symop_operation_xyz
x,y,z
-x,y,1/2-z
-x,-y,-z
x,-y,1/2+z
1/2+x,1/2+y,z
1/2-x,1/2+y,1/2-z
1/2-x,1/2-y,-z
1/2+x,1/2-y,1/2+z
loop_
_atom_site_type_symbol
_atom_site_label
_atom_site_fract_x
_atom_site_fract_y
_atom_site_fract_z
Si Si1 0.675752 0.592448 0.985386
Si Si2 0.201322 0.710561 0.893377
Si Si3 0.585429 0.346403 0.020612
Si Si4 0.139760 0.659282 0.238643
Si Si5 0.085061 0.097534 0.283177
Si Si6 0.062028 0.729044 0.602075
Si Si7 0.488873 0.637970 0.841400
O O1 0.550807 0.617125 0.977167
O O2 0.818688 0.637080 0.920415
O O3 0.676819 0.460951 0.000596
O O4 0.636515 0.669259 0.048116
O O5 0.260394 0.813139 0.839845
O O6 0.331422 0.626090 0.859950
O O7 0.058727 0.674145 0.902943
O O8 0.164520 0.754472 0.963042
O O9 0.532728 0.309726 0.093454
O O10 0.245469 0.609869 0.255946
O O11 0.000000 0.601002 0.250000
O O12 0.078709 0.775748 0.280974
O O13 0.000000 0.078731 0.250000
O O14 0.014844 0.210343 0.327413
O O15 0.054342 0.985503 0.326751
#
# Coordination Sequence:
#
# PCOD9263059 Si02
#       7
#     8   8   8   8   8   8   8
#     4   9  18  33  57  84 115 146 184 239 287 331
#     4   9  19  37  58  81 114 154 188 234 287 346
#     4  10  19  33  61  88 109 149 200 233 282 346
#     4   9  21  41  60  82 117 158 191 235 292 347
#     4  11  22  37  61  87 115 152 196 240 292 346
#     4   9  18  36  56  82 117 150 184 232 292 338
#     4  11  21  39  60  82 118 153 190 238 295 345
#
# _framework density 20.229427999999999
#
# number of rings (size 3 to 8) (size 9 to 14) (size 15 to 20)
#    0.000    2.286    1.429    1.714    4.000    0.000 
#    0.000   10.000    0.000    0.000    0.000    0.000 
#    0.000    0.000    0.000    0.000    0.000    0.000 
#
# Total GULP energy -155988.573222 kJ/mol
# GULP energy per Si atom -5571.020472 kJ/mol
# Density = 2.018338 g / cm^3
# Si number density = 20.229428 Si / 1000 Ang^3
#
#
#
# Elastic Constant Matrix: (Units=GPa)
#
#
# Indices 1 2 3 4 5 6 
#
# 1 85.1210 28.7465 17.8651 0.0000 -25.3552 0.0000
# 2 28.7465 42.4904 8.1531 0.0000 -16.5930 0.0000
# 3 17.8651 8.1531 82.4150 0.0000 5.8912 0.0000
# 4 0.0000 0.0000 0.0000 17.9538 0.0000 -6.2731
# 5 -25.3552 -16.5930 5.8912 0.0000 34.9824 0.0000
# 6 0.0000 0.0000 0.0000 -6.2731 0.0000 24.7425
#
#
#
# Elastic Compliance Matrix: (Units=1/GPa)
#
#
# Indices 1 2 3 4 5 6 
#
# 1 0.018173 -0.007535 -0.003927 0.000000 0.010259 0.000000
# 2 -0.007535 0.033292 -0.002428 0.000000 0.010739 0.000000
# 3 -0.003927 -0.002428 0.013676 0.000000 -0.006301 0.000000
# 4 0.000000 0.000000 0.000000 0.061112 0.000000 0.015494
# 5 0.010259 0.010739 -0.006301 0.000000 0.042176 0.000000
# 6 0.000000 0.000000 0.000000 0.015494 0.000000 0.044345
#
#
# Mechanical properties :
#
#
# Convention : Reuss Voigt Hill
#
# Bulk Modulus (GPa) = 26.76623 35.50621 31.13622
# Shear Modulus (GPa) = 19.76236 25.88651 22.82444
#
# Velocity S-wave (km/s) = 3.12895 3.58110 3.36263
# Velocity P-wave (km/s) = 5.12970 5.88972 5.52280
#
# Compressibility (1/GPa) = 0.03736050
#
# Stress axis : x y z
#
# Youngs Moduli (GPa) = 55.02762 30.03750 73.12283
#
# Poissons Ratio (x) = 0.22632 0.28717
# Poissons Ratio (y) = 0.41462 0.17753
# Poissons Ratio (z) = 0.21611 0.07293
#
# Static dielectric constant tensor:
#      x y z
#    x 1.767000 0.000000 0.025360 
#    y 0.000000 1.692060 0.000000 
#    z 0.025360 0.000000 1.731890 
# 
# From -- ./inp_files/236996.got.cif
#   From: 2010.05.17/outbox.cif.g08.bks.cpg/sg15_119_cif.got.tgz:236996.got - 2010.06.03 18:47:42.
