data_PCOD9263624
_publ_section_title
;
Structure prediction by ZEFSAII (Michael W. Deem and Ramdas Pophale) SiO2 
 PCOD9263624
Probable space group: C 2/C
;
_chemical_formula_sum "Si O2"
_cell_formula_units_Z 52
_cell_length_a 12.702059
_cell_length_b 11.732370
_cell_length_c 15.935921
_cell_angle_alpha 90.000000
_cell_angle_beta 119.504906
_cell_angle_gamma 90.000000
_cell_volume 2066.868179
_symmetry_space_group_name_H-M "C 2/C"
_symmetry_group_IT_number 15
_symmetry_cell_setting 'monoclinic'
loop_
_space_group_symop_operation_xyz
x,y,z
-x,y,1/2-z
-x,-y,-z
x,-y,1/2+z
1/2+x,1/2+y,z
1/2-x,1/2+y,1/2-z
1/2-x,1/2-y,-z
1/2+x,1/2-y,1/2+z
loop_
_atom_site_type_symbol
_atom_site_label
_atom_site_fract_x
_atom_site_fract_y
_atom_site_fract_z
Si Si1 0.872710 0.926524 0.361841
Si Si2 0.029201 0.705721 0.019288
Si Si3 0.632702 0.883523 0.336466
Si Si4 0.169043 0.815906 0.648552
Si Si5 0.601435 0.868474 0.862924
Si Si6 0.286293 0.354788 0.637314
Si Si7 0.000000 0.974061 0.250000
O O1 0.888679 0.058490 0.391513
O O2 0.940403 0.905070 0.301549
O O3 0.914157 0.831166 0.442625
O O4 0.728406 0.911939 0.299941
O O5 0.146550 0.624640 0.059842
O O6 0.953794 0.677185 0.073262
O O7 0.931817 0.720546 0.907606
O O8 0.500000 0.869575 0.250000
O O9 0.669492 0.762079 0.388688
O O10 0.638432 0.999292 0.391307
O O11 0.281869 0.804524 0.629594
O O12 0.211349 0.827493 0.761280
O O13 0.500000 0.868687 0.750000
O O14 0.390617 0.448982 0.669231
#
# Coordination Sequence:
#
# PCOD9263624 Si02
#       7
#     8   8   8   8   8   8   4
#     4   9  21  35  57  87 118 149 193 236 282 348
#     4  11  21  35  62  85 118 153 192 237 287 342
#     4   9  18  34  59  82 108 154 191 229 287 337
#     4  10  20  37  57  89 119 149 194 239 285 339
#     4  10  19  34  58  87 114 147 196 235 284 338
#     4  10  20  37  59  82 113 154 193 234 285 348
#     4  10  20  36  58  86 118 152 192 236 290 332
#
# _framework density 25.158835
#
# number of rings (size 3 to 8) (size 9 to 14) (size 15 to 20)
#    0.000    2.154    2.308    0.923    3.231    0.000 
#    0.000    3.077   10.154    3.692    0.000    0.000 
#    0.000    0.000    0.000    0.000    0.000    0.000 
#
# Total GULP energy -145420.513769 kJ/mol
# GULP energy per Si atom -5593.096683 kJ/mol
# Density = 2.510157 g / cm^3
# Si number density = 25.158835 Si / 1000 Ang^3
#
#
#
# Elastic Constant Matrix: (Units=GPa)
#
#
# Indices 1 2 3 4 5 6 
#
# 1 170.0857 6.6376 67.1503 0.0000 16.3892 0.0000
# 2 6.6376 53.2315 12.4911 0.0000 4.0090 0.0000
# 3 67.1503 12.4911 100.5162 0.0000 6.6227 0.0000
# 4 0.0000 0.0000 0.0000 -2.0095 0.0000 0.7849
# 5 16.3892 4.0090 6.6227 0.0000 16.2058 0.0000
# 6 0.0000 0.0000 0.0000 0.7849 0.0000 21.2341
#
#
#
# Elastic Compliance Matrix: (Units=1/GPa)
#
#
# Indices 1 2 3 4 5 6 
#
# 1 0.008635 0.000698 -0.005414 0.000000 -0.006692 0.000000
# 2 0.000698 0.019651 -0.002612 0.000000 -0.004500 0.000000
# 3 -0.005414 -0.002612 0.013860 0.000000 0.000457 0.000000
# 4 0.000000 0.000000 0.000000 -0.490547 0.000000 0.018134
# 5 -0.006692 -0.004500 0.000457 0.000000 0.069401 0.000000
# 6 0.000000 0.000000 0.000000 0.018134 0.000000 0.046424
#
#
# Mechanical properties :
#
#
# Convention : Reuss Voigt Hill
#
# Bulk Modulus (GPa) = 36.37802 55.15461 45.76632
# Shear Modulus (GPa) = -16.19389 22.92304 3.36457
#
# Velocity S-wave (km/s) = -2.53981 3.02177 1.15769
# Velocity P-wave (km/s) = 2.42691 5.84337 4.47408
#
# Compressibility (1/GPa) = 0.02748913
#
# Stress axis : x y z
#
# Youngs Moduli (GPa) = 115.81414 50.88908 72.15020
#
# Poissons Ratio (x) = -0.03551 0.39063
# Poissons Ratio (y) = -0.08082 0.18843
# Poissons Ratio (z) = 0.62703 0.13291
#
# Static dielectric constant tensor:
#      x y z
#    x 1.989320 0.000000 0.005040 
#    y 0.000000 2.017830 0.000000 
#    z 0.005040 0.000000 2.029430 
# 
# From -- ./inp_files/198009.got.cif
#   From: 2010.05.17/outbox.cif.g08.bks.cpg/sg15_100_cif.got.tgz:198009.got - 2010.06.03 18:47:42.
