data_PCOD9263022
_publ_section_title
;
Structure prediction by ZEFSAII (Michael W. Deem and Ramdas Pophale) SiO2 
 PCOD9263022
Probable space group: C 2/C
;
_chemical_formula_sum "Si O2"
_cell_formula_units_Z 64
_cell_length_a 25.203040
_cell_length_b 9.073505
_cell_length_c 13.982353
_cell_angle_alpha 90.000000
_cell_angle_beta 73.289056
_cell_angle_gamma 90.000000
_cell_volume 3062.445793
_symmetry_space_group_name_H-M "C 2/C"
_symmetry_group_IT_number 15
_symmetry_cell_setting 'monoclinic'
loop_
_space_group_symop_operation_xyz
x,y,z
-x,y,1/2-z
-x,-y,-z
x,-y,1/2+z
1/2+x,1/2+y,z
1/2-x,1/2+y,1/2-z
1/2-x,1/2-y,-z
1/2+x,1/2-y,1/2+z
loop_
_atom_site_type_symbol
_atom_site_label
_atom_site_fract_x
_atom_site_fract_y
_atom_site_fract_z
Si Si1 0.726826 0.349203 0.928149
Si Si2 0.049111 0.198625 0.499531
Si Si3 0.141835 0.644363 0.866798
Si Si4 0.072824 0.879010 0.404638
Si Si5 0.269151 0.106551 0.202732
Si Si6 0.159245 0.826521 0.672524
Si Si7 0.184388 0.830908 0.458838
Si Si8 0.435334 0.436899 0.301268
O O1 0.674218 0.266663 0.911489
O O2 0.767362 0.370647 0.816806
O O3 0.707252 0.508333 0.971491
O O4 0.750000 0.250000 0.000000
O O5 0.080523 0.341328 0.442236
O O6 0.066245 0.154954 0.599477
O O7 0.982734 0.203905 0.534767
O O8 0.063526 0.054949 0.426673
O O9 0.181048 0.501648 0.851787
O O10 0.142727 0.704677 0.758425
O O11 0.124510 0.837595 0.441784
O O12 0.081686 0.852947 0.287310
O O13 0.206736 0.070169 0.198203
O O14 0.278600 0.257870 0.141558
O O15 0.181120 0.753638 0.563119
O O16 0.106648 0.926424 0.671663
O O17 0.500000 0.479912 0.250000
#
# Coordination Sequence:
#
# PCOD9263022 Si02
#       8
#     8   8   8   8   8   8   8   8
#     4  11  22  39  63  90 119 162 212 257 312 377
#     4  10  19  35  60  91 120 157 212 267 327 367
#     4  11  22  39  58  86 123 163 207 258 316 383
#     4  10  19  35  60  90 122 154 211 270 317 371
#     4  11  26  41  58  87 129 170 203 253 316 392
#     4  11  21  37  59  84 119 159 206 252 308 377
#     4  12  23  41  61  91 124 164 210 260 318 384
#     4  10  19  33  59  94 122 150 201 273 324 372
#
# _framework density 20.898327999999999
#
# number of rings (size 3 to 8) (size 9 to 14) (size 15 to 20)
#    0.000    1.250    3.750    3.375    0.000    4.000 
#    0.000    0.625    0.000    0.000    0.000    1.750 
#    0.000    0.000    0.000    0.000    0.000    0.000 
#
# Total GULP energy -178724.035883 kJ/mol
# GULP energy per Si atom -5585.126121 kJ/mol
# Density = 2.085076 g / cm^3
# Si number density = 20.898328 Si / 1000 Ang^3
#
#
#
# Elastic Constant Matrix: (Units=GPa)
#
#
# Indices 1 2 3 4 5 6 
#
# 1 98.3192 26.8878 38.6171 0.0000 6.8174 0.0000
# 2 26.8878 41.4951 13.9408 0.0000 0.4169 0.0000
# 3 38.6171 13.9408 125.9790 0.0000 18.0096 0.0000
# 4 0.0000 0.0000 0.0000 16.1559 0.0000 4.9524
# 5 6.8174 0.4169 18.0096 0.0000 32.7671 0.0000
# 6 0.0000 0.0000 0.0000 4.9524 0.0000 15.7457
#
#
#
# Elastic Compliance Matrix: (Units=1/GPa)
#
#
# Indices 1 2 3 4 5 6 
#
# 1 0.013601 -0.007738 -0.003172 0.000000 -0.000988 0.000000
# 2 -0.007738 0.029483 -0.001158 0.000000 0.001871 0.000000
# 3 -0.003172 -0.001158 0.009704 0.000000 -0.004659 0.000000
# 4 0.000000 0.000000 0.000000 0.068501 0.000000 -0.021545
# 5 -0.000988 0.001871 -0.004659 0.000000 0.033261 0.000000
# 6 0.000000 0.000000 0.000000 -0.021545 0.000000 0.070286
#
#
# Mechanical properties :
#
#
# Convention : Reuss Voigt Hill
#
# Bulk Modulus (GPa) = 34.89981 47.18719 41.04350
# Shear Modulus (GPa) = 19.34056 25.35692 22.34874
#
# Velocity S-wave (km/s) = 3.04544 3.48709 3.27372
# Velocity P-wave (km/s) = 5.39466 6.23230 5.82854
#
# Compressibility (1/GPa) = 0.02865345
#
# Stress axis : x y z
#
# Youngs Moduli (GPa) = 73.52206 33.91732 103.04694
#
# Poissons Ratio (x) = 0.26245 0.32684
# Poissons Ratio (y) = 0.56890 0.11935
# Poissons Ratio (z) = 0.23320 0.03928
#
# Static dielectric constant tensor:
#      x y z
#    x 1.856710 0.000000 -0.056820 
#    y 0.000000 1.743140 0.000000 
#    z -0.056820 0.000000 1.797640 
# 
# From -- ./inp_files/176549.got.cif
#   From: 2010.05.17/outbox.cif.g08.bks.cpg/sg15_89_cif.got.tgz:176549.got - 2010.06.03 18:47:42.
