data_PCOD9263522
_publ_section_title
;
Structure prediction by ZEFSAII (Michael W. Deem and Ramdas Pophale) SiO2 
 PCOD9263522
Probable space group: C 2/C
;
_chemical_formula_sum "Si O2"
_cell_formula_units_Z 44
_cell_length_a 15.595500
_cell_length_b 17.473680
_cell_length_c 6.804648
_cell_angle_alpha 90.000000
_cell_angle_beta 114.918414
_cell_angle_gamma 90.000000
_cell_volume 1681.716910
_symmetry_space_group_name_H-M "C 2/C"
_symmetry_group_IT_number 15
_symmetry_cell_setting 'monoclinic'
loop_
_space_group_symop_operation_xyz
x,y,z
-x,y,1/2-z
-x,-y,-z
x,-y,1/2+z
1/2+x,1/2+y,z
1/2-x,1/2+y,1/2-z
1/2-x,1/2-y,-z
1/2+x,1/2-y,1/2+z
loop_
_atom_site_type_symbol
_atom_site_label
_atom_site_fract_x
_atom_site_fract_y
_atom_site_fract_z
Si Si1 0.334034 0.881281 0.897166
Si Si2 0.000000 0.058558 0.250000
Si Si3 0.620296 0.416667 0.215291
Si Si4 0.973304 0.327463 0.495078
Si Si5 0.831573 0.446168 0.452590
Si Si6 0.678177 0.293859 0.583527
O O1 0.428041 0.832502 0.022529
O O2 0.332523 0.905121 0.664583
O O3 0.239062 0.833052 0.814518
O O4 0.336676 0.964154 0.994258
O O5 0.051404 0.105404 0.470544
O O6 0.079378 0.999304 0.243791
O O7 0.729611 0.427100 0.261297
O O8 0.623880 0.357047 0.398403
O O9 0.921491 0.409660 0.433579
O O10 0.894192 0.264234 0.388925
O O11 0.000000 0.314697 0.750000
O O12 0.750000 0.250000 0.500000
#
# Coordination Sequence:
#
# PCOD9263522 Si02
#       6
#     8   4   8   8   8   8
#     4  10  21  35  63  90 119 155 200 257 302 359
#     4  10  22  36  54  92 118 164 208 260 304 366
#     4  10  20  35  58  85 126 162 210 252 310 364
#     4  10  19  34  57  87 115 152 201 246 295 359
#     4  10  19  36  57  87 118 154 200 260 295 354
#     4  11  19  35  57  88 119 158 200 247 299 369
#
# _framework density 26.163737000000001
#
# number of rings (size 3 to 8) (size 9 to 14) (size 15 to 20)
#    0.000    1.818    5.455    2.727    1.273    0.000 
#    0.000    0.000    0.000    5.455    0.000    1.273 
#    0.000    0.000    0.000    0.000    0.000    0.000 
#
# Total GULP energy -123244.943948 kJ/mol
# GULP energy per Si atom -5602.042907 kJ/mol
# Density = 2.610419 g / cm^3
# Si number density = 26.163737 Si / 1000 Ang^3
#
#
#
# Elastic Constant Matrix: (Units=GPa)
#
#
# Indices 1 2 3 4 5 6 
#
# 1 99.0198 53.1835 58.2347 0.0000 25.5251 0.0000
# 2 53.1835 124.6924 45.0275 0.0000 28.3783 0.0000
# 3 58.2347 45.0275 132.6542 0.0000 33.0639 0.0000
# 4 0.0000 0.0000 0.0000 37.5837 0.0000 21.2842
# 5 25.5251 28.3783 33.0639 0.0000 39.0875 0.0000
# 6 0.0000 0.0000 0.0000 21.2842 0.0000 44.2409
#
#
#
# Elastic Compliance Matrix: (Units=1/GPa)
#
#
# Indices 1 2 3 4 5 6 
#
# 1 0.016112 -0.004403 -0.004755 0.000000 -0.003302 0.000000
# 2 -0.004403 0.011217 -0.000711 0.000000 -0.004666 0.000000
# 3 -0.004755 -0.000711 0.011360 0.000000 -0.005987 0.000000
# 4 0.000000 0.000000 0.000000 0.036571 0.000000 -0.017594
# 5 -0.003302 -0.004666 -0.005987 0.000000 0.036193 0.000000
# 6 0.000000 0.000000 0.000000 -0.017594 0.000000 0.031068
#
#
# Mechanical properties :
#
#
# Convention : Reuss Voigt Hill
#
# Bulk Modulus (GPa) = 52.77451 74.36198 63.56825
# Shear Modulus (GPa) = 29.66018 37.51047 33.58532
#
# Velocity S-wave (km/s) = 3.37061 3.79051 3.58671
# Velocity P-wave (km/s) = 5.94665 6.90223 6.44218
#
# Compressibility (1/GPa) = 0.01894854
#
# Stress axis : x y z
#
# Youngs Moduli (GPa) = 62.06591 89.15305 88.03003
#
# Poissons Ratio (x) = 0.39257 0.41862
# Poissons Ratio (y) = 0.27330 0.06261
# Poissons Ratio (z) = 0.29515 0.06340
#
# Static dielectric constant tensor:
#      x y z
#    x 2.084820 0.000000 -0.053020 
#    y 0.000000 2.052500 0.000000 
#    z -0.053020 0.000000 2.143270 
# 
# From -- ./inp_files/39272.got.cif
#   From: 2010.05.17/outbox.cif.g08.bks.cpg/sg15_20_cif.got.tgz:39272.got - 2010.06.03 18:47:42.
