data_PCOD9263461
_publ_section_title
;
Structure prediction by ZEFSAII (Michael W. Deem and Ramdas Pophale) SiO2 
 PCOD9263461
Probable space group: C 2/C
;
_chemical_formula_sum "Si O2"
_cell_formula_units_Z 64
_cell_length_a 26.248620
_cell_length_b 11.183763
_cell_length_c 24.379616
_cell_angle_alpha 90.000000
_cell_angle_beta 154.008657
_cell_angle_gamma 90.000000
_cell_volume 3136.380093
_symmetry_space_group_name_H-M "C 2/C"
_symmetry_group_IT_number 15
_symmetry_cell_setting 'monoclinic'
loop_
_space_group_symop_operation_xyz
x,y,z
-x,y,1/2-z
-x,-y,-z
x,-y,1/2+z
1/2+x,1/2+y,z
1/2-x,1/2+y,1/2-z
1/2-x,1/2-y,-z
1/2+x,1/2-y,1/2+z
loop_
_atom_site_type_symbol
_atom_site_label
_atom_site_fract_x
_atom_site_fract_y
_atom_site_fract_z
Si Si1 0.206138 0.771936 0.050453
Si Si2 0.919223 0.729310 0.123400
Si Si3 0.301667 0.428221 0.080611
Si Si4 0.219000 0.118955 0.735608
Si Si5 0.433494 0.360671 0.311578
Si Si6 0.949978 0.067832 0.026243
Si Si7 0.631400 0.130886 0.875211
Si Si8 0.785118 0.855732 0.733315
O O1 0.329922 0.815285 0.145816
O O2 0.224496 0.675407 0.116532
O O3 0.130858 0.874108 0.005947
O O4 0.139198 0.725504 0.932202
O O5 0.871243 0.855191 0.101410
O O6 0.000000 0.678982 0.250000
O O7 0.004927 0.747948 0.155916
O O8 0.804905 0.654287 0.001950
O O9 0.385501 0.440431 0.214134
O O10 0.235200 0.540014 0.991240
O O11 0.170366 0.161645 0.747081
O O12 0.113233 0.090411 0.591978
O O13 0.278273 0.234960 0.764208
O O14 0.266357 0.981947 0.792138
O O15 0.531178 0.431022 0.439581
O O16 0.079599 0.120087 0.148227
O O17 0.500000 0.084361 0.750000
#
# Coordination Sequence:
#
# PCOD9263461 Si02
#       8
#     8   8   8   8   8   8   8   8
#     4  10  22  37  55  80 110 144 186 229 280 342
#     4   9  19  35  52  76 110 146 184 229 280 333
#     4  10  20  33  52  78 111 144 181 230 281 336
#     4  10  22  37  59  84 112 147 189 239 291 344
#     4  10  19  34  57  80 105 149 195 232 275 339
#     4  10  20  38  59  79 110 149 190 234 282 343
#     4  11  21  34  54  81 110 144 181 227 284 336
#     4  10  20  40  60  84 115 147 190 242 291 341
#
# _framework density 20.40569
#
# number of rings (size 3 to 8) (size 9 to 14) (size 15 to 20)
#    0.000    2.000    0.000    4.875    0.000    3.000 
#    0.000   10.625    0.000    0.000    0.000    0.000 
#    0.000    0.000    0.000    0.000    0.000    0.000 
#
# Total GULP energy -178300.025239 kJ/mol
# GULP energy per Si atom -5571.875789 kJ/mol
# Density = 2.035925 g / cm^3
# Si number density = 20.405690 Si / 1000 Ang^3
#
#
#
# Elastic Constant Matrix: (Units=GPa)
#
#
# Indices 1 2 3 4 5 6 
#
# 1 93.3008 48.7574 10.0748 0.0000 -9.1841 0.0000
# 2 48.7574 71.6003 2.3292 0.0000 6.4374 0.0000
# 3 10.0748 2.3292 40.5159 0.0000 9.4420 0.0000
# 4 0.0000 0.0000 0.0000 21.9383 0.0000 -3.4563
# 5 -9.1841 6.4374 9.4420 0.0000 17.9061 0.0000
# 6 0.0000 0.0000 0.0000 -3.4563 0.0000 -11.0082
#
#
#
# Elastic Compliance Matrix: (Units=1/GPa)
#
#
# Indices 1 2 3 4 5 6 
#
# 1 0.023519 -0.017831 -0.010407 0.000000 0.023961 0.000000
# 2 -0.017831 0.027959 0.008323 0.000000 -0.023586 0.000000
# 3 -0.010407 0.008323 0.032758 0.000000 -0.025604 0.000000
# 4 0.000000 0.000000 0.000000 0.043434 0.000000 -0.013637
# 5 0.023961 -0.023586 -0.025604 0.000000 0.090117 0.000000
# 6 0.000000 0.000000 0.000000 -0.013637 0.000000 -0.086559
#
#
# Mechanical properties :
#
#
# Convention : Reuss Voigt Hill
#
# Bulk Modulus (GPa) = 22.51997 36.41557 29.46777
# Shear Modulus (GPa) = 26.90216 15.38427 21.14321
#
# Velocity S-wave (km/s) = 3.63487 2.74874 3.22241
# Velocity P-wave (km/s) = 5.35504 5.28759 5.32142
#
# Compressibility (1/GPa) = 0.04440503
#
# Stress axis : x y z
#
# Youngs Moduli (GPa) = 42.51938 35.76711 30.52702
#
# Poissons Ratio (x) = 0.63777 0.31770
# Poissons Ratio (y) = 0.75817 -0.25408
# Poissons Ratio (z) = 0.44251 -0.29770
#
# Static dielectric constant tensor:
#      x y z
#    x 1.484200 0.000000 -0.232390 
#    y 0.000000 1.782530 0.000000 
#    z -0.232390 0.000000 1.503880 
# 
# From -- ./inp_files/281977.got.cif
#   From: 2010.05.17/outbox.cif.g08.bks.cpg/sg15_141_cif.got.tgz:281977.got - 2010.06.03 18:47:42.
