data_PCOD9263431
_publ_section_title
;
Structure prediction by ZEFSAII (Michael W. Deem and Ramdas Pophale) SiO2 
 PCOD9263431
Probable space group: C 2/C
;
_chemical_formula_sum "Si O2"
_cell_formula_units_Z 56
_cell_length_a 12.114109
_cell_length_b 18.692008
_cell_length_c 27.478316
_cell_angle_alpha 90.000000
_cell_angle_beta 148.725383
_cell_angle_gamma 90.000000
_cell_volume 3230.148418
_symmetry_space_group_name_H-M "C 2/C"
_symmetry_group_IT_number 15
_symmetry_cell_setting 'monoclinic'
loop_
_space_group_symop_operation_xyz
x,y,z
-x,y,1/2-z
-x,-y,-z
x,-y,1/2+z
1/2+x,1/2+y,z
1/2-x,1/2+y,1/2-z
1/2-x,1/2-y,-z
1/2+x,1/2-y,1/2+z
loop_
_atom_site_type_symbol
_atom_site_label
_atom_site_fract_x
_atom_site_fract_y
_atom_site_fract_z
Si Si1 0.748729 0.628480 0.157541
Si Si2 0.640195 0.521605 0.669576
Si Si3 0.153275 0.019212 0.351268
Si Si4 0.522821 0.580649 0.528323
Si Si5 0.488078 0.906263 0.042512
Si Si6 0.958444 0.606879 0.640987
Si Si7 0.498527 0.234002 0.904021
O O1 0.689246 0.554841 0.162899
O O2 0.634128 0.694551 0.140663
O O3 0.000000 0.636430 0.250000
O O4 0.655671 0.623920 0.067697
O O5 0.496727 0.510388 0.662640
O O6 0.524305 0.572370 0.586595
O O7 0.861894 0.557994 0.768048
O O8 0.309312 0.076860 0.435311
O O9 0.000000 0.044482 0.250000
O O10 0.309783 0.956539 0.391047
O O11 0.500000 0.500000 0.500000
O O12 0.750785 0.608295 0.595631
O O13 0.402192 0.922291 0.065204
O O14 0.547380 0.822840 0.069870
O O15 0.042022 0.686274 0.659407
O O16 0.750000 0.250000 0.000000
#
# Coordination Sequence:
#
# PCOD9263431 Si02
#       7
#     8   8   8   8   8   8   8
#     4  11  22  37  61  90 120 155 203 247 299 362
#     4  11  21  35  61  91 118 153 199 250 306 348
#     4  11  19  36  56  87 119 152 203 253 294 352
#     4  10  19  34  56  87 120 148 188 249 295 346
#     4   9  21  34  59  84 112 158 199 244 292 356
#     4  10  19  36  60  86 116 153 201 241 293 361
#     4  10  19  38  62  82 117 162 201 235 299 366
#
# _framework density 17.336663000000001
#
# number of rings (size 3 to 8) (size 9 to 14) (size 15 to 20)
#    0.857    0.857    2.857    4.714    0.000    1.714 
#    0.000    0.000    6.286    1.714    0.000    0.000 
#    0.000    0.000    0.000    0.000    0.000    0.000 
#
# Total GULP energy -155989.708900 kJ/mol
# GULP energy per Si atom -5571.061032 kJ/mol
# Density = 1.729720 g / cm^3
# Si number density = 17.336663 Si / 1000 Ang^3
#
#
#
# Elastic Constant Matrix: (Units=GPa)
#
#
# Indices 1 2 3 4 5 6 
#
# 1 67.0331 9.6141 18.1318 0.0000 -7.7356 0.0000
# 2 9.6141 84.9362 24.5316 -0.0001 -3.4762 0.0000
# 3 18.1318 24.5316 85.2895 -0.0010 -9.1893 -0.0003
# 4 0.0000 -0.0001 -0.0010 15.6362 0.0000 -0.7465
# 5 -7.7356 -3.4762 -9.1893 0.0000 32.2298 0.0000
# 6 0.0000 0.0000 -0.0003 -0.7465 0.0000 22.7530
#
#
#
# Elastic Compliance Matrix: (Units=1/GPa)
#
#
# Indices 1 2 3 4 5 6 
#
# 1 0.016161 -0.000881 -0.002863 0.000000 0.002968 0.000000
# 2 -0.000881 0.012892 -0.003501 0.000000 0.000181 0.000000
# 3 -0.002863 -0.003501 0.013645 0.000001 0.002826 0.000000
# 4 0.000000 0.000000 0.000001 0.064054 0.000000 0.002102
# 5 0.002968 0.000181 0.002826 0.000000 0.032565 0.000000
# 6 0.000000 0.000000 0.000000 0.002102 0.000000 0.044019
#
#
# Mechanical properties :
#
#
# Convention : Reuss Voigt Hill
#
# Bulk Modulus (GPa) = 35.45088 37.97935 36.71511
# Shear Modulus (GPa) = 24.12792 26.45587 25.29190
#
# Velocity S-wave (km/s) = 3.73463 3.91065 3.82366
# Velocity P-wave (km/s) = 6.25216 6.50734 6.38103
#
# Compressibility (1/GPa) = 0.02820805
#
# Stress axis : x y z
#
# Youngs Moduli (GPa) = 61.87685 77.56795 73.28778
#
# Poissons Ratio (x) = 0.06834 0.20979
# Poissons Ratio (y) = 0.05452 0.25660
# Poissons Ratio (z) = 0.17713 0.27159
#
# Static dielectric constant tensor:
#      x y z
#    x 1.590170 0.000000 -0.011290 
#    y 0.000000 1.594970 0.000000 
#    z -0.011290 0.000000 1.612580 
# 
# From -- ./inp_files/293704.got.cif
#   From: 2010.05.17/outbox.cif.g08.bks.cpg/sg15_147_cif.got.tgz:293704.got - 2010.06.03 18:47:42.
