data_PCOD9263044
_publ_section_title
;
Structure prediction by ZEFSAII (Michael W. Deem and Ramdas Pophale) SiO2 
 PCOD9263044
Probable space group: C 2/C
;
_chemical_formula_sum "Si O2"
_cell_formula_units_Z 52
_cell_length_a 24.443643
_cell_length_b 8.083161
_cell_length_c 18.587613
_cell_angle_alpha 90.000000
_cell_angle_beta 141.571164
_cell_angle_gamma 90.000000
_cell_volume 2282.660632
_symmetry_space_group_name_H-M "C 2/C"
_symmetry_group_IT_number 15
_symmetry_cell_setting 'monoclinic'
loop_
_space_group_symop_operation_xyz
x,y,z
-x,y,1/2-z
-x,-y,-z
x,-y,1/2+z
1/2+x,1/2+y,z
1/2-x,1/2+y,1/2-z
1/2-x,1/2-y,-z
1/2+x,1/2-y,1/2+z
loop_
_atom_site_type_symbol
_atom_site_label
_atom_site_fract_x
_atom_site_fract_y
_atom_site_fract_z
Si Si1 0.659659 0.492048 0.087381
Si Si2 0.602023 0.923562 0.064877
Si Si3 0.824076 0.705564 0.996468
Si Si4 0.055292 0.223230 0.568056
Si Si5 0.702544 0.716459 0.268990
Si Si6 0.859432 0.080147 0.708354
Si Si7 0.500000 0.283780 0.250000
O O1 0.668419 0.607187 0.026839
O O2 0.565876 0.427237 0.022606
O O3 0.703262 0.599373 0.198020
O O4 0.709410 0.318273 0.126297
O O5 0.668944 0.908752 0.068461
O O6 0.639282 0.866333 0.179786
O O7 0.568551 0.107241 0.038093
O O8 0.531757 0.777362 0.978675
O O9 0.725770 0.654768 0.920141
O O10 0.916072 0.678964 0.133698
O O11 0.126162 0.183616 0.702896
O O12 0.662201 0.606152 0.290177
O O13 0.948325 0.103904 0.754755
#
# Coordination Sequence:
#
# PCOD9263044 Si02
#       7
#     8   8   8   8   8   8   4
#     4  10  19  33  60  91 124 148 190 232 313 361
#     4  10  19  33  60  98 126 148 186 242 306 362
#     4  11  23  40  64  86 118 159 200 245 295 345
#     4  10  19  33  60  98 126 148 186 242 306 362
#     4  10  19  33  60  91 124 148 190 232 313 361
#     4  11  23  40  64  86 118 159 200 245 295 345
#     4  12  26  44  58  84 112 164 218 248 268 354
#
# _framework density 22.780436000000002
#
# number of rings (size 3 to 8) (size 9 to 14) (size 15 to 20)
#    0.000    1.538    1.538    6.923    2.154    1.846 
#    0.000    0.769    0.000    9.231    0.000    0.000 
#    0.000    0.000    0.000    0.000    0.000    0.000 
#
# Total GULP energy -144915.013166 kJ/mol
# GULP energy per Si atom -5573.654353 kJ/mol
# Density = 2.272859 g / cm^3
# Si number density = 22.780436 Si / 1000 Ang^3
#
#
#
# Elastic Constant Matrix: (Units=GPa)
#
#
# Indices 1 2 3 4 5 6 
#
# 1 76.1389 22.9775 12.6972 0.0000 27.0134 0.0000
# 2 22.9775 90.1937 -5.6733 0.0000 3.4987 0.0000
# 3 12.6972 -5.6733 83.4139 0.0000 15.2738 0.0000
# 4 0.0000 0.0000 0.0000 16.5695 0.0000 10.6226
# 5 27.0134 3.4987 15.2738 0.0000 35.1005 0.0000
# 6 0.0000 0.0000 0.0000 10.6226 0.0000 29.0498
#
#
#
# Elastic Compliance Matrix: (Units=1/GPa)
#
#
# Indices 1 2 3 4 5 6 
#
# 1 0.019730 -0.004508 -0.000665 0.000000 -0.014446 0.000000
# 2 -0.004508 0.012244 0.001203 0.000000 0.001725 0.000000
# 3 -0.000665 0.001203 0.013147 0.000000 -0.005329 0.000000
# 4 0.000000 0.000000 0.000000 0.078832 0.000000 -0.028826
# 5 -0.014446 0.001725 -0.005329 0.000000 0.041754 0.000000
# 6 0.000000 0.000000 0.000000 -0.028826 0.000000 0.044965
#
#
# Mechanical properties :
#
#
# Convention : Reuss Voigt Hill
#
# Bulk Modulus (GPa) = 26.89410 34.41659 30.65534
# Shear Modulus (GPa) = 21.64440 30.79365 26.21903
#
# Velocity S-wave (km/s) = 3.08576 3.68062 3.39624
# Velocity P-wave (km/s) = 4.95251 5.76223 5.37265
#
# Compressibility (1/GPa) = 0.03718288
#
# Stress axis : x y z
#
# Youngs Moduli (GPa) = 50.68311 81.66980 76.06148
#
# Poissons Ratio (x) = 0.36816 0.05056
# Poissons Ratio (y) = 0.22848 -0.09151
# Poissons Ratio (z) = 0.03369 -0.09825
#
# Static dielectric constant tensor:
#      x y z
#    x 1.948850 0.000000 0.076860 
#    y 0.000000 1.819590 0.000000 
#    z 0.076860 0.000000 1.994640 
# 
# From -- ./inp_files/257032.got.cif
#   From: 2010.05.17/outbox.cif.g08.bks.cpg/sg15_129_cif.got.tgz:257032.got - 2010.06.03 18:47:42.
