data_PCOD9263503
_publ_section_title
;
Structure prediction by ZEFSAII (Michael W. Deem and Ramdas Pophale) SiO2 
 PCOD9263503
Probable space group: C 2/C
;
_chemical_formula_sum "Si O2"
_cell_formula_units_Z 44
_cell_length_a 8.213529
_cell_length_b 18.560637
_cell_length_c 14.136000
_cell_angle_alpha 90.000000
_cell_angle_beta 72.136852
_cell_angle_gamma 90.000000
_cell_volume 2051.120668
_symmetry_space_group_name_H-M "C 2/C"
_symmetry_group_IT_number 15
_symmetry_cell_setting 'monoclinic'
loop_
_space_group_symop_operation_xyz
x,y,z
-x,y,1/2-z
-x,-y,-z
x,-y,1/2+z
1/2+x,1/2+y,z
1/2-x,1/2+y,1/2-z
1/2-x,1/2-y,-z
1/2+x,1/2-y,1/2+z
loop_
_atom_site_type_symbol
_atom_site_label
_atom_site_fract_x
_atom_site_fract_y
_atom_site_fract_z
Si Si1 0.519738 0.157875 0.892715
Si Si2 0.785086 0.833182 0.197246
Si Si3 0.000000 0.042833 0.750000
Si Si4 0.054864 0.565948 0.134993
Si Si5 0.285055 0.012985 0.567741
Si Si6 0.567084 0.224259 0.072969
O O1 0.349924 0.148797 0.861244
O O2 0.663537 0.197253 0.802574
O O3 0.618921 0.085215 0.908488
O O4 0.472019 0.201419 0.993755
O O5 0.866704 0.906428 0.219911
O O6 0.944820 0.782161 0.144068
O O7 0.898060 0.004254 0.851743
O O8 0.093130 0.651035 0.128130
O O9 0.000000 0.541402 0.250000
O O10 0.894570 0.550697 0.094327
O O11 0.201284 0.523983 0.047973
O O12 0.750000 0.250000 0.000000
#
# Coordination Sequence:
#
# PCOD9263503 Si02
#       6
#     8   8   4   8   8   8
#     4   9  20  35  59  82 112 158 193 246 300 357
#     4  10  19  34  57  85 113 152 201 240 299 361
#     4  10  20  36  64  86 114 158 204 254 286 376
#     4  10  22  36  63  85 119 160 196 249 302 357
#     4   9  20  41  59  88 117 155 208 244 303 364
#     4  11  22  36  58  85 120 154 199 248 297 366
#
# _framework density 21.451687
#
# number of rings (size 3 to 8) (size 9 to 14) (size 15 to 20)
#    0.000    2.182    0.000    3.818    8.909    0.000 
#    0.000    2.727   12.000    0.000    0.000    0.000 
#    0.000    0.000    0.000    0.000    0.000    0.000 
#
# Total GULP energy -122583.682649 kJ/mol
# GULP energy per Si atom -5571.985575 kJ/mol
# Density = 2.140286 g / cm^3
# Si number density = 21.451687 Si / 1000 Ang^3
#
#
#
# Elastic Constant Matrix: (Units=GPa)
#
#
# Indices 1 2 3 4 5 6 
#
# 1 62.7084 -0.0647 37.4227 0.0000 -18.0174 0.0000
# 2 -0.0647 42.7653 25.0171 0.0000 -14.3243 0.0000
# 3 37.4227 25.0171 172.6238 0.0000 -25.4336 0.0000
# 4 0.0000 0.0000 0.0000 10.6944 0.0000 -9.8894
# 5 -18.0174 -14.3243 -25.4336 0.0000 45.8640 0.0000
# 6 0.0000 0.0000 0.0000 -9.8894 0.0000 21.6385
#
#
#
# Elastic Compliance Matrix: (Units=1/GPa)
#
#
# Indices 1 2 3 4 5 6 
#
# 1 0.020478 0.004857 -0.004067 0.000000 0.007307 0.000000
# 2 0.004857 0.028585 -0.003919 0.000000 0.008662 0.000000
# 3 -0.004067 -0.003919 0.007434 0.000000 0.001301 0.000000
# 4 0.000000 0.000000 0.000000 0.161952 0.000000 0.074016
# 5 0.007307 0.008662 0.001301 0.000000 0.028101 0.000000
# 6 0.000000 0.000000 0.000000 0.074016 0.000000 0.080041
#
#
# Mechanical properties :
#
#
# Convention : Reuss Voigt Hill
#
# Bulk Modulus (GPa) = 19.90455 44.76086 32.33270
# Shear Modulus (GPa) = 14.30225 30.02087 22.16156
#
# Velocity S-wave (km/s) = 2.58489 3.74500 3.21766
# Velocity P-wave (km/s) = 4.26706 6.29374 5.37676
#
# Compressibility (1/GPa) = 0.05023977
#
# Stress axis : x y z
#
# Youngs Moduli (GPa) = 48.83256 34.98332 134.51247
#
# Poissons Ratio (x) = -0.16993 0.54704
# Poissons Ratio (y) = -0.23720 0.52720
# Poissons Ratio (z) = 0.19859 0.13711
#
# Static dielectric constant tensor:
#      x y z
#    x 1.788660 0.000000 -0.021960 
#    y 0.000000 1.802650 0.000000 
#    z -0.021960 0.000000 1.883050 
# 
# From -- ./inp_files/134295.got.cif
#   From: 2010.05.17/outbox.cif.g08.bks.cpg/sg15_68_cif.got.tgz:134295.got - 2010.06.03 18:47:42.
