data_PCOD9263334
_publ_section_title
;
Structure prediction by ZEFSAII (Michael W. Deem and Ramdas Pophale) SiO2 
 PCOD9263334
Probable space group: C 2/C
;
_chemical_formula_sum "Si O2"
_cell_formula_units_Z 64
_cell_length_a 23.303360
_cell_length_b 22.222591
_cell_length_c 12.096002
_cell_angle_alpha 90.000000
_cell_angle_beta 30.755011
_cell_angle_gamma 90.000000
_cell_volume 3203.235320
_symmetry_space_group_name_H-M "C 2/C"
_symmetry_group_IT_number 15
_symmetry_cell_setting 'monoclinic'
loop_
_space_group_symop_operation_xyz
x,y,z
-x,y,1/2-z
-x,-y,-z
x,-y,1/2+z
1/2+x,1/2+y,z
1/2-x,1/2+y,1/2-z
1/2-x,1/2-y,-z
1/2+x,1/2-y,1/2+z
loop_
_atom_site_type_symbol
_atom_site_label
_atom_site_fract_x
_atom_site_fract_y
_atom_site_fract_z
Si Si1 0.272991 0.974819 0.743276
Si Si2 0.219139 0.838446 0.606649
Si Si3 0.884384 0.866211 0.504469
Si Si4 0.920030 0.619557 0.118897
Si Si5 0.135161 0.229970 0.035117
Si Si6 0.858672 0.442080 0.287576
Si Si7 0.390334 0.948811 0.869582
Si Si8 0.288067 0.770682 0.815327
O O1 0.162577 0.934431 0.919852
O O2 0.366647 0.922109 0.610798
O O3 0.282318 0.019611 0.831675
O O4 0.300610 0.020219 0.597750
O O5 0.120849 0.844457 0.859652
O O6 0.174828 0.819085 0.559712
O O7 0.309977 0.790957 0.504338
O O8 0.282647 0.901693 0.491579
O O9 0.801146 0.820221 0.579445
O O10 0.000000 0.862949 0.250000
O O11 0.854513 0.600155 0.339252
O O12 0.901986 0.689647 0.131422
O O13 0.049367 0.601502 0.918534
O O14 0.000000 0.232235 0.250000
O O15 0.190156 0.224010 0.821190
O O16 0.928431 0.493425 0.235046
O O17 0.500000 0.925732 0.750000
O O18 0.250000 0.750000 0.000000
#
# Coordination Sequence:
#
# PCOD9263334 Si02
#       8
#     8   8   8   8   8   8   8   8
#     4  10  19  34  55  84 119 152 191 235 301 363
#     4  10  22  38  62  92 113 155 208 252 302 365
#     4  10  22  41  62  80 117 165 205 249 301 367
#     4  10  20  32  55  87 117 154 187 239 310 361
#     4  10  22  41  64  86 120 154 200 260 310 357
#     4  11  19  32  57  90 119 144 192 245 296 372
#     4  11  17  30  54  86 123 152 177 235 307 366
#     4  10  23  41  59  87 118 159 207 254 310 367
#
# _framework density 19.979800000000001
#
# number of rings (size 3 to 8) (size 9 to 14) (size 15 to 20)
#    0.000    1.750    3.750    1.500    1.750    1.500 
#    2.250    1.250    0.000    0.000    0.000    0.000 
#    0.000    0.000    0.000    0.000    0.000    0.000 
#
# Total GULP energy -178293.853069 kJ/mol
# GULP energy per Si atom -5571.682908 kJ/mol
# Density = 1.993433 g / cm^3
# Si number density = 19.979800 Si / 1000 Ang^3
#
#
#
# Elastic Constant Matrix: (Units=GPa)
#
#
# Indices 1 2 3 4 5 6 
#
# 1 80.6283 13.0758 28.9937 0.0000 21.4913 0.0000
# 2 13.0758 32.3510 4.5899 0.0000 7.7346 0.0000
# 3 28.9937 4.5899 91.8273 0.0001 12.6705 0.0000
# 4 0.0000 0.0000 0.0001 15.8768 -0.0001 6.9910
# 5 21.4913 7.7346 12.6705 -0.0001 34.9392 0.0000
# 6 0.0000 0.0000 0.0000 6.9910 0.0000 22.1307
#
#
#
# Elastic Compliance Matrix: (Units=1/GPa)
#
#
# Indices 1 2 3 4 5 6 
#
# 1 0.016604 -0.004278 -0.003948 0.000000 -0.007835 0.000000
# 2 -0.004278 0.033780 0.000348 0.000000 -0.004973 0.000000
# 3 -0.003948 0.000348 0.012416 0.000000 -0.002151 0.000000
# 4 0.000000 0.000000 0.000000 0.073162 0.000000 -0.023112
# 5 -0.007835 -0.004973 -0.002151 0.000000 0.035321 0.000000
# 6 0.000000 0.000000 0.000000 -0.023112 0.000000 0.052487
#
#
# Mechanical properties :
#
#
# Convention : Reuss Voigt Hill
#
# Bulk Modulus (GPa) = 21.25616 33.12502 27.19059
# Shear Modulus (GPa) = 19.59200 25.13248 22.36224
#
# Velocity S-wave (km/s) = 3.13483 3.55053 3.34914
# Velocity P-wave (km/s) = 4.87492 5.78131 5.34736
#
# Compressibility (1/GPa) = 0.04704519
#
# Stress axis : x y z
#
# Youngs Moduli (GPa) = 60.22533 29.60375 80.54172
#
# Poissons Ratio (x) = 0.12664 0.31796
# Poissons Ratio (y) = 0.25764 -0.02807
# Poissons Ratio (z) = 0.23776 -0.01032
#
# Static dielectric constant tensor:
#      x y z
#    x 1.777300 0.000000 0.057720 
#    y 0.000000 1.695240 0.000000 
#    z 0.057720 0.000000 1.722930 
# 
# From -- ./inp_files/120238.got.cif
#   From: 2010.05.17/outbox.cif.g08.bks.cpg/sg15_61_cif.got.tgz:120238.got - 2010.06.03 18:47:42.
