data_PCOD9263978
_publ_section_title
;
Structure prediction by ZEFSAII (Michael W. Deem and Ramdas Pophale) SiO2 
 PCOD9263978
Probable space group: C 2/C
;
_chemical_formula_sum "Si O2"
_cell_formula_units_Z 60
_cell_length_a 22.123210
_cell_length_b 9.315293
_cell_length_c 23.695657
_cell_angle_alpha 90.000000
_cell_angle_beta 143.962339
_cell_angle_gamma 90.000000
_cell_volume 2872.927983
_symmetry_space_group_name_H-M "C 2/C"
_symmetry_group_IT_number 15
_symmetry_cell_setting 'monoclinic'
loop_
_space_group_symop_operation_xyz
x,y,z
-x,y,1/2-z
-x,-y,-z
x,-y,1/2+z
1/2+x,1/2+y,z
1/2-x,1/2+y,1/2-z
1/2-x,1/2-y,-z
1/2+x,1/2-y,1/2+z
loop_
_atom_site_type_symbol
_atom_site_label
_atom_site_fract_x
_atom_site_fract_y
_atom_site_fract_z
Si Si1 0.850321 0.265916 0.394494
Si Si2 0.760575 0.528032 0.358147
Si Si3 0.890682 0.994265 0.858816
Si Si4 0.449064 0.339496 0.590736
Si Si5 0.612978 0.096805 0.697073
Si Si6 0.080697 0.673955 0.102754
Si Si7 0.500000 0.706456 0.250000
Si Si8 0.784694 0.703951 0.613589
O O1 0.774378 0.357682 0.375986
O O2 0.850722 0.098005 0.381701
O O3 0.840492 0.333934 0.324545
O O4 0.961497 0.312046 0.499810
O O5 0.677713 0.546834 0.246476
O O6 0.861615 0.602271 0.406843
O O7 0.730539 0.625257 0.387614
O O8 0.002112 0.935479 0.922777
O O9 0.886021 0.162760 0.863763
O O10 0.505387 0.183276 0.625270
O O11 0.491115 0.381792 0.684838
O O12 0.325248 0.344031 0.493811
O O13 0.687188 0.130015 0.805379
O O14 0.598534 0.930879 0.669430
O O15 0.604223 0.802283 0.332686
#
# Coordination Sequence:
#
# PCOD9263978 Si02
#       8
#     8   8   8   8   8   8   4   8
#     4  10  19  35  51  77 114 156 193 222 268 326
#     4  11  19  35  54  78 117 153 188 225 282 325
#     4  11  21  36  50  85 118 149 192 229 273 332
#     4  10  20  38  61  84 112 140 188 239 288 344
#     4   9  19  37  52  81 117 149 189 224 276 339
#     4  11  22  33  55  80 121 159 188 231 267 331
#     4  10  20  38  60  90 108 134 190 242 302 342
#     4  11  20  36  62  85 112 146 188 244 285 342
#
# _framework density 20.884616000000001
#
# number of rings (size 3 to 8) (size 9 to 14) (size 15 to 20)
#    0.000    1.600    4.000    5.600    1.867    0.000 
#    2.400    0.000    0.000    3.200    0.000    6.533 
#    0.000    0.000    0.000    0.000    0.000    0.000 
#
# Total GULP energy -167294.451492 kJ/mol
# GULP energy per Si atom -5576.481716 kJ/mol
# Density = 2.083708 g / cm^3
# Si number density = 20.884616 Si / 1000 Ang^3
#
#
#
# Elastic Constant Matrix: (Units=GPa)
#
#
# Indices 1 2 3 4 5 6 
#
# 1 39.3387 24.1813 9.0742 0.0000 6.1130 0.0000
# 2 24.1813 143.4556 18.4006 0.0000 -3.3390 0.0000
# 3 9.0742 18.4006 130.3850 0.0000 11.5669 0.0000
# 4 0.0000 0.0000 0.0000 23.7369 0.0000 0.9388
# 5 6.1130 -3.3390 11.5669 0.0000 34.9655 0.0000
# 6 0.0000 0.0000 0.0000 0.9388 0.0000 11.8728
#
#
#
# Elastic Compliance Matrix: (Units=1/GPa)
#
#
# Indices 1 2 3 4 5 6 
#
# 1 0.029519 -0.004988 -0.000876 0.000000 -0.005347 0.000000
# 2 -0.004988 0.007979 -0.000952 0.000000 0.001949 0.000000
# 3 -0.000876 -0.000952 0.008097 0.000000 -0.002616 0.000000
# 4 0.000000 0.000000 0.000000 0.042261 0.000000 -0.003342
# 5 -0.005347 0.001949 -0.002616 0.000000 0.030586 0.000000
# 6 0.000000 0.000000 0.000000 -0.003342 0.000000 0.084491
#
#
# Mechanical properties :
#
#
# Convention : Reuss Voigt Hill
#
# Bulk Modulus (GPa) = 31.28551 46.27683 38.78117
# Shear Modulus (GPa) = 22.00520 31.54991 26.77756
#
# Velocity S-wave (km/s) = 3.24953 3.89096 3.58462
# Velocity P-wave (km/s) = 5.39369 6.51095 5.97848
#
# Compressibility (1/GPa) = 0.03196368
#
# Stress axis : x y z
#
# Youngs Moduli (GPa) = 33.87607 125.32855 123.50268
#
# Poissons Ratio (x) = 0.62513 0.10820
# Poissons Ratio (y) = 0.16897 0.11755
# Poissons Ratio (z) = 0.02968 0.11929
#
# Static dielectric constant tensor:
#      x y z
#    x 1.831780 0.000000 0.046440 
#    y 0.000000 1.820550 0.000000 
#    z 0.046440 0.000000 1.835140 
# 
# From -- ./inp_files/302095.got.cif
#   From: 2010.05.17/outbox.cif.g08.bks.cpg/sg15_152_cif.got.tgz:302095.got - 2010.06.03 18:47:42.
