data_PCOD9263926
_publ_section_title
;
Structure prediction by ZEFSAII (Michael W. Deem and Ramdas Pophale) SiO2 
 PCOD9263926
Probable space group: C 2/C
;
_chemical_formula_sum "Si O2"
_cell_formula_units_Z 64
_cell_length_a 11.651686
_cell_length_b 15.107406
_cell_length_c 30.990471
_cell_angle_alpha 90.000000
_cell_angle_beta 142.261106
_cell_angle_gamma 90.000000
_cell_volume 3338.902129
_symmetry_space_group_name_H-M "C 2/C"
_symmetry_group_IT_number 15
_symmetry_cell_setting 'monoclinic'
loop_
_space_group_symop_operation_xyz
x,y,z
-x,y,1/2-z
-x,-y,-z
x,-y,1/2+z
1/2+x,1/2+y,z
1/2-x,1/2+y,1/2-z
1/2-x,1/2-y,-z
1/2+x,1/2-y,1/2+z
loop_
_atom_site_type_symbol
_atom_site_label
_atom_site_fract_x
_atom_site_fract_y
_atom_site_fract_z
Si Si1 0.713300 0.299054 0.796397
Si Si2 0.344901 0.123895 0.565434
Si Si3 0.240366 0.896380 0.646231
Si Si4 0.508436 0.758607 0.042933
Si Si5 0.456043 0.733731 0.542708
Si Si6 0.573924 0.876582 0.221760
Si Si7 0.069927 0.977386 0.473142
Si Si8 0.872883 0.567010 0.277337
O O1 0.500000 0.316097 0.750000
O O2 0.687127 0.214535 0.757146
O O3 0.798135 0.382102 0.796296
O O4 0.865668 0.267951 0.877047
O O5 0.480314 0.163092 0.568760
O O6 0.169354 0.191335 0.510458
O O7 0.424906 0.129307 0.638000
O O8 0.271998 0.025666 0.531293
O O9 0.402643 0.933925 0.663382
O O10 0.305882 0.883796 0.714363
O O11 0.176227 0.804181 0.607644
O O12 0.071639 0.966667 0.598388
O O13 0.534567 0.781349 0.000911
O O14 0.250000 0.750000 0.500000
O O15 0.457975 0.626646 0.540281
O O16 0.500000 0.887569 0.250000
O O17 0.687285 0.965021 0.244159
O O18 0.000000 0.000000 0.500000
#
# Coordination Sequence:
#
# PCOD9263926 Si02
#       8
#     8   8   8   8   8   8   8   8
#     4  11  26  41  63  93 132 170 211 261 327 396
#     4  10  21  35  63  91 126 157 212 259 323 375
#     4  10  19  34  63  94 120 150 217 263 324 360
#     4  10  20  37  58  91 125 165 199 267 317 385
#     4  12  25  41  65  95 133 170 218 267 326 384
#     4  11  21  37  66  94 120 159 214 264 315 383
#     4  11  21  36  64  95 123 160 215 274 311 381
#     4  11  22  37  64  92 124 163 209 273 319 379
#
# _framework density 19.167975999999999
#
# number of rings (size 3 to 8) (size 9 to 14) (size 15 to 20)
#    0.000    1.250    3.750    4.500    3.500    2.000 
#    0.000    0.625   11.000    0.000    0.000    0.000 
#    0.000    0.000    0.000    0.000    0.000    0.000 
#
# Total GULP energy -178414.228057 kJ/mol
# GULP energy per Si atom -5575.444627 kJ/mol
# Density = 1.912435 g / cm^3
# Si number density = 19.167976 Si / 1000 Ang^3
#
#
#
# Elastic Constant Matrix: (Units=GPa)
#
#
# Indices 1 2 3 4 5 6 
#
# 1 75.9212 32.0306 24.6827 0.0000 -8.6094 0.0000
# 2 32.0306 74.8071 20.7646 0.0000 -16.2435 0.0000
# 3 24.6827 20.7646 104.8903 0.0000 -11.5529 0.0000
# 4 0.0000 0.0000 0.0000 22.2812 0.0000 -3.4942
# 5 -8.6094 -16.2435 -11.5529 0.0000 21.1821 0.0000
# 6 0.0000 0.0000 0.0000 -3.4942 0.0000 36.7948
#
#
#
# Elastic Compliance Matrix: (Units=1/GPa)
#
#
# Indices 1 2 3 4 5 6 
#
# 1 0.016758 -0.006332 -0.002633 0.000000 0.000520 0.000000
# 2 -0.006332 0.018809 -0.000988 0.000000 0.011312 0.000000
# 3 -0.002633 -0.000988 0.010796 0.000000 0.004061 0.000000
# 4 0.000000 0.000000 0.000000 0.045559 0.000000 0.004327
# 5 0.000520 0.011312 0.004061 0.000000 0.058310 0.000000
# 6 0.000000 0.000000 0.000000 0.004327 0.000000 0.027589
#
#
# Mechanical properties :
#
#
# Convention : Reuss Voigt Hill
#
# Bulk Modulus (GPa) = 37.79451 45.61937 41.70694
# Shear Modulus (GPa) = 24.20787 27.92768 26.06777
#
# Velocity S-wave (km/s) = 3.55763 3.82120 3.69177
# Velocity P-wave (km/s) = 6.05277 6.58181 6.32283
#
# Compressibility (1/GPa) = 0.02645887
#
# Stress axis : x y z
#
# Youngs Moduli (GPa) = 59.67420 53.16582 92.62610
#
# Poissons Ratio (x) = 0.33662 0.24386
# Poissons Ratio (y) = 0.37783 0.09149
# Poissons Ratio (z) = 0.15710 0.05251
#
# Static dielectric constant tensor:
#      x y z
#    x 1.697850 0.000000 0.022180 
#    y 0.000000 1.728430 0.000000 
#    z 0.022180 0.000000 1.863380 
# 
# From -- ./inp_files/311220.got.cif
#   From: 2010.05.17/outbox.cif.g08.bks.cpg/sg15_156_cif.got.tgz:311220.got - 2010.06.03 18:47:42.
