data_PCOD9263705
_publ_section_title
;
Structure prediction by ZEFSAII (Michael W. Deem and Ramdas Pophale) SiO2 
 PCOD9263705
Probable space group: C 2/C
;
_chemical_formula_sum "Si O2"
_cell_formula_units_Z 60
_cell_length_a 17.759709
_cell_length_b 23.543365
_cell_length_c 8.485969
_cell_angle_alpha 90.000000
_cell_angle_beta 61.518001
_cell_angle_gamma 90.000000
_cell_volume 3118.734346
_symmetry_space_group_name_H-M "C 2/C"
_symmetry_group_IT_number 15
_symmetry_cell_setting 'monoclinic'
loop_
_space_group_symop_operation_xyz
x,y,z
-x,y,1/2-z
-x,-y,-z
x,-y,1/2+z
1/2+x,1/2+y,z
1/2-x,1/2+y,1/2-z
1/2-x,1/2-y,-z
1/2+x,1/2-y,1/2+z
loop_
_atom_site_type_symbol
_atom_site_label
_atom_site_fract_x
_atom_site_fract_y
_atom_site_fract_z
Si Si1 0.471077 0.558803 0.956927
Si Si2 0.776982 0.061631 0.251135
Si Si3 0.365487 0.758552 0.529923
Si Si4 0.493851 0.321143 0.565969
Si Si5 0.435698 0.948728 0.111120
Si Si6 0.196392 0.187204 0.205076
Si Si7 0.321536 0.023228 0.443978
Si Si8 0.000000 0.347487 0.250000
O O1 0.500000 0.562310 0.750000
O O2 0.500000 0.500000 0.000000
O O3 0.369399 0.558326 0.080030
O O4 0.509339 0.613945 0.005083
O O5 0.779123 0.121292 0.338924
O O6 0.709556 0.058697 0.175134
O O7 0.754500 0.009658 0.389081
O O8 0.434124 0.722836 0.562773
O O9 0.281008 0.784520 0.694372
O O10 0.324835 0.715819 0.441151
O O11 0.421251 0.807055 0.383286
O O12 0.500000 0.316968 0.750000
O O13 0.395520 0.307958 0.615736
O O14 0.476642 0.890261 0.130084
O O15 0.381187 0.973748 0.311416
O O16 0.374376 0.942153 0.021153
O O17 0.500000 0.000000 0.000000
#
# Coordination Sequence:
#
# PCOD9263705 Si02
#       8
#     8   8   8   8   8   8   8   4
#     4  11  22  37  62  88 116 155 196 247 311 370
#     4  10  21  37  59  84 126 156 199 251 303 371
#     4  10  19  34  59  87 112 157 210 250 295 354
#     4   9  18  37  58  85 118 148 199 255 294 355
#     4  11  21  36  57  87 124 159 198 250 297 362
#     4   9  18  34  56  83 114 152 197 253 296 342
#     4  10  21  37  55  86 123 162 194 242 311 360
#     4  12  20  34  62  88 118 156 216 246 300 370
#
# _framework density 19.238572999999999
#
# number of rings (size 3 to 8) (size 9 to 14) (size 15 to 20)
#    0.000    1.867    3.333    2.000    1.867    2.133 
#    0.000    5.333    2.933    2.400    0.000    0.000 
#    0.000    0.000    0.000    0.000    0.000    0.000 
#
# Total GULP energy -167169.817692 kJ/mol
# GULP energy per Si atom -5572.327256 kJ/mol
# Density = 1.919479 g / cm^3
# Si number density = 19.238573 Si / 1000 Ang^3
#
#
#
# Elastic Constant Matrix: (Units=GPa)
#
#
# Indices 1 2 3 4 5 6 
#
# 1 83.9603 58.2273 14.1675 0.0000 -13.4741 0.0000
# 2 58.2273 112.8837 18.0966 0.0000 -8.5272 0.0000
# 3 14.1675 18.0966 52.6032 0.0000 -10.0017 0.0000
# 4 0.0000 0.0000 0.0000 18.7201 0.0000 -1.0291
# 5 -13.4741 -8.5272 -10.0017 0.0000 32.5333 0.0000
# 6 0.0000 0.0000 0.0000 -1.0291 0.0000 30.2027
#
#
#
# Elastic Compliance Matrix: (Units=1/GPa)
#
#
# Indices 1 2 3 4 5 6 
#
# 1 0.019522 -0.009513 -0.000979 0.000000 0.005291 0.000000
# 2 -0.009513 0.014086 -0.002476 0.000000 -0.001009 0.000000
# 3 -0.000979 -0.002476 0.021162 0.000000 0.005451 0.000000
# 4 0.000000 0.000000 0.000000 0.053519 0.000000 0.001824
# 5 0.005291 -0.001009 0.005451 0.000000 0.034341 0.000000
# 6 0.000000 0.000000 0.000000 0.001824 0.000000 0.033172
#
#
# Mechanical properties :
#
#
# Convention : Reuss Voigt Hill
#
# Bulk Modulus (GPa) = 34.68049 47.82556 41.25302
# Shear Modulus (GPa) = 23.65749 26.88827 25.27288
#
# Velocity S-wave (km/s) = 3.51050 3.74254 3.62837
# Velocity P-wave (km/s) = 5.87343 6.60217 6.24843
#
# Compressibility (1/GPa) = 0.02883466
#
# Stress axis : x y z
#
# Youngs Moduli (GPa) = 51.22358 70.99028 47.25413
#
# Poissons Ratio (x) = 0.67535 0.04627
# Poissons Ratio (y) = 0.48730 0.11699
# Poissons Ratio (z) = 0.05016 0.17575
#
# Static dielectric constant tensor:
#      x y z
#    x 1.724560 0.000000 -0.043240 
#    y 0.000000 1.687460 0.000000 
#    z -0.043240 0.000000 1.679310 
# 
# From -- ./inp_files/50626.got.cif
#   From: 2010.05.17/outbox.cif.g08.bks.cpg/sg15_26_cif.got.tgz:50626.got - 2010.06.03 18:47:42.
