data_PCOD9263767
_publ_section_title
;
Structure prediction by ZEFSAII (Michael W. Deem and Ramdas Pophale) SiO2 
 PCOD9263767
Probable space group: C 2/C
;
_chemical_formula_sum "Si O2"
_cell_formula_units_Z 48
_cell_length_a 13.424230
_cell_length_b 13.125724
_cell_length_c 24.819666
_cell_angle_alpha 90.000000
_cell_angle_beta 33.255274
_cell_angle_gamma 90.000000
_cell_volume 2398.183641
_symmetry_space_group_name_H-M "C 2/C"
_symmetry_group_IT_number 15
_symmetry_cell_setting 'monoclinic'
loop_
_space_group_symop_operation_xyz
x,y,z
-x,y,1/2-z
-x,-y,-z
x,-y,1/2+z
1/2+x,1/2+y,z
1/2-x,1/2+y,1/2-z
1/2-x,1/2-y,-z
1/2+x,1/2-y,1/2+z
loop_
_atom_site_type_symbol
_atom_site_label
_atom_site_fract_x
_atom_site_fract_y
_atom_site_fract_z
Si Si1 0.938515 0.173688 0.011288
Si Si2 0.289219 0.468662 0.861515
Si Si3 0.972437 0.470553 0.357277
Si Si4 0.062543 0.618156 0.036685
Si Si5 0.738142 0.509844 0.862047
Si Si6 0.634847 0.186835 0.510960
O O1 0.911978 0.260957 0.978808
O O2 0.063395 0.080962 0.933574
O O3 0.032394 0.240755 0.015866
O O4 0.784099 0.107559 0.110130
O O5 0.500000 0.483062 0.750000
O O6 0.144451 0.420985 0.883792
O O7 0.191409 0.567332 0.932361
O O8 0.272852 0.385142 0.916036
O O9 0.898171 0.568258 0.423353
O O10 0.838776 0.440918 0.368580
O O11 0.990081 0.385548 0.395526
O O12 0.154677 0.489378 0.242090
O O13 0.750000 0.250000 0.500000
#
# Coordination Sequence:
#
# PCOD9263767 Si02
#       6
#     8   8   8   8   8   8
#     4  10  21  39  58  85 118 156 197 243 294 355
#     4   9  19  36  58  89 119 149 190 250 297 338
#     4  10  21  39  58  86 118 153 196 245 296 351
#     4   9  20  39  59  86 121 149 198 245 286 355
#     4  10  22  38  58  82 123 156 188 246 300 352
#     4  10  19  34  60  85 112 150 198 245 288 348
#
# _framework density 20.015149000000001
#
# number of rings (size 3 to 8) (size 9 to 14) (size 15 to 20)
#    0.000    2.333    1.667    1.000    0.000    6.000 
#    6.000    0.000    0.000    0.000    0.000    0.000 
#    0.000    0.000    0.000    0.000    0.000    0.000 
#
# Total GULP energy -133608.819718 kJ/mol
# GULP energy per Si atom -5567.034155 kJ/mol
# Density = 1.996959 g / cm^3
# Si number density = 20.015149 Si / 1000 Ang^3
#
#
#
# Elastic Constant Matrix: (Units=GPa)
#
#
# Indices 1 2 3 4 5 6 
#
# 1 27.4116 4.3804 20.9365 0.0000 7.0470 0.0000
# 2 4.3804 96.0994 23.1306 0.0000 6.6629 0.0000
# 3 20.9365 23.1306 121.8066 -0.0001 1.7061 0.0000
# 4 0.0000 0.0000 -0.0001 1.4205 -0.0001 -6.1006
# 5 7.0470 6.6629 1.7061 -0.0001 30.5507 0.0000
# 6 0.0000 0.0000 0.0000 -6.1006 0.0000 27.2904
#
#
#
# Elastic Compliance Matrix: (Units=1/GPa)
#
#
# Indices 1 2 3 4 5 6 
#
# 1 0.044827 0.000495 -0.007659 -0.000047 -0.010020 -0.000011
# 2 0.000495 0.011069 -0.002153 -0.000013 -0.002408 -0.000003
# 3 -0.007659 -0.002153 0.009911 0.000024 0.001683 0.000005
# 4 -0.000047 -0.000013 0.000024 17.610994 0.000075 3.936821
# 5 -0.010020 -0.002408 0.001683 0.000075 0.035475 0.000017
# 6 -0.000011 -0.000003 0.000005 3.936821 0.000017 0.916693
#
#
# Mechanical properties :
#
#
# Convention : Reuss Voigt Hill
#
# Bulk Modulus (GPa) = 21.19847 38.02362 29.61105
# Shear Modulus (GPa) = 0.26791 24.97700 12.62245
#
# Velocity S-wave (km/s) = 0.36625 3.53640 2.51399
# Velocity P-wave (km/s) = 3.28528 5.97608 4.82217
#
# Compressibility (1/GPa) = 0.04717322
#
# Stress axis : x y z
#
# Youngs Moduli (GPa) = 22.30782 90.34609 100.89342
#
# Poissons Ratio (x) = -0.04470 0.77271
# Poissons Ratio (y) = -0.01104 0.21724
# Poissons Ratio (z) = 0.17085 0.19453
#
# Static dielectric constant tensor:
#      x y z
#    x 1.768900 0.000000 -0.021450 
#    y 0.000000 1.752830 0.000000 
#    z -0.021450 0.000000 1.719890 
# 
# From -- ./inp_files/298736.got.cif
#   From: 2010.05.17/outbox.cif.g08.bks.cpg/sg15_150_cif.got.tgz:298736.got - 2010.06.03 18:47:42.
