data_PCOD9263653
_publ_section_title
;
Structure prediction by ZEFSAII (Michael W. Deem and Ramdas Pophale) SiO2 
 PCOD9263653
Probable space group: C 2/C
;
_chemical_formula_sum "Si O2"
_cell_formula_units_Z 48
_cell_length_a 8.529499
_cell_length_b 13.919464
_cell_length_c 16.210838
_cell_angle_alpha 90.000000
_cell_angle_beta 78.894102
_cell_angle_gamma 90.000000
_cell_volume 1888.605627
_symmetry_space_group_name_H-M "C 2/C"
_symmetry_group_IT_number 15
_symmetry_cell_setting 'monoclinic'
loop_
_space_group_symop_operation_xyz
x,y,z
-x,y,1/2-z
-x,-y,-z
x,-y,1/2+z
1/2+x,1/2+y,z
1/2-x,1/2+y,1/2-z
1/2-x,1/2-y,-z
1/2+x,1/2-y,1/2+z
loop_
_atom_site_type_symbol
_atom_site_label
_atom_site_fract_x
_atom_site_fract_y
_atom_site_fract_z
Si Si1 0.311975 0.000731 0.852425
Si Si2 0.990142 0.106031 0.917969
Si Si3 0.458838 0.831271 0.414359
Si Si4 0.651504 0.207382 0.392645
Si Si5 0.802241 0.809040 0.575176
Si Si6 0.320644 0.522356 0.305319
O O1 0.311978 0.887296 0.872004
O O2 0.280224 0.020678 0.759954
O O3 0.150822 0.045280 0.906928
O O4 0.450841 0.062496 0.879038
O O5 0.032380 0.209236 0.870786
O O6 0.859329 0.047325 0.878698
O O7 0.942759 0.130168 0.016344
O O8 0.431452 0.833117 0.515711
O O9 0.307850 0.770284 0.398585
O O10 0.615015 0.769575 0.375747
O O11 0.723534 0.117817 0.337428
O O12 0.750000 0.750000 0.500000
O O13 0.500000 0.543855 0.250000
#
# Coordination Sequence:
#
# PCOD9263653 Si02
#       6
#     8   8   8   8   8   8
#     4  10  20  36  58  89 116 154 198 247 302 360
#     4   9  19  37  62  86 112 158 204 243 297 357
#     4   9  18  35  61  85 114 155 203 246 297 350
#     4   9  17  33  62  89 114 151 203 253 287 354
#     4  11  22  37  59  90 117 155 204 251 295 353
#     4  10  19  34  58  90 124 157 197 247 309 367
#
# _framework density 25.415576999999999
#
# number of rings (size 3 to 8) (size 9 to 14) (size 15 to 20)
#    0.000    2.333    0.000    4.500    0.000    0.667 
#   12.000    0.000    0.000    4.000    0.000    0.000 
#    0.000    0.000    0.000    0.000    0.000    0.000 
#
# Total GULP energy -134121.864184 kJ/mol
# GULP energy per Si atom -5588.411008 kJ/mol
# Density = 2.535773 g / cm^3
# Si number density = 25.415577 Si / 1000 Ang^3
#
#
#
# Elastic Constant Matrix: (Units=GPa)
#
#
# Indices 1 2 3 4 5 6 
#
# 1 63.0907 61.0329 19.1711 0.0000 8.0770 0.0000
# 2 61.0329 174.7562 31.8663 0.0000 9.5543 0.0000
# 3 19.1711 31.8663 22.9244 0.0000 -1.3208 0.0000
# 4 0.0000 0.0000 0.0000 18.3458 0.0000 2.4086
# 5 8.0770 9.5543 -1.3208 0.0000 34.6458 0.0000
# 6 0.0000 0.0000 0.0000 2.4086 0.0000 53.1560
#
#
#
# Elastic Compliance Matrix: (Units=1/GPa)
#
#
# Indices 1 2 3 4 5 6 
#
# 1 0.027131 -0.006715 -0.013643 0.000000 -0.004993 0.000000
# 2 -0.006715 0.009554 -0.007744 0.000000 -0.001365 0.000000
# 3 -0.013643 -0.007744 0.066247 0.000000 0.007842 0.000000
# 4 0.000000 0.000000 0.000000 0.054835 0.000000 -0.002485
# 5 -0.004993 -0.001365 0.007842 0.000000 0.030703 0.000000
# 6 0.000000 0.000000 0.000000 -0.002485 0.000000 0.018925
#
#
# Mechanical properties :
#
#
# Convention : Reuss Voigt Hill
#
# Bulk Modulus (GPa) = 21.39991 53.87909 37.63950
# Shear Modulus (GPa) = 17.91001 31.14292 24.52646
#
# Velocity S-wave (km/s) = 2.65747 3.50429 3.10984
# Velocity P-wave (km/s) = 4.22546 6.13341 5.26655
#
# Compressibility (1/GPa) = 0.04672917
#
# Stress axis : x y z
#
# Youngs Moduli (GPa) = 36.85878 104.66838 15.09496
#
# Poissons Ratio (x) = 0.70280 0.20594
# Poissons Ratio (y) = 0.24749 0.11690
# Poissons Ratio (z) = 0.50286 0.81055
#
# Static dielectric constant tensor:
#      x y z
#    x 2.124230 0.000000 -0.032480 
#    y 0.000000 2.104000 0.000000 
#    z -0.032480 0.000000 2.055620 
# 
# From -- ./inp_files/195990.got.cif
#   From: 2010.05.17/outbox.cif.g08.bks.cpg/sg15_98_cif.got.tgz:195990.got - 2010.06.03 18:47:42.
