data_PCOD9263508
_publ_section_title
;
Structure prediction by ZEFSAII (Michael W. Deem and Ramdas Pophale) SiO2 
 PCOD9263508
Probable space group: C 2/C
;
_chemical_formula_sum "Si O2"
_cell_formula_units_Z 56
_cell_length_a 15.416494
_cell_length_b 28.135498
_cell_length_c 13.502252
_cell_angle_alpha 90.000000
_cell_angle_beta 27.962000
_cell_angle_gamma 90.000000
_cell_volume 2746.082473
_symmetry_space_group_name_H-M "C 2/C"
_symmetry_group_IT_number 15
_symmetry_cell_setting 'monoclinic'
loop_
_space_group_symop_operation_xyz
x,y,z
-x,y,1/2-z
-x,-y,-z
x,-y,1/2+z
1/2+x,1/2+y,z
1/2-x,1/2+y,1/2-z
1/2-x,1/2-y,-z
1/2+x,1/2-y,1/2+z
loop_
_atom_site_type_symbol
_atom_site_label
_atom_site_fract_x
_atom_site_fract_y
_atom_site_fract_z
Si Si1 0.482709 0.310078 0.085174
Si Si2 0.874480 0.439120 0.113970
Si Si3 0.843269 0.363586 0.688820
Si Si4 0.251790 0.616507 0.431123
Si Si5 0.097237 0.512525 0.558357
Si Si6 0.840963 0.140017 0.551030
Si Si7 0.097735 0.710513 0.045041
O O1 0.390015 0.314182 0.068765
O O2 0.593193 0.261851 0.997015
O O3 0.307586 0.309042 0.335776
O O4 0.634914 0.352126 0.934497
O O5 0.748687 0.397133 0.282377
O O6 0.938565 0.469896 0.142952
O O7 0.789348 0.473781 0.117963
O O8 0.062539 0.414238 0.883196
O O9 0.848656 0.361082 0.563339
O O10 0.975291 0.324816 0.603690
O O11 0.196700 0.561042 0.491820
O O12 0.226869 0.641473 0.562959
O O13 0.464079 0.619997 0.183727
O O14 0.000000 0.489683 0.750000
O O15 0.000000 0.714226 0.250000
#
# Coordination Sequence:
#
# PCOD9263508 Si02
#       7
#     8   8   8   8   8   8   8
#     4  11  23  40  64  92 122 158 211 255 299 374
#     4  10  20  35  58  89 116 161 206 252 305 358
#     4  10  22  39  61  88 124 159 206 254 305 366
#     4   9  20  37  63  87 119 165 203 251 313 376
#     4  10  19  34  57  85 120 160 204 250 305 363
#     4  10  19  38  63  89 122 160 209 252 310 371
#     4  12  24  40  64  89 121 169 206 247 311 373
#
# _framework density 20.392688
#
# number of rings (size 3 to 8) (size 9 to 14) (size 15 to 20)
#    0.000    1.714    4.286    0.429    0.000    1.143 
#    0.000    0.714    3.143    0.000    0.000    0.000 
#    0.000    0.000    0.000    0.000    0.000    0.000 
#
# Total GULP energy -156027.806092 kJ/mol
# GULP energy per Si atom -5572.421646 kJ/mol
# Density = 2.034627 g / cm^3
# Si number density = 20.392688 Si / 1000 Ang^3
#
#
#
# Elastic Constant Matrix: (Units=GPa)
#
#
# Indices 1 2 3 4 5 6 
#
# 1 54.4765 35.9873 21.9647 0.0009 9.7431 0.0002
# 2 35.9873 57.2463 29.9094 -0.0007 17.0522 0.0008
# 3 21.9647 29.9094 115.9710 0.0027 5.5298 -0.0015
# 4 0.0009 -0.0007 0.0027 14.9185 -0.0003 20.9347
# 5 9.7431 17.0522 5.5298 -0.0003 28.7397 -0.0011
# 6 0.0002 0.0008 -0.0015 20.9347 -0.0011 -2.6333
#
#
#
# Elastic Compliance Matrix: (Units=1/GPa)
#
#
# Indices 1 2 3 4 5 6 
#
# 1 0.031524 -0.019666 -0.000954 0.000000 0.001165 -0.000002
# 2 -0.019666 0.036683 -0.005063 -0.000002 -0.014124 0.000004
# 3 -0.000954 -0.005063 0.010043 0.000001 0.001395 -0.000002
# 4 0.000000 -0.000002 0.000001 0.005514 0.000003 0.043838
# 5 0.001165 -0.014124 0.001395 0.000003 0.042512 -0.000002
# 6 -0.000002 0.000004 -0.000002 0.043838 -0.000002 -0.031240
#
#
# Mechanical properties :
#
#
# Convention : Reuss Voigt Hill
#
# Bulk Modulus (GPa) = 37.19551 44.82405 41.00978
# Shear Modulus (GPa) = 32.18246 17.52715 24.85480
#
# Velocity S-wave (km/s) = 3.97689 2.93487 3.49493
# Velocity P-wave (km/s) = 6.27429 5.78902 6.03654
#
# Compressibility (1/GPa) = 0.02688497
#
# Stress axis : x y z
#
# Youngs Moduli (GPa) = 31.72160 27.26025 99.57435
#
# Poissons Ratio (x) = 0.53609 0.09502
# Poissons Ratio (y) = 0.62383 0.50411
# Poissons Ratio (z) = 0.03027 0.13801
#
# Static dielectric constant tensor:
#      x y z
#    x 1.798440 0.000000 -0.017580 
#    y 0.000000 1.731330 0.000000 
#    z -0.017580 0.000000 1.762460 
# 
# From -- ./inp_files/101742.got.cif
#   From: 2010.05.17/outbox.cif.g08.bks.cpg/sg15_51_cif.got.tgz:101742.got - 2010.06.03 18:47:42.
