data_PCOD9263971
_publ_section_title
;
Structure prediction by ZEFSAII (Michael W. Deem and Ramdas Pophale) SiO2 
 PCOD9263971
Probable space group: C 2/C
;
_chemical_formula_sum "Si O2"
_cell_formula_units_Z 48
_cell_length_a 20.589836
_cell_length_b 7.674332
_cell_length_c 13.113349
_cell_angle_alpha 90.000000
_cell_angle_beta 60.014965
_cell_angle_gamma 90.000000
_cell_volume 1794.746821
_symmetry_space_group_name_H-M "C 2/C"
_symmetry_group_IT_number 15
_symmetry_cell_setting 'monoclinic'
loop_
_space_group_symop_operation_xyz
x,y,z
-x,y,1/2-z
-x,-y,-z
x,-y,1/2+z
1/2+x,1/2+y,z
1/2-x,1/2+y,1/2-z
1/2-x,1/2-y,-z
1/2+x,1/2-y,1/2+z
loop_
_atom_site_type_symbol
_atom_site_label
_atom_site_fract_x
_atom_site_fract_y
_atom_site_fract_z
Si Si1 0.910684 0.172519 0.473915
Si Si2 0.341782 0.197583 0.468422
Si Si3 0.391975 0.214612 0.770108
Si Si4 0.030616 0.219173 0.510379
Si Si5 0.257222 0.525781 0.637864
Si Si6 0.707751 0.554758 0.655397
O O1 0.929492 0.268947 0.353128
O O2 0.821175 0.153845 0.543204
O O3 0.943402 0.249954 0.554443
O O4 0.948461 0.975034 0.459073
O O5 0.423107 0.161710 0.448418
O O6 0.296737 0.339232 0.578128
O O7 0.341387 0.296668 0.361867
O O8 0.282562 0.043848 0.528004
O O9 0.436827 0.240217 0.628651
O O10 0.330930 0.060492 0.810238
O O11 0.341684 0.386281 0.810206
O O12 0.267116 0.564978 0.749278
#
# Coordination Sequence:
#
# PCOD9263971 Si02
#       6
#     8   8   8   8   8   8
#     4  10  21  32  52  81 112 135 175 224 266 312
#     4  10  21  34  53  81 109 142 173 217 275 317
#     4  12  20  34  57  82 105 139 183 222 263 312
#     4  10  19  35  50  79 113 139 170 218 275 313
#     4  11  20  35  53  84 106 135 183 225 262 308
#     4  11  19  34  53  80 109 137 178 217 270 314
#
# _framework density 26.744719
#
# number of rings (size 3 to 8) (size 9 to 14) (size 15 to 20)
#    0.000    1.333    8.333    1.000    0.000    0.000 
#    0.000    0.833    0.000    1.000    0.000    4.667 
#    0.000    0.000    0.000    0.000    0.000    0.000 
#
# Total GULP energy -133805.895871 kJ/mol
# GULP energy per Si atom -5575.245661 kJ/mol
# Density = 2.668385 g / cm^3
# Si number density = 26.744719 Si / 1000 Ang^3
#
#
#
# Elastic Constant Matrix: (Units=GPa)
#
#
# Indices 1 2 3 4 5 6 
#
# 1 125.2657 1.1892 -19.2120 0.0000 21.3780 0.0000
# 2 1.1892 86.7033 17.1811 0.0000 -2.3016 0.0000
# 3 -19.2120 17.1811 87.6428 0.0000 25.7742 0.0000
# 4 0.0000 0.0000 0.0000 16.2107 0.0000 -8.6987
# 5 21.3780 -2.3016 25.7742 0.0000 43.3204 0.0000
# 6 0.0000 0.0000 0.0000 -8.6987 0.0000 -4.5052
#
#
#
# Elastic Compliance Matrix: (Units=1/GPa)
#
#
# Indices 1 2 3 4 5 6 
#
# 1 0.010074 -0.001295 0.004781 0.000000 -0.007885 0.000000
# 2 -0.001295 0.012388 -0.003750 0.000000 0.003528 0.000000
# 3 0.004781 -0.003750 0.016903 0.000000 -0.012615 0.000000
# 4 0.000000 0.000000 0.000000 0.030297 0.000000 -0.058498
# 5 -0.007885 0.003528 -0.012615 0.000000 0.034668 0.000000
# 6 0.000000 0.000000 0.000000 -0.058498 0.000000 -0.109016
#
#
# Mechanical properties :
#
#
# Convention : Reuss Voigt Hill
#
# Bulk Modulus (GPa) = 25.74825 33.10318 29.42571
# Shear Modulus (GPa) = 568.95674 31.03540 299.99607
#
# Velocity S-wave (km/s) = 14.60130 3.41021 10.60253
# Velocity P-wave (km/s) = 17.14387 5.28302 12.68508
#
# Compressibility (1/GPa) = 0.03883760
#
# Stress axis : x y z
#
# Youngs Moduli (GPa) = 99.26337 80.72268 59.16095
#
# Poissons Ratio (x) = 0.10453 -0.28285
# Poissons Ratio (y) = 0.12853 0.22185
# Poissons Ratio (z) = -0.47457 0.30271
#
# Static dielectric constant tensor:
#      x y z
#    x 2.440390 0.000000 0.080660 
#    y 0.000000 2.581710 0.000000 
#    z 0.080660 0.000000 2.269020 
# 
# From -- ./inp_files/166889.got.cif
#   From: 2010.05.17/outbox.cif.g08.bks.cpg/sg15_84_cif.got.tgz:166889.got - 2010.06.03 18:47:42.
