data_PCOD9263358
_publ_section_title
;
Structure prediction by ZEFSAII (Michael W. Deem and Ramdas Pophale) SiO2 
 PCOD9263358
Probable space group: C 2/C
;
_chemical_formula_sum "Si O2"
_cell_formula_units_Z 44
_cell_length_a 9.015947
_cell_length_b 16.767667
_cell_length_c 13.338392
_cell_angle_alpha 90.000000
_cell_angle_beta 117.611780
_cell_angle_gamma 90.000000
_cell_volume 1786.793135
_symmetry_space_group_name_H-M "C 2/C"
_symmetry_group_IT_number 15
_symmetry_cell_setting 'monoclinic'
loop_
_space_group_symop_operation_xyz
x,y,z
-x,y,1/2-z
-x,-y,-z
x,-y,1/2+z
1/2+x,1/2+y,z
1/2-x,1/2+y,1/2-z
1/2-x,1/2-y,-z
1/2+x,1/2-y,1/2+z
loop_
_atom_site_type_symbol
_atom_site_label
_atom_site_fract_x
_atom_site_fract_y
_atom_site_fract_z
Si Si1 0.311679 0.734733 0.203848
Si Si2 0.173978 0.494703 0.275906
Si Si3 0.507690 0.317287 0.367881
Si Si4 0.677560 0.432938 0.863625
Si Si5 0.223144 0.337539 0.889545
Si Si6 0.000000 0.000000 0.000000
O O1 0.500000 0.760578 0.250000
O O2 0.265119 0.659312 0.119798
O O3 0.298285 0.704032 0.314679
O O4 0.176153 0.802701 0.149328
O O5 0.195945 0.515004 0.164524
O O6 0.158083 0.578583 0.331875
O O7 0.361137 0.471526 0.368434
O O8 0.000000 0.451334 0.250000
O O9 0.500000 0.345778 0.250000
O O10 0.630787 0.358732 0.485404
O O11 0.590210 0.226660 0.387931
O O12 0.500000 0.426361 0.750000
O O13 0.629888 0.465964 0.955323
#
# Coordination Sequence:
#
# PCOD9263358 Si02
#       6
#     8   8   8   8   8   4
#     4   9  16  28  48  73 102 136 177 216 256 316
#     4  10  19  34  56  78 102 139 184 226 272 329
#     4   9  17  30  49  76 108 140 178 221 264 313
#     4   8  16  31  50  75 103 135 177 222 269 322
#     4   9  17  31  52  75 103 140 178 218 263 318
#     4  10  20  34  54  78 106 134 178 236 276 314
#
# _framework density 24.625121
#
# number of rings (size 3 to 8) (size 9 to 14) (size 15 to 20)
#    0.000    2.909    0.000    3.818    0.000    1.455 
#    0.000    2.727    0.000    5.455    0.000    0.000 
#    0.000    0.000    0.000    0.000    0.000    0.000 
#
# Total GULP energy -122498.769034 kJ/mol
# GULP energy per Si atom -5568.125865 kJ/mol
# Density = 2.456907 g / cm^3
# Si number density = 24.625121 Si / 1000 Ang^3
#
#
#
# Elastic Constant Matrix: (Units=GPa)
#
#
# Indices 1 2 3 4 5 6 
#
# 1 161.8741 26.5272 34.0557 0.0000 -1.1478 0.0000
# 2 26.5272 68.6680 30.2009 0.0000 -8.0709 0.0000
# 3 34.0557 30.2009 122.3649 0.0000 -4.2779 0.0000
# 4 0.0000 0.0000 0.0000 18.8973 0.0000 7.5617
# 5 -1.1478 -8.0709 -4.2779 0.0000 40.3688 0.0000
# 6 0.0000 0.0000 0.0000 7.5617 0.0000 6.2390
#
#
#
# Elastic Compliance Matrix: (Units=1/GPa)
#
#
# Indices 1 2 3 4 5 6 
#
# 1 0.006807 -0.002057 -0.001399 0.000000 -0.000366 0.000000
# 2 -0.002057 0.017291 -0.003590 0.000000 0.003018 0.000000
# 3 -0.001399 -0.003590 0.009456 0.000000 0.000245 0.000000
# 4 0.000000 0.000000 0.000000 0.102748 0.000000 -0.124530
# 5 -0.000366 0.003018 0.000245 0.000000 0.025391 0.000000
# 6 0.000000 0.000000 0.000000 -0.124530 0.000000 0.311211
#
#
# Mechanical properties :
#
#
# Convention : Reuss Voigt Hill
#
# Bulk Modulus (GPa) = 51.38292 59.38605 55.38449
# Shear Modulus (GPa) = 10.13208 30.57589 20.35398
#
# Velocity S-wave (km/s) = 2.03063 3.52753 2.87810
# Velocity P-wave (km/s) = 5.13900 6.38433 5.79522
#
# Compressibility (1/GPa) = 0.01946172
#
# Stress axis : x y z
#
# Youngs Moduli (GPa) = 146.91716 57.83380 105.74996
#
# Poissons Ratio (x) = 0.11896 0.14799
# Poissons Ratio (y) = 0.30220 0.37960
# Poissons Ratio (z) = 0.20561 0.20760
#
# Static dielectric constant tensor:
#      x y z
#    x 2.067500 0.000000 0.169820 
#    y 0.000000 3.905050 0.000000 
#    z 0.169820 0.000000 1.875390 
# 
# From -- ./inp_files/79449.got.cif
#   From: 2010.05.17/outbox.cif.g08.bks.cpg/sg15_40_cif.got.tgz:79449.got - 2010.06.03 18:47:42.
