data_PCOD9263883
_publ_section_title
;
Structure prediction by ZEFSAII (Michael W. Deem and Ramdas Pophale) SiO2 
 PCOD9263883
Probable space group: C 2/C
;
_chemical_formula_sum "Si O2"
_cell_formula_units_Z 32
_cell_length_a 12.449576
_cell_length_b 6.726425
_cell_length_c 13.686628
_cell_angle_alpha 90.000000
_cell_angle_beta 79.414248
_cell_angle_gamma 90.000000
_cell_volume 1126.627842
_symmetry_space_group_name_H-M "C 2/C"
_symmetry_group_IT_number 15
_symmetry_cell_setting 'monoclinic'
loop_
_space_group_symop_operation_xyz
x,y,z
-x,y,1/2-z
-x,-y,-z
x,-y,1/2+z
1/2+x,1/2+y,z
1/2-x,1/2+y,1/2-z
1/2-x,1/2-y,-z
1/2+x,1/2-y,1/2+z
loop_
_atom_site_type_symbol
_atom_site_label
_atom_site_fract_x
_atom_site_fract_y
_atom_site_fract_z
Si Si1 0.695421 0.008277 0.979002
Si Si2 0.673500 0.590934 0.725438
Si Si3 0.615626 0.955295 0.184537
Si Si4 0.906441 0.886120 0.573992
O O1 0.776878 0.973499 0.875104
O O2 0.604779 0.152015 0.945464
O O3 0.625074 0.886162 0.069807
O O4 0.788194 0.068678 0.043254
O O5 0.625016 0.800798 0.695221
O O6 0.784352 0.626733 0.768446
O O7 0.597199 0.479811 0.816766
O O8 0.500000 0.901020 0.250000
O O9 0.000000 0.000000 0.500000
#
# Coordination Sequence:
#
# PCOD9263883 Si02
#       4
#     8   8   8   8
#     4  10  20  41  57  89 129 155 204 261 299 371
#     4  11  20  39  64  89 123 163 206 254 304 376
#     4  11  23  41  65  87 125 167 199 254 320 356
#     4  10  19  34  62  89 117 166 207 241 312 368
#
# _framework density 28.403347
#
# number of rings (size 3 to 8) (size 9 to 14) (size 15 to 20)
#    0.000    1.500    7.500    1.500    0.000    1.000 
#    0.000    8.750    0.000    0.000    0.000    0.000 
#    0.000    0.000    0.000    0.000    0.000    0.000 
#
# Total GULP energy -89244.663173 kJ/mol
# GULP energy per Si atom -5577.791448 kJ/mol
# Density = 2.833870 g / cm^3
# Si number density = 28.403347 Si / 1000 Ang^3
#
#
#
# Elastic Constant Matrix: (Units=GPa)
#
#
# Indices 1 2 3 4 5 6 
#
# 1 115.6677 24.4874 -1.7681 0.0000 -9.9311 0.0000
# 2 24.4874 131.9791 35.1457 0.0000 -1.3407 0.0000
# 3 -1.7681 35.1457 192.4762 0.0000 -23.7417 0.0000
# 4 0.0000 0.0000 0.0000 16.0481 0.0000 23.6545
# 5 -9.9311 -1.3407 -23.7417 0.0000 63.7479 0.0000
# 6 0.0000 0.0000 0.0000 23.6545 0.0000 9.8311
#
#
#
# Elastic Compliance Matrix: (Units=1/GPa)
#
#
# Indices 1 2 3 4 5 6 
#
# 1 0.009187 -0.001854 0.000623 0.000000 0.001624 0.000000
# 2 -0.001854 0.008348 -0.001630 0.000000 -0.000720 0.000000
# 3 0.000623 -0.001630 0.005772 0.000000 0.002212 0.000000
# 4 0.000000 0.000000 0.000000 -0.024470 0.000000 0.058876
# 5 0.001624 -0.000720 0.002212 0.000000 0.016749 0.000000
# 6 0.000000 0.000000 0.000000 0.058876 0.000000 -0.039944
#
#
# Mechanical properties :
#
#
# Convention : Reuss Voigt Hill
#
# Bulk Modulus (GPa) = 56.86786 61.76145 59.31465
# Shear Modulus (GPa) = -391.38045 43.40929 -173.98558
#
# Velocity S-wave (km/s) = -11.75129 3.91361 -7.83507
# Velocity P-wave (km/s) = 12.80855 6.49719 7.80530
#
# Compressibility (1/GPa) = 0.01758462
#
# Stress axis : x y z
#
# Youngs Moduli (GPa) = 108.85002 119.79282 173.25818
#
# Poissons Ratio (x) = 0.22210 -0.10799
# Poissons Ratio (y) = 0.20181 0.28244
# Poissons Ratio (z) = -0.06785 0.19528
#
# Static dielectric constant tensor:
#      x y z
#    x 2.193470 0.000000 -0.101470 
#    y 0.000000 2.445540 0.000000 
#    z -0.101470 0.000000 2.447590 
# 
# From -- ./inp_files/149859.got.cif
#   From: 2010.05.17/outbox.cif.g08.bks.cpg/sg15_75_cif.got.tgz:149859.got - 2010.06.03 18:47:42.
