data_PCOD9263279
_publ_section_title
;
Structure prediction by ZEFSAII (Michael W. Deem and Ramdas Pophale) SiO2 
 PCOD9263279
Probable space group: C 2/C
;
_chemical_formula_sum "Si O2"
_cell_formula_units_Z 40
_cell_length_a 25.198082
_cell_length_b 7.350817
_cell_length_c 14.433024
_cell_angle_alpha 90.000000
_cell_angle_beta 36.856843
_cell_angle_gamma 90.000000
_cell_volume 1603.539684
_symmetry_space_group_name_H-M "C 2/C"
_symmetry_group_IT_number 15
_symmetry_cell_setting 'monoclinic'
loop_
_space_group_symop_operation_xyz
x,y,z
-x,y,1/2-z
-x,-y,-z
x,-y,1/2+z
1/2+x,1/2+y,z
1/2-x,1/2+y,1/2-z
1/2-x,1/2-y,-z
1/2+x,1/2-y,1/2+z
loop_
_atom_site_type_symbol
_atom_site_label
_atom_site_fract_x
_atom_site_fract_y
_atom_site_fract_z
Si Si1 0.987638 0.901797 0.663634
Si Si2 0.119899 0.591480 0.633958
Si Si3 0.289202 0.232973 0.549468
Si Si4 0.748188 0.132946 0.631543
Si Si5 0.141990 0.964049 0.816007
O O1 0.968742 0.684368 0.702672
O O2 0.000000 0.975506 0.750000
O O3 0.066947 0.961754 0.487826
O O4 0.900710 0.965721 0.728600
O O5 0.284389 0.567781 0.101037
O O6 0.166171 0.737798 0.500696
O O7 0.191920 0.597649 0.616179
O O8 0.250000 0.250000 0.500000
O O9 0.377338 0.110013 0.412389
O O10 0.222863 0.102696 0.698600
O O11 0.676663 0.258840 0.784552
#
# Coordination Sequence:
#
# PCOD9263279 Si02
#       5
#     8   8   8   8   8
#     4  10  19  34  55  77 121 153 181 240 298 340
#     4   8  15  28  50  80 102 142 181 223 287 344
#     4   9  15  29  58  81 102 140 192 236 283 337
#     4   8  14  29  55  78 103 135 190 235 274 334
#     4   9  19  34  55  83 105 153 196 224 292 354
#
# _framework density 24.944815999999999
#
# number of rings (size 3 to 8) (size 9 to 14) (size 15 to 20)
#    0.000    3.200    0.000    3.600    0.000    0.000 
#    0.000   18.000   17.600   25.200    0.000    0.000 
#    0.000    0.000    0.000    0.800    0.000    0.000 
#
# Total GULP energy -111619.685157 kJ/mol
# GULP energy per Si atom -5580.984258 kJ/mol
# Density = 2.488804 g / cm^3
# Si number density = 24.944816 Si / 1000 Ang^3
#
#
#
# Elastic Constant Matrix: (Units=GPa)
#
#
# Indices 1 2 3 4 5 6 
#
# 1 109.7813 35.0001 18.8201 0.0002 10.8355 -0.0001
# 2 35.0001 240.2416 87.1618 0.0002 -10.9696 -0.0006
# 3 18.8201 87.1618 130.2169 0.0002 -9.4047 -0.0002
# 4 0.0002 0.0002 0.0002 51.2644 -0.0001 -2.1508
# 5 10.8355 -10.9696 -9.4047 -0.0001 32.7418 0.0001
# 6 -0.0001 -0.0006 -0.0002 -2.1508 0.0001 34.6664
#
#
#
# Elastic Compliance Matrix: (Units=1/GPa)
#
#
# Indices 1 2 3 4 5 6 
#
# 1 0.010081 -0.001345 -0.000848 0.000000 -0.004030 0.000000
# 2 -0.001345 0.005698 -0.003522 0.000000 0.001342 0.000000
# 3 -0.000848 -0.003522 0.010309 0.000000 0.002061 0.000000
# 4 0.000000 0.000000 0.000000 0.019558 0.000000 0.001213
# 5 -0.004030 0.001342 0.002061 0.000000 0.032918 0.000000
# 6 0.000000 0.000000 0.000000 0.001213 0.000000 0.028922
#
#
# Mechanical properties :
#
#
# Convention : Reuss Voigt Hill
#
# Bulk Modulus (GPa) = 68.22775 84.68931 76.45853
# Shear Modulus (GPa) = 40.38758 46.35172 43.36965
#
# Velocity S-wave (km/s) = 4.02814 4.31533 4.17420
# Velocity P-wave (km/s) = 7.00324 7.67162 7.34504
#
# Compressibility (1/GPa) = 0.01465679
#
# Stress axis : x y z
#
# Youngs Moduli (GPa) = 99.19663 175.50896 97.00558
#
# Poissons Ratio (x) = 0.23609 0.08223
# Poissons Ratio (y) = 0.13343 0.34170
# Poissons Ratio (z) = 0.08409 0.61822
#
# Static dielectric constant tensor:
#      x y z
#    x 2.093120 0.000000 0.047040 
#    y 0.000000 1.989180 0.000000 
#    z 0.047040 0.000000 2.015040 
# 
# From -- ./inp_files/118279.got.cif
#   From: 2010.05.17/outbox.cif.g08.bks.cpg/sg15_60_cif.got.tgz:118279.got - 2010.06.03 18:47:42.
