data_PCOD9263276
_publ_section_title
;
Structure prediction by ZEFSAII (Michael W. Deem and Ramdas Pophale) SiO2 
 PCOD9263276
Probable space group: C 2/C
;
_chemical_formula_sum "Si O2"
_cell_formula_units_Z 40
_cell_length_a 12.453018
_cell_length_b 21.185035
_cell_length_c 9.129751
_cell_angle_alpha 90.000000
_cell_angle_beta 73.861507
_cell_angle_gamma 90.000000
_cell_volume 2313.673032
_symmetry_space_group_name_H-M "C 2/C"
_symmetry_group_IT_number 15
_symmetry_cell_setting 'monoclinic'
loop_
_space_group_symop_operation_xyz
x,y,z
-x,y,1/2-z
-x,-y,-z
x,-y,1/2+z
1/2+x,1/2+y,z
1/2-x,1/2+y,1/2-z
1/2-x,1/2-y,-z
1/2+x,1/2-y,1/2+z
loop_
_atom_site_type_symbol
_atom_site_label
_atom_site_fract_x
_atom_site_fract_y
_atom_site_fract_z
Si Si1 0.814144 0.329907 0.623272
Si Si2 0.182311 0.332032 0.523456
Si Si3 0.418594 0.289463 0.911052
Si Si4 0.996874 0.567800 0.074673
Si Si5 0.922431 0.800160 0.418406
O O1 0.814233 0.326305 0.800275
O O2 0.687757 0.326765 0.612025
O O3 0.872939 0.269393 0.524674
O O4 0.888735 0.391757 0.565593
O O5 0.125220 0.266067 0.499837
O O6 0.309477 0.336798 0.422110
O O7 0.104747 0.388746 0.501436
O O8 0.500000 0.267659 0.750000
O O9 0.498182 0.329440 0.988640
O O10 0.000000 0.561373 0.250000
O O11 0.000000 0.500000 0.000000
O O12 0.000000 0.788000 0.250000
#
# Coordination Sequence:
#
# PCOD9263276 Si02
#       5
#     8   8   8   8   8
#     4  10  20  34  53  78 112 143 174 218 268 319
#     4  10  19  34  55  76 112 146 173 213 275 318
#     4  11  20  32  53  84 113 138 175 216 270 327
#     4  10  21  40  57  76 105 142 185 222 262 309
#     4  11  19  33  53  82 112 141 170 215 275 328
#
# _framework density 17.288527999999999
#
# number of rings (size 3 to 8) (size 9 to 14) (size 15 to 20)
#    0.000    1.600    6.000    0.600    0.000    0.800 
#    3.600    0.000    0.000    2.400    0.000    0.000 
#    0.000    0.000    0.000    0.000    0.000    0.000 
#
# Total GULP energy -111477.728285 kJ/mol
# GULP energy per Si atom -5573.886414 kJ/mol
# Density = 1.724918 g / cm^3
# Si number density = 17.288528 Si / 1000 Ang^3
#
#
#
# Elastic Constant Matrix: (Units=GPa)
#
#
# Indices 1 2 3 4 5 6 
#
# 1 170.1884 55.6188 38.7538 0.0000 -4.3066 0.0000
# 2 55.6188 90.0255 11.0839 0.0000 0.0830 0.0000
# 3 38.7538 11.0839 38.2045 0.0000 -5.9449 0.0000
# 4 0.0000 0.0000 0.0000 22.7721 0.0000 3.9194
# 5 -4.3066 0.0830 -5.9449 0.0000 33.7371 0.0000
# 6 0.0000 0.0000 0.0000 3.9194 0.0000 21.7255
#
#
#
# Elastic Compliance Matrix: (Units=1/GPa)
#
#
# Indices 1 2 3 4 5 6 
#
# 1 0.009244 -0.004721 -0.008043 0.000000 -0.000226 0.000000
# 2 -0.004721 0.013943 0.000662 0.000000 -0.000520 0.000000
# 3 -0.008043 0.000662 0.034939 0.000000 0.005128 0.000000
# 4 0.000000 0.000000 0.000000 0.045321 0.000000 -0.008176
# 5 -0.000226 -0.000520 0.005128 0.000000 0.030517 0.000000
# 6 0.000000 0.000000 0.000000 -0.008176 0.000000 0.047504
#
#
# Mechanical properties :
#
#
# Convention : Reuss Voigt Hill
#
# Bulk Modulus (GPa) = 29.47704 56.59237 43.03471
# Shear Modulus (GPa) = 23.04372 28.51108 25.77740
#
# Velocity S-wave (km/s) = 3.65484 4.06536 3.86555
# Velocity P-wave (km/s) = 5.90741 7.40549 6.69846
#
# Compressibility (1/GPa) = 0.03392471
#
# Stress axis : x y z
#
# Youngs Moduli (GPa) = 108.17407 71.71819 28.62123
#
# Poissons Ratio (x) = 0.33857 0.23019
# Poissons Ratio (y) = 0.51067 -0.01896
# Poissons Ratio (z) = 0.87002 -0.04751
#
# Static dielectric constant tensor:
#      x y z
#    x 1.643350 0.000000 0.005030 
#    y 0.000000 1.551490 0.000000 
#    z 0.005030 0.000000 1.632220 
# 
# From -- ./inp_files/30271.got.cif
#   From: 2010.05.17/outbox.cif.g08.bks.cpg/sg15_16_cif.got.tgz:30271.got - 2010.06.03 18:47:42.
