data_PCOD9263647
_publ_section_title
;
Structure prediction by ZEFSAII (Michael W. Deem and Ramdas Pophale) SiO2 
 PCOD9263647
Probable space group: C 2/C
;
_chemical_formula_sum "Si O2"
_cell_formula_units_Z 56
_cell_length_a 20.518941
_cell_length_b 7.252518
_cell_length_c 20.361407
_cell_angle_alpha 90.000000
_cell_angle_beta 121.528605
_cell_angle_gamma 90.000000
_cell_volume 2582.761991
_symmetry_space_group_name_H-M "C 2/C"
_symmetry_group_IT_number 15
_symmetry_cell_setting 'monoclinic'
loop_
_space_group_symop_operation_xyz
x,y,z
-x,y,1/2-z
-x,-y,-z
x,-y,1/2+z
1/2+x,1/2+y,z
1/2-x,1/2+y,1/2-z
1/2-x,1/2-y,-z
1/2+x,1/2-y,1/2+z
loop_
_atom_site_type_symbol
_atom_site_label
_atom_site_fract_x
_atom_site_fract_y
_atom_site_fract_z
Si Si1 0.858990 0.805091 0.345861
Si Si2 0.229640 0.446047 0.457827
Si Si3 0.192904 0.731187 0.804589
Si Si4 0.361270 0.731449 0.556094
Si Si5 0.845963 0.748287 0.857970
Si Si6 0.175617 0.852959 0.315445
Si Si7 0.485130 0.295053 0.019382
O O1 0.779884 0.725340 0.329493
O O2 0.865405 0.777937 0.271306
O O3 0.929757 0.725351 0.423232
O O4 0.848531 0.027543 0.350867
O O5 0.250000 0.250000 0.500000
O O6 0.196877 0.405120 0.368113
O O7 0.339102 0.427686 0.690763
O O8 0.304324 0.577326 0.495638
O O9 0.154618 0.668095 0.716327
O O10 0.328581 0.937261 0.527851
O O11 0.353856 0.714123 0.630287
O O12 0.442642 0.700116 0.567030
O O13 0.765824 0.692809 0.850201
O O14 0.922418 0.703763 0.938810
O O15 0.500000 0.500000 0.000000
#
# Coordination Sequence:
#
# PCOD9263647 Si02
#       7
#     8   8   8   8   8   8   8
#     4   9  19  35  58  86 122 166 202 251 309 376
#     4  11  21  36  60  95 123 150 205 260 313 362
#     4  10  19  34  58  89 121 156 205 263 303 364
#     4  11  22  36  63  89 126 162 198 262 309 375
#     4   9  18  34  58  83 120 158 208 252 307 366
#     4  10  19  34  58  93 117 158 210 257 316 354
#     4  10  20  37  60  87 123 167 209 246 313 379
#
# _framework density 21.682216
#
# number of rings (size 3 to 8) (size 9 to 14) (size 15 to 20)
#    0.000    2.000    1.429    4.286    0.000    1.714 
#    0.000    0.714    6.286    0.000    3.714    0.000 
#    0.000    0.000    0.000    0.000    0.000    0.000 
#
# Total GULP energy -156365.829784 kJ/mol
# GULP energy per Si atom -5584.493921 kJ/mol
# Density = 2.163287 g / cm^3
# Si number density = 21.682216 Si / 1000 Ang^3
#
#
#
# Elastic Constant Matrix: (Units=GPa)
#
#
# Indices 1 2 3 4 5 6 
#
# 1 50.2065 23.7407 35.2291 0.0000 -8.5943 0.0000
# 2 23.7407 103.7329 19.0244 0.0000 -18.4474 0.0000
# 3 35.2291 19.0244 156.7955 0.0000 -1.8025 0.0000
# 4 0.0000 0.0000 0.0000 19.7401 0.0000 -5.3703
# 5 -8.5943 -18.4474 -1.8025 0.0000 40.8601 0.0000
# 6 0.0000 0.0000 0.0000 -5.3703 0.0000 17.9730
#
#
#
# Elastic Compliance Matrix: (Units=1/GPa)
#
#
# Indices 1 2 3 4 5 6 
#
# 1 0.026337 -0.004464 -0.005338 0.000000 0.003289 0.000000
# 2 -0.004464 0.011476 -0.000341 0.000000 0.004227 0.000000
# 3 -0.005338 -0.000341 0.007608 0.000000 -0.000941 0.000000
# 4 0.000000 0.000000 0.000000 0.055141 0.000000 0.016476
# 5 0.003289 0.004227 -0.000941 0.000000 0.027033 0.000000
# 6 0.000000 0.000000 0.000000 0.016476 0.000000 0.060562
#
#
# Mechanical properties :
#
#
# Convention : Reuss Voigt Hill
#
# Bulk Modulus (GPa) = 39.78461 51.85814 45.82137
# Shear Modulus (GPa) = 23.06063 31.23069 27.14566
#
# Velocity S-wave (km/s) = 3.26479 3.79936 3.54217
# Velocity P-wave (km/s) = 5.70969 6.57389 6.15697
#
# Compressibility (1/GPa) = 0.02513535
#
# Stress axis : x y z
#
# Youngs Moduli (GPa) = 37.96932 87.13840 131.44683
#
# Poissons Ratio (x) = 0.38896 0.70167
# Poissons Ratio (y) = 0.16948 0.04481
# Poissons Ratio (z) = 0.20268 0.02971
#
# Static dielectric constant tensor:
#      x y z
#    x 1.753000 0.000000 -0.009200 
#    y 0.000000 1.831300 0.000000 
#    z -0.009200 0.000000 1.848600 
# 
# From -- ./inp_files/214862.got.cif
#   From: 2010.05.17/outbox.cif.g08.bks.cpg/sg15_108_cif.got.tgz:214862.got - 2010.06.03 18:47:42.
