data_PCOD9263553
_publ_section_title
;
Structure prediction by ZEFSAII (Michael W. Deem and Ramdas Pophale) SiO2 
 PCOD9263553
Probable space group: C 2/C
;
_chemical_formula_sum "Si O2"
_cell_formula_units_Z 52
_cell_length_a 6.626435
_cell_length_b 25.051188
_cell_length_c 18.080377
_cell_angle_alpha 90.000000
_cell_angle_beta 132.862524
_cell_angle_gamma 90.000000
_cell_volume 2199.948973
_symmetry_space_group_name_H-M "C 2/C"
_symmetry_group_IT_number 15
_symmetry_cell_setting 'monoclinic'
loop_
_space_group_symop_operation_xyz
x,y,z
-x,y,1/2-z
-x,-y,-z
x,-y,1/2+z
1/2+x,1/2+y,z
1/2-x,1/2+y,1/2-z
1/2-x,1/2-y,-z
1/2+x,1/2-y,1/2+z
loop_
_atom_site_type_symbol
_atom_site_label
_atom_site_fract_x
_atom_site_fract_y
_atom_site_fract_z
Si Si1 0.500000 0.957192 0.250000
Si Si2 0.119009 0.045669 0.895046
Si Si3 0.780498 0.815210 0.555045
Si Si4 0.533980 0.423642 0.663852
Si Si5 0.027149 0.218342 0.551004
Si Si6 0.433162 0.947658 0.627505
Si Si7 0.332175 0.656023 0.637601
O O1 0.804022 0.934614 0.327670
O O2 0.504080 0.993856 0.324605
O O3 0.226821 0.092381 0.869532
O O4 0.104676 0.983201 0.868338
O O5 0.295727 0.050339 0.013813
O O6 0.855336 0.870800 0.611339
O O7 0.971273 0.805734 0.531148
O O8 0.765718 0.763768 0.605508
O O9 0.470974 0.819697 0.445872
O O10 0.710241 0.426213 0.630849
O O11 0.226335 0.419169 0.714210
O O12 0.750000 0.250000 0.500000
O O13 0.010943 0.173437 0.610160
O O14 0.500000 0.674998 0.750000
#
# Coordination Sequence:
#
# PCOD9263553 Si02
#       7
#     4   8   8   8   8   8   8
#     4   8  16  30  56  92 122 184 232 260 336 390
#     4  10  19  34  57  94 140 180 216 272 333 413
#     4  10  21  42  73  96 130 172 224 289 351 402
#     4   9  18  33  61  96 134 176 221 268 342 415
#     4   9  21  44  73  93 126 169 229 295 341 406
#     4   8  16  31  55  89 139 173 216 271 326 406
#     4  11  25  40  65 100 133 175 225 282 339 402
#
# _framework density 23.636911000000001
#
# number of rings (size 3 to 8) (size 9 to 14) (size 15 to 20)
#    0.000    3.077    0.000    2.769    0.000    6.154 
#    0.000    0.769   81.231    0.000    0.000    0.000 
#    0.000    0.000    0.000    0.000    0.000    0.000 
#
# Total GULP energy -145031.325352 kJ/mol
# GULP energy per Si atom -5578.127898 kJ/mol
# Density = 2.358311 g / cm^3
# Si number density = 23.636911 Si / 1000 Ang^3
#
#
#
# Elastic Constant Matrix: (Units=GPa)
#
#
# Indices 1 2 3 4 5 6 
#
# 1 98.1013 44.3962 33.5833 0.0000 -14.7047 0.0000
# 2 44.3962 153.0554 31.1428 0.0000 -9.5943 0.0000
# 3 33.5833 31.1428 127.0733 0.0000 0.1187 0.0000
# 4 0.0000 0.0000 0.0000 -9.7099 0.0000 4.9932
# 5 -14.7047 -9.5943 0.1187 0.0000 36.1396 0.0000
# 6 0.0000 0.0000 0.0000 4.9932 0.0000 31.4652
#
#
#
# Elastic Compliance Matrix: (Units=1/GPa)
#
#
# Indices 1 2 3 4 5 6 
#
# 1 0.013168 -0.002972 -0.002756 0.000000 0.004578 0.000000
# 2 -0.002972 0.007671 -0.001095 0.000000 0.000831 0.000000
# 3 -0.002756 -0.001095 0.008868 0.000000 -0.001441 0.000000
# 4 0.000000 0.000000 0.000000 -0.095218 0.000000 0.015110
# 5 0.004578 0.000831 -0.001441 0.000000 0.029758 0.000000
# 6 0.000000 0.000000 0.000000 0.015110 0.000000 0.029383
#
#
# Mechanical properties :
#
#
# Convention : Reuss Voigt Hill
#
# Bulk Modulus (GPa) = 62.26652 66.27496 64.27074
# Shear Modulus (GPa) = 395.87720 29.51950 212.69835
#
# Velocity S-wave (km/s) = 12.95555 3.53777 9.49637
# Velocity P-wave (km/s) = 15.81756 6.69234 12.14460
#
# Compressibility (1/GPa) = 0.01605999
#
# Stress axis : x y z
#
# Youngs Moduli (GPa) = 75.94052 130.36865 112.76980
#
# Poissons Ratio (x) = 0.38744 0.31080
# Poissons Ratio (y) = 0.22569 0.12351
# Poissons Ratio (z) = 0.20930 0.14278
#
# Static dielectric constant tensor:
#      x y z
#    x 1.990450 0.000000 0.001670 
#    y 0.000000 1.941830 0.000000 
#    z 0.001670 0.000000 1.881390 
# 
# From -- ./inp_files/186299.got.cif
#   From: 2010.05.17/outbox.cif.g08.bks.cpg/sg15_94_cif.got.tgz:186299.got - 2010.06.03 18:47:42.
