data_PCOD9263262
_publ_section_title
;
Structure prediction by ZEFSAII (Michael W. Deem and Ramdas Pophale) SiO2 
 PCOD9263262
Probable space group: C 2/C
;
_chemical_formula_sum "Si O2"
_cell_formula_units_Z 60
_cell_length_a 5.458279
_cell_length_b 21.450988
_cell_length_c 22.233564
_cell_angle_alpha 90.000000
_cell_angle_beta 109.317551
_cell_angle_gamma 90.000000
_cell_volume 2456.664871
_symmetry_space_group_name_H-M "C 2/C"
_symmetry_group_IT_number 15
_symmetry_cell_setting 'monoclinic'
loop_
_space_group_symop_operation_xyz
x,y,z
-x,y,1/2-z
-x,-y,-z
x,-y,1/2+z
1/2+x,1/2+y,z
1/2-x,1/2+y,1/2-z
1/2-x,1/2-y,-z
1/2+x,1/2-y,1/2+z
loop_
_atom_site_type_symbol
_atom_site_label
_atom_site_fract_x
_atom_site_fract_y
_atom_site_fract_z
Si Si1 0.251694 0.526079 0.945055
Si Si2 0.463492 0.697062 0.518300
Si Si3 0.467275 0.377910 0.634422
Si Si4 0.973474 0.015988 0.829959
Si Si5 0.586000 0.122242 0.626318
Si Si6 0.118510 0.398880 0.940081
Si Si7 0.500000 0.917100 0.250000
Si Si8 0.452095 0.252118 0.604959
O O1 0.324398 0.520578 0.881522
O O2 0.052202 0.471245 0.944456
O O3 0.126975 0.594243 0.938546
O O4 0.500000 0.500000 0.000000
O O5 0.250000 0.750000 0.500000
O O6 0.303300 0.632426 0.505547
O O7 0.569181 0.708752 0.459057
O O8 0.680190 0.714529 0.584367
O O9 0.460843 0.442547 0.672112
O O10 0.696947 0.391616 0.603995
O O11 0.521403 0.305971 0.658352
O O12 0.163481 0.370268 0.590857
O O13 0.194346 0.068827 0.854913
O O14 0.753838 0.039253 0.766136
O O15 0.487588 0.122332 0.687799
O O16 0.650104 0.193862 0.617179
#
# Coordination Sequence:
#
# PCOD9263262 Si02
#       8
#     8   8   8   8   8   8   4   8
#     4  10  21  36  56  94 132 168 212 270 331 399
#     4  10  19  34  54  85 133 184 219 251 322 410
#     4  10  20  39  61  88 124 165 214 268 326 394
#     4  10  22  42  67  89 122 173 222 277 335 407
#     4  11  22  41  65  95 126 173 224 280 344 402
#     4  10  19  35  56  83 126 175 216 261 312 389
#     4  10  24  44  70  88 122 164 226 284 346 396
#     4  10  22  35  58  92 130 173 217 269 331 403
#
# _framework density 24.423358
#
# number of rings (size 3 to 8) (size 9 to 14) (size 15 to 20)
#    0.000    1.867    2.667    1.200    0.000    4.800 
#    0.000    0.000    5.867    0.000    0.000    0.000 
#    0.000    0.000    0.000    0.000    0.000    0.000 
#
# Total GULP energy -167076.619791 kJ/mol
# GULP energy per Si atom -5569.220660 kJ/mol
# Density = 2.436777 g / cm^3
# Si number density = 24.423358 Si / 1000 Ang^3
#
#
#
# Elastic Constant Matrix: (Units=GPa)
#
#
# Indices 1 2 3 4 5 6 
#
# 1 95.1418 25.2517 10.8151 0.0000 13.2015 0.0000
# 2 25.2517 210.7554 28.1067 0.0000 3.7750 0.0000
# 3 10.8151 28.1067 67.4028 0.0000 8.5009 0.0000
# 4 0.0000 0.0000 0.0000 24.9519 0.0000 -1.9498
# 5 13.2015 3.7750 8.5009 0.0000 29.5781 0.0000
# 6 0.0000 0.0000 0.0000 -1.9498 0.0000 38.6326
#
#
#
# Elastic Compliance Matrix: (Units=1/GPa)
#
#
# Indices 1 2 3 4 5 6 
#
# 1 0.011581 -0.001201 -0.000752 0.000000 -0.004799 0.000000
# 2 -0.001201 0.005149 -0.002012 0.000000 0.000457 0.000000
# 3 -0.000752 -0.002012 0.016312 0.000000 -0.004096 0.000000
# 4 0.000000 0.000000 0.000000 0.040236 0.000000 0.002031
# 5 -0.004799 0.000457 -0.004096 0.000000 0.037070 0.000000
# 6 0.000000 0.000000 0.000000 0.002031 0.000000 0.025987
#
#
# Mechanical properties :
#
#
# Convention : Reuss Voigt Hill
#
# Bulk Modulus (GPa) = 39.82210 55.73853 47.78032
# Shear Modulus (GPa) = 32.75765 39.24097 35.99931
#
# Velocity S-wave (km/s) = 3.66627 4.01271 3.84340
# Velocity P-wave (km/s) = 5.85341 6.65887 6.26909
#
# Compressibility (1/GPa) = 0.02511168
#
# Stress axis : x y z
#
# Youngs Moduli (GPa) = 86.34911 194.21610 61.30303
#
# Poissons Ratio (x) = 0.23332 0.04610
# Poissons Ratio (y) = 0.10373 0.12334
# Poissons Ratio (z) = 0.06493 0.39076
#
# Static dielectric constant tensor:
#      x y z
#    x 2.030490 0.000000 -0.013720 
#    y 0.000000 2.129830 0.000000 
#    z -0.013720 0.000000 2.042940 
# 
# From -- ./inp_files/261393.got.cif
#   From: 2010.05.17/outbox.cif.g08.bks.cpg/sg15_131_cif.got.tgz:261393.got - 2010.06.03 18:47:42.
