data_PCOD9263582
_publ_section_title
;
Structure prediction by ZEFSAII (Michael W. Deem and Ramdas Pophale) SiO2 
 PCOD9263582
Probable space group: C 2/C
;
_chemical_formula_sum "Si O2"
_cell_formula_units_Z 40
_cell_length_a 13.716685
_cell_length_b 12.536369
_cell_length_c 10.588516
_cell_angle_alpha 90.000000
_cell_angle_beta 55.779077
_cell_angle_gamma 90.000000
_cell_volume 1505.552927
_symmetry_space_group_name_H-M "C 2/C"
_symmetry_group_IT_number 15
_symmetry_cell_setting 'monoclinic'
loop_
_space_group_symop_operation_xyz
x,y,z
-x,y,1/2-z
-x,-y,-z
x,-y,1/2+z
1/2+x,1/2+y,z
1/2-x,1/2+y,1/2-z
1/2-x,1/2-y,-z
1/2+x,1/2-y,1/2+z
loop_
_atom_site_type_symbol
_atom_site_label
_atom_site_fract_x
_atom_site_fract_y
_atom_site_fract_z
Si Si1 0.179040 0.041635 0.656730
Si Si2 0.391570 0.083930 0.694071
Si Si3 0.831196 0.190840 0.287005
Si Si4 0.040093 0.852120 0.055043
Si Si5 0.582204 0.859049 0.859436
O O1 0.293686 0.073406 0.653273
O O2 0.152679 0.108515 0.551008
O O3 0.067905 0.071601 0.828355
O O4 0.176163 0.915820 0.624036
O O5 0.360311 0.187193 0.801524
O O6 0.516970 0.103042 0.535680
O O7 0.395516 0.963324 0.742065
O O8 0.706357 0.192587 0.306228
O O9 0.930071 0.159359 0.112529
O O10 0.002541 0.734167 0.122649
#
# Coordination Sequence:
#
# PCOD9263582 Si02
#       5
#     8   8   8   8   8
#     4  10  20  35  54  85 115 146 190 239 275 343
#     4   9  18  34  55  84 115 151 187 231 294 336
#     4  10  19  34  58  83 115 151 188 233 291 339
#     4  10  20  35  56  86 113 146 193 234 284 336
#     4   9  18  33  54  83 117 147 186 237 281 345
#
# _framework density 26.568311999999999
#
# number of rings (size 3 to 8) (size 9 to 14) (size 15 to 20)
#    0.000    2.400    2.000    0.600    0.000    3.200 
#    0.000    0.000    0.000    9.600   15.600    0.000 
#    0.000    0.000    0.000    0.000    0.000    0.000 
#
# Total GULP energy -111822.062305 kJ/mol
# GULP energy per Si atom -5591.103115 kJ/mol
# Density = 2.650784 g / cm^3
# Si number density = 26.568312 Si / 1000 Ang^3
#
#
#
# Elastic Constant Matrix: (Units=GPa)
#
#
# Indices 1 2 3 4 5 6 
#
# 1 90.2794 45.4179 0.7316 0.0000 -12.0889 0.0000
# 2 45.4179 283.0867 16.0360 0.0000 3.6155 0.0000
# 3 0.7316 16.0360 72.3313 0.0000 -27.3271 0.0000
# 4 0.0000 0.0000 0.0000 20.8250 0.0000 -17.7440
# 5 -12.0889 3.6155 -27.3271 0.0000 19.8218 0.0000
# 6 0.0000 0.0000 0.0000 -17.7440 0.0000 28.5639
#
#
#
# Elastic Compliance Matrix: (Units=1/GPa)
#
#
# Indices 1 2 3 4 5 6 
#
# 1 0.015770 -0.003350 0.009283 0.000000 0.023026 0.000000
# 2 -0.003350 0.004420 -0.004221 0.000000 -0.008669 0.000000
# 3 0.009283 -0.004221 0.035682 0.000000 0.055624 0.000000
# 4 0.000000 0.000000 0.000000 0.102016 0.000000 0.063372
# 5 0.023026 -0.008669 0.055624 0.000000 0.142759 0.000000
# 6 0.000000 0.000000 0.000000 0.063372 0.000000 0.074376
#
#
# Mechanical properties :
#
#
# Convention : Reuss Voigt Hill
#
# Bulk Modulus (GPa) = 16.86467 63.34093 40.10280
# Shear Modulus (GPa) = 12.77579 39.40961 26.09270
#
# Velocity S-wave (km/s) = 2.19524 3.85558 3.13724
# Velocity P-wave (km/s) = 3.57588 6.61160 5.31508
#
# Compressibility (1/GPa) = 0.05929554
#
# Stress axis : x y z
#
# Youngs Moduli (GPa) = 63.41069 226.25553 28.02513
#
# Poissons Ratio (x) = 0.75797 -0.26015
# Poissons Ratio (y) = 0.21243 0.11829
# Poissons Ratio (z) = -0.58862 0.95502
#
# Static dielectric constant tensor:
#      x y z
#    x 2.057350 0.000000 0.041190 
#    y 0.000000 2.131020 0.000000 
#    z 0.041190 0.000000 2.061460 
# 
# From -- ./inp_files/151671.got.cif
#   From: 2010.05.17/outbox.cif.g08.bks.cpg/sg15_76_cif.got.tgz:151671.got - 2010.06.03 18:47:42.
