data_PCOD9263770
_publ_section_title
;
Structure prediction by ZEFSAII (Michael W. Deem and Ramdas Pophale) SiO2 
 PCOD9263770
Probable space group: C 2/C
;
_chemical_formula_sum "Si O2"
_cell_formula_units_Z 52
_cell_length_a 15.682295
_cell_length_b 21.765979
_cell_length_c 11.946281
_cell_angle_alpha 90.000000
_cell_angle_beta 36.960657
_cell_angle_gamma 90.000000
_cell_volume 2451.814158
_symmetry_space_group_name_H-M "C 2/C"
_symmetry_group_IT_number 15
_symmetry_cell_setting 'monoclinic'
loop_
_space_group_symop_operation_xyz
x,y,z
-x,y,1/2-z
-x,-y,-z
x,-y,1/2+z
1/2+x,1/2+y,z
1/2-x,1/2+y,1/2-z
1/2-x,1/2-y,-z
1/2+x,1/2-y,1/2+z
loop_
_atom_site_type_symbol
_atom_site_label
_atom_site_fract_x
_atom_site_fract_y
_atom_site_fract_z
Si Si1 0.138447 0.780384 0.858735
Si Si2 0.698818 0.036944 0.177443
Si Si3 0.254418 0.598497 0.358714
Si Si4 0.500000 0.957419 0.250000
Si Si5 0.838567 0.849223 0.430250
Si Si6 0.672707 0.674798 0.813236
Si Si7 0.057603 0.951188 0.530354
O O1 0.225602 0.830930 0.697351
O O2 0.196539 0.712740 0.775583
O O3 0.157959 0.802438 0.968551
O O4 0.972758 0.789004 0.008340
O O5 0.711928 0.060404 0.290967
O O6 0.558245 0.001846 0.287307
O O7 0.729111 0.097071 0.072321
O O8 0.830615 0.991057 0.018406
O O9 0.412174 0.577279 0.230209
O O10 0.131016 0.583855 0.573885
O O11 0.807083 0.823357 0.341688
O O12 0.000000 0.874723 0.250000
O O13 0.643757 0.605444 0.883738
O O14 0.000000 0.000000 0.500000
#
# Coordination Sequence:
#
# PCOD9263770 Si02
#       7
#     8   8   8   4   8   8   8
#     4   9  19  36  54  81 118 144 193 241 284 348
#     4  10  22  36  56  85 121 148 198 248 290 353
#     4   9  21  40  55  82 116 156 196 245 292 340
#     4  12  24  34  58  84 120 158 188 248 308 348
#     4   9  18  33  55  84 115 153 190 235 287 354
#     4  10  19  34  60  86 111 159 187 234 298 346
#     4   9  19  37  61  83 113 154 203 244 280 348
#
# _framework density 21.208784999999999
#
# number of rings (size 3 to 8) (size 9 to 14) (size 15 to 20)
#    0.000    2.462    0.000    3.692    6.462    1.231 
#    5.538    0.000    0.000    8.308    0.000    0.000 
#    0.000    0.000    0.000    0.000    0.000    0.000 
#
# Total GULP energy -145080.524517 kJ/mol
# GULP energy per Si atom -5580.020174 kJ/mol
# Density = 2.116051 g / cm^3
# Si number density = 21.208785 Si / 1000 Ang^3
#
#
#
# Elastic Constant Matrix: (Units=GPa)
#
#
# Indices 1 2 3 4 5 6 
#
# 1 25.2799 -5.8604 -8.9287 0.0001 -9.7922 -0.0017
# 2 -5.8604 71.6649 24.5773 -0.0006 -2.8465 -0.0023
# 3 -8.9287 24.5773 67.6856 0.0028 3.0367 -0.0048
# 4 0.0001 -0.0006 0.0028 20.4096 -0.0022 -14.3410
# 5 -9.7922 -2.8465 3.0367 -0.0022 18.1287 0.0025
# 6 -0.0017 -0.0023 -0.0048 -14.3410 0.0025 13.5021
#
#
#
# Elastic Compliance Matrix: (Units=1/GPa)
#
#
# Indices 1 2 3 4 5 6 
#
# 1 0.053062 0.004013 0.004260 0.000019 0.028578 0.000023
# 2 0.004013 0.016465 -0.005705 0.000008 0.005709 0.000009
# 3 0.004260 -0.005705 0.017476 0.000006 -0.001522 0.000012
# 4 0.000019 0.000008 0.000006 0.193144 0.000005 0.205145
# 5 0.028578 0.005709 -0.001522 0.000005 0.071749 -0.000004
# 6 0.000023 0.000009 0.000012 0.205145 -0.000004 0.291954
#
#
# Mechanical properties :
#
#
# Convention : Reuss Voigt Hill
#
# Bulk Modulus (GPa) = 10.85312 20.46745 15.66028
# Shear Modulus (GPa) = 7.46907 20.73088 14.09998
#
# Velocity S-wave (km/s) = 1.87865 3.12984 2.58120
# Velocity P-wave (km/s) = 3.13595 4.76787 4.03527
#
# Compressibility (1/GPa) = 0.09213942
#
# Stress axis : x y z
#
# Youngs Moduli (GPa) = 18.84591 60.73327 57.22077
#
# Poissons Ratio (x) = -0.24373 -0.24377
# Poissons Ratio (y) = -0.07563 0.32647
# Poissons Ratio (z) = -0.08029 0.34651
#
# Static dielectric constant tensor:
#      x y z
#    x 1.801620 0.000000 0.021930 
#    y 0.000000 1.773170 0.000000 
#    z 0.021930 0.000000 1.758650 
# 
# From -- ./inp_files/163621.got.cif
#   From: 2010.05.17/outbox.cif.g08.bks.cpg/sg15_82_cif.got.tgz:163621.got - 2010.06.03 18:47:42.
