data_PCOD9263628
_publ_section_title
;
Structure prediction by ZEFSAII (Michael W. Deem and Ramdas Pophale) SiO2 
 PCOD9263628
Probable space group: C 2/C
;
_chemical_formula_sum "Si O2"
_cell_formula_units_Z 60
_cell_length_a 15.033374
_cell_length_b 12.371891
_cell_length_c 15.779071
_cell_angle_alpha 90.000000
_cell_angle_beta 73.902960
_cell_angle_gamma 90.000000
_cell_volume 2819.707272
_symmetry_space_group_name_H-M "C 2/C"
_symmetry_group_IT_number 15
_symmetry_cell_setting 'monoclinic'
loop_
_space_group_symop_operation_xyz
x,y,z
-x,y,1/2-z
-x,-y,-z
x,-y,1/2+z
1/2+x,1/2+y,z
1/2-x,1/2+y,1/2-z
1/2-x,1/2-y,-z
1/2+x,1/2-y,1/2+z
loop_
_atom_site_type_symbol
_atom_site_label
_atom_site_fract_x
_atom_site_fract_y
_atom_site_fract_z
Si Si1 0.738833 0.106622 0.569921
Si Si2 0.026880 0.401719 0.432253
Si Si3 0.258619 0.434370 0.807191
Si Si4 0.359050 0.206863 0.056170
Si Si5 0.500000 0.990921 0.750000
Si Si6 0.216161 0.672971 0.866720
Si Si7 0.111362 0.745767 0.722466
Si Si8 0.807675 0.392689 0.856896
O O1 0.718199 0.152972 0.483633
O O2 0.829984 0.169179 0.578541
O O3 0.655578 0.153599 0.650496
O O4 0.728806 0.979054 0.565531
O O5 0.124601 0.359312 0.441552
O O6 0.000000 0.500000 0.500000
O O7 0.952187 0.310955 0.479063
O O8 0.026996 0.442449 0.332097
O O9 0.163327 0.368278 0.857198
O O10 0.262352 0.557656 0.835737
O O11 0.345244 0.361676 0.812716
O O12 0.251789 0.434344 0.707975
O O13 0.413692 0.919167 0.805046
O O14 0.163315 0.719417 0.796912
O O15 0.282380 0.768517 0.879856
O O16 0.000000 0.750953 0.750000
#
# Coordination Sequence:
#
# PCOD9263628 Si02
#       8
#     8   8   8   8   4   8   8   8
#     4  10  19  34  58  87 117 155 204 258 309 364
#     4  12  22  39  65  93 123 161 221 265 305 385
#     4  10  20  38  56  89 126 157 199 262 319 361
#     4  10  20  34  59  89 116 152 206 263 304 357
#     4  12  22  40  68  92 122 170 222 256 312 390
#     4  11  22  36  60  89 126 160 201 261 321 368
#     4  10  20  34  61  86 116 160 213 259 304 372
#     4  11  22  38  60  92 125 162 204 256 317 384
#
# _framework density 21.278804000000001
#
# number of rings (size 3 to 8) (size 9 to 14) (size 15 to 20)
#    0.000    1.333    5.333    0.800    1.867    0.000 
#    1.200    3.333    0.000    0.000    0.000    0.000 
#    0.000    0.000    0.000    0.000    0.000    0.000 
#
# Total GULP energy -167017.012811 kJ/mol
# GULP energy per Si atom -5567.233760 kJ/mol
# Density = 2.123037 g / cm^3
# Si number density = 21.278804 Si / 1000 Ang^3
#
#
#
# Elastic Constant Matrix: (Units=GPa)
#
#
# Indices 1 2 3 4 5 6 
#
# 1 77.3917 53.3348 12.4486 0.0000 -21.5178 0.0000
# 2 53.3348 164.2592 2.1947 0.0000 -23.3917 0.0000
# 3 12.4486 2.1947 54.5668 0.0000 -9.5078 0.0000
# 4 0.0000 0.0000 0.0000 21.9931 0.0000 -8.4900
# 5 -21.5178 -23.3917 -9.5078 0.0000 29.6947 0.0000
# 6 0.0000 0.0000 0.0000 -8.4900 0.0000 36.9552
#
#
#
# Elastic Compliance Matrix: (Units=1/GPa)
#
#
# Indices 1 2 3 4 5 6 
#
# 1 0.019305 -0.004911 -0.002588 0.000000 0.009293 0.000000
# 2 -0.004911 0.008132 0.001366 0.000000 0.003285 0.000000
# 3 -0.002588 0.001366 0.019829 0.000000 0.005549 0.000000
# 4 0.000000 0.000000 0.000000 0.049894 0.000000 0.011462
# 5 0.009293 0.003285 0.005549 0.000000 0.044774 0.000000
# 6 0.000000 0.000000 0.000000 0.011462 0.000000 0.029693
#
#
# Mechanical properties :
#
#
# Convention : Reuss Voigt Hill
#
# Bulk Modulus (GPa) = 28.57094 48.01934 38.29514
# Shear Modulus (GPa) = 25.56778 32.94456 29.25617
#
# Velocity S-wave (km/s) = 3.47011 3.93903 3.71198
# Velocity P-wave (km/s) = 5.43247 6.58055 6.03388
#
# Compressibility (1/GPa) = 0.03500060
#
# Stress axis : x y z
#
# Youngs Moduli (GPa) = 51.79934 122.97245 50.43245
#
# Poissons Ratio (x) = 0.60386 0.13050
# Poissons Ratio (y) = 0.25436 -0.06887
# Poissons Ratio (z) = 0.13403 -0.16792
#
# Static dielectric constant tensor:
#      x y z
#    x 1.842780 0.000000 0.051500 
#    y 0.000000 1.898140 0.000000 
#    z 0.051500 0.000000 2.020840 
# 
# From -- ./inp_files/210272.got.cif
#   From: 2010.05.17/outbox.cif.g08.bks.cpg/sg15_106_cif.got.tgz:210272.got - 2010.06.03 18:47:42.
