data_PCOD9263436
_publ_section_title
;
Structure prediction by ZEFSAII (Michael W. Deem and Ramdas Pophale) SiO2 
 PCOD9263436
Probable space group: C 2/C
;
_chemical_formula_sum "Si O2"
_cell_formula_units_Z 56
_cell_length_a 5.662911
_cell_length_b 24.126406
_cell_length_c 19.752654
_cell_angle_alpha 90.000000
_cell_angle_beta 107.983438
_cell_angle_gamma 90.000000
_cell_volume 2566.876179
_symmetry_space_group_name_H-M "C 2/C"
_symmetry_group_IT_number 15
_symmetry_cell_setting 'monoclinic'
loop_
_space_group_symop_operation_xyz
x,y,z
-x,y,1/2-z
-x,-y,-z
x,-y,1/2+z
1/2+x,1/2+y,z
1/2-x,1/2+y,1/2-z
1/2-x,1/2-y,-z
1/2+x,1/2-y,1/2+z
loop_
_atom_site_type_symbol
_atom_site_label
_atom_site_fract_x
_atom_site_fract_y
_atom_site_fract_z
Si Si1 0.515246 0.213679 0.460807
Si Si2 0.252485 0.960654 0.601562
Si Si3 0.646797 0.423503 0.048123
Si Si4 0.097085 0.602030 0.060191
Si Si5 0.585061 0.367706 0.679935
Si Si6 0.287218 0.243375 0.789983
Si Si7 0.685460 0.807328 0.409091
O O1 0.750000 0.250000 0.500000
O O2 0.591869 0.152896 0.443193
O O3 0.359912 0.198977 0.514632
O O4 0.345824 0.253808 0.400772
O O5 0.528448 0.950552 0.598699
O O6 0.227267 0.921556 0.664456
O O7 0.081544 0.938311 0.522784
O O8 0.183193 0.024672 0.600752
O O9 0.663059 0.364186 0.086572
O O10 0.871915 0.418405 0.013427
O O11 0.344361 0.630349 0.110706
O O12 0.500000 0.373829 0.750000
O O13 0.712850 0.307561 0.684637
O O14 0.500000 0.242634 0.750000
O O15 0.414216 0.200377 0.853256
O O16 0.000000 0.229175 0.750000
#
# Coordination Sequence:
#
# PCOD9263436 Si02
#       7
#     8   8   8   8   8   8   8
#     4  10  20  30  56  92 120 152 193 262 321 383
#     4  10  20  35  62  85 123 161 202 259 319 386
#     4   9  20  38  56  92 120 159 204 257 322 382
#     4  10  19  34  56  88 120 150 202 256 317 379
#     4  10  23  36  56  89 120 159 211 260 317 372
#     4  11  26  43  66  92 129 173 217 266 323 387
#     4  10  21  37  57  87 126 158 209 254 324 382
#
# _framework density 21.816403000000001
#
# number of rings (size 3 to 8) (size 9 to 14) (size 15 to 20)
#    0.000    2.000    1.429    1.286   10.000    0.000 
#    0.000    0.000    3.143    0.000    0.000    0.000 
#    0.000    0.000    0.000    0.000    0.000    0.000 
#
# Total GULP energy -155988.298646 kJ/mol
# GULP energy per Si atom -5571.010666 kJ/mol
# Density = 2.176675 g / cm^3
# Si number density = 21.816403 Si / 1000 Ang^3
#
#
#
# Elastic Constant Matrix: (Units=GPa)
#
#
# Indices 1 2 3 4 5 6 
#
# 1 44.0984 13.9123 8.2576 0.0000 17.0926 0.0000
# 2 13.9123 115.0108 15.3820 0.0000 10.8527 0.0000
# 3 8.2576 15.3820 64.7128 0.0000 8.8325 0.0000
# 4 0.0000 0.0000 0.0000 28.2476 0.0000 0.9911
# 5 17.0926 10.8527 8.8325 0.0000 39.7093 0.0000
# 6 0.0000 0.0000 0.0000 0.9911 0.0000 21.8265
#
#
#
# Elastic Compliance Matrix: (Units=1/GPa)
#
#
# Indices 1 2 3 4 5 6 
#
# 1 0.027939 -0.002126 -0.001545 0.000000 -0.011102 0.000000
# 2 -0.002126 0.009305 -0.001772 0.000000 -0.001234 0.000000
# 3 -0.001545 -0.001772 0.016413 0.000000 -0.002501 0.000000
# 4 0.000000 0.000000 0.000000 0.035458 0.000000 -0.001610
# 5 -0.011102 -0.001234 -0.002501 0.000000 0.030855 0.000000
# 6 0.000000 0.000000 0.000000 -0.001610 0.000000 0.045889
#
#
# Mechanical properties :
#
#
# Convention : Reuss Voigt Hill
#
# Bulk Modulus (GPa) = 23.37938 33.21398 28.29668
# Shear Modulus (GPa) = 26.17771 30.37467 28.27619
#
# Velocity S-wave (km/s) = 3.46773 3.73538 3.60404
# Velocity P-wave (km/s) = 5.17428 5.81906 5.50612
#
# Compressibility (1/GPa) = 0.04277274
#
# Stress axis : x y z
#
# Youngs Moduli (GPa) = 35.79164 107.46424 60.92859
#
# Poissons Ratio (x) = 0.22842 0.09412
# Poissons Ratio (y) = 0.07608 0.10798
# Poissons Ratio (z) = 0.05529 0.19045
#
# Static dielectric constant tensor:
#      x y z
#    x 1.937700 0.000000 0.022840 
#    y 0.000000 1.874240 0.000000 
#    z 0.022840 0.000000 1.833540 
# 
# From -- ./inp_files/227856.got.cif
#   From: 2010.05.17/outbox.cif.g08.bks.cpg/sg15_114_cif.got.tgz:227856.got - 2010.06.03 18:47:42.
