data_PCOD9263916
_publ_section_title
;
Structure prediction by ZEFSAII (Michael W. Deem and Ramdas Pophale) SiO2 
 PCOD9263916
Probable space group: C 2/C
;
_chemical_formula_sum "Si O2"
_cell_formula_units_Z 60
_cell_length_a 19.518402
_cell_length_b 12.357431
_cell_length_c 16.817224
_cell_angle_alpha 90.000000
_cell_angle_beta 58.795180
_cell_angle_gamma 90.000000
_cell_volume 3469.410857
_symmetry_space_group_name_H-M "C 2/C"
_symmetry_group_IT_number 15
_symmetry_cell_setting 'monoclinic'
loop_
_space_group_symop_operation_xyz
x,y,z
-x,y,1/2-z
-x,-y,-z
x,-y,1/2+z
1/2+x,1/2+y,z
1/2-x,1/2+y,1/2-z
1/2-x,1/2-y,-z
1/2+x,1/2-y,1/2+z
loop_
_atom_site_type_symbol
_atom_site_label
_atom_site_fract_x
_atom_site_fract_y
_atom_site_fract_z
Si Si1 0.500000 0.582017 0.250000
Si Si2 0.273917 0.115919 0.390387
Si Si3 0.006099 0.162896 0.068865
Si Si4 0.632407 0.577889 0.727176
Si Si5 0.480543 0.124259 0.493992
Si Si6 0.297515 0.857803 0.058433
Si Si7 0.065363 0.320610 0.776767
Si Si8 0.624219 0.498811 0.413134
O O1 0.500072 0.647392 0.167344
O O2 0.422405 0.504352 0.289827
O O3 0.302394 0.104898 0.463978
O O4 0.230221 0.232944 0.417529
O O5 0.351470 0.116493 0.287313
O O6 0.207673 0.031936 0.401750
O O7 0.079985 0.090705 0.993004
O O8 0.932120 0.104592 0.066464
O O9 0.008370 0.287515 0.042180
O O10 0.723225 0.579647 0.642296
O O11 0.591312 0.695826 0.746822
O O12 0.632709 0.546385 0.819236
O O13 0.384629 0.131183 0.543246
O O14 0.524826 0.160662 0.386101
O O15 0.500000 0.000000 0.500000
O O16 0.000000 0.350644 0.750000
#
# Coordination Sequence:
#
# PCOD9263916 Si02
#       8
#     4   8   8   8   8   8   8   8
#     4  10  20  36  64  94 120 150 190 250 314 360
#     4  10  20  34  60  87 118 146 188 256 297 350
#     4  10  21  38  59  91 119 155 193 244 302 357
#     4  10  20  33  62  92 120 149 185 251 302 362
#     4  12  25  42  58  81 124 170 203 242 285 365
#     4  10  21  36  55  88 117 151 195 238 297 351
#     4  11  21  38  60  88 119 153 205 242 299 349
#     4  10  19  34  63  89 121 143 192 250 309 344
#
# _framework density 17.294001999999999
#
# number of rings (size 3 to 8) (size 9 to 14) (size 15 to 20)
#    0.000    1.600    4.667    0.800    1.867    0.000 
#    1.200    0.000    0.000    1.600    0.000    0.000 
#    0.000    0.000    0.000    0.000    0.000    0.000 
#
# Total GULP energy -167352.371244 kJ/mol
# GULP energy per Si atom -5578.412375 kJ/mol
# Density = 1.725464 g / cm^3
# Si number density = 17.294002 Si / 1000 Ang^3
#
#
#
# Elastic Constant Matrix: (Units=GPa)
#
#
# Indices 1 2 3 4 5 6 
#
# 1 108.6223 45.2742 39.5211 0.0000 -10.7067 0.0000
# 2 45.2742 85.9628 37.8583 0.0000 0.5436 0.0000
# 3 39.5211 37.8583 90.7118 0.0000 -11.7635 0.0000
# 4 0.0000 0.0000 0.0000 10.7641 0.0000 -6.8086
# 5 -10.7067 0.5436 -11.7635 0.0000 29.3395 0.0000
# 6 0.0000 0.0000 0.0000 -6.8086 0.0000 12.6511
#
#
#
# Elastic Compliance Matrix: (Units=1/GPa)
#
#
# Indices 1 2 3 4 5 6 
#
# 1 0.012925 -0.005589 -0.002820 0.000000 0.003689 0.000000
# 2 -0.005589 0.016890 -0.005189 0.000000 -0.004433 0.000000
# 3 -0.002820 -0.005189 0.015081 0.000000 0.005114 0.000000
# 4 0.000000 0.000000 0.000000 0.140849 0.000000 0.075802
# 5 0.003689 -0.004433 0.005114 0.000000 0.037563 0.000000
# 6 0.000000 0.000000 0.000000 0.075802 0.000000 0.119839
#
#
# Mechanical properties :
#
#
# Convention : Reuss Voigt Hill
#
# Bulk Modulus (GPa) = 56.49538 58.95602 57.72570
# Shear Modulus (GPa) = 13.28929 21.39383 17.34156
#
# Velocity S-wave (km/s) = 2.77507 3.52101 3.17006
# Velocity P-wave (km/s) = 6.55794 7.12001 6.84474
#
# Compressibility (1/GPa) = 0.01770056
#
# Stress axis : x y z
#
# Youngs Moduli (GPa) = 77.36669 59.20832 66.30687
#
# Poissons Ratio (x) = 0.33090 0.18702
# Poissons Ratio (y) = 0.43238 0.34405
# Poissons Ratio (z) = 0.21821 0.30722
#
# Static dielectric constant tensor:
#      x y z
#    x 1.566230 0.000000 -0.010800 
#    y 0.000000 1.582860 0.000000 
#    z -0.010800 0.000000 1.587350 
# 
# From -- ./inp_files/161312.got.cif
#   From: 2010.05.17/outbox.cif.g08.bks.cpg/sg15_81_cif.got.tgz:161312.got - 2010.06.03 18:47:42.
