data_PCOD9263532
_publ_section_title
;
Structure prediction by ZEFSAII (Michael W. Deem and Ramdas Pophale) SiO2 
 PCOD9263532
Probable space group: C 2/C
;
_chemical_formula_sum "Si O2"
_cell_formula_units_Z 64
_cell_length_a 12.794534
_cell_length_b 11.839753
_cell_length_c 21.887829
_cell_angle_alpha 90.000000
_cell_angle_beta 92.350592
_cell_angle_gamma 90.000000
_cell_volume 3312.868669
_symmetry_space_group_name_H-M "C 2/C"
_symmetry_group_IT_number 15
_symmetry_cell_setting 'monoclinic'
loop_
_space_group_symop_operation_xyz
x,y,z
-x,y,1/2-z
-x,-y,-z
x,-y,1/2+z
1/2+x,1/2+y,z
1/2-x,1/2+y,1/2-z
1/2-x,1/2-y,-z
1/2+x,1/2-y,1/2+z
loop_
_atom_site_type_symbol
_atom_site_label
_atom_site_fract_x
_atom_site_fract_y
_atom_site_fract_z
Si Si1 0.253471 0.041188 0.357095
Si Si2 0.811439 0.145426 0.973230
Si Si3 0.888745 0.307700 0.772484
Si Si4 0.134897 0.232846 0.047757
Si Si5 0.717626 0.056442 0.507218
Si Si6 0.464343 0.643364 0.869624
Si Si7 0.694312 0.291067 0.346388
Si Si8 0.550180 0.599736 0.408289
O O1 0.336913 0.109643 0.320392
O O2 0.146640 0.112752 0.363942
O O3 0.286649 0.005246 0.426896
O O4 0.223874 0.919394 0.328405
O O5 0.881701 0.181047 0.918451
O O6 0.750000 0.250000 0.000000
O O7 0.892117 0.092049 0.024566
O O8 0.728235 0.044732 0.959255
O O9 0.915114 0.186691 0.804954
O O10 0.813963 0.286559 0.713128
O O11 0.000000 0.351428 0.750000
O O12 0.128103 0.348720 0.009141
O O13 0.223428 0.250806 0.101504
O O14 0.031676 0.197973 0.080940
O O15 0.180186 0.134616 0.005032
O O16 0.578346 0.701080 0.872756
O O17 0.488319 0.511996 0.884781
#
# Coordination Sequence:
#
# PCOD9263532 Si02
#       8
#     8   8   8   8   8   8   8   8
#     4   9  19  37  57  83 113 149 194 242 295 349
#     4  11  21  34  55  85 121 155 188 238 296 347
#     4  10  21  40  61  79 110 156 200 246 292 353
#     4  10  19  34  57  88 119 152 191 237 301 351
#     4   9  19  33  57  81 121 152 186 234 293 354
#     4  10  19  34  58  81 104 148 206 231 278 335
#     4   9  21  36  58  82 112 152 193 247 291 350
#     4  10  20  33  60  87 114 148 191 245 284 343
#
# _framework density 19.318605000000002
#
# number of rings (size 3 to 8) (size 9 to 14) (size 15 to 20)
#    0.000    2.250    1.250    2.625    7.000    1.000 
#    0.000    5.000   11.000    0.000    0.000    0.000 
#    0.000    0.000    0.000    0.000    0.000    0.000 
#
# Total GULP energy -178148.521122 kJ/mol
# GULP energy per Si atom -5567.141285 kJ/mol
# Density = 1.927463 g / cm^3
# Si number density = 19.318605 Si / 1000 Ang^3
#
#
#
# Elastic Constant Matrix: (Units=GPa)
#
#
# Indices 1 2 3 4 5 6 
#
# 1 77.5724 40.7084 33.6854 0.0000 -27.0252 0.0000
# 2 40.7084 88.3792 27.4935 0.0000 -20.9969 0.0000
# 3 33.6854 27.4935 76.3167 0.0000 -13.5169 0.0000
# 4 0.0000 0.0000 0.0000 33.1416 0.0000 -7.8797
# 5 -27.0252 -20.9969 -13.5169 0.0000 39.9241 0.0000
# 6 0.0000 0.0000 0.0000 -7.8797 0.0000 24.0342
#
#
#
# Elastic Compliance Matrix: (Units=1/GPa)
#
#
# Indices 1 2 3 4 5 6 
#
# 1 0.021949 -0.005990 -0.005805 0.000000 0.009742 0.000000
# 2 -0.005990 0.015612 -0.002388 0.000000 0.003348 0.000000
# 3 -0.005805 -0.002388 0.016603 0.000000 0.000436 0.000000
# 4 0.000000 0.000000 0.000000 0.032724 0.000000 0.010729
# 5 0.009742 0.003348 0.000436 0.000000 0.033551 0.000000
# 6 0.000000 0.000000 0.000000 0.010729 0.000000 0.045125
#
#
# Mechanical properties :
#
#
# Convention : Reuss Voigt Hill
#
# Bulk Modulus (GPa) = 38.75986 49.56032 44.16009
# Shear Modulus (GPa) = 24.68792 28.77870 26.73331
#
# Velocity S-wave (km/s) = 3.57870 3.86384 3.72400
# Velocity P-wave (km/s) = 6.09780 6.75393 6.43423
#
# Compressibility (1/GPa) = 0.02579989
#
# Stress axis : x y z
#
# Youngs Moduli (GPa) = 45.55947 64.05375 60.23059
#
# Poissons Ratio (x) = 0.38366 0.34963
# Poissons Ratio (y) = 0.27289 0.14380
# Poissons Ratio (z) = 0.26447 0.15293
#
# Static dielectric constant tensor:
#      x y z
#    x 1.707510 0.000000 0.007750 
#    y 0.000000 1.730970 0.000000 
#    z 0.007750 0.000000 1.690560 
# 
# From -- ./inp_files/268882.got.cif
#   From: 2010.05.17/outbox.cif.g08.bks.cpg/sg15_135_cif.got.tgz:268882.got - 2010.06.03 18:47:42.
