data_PCOD9263498
_publ_section_title
;
Structure prediction by ZEFSAII (Michael W. Deem and Ramdas Pophale) SiO2 
 PCOD9263498
Probable space group: C 2/C
;
_chemical_formula_sum "Si O2"
_cell_formula_units_Z 60
_cell_length_a 26.378631
_cell_length_b 12.361164
_cell_length_c 9.071026
_cell_angle_alpha 90.000000
_cell_angle_beta 48.893972
_cell_angle_gamma 90.000000
_cell_volume 2228.681264
_symmetry_space_group_name_H-M "C 2/C"
_symmetry_group_IT_number 15
_symmetry_cell_setting 'monoclinic'
loop_
_space_group_symop_operation_xyz
x,y,z
-x,y,1/2-z
-x,-y,-z
x,-y,1/2+z
1/2+x,1/2+y,z
1/2-x,1/2+y,1/2-z
1/2-x,1/2-y,-z
1/2+x,1/2-y,1/2+z
loop_
_atom_site_type_symbol
_atom_site_label
_atom_site_fract_x
_atom_site_fract_y
_atom_site_fract_z
Si Si1 0.606356 0.926554 0.122374
Si Si2 0.317179 0.601426 0.028521
Si Si3 0.263339 0.940523 0.524245
Si Si4 0.172465 0.808145 0.525688
Si Si5 0.574971 0.578699 0.445889
Si Si6 0.399321 0.661221 0.630117
Si Si7 0.500000 0.773999 0.750000
Si Si8 0.536877 0.121751 0.469525
O O1 0.666384 0.999158 0.069692
O O2 0.647079 0.815105 0.080857
O O3 0.537365 0.920665 0.345521
O O4 0.587751 0.938133 0.986486
O O5 0.280961 0.533579 0.970722
O O6 0.266433 0.606171 0.263224
O O7 0.381805 0.554862 0.989664
O O8 0.355992 0.691966 0.858767
O O9 0.246682 0.847177 0.433065
O O10 0.122144 0.872727 0.729255
O O11 0.155915 0.840861 0.391982
O O12 0.560326 0.452531 0.431009
O O13 0.534203 0.685300 0.575971
O O14 0.450815 0.755989 0.492873
O O15 0.461839 0.854967 0.709015
#
# Coordination Sequence:
#
# PCOD9263498 Si02
#       8
#     8   8   8   8   8   8   4   8
#     4  10  22  41  57  82 119 170 214 239 305 362
#     4  11  20  35  59  92 119 151 204 255 315 356
#     4  11  21  38  63  86 123 156 201 267 303 370
#     4  10  19  34  57  84 117 167 202 240 306 360
#     4  11  20  32  55  87 128 160 199 251 295 362
#     4  11  19  36  56  88 126 158 204 254 297 364
#     4  12  22  34  54  86 122 168 206 242 294 346
#     4  10  23  38  58  80 120 165 208 251 289 375
#
# _framework density 26.921749999999999
#
# number of rings (size 3 to 8) (size 9 to 14) (size 15 to 20)
#    0.000    1.333    6.667    0.400    0.000    2.667 
#    0.000    5.333    0.000    3.200    0.000    0.000 
#    0.000    0.000    0.000    0.000    0.000    0.000 
#
# Total GULP energy -167018.188924 kJ/mol
# GULP energy per Si atom -5567.272964 kJ/mol
# Density = 2.686047 g / cm^3
# Si number density = 26.921750 Si / 1000 Ang^3
#
#
#
# Elastic Constant Matrix: (Units=GPa)
#
#
# Indices 1 2 3 4 5 6 
#
# 1 150.9903 23.1604 33.5269 0.0000 31.7501 0.0000
# 2 23.1604 57.9549 13.6068 0.0000 -4.0864 0.0000
# 3 33.5269 13.6068 120.3937 0.0000 34.1290 0.0000
# 4 0.0000 0.0000 0.0000 28.1726 0.0000 6.1065
# 5 31.7501 -4.0864 34.1290 0.0000 41.5972 0.0000
# 6 0.0000 0.0000 0.0000 6.1065 0.0000 25.3558
#
#
#
# Elastic Compliance Matrix: (Units=1/GPa)
#
#
# Indices 1 2 3 4 5 6 
#
# 1 0.008714 -0.003987 0.000027 0.000000 -0.007065 0.000000
# 2 -0.003987 0.020193 -0.003384 0.000000 0.007803 0.000000
# 3 0.000027 -0.003384 0.011442 0.000000 -0.009741 0.000000
# 4 0.000000 0.000000 0.000000 0.037450 0.000000 -0.009019
# 5 -0.007065 0.007803 -0.009741 0.000000 0.038191 0.000000
# 6 0.000000 0.000000 0.000000 -0.009019 0.000000 0.041611
#
#
# Mechanical properties :
#
#
# Convention : Reuss Voigt Hill
#
# Bulk Modulus (GPa) = 38.96959 52.21412 45.59186
# Shear Modulus (GPa) = 27.64822 36.29477 31.97149
#
# Velocity S-wave (km/s) = 3.20814 3.67571 3.44985
# Velocity P-wave (km/s) = 5.31314 6.11975 5.73065
#
# Compressibility (1/GPa) = 0.02566103
#
# Stress axis : x y z
#
# Youngs Moduli (GPa) = 114.75599 49.52281 87.39395
#
# Poissons Ratio (x) = 0.19744 -0.00232
# Poissons Ratio (y) = 0.45751 0.29574
# Poissons Ratio (z) = -0.00305 0.16758
#
# Static dielectric constant tensor:
#      x y z
#    x 2.276010 0.000000 -0.076750 
#    y 0.000000 2.353670 0.000000 
#    z -0.076750 0.000000 2.135970 
# 
# From -- ./inp_files/67010.got.cif
#   From: 2010.05.17/outbox.cif.g08.bks.cpg/sg15_34_cif.got.tgz:67010.got - 2010.06.03 18:47:42.
