data_PCOD9263379
_publ_section_title
;
Structure prediction by ZEFSAII (Michael W. Deem and Ramdas Pophale) SiO2 
 PCOD9263379
Probable space group: C 2/C
;
_chemical_formula_sum "Si O2"
_cell_formula_units_Z 56
_cell_length_a 5.163743
_cell_length_b 30.992081
_cell_length_c 21.464462
_cell_angle_alpha 90.000000
_cell_angle_beta 59.349094
_cell_angle_gamma 90.000000
_cell_volume 2955.152822
_symmetry_space_group_name_H-M "C 2/C"
_symmetry_group_IT_number 15
_symmetry_cell_setting 'monoclinic'
loop_
_space_group_symop_operation_xyz
x,y,z
-x,y,1/2-z
-x,-y,-z
x,-y,1/2+z
1/2+x,1/2+y,z
1/2-x,1/2+y,1/2-z
1/2-x,1/2-y,-z
1/2+x,1/2-y,1/2+z
loop_
_atom_site_type_symbol
_atom_site_label
_atom_site_fract_x
_atom_site_fract_y
_atom_site_fract_z
Si Si1 0.369857 0.097145 0.582256
Si Si2 0.165986 0.013801 0.563312
Si Si3 0.639088 0.846629 0.298903
Si Si4 0.250818 0.851089 0.984877
Si Si5 0.678143 0.294052 0.545262
Si Si6 0.359168 0.253102 0.700544
Si Si7 0.007897 0.931357 0.962230
O O1 0.215608 0.050298 0.609423
O O2 0.444567 0.121008 0.636204
O O3 0.175425 0.128762 0.561963
O O4 0.677399 0.089894 0.505178
O O5 0.026359 0.041287 0.523905
O O6 0.500000 0.000000 0.500000
O O7 0.987159 0.968673 0.591063
O O8 0.500000 0.859113 0.250000
O O9 0.549868 0.796931 0.323161
O O10 0.000000 0.847245 0.250000
O O11 0.537092 0.820619 0.962815
O O12 0.999351 0.822391 0.983241
O O13 0.255200 0.893717 0.939075
O O14 0.750000 0.250000 0.500000
O O15 0.475244 0.281779 0.629595
O O16 0.500000 0.265292 0.750000
O O17 0.000000 0.255028 0.750000
#
# Coordination Sequence:
#
# PCOD9263379 Si02
#       7
#     8   8   8   8   8   8   8
#     4  10  19  34  56  81 124 151 183 234 296 349
#     4   8  16  29  52  81 114 150 173 213 277 365
#     4  10  23  36  54  77 109 155 202 228 270 345
#     4  11  22  34  55  84 118 147 184 247 303 343
#     4  12  24  38  57  88 117 151 200 255 305 346
#     4  10  22  41  58  77 113 162 200 237 292 363
#     4   9  17  32  52  83 120 144 180 216 300 352
#
# _framework density 18.949950999999999
#
# number of rings (size 3 to 8) (size 9 to 14) (size 15 to 20)
#    0.000    2.000    1.429    2.143    4.000    2.286 
#    0.000    0.000    0.000    0.000    0.000    1.000 
#   21.429    0.000    0.000    0.000    0.000    0.000 
#
# Total GULP energy -155987.899435 kJ/mol
# GULP energy per Si atom -5570.996408 kJ/mol
# Density = 1.890682 g / cm^3
# Si number density = 18.949951 Si / 1000 Ang^3
#
#
#
# Elastic Constant Matrix: (Units=GPa)
#
#
# Indices 1 2 3 4 5 6 
#
# 1 128.6919 58.6271 26.4091 0.0000 22.1977 0.0000
# 2 58.6271 143.2503 41.3112 0.0000 11.8248 0.0000
# 3 26.4091 41.3112 44.4462 0.0000 10.8602 0.0000
# 4 0.0000 0.0000 0.0000 14.5430 0.0000 3.6526
# 5 22.1977 11.8248 10.8602 0.0000 20.3019 0.0000
# 6 0.0000 0.0000 0.0000 3.6526 0.0000 44.7597
#
#
#
# Elastic Compliance Matrix: (Units=1/GPa)
#
#
# Indices 1 2 3 4 5 6 
#
# 1 0.011256 -0.003499 -0.001067 0.000000 -0.009699 0.000000
# 2 -0.003499 0.010640 -0.008318 0.000000 0.002078 0.000000
# 3 -0.001067 -0.008318 0.033816 0.000000 -0.012078 0.000000
# 4 0.000000 0.000000 0.000000 0.070200 0.000000 -0.005729
# 5 -0.009699 0.002078 -0.012078 0.000000 0.065112 0.000000
# 6 0.000000 0.000000 0.000000 -0.005729 0.000000 0.022809
#
#
# Mechanical properties :
#
#
# Convention : Reuss Voigt Hill
#
# Bulk Modulus (GPa) = 33.39474 63.23146 48.31310
# Shear Modulus (GPa) = 20.03352 28.59033 24.31193
#
# Velocity S-wave (km/s) = 3.25496 3.88845 3.58572
# Velocity P-wave (km/s) = 5.63801 7.32121 6.53404
#
# Compressibility (1/GPa) = 0.02994483
#
# Stress axis : x y z
#
# Youngs Moduli (GPa) = 88.84067 93.98489 29.57204
#
# Poissons Ratio (x) = 0.32881 0.03154
# Poissons Ratio (y) = 0.31081 0.24599
# Poissons Ratio (z) = 0.09475 0.78181
#
# Static dielectric constant tensor:
#      x y z
#    x 1.752490 0.000000 -0.008740 
#    y 0.000000 1.752000 0.000000 
#    z -0.008740 0.000000 1.644990 
# 
# From -- ./inp_files/228403.got.cif
#   From: 2010.05.17/outbox.cif.g08.bks.cpg/sg15_115_cif.got.tgz:228403.got - 2010.06.03 18:47:42.
