data_PCOD9263592
_publ_section_title
;
Structure prediction by ZEFSAII (Michael W. Deem and Ramdas Pophale) SiO2 
 PCOD9263592
Probable space group: C 2/C
;
_chemical_formula_sum "Si O2"
_cell_formula_units_Z 48
_cell_length_a 11.820527
_cell_length_b 18.249387
_cell_length_c 11.484940
_cell_angle_alpha 90.000000
_cell_angle_beta 110.732762
_cell_angle_gamma 90.000000
_cell_volume 2317.062461
_symmetry_space_group_name_H-M "C 2/C"
_symmetry_group_IT_number 15
_symmetry_cell_setting 'monoclinic'
loop_
_space_group_symop_operation_xyz
x,y,z
-x,y,1/2-z
-x,-y,-z
x,-y,1/2+z
1/2+x,1/2+y,z
1/2-x,1/2+y,1/2-z
1/2-x,1/2-y,-z
1/2+x,1/2-y,1/2+z
loop_
_atom_site_type_symbol
_atom_site_label
_atom_site_fract_x
_atom_site_fract_y
_atom_site_fract_z
Si Si1 0.610329 0.878132 0.729172
Si Si2 0.731512 0.358809 0.486941
Si Si3 0.068519 0.001700 0.898720
Si Si4 0.605451 0.222488 0.866545
Si Si5 0.449632 0.767478 0.528254
Si Si6 0.771735 0.133310 0.086983
O O1 0.500000 0.922052 0.750000
O O2 0.708641 0.860497 0.862791
O O3 0.539611 0.808258 0.649491
O O4 0.682408 0.907244 0.644412
O O5 0.674556 0.437363 0.441708
O O6 0.623120 0.300176 0.445383
O O7 0.844500 0.326328 0.454476
O O8 0.000000 0.015666 0.750000
O O9 0.123516 0.921135 0.907121
O O10 0.000000 0.000000 0.000000
O O11 0.500000 0.190698 0.750000
O O12 0.675549 0.291581 0.837542
O O13 0.533279 0.254488 0.951602
O O14 0.697403 0.162820 0.949286
#
# Coordination Sequence:
#
# PCOD9263592 Si02
#       6
#     8   8   8   8   8   8
#     4   9  18  36  58  82 113 153 196 242 298 348
#     4  10  20  35  58  83 114 151 195 242 288 350
#     4  12  26  42  62  89 121 158 198 245 304 361
#     4  10  19  34  58  84 113 150 193 240 290 349
#     4   9  19  34  55  85 113 150 196 241 292 344
#     4  10  21  37  58  85 118 152 194 245 299 353
#
# _framework density 20.715886000000001
#
# number of rings (size 3 to 8) (size 9 to 14) (size 15 to 20)
#    0.000    2.000    0.000    3.500    0.000    4.667 
#    0.000   10.000    0.000    0.000    0.000    0.000 
#    0.000    0.000    0.000    0.000    0.000    0.000 
#
# Total GULP energy -133724.180092 kJ/mol
# GULP energy per Si atom -5571.840837 kJ/mol
# Density = 2.066874 g / cm^3
# Si number density = 20.715886 Si / 1000 Ang^3
#
#
#
# Elastic Constant Matrix: (Units=GPa)
#
#
# Indices 1 2 3 4 5 6 
#
# 1 82.2815 9.1697 32.5754 0.0000 -10.1561 0.0000
# 2 9.1697 47.1251 17.5328 0.0000 11.2934 0.0000
# 3 32.5754 17.5328 90.1705 0.0000 21.6092 0.0000
# 4 0.0000 0.0000 0.0000 8.5858 0.0000 8.0419
# 5 -10.1561 11.2934 21.6092 0.0000 46.1608 0.0000
# 6 0.0000 0.0000 0.0000 8.0419 0.0000 35.0155
#
#
#
# Elastic Compliance Matrix: (Units=1/GPa)
#
#
# Indices 1 2 3 4 5 6 
#
# 1 0.016179 -0.002263 -0.007198 0.000000 0.007483 0.000000
# 2 -0.002263 0.023852 -0.002593 0.000000 -0.005119 0.000000
# 3 -0.007198 -0.002593 0.016245 0.000000 -0.008554 0.000000
# 4 0.000000 0.000000 0.000000 0.148394 0.000000 -0.034081
# 5 0.007483 -0.005119 -0.008554 0.000000 0.028567 0.000000
# 6 0.000000 0.000000 0.000000 -0.034081 0.000000 0.036386
#
#
# Mechanical properties :
#
#
# Convention : Reuss Voigt Hill
#
# Bulk Modulus (GPa) = 31.08835 37.57033 34.32934
# Shear Modulus (GPa) = 16.42283 28.63902 22.53093
#
# Velocity S-wave (km/s) = 2.81866 3.72219 3.30148
# Velocity P-wave (km/s) = 5.06288 6.05378 5.58037
#
# Compressibility (1/GPa) = 0.03216639
#
# Stress axis : x y z
#
# Youngs Moduli (GPa) = 61.80850 41.92480 61.55862
#
# Poissons Ratio (x) = 0.09489 0.44311
# Poissons Ratio (y) = 0.13990 0.15964
# Poissons Ratio (z) = 0.44490 0.10872
#
# Static dielectric constant tensor:
#      x y z
#    x 1.797450 0.000000 -0.043910 
#    y 0.000000 1.715970 0.000000 
#    z -0.043910 0.000000 1.799530 
# 
# From -- ./inp_files/87866.got.cif
#   From: 2010.05.17/outbox.cif.g08.bks.cpg/sg15_44_cif.got.tgz:87866.got - 2010.06.03 18:47:42.
