data_PCOD9263468
_publ_section_title
;
Structure prediction by ZEFSAII (Michael W. Deem and Ramdas Pophale) SiO2 
 PCOD9263468
Probable space group: C 2/C
;
_chemical_formula_sum "Si O2"
_cell_formula_units_Z 56
_cell_length_a 12.683250
_cell_length_b 23.803007
_cell_length_c 8.989070
_cell_angle_alpha 90.000000
_cell_angle_beta 102.559724
_cell_angle_gamma 90.000000
_cell_volume 2648.854138
_symmetry_space_group_name_H-M "C 2/C"
_symmetry_group_IT_number 15
_symmetry_cell_setting 'monoclinic'
loop_
_space_group_symop_operation_xyz
x,y,z
-x,y,1/2-z
-x,-y,-z
x,-y,1/2+z
1/2+x,1/2+y,z
1/2-x,1/2+y,1/2-z
1/2-x,1/2-y,-z
1/2+x,1/2-y,1/2+z
loop_
_atom_site_type_symbol
_atom_site_label
_atom_site_fract_x
_atom_site_fract_y
_atom_site_fract_z
Si Si1 0.630592 0.764910 0.912986
Si Si2 0.486936 0.147525 0.912840
Si Si3 0.850637 0.073515 0.319922
Si Si4 0.288506 0.930022 0.322772
Si Si5 0.088453 0.862750 0.389925
Si Si6 0.383215 0.871906 0.784806
Si Si7 0.802695 0.027301 0.005420
O O1 0.580548 0.703950 0.878420
O O2 0.633982 0.807867 0.775716
O O3 0.750000 0.750000 0.000000
O O4 0.568075 0.802224 0.013627
O O5 0.500000 0.166233 0.750000
O O6 0.405841 0.094923 0.884669
O O7 0.594170 0.130089 0.033390
O O8 0.915014 0.118619 0.438657
O O9 0.722834 0.092619 0.288477
O O10 0.868573 0.062622 0.149754
O O11 0.867408 0.016605 0.420717
O O12 0.202463 0.885562 0.362493
O O13 0.269810 0.987162 0.410089
O O14 0.262129 0.939289 0.140974
O O15 0.000000 0.888142 0.250000
O O16 0.500000 0.890497 0.750000
#
# Coordination Sequence:
#
# PCOD9263468 Si02
#       7
#     8   8   8   8   8   8   8
#     4  11  19  39  62  84 112 156 195 236 292 351
#     4  11  22  37  59  91 124 152 188 239 292 346
#     4  10  19  36  53  80 112 145 191 233 287 336
#     4  10  20  39  58  85 120 152 196 238 290 339
#     4  11  21  37  62  84 108 151 201 241 286 350
#     4  10  19  34  57  81 112 151 186 228 283 350
#     4   9  19  36  58  78 115 154 185 244 284 334
#
# _framework density 21.141217000000001
#
# number of rings (size 3 to 8) (size 9 to 14) (size 15 to 20)
#    0.000    1.714    2.857    4.714    0.000    0.000 
#    0.000   30.000    0.000    0.000    0.000    0.000 
#    0.000    0.000    0.000    0.000    0.000    0.000 
#
# Total GULP energy -156199.942376 kJ/mol
# GULP energy per Si atom -5578.569371 kJ/mol
# Density = 2.109310 g / cm^3
# Si number density = 21.141217 Si / 1000 Ang^3
#
#
#
# Elastic Constant Matrix: (Units=GPa)
#
#
# Indices 1 2 3 4 5 6 
#
# 1 27.4214 5.1984 27.6441 0.0000 2.2826 0.0000
# 2 5.1984 85.2614 43.3999 0.0000 -11.6420 0.0000
# 3 27.6441 43.3999 201.6865 0.0000 -1.9666 0.0000
# 4 0.0000 0.0000 0.0000 37.4608 0.0000 5.2986
# 5 2.2826 -11.6420 -1.9666 0.0000 31.5300 0.0000
# 6 0.0000 0.0000 0.0000 5.2986 0.0000 5.3335
#
#
#
# Elastic Compliance Matrix: (Units=1/GPa)
#
#
# Indices 1 2 3 4 5 6 
#
# 1 0.042689 -0.000094 -0.005865 0.000000 -0.003491 0.000000
# 2 -0.000094 0.013903 -0.002930 0.000000 0.004958 0.000000
# 3 -0.005865 -0.002930 0.006390 0.000000 -0.000259 0.000000
# 4 0.000000 0.000000 0.000000 0.031059 0.000000 -0.030856
# 5 -0.003491 0.004958 -0.000259 0.000000 0.033783 0.000000
# 6 0.000000 0.000000 0.000000 -0.030856 0.000000 0.218147
#
#
# Mechanical properties :
#
#
# Convention : Reuss Voigt Hill
#
# Bulk Modulus (GPa) = 22.12241 51.87268 36.99754
# Shear Modulus (GPa) = 13.19897 30.73999 21.96948
#
# Velocity S-wave (km/s) = 2.50136 3.81731 3.22713
# Velocity P-wave (km/s) = 4.33926 6.63466 5.60571
#
# Compressibility (1/GPa) = 0.04520303
#
# Stress axis : x y z
#
# Youngs Moduli (GPa) = 23.42534 71.92701 156.49122
#
# Poissons Ratio (x) = 0.00676 0.91781
# Poissons Ratio (y) = 0.00220 0.45859
# Poissons Ratio (z) = 0.13739 0.21078
#
# Static dielectric constant tensor:
#      x y z
#    x 1.813260 0.000000 0.006690 
#    y 0.000000 1.768140 0.000000 
#    z 0.006690 0.000000 1.823720 
# 
# From -- ./inp_files/42725.got.cif
#   From: 2010.05.17/outbox.cif.g08.bks.cpg/sg15_22_cif.got.tgz:42725.got - 2010.06.03 18:47:42.
