data_PCOD9263234
_publ_section_title
;
Structure prediction by ZEFSAII (Michael W. Deem and Ramdas Pophale) SiO2 
 PCOD9263234
Probable space group: C 2/C
;
_chemical_formula_sum "Si O2"
_cell_formula_units_Z 48
_cell_length_a 15.116475
_cell_length_b 10.451402
_cell_length_c 14.549134
_cell_angle_alpha 90.000000
_cell_angle_beta 106.080726
_cell_angle_gamma 90.000000
_cell_volume 2208.655289
_symmetry_space_group_name_H-M "C 2/C"
_symmetry_group_IT_number 15
_symmetry_cell_setting 'monoclinic'
loop_
_space_group_symop_operation_xyz
x,y,z
-x,y,1/2-z
-x,-y,-z
x,-y,1/2+z
1/2+x,1/2+y,z
1/2-x,1/2+y,1/2-z
1/2-x,1/2-y,-z
1/2+x,1/2-y,1/2+z
loop_
_atom_site_type_symbol
_atom_site_label
_atom_site_fract_x
_atom_site_fract_y
_atom_site_fract_z
Si Si1 0.138812 0.105395 0.711523
Si Si2 0.087399 0.183709 0.175104
Si Si3 0.743193 0.921467 0.542502
Si Si4 0.437235 0.377155 0.498150
Si Si5 0.311595 0.171759 0.654908
Si Si6 0.250994 0.200494 0.896321
O O1 0.083029 0.169937 0.611207
O O2 0.241860 0.090839 0.697901
O O3 0.156872 0.186731 0.808992
O O4 0.096297 0.963608 0.713163
O O5 0.102377 0.280505 0.262898
O O6 0.176037 0.213480 0.136858
O O7 0.997718 0.202731 0.086902
O O8 0.842798 0.922436 0.519422
O O9 0.673817 0.893074 0.439133
O O10 0.754913 0.801881 0.613253
O O11 0.720986 0.051768 0.586031
O O12 0.500000 0.500000 0.500000
O O13 0.250000 0.250000 0.000000
#
# Coordination Sequence:
#
# PCOD9263234 Si02
#       6
#     8   8   8   8   8   8
#     4   9  18  34  52  78 111 136 178 226 281 313
#     4  10  19  35  55  84 108 142 176 226 283 325
#     4  10  19  34  54  81 107 140 186 223 269 324
#     4   9  18  33  52  79 113 135 167 229 286 315
#     4   9  18  32  53  77 103 144 178 221 261 325
#     4  11  20  32  54  84 107 142 186 225 263 335
#
# _framework density 21.732680999999999
#
# number of rings (size 3 to 8) (size 9 to 14) (size 15 to 20)
#    0.000    2.333    1.667    3.000    0.000    0.667 
#    0.000    2.500    0.000    9.000   26.000    0.000 
#    0.000    0.000    0.000    0.000    0.000    0.000 
#
# Total GULP energy -133794.899435 kJ/mol
# GULP energy per Si atom -5574.787476 kJ/mol
# Density = 2.168322 g / cm^3
# Si number density = 21.732681 Si / 1000 Ang^3
#
#
#
# Elastic Constant Matrix: (Units=GPa)
#
#
# Indices 1 2 3 4 5 6 
#
# 1 54.6025 16.7152 34.8708 0.0000 10.3858 0.0000
# 2 16.7152 51.1860 20.4174 0.0000 -1.6502 0.0000
# 3 34.8708 20.4174 207.7587 0.0000 36.3530 0.0000
# 4 0.0000 0.0000 0.0000 38.6127 0.0000 -1.7294
# 5 10.3858 -1.6502 36.3530 0.0000 35.6262 0.0000
# 6 0.0000 0.0000 0.0000 -1.7294 0.0000 13.9523
#
#
#
# Elastic Compliance Matrix: (Units=1/GPa)
#
#
# Indices 1 2 3 4 5 6 
#
# 1 0.022712 -0.006615 -0.002374 0.000000 -0.004505 0.000000
# 2 -0.006615 0.022653 -0.001993 0.000000 0.005011 0.000000
# 3 -0.002374 -0.001993 0.006455 0.000000 -0.005987 0.000000
# 4 0.000000 0.000000 0.000000 0.026043 0.000000 0.003228
# 5 -0.004505 0.005011 -0.005987 0.000000 0.035724 0.000000
# 6 0.000000 0.000000 0.000000 0.003228 0.000000 0.072073
#
#
# Mechanical properties :
#
#
# Convention : Reuss Voigt Hill
#
# Bulk Modulus (GPa) = 33.49271 50.83935 42.16603
# Shear Modulus (GPa) = 22.98051 33.74118 28.36084
#
# Velocity S-wave (km/s) = 3.25532 3.94452 3.61638
# Velocity P-wave (km/s) = 5.43821 6.64752 6.07304
#
# Compressibility (1/GPa) = 0.02985725
#
# Stress axis : x y z
#
# Youngs Moduli (GPa) = 44.02942 44.14368 154.91575
#
# Poissons Ratio (x) = 0.29202 0.36771
# Poissons Ratio (y) = 0.29127 0.30871
# Poissons Ratio (z) = 0.10451 0.08797
#
# Static dielectric constant tensor:
#      x y z
#    x 1.808030 0.000000 0.020560 
#    y 0.000000 1.794890 0.000000 
#    z 0.020560 0.000000 1.918460 
# 
# From -- ./inp_files/160468.got.cif
#   From: 2010.05.17/outbox.cif.g08.bks.cpg/sg15_81_cif.got.tgz:160468.got - 2010.06.03 18:47:42.
