data_PCOD9263561
_publ_section_title
;
Structure prediction by ZEFSAII (Michael W. Deem and Ramdas Pophale) SiO2 
 PCOD9263561
Probable space group: C 2/C
;
_chemical_formula_sum "Si O2"
_cell_formula_units_Z 56
_cell_length_a 11.160617
_cell_length_b 15.992627
_cell_length_c 17.367416
_cell_angle_alpha 90.000000
_cell_angle_beta 110.702137
_cell_angle_gamma 90.000000
_cell_volume 2899.712274
_symmetry_space_group_name_H-M "C 2/C"
_symmetry_group_IT_number 15
_symmetry_cell_setting 'monoclinic'
loop_
_space_group_symop_operation_xyz
x,y,z
-x,y,1/2-z
-x,-y,-z
x,-y,1/2+z
1/2+x,1/2+y,z
1/2-x,1/2+y,1/2-z
1/2-x,1/2-y,-z
1/2+x,1/2-y,1/2+z
loop_
_atom_site_type_symbol
_atom_site_label
_atom_site_fract_x
_atom_site_fract_y
_atom_site_fract_z
Si Si1 0.795404 0.918478 0.401695
Si Si2 0.253919 0.339660 0.542933
Si Si3 0.047928 0.843298 0.408605
Si Si4 0.766197 0.401269 0.574131
Si Si5 0.350636 0.765852 0.198453
Si Si6 0.750075 0.774647 0.154824
Si Si7 0.468138 0.164850 0.010333
O O1 0.825310 0.900110 0.499315
O O2 0.688037 0.850844 0.354629
O O3 0.919642 0.896870 0.379616
O O4 0.749561 0.012751 0.385056
O O5 0.250000 0.250000 0.500000
O O6 0.314958 0.314842 0.638415
O O7 0.107332 0.367577 0.519715
O O8 0.148323 0.887100 0.488876
O O9 0.125823 0.824360 0.348324
O O10 0.014780 0.753244 0.440179
O O11 0.765540 0.319576 0.627246
O O12 0.892640 0.396232 0.550279
O O13 0.500000 0.764068 0.250000
O O14 0.272609 0.770324 0.260168
O O15 0.625799 0.813611 0.082537
#
# Coordination Sequence:
#
# PCOD9263561 Si02
#       7
#     8   8   8   8   8   8   8
#     4  11  21  36  57  88 113 152 196 246 294 341
#     4  10  19  34  58  80 108 146 200 239 271 361
#     4   9  17  34  60  83 109 147 195 232 285 348
#     4   9  20  34  59  87 117 145 189 251 297 338
#     4  11  23  37  58  79 112 157 195 239 301 357
#     4   9  19  36  59  83 114 150 191 236 291 366
#     4   9  16  36  58  84 102 150 197 230 278 348
#
# _framework density 19.312259999999998
#
# number of rings (size 3 to 8) (size 9 to 14) (size 15 to 20)
#    0.000    2.286    2.857    3.857    2.000    1.143 
#    0.000    4.286    0.000    0.000    0.000    0.000 
#    0.000    0.000    0.000    0.000    0.000    0.000 
#
# Total GULP energy -156198.282846 kJ/mol
# GULP energy per Si atom -5578.510102 kJ/mol
# Density = 1.926830 g / cm^3
# Si number density = 19.312260 Si / 1000 Ang^3
#
#
#
# Elastic Constant Matrix: (Units=GPa)
#
#
# Indices 1 2 3 4 5 6 
#
# 1 120.6332 36.1349 41.0874 0.0000 -3.6407 0.0000
# 2 36.1349 70.8336 22.0164 0.0000 0.5851 0.0000
# 3 41.0874 22.0164 84.9615 0.0000 -18.3487 0.0000
# 4 0.0000 0.0000 0.0000 14.7128 0.0000 -6.7612
# 5 -3.6407 0.5851 -18.3487 0.0000 25.8287 0.0000
# 6 0.0000 0.0000 0.0000 -6.7612 0.0000 21.7616
#
#
#
# Elastic Compliance Matrix: (Units=1/GPa)
#
#
# Indices 1 2 3 4 5 6 
#
# 1 0.011071 -0.004199 -0.004616 0.000000 -0.001624 0.000000
# 2 -0.004199 0.017261 -0.003135 0.000000 -0.003210 0.000000
# 3 -0.004616 -0.003135 0.017352 0.000000 0.011747 0.000000
# 4 0.000000 0.000000 0.000000 0.079289 0.000000 0.024635
# 5 -0.001624 -0.003210 0.011747 0.000000 0.046906 0.000000
# 6 0.000000 0.000000 0.000000 0.024635 0.000000 0.053606
#
#
# Mechanical properties :
#
#
# Convention : Reuss Voigt Hill
#
# Bulk Modulus (GPa) = 45.91052 52.76729 49.33890
# Shear Modulus (GPa) = 19.48199 24.27326 21.87763
#
# Velocity S-wave (km/s) = 3.17959 3.54910 3.36941
# Velocity P-wave (km/s) = 6.10770 6.64660 6.38284
#
# Compressibility (1/GPa) = 0.02178150
#
# Stress axis : x y z
#
# Youngs Moduli (GPa) = 90.32770 57.93436 57.63039
#
# Poissons Ratio (x) = 0.24329 0.26604
# Poissons Ratio (y) = 0.37932 0.18069
# Poissons Ratio (z) = 0.41698 0.18165
#
# Static dielectric constant tensor:
#      x y z
#    x 1.703940 0.000000 -0.005170 
#    y 0.000000 1.655880 0.000000 
#    z -0.005170 0.000000 1.708020 
# 
# From -- ./inp_files/197929.got.cif
#   From: 2010.05.17/outbox.cif.g08.bks.cpg/sg15_99_cif.got.tgz:197929.got - 2010.06.03 18:47:42.
