data_PCOD9263100
_publ_section_title
;
Structure prediction by ZEFSAII (Michael W. Deem and Ramdas Pophale) SiO2 
 PCOD9263100
Probable space group: C 2/C
;
_chemical_formula_sum "Si O2"
_cell_formula_units_Z 64
_cell_length_a 23.213799
_cell_length_b 18.085940
_cell_length_c 15.950477
_cell_angle_alpha 90.000000
_cell_angle_beta 28.861747
_cell_angle_gamma 90.000000
_cell_volume 3232.483240
_symmetry_space_group_name_H-M "C 2/C"
_symmetry_group_IT_number 15
_symmetry_cell_setting 'monoclinic'
loop_
_space_group_symop_operation_xyz
x,y,z
-x,y,1/2-z
-x,-y,-z
x,-y,1/2+z
1/2+x,1/2+y,z
1/2-x,1/2+y,1/2-z
1/2-x,1/2-y,-z
1/2+x,1/2-y,1/2+z
loop_
_atom_site_type_symbol
_atom_site_label
_atom_site_fract_x
_atom_site_fract_y
_atom_site_fract_z
Si Si1 0.512674 0.572519 0.635629
Si Si2 0.571716 0.417561 0.823546
Si Si3 0.528509 0.825277 0.988073
Si Si4 0.094944 0.310059 0.185376
Si Si5 0.290906 0.104419 0.714210
Si Si6 0.888972 0.172195 0.674424
Si Si7 0.832502 0.150559 0.459533
Si Si8 0.256088 0.069082 0.232685
O O1 0.500000 0.558460 0.750000
O O2 0.473300 0.500814 0.632179
O O3 0.425110 0.638057 0.717507
O O4 0.649272 0.586902 0.434548
O O5 0.579622 0.386104 0.719260
O O6 0.694696 0.417442 0.720244
O O7 0.482800 0.369197 0.992843
O O8 0.466788 0.788424 0.148610
O O9 0.420741 0.866016 0.076674
O O10 0.587917 0.759080 0.860757
O O11 0.629687 0.880948 0.892443
O O12 0.136117 0.237777 0.081055
O O13 0.000000 0.351998 0.250000
O O14 0.207655 0.355949 0.069104
O O15 0.238031 0.148305 0.701888
O O16 0.289055 0.017214 0.699202
O O17 0.199411 0.120094 0.908701
#
# Coordination Sequence:
#
# PCOD9263100 Si02
#       8
#     8   8   8   8   8   8   8   8
#     4  11  23  41  65  87 113 155 214 273 316 351
#     4  11  20  37  60  90 120 157 201 258 303 361
#     4  11  24  36  64  85 130 170 198 250 306 381
#     4  10  19  34  48  87 122 159 187 231 295 362
#     4  11  22  39  58  92 127 165 204 243 306 373
#     4  11  22  39  59  91 118 156 208 258 310 363
#     4  10  21  30  56  86 122 150 197 236 290 365
#     4  11  22  41  61  90 122 163 208 249 307 375
#
# _framework density 19.799019999999999
#
# number of rings (size 3 to 8) (size 9 to 14) (size 15 to 20)
#    0.000    1.250    3.750    3.375    3.500    0.000 
#    0.000    0.625    0.000    0.000    0.000    0.000 
#    0.000    0.000    0.000    0.000    0.000    0.000 
#
# Total GULP energy -178679.237948 kJ/mol
# GULP energy per Si atom -5583.726186 kJ/mol
# Density = 1.975396 g / cm^3
# Si number density = 19.799020 Si / 1000 Ang^3
#
#
#
# Elastic Constant Matrix: (Units=GPa)
#
#
# Indices 1 2 3 4 5 6 
#
# 1 119.3374 33.7489 27.9238 0.0000 -25.1682 0.0000
# 2 33.7489 71.2709 5.4101 0.0000 -7.9066 0.0000
# 3 27.9238 5.4101 50.3146 0.0000 -15.5885 0.0000
# 4 0.0000 0.0000 0.0000 19.2327 0.0000 -1.6976
# 5 -25.1682 -7.9066 -15.5885 0.0000 42.6426 0.0000
# 6 0.0000 0.0000 0.0000 -1.6976 0.0000 -15.1792
#
#
#
# Elastic Compliance Matrix: (Units=1/GPa)
#
#
# Indices 1 2 3 4 5 6 
#
# 1 0.011716 -0.004713 -0.004651 0.000000 0.004341 0.000000
# 2 -0.004713 0.016251 0.001060 0.000000 0.000619 0.000000
# 3 -0.004651 0.001060 0.024305 0.000000 0.006337 0.000000
# 4 0.000000 0.000000 0.000000 0.051486 0.000000 -0.005758
# 5 0.004341 0.000619 0.006337 0.000000 0.028444 0.000000
# 6 0.000000 0.000000 0.000000 -0.005758 0.000000 -0.065236
#
#
# Mechanical properties :
#
#
# Convention : Reuss Voigt Hill
#
# Bulk Modulus (GPa) = 28.03867 41.67651 34.85759
# Shear Modulus (GPa) = 52.37605 20.92858 36.65231
#
# Velocity S-wave (km/s) = 5.14891 3.25476 4.30725
# Velocity P-wave (km/s) = 7.03852 5.93465 6.51003
#
# Compressibility (1/GPa) = 0.03566503
#
# Stress axis : x y z
#
# Youngs Moduli (GPa) = 85.35117 61.53435 41.14340
#
# Poissons Ratio (x) = 0.29004 0.19134
# Poissons Ratio (y) = 0.40230 -0.04362
# Poissons Ratio (z) = 0.39693 -0.06524
#
# Static dielectric constant tensor:
#      x y z
#    x 1.729230 0.000000 -0.018180 
#    y 0.000000 1.688410 0.000000 
#    z -0.018180 0.000000 1.737590 
# 
# From -- ./inp_files/219900.got.cif
#   From: 2010.05.17/outbox.cif.g08.bks.cpg/sg15_110_cif.got.tgz:219900.got - 2010.06.03 18:47:42.
