data_PCOD9263203
_publ_section_title
;
Structure prediction by ZEFSAII (Michael W. Deem and Ramdas Pophale) SiO2 
 PCOD9263203
Probable space group: C 2/C
;
_chemical_formula_sum "Si O2"
_cell_formula_units_Z 56
_cell_length_a 17.519684
_cell_length_b 18.723902
_cell_length_c 10.366707
_cell_angle_alpha 90.000000
_cell_angle_beta 57.859253
_cell_angle_gamma 90.000000
_cell_volume 2879.489331
_symmetry_space_group_name_H-M "C 2/C"
_symmetry_group_IT_number 15
_symmetry_cell_setting 'monoclinic'
loop_
_space_group_symop_operation_xyz
x,y,z
-x,y,1/2-z
-x,-y,-z
x,-y,1/2+z
1/2+x,1/2+y,z
1/2-x,1/2+y,1/2-z
1/2-x,1/2-y,-z
1/2+x,1/2-y,1/2+z
loop_
_atom_site_type_symbol
_atom_site_label
_atom_site_fract_x
_atom_site_fract_y
_atom_site_fract_z
Si Si1 0.749445 0.225024 0.297236
Si Si2 0.516808 0.904242 0.055943
Si Si3 0.146829 0.463494 0.162732
Si Si4 0.500000 0.362314 0.750000
Si Si5 0.546216 0.251805 0.930519
Si Si6 0.308390 0.358675 0.002481
Si Si7 0.861608 0.621898 0.289650
Si Si8 0.000000 0.725370 0.250000
O O1 0.845437 0.253019 0.159924
O O2 0.689691 0.293273 0.395755
O O3 0.770254 0.179489 0.407457
O O4 0.704756 0.170917 0.235495
O O5 0.591034 0.933819 0.089203
O O6 0.424843 0.947223 0.158946
O O7 0.492943 0.820832 0.096257
O O8 0.558607 0.903293 0.877674
O O9 0.171780 0.546764 0.125416
O O10 0.235141 0.417025 0.106780
O O11 0.525976 0.313970 0.848715
O O12 0.404488 0.394535 0.881743
O O13 0.501747 0.264587 0.111062
O O14 0.912068 0.674989 0.340061
#
# Coordination Sequence:
#
# PCOD9263203 Si02
#       8
#     8   8   8   4   8   8   8   4
#     4  10  20  36  57  84 119 155 203 254 293 357
#     4  10  19  34  53  84 117 154 191 236 300 363
#     4  11  20  32  56  84 118 153 195 243 301 362
#     4  10  20  34  63  85 116 144 208 270 292 330
#     4  10  20  36  60  86 118 158 195 257 298 354
#     4  10  19  35  58  89 111 152 205 258 304 336
#     4  11  22  36  52  81 127 160 190 241 303 374
#     4  10  22  36  55  85 124 166 190 230 324 370
#
# _framework density 19.447893000000001
#
# number of rings (size 3 to 8) (size 9 to 14) (size 15 to 20)
#    0.000    1.714    2.857    3.857    2.000    1.714 
#    0.000    0.000    0.000    4.286    0.000    0.000 
#    0.000    0.000    0.000    0.000    0.000    0.000 
#
# Total GULP energy -156086.954714 kJ/mol
# GULP energy per Si atom -5574.534097 kJ/mol
# Density = 1.940363 g / cm^3
# Si number density = 19.447893 Si / 1000 Ang^3
#
#
#
# Elastic Constant Matrix: (Units=GPa)
#
#
# Indices 1 2 3 4 5 6 
#
# 1 86.6205 31.4892 29.1808 0.0000 -10.7483 0.0000
# 2 31.4892 52.9459 24.4765 0.0000 -3.6545 0.0000
# 3 29.1808 24.4765 62.2830 0.0000 -6.1796 0.0000
# 4 0.0000 0.0000 0.0000 2.4374 0.0000 -2.5955
# 5 -10.7483 -3.6545 -6.1796 0.0000 37.1182 0.0000
# 6 0.0000 0.0000 0.0000 -2.5955 0.0000 15.5653
#
#
#
# Elastic Compliance Matrix: (Units=1/GPa)
#
#
# Indices 1 2 3 4 5 6 
#
# 1 0.016067 -0.007334 -0.004327 0.000000 0.003210 0.000000
# 2 -0.007334 0.026450 -0.007027 0.000000 -0.000689 0.000000
# 3 -0.004327 -0.007027 0.020998 0.000000 0.001551 0.000000
# 4 0.000000 0.000000 0.000000 0.498847 0.000000 0.083182
# 5 0.003210 -0.000689 0.001551 0.000000 0.028061 0.000000
# 6 0.000000 0.000000 0.000000 0.083182 0.000000 0.078116
#
#
# Mechanical properties :
#
#
# Convention : Reuss Voigt Hill
#
# Bulk Modulus (GPa) = 38.25592 41.34914 39.80253
# Shear Modulus (GPa) = 6.99666 18.80438 12.90052
#
# Velocity S-wave (km/s) = 1.89880 3.11289 2.57833
# Velocity P-wave (km/s) = 4.95186 5.85045 5.41981
#
# Compressibility (1/GPa) = 0.02613974
#
# Stress axis : x y z
#
# Youngs Moduli (GPa) = 62.24093 37.80764 47.62268
#
# Poissons Ratio (x) = 0.27727 0.20606
# Poissons Ratio (y) = 0.45645 0.33464
# Poissons Ratio (z) = 0.26932 0.26567
#
# Static dielectric constant tensor:
#      x y z
#    x 1.710360 0.000000 -0.008010 
#    y 0.000000 1.688290 0.000000 
#    z -0.008010 0.000000 1.730020 
# 
# From -- ./inp_files/106360.got.cif
#   From: 2010.05.17/outbox.cif.g08.bks.cpg/sg15_54_cif.got.tgz:106360.got - 2010.06.03 18:47:42.
