data_PCOD9263602
_publ_section_title
;
Structure prediction by ZEFSAII (Michael W. Deem and Ramdas Pophale) SiO2 
 PCOD9263602
Probable space group: C 2/C
;
_chemical_formula_sum "Si O2"
_cell_formula_units_Z 48
_cell_length_a 10.085481
_cell_length_b 14.826239
_cell_length_c 14.722679
_cell_angle_alpha 90.000000
_cell_angle_beta 106.164151
_cell_angle_gamma 90.000000
_cell_volume 2114.449813
_symmetry_space_group_name_H-M "C 2/C"
_symmetry_group_IT_number 15
_symmetry_cell_setting 'monoclinic'
loop_
_space_group_symop_operation_xyz
x,y,z
-x,y,1/2-z
-x,-y,-z
x,-y,1/2+z
1/2+x,1/2+y,z
1/2-x,1/2+y,1/2-z
1/2-x,1/2-y,-z
1/2+x,1/2-y,1/2+z
loop_
_atom_site_type_symbol
_atom_site_label
_atom_site_fract_x
_atom_site_fract_y
_atom_site_fract_z
Si Si1 0.847726 0.693427 0.089073
Si Si2 0.312980 0.640555 0.267526
Si Si3 0.337061 0.433601 0.239529
Si Si4 0.053075 0.871429 0.947733
Si Si5 0.651714 0.732946 0.623812
Si Si6 0.801917 0.942124 0.030860
O O1 0.782137 0.689276 0.175472
O O2 0.001895 0.728629 0.123847
O O3 0.750000 0.750000 0.000000
O O4 0.831448 0.591159 0.048742
O O5 0.285241 0.533334 0.255989
O O6 0.464790 0.647207 0.340766
O O7 0.267874 0.694047 0.169334
O O8 0.500000 0.443401 0.250000
O O9 0.317724 0.359084 0.313591
O O10 0.283250 0.406872 0.129890
O O11 0.158541 0.953615 0.955270
O O12 0.126947 0.791864 0.014663
O O13 0.933224 0.903219 0.998442
#
# Coordination Sequence:
#
# PCOD9263602 Si02
#       6
#     8   8   8   8   8   8
#     4  11  19  33  58  89 118 145 191 254 291 335
#     4  11  23  34  56  94 120 148 198 247 290 350
#     4  12  20  36  62  86 118 156 197 234 295 357
#     4  10  19  35  57  85 115 150 195 245 286 342
#     4  12  22  36  62  91 116 153 196 249 293 341
#     4  10  19  34  58  85 114 152 194 238 293 354
#
# _framework density 22.700941
#
# number of rings (size 3 to 8) (size 9 to 14) (size 15 to 20)
#    0.000    1.000    6.667    4.500    0.000    0.000 
#    0.000    1.667    0.000    2.000    0.000    0.000 
#    0.000    0.000    0.000    0.000    0.000    0.000 
#
# Total GULP energy -134109.095259 kJ/mol
# GULP energy per Si atom -5587.878969 kJ/mol
# Density = 2.264927 g / cm^3
# Si number density = 22.700941 Si / 1000 Ang^3
#
#
#
# Elastic Constant Matrix: (Units=GPa)
#
#
# Indices 1 2 3 4 5 6 
#
# 1 61.2106 51.5651 21.1582 0.0000 7.5953 0.0000
# 2 51.5651 132.9154 51.4958 0.0000 26.4850 0.0000
# 3 21.1582 51.4958 143.4450 0.0000 19.4485 0.0000
# 4 0.0000 0.0000 0.0000 51.7689 0.0000 2.2621
# 5 7.5953 26.4850 19.4485 0.0000 30.6676 0.0000
# 6 0.0000 0.0000 0.0000 2.2621 0.0000 34.3229
#
#
#
# Elastic Compliance Matrix: (Units=1/GPa)
#
#
# Indices 1 2 3 4 5 6 
#
# 1 0.024459 -0.009865 -0.000438 0.000000 0.002740 0.000000
# 2 -0.009865 0.013894 -0.002448 0.000000 -0.008004 0.000000
# 3 -0.000438 -0.002448 0.008329 0.000000 -0.003060 0.000000
# 4 0.000000 0.000000 0.000000 0.019372 0.000000 -0.001277
# 5 0.002740 -0.008004 -0.003060 0.000000 0.040782 0.000000
# 6 0.000000 0.000000 0.000000 -0.001277 0.000000 0.029219
#
#
# Mechanical properties :
#
#
# Convention : Reuss Voigt Hill
#
# Bulk Modulus (GPa) = 47.21113 65.11213 56.16163
# Shear Modulus (GPa) = 29.65291 37.57536 33.61414
#
# Velocity S-wave (km/s) = 3.61812 4.07287 3.85221
# Velocity P-wave (km/s) = 6.18842 7.13180 6.67679
#
# Compressibility (1/GPa) = 0.02118145
#
# Stress axis : x y z
#
# Youngs Moduli (GPa) = 40.88448 71.97364 120.05655
#
# Poissons Ratio (x) = 0.71005 0.05253
# Poissons Ratio (y) = 0.40334 0.29385
# Poissons Ratio (z) = 0.01789 0.17616
#
# Static dielectric constant tensor:
#      x y z
#    x 1.825980 0.000000 -0.042580 
#    y 0.000000 1.911390 0.000000 
#    z -0.042580 0.000000 1.962940 
# 
# From -- ./inp_files/143832.got.cif
#   From: 2010.05.17/outbox.cif.g08.bks.cpg/sg15_72_cif.got.tgz:143832.got - 2010.06.03 18:47:42.
