data_PCOD9263658
_publ_section_title
;
Structure prediction by ZEFSAII (Michael W. Deem and Ramdas Pophale) SiO2 
 PCOD9263658
Probable space group: C 2/C
;
_chemical_formula_sum "Si O2"
_cell_formula_units_Z 40
_cell_length_a 34.148632
_cell_length_b 10.698064
_cell_length_c 9.984250
_cell_angle_alpha 90.000000
_cell_angle_beta 154.389860
_cell_angle_gamma 90.000000
_cell_volume 1576.609990
_symmetry_space_group_name_H-M "C 2/C"
_symmetry_group_IT_number 15
_symmetry_cell_setting 'monoclinic'
loop_
_space_group_symop_operation_xyz
x,y,z
-x,y,1/2-z
-x,-y,-z
x,-y,1/2+z
1/2+x,1/2+y,z
1/2-x,1/2+y,1/2-z
1/2-x,1/2-y,-z
1/2+x,1/2-y,1/2+z
loop_
_atom_site_type_symbol
_atom_site_label
_atom_site_fract_x
_atom_site_fract_y
_atom_site_fract_z
Si Si1 0.091768 0.329967 0.276378
Si Si2 0.668314 0.651208 0.727601
Si Si3 0.744548 0.959277 0.238387
Si Si4 0.844831 0.820590 0.767775
Si Si5 0.596181 0.749247 0.773272
O O1 0.109299 0.214618 0.429449
O O2 0.173237 0.429546 0.547489
O O3 0.100209 0.279148 0.152790
O O4 0.986019 0.349471 0.980942
O O5 0.713073 0.536061 0.780154
O O6 0.608909 0.665719 0.679872
O O7 0.750000 0.750000 0.000000
O O8 0.818290 0.933089 0.582310
O O9 0.684701 0.835079 0.051745
O O10 0.750000 0.750000 0.500000
O O11 0.899921 0.830430 0.077295
#
# Coordination Sequence:
#
# PCOD9263658 Si02
#       5
#     8   8   8   8   8
#     4  11  20  35  61  93 120 158 221 278 321 382
#     4   9  20  37  55  84 128 173 206 259 339 404
#     4   9  20  37  57  86 125 172 212 255 328 409
#     4   9  20  37  55  84 128 173 206 259 339 404
#     4  10  19  34  58  91 127 160 208 275 327 373
#
# _framework density 25.370892000000001
#
# number of rings (size 3 to 8) (size 9 to 14) (size 15 to 20)
#    0.000    2.400    0.000    3.000    0.000    6.400 
#    0.000   10.000    0.000    0.000    0.000  235.200 
#    0.000    0.000    0.000    0.000    0.000    0.000 
#
# Total GULP energy -111429.457251 kJ/mol
# GULP energy per Si atom -5571.472863 kJ/mol
# Density = 2.531315 g / cm^3
# Si number density = 25.370892 Si / 1000 Ang^3
#
#
#
# Elastic Constant Matrix: (Units=GPa)
#
#
# Indices 1 2 3 4 5 6 
#
# 1 173.2311 35.7600 22.1160 0.0000 -39.6223 0.0000
# 2 35.7600 80.2331 13.6488 0.0000 4.9185 0.0000
# 3 22.1160 13.6488 31.4184 0.0000 -14.1022 0.0000
# 4 0.0000 0.0000 0.0000 38.8586 0.0000 7.4927
# 5 -39.6223 4.9185 -14.1022 0.0000 36.5280 0.0000
# 6 0.0000 0.0000 0.0000 7.4927 0.0000 32.2134
#
#
#
# Elastic Compliance Matrix: (Units=1/GPa)
#
#
# Indices 1 2 3 4 5 6 
#
# 1 0.009177 -0.004834 0.000484 0.000000 0.010793 0.000000
# 2 -0.004834 0.016779 -0.008774 0.000000 -0.010891 0.000000
# 3 0.000484 -0.008774 0.043625 0.000000 0.018549 0.000000
# 4 0.000000 0.000000 0.000000 0.026943 0.000000 -0.006267
# 5 0.010793 -0.010891 0.018549 0.000000 0.047711 0.000000
# 6 0.000000 0.000000 0.000000 -0.006267 0.000000 0.032501
#
#
# Mechanical properties :
#
#
# Convention : Reuss Voigt Hill
#
# Bulk Modulus (GPa) = 23.07742 47.54804 35.31273
# Shear Modulus (GPa) = 22.99619 35.74386 29.37003
#
# Velocity S-wave (km/s) = 3.01391 3.75754 3.40608
# Velocity P-wave (km/s) = 4.60731 6.13248 5.42378
#
# Compressibility (1/GPa) = 0.04333241
#
# Stress axis : x y z
#
# Youngs Moduli (GPa) = 108.96454 59.59975 22.92268
#
# Poissons Ratio (x) = 0.28813 -0.01110
# Poissons Ratio (y) = 0.52677 0.20113
# Poissons Ratio (z) = -0.05278 0.52294
#
# Static dielectric constant tensor:
#      x y z
#    x 2.097090 0.000000 -0.007040 
#    y 0.000000 2.128620 0.000000 
#    z -0.007040 0.000000 2.081250 
# 
# From -- ./inp_files/70221.got.cif
#   From: 2010.05.17/outbox.cif.g08.bks.cpg/sg15_36_cif.got.tgz:70221.got - 2010.06.03 18:47:42.
