data_PCOD9263779
_publ_section_title
;
Structure prediction by ZEFSAII (Michael W. Deem and Ramdas Pophale) SiO2 
 PCOD9263779
Probable space group: C 2/C
;
_chemical_formula_sum "Si O2"
_cell_formula_units_Z 60
_cell_length_a 21.742056
_cell_length_b 19.916156
_cell_length_c 9.452408
_cell_angle_alpha 90.000000
_cell_angle_beta 135.021630
_cell_angle_gamma 90.000000
_cell_volume 2893.140842
_symmetry_space_group_name_H-M "C 2/C"
_symmetry_group_IT_number 15
_symmetry_cell_setting 'monoclinic'
loop_
_space_group_symop_operation_xyz
x,y,z
-x,y,1/2-z
-x,-y,-z
x,-y,1/2+z
1/2+x,1/2+y,z
1/2-x,1/2+y,1/2-z
1/2-x,1/2-y,-z
1/2+x,1/2-y,1/2+z
loop_
_atom_site_type_symbol
_atom_site_label
_atom_site_fract_x
_atom_site_fract_y
_atom_site_fract_z
Si Si1 0.402149 0.578161 0.285924
Si Si2 0.171741 0.739826 0.083336
Si Si3 0.797601 0.370071 0.653080
Si Si4 0.446522 0.960089 0.034747
Si Si5 0.192307 0.435846 0.123092
Si Si6 0.000000 0.177288 0.250000
Si Si7 0.848245 0.029221 0.474495
Si Si8 0.723717 0.848114 0.422083
O O1 0.470126 0.628871 0.328436
O O2 0.414775 0.556563 0.466886
O O3 0.391167 0.513744 0.167912
O O4 0.309149 0.616805 0.126285
O O5 0.168637 0.682272 0.958360
O O6 0.080871 0.778751 0.934979
O O7 0.198621 0.703822 0.272511
O O8 0.242448 0.790904 0.131332
O O9 0.800915 0.381916 0.490505
O O10 0.712531 0.411092 0.566352
O O11 0.881465 0.408913 0.852166
O O12 0.500000 0.927119 0.250000
O O13 0.385894 0.012791 0.022330
O O14 0.500000 0.000000 0.000000
O O15 0.281765 0.477935 0.285143
O O16 0.176425 0.401969 0.248805
#
# Coordination Sequence:
#
# PCOD9263779 Si02
#       8
#     8   8   8   8   8   4   8   8
#     4  10  19  37  60  86 118 143 190 240 294 339
#     4  10  21  38  58  82 108 153 198 226 277 332
#     4  11  21  33  58  86 109 147 193 232 282 340
#     4  11  23  35  49  80 121 151 172 222 290 350
#     4  10  21  35  55  87 113 139 191 236 287 335
#     4  10  24  38  56  84 116 156 196 232 274 350
#     4  10  19  34  60  87 112 145 183 245 292 340
#     4   9  20  37  60  80 109 150 190 238 271 333
#
# _framework density 20.738707000000002
#
# number of rings (size 3 to 8) (size 9 to 14) (size 15 to 20)
#    0.000    1.867    4.000    0.000    2.800    1.067 
#    0.000    0.000    0.000    1.600    0.000    0.000 
#    0.000    0.000    0.000    0.000    0.000    0.000 
#
# Total GULP energy -167606.638039 kJ/mol
# GULP energy per Si atom -5586.887935 kJ/mol
# Density = 2.069150 g / cm^3
# Si number density = 20.738707 Si / 1000 Ang^3
#
#
#
# Elastic Constant Matrix: (Units=GPa)
#
#
# Indices 1 2 3 4 5 6 
#
# 1 78.0754 17.5725 29.6129 0.0000 -6.5350 0.0000
# 2 17.5725 47.6024 1.2493 0.0000 3.5644 0.0000
# 3 29.6129 1.2493 27.3442 0.0000 -6.2582 0.0000
# 4 0.0000 0.0000 0.0000 15.0011 0.0000 -7.1610
# 5 -6.5350 3.5644 -6.2582 0.0000 25.3468 0.0000
# 6 0.0000 0.0000 0.0000 -7.1610 0.0000 29.9607
#
#
#
# Elastic Compliance Matrix: (Units=1/GPa)
#
#
# Indices 1 2 3 4 5 6 
#
# 1 0.024738 -0.008530 -0.026144 0.000000 0.001123 0.000000
# 2 -0.008530 0.024252 0.007256 0.000000 -0.003818 0.000000
# 3 -0.026144 0.007256 0.066536 0.000000 0.008667 0.000000
# 4 0.000000 0.000000 0.000000 0.075248 0.000000 0.017985
# 5 0.001123 -0.003818 0.008667 0.000000 0.042419 0.000000
# 6 0.000000 0.000000 0.000000 0.017985 0.000000 0.037676
#
#
# Mechanical properties :
#
#
# Convention : Reuss Voigt Hill
#
# Bulk Modulus (GPa) = 16.47730 27.76569 22.12149
# Shear Modulus (GPa) = 14.45368 21.03420 17.74394
#
# Velocity S-wave (km/s) = 2.64283 3.18818 2.92823
# Velocity P-wave (km/s) = 4.15634 5.19327 4.70347
#
# Compressibility (1/GPa) = 0.06068956
#
# Stress axis : x y z
#
# Youngs Moduli (GPa) = 40.42391 41.23427 15.02957
#
# Poissons Ratio (x) = 0.35173 0.39293
# Poissons Ratio (y) = 0.34481 -0.10905
# Poissons Ratio (z) = 1.05683 -0.29919
#
# Static dielectric constant tensor:
#      x y z
#    x 1.748800 0.000000 -0.006620 
#    y 0.000000 1.753850 0.000000 
#    z -0.006620 0.000000 1.733320 
# 
# From -- ./inp_files/50312.got.cif
#   From: 2010.05.17/outbox.cif.g08.bks.cpg/sg15_26_cif.got.tgz:50312.got - 2010.06.03 18:47:42.
