data_PCOD9263621
_publ_section_title
;
Structure prediction by ZEFSAII (Michael W. Deem and Ramdas Pophale) SiO2 
 PCOD9263621
Probable space group: C 2/C
;
_chemical_formula_sum "Si O2"
_cell_formula_units_Z 56
_cell_length_a 17.526727
_cell_length_b 15.177499
_cell_length_c 18.120591
_cell_angle_alpha 90.000000
_cell_angle_beta 143.239209
_cell_angle_gamma 90.000000
_cell_volume 2884.826953
_symmetry_space_group_name_H-M "C 2/C"
_symmetry_group_IT_number 15
_symmetry_cell_setting 'monoclinic'
loop_
_space_group_symop_operation_xyz
x,y,z
-x,y,1/2-z
-x,-y,-z
x,-y,1/2+z
1/2+x,1/2+y,z
1/2-x,1/2+y,1/2-z
1/2-x,1/2-y,-z
1/2+x,1/2-y,1/2+z
loop_
_atom_site_type_symbol
_atom_site_label
_atom_site_fract_x
_atom_site_fract_y
_atom_site_fract_z
Si Si1 0.550116 0.274975 0.028547
Si Si2 0.803487 0.041963 0.017014
Si Si3 0.565904 0.090172 0.576735
Si Si4 0.033080 0.937382 0.454409
Si Si5 0.559604 0.344553 0.709296
Si Si6 0.329999 0.165341 0.692947
Si Si7 0.697787 0.517101 0.823365
O O1 0.482739 0.337149 0.035797
O O2 0.696734 0.304152 0.129354
O O3 0.518501 0.172970 0.015333
O O4 0.480151 0.305235 0.899986
O O5 0.930291 0.102436 0.132070
O O6 0.836762 0.975545 0.976355
O O7 0.775450 0.987833 0.068961
O O8 0.700288 0.107183 0.902440
O O9 0.593145 0.110483 0.684735
O O10 0.701511 0.076070 0.641943
O O11 0.500000 0.000000 0.500000
O O12 0.937114 0.949337 0.311397
O O13 0.000000 0.000000 0.500000
O O14 0.607470 0.256318 0.785296
O O15 0.677136 0.412547 0.790283
#
# Coordination Sequence:
#
# PCOD9263621 Si02
#       7
#     8   8   8   8   8   8   8
#     4  10  19  34  58  87 112 150 201 241 283 347
#     4  10  21  34  56  86 117 158 193 238 300 352
#     4  11  23  38  59  88 116 147 195 248 295 345
#     4  11  16  34  60  84 111 149 206 239 277 339
#     4   9  18  31  56  84 114 149 198 237 285 348
#     4  10  19  37  57  85 118 153 194 243 295 350
#     4  11  20  36  55  84 122 151 189 244 295 341
#
# _framework density 19.411908
#
# number of rings (size 3 to 8) (size 9 to 14) (size 15 to 20)
#    0.000    1.714    5.714    2.571    0.000    0.571 
#    0.000    4.286    0.000    1.714    0.000    0.000 
#    0.000    0.000    0.000    0.000    0.000    0.000 
#
# Total GULP energy -155879.671889 kJ/mol
# GULP energy per Si atom -5567.131139 kJ/mol
# Density = 1.936773 g / cm^3
# Si number density = 19.411908 Si / 1000 Ang^3
#
#
#
# Elastic Constant Matrix: (Units=GPa)
#
#
# Indices 1 2 3 4 5 6 
#
# 1 30.8999 10.0599 -2.7328 0.0000 -5.2048 0.0000
# 2 10.0599 89.9479 25.3813 0.0000 -9.5262 0.0000
# 3 -2.7328 25.3813 53.1474 0.0000 -9.9403 0.0000
# 4 0.0000 0.0000 0.0000 37.7296 0.0000 1.1719
# 5 -5.2048 -9.5262 -9.9403 0.0000 19.1189 0.0000
# 6 0.0000 0.0000 0.0000 1.1719 0.0000 23.0785
#
#
#
# Elastic Compliance Matrix: (Units=1/GPa)
#
#
# Indices 1 2 3 4 5 6 
#
# 1 0.036211 -0.004630 0.006076 0.000000 0.010710 0.000000
# 2 -0.004630 0.013663 -0.006342 0.000000 0.002250 0.000000
# 3 0.006076 -0.006342 0.024232 0.000000 0.011093 0.000000
# 4 0.000000 0.000000 0.000000 0.026546 0.000000 -0.001348
# 5 0.010710 0.002250 0.011093 0.000000 0.062108 0.000000
# 6 0.000000 0.000000 0.000000 -0.001348 0.000000 0.043399
#
#
# Mechanical properties :
#
#
# Convention : Reuss Voigt Hill
#
# Bulk Modulus (GPa) = 15.54875 26.60131 21.07503
# Shear Modulus (GPa) = 21.06237 25.40452 23.23345
#
# Velocity S-wave (km/s) = 3.29754 3.62153 3.46333
# Velocity P-wave (km/s) = 4.74612 5.58755 5.18393
#
# Compressibility (1/GPa) = 0.06431386
#
# Stress axis : x y z
#
# Youngs Moduli (GPa) = 27.61557 73.18835 41.26835
#
# Poissons Ratio (x) = 0.33888 -0.25076
# Poissons Ratio (y) = 0.12787 0.26174
# Poissons Ratio (z) = -0.16780 0.46419
#
# Static dielectric constant tensor:
#      x y z
#    x 1.770530 0.000000 0.037030 
#    y 0.000000 1.691420 0.000000 
#    z 0.037030 0.000000 1.780040 
# 
# From -- ./inp_files/211241.got.cif
#   From: 2010.05.17/outbox.cif.g08.bks.cpg/sg15_106_cif.got.tgz:211241.got - 2010.06.03 18:47:42.
