data_PCOD9263138
_publ_section_title
;
Structure prediction by ZEFSAII (Michael W. Deem and Ramdas Pophale) SiO2 
 PCOD9263138
Probable space group: C 2/C
;
_chemical_formula_sum "Si O2"
_cell_formula_units_Z 64
_cell_length_a 19.621640
_cell_length_b 23.831091
_cell_length_c 12.598244
_cell_angle_alpha 90.000000
_cell_angle_beta 42.128605
_cell_angle_gamma 90.000000
_cell_volume 3951.666950
_symmetry_space_group_name_H-M "C 2/C"
_symmetry_group_IT_number 15
_symmetry_cell_setting 'monoclinic'
loop_
_space_group_symop_operation_xyz
x,y,z
-x,y,1/2-z
-x,-y,-z
x,-y,1/2+z
1/2+x,1/2+y,z
1/2-x,1/2+y,1/2-z
1/2-x,1/2-y,-z
1/2+x,1/2-y,1/2+z
loop_
_atom_site_type_symbol
_atom_site_label
_atom_site_fract_x
_atom_site_fract_y
_atom_site_fract_z
Si Si1 0.886782 0.724182 0.547689
Si Si2 0.613751 0.770018 0.855211
Si Si3 0.874781 0.943327 0.111193
Si Si4 0.693634 0.340431 0.930859
Si Si5 0.218195 0.775498 0.425628
Si Si6 0.879789 0.890602 0.890322
Si Si7 0.716046 0.656757 0.649400
Si Si8 0.116922 0.929423 0.848965
O O1 0.877151 0.785669 0.506043
O O2 0.814369 0.724861 0.735311
O O3 0.830925 0.679303 0.536067
O O4 0.001431 0.714277 0.449733
O O5 0.694886 0.816677 0.726852
O O6 0.631722 0.757966 0.959591
O O7 0.647865 0.710861 0.761816
O O8 0.810773 0.895669 0.245206
O O9 0.850676 0.006038 0.175640
O O10 0.863103 0.938577 0.997491
O O11 0.993735 0.930143 0.996808
O O12 0.659749 0.389292 0.890869
O O13 0.693895 0.357108 0.053274
O O14 0.250000 0.750000 0.500000
O O15 0.178504 0.837189 0.497148
O O16 0.851780 0.906683 0.803055
O O17 0.000000 0.877692 0.750000
#
# Coordination Sequence:
#
# PCOD9263138 Si02
#       8
#     8   8   8   8   8   8   8   8
#     4  10  20  34  52  76 108 140 173 218 261 313
#     4  10  20  34  52  78 107 139 177 214 263 317
#     4  10  20  36  51  79 104 139 179 208 269 317
#     4  10  21  34  52  79 108 135 177 217 264 310
#     4  10  20  31  50  78 109 140 175 208 261 315
#     4  10  19  34  52  72 108 138 168 213 256 312
#     4  10  20  35  52  78 107 139 172 220 262 314
#     4  10  22  33  54  77 107 140 173 217 262 319
#
# _framework density 16.195696000000002
#
# number of rings (size 3 to 8) (size 9 to 14) (size 15 to 20)
#    0.000    2.250    2.500    3.750    5.250    3.500 
#    0.000    0.000    0.000    0.750    0.000    0.000 
#    0.000    0.000    0.000    0.000    0.000    0.000 
#
# Total GULP energy -178422.693512 kJ/mol
# GULP energy per Si atom -5575.709172 kJ/mol
# Density = 1.615883 g / cm^3
# Si number density = 16.195696 Si / 1000 Ang^3
#
#
#
# Elastic Constant Matrix: (Units=GPa)
#
#
# Indices 1 2 3 4 5 6 
#
# 1 115.5368 34.9461 43.5488 0.0000 21.4292 0.0000
# 2 34.9461 75.6180 21.0608 0.0000 9.3791 0.0000
# 3 43.5488 21.0608 36.8534 0.0000 17.9566 0.0000
# 4 0.0000 0.0000 0.0000 11.4472 0.0000 3.6613
# 5 21.4292 9.3791 17.9566 0.0000 36.7523 0.0000
# 6 0.0000 0.0000 0.0000 3.6613 0.0000 22.2656
#
#
#
# Elastic Compliance Matrix: (Units=1/GPa)
#
#
# Indices 1 2 3 4 5 6 
#
# 1 0.016005 -0.002535 -0.017367 0.000000 -0.000200 0.000000
# 2 -0.002535 0.016136 -0.006483 0.000000 0.000528 0.000000
# 3 -0.017367 -0.006483 0.059875 0.000000 -0.017474 0.000000
# 4 0.000000 0.000000 0.000000 0.092207 0.000000 -0.015162
# 5 -0.000200 0.000528 -0.017474 0.000000 0.035729 0.000000
# 6 0.000000 0.000000 0.000000 -0.015162 0.000000 0.047406
#
#
# Mechanical properties :
#
#
# Convention : Reuss Voigt Hill
#
# Bulk Modulus (GPa) = 25.47963 47.45775 36.46869
# Shear Modulus (GPa) = 15.00562 22.65653 18.83107
#
# Velocity S-wave (km/s) = 3.04718 3.74428 3.41357
# Velocity P-wave (km/s) = 5.30537 6.93247 6.17276
#
# Compressibility (1/GPa) = 0.03924703
#
# Stress axis : x y z
#
# Youngs Moduli (GPa) = 62.48041 61.97324 16.70141
#
# Poissons Ratio (x) = 0.15709 0.29005
# Poissons Ratio (y) = 0.15838 0.10828
# Poissons Ratio (z) = 1.08508 0.40178
#
# Static dielectric constant tensor:
#      x y z
#    x 1.561580 0.000000 0.014300 
#    y 0.000000 1.529900 0.000000 
#    z 0.014300 0.000000 1.544610 
# 
# From -- ./inp_files/107942.got.cif
#   From: 2010.05.17/outbox.cif.g08.bks.cpg/sg15_54_cif.got.tgz:107942.got - 2010.06.03 18:47:42.
