data_PCOD9263704
_publ_section_title
;
Structure prediction by ZEFSAII (Michael W. Deem and Ramdas Pophale) SiO2 
 PCOD9263704
Probable space group: C 2/C
;
_chemical_formula_sum "Si O2"
_cell_formula_units_Z 56
_cell_length_a 14.591360
_cell_length_b 16.358511
_cell_length_c 26.267657
_cell_angle_alpha 90.000000
_cell_angle_beta 27.973052
_cell_angle_gamma 90.000000
_cell_volume 2940.937472
_symmetry_space_group_name_H-M "C 2/C"
_symmetry_group_IT_number 15
_symmetry_cell_setting 'monoclinic'
loop_
_space_group_symop_operation_xyz
x,y,z
-x,y,1/2-z
-x,-y,-z
x,-y,1/2+z
1/2+x,1/2+y,z
1/2-x,1/2+y,1/2-z
1/2-x,1/2-y,-z
1/2+x,1/2-y,1/2+z
loop_
_atom_site_type_symbol
_atom_site_label
_atom_site_fract_x
_atom_site_fract_y
_atom_site_fract_z
Si Si1 0.276823 0.115403 0.366135
Si Si2 0.121974 0.199112 0.958313
Si Si3 0.227914 0.441216 0.190477
Si Si4 0.402337 0.878304 0.521803
Si Si5 0.163760 0.385934 0.063150
Si Si6 0.624014 0.446748 0.048007
Si Si7 0.206656 0.051638 0.622880
O O1 0.500000 0.144159 0.250000
O O2 0.226332 0.099289 0.450413
O O3 0.107873 0.174956 0.427552
O O4 0.261798 0.027583 0.344405
O O5 0.216212 0.131557 0.875149
O O6 0.234370 0.186138 0.956084
O O7 0.152222 0.292022 0.926463
O O8 0.392922 0.439290 0.153022
O O9 0.017855 0.423598 0.316793
O O10 0.404866 0.865976 0.459794
O O11 0.614754 0.903601 0.437524
O O12 0.258863 0.954857 0.601476
O O13 0.321970 0.458239 0.983567
O O14 0.695086 0.423088 0.069191
O O15 0.000000 0.067972 0.750000
#
# Coordination Sequence:
#
# PCOD9263704 Si02
#       7
#     8   8   8   8   8   8   8
#     4  11  19  35  58  92 118 149 187 229 296 349
#     4  11  21  36  55  87 125 146 183 243 293 340
#     4  11  19  34  60  88 119 149 186 233 293 345
#     4  10  24  40  58  84 117 153 196 240 282 334
#     4  11  19  35  60  85 115 153 190 237 286 339
#     4  10  19  34  59  87 111 147 194 239 278 337
#     4  10  22  43  62  78 109 157 205 237 274 340
#
# _framework density 19.041547000000001
#
# number of rings (size 3 to 8) (size 9 to 14) (size 15 to 20)
#    0.000    1.429    4.286    2.571    0.000    1.714 
#    0.000    4.286    0.000    0.000    0.000    0.000 
#    0.000    0.000    0.000    0.000    0.000    0.000 
#
# Total GULP energy -156308.985616 kJ/mol
# GULP energy per Si atom -5582.463772 kJ/mol
# Density = 1.899821 g / cm^3
# Si number density = 19.041547 Si / 1000 Ang^3
#
#
#
# Elastic Constant Matrix: (Units=GPa)
#
#
# Indices 1 2 3 4 5 6 
#
# 1 120.3209 27.4457 17.5620 -0.0044 -18.6685 -0.0061
# 2 27.4457 44.0433 1.6035 0.0034 -2.3297 -0.0002
# 3 17.5620 1.6035 37.4382 0.0118 -10.0546 0.0055
# 4 -0.0044 0.0034 0.0118 5.6907 0.0024 1.8983
# 5 -18.6685 -2.3297 -10.0546 0.0024 22.9128 0.0018
# 6 -0.0061 -0.0002 0.0055 1.8983 0.0018 8.5513
#
#
#
# Elastic Compliance Matrix: (Units=1/GPa)
#
#
# Indices 1 2 3 4 5 6 
#
# 1 0.011397 -0.006605 -0.003117 0.000014 0.007246 0.000005
# 2 -0.006605 0.026661 0.001405 -0.000023 -0.002054 0.000001
# 3 -0.003117 0.001405 0.031139 -0.000070 0.011267 -0.000009
# 4 0.000014 -0.000023 -0.000070 0.189780 -0.000038 -0.042129
# 5 0.007246 -0.002054 0.011267 -0.000038 0.054283 -0.000005
# 6 0.000005 0.000001 -0.000009 -0.042129 -0.000005 0.126293
#
#
# Mechanical properties :
#
#
# Convention : Reuss Voigt Hill
#
# Bulk Modulus (GPa) = 19.02525 32.78053 25.90289
# Shear Modulus (GPa) = 10.55499 17.77704 14.16602
#
# Velocity S-wave (km/s) = 2.35694 3.05879 2.73051
# Velocity P-wave (km/s) = 4.17373 5.45230 4.85529
#
# Compressibility (1/GPa) = 0.05256172
#
# Stress axis : x y z
#
# Youngs Moduli (GPa) = 87.74133 37.50764 32.11422
#
# Poissons Ratio (x) = 0.24775 0.10011
# Poissons Ratio (y) = 0.57956 -0.04512
# Poissons Ratio (z) = 0.27351 -0.05269
#
# Static dielectric constant tensor:
#      x y z
#    x 1.684510 0.000000 0.004560 
#    y 0.000000 1.658230 0.000000 
#    z 0.004560 0.000000 1.639400 
# 
# From -- ./inp_files/296544.got.cif
#   From: 2010.05.17/outbox.cif.g08.bks.cpg/sg15_149_cif.got.tgz:296544.got - 2010.06.03 18:47:42.
