data_PCOD9263680
_publ_section_title
;
Structure prediction by ZEFSAII (Michael W. Deem and Ramdas Pophale) SiO2 
 PCOD9263680
Probable space group: C 2/C
;
_chemical_formula_sum "Si O2"
_cell_formula_units_Z 56
_cell_length_a 9.030492
_cell_length_b 27.922878
_cell_length_c 11.562623
_cell_angle_alpha 90.000000
_cell_angle_beta 68.164085
_cell_angle_gamma 90.000000
_cell_volume 2706.414128
_symmetry_space_group_name_H-M "C 2/C"
_symmetry_group_IT_number 15
_symmetry_cell_setting 'monoclinic'
loop_
_space_group_symop_operation_xyz
x,y,z
-x,y,1/2-z
-x,-y,-z
x,-y,1/2+z
1/2+x,1/2+y,z
1/2-x,1/2+y,1/2-z
1/2-x,1/2-y,-z
1/2+x,1/2-y,1/2+z
loop_
_atom_site_type_symbol
_atom_site_label
_atom_site_fract_x
_atom_site_fract_y
_atom_site_fract_z
Si Si1 0.039490 0.551865 0.043405
Si Si2 0.781132 0.815984 0.865427
Si Si3 0.927498 0.146015 0.645127
Si Si4 0.354851 0.205037 0.869008
Si Si5 0.261837 0.956798 0.778627
Si Si6 0.168964 0.566448 0.770008
Si Si7 0.585681 0.632054 0.372249
O O1 0.151872 0.546468 0.121781
O O2 0.872755 0.567802 0.147925
O O3 0.120165 0.579869 0.915353
O O4 0.000000 0.500000 0.000000
O O5 0.851667 0.762467 0.859662
O O6 0.783417 0.834489 0.732155
O O7 0.912979 0.851368 0.879669
O O8 0.638187 0.813677 0.000296
O O9 0.813778 0.188892 0.635853
O O10 0.802824 0.101584 0.681837
O O11 0.000000 0.152802 0.750000
O O12 0.071417 0.138746 0.513225
O O13 0.500000 0.185919 0.750000
O O14 0.110550 0.923375 0.835133
O O15 0.255302 0.012920 0.752946
O O16 0.000000 0.564917 0.750000
#
# Coordination Sequence:
#
# PCOD9263680 Si02
#       7
#     8   8   8   8   8   8   8
#     4   9  17  35  54  80 117 154 209 260 295 348
#     4   9  20  39  63  94 122 145 206 261 304 378
#     4  11  25  40  57  89 129 164 202 260 315 371
#     4  10  19  40  73  90 114 161 205 252 314 371
#     4  10  19  34  59  83 119 167 197 258 312 352
#     4  11  21  38  60  88 119 162 220 254 293 372
#     4  10  20  38  58  87 127 158 198 256 315 376
#
# _framework density 20.691586000000001
#
# number of rings (size 3 to 8) (size 9 to 14) (size 15 to 20)
#    0.000    2.000    4.286    1.286    0.000    5.143 
#    2.571    0.714    3.143    0.000    0.000    0.000 
#    0.000    0.000    0.000    0.000    0.000    0.000 
#
# Total GULP energy -155973.776697 kJ/mol
# GULP energy per Si atom -5570.492025 kJ/mol
# Density = 2.064449 g / cm^3
# Si number density = 20.691586 Si / 1000 Ang^3
#
#
#
# Elastic Constant Matrix: (Units=GPa)
#
#
# Indices 1 2 3 4 5 6 
#
# 1 43.1605 33.2852 25.2825 0.0000 -1.2057 0.0000
# 2 33.2852 72.5113 25.9971 0.0000 -3.7939 0.0000
# 3 25.2825 25.9971 198.7884 0.0000 -5.4728 0.0000
# 4 0.0000 0.0000 0.0000 27.4174 0.0000 -10.0263
# 5 -1.2057 -3.7939 -5.4728 0.0000 24.1902 0.0000
# 6 0.0000 0.0000 0.0000 -10.0263 0.0000 16.1418
#
#
#
# Elastic Compliance Matrix: (Units=1/GPa)
#
#
# Indices 1 2 3 4 5 6 
#
# 1 0.037158 -0.016175 -0.002646 0.000000 -0.001283 0.000000
# 2 -0.016175 0.021594 -0.000700 0.000000 0.002422 0.000000
# 3 -0.002646 -0.000700 0.005486 0.000000 0.000999 0.000000
# 4 0.000000 0.000000 0.000000 0.047193 0.000000 0.029313
# 5 -0.001283 0.002422 0.000999 0.000000 0.041881 0.000000
# 6 0.000000 0.000000 0.000000 0.029313 0.000000 0.080159
#
#
# Mechanical properties :
#
#
# Convention : Reuss Voigt Hill
#
# Bulk Modulus (GPa) = 39.69014 53.73218 46.71116
# Shear Modulus (GPa) = 17.79926 28.87623 23.33774
#
# Velocity S-wave (km/s) = 2.93613 3.73976 3.36204
# Velocity P-wave (km/s) = 5.54237 6.68373 6.13963
#
# Compressibility (1/GPa) = 0.02519517
#
# Stress axis : x y z
#
# Youngs Moduli (GPa) = 26.91243 46.30994 182.28061
#
# Poissons Ratio (x) = 0.74907 0.48228
# Poissons Ratio (y) = 0.43531 0.12761
# Poissons Ratio (z) = 0.07120 0.03242
#
# Static dielectric constant tensor:
#      x y z
#    x 1.740770 0.000000 0.004510 
#    y 0.000000 1.756640 0.000000 
#    z 0.004510 0.000000 1.872360 
# 
# From -- ./inp_files/81257.got.cif
#   From: 2010.05.17/outbox.cif.g08.bks.cpg/sg15_41_cif.got.tgz:81257.got - 2010.06.03 18:47:42.
