data_PCOD9263758
_publ_section_title
;
Structure prediction by ZEFSAII (Michael W. Deem and Ramdas Pophale) SiO2 
 PCOD9263758
Probable space group: C 2/C
;
_chemical_formula_sum "Si O2"
_cell_formula_units_Z 52
_cell_length_a 10.173237
_cell_length_b 15.577639
_cell_length_c 20.106705
_cell_angle_alpha 90.000000
_cell_angle_beta 133.563113
_cell_angle_gamma 90.000000
_cell_volume 2308.922925
_symmetry_space_group_name_H-M "C 2/C"
_symmetry_group_IT_number 15
_symmetry_cell_setting 'monoclinic'
loop_
_space_group_symop_operation_xyz
x,y,z
-x,y,1/2-z
-x,-y,-z
x,-y,1/2+z
1/2+x,1/2+y,z
1/2-x,1/2+y,1/2-z
1/2-x,1/2-y,-z
1/2+x,1/2-y,1/2+z
loop_
_atom_site_type_symbol
_atom_site_label
_atom_site_fract_x
_atom_site_fract_y
_atom_site_fract_z
Si Si1 0.000000 0.287009 0.750000
Si Si2 0.764708 0.431497 0.100390
Si Si3 0.266415 0.155072 0.880969
Si Si4 0.214358 0.092673 0.998385
Si Si5 0.635193 0.866700 0.676423
Si Si6 0.197868 0.548832 0.732975
Si Si7 0.569581 0.266334 0.047457
O O1 0.883111 0.227928 0.661488
O O2 0.859504 0.340110 0.744555
O O3 0.676551 0.505390 0.024535
O O4 0.725422 0.444544 0.165736
O O5 0.700256 0.335999 0.059371
O O6 0.980489 0.441692 0.166040
O O7 0.245909 0.121283 0.799420
O O8 0.223155 0.084490 0.921769
O O9 0.460714 0.198688 0.963684
O O10 0.421237 0.116662 0.089142
O O11 0.084225 0.170945 0.974083
O O12 0.677188 0.790158 0.640132
O O13 0.734047 0.957802 0.709506
#
# Coordination Sequence:
#
# PCOD9263758 Si02
#       7
#     4   8   8   8   8   8   8
#     4  12  18  36  60  88 116 156 190 264 290 338
#     4  10  22  39  61  82 128 159 197 234 308 357
#     4  11  23  36  62  90 122 147 210 249 299 339
#     4  10  19  38  58  90 117 152 195 252 290 355
#     4  10  19  34  60  82 117 152 201 233 296 346
#     4  10  23  40  57  91 117 164 195 243 294 365
#     4  11  20  37  59  92 116 156 197 251 288 362
#
# _framework density 22.521322999999999
#
# number of rings (size 3 to 8) (size 9 to 14) (size 15 to 20)
#    0.000    1.538    3.077    4.154    0.000    6.154 
#    0.000    0.000    0.000    1.846    0.000    0.000 
#    0.000    0.000    0.000    0.000    0.000    0.000 
#
# Total GULP energy -145156.461061 kJ/mol
# GULP energy per Si atom -5582.940810 kJ/mol
# Density = 2.247006 g / cm^3
# Si number density = 22.521323 Si / 1000 Ang^3
#
#
#
# Elastic Constant Matrix: (Units=GPa)
#
#
# Indices 1 2 3 4 5 6 
#
# 1 27.0106 13.8317 13.6147 0.0000 -15.7389 0.0000
# 2 13.8317 110.2152 21.6518 0.0000 -17.5135 0.0000
# 3 13.6147 21.6518 65.2896 0.0000 -14.4982 0.0000
# 4 0.0000 0.0000 0.0000 30.6844 0.0000 -12.0951
# 5 -15.7389 -17.5135 -14.4982 0.0000 26.7132 0.0000
# 6 0.0000 0.0000 0.0000 -12.0951 0.0000 28.1534
#
#
#
# Elastic Compliance Matrix: (Units=1/GPa)
#
#
# Indices 1 2 3 4 5 6 
#
# 1 0.058047 -0.001473 -0.004816 0.000000 0.030621 0.000000
# 2 -0.001473 0.010436 -0.002078 0.000000 0.004847 0.000000
# 3 -0.004816 -0.002078 0.018280 0.000000 0.005722 0.000000
# 4 0.000000 0.000000 0.000000 0.039234 0.000000 0.016855
# 5 0.030621 0.004847 0.005722 0.000000 0.061759 0.000000
# 6 0.000000 0.000000 0.000000 0.016855 0.000000 0.042761
#
#
# Mechanical properties :
#
#
# Convention : Reuss Voigt Hill
#
# Bulk Modulus (GPa) = 14.27960 33.41242 23.84601
# Shear Modulus (GPa) = 18.47788 27.33801 22.90795
#
# Velocity S-wave (km/s) = 2.86748 3.48785 3.19277
# Velocity P-wave (km/s) = 4.16143 5.57568 4.91964
#
# Compressibility (1/GPa) = 0.07002996
#
# Stress axis : x y z
#
# Youngs Moduli (GPa) = 17.22748 95.81932 54.70399
#
# Poissons Ratio (x) = 0.14113 0.26347
# Poissons Ratio (y) = 0.02537 0.11365
# Poissons Ratio (z) = 0.08297 0.19907
#
# Static dielectric constant tensor:
#      x y z
#    x 1.896330 0.000000 -0.011910 
#    y 0.000000 1.830040 0.000000 
#    z -0.011910 0.000000 1.861940 
# 
# From -- ./inp_files/225448.got.cif
#   From: 2010.05.17/outbox.cif.g08.bks.cpg/sg15_113_cif.got.tgz:225448.got - 2010.06.03 18:47:42.
