data_PCOD9263844
_publ_section_title
;
Structure prediction by ZEFSAII (Michael W. Deem and Ramdas Pophale) SiO2 
 PCOD9263844
Probable space group: C 2/C
;
_chemical_formula_sum "Si O2"
_cell_formula_units_Z 48
_cell_length_a 17.766844
_cell_length_b 16.809404
_cell_length_c 10.274829
_cell_angle_alpha 90.000000
_cell_angle_beta 43.141212
_cell_angle_gamma 90.000000
_cell_volume 2098.290122
_symmetry_space_group_name_H-M "C 2/C"
_symmetry_group_IT_number 15
_symmetry_cell_setting 'monoclinic'
loop_
_space_group_symop_operation_xyz
x,y,z
-x,y,1/2-z
-x,-y,-z
x,-y,1/2+z
1/2+x,1/2+y,z
1/2-x,1/2+y,1/2-z
1/2-x,1/2-y,-z
1/2+x,1/2-y,1/2+z
loop_
_atom_site_type_symbol
_atom_site_label
_atom_site_fract_x
_atom_site_fract_y
_atom_site_fract_z
Si Si1 0.326274 0.528820 0.538636
Si Si2 0.500000 0.867585 0.250000
Si Si3 0.824101 0.665936 0.525983
Si Si4 0.609059 0.004143 0.449632
Si Si5 0.095967 0.915011 0.283372
Si Si6 0.692619 0.811277 0.164613
Si Si7 0.500000 0.288047 0.250000
O O1 0.220188 0.481210 0.728406
O O2 0.386790 0.484336 0.345319
O O3 0.398122 0.551518 0.576542
O O4 0.265691 0.608604 0.566736
O O5 0.409986 0.925120 0.427119
O O6 0.567168 0.821446 0.274760
O O7 0.879949 0.581071 0.492943
O O8 0.706725 0.637746 0.623780
O O9 0.806711 0.710319 0.685278
O O10 0.901084 0.725525 0.351331
O O11 0.500000 0.000000 0.500000
O O12 0.999479 0.852432 0.369618
O O13 0.750000 0.750000 0.000000
#
# Coordination Sequence:
#
# PCOD9263844 Si02
#       7
#     8   4   8   8   8   8   4
#     4  10  22  42  63  92 127 162 211 267 316 371
#     4  12  19  34  59  88 118 162 200 252 315 366
#     4  10  23  39  61  95 126 159 209 268 324 369
#     4  10  19  34  61  91 117 150 206 260 316 370
#     4  10  24  44  66  92 126 169 216 267 313 382
#     4  10  22  37  57  89 126 163 206 257 319 379
#     4  12  25  40  63  92 132 172 212 252 319 398
#
# _framework density 22.875768000000001
#
# number of rings (size 3 to 8) (size 9 to 14) (size 15 to 20)
#    0.000    2.000    3.333    3.000    2.333    6.000 
#    0.000    0.833    0.000    0.000    0.000    0.000 
#    0.000    0.000    0.000    0.000    0.000    0.000 
#
# Total GULP energy -133977.856670 kJ/mol
# GULP energy per Si atom -5582.410695 kJ/mol
# Density = 2.282370 g / cm^3
# Si number density = 22.875768 Si / 1000 Ang^3
#
#
#
# Elastic Constant Matrix: (Units=GPa)
#
#
# Indices 1 2 3 4 5 6 
#
# 1 101.2652 19.0641 -0.8591 0.0000 0.5157 0.0000
# 2 19.0641 48.0875 26.3823 0.0000 3.0458 0.0000
# 3 -0.8591 26.3823 54.0256 0.0000 3.3534 0.0000
# 4 0.0000 0.0000 0.0000 33.1302 0.0000 -11.2826
# 5 0.5157 3.0458 3.3534 0.0000 23.5047 0.0000
# 6 0.0000 0.0000 0.0000 -11.2826 0.0000 8.7790
#
#
#
# Elastic Compliance Matrix: (Units=1/GPa)
#
#
# Indices 1 2 3 4 5 6 
#
# 1 0.011054 -0.006122 0.003159 0.000000 0.000100 0.000000
# 2 -0.006122 0.031865 -0.015548 0.000000 -0.001777 0.000000
# 3 0.003159 -0.015548 0.026264 0.000000 -0.001802 0.000000
# 4 0.000000 0.000000 0.000000 0.053677 0.000000 0.068984
# 5 0.000100 -0.001777 -0.001802 0.000000 0.043030 0.000000
# 6 0.000000 0.000000 0.000000 0.068984 0.000000 0.202565
#
#
# Mechanical properties :
#
#
# Convention : Reuss Voigt Hill
#
# Bulk Modulus (GPa) = 31.09247 32.50588 31.79917
# Shear Modulus (GPa) = 12.01357 23.66887 17.84122
#
# Velocity S-wave (km/s) = 2.29414 3.22012 2.79573
# Velocity P-wave (km/s) = 4.54299 5.29775 4.93482
#
# Compressibility (1/GPa) = 0.03216213
#
# Stress axis : x y z
#
# Youngs Moduli (GPa) = 90.46655 31.38262 38.07467
#
# Poissons Ratio (x) = 0.19211 -0.12028
# Poissons Ratio (y) = 0.55381 0.59197
# Poissons Ratio (z) = -0.28578 0.48792
#
# Static dielectric constant tensor:
#      x y z
#    x 1.904310 0.000000 -0.003520 
#    y 0.000000 0.791740 0.000000 
#    z -0.003520 0.000000 1.861320 
# 
# From -- ./inp_files/112291.got.cif
#   From: 2010.05.17/outbox.cif.g08.bks.cpg/sg15_57_cif.got.tgz:112291.got - 2010.06.03 18:47:42.
