data_PCOD9263547
_publ_section_title
;
Structure prediction by ZEFSAII (Michael W. Deem and Ramdas Pophale) SiO2 
 PCOD9263547
Probable space group: C 2/C
;
_chemical_formula_sum "Si O2"
_cell_formula_units_Z 56
_cell_length_a 12.713681
_cell_length_b 10.009726
_cell_length_c 27.058029
_cell_angle_alpha 90.000000
_cell_angle_beta 56.777405
_cell_angle_gamma 90.000000
_cell_volume 2880.584938
_symmetry_space_group_name_H-M "C 2/C"
_symmetry_group_IT_number 15
_symmetry_cell_setting 'monoclinic'
loop_
_space_group_symop_operation_xyz
x,y,z
-x,y,1/2-z
-x,-y,-z
x,-y,1/2+z
1/2+x,1/2+y,z
1/2-x,1/2+y,1/2-z
1/2-x,1/2-y,-z
1/2+x,1/2-y,1/2+z
loop_
_atom_site_type_symbol
_atom_site_label
_atom_site_fract_x
_atom_site_fract_y
_atom_site_fract_z
Si Si1 0.736505 0.737782 0.423679
Si Si2 0.521903 0.880966 0.688481
Si Si3 0.411263 0.400558 0.456838
Si Si4 0.879735 0.499850 0.565964
Si Si5 0.170539 0.167146 0.061135
Si Si6 0.414909 0.807446 0.317462
Si Si7 0.633298 0.232797 0.358050
O O1 0.841916 0.663361 0.365967
O O2 0.642782 0.638457 0.475954
O O3 0.814373 0.824287 0.444487
O O4 0.660114 0.849067 0.413502
O O5 0.500000 0.839991 0.750000
O O6 0.417924 0.799706 0.683376
O O7 0.530999 0.043119 0.686530
O O8 0.411596 0.557436 0.446400
O O9 0.543650 0.335612 0.409923
O O10 0.772989 0.420456 0.563932
O O11 0.895335 0.410997 0.609880
O O12 0.000000 0.500000 0.500000
O O13 0.096273 0.242426 0.124464
O O14 0.250000 0.250000 0.000000
O O15 0.500000 0.750636 0.250000
O O16 0.273754 0.786556 0.331279
#
# Coordination Sequence:
#
# PCOD9263547 Si02
#       7
#     8   8   8   8   8   8   8
#     4   9  17  33  59  87 123 156 202 256 309 372
#     4  10  22  43  63  88 123 168 213 257 315 382
#     4   9  17  33  59  89 120 160 198 259 316 366
#     4  10  19  34  57  92 120 160 203 253 326 381
#     4  10  21  36  58  90 125 161 209 265 321 375
#     4  10  23  45  61  88 131 167 210 266 324 383
#     4  10  21  41  64  87 124 163 210 262 316 384
#
# _framework density 19.440496
#
# number of rings (size 3 to 8) (size 9 to 14) (size 15 to 20)
#    0.000    2.286    1.429    0.857    4.000    0.000 
#   12.857   12.143    0.000    0.000    0.000    0.000 
#    0.000    0.000    0.000    0.000    0.000    0.000 
#
# Total GULP energy -155934.215231 kJ/mol
# GULP energy per Si atom -5569.079115 kJ/mol
# Density = 1.939625 g / cm^3
# Si number density = 19.440496 Si / 1000 Ang^3
#
#
#
# Elastic Constant Matrix: (Units=GPa)
#
#
# Indices 1 2 3 4 5 6 
#
# 1 45.4965 16.1701 30.0861 0.0000 -4.3888 0.0000
# 2 16.1701 66.1789 49.2984 0.0000 5.0673 0.0000
# 3 30.0861 49.2984 126.9899 0.0000 11.1694 0.0000
# 4 0.0000 0.0000 0.0000 25.3124 0.0000 5.6707
# 5 -4.3888 5.0673 11.1694 0.0000 27.5913 0.0000
# 6 0.0000 0.0000 0.0000 5.6707 0.0000 7.4815
#
#
#
# Elastic Compliance Matrix: (Units=1/GPa)
#
#
# Indices 1 2 3 4 5 6 
#
# 1 0.027745 -0.002764 -0.006152 0.000000 0.007411 0.000000
# 2 -0.002764 0.021542 -0.007592 0.000000 -0.001323 0.000000
# 3 -0.006152 -0.007592 0.012695 0.000000 -0.004723 0.000000
# 4 0.000000 0.000000 0.000000 0.047587 0.000000 -0.036069
# 5 0.007411 -0.001323 -0.004723 0.000000 0.039577 0.000000
# 6 0.000000 0.000000 0.000000 -0.036069 0.000000 0.161001
#
#
# Mechanical properties :
#
#
# Convention : Reuss Voigt Hill
#
# Bulk Modulus (GPa) = 34.52213 47.75273 41.13743
# Shear Modulus (GPa) = 14.17155 21.61776 17.89465
#
# Velocity S-wave (km/s) = 2.70287 3.33828 3.03724
# Velocity P-wave (km/s) = 5.24758 6.28297 5.78847
#
# Compressibility (1/GPa) = 0.02896692
#
# Stress axis : x y z
#
# Youngs Moduli (GPa) = 36.04205 46.41996 78.77190
#
# Poissons Ratio (x) = 0.12829 0.48463
# Poissons Ratio (y) = 0.09961 0.59802
# Poissons Ratio (z) = 0.22174 0.35241
#
# Static dielectric constant tensor:
#      x y z
#    x -85.357350 0.000000 -17.020400 
#    y 0.000000 1.670220 0.000000 
#    z -17.020400 0.000000 -1.676140 
# 
# From -- ./inp_files/312873.got.cif
#   From: 2010.05.17/outbox.cif.g08.bks.cpg/sg15_157_cif.got.tgz:312873.got - 2010.06.03 18:47:42.
