data_PCOD9263483
_publ_section_title
;
Structure prediction by ZEFSAII (Michael W. Deem and Ramdas Pophale) SiO2 
 PCOD9263483
Probable space group: C 2/C
;
_chemical_formula_sum "Si O2"
_cell_formula_units_Z 64
_cell_length_a 22.273777
_cell_length_b 8.290115
_cell_length_c 16.399446
_cell_angle_alpha 90.000000
_cell_angle_beta 82.352535
_cell_angle_gamma 90.000000
_cell_volume 3001.259484
_symmetry_space_group_name_H-M "C 2/C"
_symmetry_group_IT_number 15
_symmetry_cell_setting 'monoclinic'
loop_
_space_group_symop_operation_xyz
x,y,z
-x,y,1/2-z
-x,-y,-z
x,-y,1/2+z
1/2+x,1/2+y,z
1/2-x,1/2+y,1/2-z
1/2-x,1/2-y,-z
1/2+x,1/2-y,1/2+z
loop_
_atom_site_type_symbol
_atom_site_label
_atom_site_fract_x
_atom_site_fract_y
_atom_site_fract_z
Si Si1 0.255657 0.145760 0.173585
Si Si2 0.925746 0.136963 0.454790
Si Si3 0.087190 0.471183 0.109703
Si Si4 0.708555 0.031537 0.994648
Si Si5 0.331761 0.085173 0.756823
Si Si6 0.683967 0.427492 0.414945
Si Si7 0.029732 0.786441 0.053487
Si Si8 0.364985 0.249859 0.590521
O O1 0.257906 0.045279 0.089448
O O2 0.195933 0.248930 0.202236
O O3 0.307129 0.278176 0.145704
O O4 0.276502 0.033346 0.243697
O O5 0.937010 0.288643 0.393639
O O6 0.857284 0.115266 0.499144
O O7 0.963409 0.182369 0.529980
O O8 0.947336 0.961364 0.418063
O O9 0.121489 0.490266 0.188871
O O10 0.042615 0.622919 0.101992
O O11 0.141033 0.472139 0.031644
O O12 0.688055 0.207814 0.966363
O O13 0.750780 0.984132 0.062380
O O14 0.361759 0.125577 0.664419
O O15 0.650869 0.573110 0.376600
O O16 0.071927 0.756642 0.966586
#
# Coordination Sequence:
#
# PCOD9263483 Si02
#       8
#     8   8   8   8   8   8   8   8
#     4  11  21  36  51  79 123 151 187 226 282 358
#     4  10  20  37  65  89 109 147 197 252 300 331
#     4  11  20  38  60  88 116 152 194 243 288 347
#     4  10  19  34  57  83 114 140 198 237 280 348
#     4  11  23  36  52  84 121 162 187 223 300 360
#     4  11  18  34  58  86 109 152 189 242 286 344
#     4   9  21  40  62  90 111 143 205 253 288 342
#     4   9  21  36  55  81 116 153 186 240 292 341
#
# _framework density 21.324380000000001
#
# number of rings (size 3 to 8) (size 9 to 14) (size 15 to 20)
#    0.000    1.750    2.500    2.625    0.000    0.000 
#    9.000    0.625    0.000    0.000    0.000    0.000 
#    0.000    0.000    0.000    0.000    0.000    0.000 
#
# Total GULP energy -178333.221191 kJ/mol
# GULP energy per Si atom -5572.913162 kJ/mol
# Density = 2.127584 g / cm^3
# Si number density = 21.324380 Si / 1000 Ang^3
#
#
#
# Elastic Constant Matrix: (Units=GPa)
#
#
# Indices 1 2 3 4 5 6 
#
# 1 52.7901 11.4602 -0.7699 0.0000 9.4559 0.0000
# 2 11.4602 95.8589 9.7982 0.0000 7.5536 0.0000
# 3 -0.7699 9.7982 51.0959 0.0000 10.9794 0.0000
# 4 0.0000 0.0000 0.0000 12.9201 0.0000 -1.2690
# 5 9.4559 7.5536 10.9794 0.0000 16.5644 0.0000
# 6 0.0000 0.0000 0.0000 -1.2690 0.0000 27.1818
#
#
#
# Elastic Compliance Matrix: (Units=1/GPa)
#
#
# Indices 1 2 3 4 5 6 
#
# 1 0.021940 -0.001890 0.003730 0.000000 -0.014135 0.000000
# 2 -0.001890 0.011045 -0.001511 0.000000 -0.002956 0.000000
# 3 0.003730 -0.001511 0.023586 0.000000 -0.017074 0.000000
# 4 0.000000 0.000000 0.000000 0.077755 0.000000 0.003630
# 5 -0.014135 -0.002956 -0.017074 0.000000 0.081104 0.000000
# 6 0.000000 0.000000 0.000000 0.003630 0.000000 0.036959
#
#
# Mechanical properties :
#
#
# Convention : Reuss Voigt Hill
#
# Bulk Modulus (GPa) = 17.47397 26.74688 22.11042
# Shear Modulus (GPa) = 18.46325 23.28368 20.87347
#
# Velocity S-wave (km/s) = 2.94569 3.30795 3.13206
# Velocity P-wave (km/s) = 4.44765 5.21154 4.84467
#
# Compressibility (1/GPa) = 0.05722799
#
# Stress axis : x y z
#
# Youngs Moduli (GPa) = 45.57960 90.53527 42.39837
#
# Poissons Ratio (x) = 0.17115 -0.15816
# Poissons Ratio (y) = 0.08616 0.06408
# Poissons Ratio (z) = -0.17003 0.13684
#
# Static dielectric constant tensor:
#      x y z
#    x 1.775610 0.000000 -0.003780 
#    y 0.000000 1.845720 0.000000 
#    z -0.003780 0.000000 1.764480 
# 
# From -- ./inp_files/218239.got.cif
#   From: 2010.05.17/outbox.cif.g08.bks.cpg/sg15_110_cif.got.tgz:218239.got - 2010.06.03 18:47:42.
