data_PCOD9263076
_publ_section_title
;
Structure prediction by ZEFSAII (Michael W. Deem and Ramdas Pophale) SiO2 
 PCOD9263076
Probable space group: C 2/C
;
_chemical_formula_sum "Si O2"
_cell_formula_units_Z 64
_cell_length_a 21.503158
_cell_length_b 21.579856
_cell_length_c 18.158591
_cell_angle_alpha 90.000000
_cell_angle_beta 161.278497
_cell_angle_gamma 90.000000
_cell_volume 2704.551688
_symmetry_space_group_name_H-M "C 2/C"
_symmetry_group_IT_number 15
_symmetry_cell_setting 'monoclinic'
loop_
_space_group_symop_operation_xyz
x,y,z
-x,y,1/2-z
-x,-y,-z
x,-y,1/2+z
1/2+x,1/2+y,z
1/2-x,1/2+y,1/2-z
1/2-x,1/2-y,-z
1/2+x,1/2-y,1/2+z
loop_
_atom_site_type_symbol
_atom_site_label
_atom_site_fract_x
_atom_site_fract_y
_atom_site_fract_z
Si Si1 0.358242 0.991613 0.021334
Si Si2 0.058199 0.158001 0.393400
Si Si3 0.002094 0.170375 0.661712
Si Si4 0.935444 0.576574 0.346550
Si Si5 0.034207 0.387634 0.119816
Si Si6 0.574523 0.807575 0.916905
Si Si7 0.552064 0.531388 0.893797
Si Si8 0.356524 0.800597 0.021701
O O1 0.500000 0.008445 0.250000
O O2 0.443557 0.929092 0.083393
O O3 0.379894 0.044837 0.984710
O O4 0.127284 0.991688 0.777795
O O5 0.233709 0.119205 0.623386
O O6 0.146652 0.226233 0.476211
O O7 0.000000 0.128391 0.250000
O O8 0.857299 0.170968 0.209262
O O9 0.927601 0.102939 0.554969
O O10 0.000000 0.170445 0.750000
O O11 0.918383 0.237289 0.545217
O O12 0.210474 0.169791 0.856724
O O13 0.958870 0.588509 0.458112
O O14 0.939300 0.644003 0.309269
O O15 0.779534 0.520602 0.157664
O O16 0.946748 0.321133 0.045392
O O17 0.500000 0.803114 0.750000
O O18 0.500000 0.535944 0.750000
O O19 0.500000 0.820059 0.250000
#
# Coordination Sequence:
#
# PCOD9263076 Si02
#       8
#     8   8   8   8   8   8   8   8
#     4  12  26  49  76  97 133 187 251 294 343 432
#     4  11  21  43  79 105 148 190 236 294 349 420
#     4  10  19  33  62  97 128 170 235 290 328 395
#     4  12  26  46  67 102 149 183 229 299 366 416
#     4  12  28  45  68 112 146 182 234 295 361 429
#     4  11  19  37  62  95 133 179 231 281 334 415
#     4  11  22  44  73 100 132 186 241 291 350 412
#     4  11  20  44  75 109 144 195 239 285 349 429
#
# _framework density 23.663812
#
# number of rings (size 3 to 8) (size 9 to 14) (size 15 to 20)
#    0.000    0.750    5.000    5.625    0.000    2.500 
#    4.500    0.000    0.000    0.000    0.000    0.000 
#    0.000    0.000    0.000    0.000    0.000    0.000 
#
# Total GULP energy -178549.869246 kJ/mol
# GULP energy per Si atom -5579.683414 kJ/mol
# Density = 2.360995 g / cm^3
# Si number density = 23.663812 Si / 1000 Ang^3
#
#
#
# Elastic Constant Matrix: (Units=GPa)
#
#
# Indices 1 2 3 4 5 6 
#
# 1 87.2474 12.9016 54.1026 -0.0009 5.8580 -0.0040
# 2 12.9016 89.6268 17.9182 -0.0004 8.7716 -0.0015
# 3 54.1026 17.9182 128.4929 -0.0064 23.6847 -0.0251
# 4 -0.0009 -0.0004 -0.0064 18.3714 -0.0025 -2.5510
# 5 5.8580 8.7716 23.6847 -0.0025 43.9145 -0.0097
# 6 -0.0040 -0.0015 -0.0251 -2.5510 -0.0097 -47.8357
#
#
#
# Elastic Compliance Matrix: (Units=1/GPa)
#
#
# Indices 1 2 3 4 5 6 
#
# 1 0.015715 -0.001078 -0.006795 -0.000001 0.001784 0.000002
# 2 -0.001078 0.011652 -0.000853 0.000000 -0.001723 0.000001
# 3 -0.006795 -0.000853 0.011730 0.000002 -0.005250 -0.000005
# 4 -0.000001 0.000000 0.000002 0.054032 0.000001 -0.002881
# 5 0.001784 -0.001723 -0.005250 0.000001 0.025709 -0.000003
# 6 0.000002 0.000001 -0.000005 -0.002881 -0.000003 -0.020751
#
#
# Mechanical properties :
#
#
# Convention : Reuss Voigt Hill
#
# Bulk Modulus (GPa) = 46.20272 52.80131 49.50201
# Shear Modulus (GPa) = 40.73119 17.58635 29.15877
#
# Velocity S-wave (km/s) = 4.15329 2.72908 3.51409
# Velocity P-wave (km/s) = 6.52432 5.68261 6.11796
#
# Compressibility (1/GPa) = 0.02164375
#
# Stress axis : x y z
#
# Youngs Moduli (GPa) = 63.63256 85.82354 85.24834
#
# Poissons Ratio (x) = 0.09254 0.57930
# Poissons Ratio (y) = 0.06861 0.07273
# Poissons Ratio (z) = 0.43241 0.07322
#
# Static dielectric constant tensor:
#      x y z
#    x 1.871570 0.000000 0.058280 
#    y 0.000000 2.009930 0.000000 
#    z 0.058280 0.000000 2.043970 
# 
# From -- ./inp_files/216982.got.cif
#   From: 2010.05.17/outbox.cif.g08.bks.cpg/sg15_109_cif.got.tgz:216982.got - 2010.06.03 18:47:42.
