data_PCOD9263959
_publ_section_title
;
Structure prediction by ZEFSAII (Michael W. Deem and Ramdas Pophale) SiO2 
 PCOD9263959
Probable space group: C 2/C
;
_chemical_formula_sum "Si O2"
_cell_formula_units_Z 36
_cell_length_a 12.373736
_cell_length_b 28.429779
_cell_length_c 5.474704
_cell_angle_alpha 90.000000
_cell_angle_beta 104.202089
_cell_angle_gamma 90.000000
_cell_volume 1867.042902
_symmetry_space_group_name_H-M "C 2/C"
_symmetry_group_IT_number 15
_symmetry_cell_setting 'monoclinic'
loop_
_space_group_symop_operation_xyz
x,y,z
-x,y,1/2-z
-x,-y,-z
x,-y,1/2+z
1/2+x,1/2+y,z
1/2-x,1/2+y,1/2-z
1/2-x,1/2-y,-z
1/2+x,1/2-y,1/2+z
loop_
_atom_site_type_symbol
_atom_site_label
_atom_site_fract_x
_atom_site_fract_y
_atom_site_fract_z
Si Si1 0.378890 0.369508 0.556006
Si Si2 0.685225 0.200573 0.007811
Si Si3 0.500000 0.686220 0.750000
Si Si4 0.874621 0.729200 0.023600
Si Si5 0.866432 0.021610 0.143855
O O1 0.500000 0.364235 0.750000
O O2 0.277594 0.339128 0.602635
O O3 0.404583 0.346852 0.305506
O O4 0.351558 0.424338 0.557055
O O5 0.625414 0.196220 0.712294
O O6 0.750000 0.250000 0.000000
O O7 0.607652 0.205109 0.201644
O O8 0.551550 0.723659 0.969138
O O9 0.750000 0.750000 0.000000
O O10 0.000000 0.013600 0.250000
O O11 0.823163 0.009423 0.391766
#
# Coordination Sequence:
#
# PCOD9263959 Si02
#       5
#     8   8   4   8   8
#     4  11  22  30  53  70  92 136 178 194 240 301
#     4  10  19  35  45  66  99 121 160 206 239 270
#     4  12  22  30  52  72  94 140 178 190 236 306
#     4  10  20  34  45  66 101 122 163 205 236 271
#     4   9  20  34  45  65  95 123 161 213 242 270
#
# _framework density 19.281828000000001
#
# number of rings (size 3 to 8) (size 9 to 14) (size 15 to 20)
#    0.000    1.778    4.444    2.667    7.778    0.000 
#    0.000    0.000    0.000    0.000    0.000    0.000 
#    0.000    0.000    0.000   20.000    1.333    3.556 
#
# Total GULP energy -100278.391279 kJ/mol
# GULP energy per Si atom -5571.021738 kJ/mol
# Density = 1.923794 g / cm^3
# Si number density = 19.281828 Si / 1000 Ang^3
#
#
#
# Elastic Constant Matrix: (Units=GPa)
#
#
# Indices 1 2 3 4 5 6 
#
# 1 51.1849 32.9482 23.2222 0.0000 -18.0482 0.0000
# 2 32.9482 96.9512 45.9779 0.0000 -4.1727 0.0000
# 3 23.2222 45.9779 132.3249 0.0000 -22.6164 0.0000
# 4 0.0000 0.0000 0.0000 19.4137 0.0000 0.3611
# 5 -18.0482 -4.1727 -22.6164 0.0000 30.7779 0.0000
# 6 0.0000 0.0000 0.0000 0.3611 0.0000 19.5437
#
#
#
# Elastic Compliance Matrix: (Units=1/GPa)
#
#
# Indices 1 2 3 4 5 6 
#
# 1 0.032453 -0.010811 0.001216 0.000000 0.018458 0.000000
# 2 -0.010811 0.016028 -0.005014 0.000000 -0.007851 0.000000
# 3 0.001216 -0.005014 0.010397 0.000000 0.007674 0.000000
# 4 0.000000 0.000000 0.000000 0.051528 0.000000 -0.000952
# 5 0.018458 -0.007851 0.007674 0.000000 0.047889 0.000000
# 6 0.000000 0.000000 0.000000 -0.000952 0.000000 0.051185
#
#
# Mechanical properties :
#
#
# Convention : Reuss Voigt Hill
#
# Bulk Modulus (GPa) = 33.71437 53.86194 43.78815
# Shear Modulus (GPa) = 20.11375 25.83459 22.97417
#
# Velocity S-wave (km/s) = 3.23328 3.66436 3.45555
# Velocity P-wave (km/s) = 5.60908 6.77481 6.21932
#
# Compressibility (1/GPa) = 0.02966095
#
# Stress axis : x y z
#
# Youngs Moduli (GPa) = 30.81356 62.38913 96.17785
#
# Poissons Ratio (x) = 0.67450 -0.11695
# Poissons Ratio (y) = 0.33313 0.48222
# Poissons Ratio (z) = -0.03747 0.31281
#
# Static dielectric constant tensor:
#      x y z
#    x 1.779940 0.000000 -0.041390 
#    y 0.000000 1.629380 0.000000 
#    z -0.041390 0.000000 2.069160 
# 
# From -- ./inp_files/4697.got.cif
#   From: 2010.05.17/outbox.cif.g08.bks.cpg/sg15_3_cif.got.tgz:4697.got - 2010.06.03 18:47:42.
