data_PCOD9263308
_publ_section_title
;
Structure prediction by ZEFSAII (Michael W. Deem and Ramdas Pophale) SiO2 
 PCOD9263308
Probable space group: C 2/C
;
_chemical_formula_sum "Si O2"
_cell_formula_units_Z 60
_cell_length_a 21.681489
_cell_length_b 8.832680
_cell_length_c 23.697712
_cell_angle_alpha 90.000000
_cell_angle_beta 31.084669
_cell_angle_gamma 90.000000
_cell_volume 2343.115359
_symmetry_space_group_name_H-M "C 2/C"
_symmetry_group_IT_number 15
_symmetry_cell_setting 'monoclinic'
loop_
_space_group_symop_operation_xyz
x,y,z
-x,y,1/2-z
-x,-y,-z
x,-y,1/2+z
1/2+x,1/2+y,z
1/2-x,1/2+y,1/2-z
1/2-x,1/2-y,-z
1/2+x,1/2-y,1/2+z
loop_
_atom_site_type_symbol
_atom_site_label
_atom_site_fract_x
_atom_site_fract_y
_atom_site_fract_z
Si Si1 0.040341 0.557145 0.530901
Si Si2 0.350955 0.002987 0.849664
Si Si3 0.761526 0.794232 0.283883
Si Si4 0.500000 0.291018 0.750000
Si Si5 0.922673 0.649654 0.395565
Si Si6 0.046351 0.969376 0.311023
Si Si7 0.489350 0.646620 0.046182
Si Si8 0.696679 0.031683 0.730529
O O1 0.090295 0.722458 0.475558
O O2 0.930398 0.610056 0.658252
O O3 0.000000 0.500000 0.500000
O O4 0.098884 0.435445 0.527703
O O5 0.390925 0.169443 0.839661
O O6 0.262106 0.022186 0.866249
O O7 0.460295 0.924275 0.728187
O O8 0.325793 0.898307 0.923458
O O9 0.822224 0.891887 0.285486
O O10 0.626119 0.733210 0.391474
O O11 0.775136 0.889850 0.216482
O O12 0.831724 0.637749 0.225749
O O13 0.471406 0.407800 0.723104
O O14 0.956143 0.825659 0.376675
O O15 0.031122 0.067702 0.378332
O O16 0.500000 0.500000 0.000000
#
# Coordination Sequence:
#
# PCOD9263308 Si02
#       8
#     8   8   8   4   8   8   8   8
#     4  10  19  34  55  81 115 157 195 238 297 362
#     4   9  17  33  50  79 119 152 195 248 297 354
#     4  11  21  35  57  85 122 151 197 250 306 350
#     4  10  20  30  54  86 120 150 200 258 290 352
#     4   9  17  30  52  79 111 147 196 242 293 351
#     4  12  20  34  57  90 118 154 204 254 302 354
#     4  11  24  38  57  89 123 158 201 252 308 361
#     4  10  20  34  56  84 118 150 198 243 304 352
#
# _framework density 25.606933999999999
#
# number of rings (size 3 to 8) (size 9 to 14) (size 15 to 20)
#    0.000    1.867    4.000    4.800    0.000    0.000 
#    0.000    0.000    0.000    0.800    3.467    2.800 
#    0.000    0.000    0.000    0.000    0.000    0.000 
#
# Total GULP energy -167052.609371 kJ/mol
# GULP energy per Si atom -5568.420312 kJ/mol
# Density = 2.554865 g / cm^3
# Si number density = 25.606934 Si / 1000 Ang^3
#
#
#
# Elastic Constant Matrix: (Units=GPa)
#
#
# Indices 1 2 3 4 5 6 
#
# 1 174.1434 87.9897 44.5645 -0.0003 51.1204 0.0004
# 2 87.9897 230.2949 41.9750 -0.0006 29.0781 0.0010
# 3 44.5645 41.9750 61.8188 -0.0001 18.7449 0.0002
# 4 -0.0003 -0.0006 -0.0001 36.3693 0.0001 10.8816
# 5 51.1204 29.0781 18.7449 0.0001 38.3251 -0.0001
# 6 0.0004 0.0010 0.0002 10.8816 -0.0001 64.4518
#
#
#
# Elastic Compliance Matrix: (Units=1/GPa)
#
#
# Indices 1 2 3 4 5 6 
#
# 1 0.011004 -0.002211 -0.002923 0.000000 -0.011571 0.000000
# 2 -0.002211 0.005609 -0.002135 0.000000 -0.000263 0.000000
# 3 -0.002923 -0.002135 0.021205 0.000000 -0.004852 0.000000
# 4 0.000000 0.000000 0.000000 0.028959 0.000000 -0.004889
# 5 -0.011571 -0.000263 -0.004852 0.000000 0.044099 0.000000
# 6 0.000000 0.000000 0.000000 -0.004889 0.000000 0.016341
#
#
# Mechanical properties :
#
#
# Convention : Reuss Voigt Hill
#
# Bulk Modulus (GPa) = 42.95557 90.59060 66.77308
# Shear Modulus (GPa) = 33.44144 47.27777 40.35960
#
# Velocity S-wave (km/s) = 3.61772 4.30151 3.97434
# Velocity P-wave (km/s) = 5.85337 7.75402 6.86974
#
# Compressibility (1/GPa) = 0.02327987
#
# Stress axis : x y z
#
# Youngs Moduli (GPa) = 90.87520 178.27655 47.15917
#
# Poissons Ratio (x) = 0.39409 0.13785
# Poissons Ratio (y) = 0.20089 0.10070
# Poissons Ratio (z) = 0.26564 0.38070
#
# Static dielectric constant tensor:
#      x y z
#    x 2.251270 0.000000 -0.116060 
#    y 0.000000 2.124500 0.000000 
#    z -0.116060 0.000000 2.119030 
# 
# From -- ./inp_files/281669.got.cif
#   From: 2010.05.17/outbox.cif.g08.bks.cpg/sg15_141_cif.got.tgz:281669.got - 2010.06.03 18:47:42.
