data_PCOD9263013
_publ_section_title
;
Structure prediction by ZEFSAII (Michael W. Deem and Ramdas Pophale) SiO2 
 PCOD9263013
Probable space group: C 2/C
;
_chemical_formula_sum "Si O2"
_cell_formula_units_Z 56
_cell_length_a 20.742633
_cell_length_b 9.430038
_cell_length_c 12.664005
_cell_angle_alpha 90.000000
_cell_angle_beta 72.460512
_cell_angle_gamma 90.000000
_cell_volume 2361.964764
_symmetry_space_group_name_H-M "C 2/C"
_symmetry_group_IT_number 15
_symmetry_cell_setting 'monoclinic'
loop_
_space_group_symop_operation_xyz
x,y,z
-x,y,1/2-z
-x,-y,-z
x,-y,1/2+z
1/2+x,1/2+y,z
1/2-x,1/2+y,1/2-z
1/2-x,1/2-y,-z
1/2+x,1/2-y,1/2+z
loop_
_atom_site_type_symbol
_atom_site_label
_atom_site_fract_x
_atom_site_fract_y
_atom_site_fract_z
Si Si1 0.059358 0.168533 0.464452
Si Si2 0.260068 0.076765 0.709892
Si Si3 0.945701 0.374821 0.511768
Si Si4 0.831935 0.176420 0.267855
Si Si5 0.852124 0.411043 0.966488
Si Si6 0.629510 0.752724 0.750493
Si Si7 0.566889 0.486382 0.661922
O O1 0.111159 0.135952 0.346048
O O2 0.096947 0.294537 0.509956
O O3 0.053571 0.042030 0.550599
O O4 0.989860 0.239043 0.458953
O O5 0.313680 0.158239 0.758718
O O6 0.288027 0.094593 0.576219
O O7 0.191292 0.161514 0.762847
O O8 0.234994 0.915073 0.726333
O O9 0.889211 0.437963 0.461776
O O10 0.909749 0.336705 0.639746
O O11 0.000000 0.500000 0.500000
O O12 0.867828 0.116108 0.355754
O O13 0.842958 0.359685 0.852419
O O14 0.582939 0.632780 0.718608
O O15 0.500000 0.426105 0.750000
#
# Coordination Sequence:
#
# PCOD9263013 Si02
#       7
#     8   8   8   8   8   8   8
#     4   9  19  36  58  88 121 160 209 253 309 373
#     4  10  20  39  61  93 125 166 214 252 309 372
#     4  10  19  33  59  90 125 162 207 260 312 369
#     4  10  22  38  64  88 127 164 207 266 307 370
#     4   9  19  33  60  90 119 161 207 260 310 358
#     4  10  19  34  60  89 120 163 210 261 298 372
#     4  10  19  36  61  86 114 160 212 250 307 379
#
# _framework density 23.709076
#
# number of rings (size 3 to 8) (size 9 to 14) (size 15 to 20)
#    0.000    2.286    1.429    1.286    0.000    1.714 
#    0.000    0.714   12.571    0.000    0.000    0.000 
#    0.000    0.000    0.000    0.000    0.000    0.000 
#
# Total GULP energy -156386.921895 kJ/mol
# GULP energy per Si atom -5585.247211 kJ/mol
# Density = 2.365511 g / cm^3
# Si number density = 23.709076 Si / 1000 Ang^3
#
#
#
# Elastic Constant Matrix: (Units=GPa)
#
#
# Indices 1 2 3 4 5 6 
#
# 1 66.5702 25.5573 7.0108 0.0000 -1.3134 0.0000
# 2 25.5573 114.2108 19.2488 0.0000 -2.6939 0.0000
# 3 7.0108 19.2488 54.4820 0.0000 -18.9329 0.0000
# 4 0.0000 0.0000 0.0000 34.2426 0.0000 -7.6877
# 5 -1.3134 -2.6939 -18.9329 0.0000 33.1072 0.0000
# 6 0.0000 0.0000 0.0000 -7.6877 0.0000 51.4967
#
#
#
# Elastic Compliance Matrix: (Units=1/GPa)
#
#
# Indices 1 2 3 4 5 6 
#
# 1 0.016473 -0.003534 -0.000929 0.000000 -0.000165 0.000000
# 2 -0.003534 0.010121 -0.003599 0.000000 -0.001375 0.000000
# 3 -0.000929 -0.003599 0.024500 0.000000 0.013681 0.000000
# 4 0.000000 0.000000 0.000000 0.030216 0.000000 0.004511
# 5 -0.000165 -0.001375 0.013681 0.000000 0.037910 0.000000
# 6 0.000000 0.000000 0.000000 0.004511 0.000000 0.020092
#
#
# Mechanical properties :
#
#
# Convention : Reuss Voigt Hill
#
# Bulk Modulus (GPa) = 28.59477 37.65523 33.12500
# Shear Modulus (GPa) = 29.92388 35.99904 32.96146
#
# Velocity S-wave (km/s) = 3.55650 3.90085 3.73265
# Velocity P-wave (km/s) = 5.38068 6.01710 5.70777
#
# Compressibility (1/GPa) = 0.03497143
#
# Stress axis : x y z
#
# Youngs Moduli (GPa) = 60.70589 98.80893 40.81658
#
# Poissons Ratio (x) = 0.34915 0.03791
# Poissons Ratio (y) = 0.21451 0.14688
# Poissons Ratio (z) = 0.05638 0.35558
#
# Static dielectric constant tensor:
#      x y z
#    x 1.940250 0.000000 0.043850 
#    y 0.000000 1.935850 0.000000 
#    z 0.043850 0.000000 1.862020 
# 
# From -- ./inp_files/111007.got.cif
#   From: 2010.05.17/outbox.cif.g08.bks.cpg/sg15_56_cif.got.tgz:111007.got - 2010.06.03 18:47:42.
