data_PCOD9263619
_publ_section_title
;
Structure prediction by ZEFSAII (Michael W. Deem and Ramdas Pophale) SiO2 
 PCOD9263619
Probable space group: C 2/C
;
_chemical_formula_sum "Si O2"
_cell_formula_units_Z 56
_cell_length_a 10.848574
_cell_length_b 20.036469
_cell_length_c 22.890404
_cell_angle_alpha 90.000000
_cell_angle_beta 146.733797
_cell_angle_gamma 90.000000
_cell_volume 2729.275987
_symmetry_space_group_name_H-M "C 2/C"
_symmetry_group_IT_number 15
_symmetry_cell_setting 'monoclinic'
loop_
_space_group_symop_operation_xyz
x,y,z
-x,y,1/2-z
-x,-y,-z
x,-y,1/2+z
1/2+x,1/2+y,z
1/2-x,1/2+y,1/2-z
1/2-x,1/2-y,-z
1/2+x,1/2-y,1/2+z
loop_
_atom_site_type_symbol
_atom_site_label
_atom_site_fract_x
_atom_site_fract_y
_atom_site_fract_z
Si Si1 0.906837 0.864878 0.847196
Si Si2 0.425804 0.221789 0.788402
Si Si3 0.500000 0.512908 0.750000
Si Si4 0.223004 0.608104 0.580214
Si Si5 0.913711 0.451323 0.862611
Si Si6 0.927767 0.764638 0.120080
Si Si7 0.909940 0.594899 0.571061
Si Si8 0.000000 0.336702 0.750000
O O1 0.960050 0.791733 0.838587
O O2 0.739694 0.907887 0.740470
O O3 0.753254 0.865334 0.844973
O O4 0.146473 0.899774 0.951800
O O5 0.500000 0.229196 0.750000
O O6 0.534166 0.157617 0.864219
O O7 0.158425 0.210018 0.683798
O O8 0.443345 0.561711 0.674207
O O9 0.724915 0.471773 0.834891
O O10 0.313071 0.682062 0.616392
O O11 0.099042 0.589925 0.471213
O O12 0.055840 0.601114 0.568987
O O13 0.018481 0.520288 0.879143
O O14 0.989195 0.704053 0.185910
O O15 0.750000 0.750000 0.000000
#
# Coordination Sequence:
#
# PCOD9263619 Si02
#       8
#     8   8   4   8   8   8   8   4
#     4  11  24  43  69  93 134 174 222 278 333 398
#     4  11  26  43  65 100 135 176 225 275 328 400
#     4  10  19  34  58  86 129 160 208 270 324 388
#     4  11  20  36  64  93 127 168 216 276 326 392
#     4  11  22  39  62 103 128 172 220 273 336 394
#     4  11  23  39  66  93 131 173 218 278 332 398
#     4  11  24  41  68  98 134 176 218 276 340 393
#     4  10  23  44  60  94 125 176 226 272 338 400
#
# _framework density 20.518262
#
# number of rings (size 3 to 8) (size 9 to 14) (size 15 to 20)
#    0.000    1.143    0.000    9.429    7.000    0.000 
#    1.286    0.714    0.000    0.000    0.000    0.000 
#    0.000    0.000    0.000    0.000    0.000    0.000 
#
# Total GULP energy -156028.279790 kJ/mol
# GULP energy per Si atom -5572.438564 kJ/mol
# Density = 2.047156 g / cm^3
# Si number density = 20.518262 Si / 1000 Ang^3
#
#
#
# Elastic Constant Matrix: (Units=GPa)
#
#
# Indices 1 2 3 4 5 6 
#
# 1 89.6506 11.5464 15.4757 -0.0032 12.9211 -0.0028
# 2 11.5464 93.0672 31.5686 0.0030 3.5444 0.0024
# 3 15.4757 31.5686 133.7963 0.0133 14.5433 0.0111
# 4 -0.0032 0.0030 0.0133 556.9085 -0.0030 431.7882
# 5 12.9211 3.5444 14.5433 -0.0030 31.0352 -0.0027
# 6 -0.0028 0.0024 0.0111 431.7882 -0.0027 373.3503
#
#
#
# Elastic Compliance Matrix: (Units=1/GPa)
#
#
# Indices 1 2 3 4 5 6 
#
# 1 0.012070 -0.001107 -0.000635 0.000000 -0.004601 0.000000
# 2 -0.001107 0.011781 -0.002693 0.000000 0.000377 0.000000
# 3 -0.000635 -0.002693 0.008556 0.000000 -0.003438 0.000000
# 4 0.000000 0.000000 0.000000 0.017381 0.000000 -0.020101
# 5 -0.004601 0.000377 -0.003438 0.000000 0.035705 0.000000
# 6 0.000000 0.000000 0.000000 -0.020101 0.000000 0.025926
#
#
# Mechanical properties :
#
#
# Convention : Reuss Voigt Hill
#
# Bulk Modulus (GPa) = 42.48309 48.18838 45.33573
# Shear Modulus (GPa) = 39.02170 209.45369 124.23769
#
# Velocity S-wave (km/s) = 4.36570 10.11450 7.78982
# Velocity P-wave (km/s) = 6.79429 12.64677 10.15143
#
# Compressibility (1/GPa) = 0.02353878
#
# Stress axis : x y z
#
# Youngs Moduli (GPa) = 82.85203 84.88057 116.87054
#
# Poissons Ratio (x) = 0.09395 0.07418
# Poissons Ratio (y) = 0.09171 0.31470
# Poissons Ratio (z) = 0.05259 0.22856
#
# Static dielectric constant tensor:
#      x y z
#    x 2.115890 0.000000 -0.006730 
#    y 0.000000 1.840540 0.000000 
#    z -0.006730 0.000000 1.695360 
# 
# From -- ./inp_files/270986.got.cif
#   From: 2010.05.17/outbox.cif.g08.bks.cpg/sg15_136_cif.got.tgz:270986.got - 2010.06.03 18:47:42.
