data_PCOD9263135
_publ_section_title
;
Structure prediction by ZEFSAII (Michael W. Deem and Ramdas Pophale) SiO2 
 PCOD9263135
Probable space group: C 2/C
;
_chemical_formula_sum "Si O2"
_cell_formula_units_Z 48
_cell_length_a 20.568161
_cell_length_b 32.208001
_cell_length_c 5.264902
_cell_angle_alpha 90.000000
_cell_angle_beta 68.180344
_cell_angle_gamma 90.000000
_cell_volume 3237.913058
_symmetry_space_group_name_H-M "C 2/C"
_symmetry_group_IT_number 15
_symmetry_cell_setting 'monoclinic'
loop_
_space_group_symop_operation_xyz
x,y,z
-x,y,1/2-z
-x,-y,-z
x,-y,1/2+z
1/2+x,1/2+y,z
1/2-x,1/2+y,1/2-z
1/2-x,1/2-y,-z
1/2+x,1/2-y,1/2+z
loop_
_atom_site_type_symbol
_atom_site_label
_atom_site_fract_x
_atom_site_fract_y
_atom_site_fract_z
Si Si1 0.420817 0.515283 0.190496
Si Si2 0.374995 0.652293 0.984882
Si Si3 0.765695 0.299737 0.956629
Si Si4 0.919088 0.108307 0.406572
Si Si5 0.183048 0.281385 0.117834
Si Si6 0.042648 0.768377 0.953081
O O1 0.388822 0.485293 0.453491
O O2 0.418480 0.559864 0.329408
O O3 0.500000 0.500000 0.000000
O O4 0.398488 0.621993 0.721051
O O5 0.304125 0.675274 0.005032
O O6 0.371122 0.629858 0.262718
O O7 0.430486 0.688671 0.962016
O O8 0.819293 0.303696 0.647922
O O9 0.750000 0.250000 0.000000
O O10 0.797946 0.311317 0.178779
O O11 0.000000 0.121556 0.250000
O O12 0.113009 0.256515 0.280459
O O13 0.250000 0.250000 0.000000
O O14 0.000000 0.773602 0.750000
O O15 0.000000 0.748118 0.250000
#
# Coordination Sequence:
#
# PCOD9263135 Si02
#       6
#     8   8   8   8   8   8
#     4  10  19  34  54  60  80 122 166 174 220 322
#     4  12  23  33  45  69  95 115 143 204 260 297
#     4  10  19  34  52  59  80 122 167 173 218 319
#     4  12  23  33  45  70  94 115 143 203 261 298
#     4  10  19  34  52  59  79 122 166 173 217 321
#     4  12  23  33  47  70  94 116 145 205 261 298
#
# _framework density 14.824362000000001
#
# number of rings (size 3 to 8) (size 9 to 14) (size 15 to 20)
#    0.000    1.000    5.000    6.000    7.000    0.000 
#    0.000    0.000    0.000    0.000    0.000    0.000 
#    0.000    0.000    0.000    0.000    0.000    0.000 
#
# Total GULP energy -133612.628636 kJ/mol
# GULP energy per Si atom -5567.192860 kJ/mol
# Density = 1.479062 g / cm^3
# Si number density = 14.824362 Si / 1000 Ang^3
#
#
#
# Elastic Constant Matrix: (Units=GPa)
#
#
# Indices 1 2 3 4 5 6 
#
# 1 69.8162 30.0081 44.8271 0.0000 11.5245 0.0000
# 2 30.0081 43.0706 20.0949 0.0000 -1.4664 0.0000
# 3 44.8271 20.0949 128.9674 0.0000 23.4509 0.0000
# 4 0.0000 0.0000 0.0000 20.5325 0.0000 4.2464
# 5 11.5245 -1.4664 23.4509 0.0000 34.2341 0.0000
# 6 0.0000 0.0000 0.0000 4.2464 0.0000 11.3565
#
#
#
# Elastic Compliance Matrix: (Units=1/GPa)
#
#
# Indices 1 2 3 4 5 6 
#
# 1 0.025254 -0.015256 -0.005410 0.000000 -0.005449 0.000000
# 2 -0.015256 0.034815 -0.001516 0.000000 0.007665 0.000000
# 3 -0.005410 -0.001516 0.010910 0.000000 -0.005717 0.000000
# 4 0.000000 0.000000 0.000000 0.052785 0.000000 -0.019737
# 5 -0.005449 0.007665 -0.005717 0.000000 0.035290 0.000000
# 6 0.000000 0.000000 0.000000 -0.019737 0.000000 0.095435
#
#
# Mechanical properties :
#
#
# Convention : Reuss Voigt Hill
#
# Bulk Modulus (GPa) = 37.57232 47.96826 42.77029
# Shear Modulus (GPa) = 16.24830 23.01956 19.63393
#
# Velocity S-wave (km/s) = 3.31426 3.94486 3.64323
# Velocity P-wave (km/s) = 6.32817 7.29227 6.82726
#
# Compressibility (1/GPa) = 0.02661534
#
# Stress axis : x y z
#
# Youngs Moduli (GPa) = 39.59822 28.72315 91.65866
#
# Poissons Ratio (x) = 0.43821 0.49586
# Poissons Ratio (y) = 0.60412 0.13893
# Poissons Ratio (z) = 0.21422 0.04354
#
# Static dielectric constant tensor:
#      x y z
#    x 1.535500 0.000000 0.060870 
#    y 0.000000 1.508510 0.000000 
#    z 0.060870 0.000000 1.590120 
# 
# From -- ./inp_files/14446.got.cif
#   From: 2010.05.17/outbox.cif.g08.bks.cpg/sg15_8_cif.got.tgz:14446.got - 2010.06.03 18:47:42.
