data_PCOD9263495
_publ_section_title
;
Structure prediction by ZEFSAII (Michael W. Deem and Ramdas Pophale) SiO2 
 PCOD9263495
Probable space group: C 2/C
;
_chemical_formula_sum "Si O2"
_cell_formula_units_Z 64
_cell_length_a 9.157676
_cell_length_b 21.764686
_cell_length_c 15.559310
_cell_angle_alpha 90.000000
_cell_angle_beta 62.032066
_cell_angle_gamma 90.000000
_cell_volume 2739.000355
_symmetry_space_group_name_H-M "C 2/C"
_symmetry_group_IT_number 15
_symmetry_cell_setting 'monoclinic'
loop_
_space_group_symop_operation_xyz
x,y,z
-x,y,1/2-z
-x,-y,-z
x,-y,1/2+z
1/2+x,1/2+y,z
1/2-x,1/2+y,1/2-z
1/2-x,1/2-y,-z
1/2+x,1/2-y,1/2+z
loop_
_atom_site_type_symbol
_atom_site_label
_atom_site_fract_x
_atom_site_fract_y
_atom_site_fract_z
Si Si1 0.212775 0.592676 0.159188
Si Si2 0.714549 0.811979 0.923728
Si Si3 0.804604 0.451147 0.290782
Si Si4 0.992556 0.721223 0.851302
Si Si5 0.442538 0.926018 0.586142
Si Si6 0.006978 0.933178 0.040269
Si Si7 0.226645 0.558918 0.888433
Si Si8 0.838957 0.726750 0.245669
O O1 0.237254 0.525160 0.196551
O O2 0.189320 0.655518 0.217581
O O3 0.052714 0.579324 0.142060
O O4 0.373510 0.604316 0.055019
O O5 0.705226 0.880227 0.891092
O O6 0.637418 0.772979 0.864574
O O7 0.899855 0.787162 0.873746
O O8 0.618166 0.807576 0.041198
O O9 0.685207 0.418262 0.392395
O O10 0.756188 0.421915 0.213654
O O11 0.000000 0.445736 0.250000
O O12 0.182661 0.733781 0.818537
O O13 0.000000 0.696184 0.750000
O O14 0.583441 0.906350 0.478996
O O15 0.361565 0.992024 0.594119
O O16 0.107438 0.939509 0.101997
O O17 0.000000 0.000000 0.000000
O O18 0.000000 0.748902 0.250000
#
# Coordination Sequence:
#
# PCOD9263495 Si02
#       8
#     8   8   8   8   8   8   8   8
#     4  10  19  36  54  85 123 146 191 264 298 340
#     4  10  20  39  64  86 120 158 193 241 305 360
#     4  11  19  33  54  76 115 159 204 245 299 347
#     4   9  22  41  61  88 124 153 190 251 301 359
#     4  10  19  34  57  84 115 156 198 242 301 347
#     4   9  21  34  51  74 114 159 190 247 302 341
#     4  10  20  33  54  81 115 155 202 247 283 355
#     4  11  20  35  65  93 114 147 195 243 310 357
#
# _framework density 23.366187
#
# number of rings (size 3 to 8) (size 9 to 14) (size 15 to 20)
#    0.000    2.000    2.500    1.500    1.750    2.500 
#    0.000    4.375    5.500    0.000    0.000    0.000 
#    0.000    0.000    0.000    0.000    0.000    0.000 
#
# Total GULP energy -178409.559233 kJ/mol
# GULP energy per Si atom -5575.298726 kJ/mol
# Density = 2.331300 g / cm^3
# Si number density = 23.366187 Si / 1000 Ang^3
#
#
#
# Elastic Constant Matrix: (Units=GPa)
#
#
# Indices 1 2 3 4 5 6 
#
# 1 122.5152 6.6494 41.5105 0.0000 -17.8063 0.0000
# 2 6.6494 27.8035 -4.9670 0.0000 -1.8012 0.0000
# 3 41.5105 -4.9670 139.5877 0.0000 -17.6762 0.0000
# 4 0.0000 0.0000 0.0000 5.3331 0.0000 -0.3012
# 5 -17.8063 -1.8012 -17.6762 0.0000 35.8801 0.0000
# 6 0.0000 0.0000 0.0000 -0.3012 0.0000 21.5011
#
#
#
# Elastic Compliance Matrix: (Units=1/GPa)
#
#
# Indices 1 2 3 4 5 6 
#
# 1 0.009653 -0.002539 -0.002528 0.000000 0.003418 0.000000
# 2 -0.002539 0.037096 0.002294 0.000000 0.001733 0.000000
# 3 -0.002528 0.002294 0.008376 0.000000 0.002987 0.000000
# 4 0.000000 0.000000 0.000000 0.187657 0.000000 0.002629
# 5 0.003418 0.001733 0.002987 0.000000 0.031125 0.000000
# 6 0.000000 0.000000 0.000000 0.002629 0.000000 0.046546
#
#
# Mechanical properties :
#
#
# Convention : Reuss Voigt Hill
#
# Bulk Modulus (GPa) = 20.16959 41.81024 30.98991
# Shear Modulus (GPa) = 14.59747 28.99044 21.79395
#
# Velocity S-wave (km/s) = 2.50216 3.52618 3.05735
# Velocity P-wave (km/s) = 4.12292 5.87460 5.07491
#
# Compressibility (1/GPa) = 0.04957959
#
# Stress axis : x y z
#
# Youngs Moduli (GPa) = 103.59035 26.95705 119.39351
#
# Poissons Ratio (x) = 0.06844 0.30186
# Poissons Ratio (y) = 0.26301 -0.27394
# Poissons Ratio (z) = 0.26191 -0.06185
#
# Static dielectric constant tensor:
#      x y z
#    x 1.866340 0.000000 0.003500 
#    y 0.000000 1.908300 0.000000 
#    z 0.003500 0.000000 2.036430 
# 
# From -- ./inp_files/138570.got.cif
#   From: 2010.05.17/outbox.cif.g08.bks.cpg/sg15_70_cif.got.tgz:138570.got - 2010.06.03 18:47:42.
