data_PCOD9263206
_publ_section_title
;
Structure prediction by ZEFSAII (Michael W. Deem and Ramdas Pophale) SiO2 
 PCOD9263206
Probable space group: C 2/C
;
_chemical_formula_sum "Si O2"
_cell_formula_units_Z 56
_cell_length_a 26.825392
_cell_length_b 18.236406
_cell_length_c 9.024066
_cell_angle_alpha 90.000000
_cell_angle_beta 139.449013
_cell_angle_gamma 90.000000
_cell_volume 2870.014592
_symmetry_space_group_name_H-M "C 2/C"
_symmetry_group_IT_number 15
_symmetry_cell_setting 'monoclinic'
loop_
_space_group_symop_operation_xyz
x,y,z
-x,y,1/2-z
-x,-y,-z
x,-y,1/2+z
1/2+x,1/2+y,z
1/2-x,1/2+y,1/2-z
1/2-x,1/2-y,-z
1/2+x,1/2-y,1/2+z
loop_
_atom_site_type_symbol
_atom_site_label
_atom_site_fract_x
_atom_site_fract_y
_atom_site_fract_z
Si Si1 0.834324 0.180544 0.542631
Si Si2 0.765860 0.414215 0.895424
Si Si3 0.787523 0.038267 0.912902
Si Si4 0.082119 0.415114 0.116791
Si Si5 0.223308 0.337481 0.069529
Si Si6 0.554146 0.452735 0.232034
Si Si7 0.416717 0.923994 0.738022
O O1 0.787309 0.144769 0.302012
O O2 0.827233 0.267377 0.493970
O O3 0.785948 0.176099 0.585255
O O4 0.908540 0.126889 0.728560
O O5 0.771943 0.478918 0.788083
O O6 0.724193 0.452954 0.939514
O O7 0.844330 0.380937 0.137078
O O8 0.767279 0.116180 0.794397
O O9 0.871291 0.004478 0.069590
O O10 0.079640 0.495028 0.187137
O O11 0.091485 0.421558 0.960094
O O12 0.997375 0.383809 0.953286
O O13 0.156976 0.388697 0.854837
O O14 0.500000 0.439379 0.250000
O O15 0.500000 0.500000 0.000000
#
# Coordination Sequence:
#
# PCOD9263206 Si02
#       7
#     8   8   8   8   8   8   8
#     4  10  25  39  61  84 121 159 201 250 312 359
#     4  11  19  36  58  90 115 153 203 248 292 358
#     4  11  21  35  65  87 115 153 202 256 303 354
#     4  10  19  34  53  88 114 147 192 233 290 336
#     4  11  21  42  57  86 121 163 196 245 308 370
#     4  11  22  41  63  92 115 154 208 261 306 357
#     4  10  21  33  55  84 119 153 186 240 289 351
#
# _framework density 19.512096
#
# number of rings (size 3 to 8) (size 9 to 14) (size 15 to 20)
#    0.000    1.429    2.857    4.286    2.000    0.571 
#    2.571    1.429    0.000    3.429    0.000    0.000 
#    0.000    0.000    0.000    0.000    0.000    0.000 
#
# Total GULP energy -155902.067678 kJ/mol
# GULP energy per Si atom -5567.930989 kJ/mol
# Density = 1.946769 g / cm^3
# Si number density = 19.512096 Si / 1000 Ang^3
#
#
#
# Elastic Constant Matrix: (Units=GPa)
#
#
# Indices 1 2 3 4 5 6 
#
# 1 53.4162 26.9260 7.7757 0.0000 5.0738 0.0000
# 2 26.9260 71.9050 34.2477 0.0000 1.4456 0.0000
# 3 7.7757 34.2477 105.1400 0.0000 8.8504 0.0000
# 4 0.0000 0.0000 0.0000 20.0298 0.0000 2.1350
# 5 5.0738 1.4456 8.8504 0.0000 35.9438 0.0000
# 6 0.0000 0.0000 0.0000 2.1350 0.0000 21.1424
#
#
#
# Elastic Compliance Matrix: (Units=1/GPa)
#
#
# Indices 1 2 3 4 5 6 
#
# 1 0.023620 -0.009564 0.001651 0.000000 -0.003356 0.000000
# 2 -0.009564 0.020349 -0.006092 0.000000 0.002032 0.000000
# 3 0.001651 -0.006092 0.011613 0.000000 -0.002848 0.000000
# 4 0.000000 0.000000 0.000000 0.050469 0.000000 -0.005096
# 5 -0.003356 0.002032 -0.002848 0.000000 0.028914 0.000000
# 6 0.000000 0.000000 0.000000 -0.005096 0.000000 0.047813
#
#
# Mechanical properties :
#
#
# Convention : Reuss Voigt Hill
#
# Bulk Modulus (GPa) = 36.26789 40.92888 38.59839
# Shear Modulus (GPa) = 22.72931 26.19064 24.45997
#
# Velocity S-wave (km/s) = 3.41674 3.66768 3.54443
# Velocity P-wave (km/s) = 5.84750 6.24160 6.04776
#
# Compressibility (1/GPa) = 0.02757260
#
# Stress axis : x y z
#
# Youngs Moduli (GPa) = 42.33643 49.14147 86.10903
#
# Poissons Ratio (x) = 0.46998 -0.14216
# Poissons Ratio (y) = 0.40490 0.52460
# Poissons Ratio (z) = -0.06989 0.29938
#
# Static dielectric constant tensor:
#      x y z
#    x 1.716070 0.000000 0.042260 
#    y 0.000000 1.751000 0.000000 
#    z 0.042260 0.000000 1.728260 
# 
# From -- ./inp_files/67212.got.cif
#   From: 2010.05.17/outbox.cif.g08.bks.cpg/sg15_34_cif.got.tgz:67212.got - 2010.06.03 18:47:42.
