data_PCOD9263510
_publ_section_title
;
Structure prediction by ZEFSAII (Michael W. Deem and Ramdas Pophale) SiO2 
 PCOD9263510
Probable space group: C 2/C
;
_chemical_formula_sum "Si O2"
_cell_formula_units_Z 60
_cell_length_a 10.617359
_cell_length_b 22.373273
_cell_length_c 14.661649
_cell_angle_alpha 90.000000
_cell_angle_beta 64.752334
_cell_angle_gamma 90.000000
_cell_volume 3150.099122
_symmetry_space_group_name_H-M "C 2/C"
_symmetry_group_IT_number 15
_symmetry_cell_setting 'monoclinic'
loop_
_space_group_symop_operation_xyz
x,y,z
-x,y,1/2-z
-x,-y,-z
x,-y,1/2+z
1/2+x,1/2+y,z
1/2-x,1/2+y,1/2-z
1/2-x,1/2-y,-z
1/2+x,1/2-y,1/2+z
loop_
_atom_site_type_symbol
_atom_site_label
_atom_site_fract_x
_atom_site_fract_y
_atom_site_fract_z
Si Si1 0.838283 0.627942 0.890390
Si Si2 0.503444 0.517988 0.858618
Si Si3 0.185402 0.529585 0.757890
Si Si4 0.000000 0.733049 0.750000
Si Si5 0.433262 0.899554 0.679703
Si Si6 0.626751 0.349048 0.775840
Si Si7 0.532421 0.595779 0.017940
Si Si8 0.045502 0.567708 0.966694
O O1 0.850486 0.580923 0.802944
O O2 0.909418 0.689922 0.841486
O O3 0.925537 0.598524 0.944256
O O4 0.675127 0.632425 0.963192
O O5 0.500000 0.525938 0.750000
O O6 0.667158 0.505032 0.819903
O O7 0.428411 0.462163 0.930547
O O8 0.480464 0.573270 0.934830
O O9 0.094195 0.470179 0.793486
O O10 0.179083 0.560862 0.859725
O O11 0.895835 0.778294 0.730262
O O12 0.500000 0.872867 0.750000
O O13 0.281346 0.871560 0.704265
O O14 0.542741 0.898050 0.562917
O O15 0.500000 0.374358 0.750000
O O16 0.583719 0.369120 0.889990
O O17 0.000000 0.500000 0.000000
#
# Coordination Sequence:
#
# PCOD9263510 Si02
#       8
#     8   8   8   4   8   8   8   8
#     4  11  20  39  59  94 120 152 219 270 313 373
#     4  10  21  33  55  89 129 168 198 254 330 402
#     4  10  19  34  57  85 128 155 196 266 321 376
#     4  10  24  40  66  90 124 164 218 288 310 356
#     4  11  22  36  57  91 128 162 206 257 323 389
#     4  10  22  41  61  91 124 169 218 268 316 375
#     4  10  21  35  59  86 124 166 206 263 322 388
#     4  10  20  31  56  91 118 162 192 255 328 381
#
# _framework density 19.04702
#
# number of rings (size 3 to 8) (size 9 to 14) (size 15 to 20)
#    0.400    1.333    2.667    2.800    3.733    1.600 
#    0.000    0.000    0.000    4.000    0.000    0.000 
#    0.000    0.000    0.000    0.000    0.000    0.000 
#
# Total GULP energy -167032.598814 kJ/mol
# GULP energy per Si atom -5567.753294 kJ/mol
# Density = 1.900367 g / cm^3
# Si number density = 19.047020 Si / 1000 Ang^3
#
#
#
# Elastic Constant Matrix: (Units=GPa)
#
#
# Indices 1 2 3 4 5 6 
#
# 1 40.4484 20.7397 25.5885 0.0000 2.2348 0.0000
# 2 20.7397 79.1638 23.9701 0.0000 10.1068 0.0000
# 3 25.5885 23.9701 108.4459 0.0000 12.6458 0.0000
# 4 0.0000 0.0000 0.0000 14.7118 0.0000 2.2550
# 5 2.2348 10.1068 12.6458 0.0000 36.8918 0.0000
# 6 0.0000 0.0000 0.0000 2.2550 0.0000 12.0415
#
#
#
# Elastic Compliance Matrix: (Units=1/GPa)
#
#
# Indices 1 2 3 4 5 6 
#
# 1 0.032066 -0.006753 -0.006315 0.000000 0.002072 0.000000
# 2 -0.006753 0.015243 -0.001392 0.000000 -0.003290 0.000000
# 3 -0.006315 -0.001392 0.011385 0.000000 -0.003139 0.000000
# 4 0.000000 0.000000 0.000000 0.069981 0.000000 -0.013105
# 5 0.002072 -0.003290 -0.003139 0.000000 0.028958 0.000000
# 6 0.000000 0.000000 0.000000 -0.013105 0.000000 0.085500
#
#
# Mechanical properties :
#
#
# Convention : Reuss Voigt Hill
#
# Bulk Modulus (GPa) = 33.58755 40.96161 37.27458
# Shear Modulus (GPa) = 17.73185 23.24635 20.48910
#
# Velocity S-wave (km/s) = 3.05446 3.49732 3.28336
# Velocity P-wave (km/s) = 5.48743 6.15309 5.82977
#
# Compressibility (1/GPa) = 0.02977293
#
# Stress axis : x y z
#
# Youngs Moduli (GPa) = 31.18549 65.60493 87.83493
#
# Poissons Ratio (x) = 0.44304 0.55470
# Poissons Ratio (y) = 0.21060 0.12227
# Poissons Ratio (z) = 0.19694 0.09133
#
# Static dielectric constant tensor:
#      x y z
#    x 1.692590 0.000000 0.061530 
#    y 0.000000 1.651970 0.000000 
#    z 0.061530 0.000000 1.643660 
# 
# From -- ./inp_files/147855.got.cif
#   From: 2010.05.17/outbox.cif.g08.bks.cpg/sg15_74_cif.got.tgz:147855.got - 2010.06.03 18:47:42.
