data_PCOD9263145
_publ_section_title
;
Structure prediction by ZEFSAII (Michael W. Deem and Ramdas Pophale) SiO2 
 PCOD9263145
Probable space group: C 2/C
;
_chemical_formula_sum "Si O2"
_cell_formula_units_Z 56
_cell_length_a 29.810474
_cell_length_b 19.048310
_cell_length_c 17.571529
_cell_angle_alpha 90.000000
_cell_angle_beta 163.429200
_cell_angle_gamma 90.000000
_cell_volume 2845.668503
_symmetry_space_group_name_H-M "C 2/C"
_symmetry_group_IT_number 15
_symmetry_cell_setting 'monoclinic'
loop_
_space_group_symop_operation_xyz
x,y,z
-x,y,1/2-z
-x,-y,-z
x,-y,1/2+z
1/2+x,1/2+y,z
1/2-x,1/2+y,1/2-z
1/2-x,1/2-y,-z
1/2+x,1/2-y,1/2+z
loop_
_atom_site_type_symbol
_atom_site_label
_atom_site_fract_x
_atom_site_fract_y
_atom_site_fract_z
Si Si1 0.033840 0.250000 0.067682
Si Si2 0.254461 0.969563 0.145888
Si Si3 0.607601 0.730419 0.357603
Si Si4 0.473916 0.598755 0.484526
Si Si5 0.028391 0.969564 0.919816
Si Si6 0.047302 0.401244 0.557910
Si Si7 0.892136 0.600532 0.642134
O O1 0.207095 0.283156 0.334230
O O2 0.047174 0.216845 0.174310
O O3 0.003287 0.181989 0.966508
O O4 0.923152 0.318011 0.886373
O O5 0.302888 0.048525 0.200286
O O6 0.418329 0.927657 0.408922
O O7 0.169609 0.968927 0.089218
O O8 0.125873 0.942011 0.875873
O O9 0.500000 0.700929 0.250000
O O10 0.600094 0.814996 0.350099
O O11 0.508098 0.548524 0.610704
O O12 0.562855 0.572343 0.553447
O O13 0.289929 0.584079 0.165898
O O14 0.962002 0.415919 0.337966
O O15 0.000000 0.570806 0.750000
#
# Coordination Sequence:
#
# PCOD9263145 Si02
#       7
#     8   8   8   8   8   8   8
#     4   9  18  30  47  76 102 132 165 209 258 300
#     4  10  21  36  53  73 101 139 176 210 251 303
#     4   8  15  25  42  71 107 132 153 193 254 310
#     4  10  19  34  52  76 105 133 170 213 256 306
#     4  10  21  36  53  73 101 139 176 210 251 303
#     4  10  19  34  52  76 105 133 170 213 256 306
#     4   9  15  27  48  76 103 132 161 199 250 305
#
# _framework density 19.679030999999998
#
# number of rings (size 3 to 8) (size 9 to 14) (size 15 to 20)
#    0.000    2.571    1.429    1.714    0.000    2.286 
#    0.000    0.714    0.000    0.000    0.000    0.000 
#    0.000    0.000    0.000    0.000    0.000    0.000 
#
# Total GULP energy -156096.212661 kJ/mol
# GULP energy per Si atom -5574.864738 kJ/mol
# Density = 1.963424 g / cm^3
# Si number density = 19.679031 Si / 1000 Ang^3
#
#
#
# Elastic Constant Matrix: (Units=GPa)
#
#
# Indices 1 2 3 4 5 6 
#
# 1 112.0978 5.9829 18.2052 0.0000 27.4407 0.0000
# 2 5.9829 87.2462 1.3964 0.0000 2.0581 0.0000
# 3 18.2052 1.3964 31.9582 0.0000 8.5184 0.0000
# 4 0.0000 0.0000 0.0000 33.9982 0.0000 -4.1491
# 5 27.4407 2.0581 8.5184 0.0000 24.8580 0.0000
# 6 0.0000 0.0000 0.0000 -4.1491 0.0000 24.7496
#
#
#
# Elastic Compliance Matrix: (Units=1/GPa)
#
#
# Indices 1 2 3 4 5 6 
#
# 1 0.012659 -0.000509 -0.003825 0.000000 -0.012621 0.000000
# 2 -0.000509 0.011507 -0.000120 0.000000 -0.000350 0.000000
# 3 -0.003825 -0.000120 0.035598 0.000000 -0.007967 0.000000
# 4 0.000000 0.000000 0.000000 0.030028 0.000000 0.005034
# 5 -0.012621 -0.000350 -0.007967 0.000000 0.056920 0.000000
# 6 0.000000 0.000000 0.000000 0.005034 0.000000 0.041249
#
#
# Mechanical properties :
#
#
# Convention : Reuss Voigt Hill
#
# Bulk Modulus (GPa) = 19.66290 31.38568 25.52429
# Shear Modulus (GPa) = 23.38421 30.43566 26.90993
#
# Velocity S-wave (km/s) = 3.45088 3.93695 3.70191
# Velocity P-wave (km/s) = 5.08838 6.05389 5.59201
#
# Compressibility (1/GPa) = 0.05085721
#
# Stress axis : x y z
#
# Youngs Moduli (GPa) = 78.99745 86.90446 28.09108
#
# Poissons Ratio (x) = 0.04425 0.10744
# Poissons Ratio (y) = 0.04022 0.00336
# Poissons Ratio (z) = 0.30214 0.01039
#
# Static dielectric constant tensor:
#      x y z
#    x 1.730430 0.000000 0.017340 
#    y 0.000000 1.731690 0.000000 
#    z 0.017340 0.000000 1.691780 
# 
# From -- ./inp_files/225840.got.cif
#   From: 2010.05.17/outbox.cif.g08.bks.cpg/sg15_113_cif.got.tgz:225840.got - 2010.06.03 18:47:42.
