data_PCOD9263343
_publ_section_title
;
Structure prediction by ZEFSAII (Michael W. Deem and Ramdas Pophale) SiO2 
 PCOD9263343
Probable space group: C 2/C
;
_chemical_formula_sum "Si O2"
_cell_formula_units_Z 56
_cell_length_a 18.411061
_cell_length_b 22.687995
_cell_length_c 9.274780
_cell_angle_alpha 90.000000
_cell_angle_beta 144.406053
_cell_angle_gamma 90.000000
_cell_volume 2254.909909
_symmetry_space_group_name_H-M "C 2/C"
_symmetry_group_IT_number 15
_symmetry_cell_setting 'monoclinic'
loop_
_space_group_symop_operation_xyz
x,y,z
-x,y,1/2-z
-x,-y,-z
x,-y,1/2+z
1/2+x,1/2+y,z
1/2-x,1/2+y,1/2-z
1/2-x,1/2-y,-z
1/2+x,1/2-y,1/2+z
loop_
_atom_site_type_symbol
_atom_site_label
_atom_site_fract_x
_atom_site_fract_y
_atom_site_fract_z
Si Si1 0.893100 0.320891 0.696046
Si Si2 0.554483 0.212978 0.704007
Si Si3 0.785742 0.005266 0.148332
Si Si4 0.980207 0.913104 0.556969
Si Si5 0.408838 0.665997 0.494166
Si Si6 0.212454 0.424515 0.784094
Si Si7 0.752664 0.779180 0.306452
O O1 0.946764 0.277258 0.909229
O O2 0.867053 0.377476 0.754555
O O3 0.776639 0.303290 0.402417
O O4 0.000000 0.331935 0.750000
O O5 0.664431 0.186940 0.780258
O O6 0.380337 0.265945 0.598055
O O7 0.500000 0.175431 0.750000
O O8 0.850445 0.948242 0.329797
O O9 0.906066 0.042876 0.295697
O O10 0.696252 0.045451 0.101735
O O11 0.723610 0.979758 0.907065
O O12 0.006127 0.859430 0.493603
O O13 0.000000 0.893532 0.750000
O O14 0.343005 0.611035 0.468252
O O15 0.304900 0.712893 0.287869
O O16 0.500000 0.698406 0.750000
#
# Coordination Sequence:
#
# PCOD9263343 Si02
#       7
#     8   8   8   8   8   8   8
#     4  10  23  46  69  92 130 183 230 289 344 400
#     4  10  21  41  65  92 130 179 218 281 334 395
#     4  10  20  36  58  90 132 173 220 279 339 400
#     4  10  19  34  55  86 137 175 199 277 343 397
#     4  11  21  34  59  99 132 170 215 259 340 430
#     4  11  22  39  65  92 127 179 227 277 349 402
#     4  10  23  42  64  96 137 177 223 277 343 413
#
# _framework density 24.834695
#
# number of rings (size 3 to 8) (size 9 to 14) (size 15 to 20)
#    0.000    1.714    2.857    2.143    0.000    4.000 
#    7.714    3.571    0.000    0.000    0.000    0.000 
#    0.000    0.000    0.000    0.000    0.000    0.000 
#
# Total GULP energy -156131.935708 kJ/mol
# GULP energy per Si atom -5576.140561 kJ/mol
# Density = 2.477817 g / cm^3
# Si number density = 24.834695 Si / 1000 Ang^3
#
#
#
# Elastic Constant Matrix: (Units=GPa)
#
#
# Indices 1 2 3 4 5 6 
#
# 1 141.3347 48.5528 58.5472 0.0000 -29.5917 0.0000
# 2 48.5528 89.8288 27.9022 0.0000 -13.2605 0.0000
# 3 58.5472 27.9022 91.7672 0.0000 -28.2602 0.0000
# 4 0.0000 0.0000 0.0000 10.4508 0.0000 -12.1445
# 5 -29.5917 -13.2605 -28.2602 0.0000 48.7842 0.0000
# 6 0.0000 0.0000 0.0000 -12.1445 0.0000 35.8800
#
#
#
# Elastic Compliance Matrix: (Units=1/GPa)
#
#
# Indices 1 2 3 4 5 6 
#
# 1 0.011118 -0.004046 -0.005020 0.000000 0.002736 0.000000
# 2 -0.004046 0.013848 -0.001492 0.000000 0.000446 0.000000
# 3 -0.005020 -0.001492 0.016420 0.000000 0.006061 0.000000
# 4 0.000000 0.000000 0.000000 0.157722 0.000000 0.053385
# 5 0.002736 0.000446 0.006061 0.000000 0.025790 0.000000
# 6 0.000000 0.000000 0.000000 0.053385 0.000000 0.045940
#
#
# Mechanical properties :
#
#
# Convention : Reuss Voigt Hill
#
# Bulk Modulus (GPa) = 49.33464 65.88166 57.60815
# Shear Modulus (GPa) = 16.73846 31.55157 24.14501
#
# Velocity S-wave (km/s) = 2.59896 3.56822 3.12144
# Velocity P-wave (km/s) = 5.37722 6.60015 6.01982
#
# Compressibility (1/GPa) = 0.02026973
#
# Stress axis : x y z
#
# Youngs Moduli (GPa) = 89.94582 72.21057 60.89960
#
# Poissons Ratio (x) = 0.29216 0.30574
# Poissons Ratio (y) = 0.36391 0.09087
# Poissons Ratio (z) = 0.45157 0.10775
#
# Static dielectric constant tensor:
#      x y z
#    x 2.078470 0.000000 0.057880 
#    y 0.000000 1.996380 0.000000 
#    z 0.057880 0.000000 2.034850 
# 
# From -- ./inp_files/51567.got.cif
#   From: 2010.05.17/outbox.cif.g08.bks.cpg/sg15_26_cif.got.tgz:51567.got - 2010.06.03 18:47:42.
