data_PCOD9263721
_publ_section_title
;
Structure prediction by ZEFSAII (Michael W. Deem and Ramdas Pophale) SiO2 
 PCOD9263721
Probable space group: C 2/C
;
_chemical_formula_sum "Si O2"
_cell_formula_units_Z 48
_cell_length_a 14.685380
_cell_length_b 28.002590
_cell_length_c 15.553355
_cell_angle_alpha 90.000000
_cell_angle_beta 160.544654
_cell_angle_gamma 90.000000
_cell_volume 2130.324355
_symmetry_space_group_name_H-M "C 2/C"
_symmetry_group_IT_number 15
_symmetry_cell_setting 'monoclinic'
loop_
_space_group_symop_operation_xyz
x,y,z
-x,y,1/2-z
-x,-y,-z
x,-y,1/2+z
1/2+x,1/2+y,z
1/2-x,1/2+y,1/2-z
1/2-x,1/2-y,-z
1/2+x,1/2-y,1/2+z
loop_
_atom_site_type_symbol
_atom_site_label
_atom_site_fract_x
_atom_site_fract_y
_atom_site_fract_z
Si Si1 0.268719 0.781414 0.812885
Si Si2 0.793639 0.585594 0.746678
Si Si3 0.922114 0.284196 0.768727
Si Si4 0.890595 0.873395 0.746315
Si Si5 0.546707 0.993162 0.697776
Si Si6 0.955318 0.070696 0.802474
O O1 0.323922 0.807924 0.770032
O O2 0.132693 0.817065 0.758281
O O3 0.054446 0.739309 0.601413
O O4 0.586374 0.604890 0.492015
O O5 0.826736 0.528979 0.758674
O O6 0.686729 0.598079 0.746252
O O7 0.089542 0.606602 0.992751
O O8 0.680491 0.247990 0.526433
O O9 0.000000 0.311695 0.750000
O O10 0.000000 0.885110 0.750000
O O11 0.500000 0.017409 0.750000
O O12 0.258166 0.971969 0.410215
O O13 0.762150 0.951005 0.910036
O O14 0.000000 0.095773 0.750000
#
# Coordination Sequence:
#
# PCOD9263721 Si02
#       6
#     8   8   8   8   8   8
#     4  10  21  39  61  83 110 146 191 240 293 352
#     4  12  23  40  60  86 124 159 194 243 299 349
#     4   8  14  27  50  78 104 130 166 217 271 327
#     4  12  26  41  60  87 117 154 198 248 303 356
#     4  10  19  34  59  88 119 161 203 239 281 336
#     4  10  21  37  60  90 122 158 202 241 281 342
#
# _framework density 22.531780000000001
#
# number of rings (size 3 to 8) (size 9 to 14) (size 15 to 20)
#    0.000    1.667    0.000    5.500    0.000    2.000 
#    0.000    1.667    0.000    2.000    0.000    0.000 
#    0.000    0.000    0.000    0.000    0.000    0.000 
#
# Total GULP energy -134139.556315 kJ/mol
# GULP energy per Si atom -5589.148180 kJ/mol
# Density = 2.248050 g / cm^3
# Si number density = 22.531780 Si / 1000 Ang^3
#
#
#
# Elastic Constant Matrix: (Units=GPa)
#
#
# Indices 1 2 3 4 5 6 
#
# 1 185.0409 17.6951 40.2333 -0.0056 -5.1007 0.0042
# 2 17.6951 11.1530 5.5866 -0.0002 -3.4692 -0.0044
# 3 40.2333 5.5866 127.0193 -0.0030 7.4707 -0.0028
# 4 -0.0056 -0.0002 -0.0030 10.7202 -0.0032 0.4487
# 5 -5.1007 -3.4692 7.4707 -0.0032 30.7945 0.0044
# 6 0.0042 -0.0044 -0.0028 0.4487 0.0044 16.7596
#
#
#
# Elastic Compliance Matrix: (Units=1/GPa)
#
#
# Indices 1 2 3 4 5 6 
#
# 1 0.006715 -0.009650 -0.001729 0.000003 0.000445 -0.000005
# 2 -0.009650 0.109725 -0.002437 -0.000002 0.011354 0.000028
# 3 -0.001729 -0.002437 0.008684 0.000001 -0.002668 0.000002
# 4 0.000003 -0.000002 0.000001 0.093387 0.000010 -0.002500
# 5 0.000445 0.011354 -0.002668 0.000010 0.034473 -0.000007
# 6 -0.000005 0.000028 0.000002 -0.002500 -0.000007 0.059734
#
#
# Mechanical properties :
#
#
# Convention : Reuss Voigt Hill
#
# Bulk Modulus (GPa) = 10.25717 50.02702 30.14210
# Shear Modulus (GPa) = 13.41030 28.96807 21.18918
#
# Velocity S-wave (km/s) = 2.44226 3.58949 3.06994
# Velocity P-wave (km/s) = 3.53766 6.27936 5.09634
#
# Compressibility (1/GPa) = 0.09749274
#
# Stress axis : x y z
#
# Youngs Moduli (GPa) = 148.91727 9.11373 115.14781
#
# Poissons Ratio (x) = 0.08795 0.19906
# Poissons Ratio (y) = 1.43703 0.28063
# Poissons Ratio (z) = 0.25744 0.02221
#
# Static dielectric constant tensor:
#      x y z
#    x 1.900550 0.000000 -0.002650 
#    y 0.000000 1.854360 0.000000 
#    z -0.002650 0.000000 1.775400 
# 
# From -- ./inp_files/157620.got.cif
#   From: 2010.05.17/outbox.cif.g08.bks.cpg/sg15_79_cif.got.tgz:157620.got - 2010.06.03 18:47:42.
