data_PCOD9263037
_publ_section_title
;
Structure prediction by ZEFSAII (Michael W. Deem and Ramdas Pophale) SiO2 
 PCOD9263037
Probable space group: C 2/C
;
_chemical_formula_sum "Si O2"
_cell_formula_units_Z 60
_cell_length_a 22.307975
_cell_length_b 21.737310
_cell_length_c 8.932050
_cell_angle_alpha 90.000000
_cell_angle_beta 38.531781
_cell_angle_gamma 90.000000
_cell_volume 2698.170166
_symmetry_space_group_name_H-M "C 2/C"
_symmetry_group_IT_number 15
_symmetry_cell_setting 'monoclinic'
loop_
_space_group_symop_operation_xyz
x,y,z
-x,y,1/2-z
-x,-y,-z
x,-y,1/2+z
1/2+x,1/2+y,z
1/2-x,1/2+y,1/2-z
1/2-x,1/2-y,-z
1/2+x,1/2-y,1/2+z
loop_
_atom_site_type_symbol
_atom_site_label
_atom_site_fract_x
_atom_site_fract_y
_atom_site_fract_z
Si Si1 0.748474 0.329309 0.889019
Si Si2 0.438641 0.870401 0.642596
Si Si3 0.133553 0.629918 0.871328
Si Si4 0.206633 0.794274 0.313274
Si Si5 0.500000 0.657141 0.250000
Si Si6 0.096511 0.507132 0.466038
Si Si7 0.699365 0.454363 0.835093
Si Si8 0.920339 0.045638 0.222893
O O1 0.863844 0.336580 0.682044
O O2 0.739725 0.271420 0.796581
O O3 0.698362 0.391229 0.931526
O O4 0.715424 0.316509 0.122865
O O5 0.547252 0.845286 0.435885
O O6 0.427720 0.940685 0.608051
O O7 0.401322 0.866712 0.886340
O O8 0.235283 0.663031 0.683184
O O9 0.131747 0.558164 0.835854
O O10 0.093933 0.800580 0.559690
O O11 0.473525 0.607610 0.171434
O O12 0.188287 0.528203 0.383664
O O13 0.000000 0.499378 0.750000
O O14 0.656116 0.442677 0.757987
O O15 0.636778 0.508724 0.034773
O O16 0.000000 0.000000 0.000000
#
# Coordination Sequence:
#
# PCOD9263037 Si02
#       8
#     8   8   8   8   4   8   8   8
#     4   9  21  44  66  89 129 175 226 268 333 401
#     4   9  19  35  56  88 119 157 203 261 313 387
#     4  10  19  33  60  86 119 156 213 254 312 386
#     4  10  22  42  67  90 126 182 223 274 327 393
#     4  12  24  42  68 100 136 172 224 282 340 390
#     4  11  22  33  57  91 130 161 195 256 332 392
#     4  11  25  41  68  99 136 172 221 278 340 408
#     4  12  24  43  69 103 135 177 222 283 347 403
#
# _framework density 22.237293000000001
#
# number of rings (size 3 to 8) (size 9 to 14) (size 15 to 20)
#    0.000    1.600    2.667    2.000    5.600    1.067 
#    7.200    0.667    2.933    0.000    0.000    0.000 
#    0.000    0.000    0.000    0.000    0.000    0.000 
#
# Total GULP energy -167510.418974 kJ/mol
# GULP energy per Si atom -5583.680632 kJ/mol
# Density = 2.218668 g / cm^3
# Si number density = 22.237293 Si / 1000 Ang^3
#
#
#
# Elastic Constant Matrix: (Units=GPa)
#
#
# Indices 1 2 3 4 5 6 
#
# 1 96.6656 -20.8967 5.0049 0.0000 -20.3148 0.0000
# 2 -20.8967 27.4926 -7.2394 0.0000 0.3720 0.0000
# 3 5.0049 -7.2394 62.0048 0.0000 -24.7167 0.0000
# 4 0.0000 0.0000 0.0000 21.3096 0.0000 -1.4023
# 5 -20.3148 0.3720 -24.7167 0.0000 32.7006 0.0000
# 6 0.0000 0.0000 0.0000 -1.4023 0.0000 16.1438
#
#
#
# Elastic Compliance Matrix: (Units=1/GPa)
#
#
# Indices 1 2 3 4 5 6 
#
# 1 0.015957 0.013511 0.005982 0.000000 0.014281 0.000000
# 2 0.013511 0.049360 0.011156 0.000000 0.016264 0.000000
# 3 0.005982 0.011156 0.026304 0.000000 0.023471 0.000000
# 4 0.000000 0.000000 0.000000 0.047197 0.000000 0.004100
# 5 0.014281 0.016264 0.023471 0.000000 0.057008 0.000000
# 6 0.000000 0.000000 0.000000 0.004100 0.000000 0.062299
#
#
# Mechanical properties :
#
#
# Convention : Reuss Voigt Hill
#
# Bulk Modulus (GPa) = 6.53944 15.54454 11.04199
# Shear Modulus (GPa) = 20.17752 27.98375 24.08064
#
# Velocity S-wave (km/s) = 3.01553 3.55126 3.29431
# Velocity P-wave (km/s) = 3.88223 4.88065 4.40979
#
# Compressibility (1/GPa) = 0.15291820
#
# Stress axis : x y z
#
# Youngs Moduli (GPa) = 62.66782 20.25924 38.01774
#
# Poissons Ratio (x) = -0.27372 -0.22743
# Poissons Ratio (y) = -0.84669 -0.42411
# Poissons Ratio (z) = -0.37489 -0.22601
#
# Static dielectric constant tensor:
#      x y z
#    x 1.829640 0.000000 -0.012190 
#    y 0.000000 1.850470 0.000000 
#    z -0.012190 0.000000 1.843690 
# 
# From -- ./inp_files/58726.got.cif
#   From: 2010.05.17/outbox.cif.g08.bks.cpg/sg15_30_cif.got.tgz:58726.got - 2010.06.03 18:47:42.
