data_PCOD9263303
_publ_section_title
;
Structure prediction by ZEFSAII (Michael W. Deem and Ramdas Pophale) SiO2 
 PCOD9263303
Probable space group: C 2/C
;
_chemical_formula_sum "Si O2"
_cell_formula_units_Z 56
_cell_length_a 23.164893
_cell_length_b 19.927007
_cell_length_c 9.330791
_cell_angle_alpha 90.000000
_cell_angle_beta 133.233313
_cell_angle_gamma 90.000000
_cell_volume 3138.068450
_symmetry_space_group_name_H-M "C 2/C"
_symmetry_group_IT_number 15
_symmetry_cell_setting 'monoclinic'
loop_
_space_group_symop_operation_xyz
x,y,z
-x,y,1/2-z
-x,-y,-z
x,-y,1/2+z
1/2+x,1/2+y,z
1/2-x,1/2+y,1/2-z
1/2-x,1/2-y,-z
1/2+x,1/2-y,1/2+z
loop_
_atom_site_type_symbol
_atom_site_label
_atom_site_fract_x
_atom_site_fract_y
_atom_site_fract_z
Si Si1 0.926934 0.124611 0.042197
Si Si2 0.589023 0.777722 0.388861
Si Si3 0.749540 0.427319 0.226691
Si Si4 0.753850 0.704838 0.152117
Si Si5 0.187895 0.286665 0.288257
Si Si6 0.770842 0.054057 0.485426
Si Si7 0.455761 0.445616 0.324900
O O1 0.916184 0.198420 0.086229
O O2 0.000000 0.092162 0.250000
O O3 0.844991 0.086904 0.928361
O O4 0.949701 0.121204 0.913857
O O5 0.500000 0.805930 0.250000
O O6 0.660121 0.797856 0.620022
O O7 0.613139 0.789552 0.264978
O O8 0.786632 0.360767 0.219498
O O9 0.768578 0.438742 0.425681
O O10 0.767701 0.494505 0.170623
O O11 0.691975 0.740066 0.155350
O O12 0.750000 0.750000 0.000000
O O13 0.731930 0.628138 0.085566
O O14 0.250000 0.250000 0.500000
O O15 0.863851 0.034710 0.652317
O O16 0.500000 0.436002 0.250000
O O17 0.500000 0.500000 0.500000
#
# Coordination Sequence:
#
# PCOD9263303 Si02
#       7
#     8   8   8   8   8   8   8
#     4  10  19  34  55  80 121 155 199 238 285 355
#     4  10  22  39  62  89 116 163 202 251 307 366
#     4  11  21  37  53  92 113 154 205 244 305 360
#     4  11  20  41  60  90 125 158 204 259 297 355
#     4  10  20  38  64  83 119 161 201 251 304 365
#     4  11  24  33  59  85 120 159 202 250 300 367
#     4  11  21  36  48  79 125 168 191 236 282 355
#
# _framework density 17.845372999999999
#
# number of rings (size 3 to 8) (size 9 to 14) (size 15 to 20)
#    0.000    1.429    4.286    3.857    4.000    2.286 
#    0.000    0.714    0.000    0.857    0.000    0.000 
#    0.000    0.000    0.000    0.000    0.000    0.000 
#
# Total GULP energy -155967.301889 kJ/mol
# GULP energy per Si atom -5570.260782 kJ/mol
# Density = 1.780476 g / cm^3
# Si number density = 17.845373 Si / 1000 Ang^3
#
#
#
# Elastic Constant Matrix: (Units=GPa)
#
#
# Indices 1 2 3 4 5 6 
#
# 1 145.7959 52.7705 48.1842 0.0000 -33.7985 0.0000
# 2 52.7705 140.8118 37.9857 0.0000 -29.3103 0.0000
# 3 48.1842 37.9857 72.3110 0.0000 -18.6155 0.0000
# 4 0.0000 0.0000 0.0000 26.3604 0.0000 -5.8324
# 5 -33.7985 -29.3103 -18.6155 0.0000 41.7246 0.0000
# 6 0.0000 0.0000 0.0000 -5.8324 0.0000 13.7507
#
#
#
# Elastic Compliance Matrix: (Units=1/GPa)
#
#
# Indices 1 2 3 4 5 6 
#
# 1 0.010107 -0.001476 -0.004653 0.000000 0.005074 0.000000
# 2 -0.001476 0.009263 -0.002841 0.000000 0.004043 0.000000
# 3 -0.004653 -0.002841 0.019136 0.000000 0.002772 0.000000
# 4 0.000000 0.000000 0.000000 0.041865 0.000000 0.017757
# 5 0.005074 0.004043 0.002772 0.000000 0.032154 0.000000
# 6 0.000000 0.000000 0.000000 0.017757 0.000000 0.080255
#
#
# Mechanical properties :
#
#
# Convention : Reuss Voigt Hill
#
# Bulk Modulus (GPa) = 48.62653 70.75550 59.69101
# Shear Modulus (GPa) = 22.98034 31.03236 27.00635
#
# Velocity S-wave (km/s) = 3.59241 4.17461 3.89440
# Velocity P-wave (km/s) = 6.67197 7.93547 7.33099
#
# Compressibility (1/GPa) = 0.02056491
#
# Stress axis : x y z
#
# Youngs Moduli (GPa) = 98.93713 107.95527 52.25735
#
# Poissons Ratio (x) = 0.15938 0.24316
# Poissons Ratio (y) = 0.14607 0.14848
# Poissons Ratio (z) = 0.46037 0.30673
#
# Static dielectric constant tensor:
#      x y z
#    x 1.646460 0.000000 -0.003250 
#    y 0.000000 1.620940 0.000000 
#    z -0.003250 0.000000 1.675760 
# 
# From -- ./inp_files/63291.got.cif
#   From: 2010.05.17/outbox.cif.g08.bks.cpg/sg15_32_cif.got.tgz:63291.got - 2010.06.03 18:47:42.
