data_PCOD9263405
_publ_section_title
;
Structure prediction by ZEFSAII (Michael W. Deem and Ramdas Pophale) SiO2 
 PCOD9263405
Probable space group: C 2/C
;
_chemical_formula_sum "Si O2"
_cell_formula_units_Z 40
_cell_length_a 17.849519
_cell_length_b 6.972529
_cell_length_c 14.045595
_cell_angle_alpha 90.000000
_cell_angle_beta 61.157174
_cell_angle_gamma 90.000000
_cell_volume 1531.209072
_symmetry_space_group_name_H-M "C 2/C"
_symmetry_group_IT_number 15
_symmetry_cell_setting 'monoclinic'
loop_
_space_group_symop_operation_xyz
x,y,z
-x,y,1/2-z
-x,-y,-z
x,-y,1/2+z
1/2+x,1/2+y,z
1/2-x,1/2+y,1/2-z
1/2-x,1/2-y,-z
1/2+x,1/2-y,1/2+z
loop_
_atom_site_type_symbol
_atom_site_label
_atom_site_fract_x
_atom_site_fract_y
_atom_site_fract_z
Si Si1 0.700775 0.977408 0.714463
Si Si2 0.987200 0.217774 0.443061
Si Si3 0.354393 0.418490 0.758361
Si Si4 0.483229 0.859421 0.649815
Si Si5 0.310003 0.432290 0.988849
O O1 0.662320 0.189170 0.724012
O O2 0.751300 0.927527 0.586978
O O3 0.773183 0.989365 0.749483
O O4 0.620095 0.853056 0.794235
O O5 0.018287 0.259482 0.531980
O O6 0.891202 0.140042 0.498706
O O7 0.053877 0.079008 0.348396
O O8 0.986639 0.420060 0.386502
O O9 0.349104 0.504597 0.866405
O O10 0.500000 0.809330 0.750000
O O11 0.250000 0.250000 0.000000
#
# Coordination Sequence:
#
# PCOD9263405 Si02
#       5
#     8   8   8   8   8
#     4  10  21  36  58  85 115 151 195 237 288 347
#     4  10  20  35  57  83 115 155 199 236 285 352
#     4  10  21  38  59  85 116 154 194 240 288 345
#     4  10  19  34  56  84 115 152 198 245 284 336
#     4  10  19  35  58  81 112 152 192 234 286 346
#
# _framework density 26.123149000000002
#
# number of rings (size 3 to 8) (size 9 to 14) (size 15 to 20)
#    0.000    2.000    0.000    6.600    0.000    4.000 
#    0.000    6.000    0.000    0.000    0.000    0.000 
#    0.000    0.000    0.000    0.000    0.000    0.000 
#
# Total GULP energy -111975.306724 kJ/mol
# GULP energy per Si atom -5598.765336 kJ/mol
# Density = 2.606369 g / cm^3
# Si number density = 26.123149 Si / 1000 Ang^3
#
#
#
# Elastic Constant Matrix: (Units=GPa)
#
#
# Indices 1 2 3 4 5 6 
#
# 1 101.7965 9.1287 32.1010 0.0000 -6.5280 -0.0001
# 2 9.1287 46.2103 22.6672 0.0000 -8.3698 -0.0003
# 3 32.1010 22.6672 170.8166 0.0000 11.6544 0.0000
# 4 0.0000 0.0000 0.0000 41.9754 0.0000 -4.3222
# 5 -6.5280 -8.3698 11.6544 0.0000 58.5409 0.0000
# 6 -0.0001 -0.0003 0.0000 -4.3222 0.0000 11.2680
#
#
#
# Elastic Compliance Matrix: (Units=1/GPa)
#
#
# Indices 1 2 3 4 5 6 
#
# 1 0.010619 -0.000863 -0.001980 0.000000 0.001455 0.000000
# 2 -0.000863 0.024167 -0.003319 0.000000 0.004020 0.000001
# 3 -0.001980 -0.003319 0.006807 0.000000 -0.002050 0.000000
# 4 0.000000 0.000000 0.000000 0.024803 0.000000 0.009514
# 5 0.001455 0.004020 -0.002050 0.000000 0.018227 0.000000
# 6 0.000000 0.000001 0.000000 0.009514 0.000000 0.092396
#
#
# Mechanical properties :
#
#
# Convention : Reuss Voigt Hill
#
# Bulk Modulus (GPa) = 34.16710 49.62414 41.89562
# Shear Modulus (GPa) = 25.11315 39.35197 32.23256
#
# Velocity S-wave (km/s) = 3.10391 3.88545 3.51646
# Velocity P-wave (km/s) = 5.09444 6.25831 5.70613
#
# Compressibility (1/GPa) = 0.02926792
#
# Stress axis : x y z
#
# Youngs Moduli (GPa) = 94.17363 41.37916 146.91369
#
# Poissons Ratio (x) = 0.03570 0.29094
# Poissons Ratio (y) = 0.08125 0.48761
# Poissons Ratio (z) = 0.18649 0.13734
#
# Static dielectric constant tensor:
#      x y z
#    x 1.982910 0.000000 0.002620 
#    y 0.000000 2.112610 0.000000 
#    z 0.002620 0.000000 2.082830 
# 
# From -- ./inp_files/94663.got.cif
#   From: 2010.05.17/outbox.cif.g08.bks.cpg/sg15_48_cif.got.tgz:94663.got - 2010.06.03 18:47:42.
