data_PCOD9263786
_publ_section_title
;
Structure prediction by ZEFSAII (Michael W. Deem and Ramdas Pophale) SiO2 
 PCOD9263786
Probable space group: C 2/C
;
_chemical_formula_sum "Si O2"
_cell_formula_units_Z 52
_cell_length_a 6.625705
_cell_length_b 17.007239
_cell_length_c 24.758829
_cell_angle_alpha 90.000000
_cell_angle_beta 65.707128
_cell_angle_gamma 90.000000
_cell_volume 2542.909987
_symmetry_space_group_name_H-M "C 2/C"
_symmetry_group_IT_number 15
_symmetry_cell_setting 'monoclinic'
loop_
_space_group_symop_operation_xyz
x,y,z
-x,y,1/2-z
-x,-y,-z
x,-y,1/2+z
1/2+x,1/2+y,z
1/2-x,1/2+y,1/2-z
1/2-x,1/2-y,-z
1/2+x,1/2-y,1/2+z
loop_
_atom_site_type_symbol
_atom_site_label
_atom_site_fract_x
_atom_site_fract_y
_atom_site_fract_z
Si Si1 0.981245 0.156007 0.506190
Si Si2 0.404429 0.034805 0.953170
Si Si3 0.360094 0.150014 0.652976
Si Si4 0.320363 0.275898 0.912486
Si Si5 0.034450 0.747350 0.306675
Si Si6 0.000000 0.328938 0.250000
Si Si7 0.054025 0.630132 0.087524
O O1 0.837983 0.075773 0.517072
O O2 0.872245 0.208864 0.564817
O O3 0.920522 0.204348 0.459342
O O4 0.245723 0.150553 0.476194
O O5 0.554160 0.101445 0.907847
O O6 0.407866 0.962249 0.911129
O O7 0.500000 0.000000 0.000000
O O8 0.479266 0.235653 0.639985
O O9 0.431297 0.120573 0.704466
O O10 0.105519 0.171773 0.674948
O O11 0.190247 0.352787 0.908589
O O12 0.287729 0.773687 0.285453
O O13 0.000000 0.716015 0.250000
O O14 0.947102 0.684586 0.359666
#
# Coordination Sequence:
#
# PCOD9263786 Si02
#       7
#     8   8   8   8   8   4   8
#     4  10  21  36  55  88 125 161 196 239 287 371
#     4  11  24  40  57  90 138 160 191 244 316 370
#     4  10  21  41  63  89 119 162 201 254 303 366
#     4  10  19  34  60  88 118 154 206 242 287 354
#     4  10  22  39  68  88 113 153 214 261 297 351
#     4  10  20  42  68  88 108 154 222 260 294 350
#     4  12  21  37  61  90 117 161 195 248 305 355
#
# _framework density 20.449013000000001
#
# number of rings (size 3 to 8) (size 9 to 14) (size 15 to 20)
#    0.000    1.538    4.615    0.923    0.000    1.231 
#    4.154    0.000    5.077    0.000    0.000    0.000 
#    0.000    0.000    0.000    0.000    0.000    0.000 
#
# Total GULP energy -144781.862587 kJ/mol
# GULP energy per Si atom -5568.533176 kJ/mol
# Density = 2.040247 g / cm^3
# Si number density = 20.449013 Si / 1000 Ang^3
#
#
#
# Elastic Constant Matrix: (Units=GPa)
#
#
# Indices 1 2 3 4 5 6 
#
# 1 78.4705 18.5686 30.0195 0.0000 -13.7441 0.0000
# 2 18.5686 58.9833 22.4350 0.0000 -6.1610 0.0000
# 3 30.0195 22.4350 81.6557 0.0000 -1.3290 0.0000
# 4 0.0000 0.0000 0.0000 28.3112 0.0000 -2.3735
# 5 -13.7441 -6.1610 -1.3290 0.0000 42.1398 0.0000
# 6 0.0000 0.0000 0.0000 -2.3735 0.0000 22.2434
#
#
#
# Elastic Compliance Matrix: (Units=1/GPa)
#
#
# Indices 1 2 3 4 5 6 
#
# 1 0.016162 -0.002640 -0.005139 0.000000 0.004723 0.000000
# 2 -0.002640 0.019654 -0.004399 0.000000 0.001874 0.000000
# 3 -0.005139 -0.004399 0.015315 0.000000 -0.001836 0.000000
# 4 0.000000 0.000000 0.000000 0.035641 0.000000 0.003803
# 5 0.004723 0.001874 -0.001836 0.000000 0.025487 0.000000
# 6 0.000000 0.000000 0.000000 0.003803 0.000000 0.045363
#
#
# Mechanical properties :
#
#
# Convention : Reuss Voigt Hill
#
# Bulk Modulus (GPa) = 37.34963 40.12840 38.73902
# Shear Modulus (GPa) = 26.19149 28.41132 27.30141
#
# Velocity S-wave (km/s) = 3.58274 3.73147 3.65786
# Velocity P-wave (km/s) = 5.95139 6.18316 6.06838
#
# Compressibility (1/GPa) = 0.02677403
#
# Stress axis : x y z
#
# Youngs Moduli (GPa) = 61.87474 50.88056 65.29658
#
# Poissons Ratio (x) = 0.13431 0.33559
# Poissons Ratio (y) = 0.16333 0.28724
# Poissons Ratio (z) = 0.31800 0.22382
#
# Static dielectric constant tensor:
#      x y z
#    x 1.781720 0.000000 0.018410 
#    y 0.000000 1.733230 0.000000 
#    z 0.018410 0.000000 1.810360 
# 
# From -- ./inp_files/285786.got.cif
#   From: 2010.05.17/outbox.cif.g08.bks.cpg/sg15_143_cif.got.tgz:285786.got - 2010.06.03 18:47:42.
