data_PCOD9263833
_publ_section_title
;
Structure prediction by ZEFSAII (Michael W. Deem and Ramdas Pophale) SiO2 
 PCOD9263833
Probable space group: C 2/C
;
_chemical_formula_sum "Si O2"
_cell_formula_units_Z 48
_cell_length_a 5.081466
_cell_length_b 23.584590
_cell_length_c 21.170768
_cell_angle_alpha 90.000000
_cell_angle_beta 120.298358
_cell_angle_gamma 90.000000
_cell_volume 2190.640168
_symmetry_space_group_name_H-M "C 2/C"
_symmetry_group_IT_number 15
_symmetry_cell_setting 'monoclinic'
loop_
_space_group_symop_operation_xyz
x,y,z
-x,y,1/2-z
-x,-y,-z
x,-y,1/2+z
1/2+x,1/2+y,z
1/2-x,1/2+y,1/2-z
1/2-x,1/2-y,-z
1/2+x,1/2-y,1/2+z
loop_
_atom_site_type_symbol
_atom_site_label
_atom_site_fract_x
_atom_site_fract_y
_atom_site_fract_z
Si Si1 0.660376 0.678989 0.446436
Si Si2 0.889028 0.960202 0.044628
Si Si3 0.891207 0.168667 0.547724
Si Si4 0.748971 0.938571 0.591355
Si Si5 0.257883 0.757307 0.833200
Si Si6 0.364463 0.123515 0.300522
O O1 0.500698 0.692193 0.492879
O O2 0.565170 0.616014 0.410372
O O3 0.614645 0.720648 0.382042
O O4 0.025121 0.673969 0.502826
O O5 0.014661 0.896493 0.064557
O O6 0.921870 0.001871 0.108557
O O7 0.533972 0.946187 0.990034
O O8 0.000000 0.000000 0.000000
O O9 0.033201 0.204986 0.621476
O O10 0.598978 0.921314 0.639186
O O11 0.446121 0.812446 0.831457
O O12 0.000000 0.744113 0.750000
O O13 0.500000 0.108048 0.250000
O O14 0.000000 0.126934 0.250000
#
# Coordination Sequence:
#
# PCOD9263833 Si02
#       6
#     8   8   8   8   8   8
#     4  10  21  38  60  91 120 156 207 260 307 368
#     4  10  19  34  61  87 118 154 199 259 305 355
#     4  11  22  38  61  90 124 161 206 257 309 376
#     4   9  20  35  59  90 115 149 201 255 304 355
#     4  10  23  39  61  89 126 165 205 254 321 382
#     4  10  23  39  61  87 117 157 200 250 306 363
#
# _framework density 21.911401999999999
#
# number of rings (size 3 to 8) (size 9 to 14) (size 15 to 20)
#    0.000    2.000    1.667    1.000    2.333   10.667 
#    0.000    0.000    3.667    0.000    0.000    0.000 
#    0.000    0.000    0.000    0.000    0.000    0.000 
#
# Total GULP energy -134076.621543 kJ/mol
# GULP energy per Si atom -5586.525898 kJ/mol
# Density = 2.186153 g / cm^3
# Si number density = 21.911402 Si / 1000 Ang^3
#
#
#
# Elastic Constant Matrix: (Units=GPa)
#
#
# Indices 1 2 3 4 5 6 
#
# 1 82.4773 15.6318 21.1298 0.0000 -11.8590 0.0000
# 2 15.6318 150.5802 61.0921 0.0000 -9.7478 0.0000
# 3 21.1298 61.0921 119.2989 0.0000 -6.9920 0.0000
# 4 0.0000 0.0000 0.0000 27.4780 0.0000 -5.3669
# 5 -11.8590 -9.7478 -6.9920 0.0000 31.9831 0.0000
# 6 0.0000 0.0000 0.0000 -5.3669 0.0000 16.7453
#
#
#
# Elastic Compliance Matrix: (Units=1/GPa)
#
#
# Indices 1 2 3 4 5 6 
#
# 1 0.013316 -0.000309 -0.001941 0.000000 0.004419 0.000000
# 2 -0.000309 0.008475 -0.004194 0.000000 0.001552 0.000000
# 3 -0.001941 -0.004194 0.010897 0.000000 0.000384 0.000000
# 4 0.000000 0.000000 0.000000 0.038823 0.000000 0.012443
# 5 0.004419 0.001552 0.000384 0.000000 0.033462 0.000000
# 6 0.000000 0.000000 0.000000 0.012443 0.000000 0.063706
#
#
# Mechanical properties :
#
#
# Convention : Reuss Voigt Hill
#
# Bulk Modulus (GPa) = 50.50867 60.89597 55.70232
# Shear Modulus (GPa) = 26.57211 32.20813 29.39012
#
# Velocity S-wave (km/s) = 3.48617 3.83812 3.66637
# Velocity P-wave (km/s) = 6.26944 6.89157 6.58786
#
# Compressibility (1/GPa) = 0.01979858
#
# Stress axis : x y z
#
# Youngs Moduli (GPa) = 75.09892 117.99106 91.77145
#
# Poissons Ratio (x) = 0.03641 0.17817
# Poissons Ratio (y) = 0.02318 0.38494
# Poissons Ratio (z) = 0.14580 0.49491
#
# Static dielectric constant tensor:
#      x y z
#    x 1.928170 0.000000 0.015240 
#    y 0.000000 1.911650 0.000000 
#    z 0.015240 0.000000 1.831270 
# 
# From -- ./inp_files/227693.got.cif
#   From: 2010.05.17/outbox.cif.g08.bks.cpg/sg15_114_cif.got.tgz:227693.got - 2010.06.03 18:47:42.
