data_PCOD9263336
_publ_section_title
;
Structure prediction by ZEFSAII (Michael W. Deem and Ramdas Pophale) SiO2 
 PCOD9263336
Probable space group: C 2/C
;
_chemical_formula_sum "Si O2"
_cell_formula_units_Z 56
_cell_length_a 25.313159
_cell_length_b 5.226971
_cell_length_c 20.021587
_cell_angle_alpha 90.000000
_cell_angle_beta 84.185524
_cell_angle_gamma 90.000000
_cell_volume 2635.450032
_symmetry_space_group_name_H-M "C 2/C"
_symmetry_group_IT_number 15
_symmetry_cell_setting 'monoclinic'
loop_
_space_group_symop_operation_xyz
x,y,z
-x,y,1/2-z
-x,-y,-z
x,-y,1/2+z
1/2+x,1/2+y,z
1/2-x,1/2+y,1/2-z
1/2-x,1/2-y,-z
1/2+x,1/2-y,1/2+z
loop_
_atom_site_type_symbol
_atom_site_label
_atom_site_fract_x
_atom_site_fract_y
_atom_site_fract_z
Si Si1 0.307204 0.081642 0.388565
Si Si2 0.498129 0.747286 0.453606
Si Si3 0.383798 0.804668 0.465986
Si Si4 0.892098 0.588568 0.600965
Si Si5 0.795178 0.921490 0.799468
Si Si6 0.820837 0.272145 0.685529
Si Si7 0.692430 0.486185 0.947360
O O1 0.357668 0.034461 0.428700
O O2 0.307878 0.843726 0.335474
O O3 0.254636 0.074146 0.441890
O O4 0.304481 0.344753 0.349116
O O5 0.500000 0.500000 0.500000
O O6 0.440155 0.732426 0.426787
O O7 0.551714 0.765655 0.402778
O O8 0.500000 0.000000 0.500000
O O9 0.337118 0.597003 0.483865
O O10 0.398050 0.883945 0.539980
O O11 0.872009 0.449819 0.670491
O O12 0.844818 0.767884 0.579322
O O13 0.826466 0.019442 0.729816
O O14 0.733002 0.914953 0.786007
O O15 0.807683 0.197327 0.611241
#
# Coordination Sequence:
#
# PCOD9263336 Si02
#       7
#     8   8   8   8   8   8   8
#     4  11  24  36  54  87 119 158 184 225 300 360
#     4  10  20  36  57  84 113 151 196 238 283 334
#     4  10  22  36  55  83 123 154 186 234 289 362
#     4  10  20  35  60  86 114 151 199 243 293 339
#     4  11  23  37  58  82 114 152 194 237 283 347
#     4  10  21  37  56  86 112 149 198 249 286 331
#     4  10  19  34  55  85 117 150 186 235 290 349
#
# _framework density 21.248743000000001
#
# number of rings (size 3 to 8) (size 9 to 14) (size 15 to 20)
#    0.000    1.714    2.857    2.143    4.000    0.571 
#    0.000    0.000    0.000    0.857    0.000    0.000 
#    0.000    0.000    0.000    0.000    0.000    0.000 
#
# Total GULP energy -156162.916279 kJ/mol
# GULP energy per Si atom -5577.247010 kJ/mol
# Density = 2.120038 g / cm^3
# Si number density = 21.248743 Si / 1000 Ang^3
#
#
#
# Elastic Constant Matrix: (Units=GPa)
#
#
# Indices 1 2 3 4 5 6 
#
# 1 99.6181 -3.5670 17.8794 0.0000 -14.9838 0.0000
# 2 -3.5670 91.1200 28.3063 0.0000 -8.6005 0.0000
# 3 17.8794 28.3063 61.7982 0.0000 -5.2921 0.0000
# 4 0.0000 0.0000 0.0000 50.7454 0.0000 -5.9457
# 5 -14.9838 -8.6005 -5.2921 0.0000 21.8255 0.0000
# 6 0.0000 0.0000 0.0000 -5.9457 0.0000 11.0282
#
#
#
# Elastic Compliance Matrix: (Units=1/GPa)
#
#
# Indices 1 2 3 4 5 6 
#
# 1 0.012081 0.002475 -0.003916 0.000000 0.008320 0.000000
# 2 0.002475 0.013601 -0.006476 0.000000 0.005488 0.000000
# 3 -0.003916 -0.006476 0.020253 0.000000 -0.000330 0.000000
# 4 0.000000 0.000000 0.000000 0.021035 0.000000 0.011341
# 5 0.008320 0.005488 -0.000330 0.000000 0.053612 0.000000
# 6 0.000000 0.000000 0.000000 0.011341 0.000000 0.096791
#
#
# Mechanical properties :
#
#
# Convention : Reuss Voigt Hill
#
# Bulk Modulus (GPa) = 33.22246 37.53041 35.37643
# Shear Modulus (GPa) = 20.55566 30.71433 25.63499
#
# Velocity S-wave (km/s) = 3.11365 3.80605 3.47713
# Velocity P-wave (km/s) = 5.34747 6.08403 5.72760
#
# Compressibility (1/GPa) = 0.03010012
#
# Stress axis : x y z
#
# Youngs Moduli (GPa) = 82.77276 73.52290 49.37584
#
# Poissons Ratio (x) = -0.18196 0.19338
# Poissons Ratio (y) = -0.20485 0.31976
# Poissons Ratio (z) = 0.32418 0.47613
#
# Static dielectric constant tensor:
#      x y z
#    x 1.850510 0.000000 -0.056170 
#    y 0.000000 1.876650 0.000000 
#    z -0.056170 0.000000 1.805050 
# 
# From -- ./inp_files/254050.got.cif
#   From: 2010.05.17/outbox.cif.g08.bks.cpg/sg15_128_cif.got.tgz:254050.got - 2010.06.03 18:47:42.
