data_PCOD9263095
_publ_section_title
;
Structure prediction by ZEFSAII (Michael W. Deem and Ramdas Pophale) SiO2 
 PCOD9263095
Probable space group: C 2/C
;
_chemical_formula_sum "Si O2"
_cell_formula_units_Z 56
_cell_length_a 12.775194
_cell_length_b 29.304420
_cell_length_c 13.600983
_cell_angle_alpha 90.000000
_cell_angle_beta 146.008744
_cell_angle_gamma 90.000000
_cell_volume 2846.651521
_symmetry_space_group_name_H-M "C 2/C"
_symmetry_group_IT_number 15
_symmetry_cell_setting 'monoclinic'
loop_
_space_group_symop_operation_xyz
x,y,z
-x,y,1/2-z
-x,-y,-z
x,-y,1/2+z
1/2+x,1/2+y,z
1/2-x,1/2+y,1/2-z
1/2-x,1/2-y,-z
1/2+x,1/2-y,1/2+z
loop_
_atom_site_type_symbol
_atom_site_label
_atom_site_fract_x
_atom_site_fract_y
_atom_site_fract_z
Si Si1 0.745732 0.312521 0.182839
Si Si2 0.945615 0.145449 0.311242
Si Si3 0.242052 0.407458 0.227462
Si Si4 0.162578 0.275582 0.527663
Si Si5 0.701593 0.953308 0.412897
Si Si6 0.443757 0.491842 0.343606
Si Si7 0.826260 0.428058 0.894480
O O1 0.728530 0.352960 0.249384
O O2 0.965877 0.299577 0.348042
O O3 0.633902 0.336906 0.007181
O O4 0.645777 0.262973 0.099907
O O5 0.822538 0.107060 0.268544
O O6 0.000000 0.124274 0.250000
O O7 0.810645 0.187719 0.181818
O O8 0.236755 0.426357 0.337808
O O9 0.394006 0.438999 0.292246
O O10 0.036214 0.418736 0.025344
O O11 0.250000 0.250000 0.500000
O O12 0.500000 0.978161 0.250000
O O13 0.875913 0.986571 0.568999
O O14 0.671871 0.921591 0.485218
O O15 0.500000 0.500000 0.500000
O O16 0.255857 0.521758 0.184428
#
# Coordination Sequence:
#
# PCOD9263095 Si02
#       7
#     8   8   8   8   8   8   8
#     4  12  22  35  45  65  92 131 171 215 247 294
#     4  12  21  29  47  66  94 129 169 213 253 287
#     4  10  21  34  52  70 101 136 176 210 256 312
#     4  12  23  32  45  66  95 128 172 221 253 282
#     4   9  19  32  51  75  99 131 169 217 250 298
#     4  10  19  34  48  72 100 132 173 208 257 305
#     4  11  20  33  51  75  98 135 176 214 252 300
#
# _framework density 19.672236000000002
#
# number of rings (size 3 to 8) (size 9 to 14) (size 15 to 20)
#    0.000    1.143    4.286    4.714    0.000    1.143 
#    0.000    0.000    0.000    0.000    0.000    0.000 
#    0.000    0.000    0.000    9.000    4.000    0.000 
#
# Total GULP energy -155951.458208 kJ/mol
# GULP energy per Si atom -5569.694936 kJ/mol
# Density = 1.962746 g / cm^3
# Si number density = 19.672236 Si / 1000 Ang^3
#
#
#
# Elastic Constant Matrix: (Units=GPa)
#
#
# Indices 1 2 3 4 5 6 
#
# 1 16.8675 11.9395 12.0568 0.0000 13.7782 0.0000
# 2 11.9395 117.1717 35.1780 0.0000 24.5937 0.0000
# 3 12.0568 35.1780 126.7304 0.0000 32.4435 0.0000
# 4 0.0000 0.0000 0.0000 30.2528 0.0000 4.2070
# 5 13.7782 24.5937 32.4435 0.0000 25.7544 0.0000
# 6 0.0000 0.0000 0.0000 4.2070 0.0000 23.3112
#
#
#
# Elastic Compliance Matrix: (Units=1/GPa)
#
#
# Indices 1 2 3 4 5 6 
#
# 1 0.109177 0.001120 0.006684 0.000000 -0.067898 0.000000
# 2 0.001120 0.010709 -0.000454 0.000000 -0.010253 0.000000
# 3 0.006684 -0.000454 0.012082 0.000000 -0.018362 0.000000
# 4 0.000000 0.000000 0.000000 0.033906 0.000000 -0.006119
# 5 -0.067898 -0.010253 -0.018362 0.000000 0.108074 0.000000
# 6 0.000000 0.000000 0.000000 -0.006119 0.000000 0.044002
#
#
# Mechanical properties :
#
#
# Convention : Reuss Voigt Hill
#
# Bulk Modulus (GPa) = 6.81816 42.12424 24.47120
# Shear Modulus (GPa) = 14.19895 29.30338 21.75117
#
# Velocity S-wave (km/s) = 2.68950 3.86370 3.32878
# Velocity P-wave (km/s) = 3.62188 6.43146 5.21928
#
# Compressibility (1/GPa) = 0.14666709
#
# Stress axis : x y z
#
# Youngs Moduli (GPa) = 9.15944 93.38101 82.77029
#
# Poissons Ratio (x) = -0.10455 -0.55328
# Poissons Ratio (y) = -0.01026 0.03760
# Poissons Ratio (z) = -0.06123 0.04242
#
# Static dielectric constant tensor:
#      x y z
#    x 1.711490 0.000000 0.005250 
#    y 0.000000 1.761580 0.000000 
#    z 0.005250 0.000000 1.796120 
# 
# From -- ./inp_files/157242.got.cif
#   From: 2010.05.17/outbox.cif.g08.bks.cpg/sg15_79_cif.got.tgz:157242.got - 2010.06.03 18:47:42.
