data_PCOD9263184
_publ_section_title
;
Structure prediction by ZEFSAII (Michael W. Deem and Ramdas Pophale) SiO2 
 PCOD9263184
Probable space group: C 2/C
;
_chemical_formula_sum "Si O2"
_cell_formula_units_Z 28
_cell_length_a 16.226831
_cell_length_b 8.718719
_cell_length_c 7.231508
_cell_angle_alpha 90.000000
_cell_angle_beta 91.527091
_cell_angle_gamma 90.000000
_cell_volume 1022.729991
_symmetry_space_group_name_H-M "C 2/C"
_symmetry_group_IT_number 15
_symmetry_cell_setting 'monoclinic'
loop_
_space_group_symop_operation_xyz
x,y,z
-x,y,1/2-z
-x,-y,-z
x,-y,1/2+z
1/2+x,1/2+y,z
1/2-x,1/2+y,1/2-z
1/2-x,1/2-y,-z
1/2+x,1/2-y,1/2+z
loop_
_atom_site_type_symbol
_atom_site_label
_atom_site_fract_x
_atom_site_fract_y
_atom_site_fract_z
Si Si1 0.092951 0.285962 0.464901
Si Si2 0.646511 0.885290 0.085395
Si Si3 0.674848 0.371135 0.277222
Si Si4 0.000000 0.103602 0.750000
O O1 0.101285 0.297210 0.247759
O O2 0.098679 0.463017 0.527018
O O3 0.236234 0.564176 0.672294
O O4 0.017721 0.207142 0.570016
O O5 0.832409 0.805180 0.429705
O O6 0.662570 0.771859 0.915820
O O7 0.589803 0.469604 0.291123
#
# Coordination Sequence:
#
# PCOD9263184 Si02
#       4
#     8   8   8   4
#     4  10  19  34  53  80 102 141 169 221 247 315
#     4  11  19  33  56  77 109 134 180 206 267 301
#     4   9  21  35  50  81 104 140 170 219 253 318
#     4   8  20  36  50  80 110 130 176 214 268 286
#
# _framework density 27.377704999999999
#
# number of rings (size 3 to 8) (size 9 to 14) (size 15 to 20)
#    1.714    0.571    2.857    0.857    0.000    5.714 
#    0.000    0.000    0.000    1.714    0.000    0.000 
#    0.000    0.000    0.000    0.000    0.000    0.000 
#
# Total GULP energy -78331.077671 kJ/mol
# GULP energy per Si atom -5595.076976 kJ/mol
# Density = 2.731539 g / cm^3
# Si number density = 27.377705 Si / 1000 Ang^3
#
#
#
# Elastic Constant Matrix: (Units=GPa)
#
#
# Indices 1 2 3 4 5 6 
#
# 1 159.8301 19.0898 6.3618 0.0000 -4.4656 0.0000
# 2 19.0898 96.4704 37.2685 0.0000 -3.9885 0.0000
# 3 6.3618 37.2685 169.4990 0.0000 -0.4076 0.0000
# 4 0.0000 0.0000 0.0000 21.3550 0.0000 -8.1314
# 5 -4.4656 -3.9885 -0.4076 0.0000 46.9474 0.0000
# 6 0.0000 0.0000 0.0000 -8.1314 0.0000 1.8102
#
#
#
# Elastic Compliance Matrix: (Units=1/GPa)
#
#
# Indices 1 2 3 4 5 6 
#
# 1 0.006420 -0.001264 0.000038 0.000000 0.000504 0.000000
# 2 -0.001264 0.011619 -0.002505 0.000000 0.000845 0.000000
# 3 0.000038 -0.002505 0.006449 0.000000 -0.000153 0.000000
# 4 0.000000 0.000000 0.000000 -0.065915 0.000000 -0.296087
# 5 0.000504 0.000845 -0.000153 0.000000 0.021419 0.000000
# 6 0.000000 0.000000 0.000000 -0.296087 0.000000 -0.777593
#
#
# Mechanical properties :
#
#
# Convention : Reuss Voigt Hill
#
# Bulk Modulus (GPa) = 58.73680 61.24887 59.99284
# Shear Modulus (GPa) = -6.37378 38.22782 15.92702
#
# Velocity S-wave (km/s) = -1.52746 3.74078 2.41457
# Velocity P-wave (km/s) = 4.28835 6.40923 5.45290
#
# Compressibility (1/GPa) = 0.01702510
#
# Stress axis : x y z
#
# Youngs Moduli (GPa) = 155.75815 86.06720 155.06843
#
# Poissons Ratio (x) = 0.10882 -0.00593
# Poissons Ratio (y) = 0.19694 0.38848
# Poissons Ratio (z) = -0.00596 0.21562
#
# Static dielectric constant tensor:
#      x y z
#    x 2.204050 0.000000 0.029480 
#    y 0.000000 2.114910 0.000000 
#    z 0.029480 0.000000 2.045440 
# 
# From -- ./inp_files/36329.got.cif
#   From: 2010.05.17/outbox.cif.g08.bks.cpg/sg15_19_cif.got.tgz:36329.got - 2010.06.03 18:47:42.
