data_PCOD9263964
_publ_section_title
;
Structure prediction by ZEFSAII (Michael W. Deem and Ramdas Pophale) SiO2 
 PCOD9263964
Probable space group: C 2/C
;
_chemical_formula_sum "Si O2"
_cell_formula_units_Z 64
_cell_length_a 26.628113
_cell_length_b 20.660922
_cell_length_c 5.525973
_cell_angle_alpha 90.000000
_cell_angle_beta 74.365372
_cell_angle_gamma 90.000000
_cell_volume 2927.689893
_symmetry_space_group_name_H-M "C 2/C"
_symmetry_group_IT_number 15
_symmetry_cell_setting 'monoclinic'
loop_
_space_group_symop_operation_xyz
x,y,z
-x,y,1/2-z
-x,-y,-z
x,-y,1/2+z
1/2+x,1/2+y,z
1/2-x,1/2+y,1/2-z
1/2-x,1/2-y,-z
1/2+x,1/2-y,1/2+z
loop_
_atom_site_type_symbol
_atom_site_label
_atom_site_fract_x
_atom_site_fract_y
_atom_site_fract_z
Si Si1 0.543960 0.354536 0.886041
Si Si2 0.195279 0.733970 0.183472
Si Si3 0.352906 0.177700 0.676929
Si Si4 0.287691 0.537953 0.038942
Si Si5 0.411169 0.539121 0.880324
Si Si6 0.764112 0.630653 0.065441
Si Si7 0.846451 0.821339 0.927207
Si Si8 0.970767 0.299702 0.037277
O O1 0.500000 0.375028 0.750000
O O2 0.554162 0.398074 0.108707
O O3 0.600534 0.358673 0.680927
O O4 0.534878 0.279051 0.958804
O O5 0.217232 0.702292 0.396255
O O6 0.158791 0.793297 0.296520
O O7 0.250000 0.750000 0.000000
O O8 0.162348 0.682367 0.082742
O O9 0.347992 0.256650 0.754824
O O10 0.413906 0.167831 0.631138
O O11 0.314859 0.120550 0.832294
O O12 0.278661 0.490179 0.282900
O O13 0.349041 0.555488 0.966383
O O14 0.247893 0.593938 0.169612
O O15 0.421068 0.494344 0.107550
O O16 0.706114 0.636867 0.032899
O O17 0.000000 0.314501 0.250000
O O18 0.000000 0.317716 0.750000
#
# Coordination Sequence:
#
# PCOD9263964 Si02
#       8
#     8   8   8   8   8   8   8   8
#     4  10  22  38  56  78 104 152 203 245 298 338
#     4  11  19  30  54  85 115 147 182 235 293 349
#     4  10  21  34  55  84 114 150 190 228 280 350
#     4  10  23  40  57  82 114 154 195 240 301 352
#     4  10  22  41  58  76 103 143 198 259 305 336
#     4  11  20  34  56  81 115 150 191 238 293 347
#     4  10  19  35  48  79 116 144 185 238 290 353
#     4  10  24  41  58  82 122 159 185 229 283 347
#
# _framework density 21.860240000000001
#
# number of rings (size 3 to 8) (size 9 to 14) (size 15 to 20)
#    0.000    1.750    3.750    0.750    8.750    2.500 
#    4.500    0.000    0.000    0.000    0.000    0.000 
#    0.000    3.000    0.000    0.000    0.000    0.000 
#
# Total GULP energy -178161.915350 kJ/mol
# GULP energy per Si atom -5567.559855 kJ/mol
# Density = 2.181049 g / cm^3
# Si number density = 21.860240 Si / 1000 Ang^3
#
#
#
# Elastic Constant Matrix: (Units=GPa)
#
#
# Indices 1 2 3 4 5 6 
#
# 1 142.7992 20.3671 32.5876 0.0000 -10.4125 0.0000
# 2 20.3671 26.9927 10.2302 0.0000 -2.4752 0.0000
# 3 32.5876 10.2302 72.8272 0.0000 -2.5756 0.0000
# 4 0.0000 0.0000 0.0000 32.2225 0.0000 0.4011
# 5 -10.4125 -2.4752 -2.5756 0.0000 26.3702 0.0000
# 6 0.0000 0.0000 0.0000 0.4011 0.0000 17.1754
#
#
#
# Elastic Compliance Matrix: (Units=1/GPa)
#
#
# Indices 1 2 3 4 5 6 
#
# 1 0.008618 -0.005107 -0.003046 0.000000 0.002626 0.000000
# 2 -0.005107 0.042419 -0.003616 0.000000 0.001612 0.000000
# 3 -0.003046 -0.003616 0.015601 0.000000 -0.000018 0.000000
# 4 0.000000 0.000000 0.000000 0.031043 0.000000 -0.000725
# 5 0.002626 0.001612 -0.000018 0.000000 0.039108 0.000000
# 6 0.000000 0.000000 0.000000 -0.000725 0.000000 0.058240
#
#
# Mechanical properties :
#
#
# Convention : Reuss Voigt Hill
#
# Bulk Modulus (GPa) = 23.20227 40.99876 32.10052
# Shear Modulus (GPa) = 21.46523 27.11591 24.29057
#
# Velocity S-wave (km/s) = 3.13698 3.52578 3.33705
# Velocity P-wave (km/s) = 4.87420 5.94731 5.43729
#
# Compressibility (1/GPa) = 0.04309923
#
# Stress axis : x y z
#
# Youngs Moduli (GPa) = 116.03831 23.57428 64.09681
#
# Poissons Ratio (x) = 0.12040 0.19523
# Poissons Ratio (y) = 0.59264 0.23180
# Poissons Ratio (z) = 0.35344 0.08525
#
# Static dielectric constant tensor:
#      x y z
#    x 1.703560 0.000000 0.195830 
#    y 0.000000 1.868150 0.000000 
#    z 0.195830 0.000000 1.640700 
# 
# From -- ./inp_files/16138.got.cif
#   From: 2010.05.17/outbox.cif.g08.bks.cpg/sg15_9_cif.got.tgz:16138.got - 2010.06.03 18:47:42.
