data_PCOD9263410
_publ_section_title
;
Structure prediction by ZEFSAII (Michael W. Deem and Ramdas Pophale) SiO2 
 PCOD9263410
Probable space group: C 2/C
;
_chemical_formula_sum "Si O2"
_cell_formula_units_Z 56
_cell_length_a 24.747010
_cell_length_b 5.518335
_cell_length_c 21.524569
_cell_angle_alpha 90.000000
_cell_angle_beta 66.560779
_cell_angle_gamma 90.000000
_cell_volume 2696.889000
_symmetry_space_group_name_H-M "C 2/C"
_symmetry_group_IT_number 15
_symmetry_cell_setting 'monoclinic'
loop_
_space_group_symop_operation_xyz
x,y,z
-x,y,1/2-z
-x,-y,-z
x,-y,1/2+z
1/2+x,1/2+y,z
1/2-x,1/2+y,1/2-z
1/2-x,1/2-y,-z
1/2+x,1/2-y,1/2+z
loop_
_atom_site_type_symbol
_atom_site_label
_atom_site_fract_x
_atom_site_fract_y
_atom_site_fract_z
Si Si1 0.065242 0.822669 0.897531
Si Si2 0.053240 0.784113 0.511180
Si Si3 0.069385 0.428557 0.701617
Si Si4 0.935304 0.070917 0.246912
Si Si5 0.845278 0.586926 0.563528
Si Si6 0.610963 0.371685 0.072662
Si Si7 0.764922 0.001480 0.455862
O O1 0.061969 0.881111 0.827206
O O2 0.126956 0.695454 0.886658
O O3 0.009522 0.659968 0.945130
O O4 0.054380 0.053119 0.947940
O O5 0.111014 0.625005 0.477475
O O6 0.062611 0.944338 0.569497
O O7 0.093661 0.690744 0.708909
O O8 0.082667 0.345561 0.625179
O O9 0.000000 0.447130 0.750000
O O10 0.091995 0.194348 0.729299
O O11 0.000000 0.052357 0.250000
O O12 0.859705 0.786606 0.504832
O O13 0.777929 0.510255 0.584552
O O14 0.665102 0.488678 0.085310
O O15 0.750000 0.750000 0.500000
O O16 0.750000 0.250000 0.500000
#
# Coordination Sequence:
#
# PCOD9263410 Si02
#       7
#     8   8   8   8   8   8   8
#     4  10  22  34  53  86 119 158 195 244 300 368
#     4  10  19  34  56  84 121 153 194 236 316 359
#     4  10  22  35  56  83 112 155 196 239 292 341
#     4  10  22  38  55  78 114 156 200 239 285 348
#     4  10  21  34  58  85 119 154 189 245 311 356
#     4  10  21  35  59  87 118 152 199 249 292 367
#     4  10  20  37  58  88 118 153 193 239 295 356
#
# _framework density 20.764668
#
# number of rings (size 3 to 8) (size 9 to 14) (size 15 to 20)
#    0.000    2.000    1.429    2.143    8.000    0.000 
#    0.000    0.000    0.000    1.714    0.000    0.000 
#    0.000    0.000    0.000    0.000    0.000    0.000 
#
# Total GULP energy -155928.142844 kJ/mol
# GULP energy per Si atom -5568.862244 kJ/mol
# Density = 2.071741 g / cm^3
# Si number density = 20.764668 Si / 1000 Ang^3
#
#
#
# Elastic Constant Matrix: (Units=GPa)
#
#
# Indices 1 2 3 4 5 6 
#
# 1 101.9218 12.1881 32.2955 0.0230 26.1629 0.0162
# 2 12.1881 102.6349 13.6181 0.0357 3.4602 0.0074
# 3 32.2955 13.6181 75.5573 0.0140 21.5143 0.0098
# 4 0.0230 0.0357 0.0140 21.5285 0.0074 -3.8774
# 5 26.1629 3.4602 21.5143 0.0074 25.4463 0.0037
# 6 0.0162 0.0074 0.0098 -3.8774 0.0037 21.1912
#
#
#
# Elastic Compliance Matrix: (Units=1/GPa)
#
#
# Indices 1 2 3 4 5 6 
#
# 1 0.013743 -0.000924 -0.002265 -0.000009 -0.012089 -0.000009
# 2 -0.000924 0.010045 -0.001708 -0.000016 0.001028 -0.000005
# 3 -0.002265 -0.001708 0.018152 -0.000003 -0.012785 -0.000004
# 4 -0.000009 -0.000016 -0.000003 0.048033 -0.000001 0.008789
# 5 -0.012089 0.001028 -0.012785 -0.000001 0.062398 0.000004
# 6 -0.000009 -0.000005 -0.000004 0.008789 0.000004 0.048797
#
#
# Mechanical properties :
#
#
# Convention : Reuss Voigt Hill
#
# Bulk Modulus (GPa) = 31.10964 44.03527 37.57245
# Shear Modulus (GPa) = 22.55526 28.43403 25.49464
#
# Velocity S-wave (km/s) = 3.29938 3.70448 3.50778
# Velocity P-wave (km/s) = 5.43407 6.28892 5.87705
#
# Compressibility (1/GPa) = 0.03214438
#
# Stress axis : x y z
#
# Youngs Moduli (GPa) = 72.76464 99.55198 55.09111
#
# Poissons Ratio (x) = 0.09197 0.12480
# Poissons Ratio (y) = 0.06722 0.09412
# Poissons Ratio (z) = 0.16484 0.17007
#
# Static dielectric constant tensor:
#      x y z
#    x 1.820730 -0.000010 0.028370 
#    y -0.000010 1.996670 0.000150 
#    z 0.028370 0.000150 1.763800 
# 
# From -- ./inp_files/254027.got.cif
#   From: 2010.05.17/outbox.cif.g08.bks.cpg/sg15_128_cif.got.tgz:254027.got - 2010.06.03 18:47:42.
