data_PCOD9263477
_publ_section_title
;
Structure prediction by ZEFSAII (Michael W. Deem and Ramdas Pophale) SiO2 
 PCOD9263477
Probable space group: C 2/C
;
_chemical_formula_sum "Si O2"
_cell_formula_units_Z 48
_cell_length_a 16.417804
_cell_length_b 7.944051
_cell_length_c 23.044408
_cell_angle_alpha 90.000000
_cell_angle_beta 141.479194
_cell_angle_gamma 90.000000
_cell_volume 1871.847242
_symmetry_space_group_name_H-M "C 2/C"
_symmetry_group_IT_number 15
_symmetry_cell_setting 'monoclinic'
loop_
_space_group_symop_operation_xyz
x,y,z
-x,y,1/2-z
-x,-y,-z
x,-y,1/2+z
1/2+x,1/2+y,z
1/2-x,1/2+y,1/2-z
1/2-x,1/2-y,-z
1/2+x,1/2-y,1/2+z
loop_
_atom_site_type_symbol
_atom_site_label
_atom_site_fract_x
_atom_site_fract_y
_atom_site_fract_z
Si Si1 0.861056 0.791269 0.692388
Si Si2 0.290480 0.103833 0.909617
Si Si3 0.337650 0.667703 0.997501
Si Si4 0.417779 0.494856 0.337858
Si Si5 0.813524 0.354096 0.724437
Si Si6 0.473136 0.978899 0.401877
O O1 0.751615 0.660609 0.609970
O O2 0.884860 0.871956 0.768188
O O3 0.000000 0.727298 0.750000
O O4 0.812743 0.960277 0.631140
O O5 0.208264 0.269747 0.849892
O O6 0.361585 0.032119 0.889502
O O7 0.414287 0.114537 0.020567
O O8 0.427649 0.508203 0.063111
O O9 0.448445 0.807285 0.048248
O O10 0.250000 0.750000 0.000000
O O11 0.326998 0.570165 0.337469
O O12 0.363723 0.310541 0.289933
O O13 0.913418 0.491690 0.805167
#
# Coordination Sequence:
#
# PCOD9263477 Si02
#       6
#     8   8   8   8   8   8
#     4  10  19  34  57  82 110 151 193 224 278 345
#     4   9  19  33  59  79 114 148 191 223 281 337
#     4  11  21  36  59  84 111 149 194 237 280 341
#     4  11  21  35  57  89 111 151 190 233 284 334
#     4  11  19  36  59  85 115 149 189 234 282 338
#     4  10  19  36  57  84 110 149 191 234 275 342
#
# _framework density 25.643118000000001
#
# number of rings (size 3 to 8) (size 9 to 14) (size 15 to 20)
#    0.000    1.667    6.667    0.000    0.000    0.000 
#    0.000    5.833    0.000    0.000    0.000    0.000 
#    0.000    0.000    0.000    0.000    0.000    0.000 
#
# Total GULP energy -133913.239353 kJ/mol
# GULP energy per Si atom -5579.718306 kJ/mol
# Density = 2.558475 g / cm^3
# Si number density = 25.643118 Si / 1000 Ang^3
#
#
#
# Elastic Constant Matrix: (Units=GPa)
#
#
# Indices 1 2 3 4 5 6 
#
# 1 51.7703 16.4072 21.9706 0.0000 1.4999 0.0000
# 2 16.4072 86.9555 0.1219 0.0000 16.6325 0.0000
# 3 21.9706 0.1219 178.0790 0.0000 22.4757 0.0000
# 4 0.0000 0.0000 0.0000 26.0327 0.0000 -12.9935
# 5 1.4999 16.6325 22.4757 0.0000 32.3619 0.0000
# 6 0.0000 0.0000 0.0000 -12.9935 0.0000 18.7145
#
#
#
# Elastic Compliance Matrix: (Units=1/GPa)
#
#
# Indices 1 2 3 4 5 6 
#
# 1 0.022108 -0.004874 -0.003191 0.000000 0.003696 0.000000
# 2 -0.004874 0.013961 0.001610 0.000000 -0.008067 0.000000
# 3 -0.003191 0.001610 0.006679 0.000000 -0.005318 0.000000
# 4 0.000000 0.000000 0.000000 0.058784 0.000000 0.040814
# 5 0.003696 -0.008067 -0.005318 0.000000 0.038569 0.000000
# 6 0.000000 0.000000 0.000000 0.040814 0.000000 0.081771
#
#
# Mechanical properties :
#
#
# Convention : Reuss Voigt Hill
#
# Bulk Modulus (GPa) = 33.51407 43.75602 38.63504
# Shear Modulus (GPa) = 20.43083 33.97550 27.20317
#
# Velocity S-wave (km/s) = 2.82572 3.64392 3.26058
# Velocity P-wave (km/s) = 4.87278 5.89955 5.41058
#
# Compressibility (1/GPa) = 0.02983822
#
# Stress axis : x y z
#
# Youngs Moduli (GPa) = 45.23294 71.63007 149.71651
#
# Poissons Ratio (x) = 0.34912 0.47771
# Poissons Ratio (y) = 0.22046 -0.24104
# Poissons Ratio (z) = 0.14433 -0.11532
#
# Static dielectric constant tensor:
#      x y z
#    x 2.023670 0.000000 -0.038260 
#    y 0.000000 2.098620 0.000000 
#    z -0.038260 0.000000 2.081960 
# 
# From -- ./inp_files/317310.got.cif
#   From: 2010.05.17/outbox.cif.g08.bks.cpg/sg15_159_cif.got.tgz:317310.got - 2010.06.03 18:47:42.
