data_PCOD9263005
_publ_section_title
;
Structure prediction by ZEFSAII (Michael W. Deem and Ramdas Pophale) SiO2 
 PCOD9263005
Probable space group: C 2/C
;
_chemical_formula_sum "Si O2"
_cell_formula_units_Z 56
_cell_length_a 18.918931
_cell_length_b 9.058035
_cell_length_c 14.746580
_cell_angle_alpha 90.000000
_cell_angle_beta 67.077334
_cell_angle_gamma 90.000000
_cell_volume 2327.535610
_symmetry_space_group_name_H-M "C 2/C"
_symmetry_group_IT_number 15
_symmetry_cell_setting 'monoclinic'
loop_
_space_group_symop_operation_xyz
x,y,z
-x,y,1/2-z
-x,-y,-z
x,-y,1/2+z
1/2+x,1/2+y,z
1/2-x,1/2+y,1/2-z
1/2-x,1/2-y,-z
1/2+x,1/2-y,1/2+z
loop_
_atom_site_type_symbol
_atom_site_label
_atom_site_fract_x
_atom_site_fract_y
_atom_site_fract_z
Si Si1 0.023522 0.918962 0.637431
Si Si2 0.840426 0.567908 0.748349
Si Si3 0.288866 0.762842 0.718309
Si Si4 0.501479 0.026234 0.393645
Si Si5 0.935969 0.172803 0.577221
Si Si6 0.673553 0.940530 0.552088
Si Si7 0.673444 0.386616 0.107728
O O1 0.037916 0.817451 0.541166
O O2 0.000000 0.862868 0.750000
O O3 0.100667 0.012459 0.622090
O O4 0.962256 0.029176 0.619961
O O5 0.799751 0.721092 0.746435
O O6 0.808073 0.435048 0.702367
O O7 0.931933 0.563939 0.690564
O O8 0.809257 0.509731 0.859216
O O9 0.344374 0.685459 0.618662
O O10 0.318805 0.687911 0.797101
O O11 0.530096 0.196189 0.376565
O O12 0.413506 0.005851 0.413518
O O13 0.500000 0.000000 0.500000
O O14 0.666868 0.761801 0.549841
O O15 0.747489 0.971122 0.454052
#
# Coordination Sequence:
#
# PCOD9263005 Si02
#       7
#     8   8   8   8   8   8   8
#     4  11  20  37  60  91 121 155 207 256 315 363
#     4  10  22  38  63  89 122 166 207 262 312 371
#     4  10  20  39  59  93 123 160 207 251 318 368
#     4  11  22  40  60  85 125 163 210 253 309 375
#     4  10  22  37  62  88 124 162 201 257 311 369
#     4  10  20  35  58  86 118 160 211 253 303 371
#     4  10  19  33  59  88 118 156 205 261 299 365
#
# _framework density 24.059781000000001
#
# number of rings (size 3 to 8) (size 9 to 14) (size 15 to 20)
#    0.000    1.714    2.857    2.143    0.000    0.000 
#    5.143    2.857    0.000    5.143    0.000    0.000 
#    0.000    0.000    0.000    0.000    0.000    0.000 
#
# Total GULP energy -156161.018775 kJ/mol
# GULP energy per Si atom -5577.179242 kJ/mol
# Density = 2.400502 g / cm^3
# Si number density = 24.059781 Si / 1000 Ang^3
#
#
#
# Elastic Constant Matrix: (Units=GPa)
#
#
# Indices 1 2 3 4 5 6 
#
# 1 87.8632 19.2285 13.3969 0.0000 -17.5894 0.0000
# 2 19.2285 25.8529 -7.8664 0.0000 -6.3195 0.0000
# 3 13.3969 -7.8664 106.7954 0.0000 -2.6323 0.0000
# 4 0.0000 0.0000 0.0000 19.2684 0.0000 3.0011
# 5 -17.5894 -6.3195 -2.6323 0.0000 40.6481 0.0000
# 6 0.0000 0.0000 0.0000 3.0011 0.0000 27.2498
#
#
#
# Elastic Compliance Matrix: (Units=1/GPa)
#
#
# Indices 1 2 3 4 5 6 
#
# 1 0.015087 -0.010863 -0.002578 0.000000 0.004673 0.000000
# 2 -0.010863 0.049097 0.005060 0.000000 0.003260 0.000000
# 3 -0.002578 0.005060 0.010068 0.000000 0.000323 0.000000
# 4 0.000000 0.000000 0.000000 0.052804 0.000000 -0.005815
# 5 0.004673 0.003260 0.000323 0.000000 0.027151 0.000000
# 6 0.000000 0.000000 0.000000 -0.005815 0.000000 0.037338
#
#
# Mechanical properties :
#
#
# Convention : Reuss Voigt Hill
#
# Bulk Modulus (GPa) = 17.39483 30.00328 23.69906
# Shear Modulus (GPa) = 21.98085 30.48343 26.23214
#
# Velocity S-wave (km/s) = 3.02585 3.56334 3.30554
# Velocity P-wave (km/s) = 4.41058 5.42469 4.94370
#
# Compressibility (1/GPa) = 0.05748835
#
# Stress axis : x y z
#
# Youngs Moduli (GPa) = 66.28129 20.36800 99.32763
#
# Poissons Ratio (x) = 0.22127 0.25603
# Poissons Ratio (y) = 0.72004 -0.50255
# Poissons Ratio (z) = 0.17085 -0.10305
#
# Static dielectric constant tensor:
#      x y z
#    x 1.775040 0.000000 -0.059590 
#    y 0.000000 1.997080 0.000000 
#    z -0.059590 0.000000 1.901880 
# 
# From -- ./inp_files/160835.got.cif
#   From: 2010.05.17/outbox.cif.g08.bks.cpg/sg15_81_cif.got.tgz:160835.got - 2010.06.03 18:47:42.
