data_PCOD9263003
_publ_section_title
;
Structure prediction by ZEFSAII (Michael W. Deem and Ramdas Pophale) SiO2 
 PCOD9263003
Probable space group: C 2/C
;
_chemical_formula_sum "Si O2"
_cell_formula_units_Z 48
_cell_length_a 6.943430
_cell_length_b 18.420461
_cell_length_c 18.882669
_cell_angle_alpha 90.000000
_cell_angle_beta 126.136637
_cell_angle_gamma 90.000000
_cell_volume 1950.478732
_symmetry_space_group_name_H-M "C 2/C"
_symmetry_group_IT_number 15
_symmetry_cell_setting 'monoclinic'
loop_
_space_group_symop_operation_xyz
x,y,z
-x,y,1/2-z
-x,-y,-z
x,-y,1/2+z
1/2+x,1/2+y,z
1/2-x,1/2+y,1/2-z
1/2-x,1/2-y,-z
1/2+x,1/2-y,1/2+z
loop_
_atom_site_type_symbol
_atom_site_label
_atom_site_fract_x
_atom_site_fract_y
_atom_site_fract_z
Si Si1 0.864127 0.770958 0.098631
Si Si2 0.928841 0.803993 0.579963
Si Si3 0.823563 0.497662 0.280966
Si Si4 0.796010 0.339200 0.768695
Si Si5 0.945190 0.939984 0.097770
Si Si6 0.302531 0.054662 0.540801
O O1 0.672722 0.737278 0.109891
O O2 0.897758 0.856619 0.105771
O O3 0.108863 0.727606 0.163874
O O4 0.750000 0.750000 0.000000
O O5 0.750000 0.750000 0.500000
O O6 0.812665 0.879383 0.527798
O O7 0.032711 0.825699 0.679809
O O8 0.818692 0.580550 0.306326
O O9 0.571779 0.476719 0.192088
O O10 0.000000 0.494154 0.250000
O O11 0.936296 0.446492 0.366410
O O12 0.000000 0.344766 0.750000
O O13 0.134505 0.945330 0.074026
O O14 0.730131 0.983585 0.014921
#
# Coordination Sequence:
#
# PCOD9263003 Si02
#       6
#     8   8   8   8   8   8
#     4  11  21  37  60  89 116 150 206 251 298 353
#     4  11  23  39  56  85 123 164 192 241 311 369
#     4   9  17  30  54  84 111 144 193 248 296 345
#     4   9  19  36  57  83 119 155 191 245 305 361
#     4  10  19  33  59  88 112 147 200 253 289 352
#     4  10  19  34  58  85 117 148 197 246 299 350
#
# _framework density 24.609341000000001
#
# number of rings (size 3 to 8) (size 9 to 14) (size 15 to 20)
#    0.000    2.000    3.333    1.000    7.000    0.000 
#    0.000    1.667    0.000    0.000    0.000    0.000 
#    0.000    0.000    0.000    0.000    0.000    0.000 
#
# Total GULP energy -133816.380512 kJ/mol
# GULP energy per Si atom -5575.682521 kJ/mol
# Density = 2.455333 g / cm^3
# Si number density = 24.609341 Si / 1000 Ang^3
#
#
#
# Elastic Constant Matrix: (Units=GPa)
#
#
# Indices 1 2 3 4 5 6 
#
# 1 53.9294 19.8280 22.3622 0.0000 13.8271 0.0000
# 2 19.8280 186.4715 95.4894 0.0000 -6.1596 0.0000
# 3 22.3622 95.4894 233.0663 0.0000 6.6833 0.0000
# 4 0.0000 0.0000 0.0000 36.0956 0.0000 -4.5781
# 5 13.8271 -6.1596 6.6833 0.0000 42.2520 0.0000
# 6 0.0000 0.0000 0.0000 -4.5781 0.0000 24.9399
#
#
#
# Elastic Compliance Matrix: (Units=1/GPa)
#
#
# Indices 1 2 3 4 5 6 
#
# 1 0.021549 -0.001993 -0.001045 0.000000 -0.007177 0.000000
# 2 -0.001993 0.007059 -0.002762 0.000000 0.002118 0.000000
# 3 -0.001045 -0.002762 0.005549 0.000000 -0.000938 0.000000
# 4 0.000000 0.000000 0.000000 0.028365 0.000000 0.005207
# 5 -0.007177 0.002118 -0.000938 0.000000 0.026474 0.000000
# 6 0.000000 0.000000 0.000000 0.005207 0.000000 0.041052
#
#
# Mechanical properties :
#
#
# Convention : Reuss Voigt Hill
#
# Bulk Modulus (GPa) = 44.33141 83.20294 63.76718
# Shear Modulus (GPa) = 33.51955 43.04333 38.28144
#
# Velocity S-wave (km/s) = 3.69462 4.18672 3.94834
# Velocity P-wave (km/s) = 6.02109 7.56666 6.83768
#
# Compressibility (1/GPa) = 0.02255737
#
# Stress axis : x y z
#
# Youngs Moduli (GPa) = 46.40540 141.66672 180.20476
#
# Poissons Ratio (x) = 0.28238 0.18834
# Poissons Ratio (y) = 0.09250 0.49765
# Poissons Ratio (z) = 0.04850 0.39122
#
# Static dielectric constant tensor:
#      x y z
#    x -47.066520 0.000000 17.892170 
#    y 0.000000 1.868660 0.000000 
#    z 17.892170 0.000000 -4.544380 
# 
# From -- ./inp_files/311248.got.cif
#   From: 2010.05.17/outbox.cif.g08.bks.cpg/sg15_156_cif.got.tgz:311248.got - 2010.06.03 18:47:42.
