data_PCOD9263402
_publ_section_title
;
Structure prediction by ZEFSAII (Michael W. Deem and Ramdas Pophale) SiO2 
 PCOD9263402
Probable space group: C 2/C
;
_chemical_formula_sum "Si O2"
_cell_formula_units_Z 56
_cell_length_a 6.310634
_cell_length_b 22.074040
_cell_length_c 23.027182
_cell_angle_alpha 90.000000
_cell_angle_beta 64.626053
_cell_angle_gamma 90.000000
_cell_volume 2898.266417
_symmetry_space_group_name_H-M "C 2/C"
_symmetry_group_IT_number 15
_symmetry_cell_setting 'monoclinic'
loop_
_space_group_symop_operation_xyz
x,y,z
-x,y,1/2-z
-x,-y,-z
x,-y,1/2+z
1/2+x,1/2+y,z
1/2-x,1/2+y,1/2-z
1/2-x,1/2-y,-z
1/2+x,1/2-y,1/2+z
loop_
_atom_site_type_symbol
_atom_site_label
_atom_site_fract_x
_atom_site_fract_y
_atom_site_fract_z
Si Si1 0.843228 0.109012 0.316562
Si Si2 0.745114 0.078366 0.887405
Si Si3 0.048877 0.824963 0.062552
Si Si4 0.527426 0.815893 0.937543
Si Si5 0.253970 0.109657 0.988162
Si Si6 0.946352 0.033486 0.105285
Si Si7 0.062445 0.506221 0.809206
O O1 0.634647 0.146681 0.371301
O O2 0.732055 0.051282 0.296759
O O3 0.000000 0.142603 0.250000
O O4 0.005688 0.082343 0.349071
O O5 0.859073 0.142702 0.890069
O O6 0.499334 0.076247 0.950465
O O7 0.683638 0.061596 0.828619
O O8 0.909977 0.025778 0.892695
O O9 0.978381 0.755177 0.075413
O O10 0.834608 0.862164 0.061060
O O11 0.263086 0.830299 0.990476
O O12 0.692065 0.836249 0.972346
O O13 0.061662 0.064095 0.035835
O O14 0.678414 0.014226 0.131485
O O15 0.000000 0.518724 0.750000
#
# Coordination Sequence:
#
# PCOD9263402 Si02
#       7
#     8   8   8   8   8   8   8
#     4  10  19  35  56  84 109 135 187 241 283 331
#     4  10  22  33  53  82 114 146 183 230 278 339
#     4  10  19  36  54  82 117 149 187 229 280 348
#     4   9  20  34  57  83 112 147 187 236 284 329
#     4  10  19  34  56  84 113 146 183 228 287 336
#     4  10  20  34  54  83 114 143 177 233 281 339
#     4  11  21  35  56  81 107 149 185 225 291 344
#
# _framework density 19.321894
#
# number of rings (size 3 to 8) (size 9 to 14) (size 15 to 20)
#    0.000    2.000    1.429    2.571    0.000    4.571 
#    0.000    0.000    0.000    5.143    0.000    0.000 
#    0.000    0.000    0.000    0.000    0.000    0.000 
#
# Total GULP energy -156250.586324 kJ/mol
# GULP energy per Si atom -5580.378083 kJ/mol
# Density = 1.927792 g / cm^3
# Si number density = 19.321894 Si / 1000 Ang^3
#
#
#
# Elastic Constant Matrix: (Units=GPa)
#
#
# Indices 1 2 3 4 5 6 
#
# 1 69.5617 23.2871 13.3402 0.0000 1.1222 0.0000
# 2 23.2871 55.4731 34.2356 0.0000 7.5943 0.0000
# 3 13.3402 34.2356 63.1522 0.0000 8.8136 0.0000
# 4 0.0000 0.0000 0.0000 18.8145 0.0000 -2.0170
# 5 1.1222 7.5943 8.8136 0.0000 30.9316 0.0000
# 6 0.0000 0.0000 0.0000 -2.0170 0.0000 23.0456
#
#
#
# Elastic Compliance Matrix: (Units=1/GPa)
#
#
# Indices 1 2 3 4 5 6 
#
# 1 0.016770 -0.007379 0.000302 0.000000 0.001117 0.000000
# 2 -0.007379 0.030535 -0.014565 0.000000 -0.003079 0.000000
# 3 0.000302 -0.014565 0.024129 0.000000 -0.003310 0.000000
# 4 0.000000 0.000000 0.000000 0.053654 0.000000 0.004696
# 5 0.001117 -0.003079 -0.003310 0.000000 0.033988 0.000000
# 6 0.000000 0.000000 0.000000 0.004696 0.000000 0.043803
#
#
# Mechanical properties :
#
#
# Convention : Reuss Voigt Hill
#
# Bulk Modulus (GPa) = 35.52467 36.65697 36.09082
# Shear Modulus (GPa) = 19.56594 22.37996 20.97295
#
# Velocity S-wave (km/s) = 3.18564 3.40703 3.29819
# Velocity P-wave (km/s) = 5.65302 5.87282 5.76397
#
# Compressibility (1/GPa) = 0.02814945
#
# Stress axis : x y z
#
# Youngs Moduli (GPa) = 59.62983 32.74958 41.44441
#
# Poissons Ratio (x) = 0.24167 -0.01251
# Poissons Ratio (y) = 0.44002 0.60363
# Poissons Ratio (z) = -0.01801 0.47699
#
# Static dielectric constant tensor:
#      x y z
#    x 1.677600 0.000000 -0.003020 
#    y 0.000000 1.654140 0.000000 
#    z -0.003020 0.000000 1.703400 
# 
# From -- ./inp_files/227902.got.cif
#   From: 2010.05.17/outbox.cif.g08.bks.cpg/sg15_114_cif.got.tgz:227902.got - 2010.06.03 18:47:42.
