data_PCOD9263188
_publ_section_title
;
Structure prediction by ZEFSAII (Michael W. Deem and Ramdas Pophale) SiO2 
 PCOD9263188
Probable space group: C 2/C
;
_chemical_formula_sum "Si O2"
_cell_formula_units_Z 60
_cell_length_a 11.276071
_cell_length_b 13.274189
_cell_length_c 27.281098
_cell_angle_alpha 90.000000
_cell_angle_beta 145.546926
_cell_angle_gamma 90.000000
_cell_volume 2310.136704
_symmetry_space_group_name_H-M "C 2/C"
_symmetry_group_IT_number 15
_symmetry_cell_setting 'monoclinic'
loop_
_space_group_symop_operation_xyz
x,y,z
-x,y,1/2-z
-x,-y,-z
x,-y,1/2+z
1/2+x,1/2+y,z
1/2-x,1/2+y,1/2-z
1/2-x,1/2-y,-z
1/2+x,1/2-y,1/2+z
loop_
_atom_site_type_symbol
_atom_site_label
_atom_site_fract_x
_atom_site_fract_y
_atom_site_fract_z
Si Si1 0.043189 0.812665 0.436293
Si Si2 0.992323 0.751487 0.519916
Si Si3 0.573317 0.829467 0.145762
Si Si4 0.500000 0.516136 0.250000
Si Si5 0.045330 0.831682 0.326924
Si Si6 0.047873 0.494991 0.821774
Si Si7 0.829886 0.876894 0.781008
Si Si8 0.498812 0.533910 0.062453
O O1 0.250000 0.750000 0.500000
O O2 0.919151 0.757942 0.438395
O O3 0.952550 0.823709 0.350940
O O4 0.109178 0.926038 0.473296
O O5 0.957386 0.675018 0.553447
O O6 0.246118 0.736684 0.601986
O O7 0.920443 0.858766 0.516826
O O8 0.521780 0.926151 0.160578
O O9 0.547529 0.727246 0.168117
O O10 0.826381 0.818343 0.222835
O O11 0.606067 0.444468 0.328026
O O12 0.646773 0.584609 0.266203
O O13 0.915018 0.393002 0.787262
O O14 0.000000 0.531849 0.750000
O O15 0.294238 0.481765 0.900230
O O16 0.931836 0.946808 0.857809
#
# Coordination Sequence:
#
# PCOD9263188 Si02
#       8
#     8   8   8   4   8   8   8   8
#     4  10  21  35  55  81 109 146 188 230 281 325
#     4  10  20  33  57  82 106 144 191 232 268 329
#     4  11  20  34  55  84 112 146 184 219 283 334
#     4  12  18  34  54  78 116 136 184 224 270 320
#     4  11  18  34  57  81 111 143 182 232 275 324
#     4  10  19  34  53  80 115 145 181 232 284 327
#     4  10  21  32  53  85 111 146 181 228 277 326
#     4  10  19  36  54  79 110 143 184 233 275 327
#
# _framework density 25.972487999999998
#
# number of rings (size 3 to 8) (size 9 to 14) (size 15 to 20)
#    0.000    1.600    4.000    2.000    0.933    2.133 
#    0.000    0.667    0.000    1.600    0.000    9.333 
#    0.000    0.000    0.000    0.000    0.000    0.000 
#
# Total GULP energy -167217.140964 kJ/mol
# GULP energy per Si atom -5573.904699 kJ/mol
# Density = 2.591337 g / cm^3
# Si number density = 25.972488 Si / 1000 Ang^3
#
#
#
# Elastic Constant Matrix: (Units=GPa)
#
#
# Indices 1 2 3 4 5 6 
#
# 1 130.9438 15.4898 16.3111 0.0000 -24.2537 0.0000
# 2 15.4898 49.7764 -8.7226 0.0000 -13.1230 0.0000
# 3 16.3111 -8.7226 57.5786 0.0001 -37.6907 0.0000
# 4 0.0000 0.0000 0.0001 22.9453 0.0000 -10.0910
# 5 -24.2537 -13.1230 -37.6907 0.0000 50.6980 0.0000
# 6 0.0000 0.0000 0.0000 -10.0910 0.0000 39.3707
#
#
#
# Elastic Compliance Matrix: (Units=1/GPa)
#
#
# Indices 1 2 3 4 5 6 
#
# 1 0.008522 -0.001991 -0.000749 0.000000 0.003005 0.000000
# 2 -0.001991 0.029178 0.018126 0.000000 0.020075 0.000000
# 3 -0.000749 0.018126 0.045120 0.000000 0.037877 0.000000
# 4 0.000000 0.000000 0.000000 0.049118 0.000000 0.012589
# 5 0.003005 0.020075 0.037877 0.000000 0.054518 0.000000
# 6 0.000000 0.000000 0.000000 0.012589 0.000000 0.028626
#
#
# Mechanical properties :
#
#
# Convention : Reuss Voigt Hill
#
# Bulk Modulus (GPa) = 8.80346 31.60615 20.20480
# Shear Modulus (GPa) = 22.50473 36.95084 29.72779
#
# Velocity S-wave (km/s) = 2.94680 3.77595 3.38685
# Velocity P-wave (km/s) = 3.86977 5.58623 4.80526
#
# Compressibility (1/GPa) = 0.11359175
#
# Stress axis : x y z
#
# Youngs Moduli (GPa) = 117.33989 34.27197 22.16326
#
# Poissons Ratio (x) = 0.06824 0.01660
# Poissons Ratio (y) = 0.23363 -0.40172
# Poissons Ratio (z) = 0.08787 -0.62120
#
# Static dielectric constant tensor:
#      x y z
#    x 2.141520 0.000000 -0.018900 
#    y 0.000000 2.089440 0.000000 
#    z -0.018900 0.000000 2.205750 
# 
# From -- ./inp_files/269936.got.cif
#   From: 2010.05.17/outbox.cif.g08.bks.cpg/sg15_135_cif.got.tgz:269936.got - 2010.06.03 18:47:42.
