data_PCOD9263156
_publ_section_title
;
Structure prediction by ZEFSAII (Michael W. Deem and Ramdas Pophale) SiO2 
 PCOD9263156
Probable space group: C 2/C
;
_chemical_formula_sum "Si O2"
_cell_formula_units_Z 48
_cell_length_a 11.735138
_cell_length_b 25.770282
_cell_length_c 13.587572
_cell_angle_alpha 90.000000
_cell_angle_beta 146.442975
_cell_angle_gamma 90.000000
_cell_volume 2271.386649
_symmetry_space_group_name_H-M "C 2/C"
_symmetry_group_IT_number 15
_symmetry_cell_setting 'monoclinic'
loop_
_space_group_symop_operation_xyz
x,y,z
-x,y,1/2-z
-x,-y,-z
x,-y,1/2+z
1/2+x,1/2+y,z
1/2-x,1/2+y,1/2-z
1/2-x,1/2-y,-z
1/2+x,1/2-y,1/2+z
loop_
_atom_site_type_symbol
_atom_site_label
_atom_site_fract_x
_atom_site_fract_y
_atom_site_fract_z
Si Si1 0.318873 0.808900 0.040672
Si Si2 0.303736 0.460419 0.866283
Si Si3 0.781231 0.081428 0.569433
Si Si4 0.857107 0.900711 0.478970
Si Si5 0.871901 0.522837 0.532319
Si Si6 0.450286 0.121292 0.927333
O O1 0.500000 0.816564 0.250000
O O2 0.152220 0.850426 0.958070
O O3 0.420552 0.828713 0.012656
O O4 0.250000 0.750000 0.000000
O O5 0.265214 0.432760 0.944004
O O6 0.409818 0.416210 0.876060
O O7 0.500000 0.500000 0.000000
O O8 0.088958 0.491216 0.696867
O O9 0.622692 0.117266 0.513328
O O10 0.000000 0.105206 0.750000
O O11 0.773541 0.023076 0.611249
O O12 0.732346 0.946270 0.449884
O O13 0.734935 0.888200 0.287858
O O14 0.915873 0.569996 0.493388
#
# Coordination Sequence:
#
# PCOD9263156 Si02
#       6
#     8   8   8   8   8   8
#     4   9  20  40  64  79 104 138 186 245 292 332
#     4  12  20  33  54  76 116 160 192 209 271 341
#     4  12  21  31  50  78 115 149 188 219 269 326
#     4  10  19  36  57  78 110 156 189 216 285 345
#     4  11  21  34  50  76 117 158 187 223 260 333
#     4  10  19  34  52  81 109 143 186 231 280 327
#
# _framework density 21.132466000000001
#
# number of rings (size 3 to 8) (size 9 to 14) (size 15 to 20)
#    0.000    1.333    5.000    3.500    0.000    0.000 
#    3.000    1.667    0.000    1.000    0.000    0.000 
#    0.000    0.000    0.000    0.000    0.000    0.000 
#
# Total GULP energy -133787.785298 kJ/mol
# GULP energy per Si atom -5574.491054 kJ/mol
# Density = 2.108437 g / cm^3
# Si number density = 21.132466 Si / 1000 Ang^3
#
#
#
# Elastic Constant Matrix: (Units=GPa)
#
#
# Indices 1 2 3 4 5 6 
#
# 1 192.2655 71.9883 47.1140 0.0000 17.5443 0.0000
# 2 71.9883 119.0957 16.4333 0.0000 8.5020 0.0000
# 3 47.1140 16.4333 66.9145 0.0000 4.6785 0.0000
# 4 0.0000 0.0000 0.0000 22.3972 0.0000 7.8969
# 5 17.5443 8.5020 4.6785 0.0000 25.5097 0.0000
# 6 0.0000 0.0000 0.0000 7.8969 0.0000 28.0364
#
#
#
# Elastic Compliance Matrix: (Units=1/GPa)
#
#
# Indices 1 2 3 4 5 6 
#
# 1 0.008130 -0.004051 -0.004491 0.000000 -0.003418 0.000000
# 2 -0.004051 0.010875 0.000243 0.000000 -0.000883 0.000000
# 3 -0.004491 0.000243 0.018068 0.000000 -0.000306 0.000000
# 4 0.000000 0.000000 0.000000 0.049571 0.000000 -0.013963
# 5 -0.003418 -0.000883 -0.000306 0.000000 0.041902 0.000000
# 6 0.000000 0.000000 0.000000 -0.013963 0.000000 0.039601
#
#
# Mechanical properties :
#
#
# Convention : Reuss Voigt Hill
#
# Bulk Modulus (GPa) = 48.83678 72.14966 60.49322
# Shear Modulus (GPa) = 26.10036 31.37133 28.73584
#
# Velocity S-wave (km/s) = 3.51819 3.85711 3.69154
# Velocity P-wave (km/s) = 6.29790 7.35202 6.84528
#
# Compressibility (1/GPa) = 0.02047637
#
# Stress axis : x y z
#
# Youngs Moduli (GPa) = 123.00014 91.95770 55.34675
#
# Poissons Ratio (x) = 0.37249 0.24854
# Poissons Ratio (y) = 0.49823 -0.01346
# Poissons Ratio (z) = 0.55234 -0.02236
#
# Static dielectric constant tensor:
#      x y z
#    x 1.900130 0.000000 -0.100350 
#    y 0.000000 1.878000 0.000000 
#    z -0.100350 0.000000 2.132580 
# 
# From -- ./inp_files/90083.got.cif
#   From: 2010.05.17/outbox.cif.g08.bks.cpg/sg15_46_cif.got.tgz:90083.got - 2010.06.03 18:47:42.
