data_PCOD9263305
_publ_section_title
;
Structure prediction by ZEFSAII (Michael W. Deem and Ramdas Pophale) SiO2 
 PCOD9263305
Probable space group: C 2/C
;
_chemical_formula_sum "Si O2"
_cell_formula_units_Z 56
_cell_length_a 17.890338
_cell_length_b 17.073883
_cell_length_c 16.946301
_cell_angle_alpha 90.000000
_cell_angle_beta 24.865167
_cell_angle_gamma 90.000000
_cell_volume 2176.584566
_symmetry_space_group_name_H-M "C 2/C"
_symmetry_group_IT_number 15
_symmetry_cell_setting 'monoclinic'
loop_
_space_group_symop_operation_xyz
x,y,z
-x,y,1/2-z
-x,-y,-z
x,-y,1/2+z
1/2+x,1/2+y,z
1/2-x,1/2+y,1/2-z
1/2-x,1/2-y,-z
1/2+x,1/2-y,1/2+z
loop_
_atom_site_type_symbol
_atom_site_label
_atom_site_fract_x
_atom_site_fract_y
_atom_site_fract_z
Si Si1 0.186537 0.467007 0.656228
Si Si2 0.422486 0.808858 0.687619
Si Si3 0.117649 0.205098 0.068730
Si Si4 0.726457 0.408308 0.327820
Si Si5 0.231087 0.483917 0.942210
Si Si6 0.390036 0.845203 0.543002
Si Si7 0.165684 0.858580 0.222922
O O1 0.181655 0.373258 0.660584
O O2 0.286366 0.501267 0.636918
O O3 0.255557 0.511053 0.512617
O O4 0.978903 0.492274 0.863078
O O5 0.337731 0.812062 0.679406
O O6 0.626284 0.835984 0.486362
O O7 0.426344 0.720819 0.715771
O O8 0.054984 0.274747 0.069378
O O9 0.000000 0.166990 0.250000
O O10 0.250000 0.250000 0.000000
O O11 0.191151 0.141766 0.939173
O O12 0.618501 0.373738 0.359394
O O13 0.932402 0.393922 0.109134
O O14 0.240006 0.404647 0.880667
O O15 0.350815 0.555608 0.797824
#
# Coordination Sequence:
#
# PCOD9263305 Si02
#       7
#     8   8   8   8   8   8   8
#     4   9  18  33  56  81 106 140 184 228 264 306
#     4  10  20  35  57  81 108 143 182 221 267 320
#     4  12  22  32  52  82 109 144 172 214 272 324
#     4  10  19  35  55  79 110 141 179 220 266 322
#     4   9  18  32  55  84 106 136 186 232 260 305
#     4  10  19  34  55  81 109 142 180 219 267 319
#     4  10  20  35  57  82 107 142 182 222 269 318
#
# _framework density 25.728383000000001
#
# number of rings (size 3 to 8) (size 9 to 14) (size 15 to 20)
#    0.000    2.000    2.857    1.714    2.000    4.000 
#    0.000    0.000    6.286    1.714    0.000    0.000 
#    0.000    0.000    0.000    0.000    0.000    0.000 
#
# Total GULP energy -156301.976300 kJ/mol
# GULP energy per Si atom -5582.213439 kJ/mol
# Density = 2.566982 g / cm^3
# Si number density = 25.728383 Si / 1000 Ang^3
#
#
#
# Elastic Constant Matrix: (Units=GPa)
#
#
# Indices 1 2 3 4 5 6 
#
# 1 22.2743 7.0083 2.7269 0.0132 0.9202 -0.0093
# 2 7.0083 106.7143 14.0590 0.0161 1.3975 -0.0199
# 3 2.7269 14.0590 38.6340 0.0067 11.3087 -0.0023
# 4 0.0132 0.0161 0.0067 27.3699 -0.0055 -2.6570
# 5 0.9202 1.3975 11.3087 -0.0055 23.0903 0.0045
# 6 -0.0093 -0.0199 -0.0023 -2.6570 0.0045 27.3489
#
#
#
# Elastic Compliance Matrix: (Units=1/GPa)
#
#
# Indices 1 2 3 4 5 6 
#
# 1 0.046037 -0.002744 -0.002057 -0.000019 -0.000661 0.000012
# 2 -0.002744 0.010043 -0.003870 -0.000003 0.001397 0.000006
# 3 -0.002057 -0.003870 0.031921 -0.000008 -0.015317 0.000001
# 4 -0.000019 -0.000003 -0.000008 0.036884 0.000013 0.003583
# 5 -0.000661 0.001397 -0.015317 0.000013 0.050752 -0.000008
# 6 0.000012 0.000006 0.000001 0.003583 -0.000008 0.036913
#
#
# Mechanical properties :
#
#
# Convention : Reuss Voigt Hill
#
# Bulk Modulus (GPa) = 14.15249 23.91233 19.03241
# Shear Modulus (GPa) = 19.72820 25.15038 22.43929
#
# Velocity S-wave (km/s) = 2.77210 3.12995 2.95644
# Velocity P-wave (km/s) = 3.96972 4.73037 4.36664
#
# Compressibility (1/GPa) = 0.07065894
#
# Stress axis : x y z
#
# Youngs Moduli (GPa) = 21.72155 99.57661 31.32744
#
# Poissons Ratio (x) = 0.27321 0.06446
# Poissons Ratio (y) = 0.05960 0.12123
# Poissons Ratio (z) = 0.04469 0.38533
#
# Static dielectric constant tensor:
#      x y z
#    x 2.290880 -0.000060 -0.310780 
#    y -0.000060 2.025160 0.000060 
#    z -0.310780 0.000060 2.376670 
# 
# From -- ./inp_files/56726.got.cif
#   From: 2010.05.17/outbox.cif.g08.bks.cpg/sg15_29_cif.got.tgz:56726.got - 2010.06.03 18:47:42.
