data_PCOD9263549
_publ_section_title
;
Structure prediction by ZEFSAII (Michael W. Deem and Ramdas Pophale) SiO2 
 PCOD9263549
Probable space group: C 2/C
;
_chemical_formula_sum "Si O2"
_cell_formula_units_Z 56
_cell_length_a 15.121872
_cell_length_b 16.946990
_cell_length_c 19.540564
_cell_angle_alpha 90.000000
_cell_angle_beta 150.466993
_cell_angle_gamma 90.000000
_cell_volume 2468.402395
_symmetry_space_group_name_H-M "C 2/C"
_symmetry_group_IT_number 15
_symmetry_cell_setting 'monoclinic'
loop_
_space_group_symop_operation_xyz
x,y,z
-x,y,1/2-z
-x,-y,-z
x,-y,1/2+z
1/2+x,1/2+y,z
1/2-x,1/2+y,1/2-z
1/2-x,1/2-y,-z
1/2+x,1/2-y,1/2+z
loop_
_atom_site_type_symbol
_atom_site_label
_atom_site_fract_x
_atom_site_fract_y
_atom_site_fract_z
Si Si1 0.864745 0.729995 0.214184
Si Si2 0.792213 0.093449 0.619988
Si Si3 0.125189 0.136024 0.395499
Si Si4 0.084494 0.496170 0.380835
Si Si5 0.568016 0.239592 0.965088
Si Si6 0.017495 0.813429 0.068949
Si Si7 0.320920 0.085134 0.810186
O O1 0.799033 0.813690 0.138524
O O2 0.955801 0.757304 0.346513
O O3 0.000000 0.696202 0.250000
O O4 0.685944 0.678246 0.094151
O O5 0.698234 0.056475 0.624324
O O6 0.000000 0.070118 0.750000
O O7 0.678202 0.071708 0.477307
O O8 0.256096 0.069314 0.513683
O O9 0.259113 0.197124 0.449002
O O10 0.024189 0.186889 0.385632
O O11 0.000000 0.105749 0.250000
O O12 0.000000 0.504952 0.250000
O O13 0.932564 0.467007 0.332529
O O14 0.419184 0.171329 0.874044
O O15 0.613665 0.273170 0.069722
O O16 0.117074 0.895070 0.151690
#
# Coordination Sequence:
#
# PCOD9263549 Si02
#       7
#     8   8   8   8   8   8   8
#     4  10  22  37  61  90 124 162 206 255 320 374
#     4  10  21  42  65  85 123 176 222 259 311 381
#     4  10  21  34  59  90 126 166 208 254 318 385
#     4  11  23  41  63  92 126 167 222 271 319 375
#     4  10  19  34  57  92 129 160 200 253 319 387
#     4  11  18  36  59  88 125 156 200 251 315 379
#     4  10  21  38  65  92 128 168 204 265 327 383
#
# _framework density 22.686737000000001
#
# number of rings (size 3 to 8) (size 9 to 14) (size 15 to 20)
#    0.000    1.714    2.857    3.000    0.000    4.000 
#    0.000    5.714    0.000    0.000    0.000    0.000 
#    0.000    0.000    0.000    0.000    0.000    0.000 
#
# Total GULP energy -156455.690029 kJ/mol
# GULP energy per Si atom -5587.703215 kJ/mol
# Density = 2.263510 g / cm^3
# Si number density = 22.686737 Si / 1000 Ang^3
#
#
#
# Elastic Constant Matrix: (Units=GPa)
#
#
# Indices 1 2 3 4 5 6 
#
# 1 123.3095 25.1513 53.0860 -0.0020 -17.2176 -0.0027
# 2 25.1513 39.5195 19.6858 0.0040 -16.7826 -0.0011
# 3 53.0860 19.6858 118.9219 -0.0089 -29.3230 -0.0113
# 4 -0.0020 0.0040 -0.0089 23.1358 0.0022 -12.4219
# 5 -17.2176 -16.7826 -29.3230 0.0022 44.1162 -0.0006
# 6 -0.0027 -0.0011 -0.0113 -12.4219 -0.0006 3.7385
#
#
#
# Elastic Compliance Matrix: (Units=1/GPa)
#
#
# Indices 1 2 3 4 5 6 
#
# 1 0.010848 -0.005032 -0.004112 0.000004 -0.000413 0.000007
# 2 -0.005032 0.033195 -0.000741 0.000005 0.010172 0.000024
# 3 -0.004112 -0.000741 0.011843 -0.000028 0.005985 -0.000059
# 4 0.000004 0.000005 -0.000028 -0.055130 -0.000015 -0.183183
# 5 -0.000413 0.010172 0.005985 -0.000015 0.030354 -0.000023
# 6 0.000007 0.000024 -0.000059 -0.183183 -0.000023 -0.341178
#
#
# Mechanical properties :
#
#
# Convention : Reuss Voigt Hill
#
# Bulk Modulus (GPa) = 27.68699 53.06635 40.37667
# Shear Modulus (GPa) = -17.96870 26.45328 4.24229
#
# Velocity S-wave (km/s) = -2.81737 3.41841 1.36894
# Velocity P-wave (km/s) = 1.28341 6.24679 4.50941
#
# Compressibility (1/GPa) = 0.03611804
#
# Stress axis : x y z
#
# Youngs Moduli (GPa) = 92.17991 30.12519 84.44054
#
# Poissons Ratio (x) = 0.15157 0.34719
# Poissons Ratio (y) = 0.46380 0.06255
# Poissons Ratio (z) = 0.37901 0.02232
#
# Static dielectric constant tensor:
#      x y z
#    x 1.889710 0.000000 0.048500 
#    y 0.000000 1.863310 0.000000 
#    z 0.048500 0.000000 1.898950 
# 
# From -- ./inp_files/207008.got.cif
#   From: 2010.05.17/outbox.cif.g08.bks.cpg/sg15_104_cif.got.tgz:207008.got - 2010.06.03 18:47:42.
