data_PCOD9263552
_publ_section_title
;
Structure prediction by ZEFSAII (Michael W. Deem and Ramdas Pophale) SiO2 
 PCOD9263552
Probable space group: C 2/C
;
_chemical_formula_sum "Si O2"
_cell_formula_units_Z 56
_cell_length_a 5.729729
_cell_length_b 16.809556
_cell_length_c 30.572521
_cell_angle_alpha 90.000000
_cell_angle_beta 55.117031
_cell_angle_gamma 90.000000
_cell_volume 2415.493573
_symmetry_space_group_name_H-M "C 2/C"
_symmetry_group_IT_number 15
_symmetry_cell_setting 'monoclinic'
loop_
_space_group_symop_operation_xyz
x,y,z
-x,y,1/2-z
-x,-y,-z
x,-y,1/2+z
1/2+x,1/2+y,z
1/2-x,1/2+y,1/2-z
1/2-x,1/2-y,-z
1/2+x,1/2-y,1/2+z
loop_
_atom_site_type_symbol
_atom_site_label
_atom_site_fract_x
_atom_site_fract_y
_atom_site_fract_z
Si Si1 0.800918 0.913214 0.234364
Si Si2 0.347797 0.808693 0.623400
Si Si3 0.665496 0.734058 0.058379
Si Si4 0.289267 0.446410 0.469580
Si Si5 0.822632 0.841487 0.381085
Si Si6 0.302197 0.416596 0.570374
Si Si7 0.818072 0.769812 0.726890
O O1 0.500000 0.949171 0.250000
O O2 0.707917 0.826443 0.264979
O O3 0.000000 0.953214 0.250000
O O4 0.012129 0.895539 0.171104
O O5 0.409504 0.785994 0.566474
O O6 0.490722 0.739056 0.636183
O O7 0.479798 0.894837 0.616947
O O8 0.016118 0.800236 0.666716
O O9 0.491638 0.809320 0.095886
O O10 0.478597 0.654597 0.073101
O O11 0.750000 0.750000 0.000000
O O12 0.285085 0.381378 0.432316
O O13 0.330621 0.416258 0.514584
O O14 0.559413 0.501899 0.429918
O O15 0.000000 0.500000 0.500000
O O16 0.500000 0.797520 0.750000
O O17 0.000000 0.796792 0.750000
#
# Coordination Sequence:
#
# PCOD9263552 Si02
#       7
#     8   8   8   8   8   8   8
#     4  10  19  36  57  94 132 156 202 267 338 386
#     4  11  21  36  61  94 128 163 206 271 341 394
#     4  11  21  35  58  91 127 156 202 267 329 395
#     4  11  23  43  60  87 126 176 224 266 324 408
#     4  11  22  35  62  95 124 166 213 270 339 392
#     4  10  23  39  58  87 128 167 215 264 321 403
#     4  10  19  34  57  93 133 158 200 262 336 392
#
# _framework density 23.183667
#
# number of rings (size 3 to 8) (size 9 to 14) (size 15 to 20)
#    0.000    1.429    2.857    5.143    2.000    3.429 
#    0.000    0.000    0.000    0.000    7.429    0.000 
#    0.000    0.000    0.000    0.000    0.000    0.000 
#
# Total GULP energy -156315.430183 kJ/mol
# GULP energy per Si atom -5582.693935 kJ/mol
# Density = 2.313090 g / cm^3
# Si number density = 23.183667 Si / 1000 Ang^3
#
#
#
# Elastic Constant Matrix: (Units=GPa)
#
#
# Indices 1 2 3 4 5 6 
#
# 1 114.9496 18.4314 16.0499 0.0001 2.1700 -0.0008
# 2 18.4314 42.4373 8.8099 0.0001 -8.7801 -0.0003
# 3 16.0499 8.8099 53.2808 -0.0004 -3.5658 -0.0002
# 4 0.0001 0.0001 -0.0004 10.6176 0.0002 -4.2262
# 5 2.1700 -8.7801 -3.5658 0.0002 44.6520 0.0003
# 6 -0.0008 -0.0003 -0.0002 -4.2262 0.0003 25.6589
#
#
#
# Elastic Compliance Matrix: (Units=1/GPa)
#
#
# Indices 1 2 3 4 5 6 
#
# 1 0.009701 -0.004025 -0.002354 0.000000 -0.001451 0.000000
# 2 -0.004025 0.027005 -0.002900 0.000000 0.005274 0.000000
# 3 -0.002354 -0.002900 0.020034 0.000001 0.001144 0.000000
# 4 0.000000 0.000000 0.000001 0.100792 0.000000 0.016601
# 5 -0.001451 0.005274 0.001144 0.000000 0.023594 0.000000
# 6 0.000000 0.000000 0.000000 0.016601 0.000000 0.041707
#
#
# Mechanical properties :
#
#
# Convention : Reuss Voigt Hill
#
# Bulk Modulus (GPa) = 26.18978 33.02778 29.60878
# Shear Modulus (GPa) = 19.67591 27.34413 23.51002
#
# Velocity S-wave (km/s) = 2.91640 3.43805 3.18791
# Velocity P-wave (km/s) = 4.76043 5.48063 5.13318
#
# Compressibility (1/GPa) = 0.03818284
#
# Stress axis : x y z
#
# Youngs Moduli (GPa) = 103.08367 37.02950 49.91618
#
# Poissons Ratio (x) = 0.14904 0.11749
# Poissons Ratio (y) = 0.41489 0.14475
# Poissons Ratio (z) = 0.24264 0.10738
#
# Static dielectric constant tensor:
#      x y z
#    x 1.953740 0.000000 -0.015240 
#    y 0.000000 1.886070 0.000000 
#    z -0.015240 0.000000 1.949830 
# 
# From -- ./inp_files/305758.got.cif
#   From: 2010.05.17/outbox.cif.g08.bks.cpg/sg15_153_cif.got.tgz:305758.got - 2010.06.03 18:47:42.
