data_PCOD9263951
_publ_section_title
;
Structure prediction by ZEFSAII (Michael W. Deem and Ramdas Pophale) SiO2 
 PCOD9263951
Probable space group: C 2/C
;
_chemical_formula_sum "Si O2"
_cell_formula_units_Z 60
_cell_length_a 26.197143
_cell_length_b 14.383291
_cell_length_c 13.831997
_cell_angle_alpha 90.000000
_cell_angle_beta 151.974165
_cell_angle_gamma 90.000000
_cell_volume 2448.919276
_symmetry_space_group_name_H-M "C 2/C"
_symmetry_group_IT_number 15
_symmetry_cell_setting 'monoclinic'
loop_
_space_group_symop_operation_xyz
x,y,z
-x,y,1/2-z
-x,-y,-z
x,-y,1/2+z
1/2+x,1/2+y,z
1/2-x,1/2+y,1/2-z
1/2-x,1/2-y,-z
1/2+x,1/2-y,1/2+z
loop_
_atom_site_type_symbol
_atom_site_label
_atom_site_fract_x
_atom_site_fract_y
_atom_site_fract_z
Si Si1 0.392440 0.157148 0.205177
Si Si2 0.000000 0.491238 0.750000
Si Si3 0.701345 0.665854 0.034047
Si Si4 0.289975 0.613085 0.138602
Si Si5 0.996677 0.235530 0.450252
Si Si6 0.359444 0.462190 0.569900
Si Si7 0.599830 0.561847 0.565470
Si Si8 0.878082 0.335101 0.991300
O O1 0.427113 0.072186 0.197217
O O2 0.278615 0.146944 0.070790
O O3 0.477110 0.183388 0.430810
O O4 0.377708 0.248967 0.115855
O O5 0.926526 0.560786 0.563681
O O6 0.782169 0.686461 0.256539
O O7 0.644263 0.569932 0.961645
O O8 0.379658 0.693200 0.274538
O O9 0.272645 0.571019 0.003188
O O10 0.343737 0.527477 0.291149
O O11 0.184720 0.656691 0.012200
O O12 0.081651 0.148725 0.606554
O O13 0.025446 0.270401 0.390090
O O14 0.342763 0.411558 0.439596
O O15 0.476107 0.452098 0.818692
#
# Coordination Sequence:
#
# PCOD9263951 Si02
#       8
#     8   4   8   8   8   8   8   8
#     4  10  23  41  70  95 137 179 239 295 358 414
#     4  12  28  46  66 100 144 196 228 298 368 436
#     4  10  20  41  65 102 128 179 238 294 341 428
#     4  11  21  41  68 102 141 190 235 291 364 428
#     4  10  23  43  66 102 140 183 238 303 354 417
#     4  10  19  34  65  99 139 174 226 292 367 419
#     4  10  20  36  64 101 139 177 228 305 358 421
#     4  11  26  44  66  96 146 183 237 288 350 439
#
# _framework density 24.500605
#
# number of rings (size 3 to 8) (size 9 to 14) (size 15 to 20)
#    0.000    1.600    1.333    4.000    1.867    7.467 
#    0.000    4.000    0.000    0.000    0.000    0.000 
#    0.000    0.000    0.000    0.000    0.000    0.000 
#
# Total GULP energy -167713.085661 kJ/mol
# GULP energy per Si atom -5590.436189 kJ/mol
# Density = 2.444484 g / cm^3
# Si number density = 24.500605 Si / 1000 Ang^3
#
#
#
# Elastic Constant Matrix: (Units=GPa)
#
#
# Indices 1 2 3 4 5 6 
#
# 1 132.1285 37.4249 29.8509 0.0000 10.9646 0.0000
# 2 37.4249 95.8989 15.2071 0.0000 16.6275 0.0000
# 3 29.8509 15.2071 46.3152 0.0000 6.0290 0.0000
# 4 0.0000 0.0000 0.0000 15.7192 0.0000 8.1626
# 5 10.9646 16.6275 6.0290 0.0000 31.2644 0.0000
# 6 0.0000 0.0000 0.0000 8.1626 0.0000 50.4500
#
#
#
# Elastic Compliance Matrix: (Units=1/GPa)
#
#
# Indices 1 2 3 4 5 6 
#
# 1 0.009592 -0.002770 -0.005156 0.000000 -0.000896 0.000000
# 2 -0.002770 0.012724 -0.001680 0.000000 -0.005471 0.000000
# 3 -0.005156 -0.001680 0.025761 0.000000 -0.002266 0.000000
# 4 0.000000 0.000000 0.000000 0.069452 0.000000 -0.011237
# 5 -0.000896 -0.005471 -0.002266 0.000000 0.035647 0.000000
# 6 0.000000 0.000000 0.000000 -0.011237 0.000000 0.021640
#
#
# Mechanical properties :
#
#
# Convention : Reuss Voigt Hill
#
# Bulk Modulus (GPa) = 34.64492 48.81204 41.72848
# Shear Modulus (GPa) = 24.55199 32.27735 28.41467
#
# Velocity S-wave (km/s) = 3.16903 3.63355 3.40921
# Velocity P-wave (km/s) = 5.24990 6.12941 5.70662
#
# Compressibility (1/GPa) = 0.02886426
#
# Stress axis : x y z
#
# Youngs Moduli (GPa) = 104.24947 78.59239 38.81843
#
# Poissons Ratio (x) = 0.21773 0.20015
# Poissons Ratio (y) = 0.28881 0.06521
# Poissons Ratio (z) = 0.53752 0.13203
#
# Static dielectric constant tensor:
#      x y z
#    x 1.934240 0.000000 0.017080 
#    y 0.000000 1.956170 0.000000 
#    z 0.017080 0.000000 1.927240 
# 
# From -- ./inp_files/178544.got.cif
#   From: 2010.05.17/outbox.cif.g08.bks.cpg/sg15_90_cif.got.tgz:178544.got - 2010.06.03 18:47:42.
