data_PCOD9263341
_publ_section_title
;
Structure prediction by ZEFSAII (Michael W. Deem and Ramdas Pophale) SiO2 
 PCOD9263341
Probable space group: C 2/C
;
_chemical_formula_sum "Si O2"
_cell_formula_units_Z 60
_cell_length_a 13.388164
_cell_length_b 17.510177
_cell_length_c 10.565827
_cell_angle_alpha 90.000000
_cell_angle_beta 109.576455
_cell_angle_gamma 90.000000
_cell_volume 2333.758718
_symmetry_space_group_name_H-M "C 2/C"
_symmetry_group_IT_number 15
_symmetry_cell_setting 'monoclinic'
loop_
_space_group_symop_operation_xyz
x,y,z
-x,y,1/2-z
-x,-y,-z
x,-y,1/2+z
1/2+x,1/2+y,z
1/2-x,1/2+y,1/2-z
1/2-x,1/2-y,-z
1/2+x,1/2-y,1/2+z
loop_
_atom_site_type_symbol
_atom_site_label
_atom_site_fract_x
_atom_site_fract_y
_atom_site_fract_z
Si Si1 0.860411 0.680677 0.871149
Si Si2 0.788935 0.007184 0.681409
Si Si3 0.292434 0.857697 0.950777
Si Si4 0.930548 0.156946 0.437250
Si Si5 0.149660 0.201848 0.623111
Si Si6 0.693721 0.105434 0.421707
Si Si7 0.000000 0.959399 0.750000
Si Si8 0.640528 0.955166 0.306401
O O1 0.916373 0.760441 0.861922
O O2 0.736840 0.687886 0.770712
O O3 0.903477 0.606078 0.813590
O O4 0.865412 0.671821 0.025541
O O5 0.765693 0.917482 0.662887
O O6 0.904922 0.015421 0.681653
O O7 0.717558 0.049118 0.550045
O O8 0.763751 0.036452 0.810493
O O9 0.207231 0.825286 0.015895
O O10 0.367771 0.909879 0.068127
O O11 0.350983 0.793221 0.897568
O O12 0.810829 0.135646 0.431755
O O13 0.030648 0.169156 0.575556
O O14 0.971300 0.092764 0.357148
O O15 0.621568 0.046515 0.307096
#
# Coordination Sequence:
#
# PCOD9263341 Si02
#       8
#     8   8   8   8   8   8   4   8
#     4  10  23  41  63  92 124 168 205 251 312 370
#     4  10  19  34  55  86 119 161 199 248 306 371
#     4   9  18  35  54  83 120 160 196 245 307 356
#     4  12  24  38  62  96 126 160 209 257 308 369
#     4  10  21  36  59  87 124 158 202 255 302 362
#     4  10  22  39  62  88 126 165 203 252 314 373
#     4  12  22  32  58  96 126 152 208 250 312 376
#     4   9  19  36  60  84 118 163 205 248 302 364
#
# _framework density 25.709599999999998
#
# number of rings (size 3 to 8) (size 9 to 14) (size 15 to 20)
#    0.000    1.867    2.667    1.200    3.733    4.267 
#    0.000    0.000    0.000    8.800    0.000    0.000 
#    0.000    0.000    0.000    0.000    0.000    0.000 
#
# Total GULP energy -167109.283406 kJ/mol
# GULP energy per Si atom -5570.309447 kJ/mol
# Density = 2.565108 g / cm^3
# Si number density = 25.709600 Si / 1000 Ang^3
#
#
#
# Elastic Constant Matrix: (Units=GPa)
#
#
# Indices 1 2 3 4 5 6 
#
# 1 75.7227 15.0838 25.2537 0.0000 25.4928 0.0000
# 2 15.0838 87.1268 8.7804 0.0000 0.7431 0.0000
# 3 25.2537 8.7804 38.4131 0.0000 -0.5442 0.0000
# 4 0.0000 0.0000 0.0000 7.3752 0.0000 -17.5163
# 5 25.4928 0.7431 -0.5442 0.0000 27.1398 0.0000
# 6 0.0000 0.0000 0.0000 -17.5163 0.0000 12.6930
#
#
#
# Elastic Compliance Matrix: (Units=1/GPa)
#
#
# Indices 1 2 3 4 5 6 
#
# 1 0.029722 -0.002964 -0.019263 0.000000 -0.028224 0.000000
# 2 -0.002964 0.012048 -0.000771 0.000000 0.002439 0.000000
# 3 -0.019263 -0.000771 0.039140 0.000000 0.018899 0.000000
# 4 0.000000 0.000000 0.000000 -0.059534 0.000000 -0.082157
# 5 -0.028224 0.002439 0.018899 0.000000 0.063669 0.000000
# 6 0.000000 0.000000 0.000000 -0.082157 0.000000 -0.034592
#
#
# Mechanical properties :
#
#
# Convention : Reuss Voigt Hill
#
# Bulk Modulus (GPa) = 28.64018 33.27761 30.95890
# Shear Modulus (GPa) = 46.25938 19.58459 32.92199
#
# Velocity S-wave (km/s) = 4.24642 2.76300 3.58234
# Velocity P-wave (km/s) = 5.93354 4.81151 5.40174
#
# Compressibility (1/GPa) = 0.03491598
#
# Stress axis : x y z
#
# Youngs Moduli (GPa) = 33.64473 83.00474 25.54907
#
# Poissons Ratio (x) = 0.24600 0.49214
# Poissons Ratio (y) = 0.09971 0.01969
# Poissons Ratio (z) = 0.64808 0.06398
#
# Static dielectric constant tensor:
#      x y z
#    x 2.148610 0.000000 0.037150 
#    y 0.000000 2.140260 0.000000 
#    z 0.037150 0.000000 2.105510 
# 
# From -- ./inp_files/98807.got.cif
#   From: 2010.05.17/outbox.cif.g08.bks.cpg/sg15_50_cif.got.tgz:98807.got - 2010.06.03 18:47:42.
