data_PCOD9263212
_publ_section_title
;
Structure prediction by ZEFSAII (Michael W. Deem and Ramdas Pophale) SiO2 
 PCOD9263212
Probable space group: C 2/C
;
_chemical_formula_sum "Si O2"
_cell_formula_units_Z 56
_cell_length_a 6.128323
_cell_length_b 21.745975
_cell_length_c 21.671691
_cell_angle_alpha 90.000000
_cell_angle_beta 72.121769
_cell_angle_gamma 90.000000
_cell_volume 2748.643857
_symmetry_space_group_name_H-M "C 2/C"
_symmetry_group_IT_number 15
_symmetry_cell_setting 'monoclinic'
loop_
_space_group_symop_operation_xyz
x,y,z
-x,y,1/2-z
-x,-y,-z
x,-y,1/2+z
1/2+x,1/2+y,z
1/2-x,1/2+y,1/2-z
1/2-x,1/2-y,-z
1/2+x,1/2-y,1/2+z
loop_
_atom_site_type_symbol
_atom_site_label
_atom_site_fract_x
_atom_site_fract_y
_atom_site_fract_z
Si Si1 0.039922 0.492924 0.820370
Si Si2 0.000000 0.063349 0.250000
Si Si3 0.502100 0.766172 0.640841
Si Si4 0.781786 0.172096 0.440256
Si Si5 0.049444 0.292790 0.435281
Si Si6 0.703982 0.615188 0.352710
Si Si7 0.045190 0.629703 0.819427
Si Si8 0.000000 0.181577 0.750000
O O1 0.308430 0.476263 0.802861
O O2 0.979674 0.561566 0.846741
O O3 0.000000 0.494928 0.750000
O O4 0.874906 0.439096 0.858825
O O5 0.862541 0.103365 0.212502
O O6 0.319869 0.800025 0.614037
O O7 0.665030 0.820151 0.653175
O O8 0.401956 0.726687 0.705850
O O9 0.678214 0.720627 0.588987
O O10 0.938343 0.226065 0.455445
O O11 0.562684 0.163411 0.503470
O O12 0.963358 0.118906 0.410143
O O13 0.969525 0.319284 0.375507
O O14 0.317902 0.638087 0.797702
O O15 0.000000 0.637116 0.750000
#
# Coordination Sequence:
#
# PCOD9263212 Si02
#       8
#     8   4   8   8   8   8   8   4
#     4   9  19  33  52  76 104 141 181 219 275 329
#     4  10  19  34  54  74 108 139 172 224 276 316
#     4  10  20  32  52  80 111 139 179 228 271 334
#     4  10  19  35  54  74 112 144 178 221 268 329
#     4   9  20  35  53  80 103 147 183 213 276 330
#     4  10  21  32  52  80 105 142 181 222 272 329
#     4  10  19  36  55  78 109 137 177 231 271 324
#     4  10  21  30  52  84 108 135 182 220 290 324
#
# _framework density 20.373684999999998
#
# number of rings (size 3 to 8) (size 9 to 14) (size 15 to 20)
#    0.000    2.286    0.000    2.571    5.000    0.000 
#    2.571    0.714    0.000    3.429    0.000    0.000 
#    0.000    0.000    0.000    0.000    0.000    0.000 
#
# Total GULP energy -155952.419721 kJ/mol
# GULP energy per Si atom -5569.729276 kJ/mol
# Density = 2.032731 g / cm^3
# Si number density = 20.373685 Si / 1000 Ang^3
#
#
#
# Elastic Constant Matrix: (Units=GPa)
#
#
# Indices 1 2 3 4 5 6 
#
# 1 57.3194 17.7780 0.1412 0.0000 -6.2341 0.0000
# 2 17.7780 75.5414 20.7256 0.0000 -13.7623 0.0000
# 3 0.1412 20.7256 45.3827 0.0000 -9.3761 0.0000
# 4 0.0000 0.0000 0.0000 9.3655 0.0000 -1.5360
# 5 -6.2341 -13.7623 -9.3761 0.0000 25.0180 0.0000
# 6 0.0000 0.0000 0.0000 -1.5360 0.0000 17.0179
#
#
#
# Elastic Compliance Matrix: (Units=1/GPa)
#
#
# Indices 1 2 3 4 5 6 
#
# 1 0.019248 -0.004694 0.002755 0.000000 0.003246 0.000000
# 2 -0.004694 0.017227 -0.006651 0.000000 0.005814 0.000000
# 3 0.002755 -0.006651 0.026502 0.000000 0.006960 0.000000
# 4 0.000000 0.000000 0.000000 0.108379 0.000000 0.009782
# 5 0.003246 0.005814 0.006960 0.000000 0.046587 0.000000
# 6 0.000000 0.000000 0.000000 0.009782 0.000000 0.059645
#
#
# Mechanical properties :
#
#
# Convention : Reuss Voigt Hill
#
# Bulk Modulus (GPa) = 21.83659 28.39255 25.11457
# Shear Modulus (GPa) = 16.12729 19.58687 17.85708
#
# Velocity S-wave (km/s) = 2.81655 3.10398 2.96375
# Velocity P-wave (km/s) = 4.61720 5.17807 4.90566
#
# Compressibility (1/GPa) = 0.04579469
#
# Stress axis : x y z
#
# Youngs Moduli (GPa) = 51.95244 58.04989 37.73343
#
# Poissons Ratio (x) = 0.27250 -0.10394
# Poissons Ratio (y) = 0.24388 0.25098
# Poissons Ratio (z) = -0.14311 0.38611
#
# Static dielectric constant tensor:
#      x y z
#    x 1.785150 0.000000 -0.024610 
#    y 0.000000 1.730040 0.000000 
#    z -0.024610 0.000000 1.778480 
# 
# From -- ./inp_files/228188.got.cif
#   From: 2010.05.17/outbox.cif.g08.bks.cpg/sg15_115_cif.got.tgz:228188.got - 2010.06.03 18:47:42.
