data_PCOD9263291
_publ_section_title
;
Structure prediction by ZEFSAII (Michael W. Deem and Ramdas Pophale) SiO2 
 PCOD9263291
Probable space group: C 2/C
;
_chemical_formula_sum "Si O2"
_cell_formula_units_Z 52
_cell_length_a 17.228160
_cell_length_b 14.275340
_cell_length_c 18.604551
_cell_angle_alpha 90.000000
_cell_angle_beta 36.650728
_cell_angle_gamma 90.000000
_cell_volume 2731.315746
_symmetry_space_group_name_H-M "C 2/C"
_symmetry_group_IT_number 15
_symmetry_cell_setting 'monoclinic'
loop_
_space_group_symop_operation_xyz
x,y,z
-x,y,1/2-z
-x,-y,-z
x,-y,1/2+z
1/2+x,1/2+y,z
1/2-x,1/2+y,1/2-z
1/2-x,1/2-y,-z
1/2+x,1/2-y,1/2+z
loop_
_atom_site_type_symbol
_atom_site_label
_atom_site_fract_x
_atom_site_fract_y
_atom_site_fract_z
Si Si1 0.000000 0.813131 0.750000
Si Si2 0.871563 0.938526 0.079214
Si Si3 0.942319 0.759237 0.939920
Si Si4 0.785639 0.303864 0.194363
Si Si5 0.248422 0.896418 0.635566
Si Si6 0.075989 0.553123 0.008838
Si Si7 0.305913 0.098512 0.259157
O O1 0.930470 0.752828 0.863152
O O2 0.892531 0.874035 0.789162
O O3 0.810986 0.870882 0.187540
O O4 0.764345 0.018409 0.142473
O O5 0.911041 0.864316 0.988797
O O6 0.000000 0.000000 0.000000
O O7 0.088554 0.727230 0.851774
O O8 0.840951 0.693162 0.056045
O O9 0.724700 0.207991 0.209486
O O10 0.846935 0.362337 0.083936
O O11 0.252041 0.920496 0.717460
O O12 0.319982 0.979390 0.540064
O O13 0.960059 0.583701 0.146016
O O14 0.000000 0.500000 0.000000
#
# Coordination Sequence:
#
# PCOD9263291 Si02
#       7
#     4   8   8   8   8   8   8
#     4  12  24  36  52  82 124 170 194 222 274 364
#     4  12  21  31  53  85 118 149 193 245 295 345
#     4  12  22  37  54  82 124 162 195 229 287 356
#     4  12  19  34  57  82 120 152 185 247 296 349
#     4  11  20  36  55  79 113 158 194 227 289 351
#     4  10  19  34  55  79 109 152 192 234 298 341
#     4  11  20  35  55  86 117 148 191 249 300 344
#
# _framework density 19.038443000000001
#
# number of rings (size 3 to 8) (size 9 to 14) (size 15 to 20)
#    0.000    0.615   10.769    0.462    0.000    0.000 
#    0.000    0.000    0.000    0.000    0.000    4.308 
#    0.000    0.000    0.000    0.000    0.000    0.000 
#
# Total GULP energy -145017.949465 kJ/mol
# GULP energy per Si atom -5577.613441 kJ/mol
# Density = 1.899511 g / cm^3
# Si number density = 19.038443 Si / 1000 Ang^3
#
#
#
# Elastic Constant Matrix: (Units=GPa)
#
#
# Indices 1 2 3 4 5 6 
#
# 1 21.1943 -2.3705 4.7839 0.0000 -5.1951 0.0000
# 2 -2.3705 135.2021 46.3193 0.0000 -5.3074 0.0000
# 3 4.7839 46.3193 102.2595 0.0000 -13.3322 0.0000
# 4 0.0000 0.0000 0.0000 55.8081 0.0000 -11.2955
# 5 -5.1951 -5.3074 -13.3322 0.0000 25.7435 0.0000
# 6 0.0000 0.0000 0.0000 -11.2955 0.0000 8.8976
#
#
#
# Elastic Compliance Matrix: (Units=1/GPa)
#
#
# Indices 1 2 3 4 5 6 
#
# 1 0.050174 0.001932 -0.001984 0.000000 0.009496 0.000000
# 2 0.001932 0.008831 -0.004078 0.000000 0.000099 0.000000
# 3 -0.001984 -0.004078 0.012394 0.000000 0.005178 0.000000
# 4 0.000000 0.000000 0.000000 0.024115 0.000000 0.030614
# 5 0.009496 0.000099 0.005178 0.000000 0.043463 0.000000
# 6 0.000000 0.000000 0.000000 0.030614 0.000000 0.151255
#
#
# Mechanical properties :
#
#
# Convention : Reuss Voigt Hill
#
# Bulk Modulus (GPa) = 15.83791 39.56904 27.70348
# Shear Modulus (GPa) = 15.64763 32.08471 23.86617
#
# Velocity S-wave (km/s) = 2.86998 4.10964 3.54443
# Velocity P-wave (km/s) = 4.39538 6.58390 5.59764
#
# Compressibility (1/GPa) = 0.06313963
#
# Stress axis : x y z
#
# Youngs Moduli (GPa) = 19.93059 113.23672 80.68487
#
# Poissons Ratio (x) = -0.21881 0.16011
# Poissons Ratio (y) = -0.03851 0.32900
# Poissons Ratio (z) = 0.03955 0.46174
#
# Static dielectric constant tensor:
#      x y z
#    x 1.651450 0.000000 0.002290 
#    y 0.000000 1.698220 0.000000 
#    z 0.002290 0.000000 1.724420 
# 
# From -- ./inp_files/205644.got.cif
#   From: 2010.05.17/outbox.cif.g08.bks.cpg/sg15_103_cif.got.tgz:205644.got - 2010.06.03 18:47:42.
