data_PCOD9263829
_publ_section_title
;
Structure prediction by ZEFSAII (Michael W. Deem and Ramdas Pophale) SiO2 
 PCOD9263829
Probable space group: C 2/C
;
_chemical_formula_sum "Si O2"
_cell_formula_units_Z 60
_cell_length_a 5.772920
_cell_length_b 32.879086
_cell_length_c 13.554290
_cell_angle_alpha 90.000000
_cell_angle_beta 80.493166
_cell_angle_gamma 90.000000
_cell_volume 2537.383258
_symmetry_space_group_name_H-M "C 2/C"
_symmetry_group_IT_number 15
_symmetry_cell_setting 'monoclinic'
loop_
_space_group_symop_operation_xyz
x,y,z
-x,y,1/2-z
-x,-y,-z
x,-y,1/2+z
1/2+x,1/2+y,z
1/2-x,1/2+y,1/2-z
1/2-x,1/2-y,-z
1/2+x,1/2-y,1/2+z
loop_
_atom_site_type_symbol
_atom_site_label
_atom_site_fract_x
_atom_site_fract_y
_atom_site_fract_z
Si Si1 0.922818 0.939580 0.539865
Si Si2 0.859073 0.836710 0.162046
Si Si3 0.879771 0.990795 0.352145
Si Si4 0.820176 0.274854 0.895185
Si Si5 0.322996 0.754366 0.379803
Si Si6 0.500000 0.015072 0.750000
Si Si7 0.221649 0.360349 0.511017
Si Si8 0.128880 0.590002 0.602905
O O1 0.950117 0.975134 0.616208
O O2 0.180077 0.923551 0.491611
O O3 0.781729 0.899268 0.574214
O O4 0.826588 0.960966 0.446172
O O5 0.673172 0.802134 0.146510
O O6 0.742559 0.880760 0.177357
O O7 0.000000 0.826059 0.250000
O O8 0.047707 0.842979 0.061101
O O9 0.000000 0.968349 0.250000
O O10 0.663634 0.011159 0.310414
O O11 0.579899 0.266279 0.849598
O O12 0.080838 0.260560 0.845359
O O13 0.750000 0.250000 0.000000
O O14 0.860284 0.321834 0.921475
O O15 0.250000 0.750000 0.500000
O O16 0.573077 0.048080 0.661201
O O17 0.056674 0.380877 0.439361
#
# Coordination Sequence:
#
# PCOD9263829 Si02
#       8
#     8   8   8   8   8   4   8   8
#     4  10  24  39  62  91 122 164 212 259 325 393
#     4  11  23  34  55  88 129 162 198 258 323 386
#     4  11  23  43  62  88 125 163 209 264 321 398
#     4  10  19  34  61  86 117 163 211 252 305 370
#     4  10  19  37  56  82 119 165 213 245 299 382
#     4  12  22  36  62  88 126 168 196 264 340 390
#     4  11  21  37  60  92 122 162 204 264 315 391
#     4  11  22  35  56  91 129 156 206 257 328 396
#
# _framework density 23.646409999999999
#
# number of rings (size 3 to 8) (size 9 to 14) (size 15 to 20)
#    0.000    1.333    5.333    2.400    3.733    1.600 
#    0.000    0.000    0.000    1.600    0.000    0.000 
#    0.000    0.000    0.000    0.000    0.000    0.000 
#
# Total GULP energy -167322.186831 kJ/mol
# GULP energy per Si atom -5577.406228 kJ/mol
# Density = 2.359259 g / cm^3
# Si number density = 23.646410 Si / 1000 Ang^3
#
#
#
# Elastic Constant Matrix: (Units=GPa)
#
#
# Indices 1 2 3 4 5 6 
#
# 1 106.6458 15.5049 35.9205 0.0000 20.5852 0.0000
# 2 15.5049 127.1110 38.4813 0.0000 14.4283 0.0000
# 3 35.9205 38.4813 79.9342 0.0000 27.5394 0.0000
# 4 0.0000 0.0000 0.0000 29.1345 0.0000 26.8366
# 5 20.5852 14.4283 27.5394 0.0000 41.6232 0.0000
# 6 0.0000 0.0000 0.0000 26.8366 0.0000 46.0526
#
#
#
# Elastic Compliance Matrix: (Units=1/GPa)
#
#
# Indices 1 2 3 4 5 6 
#
# 1 0.011317 0.000218 -0.004191 0.000000 -0.002899 0.000000
# 2 0.000218 0.009217 -0.004400 0.000000 -0.000391 0.000000
# 3 -0.004191 -0.004400 0.019782 0.000000 -0.009490 0.000000
# 4 0.000000 0.000000 0.000000 0.074097 0.000000 -0.043179
# 5 -0.002899 -0.000391 -0.009490 0.000000 0.031873 0.000000
# 6 0.000000 0.000000 0.000000 -0.043179 0.000000 0.046877
#
#
# Mechanical properties :
#
#
# Convention : Reuss Voigt Hill
#
# Bulk Modulus (GPa) = 42.43153 54.83382 48.63268
# Shear Modulus (GPa) = 22.96039 38.28101 30.62070
#
# Velocity S-wave (km/s) = 3.11945 4.02791 3.60243
# Velocity P-wave (km/s) = 5.56397 6.69862 6.15749
#
# Compressibility (1/GPa) = 0.02356738
#
# Stress axis : x y z
#
# Youngs Moduli (GPa) = 88.36652 108.49380 50.55194
#
# Poissons Ratio (x) = -0.02360 0.21188
# Poissons Ratio (y) = -0.01922 0.22244
# Poissons Ratio (z) = 0.37037 0.47739
#
# Static dielectric constant tensor:
#      x y z
#    x 2.152090 0.000000 0.015660 
#    y 0.000000 1.856320 0.000000 
#    z 0.015660 0.000000 1.899960 
# 
# From -- ./inp_files/186562.got.cif
#   From: 2010.05.17/outbox.cif.g08.bks.cpg/sg15_94_cif.got.tgz:186562.got - 2010.06.03 18:47:42.
