data_PCOD9263898
_publ_section_title
;
Structure prediction by ZEFSAII (Michael W. Deem and Ramdas Pophale) SiO2 
 PCOD9263898
Probable space group: C 2/C
;
_chemical_formula_sum "Si O2"
_cell_formula_units_Z 64
_cell_length_a 13.215695
_cell_length_b 19.126949
_cell_length_c 12.964535
_cell_angle_alpha 90.000000
_cell_angle_beta 90.025429
_cell_angle_gamma 90.000000
_cell_volume 3277.121995
_symmetry_space_group_name_H-M "C 2/C"
_symmetry_group_IT_number 15
_symmetry_cell_setting 'monoclinic'
loop_
_space_group_symop_operation_xyz
x,y,z
-x,y,1/2-z
-x,-y,-z
x,-y,1/2+z
1/2+x,1/2+y,z
1/2-x,1/2+y,1/2-z
1/2-x,1/2-y,-z
1/2+x,1/2-y,1/2+z
loop_
_atom_site_type_symbol
_atom_site_label
_atom_site_fract_x
_atom_site_fract_y
_atom_site_fract_z
Si Si1 0.102652 0.953255 0.711445
Si Si2 0.344101 0.159780 0.467509
Si Si3 0.251425 0.393643 0.950060
Si Si4 0.951214 0.336420 0.635770
Si Si5 0.952605 0.089943 0.916457
Si Si6 0.804505 0.032582 0.074446
Si Si7 0.714230 0.298590 0.149558
Si Si8 0.852311 0.816117 0.120529
O O1 0.161351 0.903140 0.634368
O O2 0.174926 0.974132 0.805414
O O3 0.000000 0.918130 0.750000
O O4 0.070401 0.025787 0.658647
O O5 0.461308 0.148121 0.446710
O O6 0.277059 0.092552 0.444400
O O7 0.311479 0.219902 0.385481
O O8 0.313927 0.182849 0.583454
O O9 0.146271 0.383078 0.890820
O O10 0.262159 0.463838 0.018561
O O11 0.276332 0.329817 0.026445
O O12 0.914255 0.256242 0.622810
O O13 0.000000 0.345721 0.750000
O O14 0.875847 0.153151 0.894483
O O15 0.063449 0.121926 0.895753
O O16 0.912290 0.057838 0.024588
O O17 0.708520 0.314006 0.271142
#
# Coordination Sequence:
#
# PCOD9263898 Si02
#       8
#     8   8   8   8   8   8   8   8
#     4  11  21  37  60  92 130 169 199 253 323 382
#     4  10  21  38  61  89 117 164 219 253 302 369
#     4  11  26  40  60  96 129 161 211 264 309 376
#     4  12  23  42  64  89 124 171 212 253 311 375
#     4  10  19  34  62  93 120 158 210 254 310 380
#     4  10  22  39  60  88 130 164 203 262 317 369
#     4  10  19  35  62  92 118 156 213 260 302 369
#     4  12  21  39  64  94 123 160 202 265 318 364
#
# _framework density 19.529330999999999
#
# number of rings (size 3 to 8) (size 9 to 14) (size 15 to 20)
#    0.000    1.250    2.500    4.500    0.000    2.500 
#    0.000    0.625    0.000    0.000    0.000    0.000 
#    0.000    0.000    0.000    0.000    0.000    0.000 
#
# Total GULP energy -178657.404659 kJ/mol
# GULP energy per Si atom -5583.043896 kJ/mol
# Density = 1.948488 g / cm^3
# Si number density = 19.529331 Si / 1000 Ang^3
#
#
#
# Elastic Constant Matrix: (Units=GPa)
#
#
# Indices 1 2 3 4 5 6 
#
# 1 118.6892 40.7924 57.0997 0.0000 -15.4509 0.0000
# 2 40.7924 85.8406 44.0644 0.0000 1.0613 0.0000
# 3 57.0997 44.0644 126.9917 0.0000 -3.7589 0.0000
# 4 0.0000 0.0000 0.0000 15.8489 0.0000 -1.7602
# 5 -15.4509 1.0613 -3.7589 0.0000 35.4876 0.0000
# 6 0.0000 0.0000 0.0000 -1.7602 0.0000 34.8169
#
#
#
# Elastic Compliance Matrix: (Units=1/GPa)
#
#
# Indices 1 2 3 4 5 6 
#
# 1 0.012369 -0.003848 -0.004076 0.000000 0.005069 0.000000
# 2 -0.003848 0.015403 -0.003689 0.000000 -0.002527 0.000000
# 3 -0.004076 -0.003689 0.010973 0.000000 -0.000502 0.000000
# 4 0.000000 0.000000 0.000000 0.063452 0.000000 0.003208
# 5 0.005069 -0.002527 -0.000502 0.000000 0.030408 0.000000
# 6 0.000000 0.000000 0.000000 0.003208 0.000000 0.028884
#
#
# Mechanical properties :
#
#
# Convention : Reuss Voigt Hill
#
# Bulk Modulus (GPa) = 64.44317 68.38162 66.41240
# Shear Modulus (GPa) = 26.33134 29.86834 28.09984
#
# Velocity S-wave (km/s) = 3.67590 3.91501 3.79734
# Velocity P-wave (km/s) = 7.14745 7.45166 7.30114
#
# Compressibility (1/GPa) = 0.01551755
#
# Stress axis : x y z
#
# Youngs Moduli (GPa) = 80.84926 64.92165 91.13627
#
# Poissons Ratio (x) = 0.24982 0.37148
# Poissons Ratio (y) = 0.31111 0.33623
# Poissons Ratio (z) = 0.32955 0.23952
#
# Static dielectric constant tensor:
#      x y z
#    x 1.693150 0.000000 -0.021830 
#    y 0.000000 1.689920 0.000000 
#    z -0.021830 0.000000 1.731450 
# 
# From -- ./inp_files/98786.got.cif
#   From: 2010.05.17/outbox.cif.g08.bks.cpg/sg15_50_cif.got.tgz:98786.got - 2010.06.03 18:47:42.
