data_PCOD9263296
_publ_section_title
;
Structure prediction by ZEFSAII (Michael W. Deem and Ramdas Pophale) SiO2 
 PCOD9263296
Probable space group: C 2/C
;
_chemical_formula_sum "Si O2"
_cell_formula_units_Z 36
_cell_length_a 12.485854
_cell_length_b 21.198025
_cell_length_c 8.725516
_cell_angle_alpha 90.000000
_cell_angle_beta 121.235252
_cell_angle_gamma 90.000000
_cell_volume 1974.667297
_symmetry_space_group_name_H-M "C 2/C"
_symmetry_group_IT_number 15
_symmetry_cell_setting 'monoclinic'
loop_
_space_group_symop_operation_xyz
x,y,z
-x,y,1/2-z
-x,-y,-z
x,-y,1/2+z
1/2+x,1/2+y,z
1/2-x,1/2+y,1/2-z
1/2-x,1/2-y,-z
1/2+x,1/2-y,1/2+z
loop_
_atom_site_type_symbol
_atom_site_label
_atom_site_fract_x
_atom_site_fract_y
_atom_site_fract_z
Si Si1 0.560474 0.058378 0.128568
Si Si2 0.798964 0.220987 0.376489
Si Si3 0.500000 0.489945 0.750000
Si Si4 0.347572 0.427400 0.906750
Si Si5 0.968484 0.699543 0.411999
O O1 0.500000 0.060786 0.250000
O O2 0.708687 0.051081 0.257975
O O3 0.531285 0.126898 0.035601
O O4 0.500000 0.000000 0.000000
O O5 0.750000 0.250000 0.500000
O O6 0.837113 0.147718 0.424509
O O7 0.674591 0.223619 0.178814
O O8 0.923274 0.260016 0.427780
O O9 0.438404 0.446747 0.835010
O O10 0.398736 0.535392 0.592648
O O11 0.000000 0.700643 0.250000
#
# Coordination Sequence:
#
# PCOD9263296 Si02
#       5
#     8   8   4   8   8
#     4  10  19  34  55  80 110 140 183 235 281 329
#     4   9  17  30  52  80 105 138 188 232 271 326
#     4  10  22  38  54  84 114 152 186 228 290 336
#     4  10  21  36  57  82 115 147 190 232 281 340
#     4   8  16  29  47  77 101 133 177 224 265 321
#
# _framework density 18.230920999999999
#
# number of rings (size 3 to 8) (size 9 to 14) (size 15 to 20)
#    0.000    2.667    0.000    2.667    4.667    0.000 
#    4.000    0.000    2.444    2.667    0.000    0.000 
#    0.000    0.000    0.000    0.000    0.000    0.000 
#
# Total GULP energy -100285.381354 kJ/mol
# GULP energy per Si atom -5571.410075 kJ/mol
# Density = 1.818943 g / cm^3
# Si number density = 18.230921 Si / 1000 Ang^3
#
#
#
# Elastic Constant Matrix: (Units=GPa)
#
#
# Indices 1 2 3 4 5 6 
#
# 1 59.9360 55.8628 29.1079 0.0000 28.9699 0.0000
# 2 55.8628 138.2234 78.8648 0.0000 43.1063 0.0000
# 3 29.1079 78.8648 60.3280 0.0000 30.6194 0.0000
# 4 0.0000 0.0000 0.0000 36.0696 0.0000 11.5537
# 5 28.9699 43.1063 30.6194 0.0000 39.3557 0.0000
# 6 0.0000 0.0000 0.0000 11.5537 0.0000 31.8495
#
#
#
# Elastic Compliance Matrix: (Units=1/GPa)
#
#
# Indices 1 2 3 4 5 6 
#
# 1 0.033245 -0.015293 0.013007 0.000000 -0.017840 0.000000
# 2 -0.015293 0.035830 -0.041737 0.000000 0.004485 0.000000
# 3 0.013007 -0.041737 0.076875 0.000000 -0.023670 0.000000
# 4 0.000000 0.000000 0.000000 0.031369 0.000000 -0.011379
# 5 -0.017840 0.004485 -0.023670 0.000000 0.052046 0.000000
# 6 0.000000 0.000000 0.000000 -0.011379 0.000000 0.035526
#
#
# Mechanical properties :
#
#
# Convention : Reuss Voigt Hill
#
# Bulk Modulus (GPa) = 17.27003 65.12871 41.19937
# Shear Modulus (GPa) = 13.43222 27.76507 20.59865
#
# Velocity S-wave (km/s) = 2.71732 3.90675 3.36501
# Velocity P-wave (km/s) = 4.39757 7.49347 6.14373
#
# Compressibility (1/GPa) = 0.05790378
#
# Stress axis : x y z
#
# Youngs Moduli (GPa) = 30.07983 27.90923 13.00807
#
# Poissons Ratio (x) = 0.42683 -0.16920
# Poissons Ratio (y) = 0.46003 0.54292
# Poissons Ratio (z) = -0.39125 1.16485
#
# Static dielectric constant tensor:
#      x y z
#    x 1.644450 0.000000 0.004290 
#    y 0.000000 1.633590 0.000000 
#    z 0.004290 0.000000 1.633400 
# 
# From -- ./inp_files/28988.got.cif
#   From: 2010.05.17/outbox.cif.g08.bks.cpg/sg15_15_cif.got.tgz:28988.got - 2010.06.03 18:47:42.
