data_PCOD9263613
_publ_section_title
;
Structure prediction by ZEFSAII (Michael W. Deem and Ramdas Pophale) SiO2 
 PCOD9263613
Probable space group: C 2/C
;
_chemical_formula_sum "Si O2"
_cell_formula_units_Z 64
_cell_length_a 14.071246
_cell_length_b 17.771810
_cell_length_c 14.781377
_cell_angle_alpha 90.000000
_cell_angle_beta 82.154825
_cell_angle_gamma 90.000000
_cell_volume 3661.804905
_symmetry_space_group_name_H-M "C 2/C"
_symmetry_group_IT_number 15
_symmetry_cell_setting 'monoclinic'
loop_
_space_group_symop_operation_xyz
x,y,z
-x,y,1/2-z
-x,-y,-z
x,-y,1/2+z
1/2+x,1/2+y,z
1/2-x,1/2+y,1/2-z
1/2-x,1/2-y,-z
1/2+x,1/2-y,1/2+z
loop_
_atom_site_type_symbol
_atom_site_label
_atom_site_fract_x
_atom_site_fract_y
_atom_site_fract_z
Si Si1 0.140848 0.005892 0.811724
Si Si2 0.901878 0.182177 0.488102
Si Si3 0.789580 0.920558 0.383334
Si Si4 0.372251 0.180287 0.681315
Si Si5 0.904348 0.339004 0.387287
Si Si6 0.745859 0.947163 0.028279
Si Si7 0.494923 0.364484 0.355239
Si Si8 0.565504 0.658677 0.328497
O O1 0.177705 0.038372 0.712893
O O2 0.215595 0.022297 0.881096
O O3 0.044976 0.052957 0.849162
O O4 0.118811 0.918624 0.805574
O O5 0.880255 0.262687 0.445840
O O6 0.815641 0.122778 0.493379
O O7 0.940477 0.185291 0.586007
O O8 0.991719 0.149718 0.420154
O O9 0.704811 0.864712 0.366326
O O10 0.885340 0.875306 0.400777
O O11 0.756473 0.984564 0.457191
O O12 0.480802 0.158029 0.638903
O O13 0.362301 0.166016 0.790532
O O14 0.367059 0.269771 0.665709
O O15 0.857835 0.410028 0.443337
O O16 0.500000 0.338393 0.250000
O O17 0.500000 0.677991 0.250000
#
# Coordination Sequence:
#
# PCOD9263613 Si02
#       8
#     8   8   8   8   8   8   8   8
#     4  10  20  34  55  85 116 141 177 223 284 343
#     4  10  19  34  58  86 113 142 185 224 280 338
#     4  11  21  35  55  83 113 149 182 227 281 331
#     4  10  21  38  58  76 110 154 191 223 271 323
#     4  10  20  39  56  81 107 150 195 230 263 322
#     4  11  21  34  57  85 114 142 183 234 277 325
#     4   9  19  35  53  81 119 150 169 222 289 340
#     4  11  18  33  57  82 108 143 181 229 270 332
#
# _framework density 17.477720000000001
#
# number of rings (size 3 to 8) (size 9 to 14) (size 15 to 20)
#    0.000    1.750    3.750    3.750    0.000    2.500 
#    0.000    5.625    0.000    0.000    0.000    0.000 
#    0.000    0.000    0.000    0.000    0.000    0.000 
#
# Total GULP energy -178566.389847 kJ/mol
# GULP energy per Si atom -5580.199683 kJ/mol
# Density = 1.743794 g / cm^3
# Si number density = 17.477720 Si / 1000 Ang^3
#
#
#
# Elastic Constant Matrix: (Units=GPa)
#
#
# Indices 1 2 3 4 5 6 
#
# 1 60.0193 38.4580 19.5079 0.0000 10.7334 0.0000
# 2 38.4580 59.1555 20.5776 0.0000 6.4337 0.0000
# 3 19.5079 20.5776 63.1386 0.0000 9.6403 0.0000
# 4 0.0000 0.0000 0.0000 16.1391 0.0000 4.9879
# 5 10.7334 6.4337 9.6403 0.0000 22.1326 0.0000
# 6 0.0000 0.0000 0.0000 4.9879 0.0000 18.8112
#
#
#
# Elastic Compliance Matrix: (Units=1/GPa)
#
#
# Indices 1 2 3 4 5 6 
#
# 1 0.030548 -0.018158 -0.002212 0.000000 -0.008573 0.000000
# 2 -0.018158 0.030052 -0.004494 0.000000 0.002027 0.000000
# 3 -0.002212 -0.004494 0.018878 0.000000 -0.005844 0.000000
# 4 0.000000 0.000000 0.000000 0.067492 0.000000 -0.017896
# 5 -0.008573 0.002027 -0.005844 0.000000 0.051296 0.000000
# 6 0.000000 0.000000 0.000000 -0.017896 0.000000 0.057905
#
#
# Mechanical properties :
#
#
# Convention : Reuss Voigt Hill
#
# Bulk Modulus (GPa) = 33.61115 37.71116 35.66116
# Shear Modulus (GPa) = 15.83196 18.33455 17.08325
#
# Velocity S-wave (km/s) = 3.01298 3.24238 3.12978
# Velocity P-wave (km/s) = 5.60149 5.97000 5.78868
#
# Compressibility (1/GPa) = 0.02975203
#
# Stress axis : x y z
#
# Youngs Moduli (GPa) = 32.73496 33.27533 52.97093
#
# Poissons Ratio (x) = 0.60423 0.11715
# Poissons Ratio (y) = 0.59441 0.23803
# Poissons Ratio (z) = 0.07239 0.14952
#
# Static dielectric constant tensor:
#      x y z
#    x 1.602650 0.000000 0.002920 
#    y 0.000000 1.570760 0.000000 
#    z 0.002920 0.000000 1.622820 
# 
# From -- ./inp_files/154828.got.cif
#   From: 2010.05.17/outbox.cif.g08.bks.cpg/sg15_78_cif.got.tgz:154828.got - 2010.06.03 18:47:42.
