data_PCOD9263361
_publ_section_title
;
Structure prediction by ZEFSAII (Michael W. Deem and Ramdas Pophale) SiO2 
 PCOD9263361
Probable space group: C 2/C
;
_chemical_formula_sum "Si O2"
_cell_formula_units_Z 40
_cell_length_a 12.857641
_cell_length_b 7.414459
_cell_length_c 18.556043
_cell_angle_alpha 90.000000
_cell_angle_beta 122.921962
_cell_angle_gamma 90.000000
_cell_volume 1484.913309
_symmetry_space_group_name_H-M "C 2/C"
_symmetry_group_IT_number 15
_symmetry_cell_setting 'monoclinic'
loop_
_space_group_symop_operation_xyz
x,y,z
-x,y,1/2-z
-x,-y,-z
x,-y,1/2+z
1/2+x,1/2+y,z
1/2-x,1/2+y,1/2-z
1/2-x,1/2-y,-z
1/2+x,1/2-y,1/2+z
loop_
_atom_site_type_symbol
_atom_site_label
_atom_site_fract_x
_atom_site_fract_y
_atom_site_fract_z
Si Si1 0.595938 0.624408 0.988758
Si Si2 0.805698 0.588361 0.620188
Si Si3 0.382310 0.150334 0.390556
Si Si4 0.988065 0.123206 0.160847
Si Si5 0.212558 0.331257 0.226955
O O1 0.526376 0.816757 0.960136
O O2 0.585774 0.530203 0.907412
O O3 0.500000 0.500000 0.000000
O O4 0.735530 0.589524 0.067555
O O5 0.700124 0.746180 0.581200
O O6 0.919363 0.683425 0.623731
O O7 0.838702 0.580913 0.717340
O O8 0.346471 0.263544 0.303398
O O9 0.319326 0.960678 0.350255
O O10 0.000000 0.087703 0.250000
O O11 0.126565 0.155155 0.184078
#
# Coordination Sequence:
#
# PCOD9263361 Si02
#       5
#     8   8   8   8   8
#     4  10  19  34  56  81 108 140 180 222 264 318
#     4   8  19  32  56  72 108 142 180 214 268 315
#     4   9  18  32  55  77 103 140 185 214 266 310
#     4  10  19  34  56  78 107 144 182 213 266 321
#     4   9  18  32  55  76 104 140 183 217 261 317
#
# _framework density 26.937598999999999
#
# number of rings (size 3 to 8) (size 9 to 14) (size 15 to 20)
#    1.200    1.600    0.000    1.800    0.000    0.000 
#    0.000    8.000    0.000    0.000    0.000    0.000 
#    0.000    0.000    0.000    0.000    0.000    0.000 
#
# Total GULP energy -111604.051312 kJ/mol
# GULP energy per Si atom -5580.202566 kJ/mol
# Density = 2.687629 g / cm^3
# Si number density = 26.937599 Si / 1000 Ang^3
#
#
#
# Elastic Constant Matrix: (Units=GPa)
#
#
# Indices 1 2 3 4 5 6 
#
# 1 56.0581 -1.5025 13.1457 0.0000 14.9764 0.0000
# 2 -1.5025 44.1589 20.3976 0.0000 -12.0837 0.0000
# 3 13.1457 20.3976 130.2736 0.0000 12.8341 0.0000
# 4 0.0000 0.0000 0.0000 27.5166 0.0000 1.3222
# 5 14.9764 -12.0837 12.8341 0.0000 30.5802 0.0000
# 6 0.0000 0.0000 0.0000 1.3222 0.0000 28.4949
#
#
#
# Elastic Compliance Matrix: (Units=1/GPa)
#
#
# Indices 1 2 3 4 5 6 
#
# 1 0.020798 -0.001835 -0.000768 0.000000 -0.010589 0.000000
# 2 -0.001835 0.029410 -0.005897 0.000000 0.014995 0.000000
# 3 -0.000768 -0.005897 0.009252 0.000000 -0.005837 0.000000
# 4 0.000000 0.000000 0.000000 0.036423 0.000000 -0.001690
# 5 -0.010589 0.014995 -0.005837 0.000000 0.046262 0.000000
# 6 0.000000 0.000000 0.000000 -0.001690 0.000000 0.035172
#
#
# Mechanical properties :
#
#
# Convention : Reuss Voigt Hill
#
# Bulk Modulus (GPa) = 23.55143 32.73025 28.14084
# Shear Modulus (GPa) = 23.98410 30.54831 27.26620
#
# Velocity S-wave (km/s) = 2.98712 3.37120 3.18496
# Velocity P-wave (km/s) = 4.54523 5.22782 4.89843
#
# Compressibility (1/GPa) = 0.04246027
#
# Stress axis : x y z
#
# Youngs Moduli (GPa) = 48.08049 34.00178 108.08437
#
# Poissons Ratio (x) = 0.06239 0.08304
# Poissons Ratio (y) = 0.08822 0.63737
# Poissons Ratio (z) = 0.03694 0.20051
#
# Static dielectric constant tensor:
#      x y z
#    x 2.120760 0.000000 -0.001290 
#    y 0.000000 2.240660 0.000000 
#    z -0.001290 0.000000 2.117620 
# 
# From -- ./inp_files/242654.got.cif
#   From: 2010.05.17/outbox.cif.g08.bks.cpg/sg15_122_cif.got.tgz:242654.got - 2010.06.03 18:47:42.
