data_PCOD9263869
_publ_section_title
;
Structure prediction by ZEFSAII (Michael W. Deem and Ramdas Pophale) SiO2 
 PCOD9263869
Probable space group: C 2/C
;
_chemical_formula_sum "Si O2"
_cell_formula_units_Z 40
_cell_length_a 8.491331
_cell_length_b 18.459310
_cell_length_c 10.719176
_cell_angle_alpha 90.000000
_cell_angle_beta 89.660727
_cell_angle_gamma 90.000000
_cell_volume 1680.138259
_symmetry_space_group_name_H-M "C 2/C"
_symmetry_group_IT_number 15
_symmetry_cell_setting 'monoclinic'
loop_
_space_group_symop_operation_xyz
x,y,z
-x,y,1/2-z
-x,-y,-z
x,-y,1/2+z
1/2+x,1/2+y,z
1/2-x,1/2+y,1/2-z
1/2-x,1/2-y,-z
1/2+x,1/2-y,1/2+z
loop_
_atom_site_type_symbol
_atom_site_label
_atom_site_fract_x
_atom_site_fract_y
_atom_site_fract_z
Si Si1 0.756177 0.124459 0.792864
Si Si2 0.246203 0.496532 0.958303
Si Si3 0.426341 0.636479 0.543254
Si Si4 0.574641 0.772688 0.461707
Si Si5 0.459569 0.093538 0.391941
O O1 0.792069 0.143627 0.650085
O O2 0.614770 0.172056 0.849482
O O3 0.915488 0.136116 0.873668
O O4 0.734455 0.039444 0.826687
O O5 0.096903 0.444247 0.968961
O O6 0.389660 0.440560 0.977566
O O7 0.206325 0.559601 0.060158
O O8 0.458299 0.704219 0.451238
O O9 0.750000 0.750000 0.500000
O O10 0.522292 0.822350 0.577002
O O11 0.500000 0.080870 0.250000
#
# Coordination Sequence:
#
# PCOD9263869 Si02
#       5
#     8   8   8   8   8
#     4   9  19  35  57  85 115 149 191 232 290 343
#     4  10  20  36  55  87 114 145 194 242 280 345
#     4  10  19  34  62  80 117 153 189 234 292 336
#     4   9  20  35  56  82 110 148 193 232 277 354
#     4  10  21  35  58  79 114 151 190 233 291 339
#
# _framework density 23.807563999999999
#
# number of rings (size 3 to 8) (size 9 to 14) (size 15 to 20)
#    0.000    2.400    0.000    1.800    5.600    0.800 
#    0.000    0.000    4.400    0.000    0.000    0.000 
#    0.000    0.000    0.000    0.000    0.000    0.000 
#
# Total GULP energy -111436.087891 kJ/mol
# GULP energy per Si atom -5571.804395 kJ/mol
# Density = 2.375338 g / cm^3
# Si number density = 23.807564 Si / 1000 Ang^3
#
#
#
# Elastic Constant Matrix: (Units=GPa)
#
#
# Indices 1 2 3 4 5 6 
#
# 1 58.7422 53.8607 41.1782 0.0000 -13.4089 0.0000
# 2 53.8607 166.7820 36.7312 0.0000 -16.1501 0.0000
# 3 41.1782 36.7312 58.7662 0.0000 -20.0035 0.0000
# 4 0.0000 0.0000 0.0000 11.8366 0.0000 -19.4927
# 5 -13.4089 -16.1501 -20.0035 0.0000 33.7131 0.0000
# 6 0.0000 0.0000 0.0000 -19.4927 0.0000 48.7359
#
#
#
# Elastic Compliance Matrix: (Units=1/GPa)
#
#
# Indices 1 2 3 4 5 6 
#
# 1 0.041112 -0.008090 -0.024440 0.000000 -0.002025 0.000000
# 2 -0.008090 0.008569 0.000771 0.000000 0.001344 0.000000
# 3 -0.024440 0.000771 0.038191 0.000000 0.013309 0.000000
# 4 0.000000 0.000000 0.000000 0.247511 0.000000 0.098996
# 5 -0.002025 0.001344 0.013309 0.000000 0.037397 0.000000
# 6 0.000000 0.000000 0.000000 0.098996 0.000000 0.060113
#
#
# Mechanical properties :
#
#
# Convention : Reuss Voigt Hill
#
# Bulk Modulus (GPa) = 41.06507 60.87009 50.96758
# Shear Modulus (GPa) = 9.91023 29.02514 19.46768
#
# Velocity S-wave (km/s) = 2.04247 3.49543 2.86267
# Velocity P-wave (km/s) = 4.78000 6.47408 5.69044
#
# Compressibility (1/GPa) = 0.02435160
#
# Stress axis : x y z
#
# Youngs Moduli (GPa) = 24.32401 116.70000 26.18441
#
# Poissons Ratio (x) = 0.94412 0.63995
# Poissons Ratio (y) = 0.19679 -0.02018
# Poissons Ratio (z) = 0.59448 -0.08992
#
# Static dielectric constant tensor:
#      x y z
#    x 1.967780 0.000000 0.015410 
#    y 0.000000 2.028480 0.000000 
#    z 0.015410 0.000000 1.944110 
# 
# From -- ./inp_files/76816.got.cif
#   From: 2010.05.17/outbox.cif.g08.bks.cpg/sg15_39_cif.got.tgz:76816.got - 2010.06.03 18:47:42.
