data_PCOD9263378
_publ_section_title
;
Structure prediction by ZEFSAII (Michael W. Deem and Ramdas Pophale) SiO2 
 PCOD9263378
Probable space group: C 2/C
;
_chemical_formula_sum "Si O2"
_cell_formula_units_Z 44
_cell_length_a 7.650082
_cell_length_b 21.454303
_cell_length_c 12.947962
_cell_angle_alpha 90.000000
_cell_angle_beta 71.952352
_cell_angle_gamma 90.000000
_cell_volume 2020.555230
_symmetry_space_group_name_H-M "C 2/C"
_symmetry_group_IT_number 15
_symmetry_cell_setting 'monoclinic'
loop_
_space_group_symop_operation_xyz
x,y,z
-x,y,1/2-z
-x,-y,-z
x,-y,1/2+z
1/2+x,1/2+y,z
1/2-x,1/2+y,1/2-z
1/2-x,1/2-y,-z
1/2+x,1/2-y,1/2+z
loop_
_atom_site_type_symbol
_atom_site_label
_atom_site_fract_x
_atom_site_fract_y
_atom_site_fract_z
Si Si1 0.541431 0.198755 0.625030
Si Si2 0.001721 0.942248 0.418291
Si Si3 0.898510 0.436880 0.398061
Si Si4 0.278603 0.977552 0.645706
Si Si5 0.463596 0.317546 0.975965
Si Si6 0.500000 0.617359 0.250000
O O1 0.500000 0.218099 0.750000
O O2 0.486797 0.126697 0.627181
O O3 0.457355 0.248159 0.559208
O O4 0.761005 0.194453 0.561224
O O5 0.220085 0.935896 0.357348
O O6 0.948841 0.874516 0.475131
O O7 0.860518 0.966620 0.359368
O O8 0.000000 0.000000 0.500000
O O9 0.822730 0.443091 0.528695
O O10 0.028924 0.494911 0.355350
O O11 0.172445 0.928932 0.736895
O O12 0.455755 0.344166 0.860450
#
# Coordination Sequence:
#
# PCOD9263378 Si02
#       6
#     8   8   8   8   8   4
#     4  10  19  34  56  81 113 149 192 235 275 339
#     4   9  16  35  55  77 113 146 185 228 280 327
#     4   9  19  36  52  84 110 144 189 229 278 328
#     4  10  20  33  58  80 116 144 183 234 278 332
#     4  10  20  33  55  84 111 150 192 230 283 339
#     4  12  18  34  56  84 116 150 184 234 288 334
#
# _framework density 21.776192000000002
#
# number of rings (size 3 to 8) (size 9 to 14) (size 15 to 20)
#    0.000    2.182    6.364    0.000    0.000    2.909 
#    0.000    0.909    0.000    0.000    0.000   15.273 
#    0.000    0.000    0.000    0.000    0.000    0.000 
#
# Total GULP energy -122569.570468 kJ/mol
# GULP energy per Si atom -5571.344112 kJ/mol
# Density = 2.172663 g / cm^3
# Si number density = 21.776192 Si / 1000 Ang^3
#
#
#
# Elastic Constant Matrix: (Units=GPa)
#
#
# Indices 1 2 3 4 5 6 
#
# 1 49.1271 18.0001 19.0412 0.0000 0.6409 0.0000
# 2 18.0001 117.3557 28.0173 0.0000 -4.3324 0.0000
# 3 19.0412 28.0173 120.0340 0.0000 -18.2407 0.0000
# 4 0.0000 0.0000 0.0000 7.2264 0.0000 3.9027
# 5 0.6409 -4.3324 -18.2407 0.0000 27.4801 0.0000
# 6 0.0000 0.0000 0.0000 3.9027 0.0000 18.2007
#
#
#
# Elastic Compliance Matrix: (Units=1/GPa)
#
#
# Indices 1 2 3 4 5 6 
#
# 1 0.022758 -0.002786 -0.003456 0.000000 -0.003264 0.000000
# 2 -0.002786 0.009365 -0.001679 0.000000 0.000427 0.000000
# 3 -0.003456 -0.001679 0.010280 0.000000 0.006640 0.000000
# 4 0.000000 0.000000 0.000000 0.156507 0.000000 -0.033559
# 5 -0.003264 0.000427 0.006640 0.000000 0.040941 0.000000
# 6 0.000000 0.000000 0.000000 -0.033559 0.000000 0.062139
#
#
# Mechanical properties :
#
#
# Convention : Reuss Voigt Hill
#
# Bulk Modulus (GPa) = 37.64882 46.29265 41.97074
# Shear Modulus (GPa) = 15.30523 25.34531 20.32527
#
# Velocity S-wave (km/s) = 2.65399 3.41530 3.05843
# Velocity P-wave (km/s) = 5.16895 6.07099 5.63804
#
# Compressibility (1/GPa) = 0.02656126
#
# Stress axis : x y z
#
# Youngs Moduli (GPa) = 43.94012 106.77991 97.27564
#
# Poissons Ratio (x) = 0.29750 0.33617
# Poissons Ratio (y) = 0.12242 0.16333
# Poissons Ratio (z) = 0.15185 0.17929
#
# Static dielectric constant tensor:
#      x y z
#    x 1.787730 0.000000 -0.014330 
#    y 0.000000 1.865410 0.000000 
#    z -0.014330 0.000000 1.880180 
# 
# From -- ./inp_files/135369.got.cif
#   From: 2010.05.17/outbox.cif.g08.bks.cpg/sg15_68_cif.got.tgz:135369.got - 2010.06.03 18:47:42.
