data_PCOD9263823
_publ_section_title
;
Structure prediction by ZEFSAII (Michael W. Deem and Ramdas Pophale) SiO2 
 PCOD9263823
Probable space group: C 2/C
;
_chemical_formula_sum "Si O2"
_cell_formula_units_Z 60
_cell_length_a 18.701553
_cell_length_b 18.908122
_cell_length_c 17.221777
_cell_angle_alpha 90.000000
_cell_angle_beta 151.973423
_cell_angle_gamma 90.000000
_cell_volume 2861.488345
_symmetry_space_group_name_H-M "C 2/C"
_symmetry_group_IT_number 15
_symmetry_cell_setting 'monoclinic'
loop_
_space_group_symop_operation_xyz
x,y,z
-x,y,1/2-z
-x,-y,-z
x,-y,1/2+z
1/2+x,1/2+y,z
1/2-x,1/2+y,1/2-z
1/2-x,1/2-y,-z
1/2+x,1/2-y,1/2+z
loop_
_atom_site_type_symbol
_atom_site_label
_atom_site_fract_x
_atom_site_fract_y
_atom_site_fract_z
Si Si1 0.311556 0.242918 0.899104
Si Si2 0.312075 0.024508 0.265480
Si Si3 0.241102 0.882879 0.436876
Si Si4 0.217285 0.333247 0.557855
Si Si5 0.425684 0.177783 0.411842
Si Si6 0.890124 0.514421 0.515079
Si Si7 0.500000 0.268064 0.750000
Si Si8 0.584582 0.606096 0.952627
O O1 0.397518 0.196989 0.915811
O O2 0.388877 0.319596 0.979394
O O3 0.304897 0.192442 0.968058
O O4 0.143647 0.265522 0.713697
O O5 0.399620 0.100094 0.353218
O O6 0.308059 0.003697 0.352097
O O7 0.430923 0.975363 0.333324
O O8 0.154996 0.042676 0.071873
O O9 0.186148 0.885225 0.472405
O O10 0.089525 0.900145 0.240741
O O11 0.360033 0.945207 0.536209
O O12 0.170527 0.318390 0.601993
O O13 0.178070 0.415971 0.510459
O O14 0.389225 0.314687 0.698366
O O15 0.108257 0.282959 0.403444
#
# Coordination Sequence:
#
# PCOD9263823 Si02
#       8
#     8   8   8   8   8   8   4   8
#     4  11  19  36  55  86 120 159 202 251 285 347
#     4   9  20  39  57  85 116 156 199 247 288 359
#     4  11  22  37  56  85 122 163 200 245 296 360
#     4  10  22  40  63  90 113 152 189 249 304 362
#     4  10  19  34  61  83 116 154 203 242 296 342
#     4  10  21  39  63  84 118 154 200 245 300 356
#     4  10  22  42  62  88 120 140 196 248 304 358
#     4  10  23  37  54  84 126 162 204 241 300 353
#
# _framework density 20.968108999999998
#
# number of rings (size 3 to 8) (size 9 to 14) (size 15 to 20)
#    0.000    1.867    2.667    1.200    0.000    3.200 
#    0.000    1.333    0.000    0.000    0.000    0.000 
#    0.000    0.000    0.000    0.000    0.000    0.000 
#
# Total GULP energy -167344.956075 kJ/mol
# GULP energy per Si atom -5578.165203 kJ/mol
# Density = 2.092038 g / cm^3
# Si number density = 20.968109 Si / 1000 Ang^3
#
#
#
# Elastic Constant Matrix: (Units=GPa)
#
#
# Indices 1 2 3 4 5 6 
#
# 1 58.5772 10.3843 -6.6464 0.0009 21.4463 -0.0012
# 2 10.3843 51.5598 -12.6170 0.0006 3.1844 -0.0025
# 3 -6.6464 -12.6170 36.7599 -0.0011 1.7756 -0.0036
# 4 0.0009 0.0006 -0.0011 -1.8096 -0.0001 31.4277
# 5 21.4463 3.1844 1.7756 -0.0001 23.3405 -0.0023
# 6 -0.0012 -0.0025 -0.0036 31.4277 -0.0023 10.5607
#
#
#
# Elastic Compliance Matrix: (Units=1/GPa)
#
#
# Indices 1 2 3 4 5 6 
#
# 1 0.027355 -0.002672 0.005245 0.000000 -0.025170 -0.000001
# 2 -0.002672 0.021715 0.007021 0.000002 -0.001042 0.000000
# 3 0.005245 0.007021 0.030954 0.000003 -0.008132 0.000001
# 4 0.000000 0.000002 0.000003 -0.010489 0.000003 0.031215
# 5 -0.025170 -0.001042 -0.008132 0.000003 0.066732 0.000001
# 6 -0.000001 0.000000 0.000001 0.031215 0.000001 0.001797
#
#
# Mechanical properties :
#
#
# Convention : Reuss Voigt Hill
#
# Bulk Modulus (GPa) = 10.07932 14.34875 12.21403
# Shear Modulus (GPa) = 32.90594 16.80339 24.85467
#
# Velocity S-wave (km/s) = 3.96578 2.83393 3.44663
# Velocity P-wave (km/s) = 5.07812 4.19121 4.65583
#
# Compressibility (1/GPa) = 0.09921301
#
# Stress axis : x y z
#
# Youngs Moduli (GPa) = 36.55587 46.05040 32.30565
#
# Poissons Ratio (x) = 0.12302 -0.16944
# Poissons Ratio (y) = 0.09766 -0.22681
# Poissons Ratio (z) = -0.19173 -0.32330
#
# Static dielectric constant tensor:
#      x y z
#    x 1.762680 0.000000 0.000010 
#    y 0.000000 1.741970 0.000000 
#    z 0.000010 0.000000 1.780560 
# 
# From -- ./inp_files/211775.got.cif
#   From: 2010.05.17/outbox.cif.g08.bks.cpg/sg15_106_cif.got.tgz:211775.got - 2010.06.03 18:47:42.
