data_PCOD9263693
_publ_section_title
;
Structure prediction by ZEFSAII (Michael W. Deem and Ramdas Pophale) SiO2 
 PCOD9263693
Probable space group: C 2/C
;
_chemical_formula_sum "Si O2"
_cell_formula_units_Z 56
_cell_length_a 28.489104
_cell_length_b 9.181954
_cell_length_c 18.670048
_cell_angle_alpha 90.000000
_cell_angle_beta 34.190571
_cell_angle_gamma 90.000000
_cell_volume 2744.447301
_symmetry_space_group_name_H-M "C 2/C"
_symmetry_group_IT_number 15
_symmetry_cell_setting 'monoclinic'
loop_
_space_group_symop_operation_xyz
x,y,z
-x,y,1/2-z
-x,-y,-z
x,-y,1/2+z
1/2+x,1/2+y,z
1/2-x,1/2+y,1/2-z
1/2-x,1/2-y,-z
1/2+x,1/2-y,1/2+z
loop_
_atom_site_type_symbol
_atom_site_label
_atom_site_fract_x
_atom_site_fract_y
_atom_site_fract_z
Si Si1 0.214300 0.081748 0.766900
Si Si2 0.287919 0.088772 0.048143
Si Si3 0.451985 0.408904 0.498711
Si Si4 0.097934 0.680175 0.471786
Si Si5 0.165203 0.675463 0.660141
Si Si6 0.972641 0.901820 0.702794
Si Si7 0.396637 0.907510 0.114188
O O1 0.170476 0.237031 0.835743
O O2 0.302656 0.084415 0.696588
O O3 0.232269 0.027837 0.662465
O O4 0.143420 0.970051 0.885958
O O5 0.366740 0.110268 0.999918
O O6 0.243022 0.246488 0.100672
O O7 0.312570 0.070755 0.934089
O O8 0.500000 0.500000 0.500000
O O9 0.508504 0.442948 0.357762
O O10 0.440560 0.241071 0.533378
O O11 0.032740 0.798199 0.580415
O O12 0.062859 0.553083 0.467442
O O13 0.116852 0.596675 0.784082
O O14 0.115044 0.818316 0.694508
O O15 0.000000 0.904232 0.750000
#
# Coordination Sequence:
#
# PCOD9263693 Si02
#       7
#     8   8   8   8   8   8   8
#     4  10  19  37  58  89 120 157 204 252 302 368
#     4  10  19  34  59  86 112 153 200 253 294 363
#     4  11  21  38  63  88 122 162 210 260 299 370
#     4  10  21  35  59  85 118 155 198 245 310 370
#     4  11  20  35  59  86 116 155 205 248 305 364
#     4  11  22  38  59  86 118 157 205 253 311 372
#     4  11  20  37  59  90 116 163 201 250 311 369
#
# _framework density 20.404836
#
# number of rings (size 3 to 8) (size 9 to 14) (size 15 to 20)
#    0.000    1.429    5.714    0.857    0.000    0.571 
#    0.000    1.429    0.000    0.000    0.000    0.000 
#    0.000    0.000    0.000    0.000    0.000    0.000 
#
# Total GULP energy -156136.870794 kJ/mol
# GULP energy per Si atom -5576.316814 kJ/mol
# Density = 2.035839 g / cm^3
# Si number density = 20.404836 Si / 1000 Ang^3
#
#
#
# Elastic Constant Matrix: (Units=GPa)
#
#
# Indices 1 2 3 4 5 6 
#
# 1 78.9845 13.9418 31.4689 -0.0008 29.0126 0.0003
# 2 13.9418 78.0039 33.2339 -0.0017 23.4664 0.0027
# 3 31.4689 33.2339 101.3564 -0.0015 27.0335 0.0009
# 4 -0.0008 -0.0017 -0.0015 38.0395 0.0017 0.4192
# 5 29.0126 23.4664 27.0335 0.0017 45.6221 -0.0010
# 6 0.0003 0.0027 0.0009 0.4192 -0.0010 31.4488
#
#
#
# Elastic Compliance Matrix: (Units=1/GPa)
#
#
# Indices 1 2 3 4 5 6 
#
# 1 0.017284 0.001184 -0.003160 0.000001 -0.009728 -0.000001
# 2 0.001184 0.016327 -0.003896 0.000001 -0.006842 -0.000002
# 3 -0.003160 -0.003896 0.013129 0.000000 -0.003766 0.000000
# 4 0.000001 0.000001 0.000000 0.026292 -0.000002 -0.000351
# 5 -0.009728 -0.006842 -0.003766 -0.000002 0.033857 0.000002
# 6 -0.000001 -0.000002 0.000000 -0.000351 0.000002 0.031802
#
#
# Mechanical properties :
#
#
# Convention : Reuss Voigt Hill
#
# Bulk Modulus (GPa) = 28.57518 46.18155 37.37837
# Shear Modulus (GPa) = 30.84506 35.00207 32.92357
#
# Velocity S-wave (km/s) = 3.89222 4.14621 4.02122
# Velocity P-wave (km/s) = 5.85095 6.75301 6.31810
#
# Compressibility (1/GPa) = 0.03499540
#
# Stress axis : x y z
#
# Youngs Moduli (GPa) = 57.85710 61.25000 76.16595
#
# Poissons Ratio (x) = -0.07249 0.24067
# Poissons Ratio (y) = -0.06848 0.29674
# Poissons Ratio (z) = 0.18281 0.23863
#
# Static dielectric constant tensor:
#      x y z
#    x 1.762070 0.000000 -0.048870 
#    y 0.000000 1.728010 0.000000 
#    z -0.048870 0.000000 1.802830 
# 
# From -- ./inp_files/222020.got.cif
#   From: 2010.05.17/outbox.cif.g08.bks.cpg/sg15_112_cif.got.tgz:222020.got - 2010.06.03 18:47:42.
