data_PCOD9263320
_publ_section_title
;
Structure prediction by ZEFSAII (Michael W. Deem and Ramdas Pophale) SiO2 
 PCOD9263320
Probable space group: C 2/C
;
_chemical_formula_sum "Si O2"
_cell_formula_units_Z 56
_cell_length_a 21.957373
_cell_length_b 13.964745
_cell_length_c 20.976840
_cell_angle_alpha 90.000000
_cell_angle_beta 155.051371
_cell_angle_gamma 90.000000
_cell_volume 2713.099342
_symmetry_space_group_name_H-M "C 2/C"
_symmetry_group_IT_number 15
_symmetry_cell_setting 'monoclinic'
loop_
_space_group_symop_operation_xyz
x,y,z
-x,y,1/2-z
-x,-y,-z
x,-y,1/2+z
1/2+x,1/2+y,z
1/2-x,1/2+y,1/2-z
1/2-x,1/2-y,-z
1/2+x,1/2-y,1/2+z
loop_
_atom_site_type_symbol
_atom_site_label
_atom_site_fract_x
_atom_site_fract_y
_atom_site_fract_z
Si Si1 0.212398 0.825897 0.114037
Si Si2 0.135004 0.669425 0.531346
Si Si3 0.372998 0.315205 0.081438
Si Si4 0.521595 0.205246 0.842951
Si Si5 0.837420 0.708960 0.304934
Si Si6 0.551093 0.009501 0.370109
Si Si7 0.260363 0.542398 0.367445
O O1 0.373275 0.813437 0.239466
O O2 0.190903 0.758952 0.154972
O O3 0.178823 0.938360 0.092078
O O4 0.109808 0.784366 0.962859
O O5 0.070362 0.740505 0.416939
O O6 0.279238 0.711999 0.698883
O O7 0.161261 0.574223 0.514787
O O8 0.003946 0.673372 0.458080
O O9 0.500000 0.341770 0.250000
O O10 0.250000 0.250000 0.000000
O O11 0.319610 0.404448 0.987469
O O12 0.500000 0.234833 0.750000
O O13 0.597481 0.100676 0.911886
O O14 0.740537 0.617448 0.191883
O O15 0.500000 0.038447 0.250000
O O16 0.406619 0.023167 0.274192
#
# Coordination Sequence:
#
# PCOD9263320 Si02
#       7
#     8   8   8   8   8   8   8
#     4  11  22  41  61  81 115 153 187 237 289 338
#     4  10  19  34  55  83 114 146 188 234 277 335
#     4  11  20  34  58  88 119 152 187 234 290 338
#     4  10  22  39  60  85 110 144 188 234 286 345
#     4  10  21  37  55  80 112 151 190 229 279 337
#     4   9  17  33  57  83 111 145 188 235 284 335
#     4   9  21  36  55  84 117 149 190 237 284 338
#
# _framework density 20.640601
#
# number of rings (size 3 to 8) (size 9 to 14) (size 15 to 20)
#    0.000    2.000    0.000    5.143    0.000    1.714 
#    0.000   15.000    0.000    0.000    0.000    0.000 
#    0.000    0.000    0.000    0.000    0.000    0.000 
#
# Total GULP energy -156047.028884 kJ/mol
# GULP energy per Si atom -5573.108174 kJ/mol
# Density = 2.059362 g / cm^3
# Si number density = 20.640601 Si / 1000 Ang^3
#
#
#
# Elastic Constant Matrix: (Units=GPa)
#
#
# Indices 1 2 3 4 5 6 
#
# 1 90.0271 48.1112 18.4614 -0.0008 -21.1851 -0.0001
# 2 48.1112 131.0559 52.4281 -0.0013 -27.4280 -0.0007
# 3 18.4614 52.4281 51.4216 -0.0014 -9.5847 0.0004
# 4 -0.0008 -0.0013 -0.0014 -9.0306 -0.0008 9.6115
# 5 -21.1851 -27.4280 -9.5847 -0.0008 31.5173 -0.0002
# 6 -0.0001 -0.0007 0.0004 9.6115 -0.0002 -18.4962
#
#
#
# Elastic Compliance Matrix: (Units=1/GPa)
#
#
# Indices 1 2 3 4 5 6 
#
# 1 0.014799 -0.004135 0.000091 -0.000003 0.006377 -0.000001
# 2 -0.004135 0.016055 -0.013567 -0.000003 0.007066 -0.000003
# 3 0.000091 -0.013567 0.032924 -0.000004 -0.001733 -0.000001
# 4 -0.000003 -0.000003 -0.000004 -0.247769 -0.000012 -0.128752
# 5 0.006377 0.007066 -0.001733 -0.000012 0.041638 -0.000007
# 6 -0.000001 -0.000003 -0.000001 -0.128752 -0.000007 -0.120971
#
#
# Mechanical properties :
#
#
# Convention : Reuss Voigt Hill
#
# Bulk Modulus (GPa) = 35.01856 56.72289 45.87073
# Shear Modulus (GPa) = -22.87453 11.03169 -5.92142
#
# Velocity S-wave (km/s) = -3.33262 2.31436 -1.69560
# Velocity P-wave (km/s) = 1.48129 5.88919 4.29399
#
# Compressibility (1/GPa) = 0.02855628
#
# Stress axis : x y z
#
# Youngs Moduli (GPa) = 67.57036 62.28761 30.37281
#
# Poissons Ratio (x) = 0.25754 -0.00276
# Poissons Ratio (y) = 0.27938 0.41208
# Poissons Ratio (z) = -0.00615 0.84507
#
# Static dielectric constant tensor:
#      x y z
#    x 1.767110 0.000000 0.006280 
#    y 0.000000 1.793110 0.000000 
#    z 0.006280 0.000000 1.733880 
# 
# From -- ./inp_files/215760.got.cif
#   From: 2010.05.17/outbox.cif.g08.bks.cpg/sg15_108_cif.got.tgz:215760.got - 2010.06.03 18:47:42.
