data_PCOD9263460
_publ_section_title
;
Structure prediction by ZEFSAII (Michael W. Deem and Ramdas Pophale) SiO2 
 PCOD9263460
Probable space group: C 2/C
;
_chemical_formula_sum "Si O2"
_cell_formula_units_Z 48
_cell_length_a 11.271016
_cell_length_b 23.528907
_cell_length_c 12.687651
_cell_angle_alpha 90.000000
_cell_angle_beta 50.081021
_cell_angle_gamma 90.000000
_cell_volume 2580.563710
_symmetry_space_group_name_H-M "C 2/C"
_symmetry_group_IT_number 15
_symmetry_cell_setting 'monoclinic'
loop_
_space_group_symop_operation_xyz
x,y,z
-x,y,1/2-z
-x,-y,-z
x,-y,1/2+z
1/2+x,1/2+y,z
1/2-x,1/2+y,1/2-z
1/2-x,1/2-y,-z
1/2+x,1/2-y,1/2+z
loop_
_atom_site_type_symbol
_atom_site_label
_atom_site_fract_x
_atom_site_fract_y
_atom_site_fract_z
Si Si1 0.394972 0.198129 0.203353
Si Si2 0.339767 0.468458 0.892687
Si Si3 0.329618 0.043415 0.803851
Si Si4 0.375134 0.926523 0.668435
Si Si5 0.298292 0.784932 0.075916
Si Si6 0.272233 0.913804 0.102312
O O1 0.500000 0.195588 0.250000
O O2 0.321699 0.135941 0.232712
O O3 0.272160 0.248217 0.289178
O O4 0.516362 0.208610 0.039292
O O5 0.500000 0.449196 0.750000
O O6 0.203106 0.445764 0.895652
O O7 0.332360 0.537134 0.888498
O O8 0.299323 0.448986 0.033041
O O9 0.500000 0.059794 0.750000
O O10 0.289924 0.074095 0.717011
O O11 0.338048 0.976358 0.771023
O O12 0.558666 0.922722 0.545805
O O13 0.228754 0.848301 0.111176
O O14 0.250000 0.750000 0.000000
#
# Coordination Sequence:
#
# PCOD9263460 Si02
#       6
#     8   8   8   8   8   8
#     4   9  18  33  54  78 105 136 175 220 267 316
#     4  11  23  35  51  84 115 137 178 234 277 314
#     4  11  18  34  60  77 106 148 185 218 265 329
#     4  10  19  34  57  80 105 146 188 213 265 339
#     4   9  19  33  52  78 108 137 172 221 266 313
#     4  10  20  35  56  83 109 145 187 216 266 338
#
# _framework density 18.600586
#
# number of rings (size 3 to 8) (size 9 to 14) (size 15 to 20)
#    0.000    2.000    3.333    1.500    4.667    4.667 
#    3.000    0.000    0.000    2.000    0.000    0.000 
#    0.000    0.000    0.000    0.000    0.000    0.000 
#
# Total GULP energy -133859.321031 kJ/mol
# GULP energy per Si atom -5577.471710 kJ/mol
# Density = 1.855825 g / cm^3
# Si number density = 18.600586 Si / 1000 Ang^3
#
#
#
# Elastic Constant Matrix: (Units=GPa)
#
#
# Indices 1 2 3 4 5 6 
#
# 1 5.7468 4.3245 -1.9588 0.0000 7.5234 0.0000
# 2 4.3245 98.1622 10.7919 0.0000 -4.1699 0.0000
# 3 -1.9588 10.7919 84.3400 0.0000 0.2535 0.0000
# 4 0.0000 0.0000 0.0000 20.4532 0.0000 -3.7757
# 5 7.5234 -4.1699 0.2535 0.0000 23.2268 0.0000
# 6 0.0000 0.0000 0.0000 -3.7757 0.0000 13.0436
#
#
#
# Elastic Compliance Matrix: (Units=1/GPa)
#
#
# Indices 1 2 3 4 5 6 
#
# 1 0.345621 -0.021372 0.011110 0.000000 -0.115909 0.000000
# 2 -0.021372 0.011736 -0.002025 0.000000 0.009052 0.000000
# 3 0.011110 -0.002025 0.012386 0.000000 -0.004097 0.000000
# 4 0.000000 0.000000 0.000000 0.051652 0.000000 0.014952
# 5 -0.115909 0.009052 -0.004097 0.000000 0.082268 0.000000
# 6 0.000000 0.000000 0.000000 0.014952 0.000000 0.080994
#
#
# Mechanical properties :
#
#
# Convention : Reuss Voigt Hill
#
# Bulk Modulus (GPa) = 2.89713 23.84047 13.36880
# Shear Modulus (GPa) = 6.90335 23.01749 14.96042
#
# Velocity S-wave (km/s) = 1.92858 3.52157 2.83909
# Velocity P-wave (km/s) = 2.55346 5.42035 4.23676
#
# Compressibility (1/GPa) = 0.34516923
#
# Stress axis : x y z
#
# Youngs Moduli (GPa) = 2.89335 85.20852 80.73466
#
# Poissons Ratio (x) = 1.82104 -0.89696
# Poissons Ratio (y) = 0.06184 0.16351
# Poissons Ratio (z) = -0.03215 0.17257
#
# Static dielectric constant tensor:
#      x y z
#    x 1.645190 0.000000 -0.014460 
#    y 0.000000 1.658160 0.000000 
#    z -0.014460 0.000000 1.700690 
# 
# From -- ./inp_files/88350.got.cif
#   From: 2010.05.17/outbox.cif.g08.bks.cpg/sg15_45_cif.got.tgz:88350.got - 2010.06.03 18:47:42.
