data_PCOD9263954
_publ_section_title
;
Structure prediction by ZEFSAII (Michael W. Deem and Ramdas Pophale) SiO2 
 PCOD9263954
Probable space group: C 2/C
;
_chemical_formula_sum "Si O2"
_cell_formula_units_Z 56
_cell_length_a 24.461289
_cell_length_b 12.266057
_cell_length_c 18.635784
_cell_angle_alpha 90.000000
_cell_angle_beta 155.869582
_cell_angle_gamma 90.000000
_cell_volume 2285.908435
_symmetry_space_group_name_H-M "C 2/C"
_symmetry_group_IT_number 15
_symmetry_cell_setting 'monoclinic'
loop_
_space_group_symop_operation_xyz
x,y,z
-x,y,1/2-z
-x,-y,-z
x,-y,1/2+z
1/2+x,1/2+y,z
1/2-x,1/2+y,1/2-z
1/2-x,1/2-y,-z
1/2+x,1/2-y,1/2+z
loop_
_atom_site_type_symbol
_atom_site_label
_atom_site_fract_x
_atom_site_fract_y
_atom_site_fract_z
Si Si1 0.212695 0.347982 0.857833
Si Si2 0.015638 0.634260 0.598608
Si Si3 0.777963 0.491630 0.247020
Si Si4 0.395395 0.697325 0.188972
Si Si5 0.815229 0.116024 0.734809
Si Si6 0.476660 0.941435 0.642700
Si Si7 0.896450 0.937462 0.188165
O O1 0.274175 0.446915 0.885307
O O2 0.229975 0.240039 0.832197
O O3 0.053425 0.364501 0.678752
O O4 0.271300 0.367386 0.007516
O O5 0.123281 0.600764 0.667275
O O6 0.041180 0.753450 0.661202
O O7 0.874982 0.585178 0.399754
O O8 0.038707 0.558109 0.696691
O O9 0.670127 0.432221 0.168209
O O10 0.500000 0.721142 0.250000
O O11 0.376780 0.566989 0.167446
O O12 0.250000 0.750000 0.000000
O O13 0.680944 0.050837 0.553428
O O14 0.922659 0.097105 0.801498
O O15 0.500000 0.903334 0.750000
O O16 0.000000 0.909791 0.250000
#
# Coordination Sequence:
#
# PCOD9263954 Si02
#       7
#     8   8   8   8   8   8   8
#     4  11  23  42  66  92 132 173 217 282 329 396
#     4   9  19  39  65  92 134 159 221 280 319 395
#     4   9  21  41  62  98 129 167 229 279 322 396
#     4  11  24  40  68 101 135 181 220 278 349 398
#     4  11  24  39  67  94 122 173 218 268 333 397
#     4  10  19  34  66  98 114 156 222 271 312 375
#     4  11  26  44  61 101 140 165 219 280 338 410
#
# _framework density 24.497917999999999
#
# number of rings (size 3 to 8) (size 9 to 14) (size 15 to 20)
#    0.000    1.714    1.429    3.429    6.000    1.143 
#    5.143    0.714    0.000    0.000    0.000    0.000 
#    0.000    0.000    0.000    0.000    0.000    0.000 
#
# Total GULP energy -156141.929882 kJ/mol
# GULP energy per Si atom -5576.497496 kJ/mol
# Density = 2.444216 g / cm^3
# Si number density = 24.497918 Si / 1000 Ang^3
#
#
#
# Elastic Constant Matrix: (Units=GPa)
#
#
# Indices 1 2 3 4 5 6 
#
# 1 144.1415 49.1972 22.2462 0.0000 10.1454 0.0000
# 2 49.1972 89.4751 7.4320 0.0000 -2.7739 0.0000
# 3 22.2462 7.4320 47.4003 0.0000 4.2405 0.0000
# 4 0.0000 0.0000 0.0000 4.5862 0.0000 7.3351
# 5 10.1454 -2.7739 4.2405 0.0000 35.2741 0.0000
# 6 0.0000 0.0000 0.0000 7.3351 0.0000 27.4927
#
#
#
# Elastic Compliance Matrix: (Units=1/GPa)
#
#
# Indices 1 2 3 4 5 6 
#
# 1 0.009328 -0.004932 -0.003366 0.000000 -0.002666 0.000000
# 2 -0.004932 0.013975 -0.000103 0.000000 0.002530 0.000000
# 3 -0.003366 -0.000103 0.022853 0.000000 -0.001787 0.000000
# 4 0.000000 0.000000 0.000000 0.380349 0.000000 -0.101477
# 5 -0.002666 0.002530 -0.001787 0.000000 0.029530 0.000000
# 6 0.000000 0.000000 0.000000 -0.101477 0.000000 0.063448
#
#
# Mechanical properties :
#
#
# Convention : Reuss Voigt Hill
#
# Bulk Modulus (GPa) = 34.06682 48.75198 41.40940
# Shear Modulus (GPa) = 9.15635 26.94669 18.05152
#
# Velocity S-wave (km/s) = 1.93539 3.32016 2.71746
# Velocity P-wave (km/s) = 4.35092 5.88571 5.17552
#
# Compressibility (1/GPa) = 0.02935408
#
# Stress axis : x y z
#
# Youngs Moduli (GPa) = 107.20212 71.55572 43.75847
#
# Poissons Ratio (x) = 0.35292 0.14730
# Poissons Ratio (y) = 0.52873 0.00450
# Poissons Ratio (z) = 0.36086 0.00735
#
# Static dielectric constant tensor:
#      x y z
#    x 2.007430 0.000000 -0.052610 
#    y 0.000000 1.981710 0.000000 
#    z -0.052610 0.000000 2.054190 
# 
# From -- ./inp_files/255484.got.cif
#   From: 2010.05.17/outbox.cif.g08.bks.cpg/sg15_128_cif.got.tgz:255484.got - 2010.06.03 18:47:42.
