data_PCOD9263646
_publ_section_title
;
Structure prediction by ZEFSAII (Michael W. Deem and Ramdas Pophale) SiO2 
 PCOD9263646
Probable space group: C 2/C
;
_chemical_formula_sum "Si O2"
_cell_formula_units_Z 48
_cell_length_a 20.800989
_cell_length_b 12.188049
_cell_length_c 25.775801
_cell_angle_alpha 90.000000
_cell_angle_beta 159.110523
_cell_angle_gamma 90.000000
_cell_volume 2330.079732
_symmetry_space_group_name_H-M "C 2/C"
_symmetry_group_IT_number 15
_symmetry_cell_setting 'monoclinic'
loop_
_space_group_symop_operation_xyz
x,y,z
-x,y,1/2-z
-x,-y,-z
x,-y,1/2+z
1/2+x,1/2+y,z
1/2-x,1/2+y,1/2-z
1/2-x,1/2-y,-z
1/2+x,1/2-y,1/2+z
loop_
_atom_site_type_symbol
_atom_site_label
_atom_site_fract_x
_atom_site_fract_y
_atom_site_fract_z
Si Si1 0.269283 0.379941 0.978211
Si Si2 0.361535 0.259759 0.214866
Si Si3 0.640837 0.913618 0.582638
Si Si4 0.284400 0.522945 0.597661
Si Si5 0.484567 0.679361 0.494692
Si Si6 0.483523 0.493192 0.903263
O O1 0.435010 0.295637 0.117468
O O2 0.202160 0.431429 0.981824
O O3 0.351869 0.483734 0.010454
O O4 0.159368 0.318632 0.850605
O O5 0.278852 0.374707 0.133152
O O6 0.228420 0.206505 0.156825
O O7 0.581292 0.792522 0.554465
O O8 0.824773 0.946615 0.749228
O O9 0.500000 0.000000 0.500000
O O10 0.676833 0.929930 0.547998
O O11 0.500000 0.500247 0.750000
O O12 0.551565 0.612264 0.596126
O O13 0.516375 0.594007 0.472755
#
# Coordination Sequence:
#
# PCOD9263646 Si02
#       6
#     8   8   8   8   8   8
#     4  10  20  37  59  87 124 162 203 248 313 358
#     4  10  19  34  58  89 118 161 199 251 304 356
#     4  12  22  36  63  91 119 156 208 243 302 368
#     4  10  19  36  55  88 119 156 199 245 302 362
#     4  10  23  37  59  89 120 160 199 252 306 355
#     4  10  22  40  58  86 126 153 197 255 306 358
#
# _framework density 20.600154
#
# number of rings (size 3 to 8) (size 9 to 14) (size 15 to 20)
#    0.000    1.667    5.000    0.500    7.000    0.000 
#    0.000    0.833    0.000    0.000    0.000    0.000 
#    0.000    0.000    0.000    0.000    0.000    0.000 
#
# Total GULP energy -133891.018594 kJ/mol
# GULP energy per Si atom -5578.792441 kJ/mol
# Density = 2.055327 g / cm^3
# Si number density = 20.600154 Si / 1000 Ang^3
#
#
#
# Elastic Constant Matrix: (Units=GPa)
#
#
# Indices 1 2 3 4 5 6 
#
# 1 112.4947 50.1625 15.2310 0.0007 -2.1814 -0.0001
# 2 50.1625 121.1044 13.6563 0.0165 9.1574 -0.0051
# 3 15.2310 13.6563 30.5291 0.0041 6.1719 -0.0031
# 4 0.0007 0.0165 0.0041 10.0574 0.0049 8.7724
# 5 -2.1814 9.1574 6.1719 0.0049 26.5889 -0.0037
# 6 -0.0001 -0.0051 -0.0031 8.7724 -0.0037 27.4426
#
#
#
# Elastic Compliance Matrix: (Units=1/GPa)
#
#
# Indices 1 2 3 4 5 6 
#
# 1 0.011601 -0.004571 -0.004463 0.000010 0.003562 -0.000004
# 2 -0.004571 0.010621 -0.001737 -0.000022 -0.003630 0.000008
# 3 -0.004463 -0.001737 0.037471 -0.000014 -0.008466 0.000007
# 4 0.000010 -0.000022 -0.000014 0.137872 -0.000020 -0.044073
# 5 0.003562 -0.003630 -0.008466 -0.000020 0.041117 0.000010
# 6 -0.000004 0.000008 0.000007 -0.044073 0.000010 0.050528
#
#
# Mechanical properties :
#
#
# Convention : Reuss Voigt Hill
#
# Bulk Modulus (GPa) = 26.21176 46.91420 36.56298
# Shear Modulus (GPa) = 15.45742 25.15632 20.30687
#
# Velocity S-wave (km/s) = 2.74223 3.49832 3.14309
# Velocity P-wave (km/s) = 4.77264 6.25626 5.56412
#
# Compressibility (1/GPa) = 0.03815081
#
# Stress axis : x y z
#
# Youngs Moduli (GPa) = 86.19912 94.15192 26.68762
#
# Poissons Ratio (x) = 0.43040 0.11911
# Poissons Ratio (y) = 0.39404 0.04635
# Poissons Ratio (z) = 0.38471 0.16350
#
# Static dielectric constant tensor:
#      x y z
#    x 1.812100 0.000000 -0.007780 
#    y 0.000000 1.732370 0.000000 
#    z -0.007780 0.000000 1.770170 
# 
# From -- ./inp_files/300970.got.cif
#   From: 2010.05.17/outbox.cif.g08.bks.cpg/sg15_151_cif.got.tgz:300970.got - 2010.06.03 18:47:42.
