data_PCOD9263241
_publ_section_title
;
Structure prediction by ZEFSAII (Michael W. Deem and Ramdas Pophale) SiO2 
 PCOD9263241
Probable space group: C 2/C
;
_chemical_formula_sum "Si O2"
_cell_formula_units_Z 52
_cell_length_a 23.384606
_cell_length_b 6.187484
_cell_length_c 19.943177
_cell_angle_alpha 90.000000
_cell_angle_beta 82.092140
_cell_angle_gamma 90.000000
_cell_volume 2858.175206
_symmetry_space_group_name_H-M "C 2/C"
_symmetry_group_IT_number 15
_symmetry_cell_setting 'monoclinic'
loop_
_space_group_symop_operation_xyz
x,y,z
-x,y,1/2-z
-x,-y,-z
x,-y,1/2+z
1/2+x,1/2+y,z
1/2-x,1/2+y,1/2-z
1/2-x,1/2-y,-z
1/2+x,1/2-y,1/2+z
loop_
_atom_site_type_symbol
_atom_site_label
_atom_site_fract_x
_atom_site_fract_y
_atom_site_fract_z
Si Si1 0.866873 0.881108 0.069658
Si Si2 0.034695 0.325234 0.034998
Si Si3 0.500000 0.863241 0.250000
Si Si4 0.534955 0.472225 0.860417
Si Si5 0.440310 0.157419 0.355346
Si Si6 0.722012 0.067749 0.458695
Si Si7 0.332561 0.308147 0.451403
O O1 0.816765 0.701983 0.087590
O O2 0.899064 0.974134 0.130029
O O3 0.917017 0.761276 0.021217
O O4 0.847331 0.057878 0.017202
O O5 0.059288 0.458232 0.093129
O O6 0.993558 0.140020 0.069963
O O7 0.000000 0.500000 0.000000
O O8 0.474408 0.702277 0.197390
O O9 0.450055 0.026475 0.284791
O O10 0.495787 0.684036 0.852877
O O11 0.384363 0.292540 0.389080
O O12 0.750000 0.250000 0.500000
O O13 0.683480 0.923546 0.514989
O O14 0.775191 0.915150 0.428182
#
# Coordination Sequence:
#
# PCOD9263241 Si02
#       7
#     8   8   4   8   8   8   8
#     4  11  19  31  54  84 119 148 176 227 294 356
#     4  11  19  29  50  87 114 148 174 211 292 362
#     4  10  26  36  48  78 114 148 208 232 278 348
#     4  11  22  35  52  78 120 149 185 235 281 348
#     4  11  20  36  55  74 120 152 185 231 282 349
#     4   9  20  32  49  84 122 140 185 219 285 352
#     4  10  19  34  54  81 122 147 176 233 288 351
#
# _framework density 18.193425999999999
#
# number of rings (size 3 to 8) (size 9 to 14) (size 15 to 20)
#    0.000    1.538    4.615    1.846    0.000    0.000 
#    0.000    0.000    0.000    0.000    0.000    0.000 
#  207.692    0.000    0.000    0.000    0.000    0.000 
#
# Total GULP energy -144742.244200 kJ/mol
# GULP energy per Si atom -5567.009392 kJ/mol
# Density = 1.815202 g / cm^3
# Si number density = 18.193426 Si / 1000 Ang^3
#
#
#
# Elastic Constant Matrix: (Units=GPa)
#
#
# Indices 1 2 3 4 5 6 
#
# 1 102.5228 38.2368 31.7873 0.0000 8.3555 0.0000
# 2 38.2368 91.9613 23.2447 0.0000 8.2730 0.0000
# 3 31.7873 23.2447 60.2006 0.0000 0.5050 0.0000
# 4 0.0000 0.0000 0.0000 34.5828 0.0000 1.0856
# 5 8.3555 8.2730 0.5050 0.0000 16.8797 0.0000
# 6 0.0000 0.0000 0.0000 1.0856 0.0000 48.8324
#
#
#
# Elastic Compliance Matrix: (Units=1/GPa)
#
#
# Indices 1 2 3 4 5 6 
#
# 1 0.013211 -0.003689 -0.005513 0.000000 -0.004567 0.000000
# 2 -0.003689 0.013669 -0.003290 0.000000 -0.004775 0.000000
# 3 -0.005513 -0.003290 0.020761 0.000000 0.003720 0.000000
# 4 0.000000 0.000000 0.000000 0.028936 0.000000 -0.000643
# 5 -0.004567 -0.004775 0.003720 0.000000 0.063732 0.000000
# 6 0.000000 0.000000 0.000000 -0.000643 0.000000 0.020493
#
#
# Mechanical properties :
#
#
# Convention : Reuss Voigt Hill
#
# Bulk Modulus (GPa) = 44.13536 49.02470 46.58003
# Shear Modulus (GPa) = 25.86123 30.82005 28.34064
#
# Velocity S-wave (km/s) = 3.77432 4.12031 3.95110
# Velocity P-wave (km/s) = 6.58070 7.04563 6.81713
#
# Compressibility (1/GPa) = 0.02265757
#
# Stress axis : x y z
#
# Youngs Moduli (GPa) = 75.69311 73.15773 48.16624
#
# Poissons Ratio (x) = 0.26986 0.26555
# Poissons Ratio (y) = 0.27921 0.15847
# Poissons Ratio (z) = 0.41731 0.24070
#
# Static dielectric constant tensor:
#      x y z
#    x 1.673940 0.000000 0.013220 
#    y 0.000000 1.634720 0.000000 
#    z 0.013220 0.000000 1.562720 
# 
# From -- ./inp_files/251025.got.cif
#   From: 2010.05.17/outbox.cif.g08.bks.cpg/sg15_126_cif.got.tgz:251025.got - 2010.06.03 18:47:42.
