data_PCOD9263634
_publ_section_title
;
Structure prediction by ZEFSAII (Michael W. Deem and Ramdas Pophale) SiO2 
 PCOD9263634
Probable space group: C 2/C
;
_chemical_formula_sum "Si O2"
_cell_formula_units_Z 40
_cell_length_a 17.842689
_cell_length_b 7.653545
_cell_length_c 13.873922
_cell_angle_alpha 90.000000
_cell_angle_beta 128.183096
_cell_angle_gamma 90.000000
_cell_volume 1489.246058
_symmetry_space_group_name_H-M "C 2/C"
_symmetry_group_IT_number 15
_symmetry_cell_setting 'monoclinic'
loop_
_space_group_symop_operation_xyz
x,y,z
-x,y,1/2-z
-x,-y,-z
x,-y,1/2+z
1/2+x,1/2+y,z
1/2-x,1/2+y,1/2-z
1/2-x,1/2-y,-z
1/2+x,1/2-y,1/2+z
loop_
_atom_site_type_symbol
_atom_site_label
_atom_site_fract_x
_atom_site_fract_y
_atom_site_fract_z
Si Si1 0.752271 0.327913 0.294308
Si Si2 0.451783 0.722556 0.939038
Si Si3 0.066815 0.020221 0.397104
Si Si4 0.725443 0.950742 0.505487
Si Si5 0.135597 0.495562 0.752989
O O1 0.646983 0.373559 0.171416
O O2 0.788074 0.470406 0.399545
O O3 0.827825 0.328501 0.267874
O O4 0.726041 0.138121 0.312796
O O5 0.534918 0.622247 0.950419
O O6 0.442891 0.906442 0.875873
O O7 0.447145 0.698606 0.050583
O O8 0.171403 0.971381 0.442754
O O9 0.000000 0.022259 0.250000
O O10 0.750000 0.750000 0.500000
O O11 0.633889 0.991601 0.365712
#
# Coordination Sequence:
#
# PCOD9263634 Si02
#       5
#     8   8   8   8   8
#     4  10  19  34  58  88 118 160 203 265 309 369
#     4   9  21  34  58  88 119 166 207 263 318 365
#     4  11  19  37  59  91 122 164 217 256 308 389
#     4  12  22  36  64  95 120 166 218 268 318 380
#     4  10  20  39  57  93 127 155 219 261 311 378
#
# _framework density 26.859228999999999
#
# number of rings (size 3 to 8) (size 9 to 14) (size 15 to 20)
#    1.200    0.400    4.000    3.000    0.000    0.000 
#    0.000    0.000    0.000   10.800    0.000    0.000 
#    0.000    0.000    0.000    0.000    0.000    0.000 
#
# Total GULP energy -111622.458376 kJ/mol
# GULP energy per Si atom -5581.122919 kJ/mol
# Density = 2.679810 g / cm^3
# Si number density = 26.859229 Si / 1000 Ang^3
#
#
#
# Elastic Constant Matrix: (Units=GPa)
#
#
# Indices 1 2 3 4 5 6 
#
# 1 71.5263 -21.1197 16.2979 0.0000 -13.1358 0.0000
# 2 -21.1197 43.8910 3.9265 0.0000 2.8138 0.0000
# 3 16.2979 3.9265 178.6143 0.0000 -23.1370 0.0000
# 4 0.0000 0.0000 0.0000 36.9985 0.0000 -1.3320
# 5 -13.1358 2.8138 -23.1370 0.0000 36.4166 0.0000
# 6 0.0000 0.0000 0.0000 -1.3320 0.0000 30.5453
#
#
#
# Elastic Compliance Matrix: (Units=1/GPa)
#
#
# Indices 1 2 3 4 5 6 
#
# 1 0.017591 0.008247 -0.001141 0.000000 0.004983 0.000000
# 2 0.008247 0.026869 -0.001337 0.000000 0.000049 0.000000
# 3 -0.001141 -0.001337 0.006203 0.000000 0.003633 0.000000
# 4 0.000000 0.000000 0.000000 0.027071 0.000000 0.001180
# 5 0.004983 0.000049 0.003633 0.000000 0.031562 0.000000
# 6 0.000000 0.000000 0.000000 0.001180 0.000000 0.032790
#
#
# Mechanical properties :
#
#
# Convention : Reuss Voigt Hill
#
# Bulk Modulus (GPa) = 16.07677 32.47121 24.27399
# Shear Modulus (GPa) = 33.05146 40.45387 36.75267
#
# Velocity S-wave (km/s) = 3.51172 3.88512 3.70313
# Velocity P-wave (km/s) = 4.73724 5.67813 5.22889
#
# Compressibility (1/GPa) = 0.06220154
#
# Stress axis : x y z
#
# Youngs Moduli (GPa) = 56.84666 37.21818 161.22019
#
# Poissons Ratio (x) = -0.30695 0.18394
# Poissons Ratio (y) = -0.46883 0.21551
# Poissons Ratio (z) = 0.06486 0.04975
#
# Static dielectric constant tensor:
#      x y z
#    x 2.048460 0.000000 0.004090 
#    y 0.000000 2.285490 0.000000 
#    z 0.004090 0.000000 2.133970 
# 
# From -- ./inp_files/165868.got.cif
#   From: 2010.05.17/outbox.cif.g08.bks.cpg/sg15_83_cif.got.tgz:165868.got - 2010.06.03 18:47:42.
