data_PCOD9263088
_publ_section_title
;
Structure prediction by ZEFSAII (Michael W. Deem and Ramdas Pophale) SiO2 
 PCOD9263088
Probable space group: C 2/C
;
_chemical_formula_sum "Si O2"
_cell_formula_units_Z 56
_cell_length_a 11.204302
_cell_length_b 27.561113
_cell_length_c 8.883365
_cell_angle_alpha 90.000000
_cell_angle_beta 122.077130
_cell_angle_gamma 90.000000
_cell_volume 2324.415057
_symmetry_space_group_name_H-M "C 2/C"
_symmetry_group_IT_number 15
_symmetry_cell_setting 'monoclinic'
loop_
_space_group_symop_operation_xyz
x,y,z
-x,y,1/2-z
-x,-y,-z
x,-y,1/2+z
1/2+x,1/2+y,z
1/2-x,1/2+y,1/2-z
1/2-x,1/2-y,-z
1/2+x,1/2-y,1/2+z
loop_
_atom_site_type_symbol
_atom_site_label
_atom_site_fract_x
_atom_site_fract_y
_atom_site_fract_z
Si Si1 0.760040 0.601439 0.775386
Si Si2 0.097996 0.969303 0.954722
Si Si3 0.500000 0.122845 0.750000
Si Si4 0.149138 0.194098 0.088220
Si Si5 0.083052 0.709847 0.441481
Si Si6 0.355190 0.958700 0.599465
Si Si7 0.857240 0.375185 0.856024
Si Si8 0.000000 0.142374 0.750000
O O1 0.667268 0.574509 0.589872
O O2 0.863045 0.639864 0.760773
O O3 0.644063 0.613878 0.823289
O O4 0.861553 0.565855 0.939530
O O5 0.000000 0.954845 0.750000
O O6 0.226273 0.004878 0.000975
O O7 0.000000 0.000000 0.000000
O O8 0.402563 0.103432 0.547132
O O9 0.268903 0.196026 0.035475
O O10 0.218418 0.159426 0.259145
O O11 0.110956 0.250437 0.089696
O O12 0.016786 0.169902 0.919169
O O13 0.000000 0.737145 0.250000
O O14 0.980405 0.664291 0.399444
O O15 0.500000 0.983762 0.750000
O O16 0.339692 0.916305 0.716803
#
# Coordination Sequence:
#
# PCOD9263088 Si02
#       8
#     8   8   4   8   8   8   8   4
#     4  12  27  45  73 104 143 188 238 299 359 427
#     4  12  28  47  70 105 147 185 235 302 368 426
#     4  12  28  44  68 106 141 193 234 298 360 422
#     4  10  19  33  68 100 135 177 238 292 340 424
#     4   9  18  35  62 105 133 174 235 302 341 403
#     4  12  24  45  76 100 136 193 246 293 350 435
#     4  11  23  42  67 100 143 182 235 298 351 420
#     4  12  22  42  72 106 135 187 242 284 356 432
#
# _framework density 24.092081
#
# number of rings (size 3 to 8) (size 9 to 14) (size 15 to 20)
#    0.000    0.857    5.000    3.000    3.000    0.571 
#    0.000    0.714    0.000    0.000    0.000    0.000 
#    0.000    0.000    0.000    0.000    0.000    0.000 
#
# Total GULP energy -155899.921816 kJ/mol
# GULP energy per Si atom -5567.854351 kJ/mol
# Density = 2.403725 g / cm^3
# Si number density = 24.092081 Si / 1000 Ang^3
#
#
#
# Elastic Constant Matrix: (Units=GPa)
#
#
# Indices 1 2 3 4 5 6 
#
# 1 71.8043 6.4431 -7.8381 0.0000 10.6218 0.0000
# 2 6.4431 77.9399 39.8313 0.0000 8.4276 0.0000
# 3 -7.8381 39.8313 198.9137 0.0000 21.6653 0.0000
# 4 0.0000 0.0000 0.0000 28.4997 0.0000 23.2783
# 5 10.6218 8.4276 21.6653 0.0000 32.5931 0.0000
# 6 0.0000 0.0000 0.0000 23.2783 0.0000 -9.7992
#
#
#
# Elastic Compliance Matrix: (Units=1/GPa)
#
#
# Indices 1 2 3 4 5 6 
#
# 1 0.015029 -0.001399 0.001473 0.000000 -0.005515 0.000000
# 2 -0.001399 0.014537 -0.002810 0.000000 -0.001435 0.000000
# 3 0.001473 -0.002810 0.006060 0.000000 -0.003782 0.000000
# 4 0.000000 0.000000 0.000000 0.011933 0.000000 0.028348
# 5 -0.005515 -0.001435 -0.003782 0.000000 0.035364 0.000000
# 6 0.000000 0.000000 0.000000 0.028348 0.000000 -0.034707
#
#
# Mechanical properties :
#
#
# Convention : Reuss Voigt Hill
#
# Bulk Modulus (GPa) = 33.16221 47.28117 40.22169
# Shear Modulus (GPa) = 78.44515 30.94018 54.69267
#
# Velocity S-wave (km/s) = 5.71238 3.58753 4.76978
# Velocity P-wave (km/s) = 7.56987 6.06863 6.86044
#
# Compressibility (1/GPa) = 0.03015480
#
# Stress axis : x y z
#
# Youngs Moduli (GPa) = 66.53845 68.78918 165.01980
#
# Poissons Ratio (x) = 0.09622 -0.24308
# Poissons Ratio (y) = 0.09308 0.46367
# Poissons Ratio (z) = -0.09801 0.19328
#
# Static dielectric constant tensor:
#      x y z
#    x 2.026570 0.000000 0.035090 
#    y 0.000000 2.012860 0.000000 
#    z 0.035090 0.000000 2.001160 
# 
# From -- ./inp_files/35813.got.cif
#   From: 2010.05.17/outbox.cif.g08.bks.cpg/sg15_18_cif.got.tgz:35813.got - 2010.06.03 18:47:42.
