data_PCOD9263652
_publ_section_title
;
Structure prediction by ZEFSAII (Michael W. Deem and Ramdas Pophale) SiO2 
 PCOD9263652
Probable space group: C 2/C
;
_chemical_formula_sum "Si O2"
_cell_formula_units_Z 52
_cell_length_a 5.136244
_cell_length_b 18.394099
_cell_length_c 29.597981
_cell_angle_alpha 90.000000
_cell_angle_beta 61.398270
_cell_angle_gamma 90.000000
_cell_volume 2455.077457
_symmetry_space_group_name_H-M "C 2/C"
_symmetry_group_IT_number 15
_symmetry_cell_setting 'monoclinic'
loop_
_space_group_symop_operation_xyz
x,y,z
-x,y,1/2-z
-x,-y,-z
x,-y,1/2+z
1/2+x,1/2+y,z
1/2-x,1/2+y,1/2-z
1/2-x,1/2-y,-z
1/2+x,1/2-y,1/2+z
loop_
_atom_site_type_symbol
_atom_site_label
_atom_site_fract_x
_atom_site_fract_y
_atom_site_fract_z
Si Si1 0.587377 0.291926 0.288335
Si Si2 0.196187 0.039602 0.866389
Si Si3 0.869991 0.634781 0.610777
Si Si4 0.711306 0.301053 0.650619
Si Si5 0.500000 0.924998 0.250000
Si Si6 0.741565 0.747289 0.447412
Si Si7 0.292674 0.624247 0.116010
O O1 0.500000 0.251296 0.250000
O O2 0.287382 0.310054 0.340754
O O3 0.805835 0.251086 0.304768
O O4 0.733369 0.368619 0.263055
O O5 0.365450 0.092437 0.887220
O O6 0.398000 0.033915 0.803852
O O7 0.886624 0.076836 0.879347
O O8 0.141441 0.960272 0.891139
O O9 0.920701 0.684476 0.562508
O O10 0.446811 0.338949 0.646474
O O11 0.915627 0.254951 0.598565
O O12 0.939338 0.364005 0.647632
O O13 0.750000 0.750000 0.500000
O O14 0.616497 0.673085 0.435053
#
# Coordination Sequence:
#
# PCOD9263652 Si02
#       7
#     8   8   8   8   4   8   8
#     4  10  19  34  58  90 116 151 206 254 285 354
#     4  11  22  41  59  87 123 163 196 249 303 366
#     4  10  22  37  63  87 119 157 205 244 302 356
#     4   9  22  37  62  85 120 156 194 249 309 343
#     4  10  22  32  60  82 122 152 206 234 304 348
#     4   9  22  41  66  91 118 157 206 256 308 363
#     4  10  22  41  60  84 127 158 190 251 311 357
#
# _framework density 21.180592999999998
#
# number of rings (size 3 to 8) (size 9 to 14) (size 15 to 20)
#    0.923    1.231    1.538    0.923    8.615    0.615 
#    1.385    1.538    0.000    0.000    0.000    0.000 
#    0.000    0.000    0.000    0.000    0.000    0.000 
#
# Total GULP energy -145066.868371 kJ/mol
# GULP energy per Si atom -5579.494937 kJ/mol
# Density = 2.113238 g / cm^3
# Si number density = 21.180593 Si / 1000 Ang^3
#
#
#
# Elastic Constant Matrix: (Units=GPa)
#
#
# Indices 1 2 3 4 5 6 
#
# 1 69.4123 16.4561 22.3983 0.0000 30.8031 0.0000
# 2 16.4561 113.2183 42.0590 0.0000 20.3231 0.0000
# 3 22.3983 42.0590 144.3647 0.0000 31.1361 0.0000
# 4 0.0000 0.0000 0.0000 17.7527 0.0000 6.1370
# 5 30.8031 20.3231 31.1361 0.0000 33.5342 0.0000
# 6 0.0000 0.0000 0.0000 6.1370 0.0000 21.3143
#
#
#
# Elastic Compliance Matrix: (Units=1/GPa)
#
#
# Indices 1 2 3 4 5 6 
#
# 1 0.024525 0.000246 0.001268 0.000000 -0.023854 0.000000
# 2 0.000246 0.010393 -0.002074 0.000000 -0.004599 0.000000
# 3 0.001268 -0.002074 0.009146 0.000000 -0.008400 0.000000
# 4 0.000000 0.000000 0.000000 0.062556 0.000000 -0.018012
# 5 -0.023854 -0.004599 -0.008400 0.000000 0.062318 0.000000
# 6 0.000000 0.000000 0.000000 -0.018012 0.000000 0.052103
#
#
# Mechanical properties :
#
#
# Convention : Reuss Voigt Hill
#
# Bulk Modulus (GPa) = 23.28628 54.31357 38.79992
# Shear Modulus (GPa) = 21.14387 30.92569 26.03478
#
# Velocity S-wave (km/s) = 3.16296 3.82526 3.50977
# Velocity P-wave (km/s) = 4.93530 6.72376 5.89772
#
# Compressibility (1/GPa) = 0.04294374
#
# Stress axis : x y z
#
# Youngs Moduli (GPa) = 40.77491 96.22122 109.33655
#
# Poissons Ratio (x) = -0.02369 -0.13864
# Poissons Ratio (y) = -0.01004 0.22678
# Poissons Ratio (z) = -0.05170 0.19958
#
# Static dielectric constant tensor:
#      x y z
#    x 1.823200 0.000000 -0.022600 
#    y 0.000000 1.754660 0.000000 
#    z -0.022600 0.000000 1.806450 
# 
# From -- ./inp_files/285853.got.cif
#   From: 2010.05.17/outbox.cif.g08.bks.cpg/sg15_143_cif.got.tgz:285853.got - 2010.06.03 18:47:42.
