data_PCOD9263570
_publ_section_title
;
Structure prediction by ZEFSAII (Michael W. Deem and Ramdas Pophale) SiO2 
 PCOD9263570
Probable space group: C 2/C
;
_chemical_formula_sum "Si O2"
_cell_formula_units_Z 36
_cell_length_a 23.145610
_cell_length_b 7.612811
_cell_length_c 14.056188
_cell_angle_alpha 90.000000
_cell_angle_beta 38.024807
_cell_angle_gamma 90.000000
_cell_volume 1525.681147
_symmetry_space_group_name_H-M "C 2/C"
_symmetry_group_IT_number 15
_symmetry_cell_setting 'monoclinic'
loop_
_space_group_symop_operation_xyz
x,y,z
-x,y,1/2-z
-x,-y,-z
x,-y,1/2+z
1/2+x,1/2+y,z
1/2-x,1/2+y,1/2-z
1/2-x,1/2-y,-z
1/2+x,1/2-y,1/2+z
loop_
_atom_site_type_symbol
_atom_site_label
_atom_site_fract_x
_atom_site_fract_y
_atom_site_fract_z
Si Si1 0.000000 0.917754 0.750000
Si Si2 0.803217 0.097692 0.552019
Si Si3 0.763590 0.087433 0.913750
Si Si4 0.037189 0.854724 0.381872
Si Si5 0.844595 0.720105 0.604267
O O1 0.091522 0.820172 0.590986
O O2 0.039888 0.051703 0.776345
O O3 0.721816 0.193136 0.717789
O O4 0.772527 0.063503 0.481664
O O5 0.823615 0.911134 0.582121
O O6 0.682173 0.079157 0.941878
O O7 0.853720 0.156925 0.736358
O O8 0.750000 0.250000 0.000000
O O9 0.955273 0.711207 0.485653
O O10 0.000000 0.000000 0.500000
#
# Coordination Sequence:
#
# PCOD9263570 Si02
#       5
#     4   8   8   8   8
#     4   8  16  32  54  80 110 150 186 212 264 344
#     4   9  18  33  56  81 112 152 190 225 268 325
#     4   9  18  33  54  80 111 148 188 220 268 336
#     4  10  19  34  58  82 106 146 189 221 268 337
#     4  10  19  35  58  84 112 147 187 231 270 324
#
# _framework density 23.596017
#
# number of rings (size 3 to 8) (size 9 to 14) (size 15 to 20)
#    0.000    2.667    0.000    4.000    0.000    0.000 
#    0.000   14.444    0.000   16.000    0.000    0.000 
#    0.000    0.000    0.000    0.000    0.000    0.000 
#
# Total GULP energy -100225.682946 kJ/mol
# GULP energy per Si atom -5568.093497 kJ/mol
# Density = 2.354231 g / cm^3
# Si number density = 23.596017 Si / 1000 Ang^3
#
#
#
# Elastic Constant Matrix: (Units=GPa)
#
#
# Indices 1 2 3 4 5 6 
#
# 1 91.0785 14.9571 23.4782 0.0014 1.8299 -0.0006
# 2 14.9571 47.4856 38.8137 0.0013 -13.7217 -0.0030
# 3 23.4782 38.8137 166.0894 0.0071 -4.1911 -0.0062
# 4 0.0014 0.0013 0.0071 42.9562 -0.0044 -1.6634
# 5 1.8299 -13.7217 -4.1911 -0.0044 34.4579 0.0040
# 6 -0.0006 -0.0030 -0.0062 -1.6634 0.0040 -1.8177
#
#
#
# Elastic Compliance Matrix: (Units=1/GPa)
#
#
# Indices 1 2 3 4 5 6 
#
# 1 0.011849 -0.003647 -0.000878 0.000000 -0.002188 0.000001
# 2 -0.003647 0.030806 -0.006389 0.000001 0.011684 -0.000004
# 3 -0.000878 -0.006389 0.007598 -0.000002 -0.001573 -0.000017
# 4 0.000000 0.000001 -0.000002 0.022483 0.000006 -0.020574
# 5 -0.002188 0.011684 -0.001573 0.000006 0.033599 0.000055
# 6 0.000001 -0.000004 -0.000017 -0.020574 0.000055 -0.531313
#
#
# Mechanical properties :
#
#
# Convention : Reuss Voigt Hill
#
# Bulk Modulus (GPa) = 35.17916 51.01683 43.09800
# Shear Modulus (GPa) = -12.70080 30.27957 8.78938
#
# Velocity S-wave (km/s) = -2.32256 3.58613 1.93211
# Velocity P-wave (km/s) = 2.78369 6.23017 4.82514
#
# Compressibility (1/GPa) = 0.02842592
#
# Stress axis : x y z
#
# Youngs Moduli (GPa) = 84.39741 32.46119 131.60927
#
# Poissons Ratio (x) = 0.11838 0.11554
# Poissons Ratio (y) = 0.30779 0.84082
# Poissons Ratio (z) = 0.07409 0.20739
#
# Static dielectric constant tensor:
#      x y z
#    x 1.909570 0.000000 -0.089160 
#    y 0.000000 2.094120 0.000000 
#    z -0.089160 0.000000 1.969430 
# 
# From -- ./inp_files/141663.got.cif
#   From: 2010.05.17/outbox.cif.g08.bks.cpg/sg15_71_cif.got.tgz:141663.got - 2010.06.03 18:47:42.
