data_PCOD9263836
_publ_section_title
;
Structure prediction by ZEFSAII (Michael W. Deem and Ramdas Pophale) SiO2 
 PCOD9263836
Probable space group: C 2/C
;
_chemical_formula_sum "Si O2"
_cell_formula_units_Z 64
_cell_length_a 21.873727
_cell_length_b 10.942687
_cell_length_c 12.367632
_cell_angle_alpha 90.000000
_cell_angle_beta 89.378187
_cell_angle_gamma 90.000000
_cell_volume 2960.109267
_symmetry_space_group_name_H-M "C 2/C"
_symmetry_group_IT_number 15
_symmetry_cell_setting 'monoclinic'
loop_
_space_group_symop_operation_xyz
x,y,z
-x,y,1/2-z
-x,-y,-z
x,-y,1/2+z
1/2+x,1/2+y,z
1/2-x,1/2+y,1/2-z
1/2-x,1/2-y,-z
1/2+x,1/2-y,1/2+z
loop_
_atom_site_type_symbol
_atom_site_label
_atom_site_fract_x
_atom_site_fract_y
_atom_site_fract_z
Si Si1 0.343635 0.214934 0.178857
Si Si2 0.384596 0.669798 0.254116
Si Si3 0.031528 0.380547 0.352480
Si Si4 0.227923 0.148075 0.086399
Si Si5 0.447930 0.874305 0.537569
Si Si6 0.332919 0.471708 0.093823
Si Si7 0.050393 0.762126 0.168331
Si Si8 0.438512 0.491096 0.933861
O O1 0.283594 0.132822 0.169694
O O2 0.385109 0.185567 0.073734
O O3 0.323229 0.356796 0.174252
O O4 0.393046 0.198812 0.272742
O O5 0.421731 0.778136 0.192371
O O6 0.330575 0.693537 0.343311
O O7 0.349531 0.589300 0.163572
O O8 0.431598 0.585790 0.323578
O O9 0.059235 0.482838 0.431557
O O10 0.000000 0.442754 0.250000
O O11 0.971719 0.336048 0.419812
O O12 0.250000 0.250000 0.000000
O O13 0.214778 0.033954 0.005725
O O14 0.505433 0.827414 0.606784
O O15 0.393180 0.441161 0.024532
O O16 0.000000 0.823319 0.250000
O O17 0.077480 0.869530 0.095759
O O18 0.500000 0.500000 0.000000
#
# Coordination Sequence:
#
# PCOD9263836 Si02
#       8
#     8   8   8   8   8   8   8   8
#     4  10  19  41  66  87 116 173 220 258 333 388
#     4  11  24  40  61 102 133 166 215 269 334 401
#     4  11  25  40  62  91 134 169 217 264 317 398
#     4   9  22  42  65  90 125 171 217 269 321 394
#     4  10  23  43  61  92 129 172 215 271 319 384
#     4  10  21  38  59  91 128 156 209 272 323 389
#     4  10  19  34  61  89 126 162 212 260 319 398
#     4  11  22  32  56  98 134 163 198 264 342 396
#
# _framework density 21.620823000000001
#
# number of rings (size 3 to 8) (size 9 to 14) (size 15 to 20)
#    0.000    1.750    1.250    3.375    8.750    0.000 
#    4.500    2.500    0.000    2.250    0.000    0.000 
#    0.000    0.000    0.000    0.000    0.000    0.000 
#
# Total GULP energy -178167.647046 kJ/mol
# GULP energy per Si atom -5567.738970 kJ/mol
# Density = 2.157161 g / cm^3
# Si number density = 21.620823 Si / 1000 Ang^3
#
#
#
# Elastic Constant Matrix: (Units=GPa)
#
#
# Indices 1 2 3 4 5 6 
#
# 1 100.7692 25.2570 42.4377 0.0000 13.6384 0.0000
# 2 25.2570 88.2180 31.0630 0.0000 -7.7020 0.0000
# 3 42.4377 31.0630 89.4491 0.0000 -4.6655 0.0000
# 4 0.0000 0.0000 0.0000 33.8228 0.0000 2.3615
# 5 13.6384 -7.7020 -4.6655 0.0000 41.7598 0.0000
# 6 0.0000 0.0000 0.0000 2.3615 0.0000 23.4963
#
#
#
# Elastic Compliance Matrix: (Units=1/GPa)
#
#
# Indices 1 2 3 4 5 6 
#
# 1 0.013807 -0.002317 -0.006039 0.000000 -0.005611 0.000000
# 2 -0.002317 0.013454 -0.003424 0.000000 0.002855 0.000000
# 3 -0.006039 -0.003424 0.015393 0.000000 0.003060 0.000000
# 4 0.000000 0.000000 0.000000 0.029775 0.000000 -0.002993
# 5 -0.005611 0.002855 0.003060 0.000000 0.026648 0.000000
# 6 0.000000 0.000000 0.000000 -0.002993 0.000000 0.042861
#
#
# Mechanical properties :
#
#
# Convention : Reuss Voigt Hill
#
# Bulk Modulus (GPa) = 52.36909 52.88351 52.62630
# Shear Modulus (GPa) = 29.09340 31.79436 30.44388
#
# Velocity S-wave (km/s) = 3.67225 3.83893 3.75651
# Velocity P-wave (km/s) = 6.50036 6.64548 6.57332
#
# Compressibility (1/GPa) = 0.01909524
#
# Stress axis : x y z
#
# Youngs Moduli (GPa) = 72.42809 74.32867 64.96379
#
# Poissons Ratio (x) = 0.17218 0.39229
# Poissons Ratio (y) = 0.16778 0.22244
# Poissons Ratio (z) = 0.43737 0.25451
#
# Static dielectric constant tensor:
#      x y z
#    x 1.654120 0.000000 -0.120280 
#    y 0.000000 1.869000 0.000000 
#    z -0.120280 0.000000 1.789500 
# 
# From -- ./inp_files/117594.got.cif
#   From: 2010.05.17/outbox.cif.g08.bks.cpg/sg15_59_cif.got.tgz:117594.got - 2010.06.03 18:47:42.
