data_PCOD9263861
_publ_section_title
;
Structure prediction by ZEFSAII (Michael W. Deem and Ramdas Pophale) SiO2 
 PCOD9263861
Probable space group: C 2/C
;
_chemical_formula_sum "Si O2"
_cell_formula_units_Z 56
_cell_length_a 6.991805
_cell_length_b 15.002083
_cell_length_c 23.773184
_cell_angle_alpha 90.000000
_cell_angle_beta 117.874206
_cell_angle_gamma 90.000000
_cell_volume 2204.290324
_symmetry_space_group_name_H-M "C 2/C"
_symmetry_group_IT_number 15
_symmetry_cell_setting 'monoclinic'
loop_
_space_group_symop_operation_xyz
x,y,z
-x,y,1/2-z
-x,-y,-z
x,-y,1/2+z
1/2+x,1/2+y,z
1/2-x,1/2+y,1/2-z
1/2-x,1/2-y,-z
1/2+x,1/2-y,1/2+z
loop_
_atom_site_type_symbol
_atom_site_label
_atom_site_fract_x
_atom_site_fract_y
_atom_site_fract_z
Si Si1 0.293785 0.386719 0.503125
Si Si2 0.986823 0.522184 0.316019
Si Si3 0.709419 0.584615 0.977454
Si Si4 0.470195 0.749876 0.399975
Si Si5 0.160029 0.874485 0.136145
Si Si6 0.466760 0.809963 0.597254
Si Si7 0.255206 0.649229 0.725561
O O1 0.214362 0.484996 0.503611
O O2 0.497129 0.397099 0.488037
O O3 0.393908 0.340194 0.571870
O O4 0.111413 0.326248 0.449687
O O5 0.196130 0.460836 0.362502
O O6 0.966831 0.609274 0.352106
O O7 0.000000 0.542926 0.250000
O O8 0.793533 0.452178 0.299580
O O9 0.886901 0.650559 0.026776
O O10 0.590603 0.593071 0.901230
O O11 0.246250 0.730571 0.401809
O O12 0.400368 0.785137 0.329637
O O13 0.263181 0.855362 0.210517
O O14 0.128484 0.772298 0.109965
O O15 0.500000 0.677754 0.750000
#
# Coordination Sequence:
#
# PCOD9263861 Si02
#       7
#     8   8   8   8   8   8   8
#     4   9  19  36  65  93 127 171 221 269 328 401
#     4  10  24  42  68  93 129 174 222 273 340 397
#     4  10  19  37  60  91 129 169 216 270 331 386
#     4  10  19  34  61  96 122 169 218 265 329 393
#     4  11  22  39  63  98 125 172 219 269 330 400
#     4  11  22  38  67  93 127 174 217 274 330 399
#     4  11  22  41  64  90 133 170 213 277 334 393
#
# _framework density 25.405002
#
# number of rings (size 3 to 8) (size 9 to 14) (size 15 to 20)
#    0.000    1.714    1.429    4.714    2.000    0.000 
#    0.000    2.857   15.714    0.000    0.000    0.000 
#    0.000    0.000    0.000    0.000    0.000    0.000 
#
# Total GULP energy -156582.732492 kJ/mol
# GULP energy per Si atom -5592.240446 kJ/mol
# Density = 2.534718 g / cm^3
# Si number density = 25.405002 Si / 1000 Ang^3
#
#
#
# Elastic Constant Matrix: (Units=GPa)
#
#
# Indices 1 2 3 4 5 6 
#
# 1 69.7176 25.4305 28.3567 0.0000 7.0461 0.0000
# 2 25.4305 177.6783 75.4236 0.0000 4.0815 0.0000
# 3 28.3567 75.4236 169.5141 0.0000 8.9722 0.0000
# 4 0.0000 0.0000 0.0000 60.1162 0.0000 -2.7373
# 5 7.0461 4.0815 8.9722 0.0000 40.4445 0.0000
# 6 0.0000 0.0000 0.0000 -2.7373 0.0000 35.4652
#
#
#
# Elastic Compliance Matrix: (Units=1/GPa)
#
#
# Indices 1 2 3 4 5 6 
#
# 1 0.015856 -0.001408 -0.001910 0.000000 -0.002197 0.000000
# 2 -0.001408 0.007064 -0.002917 0.000000 0.000180 0.000000
# 3 -0.001910 -0.002917 0.007572 0.000000 -0.001053 0.000000
# 4 0.000000 0.000000 0.000000 0.016693 0.000000 0.001288
# 5 -0.002197 0.000180 -0.001053 0.000000 0.025323 0.000000
# 6 0.000000 0.000000 0.000000 0.001288 0.000000 0.028296
#
#
# Mechanical properties :
#
#
# Convention : Reuss Voigt Hill
#
# Bulk Modulus (GPa) = 55.48634 75.03685 65.26159
# Shear Modulus (GPa) = 41.91763 46.38514 44.15138
#
# Velocity S-wave (km/s) = 4.06640 4.27761 4.17334
# Velocity P-wave (km/s) = 6.62839 7.34830 6.99761
#
# Compressibility (1/GPa) = 0.01802246
#
# Stress axis : x y z
#
# Youngs Moduli (GPa) = 63.06768 141.56688 132.06206
#
# Poissons Ratio (x) = 0.19938 0.25217
# Poissons Ratio (y) = 0.08882 0.38521
# Poissons Ratio (z) = 0.12043 0.41293
#
# Static dielectric constant tensor:
#      x y z
#    x 2.134140 0.000000 -0.078350 
#    y 0.000000 1.949250 0.000000 
#    z -0.078350 0.000000 2.065400 
# 
# From -- ./inp_files/308080.got.cif
#   From: 2010.05.17/outbox.cif.g08.bks.cpg/sg15_155_cif.got.tgz:308080.got - 2010.06.03 18:47:42.
