data_PCOD9263314
_publ_section_title
;
Structure prediction by ZEFSAII (Michael W. Deem and Ramdas Pophale) SiO2 
 PCOD9263314
Probable space group: C 2/C
;
_chemical_formula_sum "Si O2"
_cell_formula_units_Z 64
_cell_length_a 14.632464
_cell_length_b 27.137927
_cell_length_c 12.303669
_cell_angle_alpha 90.000000
_cell_angle_beta 137.577457
_cell_angle_gamma 90.000000
_cell_volume 3295.873439
_symmetry_space_group_name_H-M "C 2/C"
_symmetry_group_IT_number 15
_symmetry_cell_setting 'monoclinic'
loop_
_space_group_symop_operation_xyz
x,y,z
-x,y,1/2-z
-x,-y,-z
x,-y,1/2+z
1/2+x,1/2+y,z
1/2-x,1/2+y,1/2-z
1/2-x,1/2-y,-z
1/2+x,1/2-y,1/2+z
loop_
_atom_site_type_symbol
_atom_site_label
_atom_site_fract_x
_atom_site_fract_y
_atom_site_fract_z
Si Si1 0.168674 0.906853 0.514870
Si Si2 0.240133 0.810158 0.692272
Si Si3 0.928254 0.461778 0.797285
Si Si4 0.364697 0.597861 0.763874
Si Si5 0.520648 0.281315 0.890559
Si Si6 0.399480 0.930181 0.341540
Si Si7 0.284607 0.701459 0.744945
Si Si8 0.494661 0.171713 0.560269
O O1 0.202226 0.849540 0.567910
O O2 0.280432 0.938459 0.673818
O O3 0.173937 0.918543 0.391377
O O4 0.017279 0.917908 0.422191
O O5 0.293780 0.756139 0.704377
O O6 0.108187 0.798420 0.650629
O O7 0.360188 0.833020 0.870394
O O8 0.911977 0.520765 0.782483
O O9 0.000000 0.444843 0.750000
O O10 0.017539 0.443469 0.976163
O O11 0.253858 0.580989 0.754038
O O12 0.365225 0.657457 0.760634
O O13 0.500000 0.300345 0.750000
O O14 0.524937 0.221732 0.889429
O O15 0.654398 0.295580 0.077873
O O16 0.464980 0.880253 0.351718
O O17 0.128260 0.684936 0.606802
#
# Coordination Sequence:
#
# PCOD9263314 Si02
#       8
#     8   8   8   8   8   8   8   8
#     4  11  21  36  62  86 115 155 197 239 295 351
#     4  10  19  34  55  82 119 156 195 237 286 341
#     4  11  22  39  62  89 113 147 192 243 304 354
#     4  10  21  38  61  87 115 155 195 239 295 349
#     4  10  20  35  55  80 118 159 194 232 285 347
#     4  10  21  39  62  84 118 147 188 250 294 346
#     4   9  19  35  54  82 120 151 194 237 283 338
#     4   9  19  33  55  83 109 153 189 233 288 336
#
# _framework density 19.418220999999999
#
# number of rings (size 3 to 8) (size 9 to 14) (size 15 to 20)
#    0.000    2.000    3.750    0.000    0.000    6.000 
#    0.000    1.250    2.750    0.000    0.000    0.000 
#    0.000    0.000    0.000    0.000    0.000    0.000 
#
# Total GULP energy -178373.546486 kJ/mol
# GULP energy per Si atom -5574.173328 kJ/mol
# Density = 1.937402 g / cm^3
# Si number density = 19.418221 Si / 1000 Ang^3
#
#
#
# Elastic Constant Matrix: (Units=GPa)
#
#
# Indices 1 2 3 4 5 6 
#
# 1 35.6596 0.7755 28.4331 0.0000 11.1761 0.0000
# 2 0.7755 71.8657 7.3228 0.0000 8.9718 0.0000
# 3 28.4331 7.3228 79.0816 0.0000 24.8467 0.0000
# 4 0.0000 0.0000 0.0000 13.1518 0.0000 3.1805
# 5 11.1761 8.9718 24.8467 0.0000 26.1539 0.0000
# 6 0.0000 0.0000 0.0000 3.1805 0.0000 18.1470
#
#
#
# Elastic Compliance Matrix: (Units=1/GPa)
#
#
# Indices 1 2 3 4 5 6 
#
# 1 0.039906 0.001551 -0.012782 0.000000 -0.005442 0.000000
# 2 0.001551 0.014603 -0.000182 0.000000 -0.005499 0.000000
# 3 -0.012782 -0.000182 0.022126 0.000000 -0.015496 0.000000
# 4 0.000000 0.000000 0.000000 0.079400 0.000000 -0.013916
# 5 -0.005442 -0.005499 -0.015496 0.000000 0.057169 0.000000
# 6 0.000000 0.000000 0.000000 -0.013916 0.000000 0.057545
#
#
# Mechanical properties :
#
#
# Convention : Reuss Voigt Hill
#
# Bulk Modulus (GPa) = 18.58373 28.85216 23.71795
# Shear Modulus (GPa) = 16.05076 21.49558 18.77317
#
# Velocity S-wave (km/s) = 2.87815 3.33074 3.11268
# Velocity P-wave (km/s) = 4.54269 5.44815 5.01589
#
# Compressibility (1/GPa) = 0.05381050
#
# Stress axis : x y z
#
# Youngs Moduli (GPa) = 25.05869 68.47816 45.19507
#
# Poissons Ratio (x) = -0.10622 0.57767
# Poissons Ratio (y) = -0.03887 0.00823
# Poissons Ratio (z) = 0.32029 0.01247
#
# Static dielectric constant tensor:
#      x y z
#    x 1.661760 0.000000 0.005290 
#    y 0.000000 1.705900 0.000000 
#    z 0.005290 0.000000 1.677790 
# 
# From -- ./inp_files/101362.got.cif
#   From: 2010.05.17/outbox.cif.g08.bks.cpg/sg15_51_cif.got.tgz:101362.got - 2010.06.03 18:47:42.
