data_PCOD9263274
_publ_section_title
;
Structure prediction by ZEFSAII (Michael W. Deem and Ramdas Pophale) SiO2 
 PCOD9263274
Probable space group: C 2/C
;
_chemical_formula_sum "Si O2"
_cell_formula_units_Z 56
_cell_length_a 7.793478
_cell_length_b 22.113419
_cell_length_c 18.282428
_cell_angle_alpha 90.000000
_cell_angle_beta 81.703089
_cell_angle_gamma 90.000000
_cell_volume 3117.824123
_symmetry_space_group_name_H-M "C 2/C"
_symmetry_group_IT_number 15
_symmetry_cell_setting 'monoclinic'
loop_
_space_group_symop_operation_xyz
x,y,z
-x,y,1/2-z
-x,-y,-z
x,-y,1/2+z
1/2+x,1/2+y,z
1/2-x,1/2+y,1/2-z
1/2-x,1/2-y,-z
1/2+x,1/2-y,1/2+z
loop_
_atom_site_type_symbol
_atom_site_label
_atom_site_fract_x
_atom_site_fract_y
_atom_site_fract_z
Si Si1 0.490450 0.267356 0.041791
Si Si2 0.408364 0.796193 0.404777
Si Si3 0.416474 0.821470 0.834206
Si Si4 0.874799 0.427155 0.442636
Si Si5 0.513010 0.678873 0.330583
Si Si6 0.615512 0.062028 0.071979
Si Si7 0.998026 0.110125 0.023736
O O1 0.289205 0.285140 0.059678
O O2 0.532815 0.229676 0.110719
O O3 0.570194 0.332833 0.020479
O O4 0.518995 0.226002 0.968368
O O5 0.425846 0.867611 0.393169
O O6 0.440166 0.747007 0.340043
O O7 0.500000 0.813841 0.750000
O O8 0.213040 0.816725 0.836489
O O9 0.448414 0.887631 0.866760
O O10 0.903557 0.492124 0.404033
O O11 0.670795 0.419844 0.478669
O O12 0.998907 0.427741 0.506631
O O13 0.500000 0.653328 0.250000
O O14 0.439227 0.638800 0.401963
O O15 0.822934 0.071673 0.045850
#
# Coordination Sequence:
#
# PCOD9263274 Si02
#       7
#     8   8   8   8   8   8   8
#     4   9  17  31  52  78  99 134 163 214 269 295
#     4   9  17  31  53  74 104 130 172 212 253 315
#     4  11  22  33  52  75 111 135 171 223 259 324
#     4  10  19  34  55  76 106 136 173 223 252 305
#     4  10  21  32  51  81 103 141 169 211 281 313
#     4  10  21  33  52  81 102 138 181 207 264 306
#     4   9  20  34  56  79 108 134 174 227 254 318
#
# _framework density 17.961244000000001
#
# number of rings (size 3 to 8) (size 9 to 14) (size 15 to 20)
#    0.000    2.286    1.429    2.143    4.000    1.714 
#    0.000    0.714    0.000    0.000    0.000    1.000 
#    0.000    0.000    0.000    0.000    0.000    0.000 
#
# Total GULP energy -155914.788361 kJ/mol
# GULP energy per Si atom -5568.385299 kJ/mol
# Density = 1.792036 g / cm^3
# Si number density = 17.961244 Si / 1000 Ang^3
#
#
#
# Elastic Constant Matrix: (Units=GPa)
#
#
# Indices 1 2 3 4 5 6 
#
# 1 28.1726 -0.8171 -8.3512 0.0000 7.9854 0.0000
# 2 -0.8171 93.0488 9.1578 0.0000 7.1917 0.0000
# 3 -8.3512 9.1578 54.6262 0.0000 0.1730 0.0000
# 4 0.0000 0.0000 0.0000 25.2123 0.0000 6.4810
# 5 7.9854 7.1917 0.1730 0.0000 19.8785 0.0000
# 6 0.0000 0.0000 0.0000 6.4810 0.0000 28.7458
#
#
#
# Elastic Compliance Matrix: (Units=1/GPa)
#
#
# Indices 1 2 3 4 5 6 
#
# 1 0.042360 0.001097 0.006347 0.000000 -0.017469 0.000000
# 2 0.001097 0.011273 -0.001708 0.000000 -0.004504 0.000000
# 3 0.006347 -0.001708 0.019570 0.000000 -0.002102 0.000000
# 4 0.000000 0.000000 0.000000 0.042103 0.000000 -0.009493
# 5 -0.017469 -0.004504 -0.002102 0.000000 0.058971 0.000000
# 6 0.000000 0.000000 0.000000 -0.009493 0.000000 0.036928
#
#
# Mechanical properties :
#
#
# Convention : Reuss Voigt Hill
#
# Bulk Modulus (GPa) = 11.80961 19.53629 15.67295
# Shear Modulus (GPa) = 21.93401 26.49119 24.21260
#
# Velocity S-wave (km/s) = 3.49834 3.84462 3.67556
# Velocity P-wave (km/s) = 4.78614 5.53251 5.17280
#
# Compressibility (1/GPa) = 0.08467682
#
# Stress axis : x y z
#
# Youngs Moduli (GPa) = 23.60698 88.70832 51.09977
#
# Poissons Ratio (x) = -0.09735 -0.32435
# Poissons Ratio (y) = -0.02591 0.08727
# Poissons Ratio (z) = -0.14984 0.15150
#
# Static dielectric constant tensor:
#      x y z
#    x 1.666440 0.000000 -0.079700 
#    y 0.000000 1.653660 0.000000 
#    z -0.079700 0.000000 1.817120 
# 
# From -- ./inp_files/136435.got.cif
#   From: 2010.05.17/outbox.cif.g08.bks.cpg/sg15_69_cif.got.tgz:136435.got - 2010.06.03 18:47:42.
