data_PCOD9263432
_publ_section_title
;
Structure prediction by ZEFSAII (Michael W. Deem and Ramdas Pophale) SiO2 
 PCOD9263432
Probable space group: C 2/C
;
_chemical_formula_sum "Si O2"
_cell_formula_units_Z 48
_cell_length_a 14.595975
_cell_length_b 12.976666
_cell_length_c 13.184454
_cell_angle_alpha 90.000000
_cell_angle_beta 98.893641
_cell_angle_gamma 90.000000
_cell_volume 2467.204989
_symmetry_space_group_name_H-M "C 2/C"
_symmetry_group_IT_number 15
_symmetry_cell_setting 'monoclinic'
loop_
_space_group_symop_operation_xyz
x,y,z
-x,y,1/2-z
-x,-y,-z
x,-y,1/2+z
1/2+x,1/2+y,z
1/2-x,1/2+y,1/2-z
1/2-x,1/2-y,-z
1/2+x,1/2-y,1/2+z
loop_
_atom_site_type_symbol
_atom_site_label
_atom_site_fract_x
_atom_site_fract_y
_atom_site_fract_z
Si Si1 0.136917 0.854601 0.716713
Si Si2 0.704694 0.503273 0.059953
Si Si3 0.838927 0.375694 0.207456
Si Si4 0.643297 0.964799 0.078571
Si Si5 0.542503 0.150661 0.962315
Si Si6 0.934195 0.881569 0.580838
O O1 0.161032 0.735328 0.738786
O O2 0.132004 0.893590 0.831656
O O3 0.035761 0.873745 0.648708
O O4 0.200858 0.912871 0.648149
O O5 0.754498 0.403148 0.117973
O O6 0.768446 0.544285 0.979393
O O7 0.604301 0.468066 0.001377
O O8 0.837870 0.454679 0.299678
O O9 0.927594 0.379703 0.147797
O O10 0.564932 0.878129 0.040873
O O11 0.598362 0.075146 0.045191
O O12 0.571348 0.269627 0.973957
#
# Coordination Sequence:
#
# PCOD9263432 Si02
#       6
#     8   8   8   8   8   8
#     4  10  21  38  60  79 111 157 193 228 287 354
#     4  11  23  34  57  91 115 143 192 250 287 325
#     4  10  20  36  58  83 115 152 191 234 286 345
#     4  10  19  34  56  88 113 143 186 242 288 332
#     4   9  19  35  60  82 110 152 195 227 283 351
#     4  10  20  39  60  80 110 157 197 227 279 359
#
# _framework density 19.455214000000002
#
# number of rings (size 3 to 8) (size 9 to 14) (size 15 to 20)
#    0.000    2.000    1.667    2.000    0.000    8.000 
#    0.000    0.000    0.000    0.000    0.000    0.000 
#    0.000    0.000    0.000    0.000    0.000    0.000 
#
# Total GULP energy -133696.315903 kJ/mol
# GULP energy per Si atom -5570.679829 kJ/mol
# Density = 1.941093 g / cm^3
# Si number density = 19.455214 Si / 1000 Ang^3
#
#
#
# Elastic Constant Matrix: (Units=GPa)
#
#
# Indices 1 2 3 4 5 6 
#
# 1 78.7889 27.8368 23.8878 0.0000 -9.1934 0.0000
# 2 27.8368 69.1843 60.8800 0.0000 -10.7720 0.0000
# 3 23.8878 60.8800 74.4703 0.0000 -0.0629 0.0000
# 4 0.0000 0.0000 0.0000 32.9870 0.0000 -3.2766
# 5 -9.1934 -10.7720 -0.0629 0.0000 23.9698 0.0000
# 6 0.0000 0.0000 0.0000 -3.2766 0.0000 15.1988
#
#
#
# Elastic Compliance Matrix: (Units=1/GPa)
#
#
# Indices 1 2 3 4 5 6 
#
# 1 0.015059 -0.004332 -0.001286 0.000000 0.003826 0.000000
# 2 -0.004332 0.069647 -0.055523 0.000000 0.029492 0.000000
# 3 -0.001286 -0.055523 0.059209 0.000000 -0.025290 0.000000
# 4 0.000000 0.000000 0.000000 0.030978 0.000000 0.006678
# 5 0.003826 0.029492 -0.025290 0.000000 0.056374 0.000000
# 6 0.000000 0.000000 0.000000 0.006678 0.000000 0.067234
#
#
# Mechanical properties :
#
#
# Convention : Reuss Voigt Hill
#
# Bulk Modulus (GPa) = 46.22196 49.73920 47.98058
# Shear Modulus (GPa) = 11.68240 21.75371 16.71805
#
# Velocity S-wave (km/s) = 2.45312 3.34749 2.93458
# Velocity P-wave (km/s) = 5.64211 6.36886 6.01647
#
# Compressibility (1/GPa) = 0.02163474
#
# Stress axis : x y z
#
# Youngs Moduli (GPa) = 66.40606 14.35809 16.88923
#
# Poissons Ratio (x) = 0.06220 0.02172
# Poissons Ratio (y) = 0.28766 0.93773
# Poissons Ratio (z) = 0.08539 0.79720
#
# Static dielectric constant tensor:
#      x y z
#    x 1.747570 0.000000 0.024220 
#    y 0.000000 1.679940 0.000000 
#    z 0.024220 0.000000 1.676750 
# 
# From -- ./inp_files/96370.got.cif
#   From: 2010.05.17/outbox.cif.g08.bks.cpg/sg15_49_cif.got.tgz:96370.got - 2010.06.03 18:47:42.
