data_PCOD9263317
_publ_section_title
;
Structure prediction by ZEFSAII (Michael W. Deem and Ramdas Pophale) SiO2 
 PCOD9263317
Probable space group: C 2/C
;
_chemical_formula_sum "Si O2"
_cell_formula_units_Z 56
_cell_length_a 12.303996
_cell_length_b 12.894051
_cell_length_c 20.343509
_cell_angle_alpha 90.000000
_cell_angle_beta 65.335748
_cell_angle_gamma 90.000000
_cell_volume 2933.018476
_symmetry_space_group_name_H-M "C 2/C"
_symmetry_group_IT_number 15
_symmetry_cell_setting 'monoclinic'
loop_
_space_group_symop_operation_xyz
x,y,z
-x,y,1/2-z
-x,-y,-z
x,-y,1/2+z
1/2+x,1/2+y,z
1/2-x,1/2+y,1/2-z
1/2-x,1/2-y,-z
1/2+x,1/2-y,1/2+z
loop_
_atom_site_type_symbol
_atom_site_label
_atom_site_fract_x
_atom_site_fract_y
_atom_site_fract_z
Si Si1 0.328950 0.359036 0.771207
Si Si2 0.191005 0.646361 0.542483
Si Si3 0.040635 0.941495 0.312126
Si Si4 0.787308 0.633568 0.808285
Si Si5 0.208964 0.000888 0.592771
Si Si6 0.955449 0.551805 0.578297
Si Si7 0.585950 0.067819 0.282096
O O1 0.413566 0.439092 0.710932
O O2 0.355101 0.238375 0.769776
O O3 0.313810 0.410108 0.847347
O O4 0.199269 0.363771 0.770766
O O5 0.250000 0.750000 0.500000
O O6 0.220427 0.633338 0.611246
O O7 0.242466 0.551832 0.485496
O O8 0.046758 0.644497 0.570045
O O9 0.000000 0.904528 0.250000
O O10 0.918076 0.943370 0.384238
O O11 0.153595 0.880330 0.312374
O O12 0.862316 0.536344 0.764110
O O13 0.314011 0.068999 0.601088
O O14 0.969488 0.471161 0.635156
O O15 0.000000 0.500000 0.500000
O O16 0.500000 0.116932 0.250000
#
# Coordination Sequence:
#
# PCOD9263317 Si02
#       7
#     8   8   8   8   8   8   8
#     4   9  19  34  54  80 108 144 184 229 284 334
#     4  11  20  32  55  88 111 140 191 239 285 336
#     4   9  20  37  56  76 111 151 187 226 290 345
#     4  11  21  34  56  87 111 143 189 240 282 336
#     4   9  18  36  55  75 110 154 182 221 284 344
#     4   9  19  35  56  80 110 151 183 227 284 340
#     4  10  19  34  55  83 109 143 189 234 279 333
#
# _framework density 19.092957999999999
#
# number of rings (size 3 to 8) (size 9 to 14) (size 15 to 20)
#    0.000    2.286    2.857    0.857    0.000    4.000 
#    0.000    0.000    0.000    0.857    0.000    0.000 
#    0.000    0.000    0.000    0.000    0.000    0.000 
#
# Total GULP energy -156060.192790 kJ/mol
# GULP energy per Si atom -5573.578314 kJ/mol
# Density = 1.904950 g / cm^3
# Si number density = 19.092958 Si / 1000 Ang^3
#
#
#
# Elastic Constant Matrix: (Units=GPa)
#
#
# Indices 1 2 3 4 5 6 
#
# 1 132.8686 22.9525 30.3596 0.0000 5.3711 0.0000
# 2 22.9525 51.6152 8.8641 0.0000 -0.6818 0.0000
# 3 30.3596 8.8641 88.8284 0.0000 12.2278 0.0000
# 4 0.0000 0.0000 0.0000 11.0907 0.0000 -3.7136
# 5 5.3711 -0.6818 12.2278 0.0000 34.0037 0.0000
# 6 0.0000 0.0000 0.0000 -3.7136 0.0000 -0.0244
#
#
#
# Elastic Compliance Matrix: (Units=1/GPa)
#
#
# Indices 1 2 3 4 5 6 
#
# 1 0.008730 -0.003448 -0.002567 0.000000 -0.000525 0.000000
# 2 -0.003448 0.021117 -0.001117 0.000000 0.001370 0.000000
# 3 -0.002567 -0.001117 0.012829 0.000000 -0.004230 0.000000
# 4 0.000000 0.000000 0.000000 0.001732 0.000000 -0.264110
# 5 -0.000525 0.001370 -0.004230 0.000000 0.031040 0.000000
# 6 0.000000 0.000000 0.000000 -0.264110 0.000000 -0.788774
#
#
# Mechanical properties :
#
#
# Convention : Reuss Voigt Hill
#
# Bulk Modulus (GPa) = 35.19812 44.18497 39.69154
# Shear Modulus (GPa) = -7.25069 23.08973 7.91952
#
# Velocity S-wave (km/s) = -1.95085 3.48132 2.03884
# Velocity P-wave (km/s) = 3.66070 6.27309 5.13578
#
# Compressibility (1/GPa) = 0.02841061
#
# Stress axis : x y z
#
# Youngs Moduli (GPa) = 114.55163 47.35426 77.94880
#
# Poissons Ratio (x) = 0.16328 0.20012
# Poissons Ratio (y) = 0.39497 0.08710
# Poissons Ratio (z) = 0.29409 0.05291
#
# Static dielectric constant tensor:
#      x y z
#    x 1.723550 0.000000 -0.011740 
#    y 0.000000 1.647950 0.000000 
#    z -0.011740 0.000000 1.675200 
# 
# From -- ./inp_files/237533.got.cif
#   From: 2010.05.17/outbox.cif.g08.bks.cpg/sg15_119_cif.got.tgz:237533.got - 2010.06.03 18:47:42.
