data_PCOD9263687
_publ_section_title
;
Structure prediction by ZEFSAII (Michael W. Deem and Ramdas Pophale) SiO2 
 PCOD9263687
Probable space group: C 2/C
;
_chemical_formula_sum "Si O2"
_cell_formula_units_Z 56
_cell_length_a 13.166090
_cell_length_b 19.918009
_cell_length_c 16.652829
_cell_angle_alpha 90.000000
_cell_angle_beta 145.706887
_cell_angle_gamma 90.000000
_cell_volume 2460.527518
_symmetry_space_group_name_H-M "C 2/C"
_symmetry_group_IT_number 15
_symmetry_cell_setting 'monoclinic'
loop_
_space_group_symop_operation_xyz
x,y,z
-x,y,1/2-z
-x,-y,-z
x,-y,1/2+z
1/2+x,1/2+y,z
1/2-x,1/2+y,1/2-z
1/2-x,1/2-y,-z
1/2+x,1/2-y,1/2+z
loop_
_atom_site_type_symbol
_atom_site_label
_atom_site_fract_x
_atom_site_fract_y
_atom_site_fract_z
Si Si1 0.711483 0.509023 0.778822
Si Si2 0.509324 0.375953 0.422411
Si Si3 0.659412 0.825785 0.503729
Si Si4 0.194793 0.688771 0.285351
Si Si5 0.000000 0.197408 0.750000
Si Si6 0.299612 0.779656 0.210515
Si Si7 0.500000 0.593262 0.250000
Si Si8 0.492119 0.904805 0.547971
O O1 0.574711 0.550549 0.635584
O O2 0.599774 0.453610 0.752440
O O3 0.878013 0.468500 0.848771
O O4 0.801578 0.563280 0.899168
O O5 0.683798 0.364841 0.589986
O O6 0.548753 0.347555 0.358701
O O7 0.351981 0.329875 0.356696
O O8 0.493902 0.813849 0.336470
O O9 0.728282 0.755507 0.584421
O O10 0.844074 0.863985 0.604424
O O11 0.566053 0.867942 0.515915
O O12 0.150792 0.750752 0.315253
O O13 0.300718 0.720508 0.278899
O O14 0.019398 0.650845 0.134772
#
# Coordination Sequence:
#
# PCOD9263687 Si02
#       8
#     8   8   8   8   4   8   4   8
#     4  10  20  37  58  82 107 150 195 227 270 338
#     4  11  20  34  58  85 110 151 184 236 280 345
#     4  10  19  37  58  85 113 143 186 237 281 337
#     4  10  21  35  54  86 117 147 184 234 288 338
#     4  10  23  32  52  86 125 146 176 230 298 346
#     4  10  19  34  59  85 113 145 188 230 287 339
#     4  10  23  36  58  82 111 150 192 228 276 332
#     4   9  20  37  59  78 110 152 190 227 273 335
#
# _framework density 22.759347000000002
#
# number of rings (size 3 to 8) (size 9 to 14) (size 15 to 20)
#    0.000    2.000    2.857    0.857    0.000    3.429 
#    0.000    0.000    0.000    1.714    0.000    0.000 
#    0.000    0.000    0.000    0.000    0.000    0.000 
#
# Total GULP energy -156532.064074 kJ/mol
# GULP energy per Si atom -5590.430860 kJ/mol
# Density = 2.270755 g / cm^3
# Si number density = 22.759347 Si / 1000 Ang^3
#
#
#
# Elastic Constant Matrix: (Units=GPa)
#
#
# Indices 1 2 3 4 5 6 
#
# 1 54.1845 13.3714 25.7249 0.0008 6.9995 0.0000
# 2 13.3714 72.1942 21.5522 0.0012 0.9079 0.0001
# 3 25.7249 21.5522 104.1594 0.0020 11.2539 0.0003
# 4 0.0008 0.0012 0.0020 29.2037 0.0010 11.7255
# 5 6.9995 0.9079 11.2539 0.0010 26.1845 0.0000
# 6 0.0000 0.0001 0.0003 11.7255 0.0000 22.6162
#
#
#
# Elastic Compliance Matrix: (Units=1/GPa)
#
#
# Indices 1 2 3 4 5 6 
#
# 1 0.021691 -0.002657 -0.004395 0.000000 -0.003817 0.000000
# 2 -0.002657 0.015107 -0.002611 0.000000 0.001309 0.000000
# 3 -0.004395 -0.002611 0.011630 0.000000 -0.003733 0.000000
# 4 0.000000 0.000000 0.000000 0.043244 -0.000001 -0.022420
# 5 -0.003817 0.001309 -0.003733 -0.000001 0.040770 0.000001
# 6 0.000000 0.000000 0.000000 -0.022420 0.000001 0.055840
#
#
# Mechanical properties :
#
#
# Convention : Reuss Voigt Hill
#
# Bulk Modulus (GPa) = 34.36319 39.09276 36.72798
# Shear Modulus (GPa) = 23.00883 26.92687 24.96785
#
# Velocity S-wave (km/s) = 3.18301 3.44337 3.31575
# Velocity P-wave (km/s) = 5.35164 5.74656 5.55261
#
# Compressibility (1/GPa) = 0.02910090
#
# Stress axis : x y z
#
# Youngs Moduli (GPa) = 46.10238 66.19578 85.98718
#
# Poissons Ratio (x) = 0.17591 0.37790
# Poissons Ratio (y) = 0.12252 0.22450
# Poissons Ratio (z) = 0.20261 0.17283
#
# Static dielectric constant tensor:
#      x y z
#    x 1.927340 0.000000 0.014370 
#    y 0.000000 1.842800 0.000000 
#    z 0.014370 0.000000 1.851590 
# 
# From -- ./inp_files/50368.got.cif
#   From: 2010.05.17/outbox.cif.g08.bks.cpg/sg15_26_cif.got.tgz:50368.got - 2010.06.03 18:47:42.
