data_PCOD9263346
_publ_section_title
;
Structure prediction by ZEFSAII (Michael W. Deem and Ramdas Pophale) SiO2 
 PCOD9263346
Probable space group: C 2/C
;
_chemical_formula_sum "Si O2"
_cell_formula_units_Z 52
_cell_length_a 21.783622
_cell_length_b 10.263042
_cell_length_c 26.058206
_cell_angle_alpha 90.000000
_cell_angle_beta 148.921213
_cell_angle_gamma 90.000000
_cell_volume 3007.339106
_symmetry_space_group_name_H-M "C 2/C"
_symmetry_group_IT_number 15
_symmetry_cell_setting 'monoclinic'
loop_
_space_group_symop_operation_xyz
x,y,z
-x,y,1/2-z
-x,-y,-z
x,-y,1/2+z
1/2+x,1/2+y,z
1/2-x,1/2+y,1/2-z
1/2-x,1/2-y,-z
1/2+x,1/2-y,1/2+z
loop_
_atom_site_type_symbol
_atom_site_label
_atom_site_fract_x
_atom_site_fract_y
_atom_site_fract_z
Si Si1 0.815445 0.985343 0.896544
Si Si2 0.995060 0.370609 0.631098
Si Si3 0.326417 0.627698 0.749960
Si Si4 0.000000 0.682047 0.250000
Si Si5 0.248783 0.724414 0.589433
Si Si6 0.873382 0.384066 0.305635
Si Si7 0.049626 0.895487 0.609450
O O1 0.780197 0.868985 0.909397
O O2 0.867174 0.915583 0.881816
O O3 0.708284 0.077904 0.801735
O O4 0.919039 0.071203 0.995505
O O5 0.006751 0.393131 0.700779
O O6 0.862513 0.324145 0.522869
O O7 0.090432 0.256440 0.686008
O O8 0.033092 0.497729 0.626553
O O9 0.267727 0.633065 0.652341
O O10 0.220998 0.620319 0.715551
O O11 0.409322 0.505135 0.821117
O O12 0.120752 0.765893 0.341997
O O13 0.935539 0.244666 0.354247
#
# Coordination Sequence:
#
# PCOD9263346 Si02
#       7
#     8   8   8   4   8   8   8
#     4  10  19  35  55  81 124 156 185 233 306 350
#     4  11  22  37  62  87 119 152 207 242 289 350
#     4  10  19  34  55  87 122 154 187 238 293 356
#     4  10  22  40  60  86 108 158 206 260 286 332
#     4  11  20  38  60  89 109 156 202 255 289 338
#     4  11  20  34  55  89 121 155 188 235 294 366
#     4  10  20  33  55  85 124 157 183 228 302 366
#
# _framework density 17.291034
#
# number of rings (size 3 to 8) (size 9 to 14) (size 15 to 20)
#    0.000    1.538    6.154    1.385    0.000    1.846 
#    0.000    0.000    0.000    4.615    0.000    0.000 
#    0.000    0.000    0.000    0.000    0.000    0.000 
#
# Total GULP energy -144895.930935 kJ/mol
# GULP energy per Si atom -5572.920421 kJ/mol
# Density = 1.725168 g / cm^3
# Si number density = 17.291034 Si / 1000 Ang^3
#
#
#
# Elastic Constant Matrix: (Units=GPa)
#
#
# Indices 1 2 3 4 5 6 
#
# 1 66.3363 37.6344 29.8252 0.0000 6.8309 0.0000
# 2 37.6344 116.3968 50.7839 0.0000 -1.8985 0.0000
# 3 29.8252 50.7839 128.0487 0.0001 7.9416 0.0001
# 4 0.0000 0.0000 0.0001 30.2350 0.0000 1.8350
# 5 6.8309 -1.8985 7.9416 0.0000 26.5555 0.0000
# 6 0.0000 0.0000 0.0001 1.8350 0.0000 -6.2745
#
#
#
# Elastic Compliance Matrix: (Units=1/GPa)
#
#
# Indices 1 2 3 4 5 6 
#
# 1 0.019640 -0.005518 -0.002087 0.000000 -0.004822 0.000000
# 2 -0.005518 0.012046 -0.003702 0.000000 0.003388 0.000000
# 3 -0.002087 -0.003702 0.009931 0.000000 -0.002698 0.000000
# 4 0.000000 0.000000 0.000000 0.032497 0.000000 0.009504
# 5 -0.004822 0.003388 -0.002698 0.000000 0.039946 0.000000
# 6 0.000000 0.000000 0.000000 0.009504 0.000000 -0.156596
#
#
# Mechanical properties :
#
#
# Convention : Reuss Voigt Hill
#
# Bulk Modulus (GPa) = 52.62469 60.80766 56.71618
# Shear Modulus (GPa) = -368.06348 22.93908 -172.56220
#
# Velocity S-wave (km/s) = -14.60568 3.64627 -10.00077
# Velocity P-wave (km/s) = 15.93530 7.27808 10.02405
#
# Compressibility (1/GPa) = 0.01900249
#
# Stress axis : x y z
#
# Youngs Moduli (GPa) = 50.91564 83.01446 100.69231
#
# Poissons Ratio (x) = 0.45811 0.21014
# Poissons Ratio (y) = 0.28097 0.37279
# Poissons Ratio (z) = 0.10626 0.30734
#
# Static dielectric constant tensor:
#      x y z
#    x 1.623920 0.000000 0.010250 
#    y 0.000000 1.570890 0.000000 
#    z 0.010250 0.000000 1.609660 
# 
# From -- ./inp_files/171385.got.cif
#   From: 2010.05.17/outbox.cif.g08.bks.cpg/sg15_86_cif.got.tgz:171385.got - 2010.06.03 18:47:42.
