data_PCOD9263091
_publ_section_title
;
Structure prediction by ZEFSAII (Michael W. Deem and Ramdas Pophale) SiO2 
 PCOD9263091
Probable space group: C 2/C
;
_chemical_formula_sum "Si O2"
_cell_formula_units_Z 60
_cell_length_a 29.756398
_cell_length_b 14.305421
_cell_length_c 8.657339
_cell_angle_alpha 90.000000
_cell_angle_beta 114.448678
_cell_angle_gamma 90.000000
_cell_volume 3354.790528
_symmetry_space_group_name_H-M "C 2/C"
_symmetry_group_IT_number 15
_symmetry_cell_setting 'monoclinic'
loop_
_space_group_symop_operation_xyz
x,y,z
-x,y,1/2-z
-x,-y,-z
x,-y,1/2+z
1/2+x,1/2+y,z
1/2-x,1/2+y,1/2-z
1/2-x,1/2-y,-z
1/2+x,1/2-y,1/2+z
loop_
_atom_site_type_symbol
_atom_site_label
_atom_site_fract_x
_atom_site_fract_y
_atom_site_fract_z
Si Si1 0.214582 0.120541 0.400362
Si Si2 0.174449 0.690798 0.919790
Si Si3 0.304009 0.423511 0.264876
Si Si4 0.655447 0.026413 0.680350
Si Si5 0.364441 0.746033 0.806248
Si Si6 0.561909 0.100573 0.109048
Si Si7 0.796106 0.610819 0.047688
Si Si8 0.500000 0.979711 0.250000
O O1 0.185762 0.217544 0.334014
O O2 0.272133 0.146751 0.460198
O O3 0.206303 0.095740 0.569413
O O4 0.196372 0.033139 0.275082
O O5 0.146478 0.721730 0.033260
O O6 0.147155 0.612928 0.782424
O O7 0.352555 0.364199 0.286320
O O8 0.257551 0.382545 0.102117
O O9 0.669218 0.065716 0.534423
O O10 0.609161 0.959029 0.621057
O O11 0.700886 0.964228 0.809547
O O12 0.416306 0.795108 0.835885
O O13 0.322187 0.796041 0.643305
O O14 0.539924 0.049081 0.227939
O O15 0.522373 0.085019 0.916715
#
# Coordination Sequence:
#
# PCOD9263091 Si02
#       8
#     8   8   8   8   8   8   8   4
#     4  10  22  31  46  65 100 141 187 207 246 261
#     4  10  19  34  45  68  98 141 176 219 229 292
#     4  11  20  34  45  68  99 143 180 216 235 285
#     4  11  19  31  50  71 106 134 179 203 250 290
#     4  10  22  32  50  71 103 128 179 210 253 293
#     4  10  20  34  52  80  99 133 155 214 258 324
#     4  11  19  29  44  71  96 143 173 211 232 288
#     4  10  20  36  56  72 106 124 162 200 284 330
#
# _framework density 17.884871
#
# number of rings (size 3 to 8) (size 9 to 14) (size 15 to 20)
#    0.000    1.600    2.667    4.400    1.867    1.067 
#    0.000    0.000    0.000    0.000    0.000    0.000 
#    0.000   36.267    0.000    0.000    0.000    0.000 
#
# Total GULP energy -167458.831867 kJ/mol
# GULP energy per Si atom -5581.961062 kJ/mol
# Density = 1.784416 g / cm^3
# Si number density = 17.884871 Si / 1000 Ang^3
#
#
#
# Elastic Constant Matrix: (Units=GPa)
#
#
# Indices 1 2 3 4 5 6 
#
# 1 41.2608 14.8539 -9.1417 0.0000 1.7162 0.0000
# 2 14.8539 93.1786 5.9465 0.0000 2.5586 0.0000
# 3 -9.1417 5.9465 31.6524 0.0000 -2.4845 0.0000
# 4 0.0000 0.0000 0.0000 20.7825 0.0000 -0.9468
# 5 1.7162 2.5586 -2.4845 0.0000 17.9674 0.0000
# 6 0.0000 0.0000 0.0000 -0.9468 0.0000 26.9694
#
#
#
# Elastic Compliance Matrix: (Units=1/GPa)
#
#
# Indices 1 2 3 4 5 6 
#
# 1 0.028069 -0.005029 0.008995 0.000000 -0.000721 0.000000
# 2 -0.005029 0.011824 -0.003810 0.000000 -0.001730 0.000000
# 3 0.008995 -0.003810 0.035265 0.000000 0.004560 0.000000
# 4 0.000000 0.000000 0.000000 0.048194 0.000000 0.001692
# 5 -0.000721 -0.001730 0.004560 0.000000 0.056602 0.000000
# 6 0.000000 0.000000 0.000000 0.001692 0.000000 0.037138
#
#
# Mechanical properties :
#
#
# Convention : Reuss Voigt Hill
#
# Bulk Modulus (GPa) = 13.25003 21.04545 17.14774
# Shear Modulus (GPa) = 20.66648 23.43941 22.05295
#
# Velocity S-wave (km/s) = 3.40299 3.62411 3.51529
# Velocity P-wave (km/s) = 4.78175 5.41340 5.10735
#
# Compressibility (1/GPa) = 0.07547150
#
# Stress axis : x y z
#
# Youngs Moduli (GPa) = 35.62599 84.57104 28.35700
#
# Poissons Ratio (x) = 0.42530 -0.25507
# Poissons Ratio (y) = 0.17916 0.10803
# Poissons Ratio (z) = -0.32046 0.32219
#
# Static dielectric constant tensor:
#      x y z
#    x 1.618450 0.000000 -0.004200 
#    y 0.000000 1.652770 0.000000 
#    z -0.004200 0.000000 1.652180 
# 
# From -- ./inp_files/69768.got.cif
#   From: 2010.05.17/outbox.cif.g08.bks.cpg/sg15_35_cif.got.tgz:69768.got - 2010.06.03 18:47:42.
