data_PCOD9263576
_publ_section_title
;
Structure prediction by ZEFSAII (Michael W. Deem and Ramdas Pophale) SiO2 
 PCOD9263576
Probable space group: C 2/C
;
_chemical_formula_sum "Si O2"
_cell_formula_units_Z 40
_cell_length_a 13.422201
_cell_length_b 8.793359
_cell_length_c 19.111650
_cell_angle_alpha 90.000000
_cell_angle_beta 129.453413
_cell_angle_gamma 90.000000
_cell_volume 1741.701126
_symmetry_space_group_name_H-M "C 2/C"
_symmetry_group_IT_number 15
_symmetry_cell_setting 'monoclinic'
loop_
_space_group_symop_operation_xyz
x,y,z
-x,y,1/2-z
-x,-y,-z
x,-y,1/2+z
1/2+x,1/2+y,z
1/2-x,1/2+y,1/2-z
1/2-x,1/2-y,-z
1/2+x,1/2-y,1/2+z
loop_
_atom_site_type_symbol
_atom_site_label
_atom_site_fract_x
_atom_site_fract_y
_atom_site_fract_z
Si Si1 0.632028 0.933802 0.021605
Si Si2 0.020505 0.558851 0.842444
Si Si3 0.202001 0.389202 0.675113
Si Si4 0.489410 0.397206 0.827181
Si Si5 0.490624 0.366665 0.051813
O O1 0.626656 0.971551 0.936878
O O2 0.617484 0.753762 0.019771
O O3 0.730205 0.021136 0.114897
O O4 0.500000 0.000000 0.000000
O O5 0.888576 0.494675 0.817210
O O6 0.050672 0.734743 0.872541
O O7 0.000000 0.541907 0.750000
O O8 0.337055 0.367637 0.773461
O O9 0.120607 0.235734 0.621530
O O10 0.500000 0.417992 0.750000
O O11 0.536467 0.543930 0.889114
O O12 0.500000 0.500000 0.000000
#
# Coordination Sequence:
#
# PCOD9263576 Si02
#       5
#     8   8   8   8   8
#     4   8  17  34  56  77 107 145 178 217 271 328
#     4   9  18  35  56  80 109 142 179 220 273 332
#     4  10  20  37  58  79 110 150 180 219 277 329
#     4  11  22  36  54  83 113 143 185 229 266 319
#     4  10  19  34  58  83 109 140 181 231 273 322
#
# _framework density 22.966052000000001
#
# number of rings (size 3 to 8) (size 9 to 14) (size 15 to 20)
#    0.000    2.800    0.000    4.800    0.000    3.200 
#    0.000   12.000    0.000    0.000    0.000    1.400 
#    0.000    0.000    0.000    0.000    0.000    0.000 
#
# Total GULP energy -111529.033813 kJ/mol
# GULP energy per Si atom -5576.451691 kJ/mol
# Density = 2.291378 g / cm^3
# Si number density = 22.966052 Si / 1000 Ang^3
#
#
#
# Elastic Constant Matrix: (Units=GPa)
#
#
# Indices 1 2 3 4 5 6 
#
# 1 43.6712 25.8155 15.1962 0.0000 -11.2996 0.0000
# 2 25.8155 171.9890 47.8710 0.0000 -38.1011 0.0000
# 3 15.1962 47.8710 55.3291 0.0000 -18.0318 0.0000
# 4 0.0000 0.0000 0.0000 38.3906 0.0000 -19.1100
# 5 -11.2996 -38.1011 -18.0318 0.0000 27.9187 0.0000
# 6 0.0000 0.0000 0.0000 -19.1100 0.0000 17.1457
#
#
#
# Elastic Compliance Matrix: (Units=1/GPa)
#
#
# Indices 1 2 3 4 5 6 
#
# 1 0.026800 -0.001541 -0.004025 0.000000 0.006144 0.000000
# 2 -0.001541 0.009382 -0.004718 0.000000 0.009133 0.000000
# 3 -0.004025 -0.004718 0.026132 0.000000 0.008811 0.000000
# 4 0.000000 0.000000 0.000000 0.058510 0.000000 0.065213
# 5 0.006144 0.009133 0.008811 0.000000 0.056459 0.000000
# 6 0.000000 0.000000 0.000000 0.065213 0.000000 0.131008
#
#
# Mechanical properties :
#
#
# Convention : Reuss Voigt Hill
#
# Bulk Modulus (GPa) = 23.95403 49.86163 36.90783
# Shear Modulus (GPa) = 14.58687 28.83144 21.70916
#
# Velocity S-wave (km/s) = 2.52295 3.54700 3.07786
# Velocity P-wave (km/s) = 4.35200 6.20750 5.36064
#
# Compressibility (1/GPa) = 0.04174662
#
# Stress axis : x y z
#
# Youngs Moduli (GPa) = 37.31390 106.58703 38.26697
#
# Poissons Ratio (x) = 0.16429 0.15401
# Poissons Ratio (y) = 0.05751 0.18053
# Poissons Ratio (z) = 0.15018 0.50283
#
# Static dielectric constant tensor:
#      x y z
#    x 1.948570 0.000000 0.053730 
#    y 0.000000 1.896610 0.000000 
#    z 0.053730 0.000000 1.956380 
# 
# From -- ./inp_files/242108.got.cif
#   From: 2010.05.17/outbox.cif.g08.bks.cpg/sg15_122_cif.got.tgz:242108.got - 2010.06.03 18:47:42.
