data_PCOD9263726
_publ_section_title
;
Structure prediction by ZEFSAII (Michael W. Deem and Ramdas Pophale) SiO2 
 PCOD9263726
Probable space group: C 2/C
;
_chemical_formula_sum "Si O2"
_cell_formula_units_Z 60
_cell_length_a 13.802736
_cell_length_b 10.124751
_cell_length_c 20.986901
_cell_angle_alpha 90.000000
_cell_angle_beta 119.859302
_cell_angle_gamma 90.000000
_cell_volume 2543.562785
_symmetry_space_group_name_H-M "C 2/C"
_symmetry_group_IT_number 15
_symmetry_cell_setting 'monoclinic'
loop_
_space_group_symop_operation_xyz
x,y,z
-x,y,1/2-z
-x,-y,-z
x,-y,1/2+z
1/2+x,1/2+y,z
1/2-x,1/2+y,1/2-z
1/2-x,1/2-y,-z
1/2+x,1/2-y,1/2+z
loop_
_atom_site_type_symbol
_atom_site_label
_atom_site_fract_x
_atom_site_fract_y
_atom_site_fract_z
Si Si1 0.235929 0.412397 0.873480
Si Si2 0.977370 0.847300 0.910390
Si Si3 0.000000 0.399617 0.750000
Si Si4 0.232077 0.439335 0.627860
Si Si5 0.283157 0.404770 0.502159
Si Si6 0.931810 0.588690 0.844382
Si Si7 0.079443 0.948794 0.218827
Si Si8 0.762307 0.176335 0.803774
O O1 0.357609 0.340938 0.907970
O O2 0.121458 0.340420 0.813126
O O3 0.251089 0.531128 0.828273
O O4 0.222125 0.492781 0.934844
O O5 0.010894 0.700326 0.898607
O O6 0.965573 0.941671 0.844513
O O7 0.087807 0.902757 0.980659
O O8 0.026102 0.495420 0.698079
O O9 0.269381 0.465690 0.568601
O O10 0.116373 0.502132 0.613442
O O11 0.314158 0.494124 0.709183
O O12 0.239212 0.283349 0.642367
O O13 0.250000 0.250000 0.500000
O O14 0.836711 0.682758 0.779716
O O15 0.000000 0.915416 0.250000
O O16 0.118650 0.822281 0.191915
#
# Coordination Sequence:
#
# PCOD9263726 Si02
#       8
#     8   8   4   8   8   8   8   8
#     4  10  22  41  63  94 119 165 213 267 315 365
#     4  11  22  38  65  91 130 159 213 264 312 378
#     4  10  22  42  66  86 122 164 220 254 312 382
#     4  11  21  39  59  91 128 160 209 261 309 379
#     4  12  23  38  66  93 126 169 216 259 316 381
#     4  10  22  36  62  91 123 165 203 260 316 364
#     4  10  19  34  59  89 117 164 203 257 312 361
#     4   9  19  35  58  85 124 151 207 259 306 363
#
# _framework density 23.588958999999999
#
# number of rings (size 3 to 8) (size 9 to 14) (size 15 to 20)
#    0.000    1.600    4.000    2.000    2.800    0.000 
#    1.200    3.333    0.000    0.000    0.000    0.000 
#    0.000    0.000    0.000    0.000    0.000    0.000 
#
# Total GULP energy -167323.732311 kJ/mol
# GULP energy per Si atom -5577.457744 kJ/mol
# Density = 2.353527 g / cm^3
# Si number density = 23.588959 Si / 1000 Ang^3
#
#
#
# Elastic Constant Matrix: (Units=GPa)
#
#
# Indices 1 2 3 4 5 6 
#
# 1 106.2700 3.5177 17.3592 0.0000 1.8870 0.0000
# 2 3.5177 32.3284 2.5214 0.0000 2.0638 0.0000
# 3 17.3592 2.5214 55.8928 0.0000 0.6760 0.0000
# 4 0.0000 0.0000 0.0000 12.9475 0.0000 -9.0320
# 5 1.8870 2.0638 0.6760 0.0000 36.4334 0.0000
# 6 0.0000 0.0000 0.0000 -9.0320 0.0000 22.0944
#
#
#
# Elastic Compliance Matrix: (Units=1/GPa)
#
#
# Indices 1 2 3 4 5 6 
#
# 1 0.009942 -0.000818 -0.003046 0.000000 -0.000412 0.000000
# 2 -0.000818 0.031219 -0.001134 0.000000 -0.001705 0.000000
# 3 -0.003046 -0.001134 0.018890 0.000000 -0.000129 0.000000
# 4 0.000000 0.000000 0.000000 0.108047 0.000000 0.044169
# 5 -0.000412 -0.001705 -0.000129 0.000000 0.027568 0.000000
# 6 0.000000 0.000000 0.000000 0.044169 0.000000 0.063316
#
#
# Mechanical properties :
#
#
# Convention : Reuss Voigt Hill
#
# Bulk Modulus (GPa) = 19.97769 26.80977 23.39373
# Shear Modulus (GPa) = 17.50323 25.70125 21.60224
#
# Velocity S-wave (km/s) = 2.72694 3.30441 3.02946
# Velocity P-wave (km/s) = 4.28980 5.09400 4.70910
#
# Compressibility (1/GPa) = 0.05005584
#
# Stress axis : x y z
#
# Youngs Moduli (GPa) = 100.58404 32.03197 52.93778
#
# Poissons Ratio (x) = 0.02620 0.16124
# Poissons Ratio (y) = 0.08227 0.06001
# Poissons Ratio (z) = 0.30637 0.03631
#
# Static dielectric constant tensor:
#      x y z
#    x 2.057900 0.000000 0.055980 
#    y 0.000000 1.911560 0.000000 
#    z 0.055980 0.000000 1.883650 
# 
# From -- ./inp_files/204083.got.cif
#   From: 2010.05.17/outbox.cif.g08.bks.cpg/sg15_103_cif.got.tgz:204083.got - 2010.06.03 18:47:42.
