data_PCOD9263708
_publ_section_title
;
Structure prediction by ZEFSAII (Michael W. Deem and Ramdas Pophale) SiO2 
 PCOD9263708
Probable space group: C 2/C
;
_chemical_formula_sum "Si O2"
_cell_formula_units_Z 56
_cell_length_a 32.419511
_cell_length_b 8.006015
_cell_length_c 14.839564
_cell_angle_alpha 90.000000
_cell_angle_beta 137.927020
_cell_angle_gamma 90.000000
_cell_volume 2580.883950
_symmetry_space_group_name_H-M "C 2/C"
_symmetry_group_IT_number 15
_symmetry_cell_setting 'monoclinic'
loop_
_space_group_symop_operation_xyz
x,y,z
-x,y,1/2-z
-x,-y,-z
x,-y,1/2+z
1/2+x,1/2+y,z
1/2-x,1/2+y,1/2-z
1/2-x,1/2-y,-z
1/2+x,1/2-y,1/2+z
loop_
_atom_site_type_symbol
_atom_site_label
_atom_site_fract_x
_atom_site_fract_y
_atom_site_fract_z
Si Si1 0.182571 0.138258 0.624718
Si Si2 0.939326 0.411196 0.827604
Si Si3 0.567330 0.932290 0.992796
Si Si4 0.383415 0.868373 0.096968
Si Si5 0.256373 0.025685 0.472903
Si Si6 0.818327 0.302461 0.695748
Si Si7 0.811826 0.779078 0.769858
O O1 0.134550 0.183099 0.466720
O O2 0.165370 0.273658 0.674335
O O3 0.252699 0.184095 0.714007
O O4 0.180084 0.952591 0.660667
O O5 0.921940 0.585184 0.748633
O O6 0.877577 0.299559 0.726419
O O7 0.001012 0.340251 0.883320
O O8 0.945065 0.443823 0.943373
O O9 0.582543 0.026772 0.925533
O O10 0.625398 0.821078 0.115798
O O11 0.315375 0.941323 0.006345
O O12 0.224779 0.853838 0.392894
O O13 0.282779 0.973609 0.613434
O O14 0.206994 0.166078 0.363749
#
# Coordination Sequence:
#
# PCOD9263708 Si02
#       7
#     8   8   8   8   8   8   8
#     4  10  19  34  59  87 118 156 188 246 307 350
#     4  10  22  35  60  84 111 159 205 234 294 346
#     4  11  21  38  58  83 118 155 201 244 281 355
#     4  10  19  38  60  84 114 153 197 246 294 352
#     4   8  17  30  54  84 112 141 188 236 296 349
#     4   9  15  32  53  82 112 146 188 232 290 348
#     4  10  20  35  56  89 119 155 195 237 302 353
#
# _framework density 21.697993
#
# number of rings (size 3 to 8) (size 9 to 14) (size 15 to 20)
#    0.000    2.286    1.429    3.000    0.000    0.000 
#    2.571    5.000    0.000    1.714    0.000    0.000 
#    0.000    0.000    0.000    0.000    0.000    0.000 
#
# Total GULP energy -156023.210110 kJ/mol
# GULP energy per Si atom -5572.257504 kJ/mol
# Density = 2.164861 g / cm^3
# Si number density = 21.697993 Si / 1000 Ang^3
#
#
#
# Elastic Constant Matrix: (Units=GPa)
#
#
# Indices 1 2 3 4 5 6 
#
# 1 103.0567 25.5135 20.6632 0.0000 15.6436 0.0000
# 2 25.5135 50.5042 -3.3501 0.0000 11.3429 0.0000
# 3 20.6632 -3.3501 58.1379 0.0000 10.3044 0.0000
# 4 0.0000 0.0000 0.0000 30.9538 0.0000 -3.6254
# 5 15.6436 11.3429 10.3044 0.0000 35.5336 0.0000
# 6 0.0000 0.0000 0.0000 -3.6254 0.0000 18.9856
#
#
#
# Elastic Compliance Matrix: (Units=1/GPa)
#
#
# Indices 1 2 3 4 5 6 
#
# 1 0.012421 -0.006054 -0.004361 0.000000 -0.002271 0.000000
# 2 -0.006054 0.024650 0.004738 0.000000 -0.006577 0.000000
# 3 -0.004361 0.004738 0.019978 0.000000 -0.005386 0.000000
# 4 0.000000 0.000000 0.000000 0.033045 0.000000 0.006310
# 5 -0.002271 -0.006577 -0.005386 0.000000 0.032804 0.000000
# 6 0.000000 0.000000 0.000000 0.006310 0.000000 0.053876
#
#
# Mechanical properties :
#
#
# Convention : Reuss Voigt Hill
#
# Bulk Modulus (GPa) = 21.88411 33.03910 27.46161
# Shear Modulus (GPa) = 24.58677 28.35274 26.46975
#
# Velocity S-wave (km/s) = 3.36986 3.61875 3.49652
# Velocity P-wave (km/s) = 5.02483 5.72017 5.38374
#
# Compressibility (1/GPa) = 0.04569525
#
# Stress axis : x y z
#
# Youngs Moduli (GPa) = 80.50633 40.56754 50.05476
#
# Poissons Ratio (x) = 0.24560 0.21829
# Poissons Ratio (y) = 0.48740 -0.23716
# Poissons Ratio (z) = 0.35109 -0.19221
#
# Static dielectric constant tensor:
#      x y z
#    x 1.809650 0.000000 -0.016300 
#    y 0.000000 1.802810 0.000000 
#    z -0.016300 0.000000 1.988180 
# 
# From -- ./inp_files/180869.got.cif
#   From: 2010.05.17/outbox.cif.g08.bks.cpg/sg15_91_cif.got.tgz:180869.got - 2010.06.03 18:47:42.
