data_PCOD9263981
_publ_section_title
;
Structure prediction by ZEFSAII (Michael W. Deem and Ramdas Pophale) SiO2 
 PCOD9263981
Probable space group: C 2/C
;
_chemical_formula_sum "Si O2"
_cell_formula_units_Z 56
_cell_length_a 7.925986
_cell_length_b 18.481601
_cell_length_c 16.118107
_cell_angle_alpha 90.000000
_cell_angle_beta 118.996772
_cell_angle_gamma 90.000000
_cell_volume 2065.093625
_symmetry_space_group_name_H-M "C 2/C"
_symmetry_group_IT_number 15
_symmetry_cell_setting 'monoclinic'
loop_
_space_group_symop_operation_xyz
x,y,z
-x,y,1/2-z
-x,-y,-z
x,-y,1/2+z
1/2+x,1/2+y,z
1/2-x,1/2+y,1/2-z
1/2-x,1/2-y,-z
1/2+x,1/2-y,1/2+z
loop_
_atom_site_type_symbol
_atom_site_label
_atom_site_fract_x
_atom_site_fract_y
_atom_site_fract_z
Si Si1 0.770790 0.976081 0.684730
Si Si2 0.834387 0.783675 0.936204
Si Si3 0.215320 0.185326 0.335663
Si Si4 0.807530 0.195021 0.744187
Si Si5 0.211241 0.939334 0.630601
Si Si6 0.740055 0.965072 0.512485
Si Si7 0.245577 0.329120 0.409883
O O1 0.725746 0.895666 0.634623
O O2 0.706466 0.969968 0.763357
O O3 0.692097 0.014166 0.583997
O O4 0.000000 0.989655 0.750000
O O5 0.821716 0.719816 0.864061
O O6 0.745629 0.854618 0.870620
O O7 0.030154 0.819799 0.016723
O O8 0.750000 0.750000 0.000000
O O9 0.347210 0.229103 0.302700
O O10 0.185503 0.244440 0.399472
O O11 0.000000 0.176357 0.250000
O O12 0.000000 0.163428 0.750000
O O13 0.724941 0.152369 0.805029
O O14 0.976809 0.952527 0.576686
O O15 0.290258 0.980582 0.570846
O O16 0.667000 0.889341 0.452861
#
# Coordination Sequence:
#
# PCOD9263981 Si02
#       7
#     8   8   8   8   8   8   8
#     4   9  16  30  50  71 105 140 179 223 270 328
#     4  11  18  33  55  78 109 143 184 229 282 333
#     4   9  18  33  52  80 110 146 179 226 282 328
#     4  10  19  35  51  80 111 141 181 230 284 329
#     4   9  17  32  49  72 106 144 182 227 274 335
#     4   9  18  31  47  76 106 142 184 223 282 327
#     4   9  20  32  51  81 110 139 183 233 269 335
#
# _framework density 27.117414
#
# number of rings (size 3 to 8) (size 9 to 14) (size 15 to 20)
#    0.857    1.714    2.857    0.000    2.000    0.571 
#    2.571    0.714    0.000    0.857    0.000    4.000 
#    0.000    0.000    0.000    0.000    0.000    0.000 
#
# Total GULP energy -155954.174545 kJ/mol
# GULP energy per Si atom -5569.791948 kJ/mol
# Density = 2.705569 g / cm^3
# Si number density = 27.117414 Si / 1000 Ang^3
#
#
#
# Elastic Constant Matrix: (Units=GPa)
#
#
# Indices 1 2 3 4 5 6 
#
# 1 67.7034 8.4871 31.4158 0.0000 -11.9969 0.0000
# 2 8.4871 64.9504 -2.4202 0.0000 7.0783 0.0000
# 3 31.4158 -2.4202 212.3076 0.0000 -31.8445 0.0000
# 4 0.0000 0.0000 0.0000 13.9268 0.0000 3.5939
# 5 -11.9969 7.0783 -31.8445 0.0000 32.5184 0.0000
# 6 0.0000 0.0000 0.0000 3.5939 0.0000 17.7151
#
#
#
# Elastic Compliance Matrix: (Units=1/GPa)
#
#
# Indices 1 2 3 4 5 6 
#
# 1 0.016845 -0.002823 -0.001759 0.000000 0.005107 0.000000
# 2 -0.002823 0.016272 -0.000099 0.000000 -0.004680 0.000000
# 3 -0.001759 -0.000099 0.005715 0.000000 0.004969 0.000000
# 4 0.000000 0.000000 0.000000 0.075771 0.000000 -0.015372
# 5 0.005107 -0.004680 0.004969 0.000000 0.038520 0.000000
# 6 0.000000 0.000000 0.000000 -0.015372 0.000000 0.059568
#
#
# Mechanical properties :
#
#
# Convention : Reuss Voigt Hill
#
# Bulk Modulus (GPa) = 33.93303 46.65853 40.29578
# Shear Modulus (GPa) = 21.56335 33.33064 27.44699
#
# Velocity S-wave (km/s) = 2.82296 3.50969 3.18489
# Velocity P-wave (km/s) = 4.81311 5.80236 5.33073
#
# Compressibility (1/GPa) = 0.02946981
#
# Stress axis : x y z
#
# Youngs Moduli (GPa) = 59.36384 61.45668 174.99179
#
# Poissons Ratio (x) = 0.17351 0.30778
# Poissons Ratio (y) = 0.16760 0.01728
# Poissons Ratio (z) = 0.10441 0.00607
#
# Static dielectric constant tensor:
#      x y z
#    x 2.314040 0.000000 -0.112770 
#    y 0.000000 2.223730 0.000000 
#    z -0.112770 0.000000 2.478020 
# 
# From -- ./inp_files/146782.got.cif
#   From: 2010.05.17/outbox.cif.g08.bks.cpg/sg15_74_cif.got.tgz:146782.got - 2010.06.03 18:47:42.
