data_PCOD9263497
_publ_section_title
;
Structure prediction by ZEFSAII (Michael W. Deem and Ramdas Pophale) SiO2 
 PCOD9263497
Probable space group: C 2/C
;
_chemical_formula_sum "Si O2"
_cell_formula_units_Z 44
_cell_length_a 11.396241
_cell_length_b 22.020513
_cell_length_c 9.832300
_cell_angle_alpha 90.000000
_cell_angle_beta 126.319662
_cell_angle_gamma 90.000000
_cell_volume 1988.067191
_symmetry_space_group_name_H-M "C 2/C"
_symmetry_group_IT_number 15
_symmetry_cell_setting 'monoclinic'
loop_
_space_group_symop_operation_xyz
x,y,z
-x,y,1/2-z
-x,-y,-z
x,-y,1/2+z
1/2+x,1/2+y,z
1/2-x,1/2+y,1/2-z
1/2-x,1/2-y,-z
1/2+x,1/2-y,1/2+z
loop_
_atom_site_type_symbol
_atom_site_label
_atom_site_fract_x
_atom_site_fract_y
_atom_site_fract_z
Si Si1 0.000000 0.222834 0.750000
Si Si2 0.500000 0.987795 0.250000
Si Si3 0.519076 0.676290 0.062428
Si Si4 0.732229 0.886662 0.347105
Si Si5 0.666730 0.833512 0.749213
Si Si6 0.000000 0.716193 0.750000
Si Si7 0.392126 0.098016 0.017893
O O1 0.964719 0.186721 0.588945
O O2 0.128918 0.267877 0.786835
O O3 0.639742 0.944140 0.334503
O O4 0.461720 0.033056 0.099744
O O5 0.397001 0.625858 0.003884
O O6 0.682436 0.663077 0.224493
O O7 0.474114 0.738597 0.105287
O O8 0.638400 0.826834 0.318788
O O9 0.725137 0.896307 0.179437
O O10 0.668629 0.877653 0.881320
O O11 0.527108 0.857775 0.571268
#
# Coordination Sequence:
#
# PCOD9263497 Si02
#       7
#     4   4   8   8   8   4   8
#     4  10  19  34  57  84 115 162 199 226 274 350
#     4   9  21  38  60  82 108 152 199 245 294 342
#     4  12  22  35  57  89 122 152 192 241 282 337
#     4  11  22  37  60  86 113 155 199 236 284 349
#     4   9  19  34  56  82 112 153 194 236 286 341
#     4  11  24  38  53  86 131 162 178 223 296 358
#     4   9  19  40  60  79 110 151 196 242 291 348
#
# _framework density 22.132048000000001
#
# number of rings (size 3 to 8) (size 9 to 14) (size 15 to 20)
#    0.000    2.182    0.000    6.000    0.000    2.909 
#    0.000    3.636    0.000    4.364    0.000    0.000 
#    0.000    0.000    0.000    0.000    0.000    0.000 
#
# Total GULP energy -122906.868130 kJ/mol
# GULP energy per Si atom -5586.675824 kJ/mol
# Density = 2.208167 g / cm^3
# Si number density = 22.132048 Si / 1000 Ang^3
#
#
#
# Elastic Constant Matrix: (Units=GPa)
#
#
# Indices 1 2 3 4 5 6 
#
# 1 72.5459 28.5160 27.6602 0.0000 23.4333 0.0000
# 2 28.5160 83.0013 12.8963 0.0000 13.4767 0.0000
# 3 27.6602 12.8963 45.9447 0.0000 6.7486 0.0000
# 4 0.0000 0.0000 0.0000 31.0327 0.0000 -13.4893
# 5 23.4333 13.4767 6.7486 0.0000 48.4498 0.0000
# 6 0.0000 0.0000 0.0000 -13.4893 0.0000 40.1272
#
#
#
# Elastic Compliance Matrix: (Units=1/GPa)
#
#
# Indices 1 2 3 4 5 6 
#
# 1 0.022405 -0.004690 -0.010997 0.000000 -0.008000 0.000000
# 2 -0.004690 0.014044 -0.000896 0.000000 -0.001513 0.000000
# 3 -0.010997 -0.000896 0.028401 0.000000 0.001612 0.000000
# 4 0.000000 0.000000 0.000000 0.037739 0.000000 0.012686
# 5 -0.008000 -0.001513 0.001612 0.000000 0.024706 0.000000
# 6 0.000000 0.000000 0.000000 0.012686 0.000000 0.029185
#
#
# Mechanical properties :
#
#
# Convention : Reuss Voigt Hill
#
# Bulk Modulus (GPa) = 31.56230 37.73744 34.64987
# Shear Modulus (GPa) = 24.97416 32.74990 28.86203
#
# Velocity S-wave (km/s) = 3.36283 3.85093 3.61513
# Velocity P-wave (km/s) = 5.41942 6.07132 5.75460
#
# Compressibility (1/GPa) = 0.03168337
#
# Stress axis : x y z
#
# Youngs Moduli (GPa) = 44.63313 71.20359 35.21044
#
# Poissons Ratio (x) = 0.33393 0.38721
# Poissons Ratio (y) = 0.20932 0.03156
# Poissons Ratio (z) = 0.49083 0.06383
#
# Static dielectric constant tensor:
#      x y z
#    x 1.843030 0.000000 -0.012720 
#    y 0.000000 1.798710 0.000000 
#    z -0.012720 0.000000 1.857770 
# 
# From -- ./inp_files/89237.got.cif
#   From: 2010.05.17/outbox.cif.g08.bks.cpg/sg15_45_cif.got.tgz:89237.got - 2010.06.03 18:47:42.
