data_PCOD9263891
_publ_section_title
;
Structure prediction by ZEFSAII (Michael W. Deem and Ramdas Pophale) SiO2 
 PCOD9263891
Probable space group: C 2/C
;
_chemical_formula_sum "Si O2"
_cell_formula_units_Z 56
_cell_length_a 11.549905
_cell_length_b 11.275788
_cell_length_c 20.987431
_cell_angle_alpha 90.000000
_cell_angle_beta 61.898571
_cell_angle_gamma 90.000000
_cell_volume 2411.070230
_symmetry_space_group_name_H-M "C 2/C"
_symmetry_group_IT_number 15
_symmetry_cell_setting 'monoclinic'
loop_
_space_group_symop_operation_xyz
x,y,z
-x,y,1/2-z
-x,-y,-z
x,-y,1/2+z
1/2+x,1/2+y,z
1/2-x,1/2+y,1/2-z
1/2-x,1/2-y,-z
1/2+x,1/2-y,1/2+z
loop_
_atom_site_type_symbol
_atom_site_label
_atom_site_fract_x
_atom_site_fract_y
_atom_site_fract_z
Si Si1 0.297634 0.687774 0.304227
Si Si2 0.582159 0.318034 0.279168
Si Si3 0.208176 0.582707 0.011480
Si Si4 0.300412 0.064663 0.638370
Si Si5 0.503641 0.741953 0.351290
Si Si6 0.901006 0.103136 0.500411
Si Si7 0.535316 0.280734 0.069782
O O1 0.188659 0.759114 0.295290
O O2 0.219378 0.575347 0.350337
O O3 0.379469 0.759012 0.336478
O O4 0.400553 0.664793 0.219496
O O5 0.500000 0.240150 0.250000
O O6 0.665902 0.397493 0.209773
O O7 0.486579 0.358255 0.360899
O O8 0.189263 0.586399 0.940026
O O9 0.259111 0.455361 0.023049
O O10 0.333492 0.665095 0.995977
O O11 0.079889 0.646356 0.073602
O O12 0.415914 0.142496 0.643252
O O13 0.455833 0.663210 0.422580
O O14 0.917448 0.201164 0.551218
O O15 0.000000 0.000000 0.500000
#
# Coordination Sequence:
#
# PCOD9263891 Si02
#       7
#     8   8   8   8   8   8   8
#     4  10  24  40  64  92 129 173 216 265 339 390
#     4  11  24  42  63  96 126 162 222 270 323 396
#     4  10  19  34  62  91 123 164 209 262 332 373
#     4  11  21  39  68  90 126 174 212 273 326 382
#     4  10  21  40  63  95 128 168 225 271 316 410
#     4  10  20  32  60  94 124 157 218 266 318 392
#     4  10  21  37  57  92 129 160 209 274 323 386
#
# _framework density 23.226199000000001
#
# number of rings (size 3 to 8) (size 9 to 14) (size 15 to 20)
#    0.000    1.714    4.286    0.000    6.000    0.000 
#    5.143    1.429    0.000    0.000    0.000    0.000 
#    0.000    0.000    0.000    0.000    0.000    0.000 
#
# Total GULP energy -155871.974538 kJ/mol
# GULP energy per Si atom -5566.856233 kJ/mol
# Density = 2.317334 g / cm^3
# Si number density = 23.226199 Si / 1000 Ang^3
#
#
#
# Elastic Constant Matrix: (Units=GPa)
#
#
# Indices 1 2 3 4 5 6 
#
# 1 144.5387 50.7337 55.9732 0.0000 21.0757 0.0000
# 2 50.7337 69.6892 27.5256 0.0000 6.8382 0.0000
# 3 55.9732 27.5256 90.2878 0.0000 31.8857 0.0000
# 4 0.0000 0.0000 0.0000 28.3863 0.0000 8.1928
# 5 21.0757 6.8382 31.8857 0.0000 41.0553 0.0000
# 6 0.0000 0.0000 0.0000 8.1928 0.0000 32.9214
#
#
#
# Elastic Compliance Matrix: (Units=1/GPa)
#
#
# Indices 1 2 3 4 5 6 
#
# 1 0.010981 -0.006082 -0.004575 0.000000 -0.001071 0.000000
# 2 -0.006082 0.019757 -0.003022 0.000000 0.002179 0.000000
# 3 -0.004575 -0.003022 0.019052 0.000000 -0.011944 0.000000
# 4 0.000000 0.000000 0.000000 0.037954 0.000000 -0.009445
# 5 -0.001071 0.002179 -0.011944 0.000000 0.033821 0.000000
# 6 0.000000 0.000000 0.000000 -0.009445 0.000000 0.032726
#
#
# Mechanical properties :
#
#
# Convention : Reuss Voigt Hill
#
# Bulk Modulus (GPa) = 44.58134 63.66452 54.12293
# Shear Modulus (GPa) = 26.43715 31.82483 29.13099
#
# Velocity S-wave (km/s) = 3.37745 3.70565 3.54535
# Velocity P-wave (km/s) = 5.86904 6.76604 6.33344
#
# Compressibility (1/GPa) = 0.02243091
#
# Stress axis : x y z
#
# Youngs Moduli (GPa) = 91.06271 50.61461 52.48853
#
# Poissons Ratio (x) = 0.30785 0.24016
# Poissons Ratio (y) = 0.55386 0.15862
# Poissons Ratio (z) = 0.41666 0.15296
#
# Static dielectric constant tensor:
#      x y z
#    x 1.916100 0.000000 -0.089000 
#    y 0.000000 0.246170 0.000000 
#    z -0.089000 0.000000 2.027650 
# 
# From -- ./inp_files/237522.got.cif
#   From: 2010.05.17/outbox.cif.g08.bks.cpg/sg15_119_cif.got.tgz:237522.got - 2010.06.03 18:47:42.
