data_PCOD9263862
_publ_section_title
;
Structure prediction by ZEFSAII (Michael W. Deem and Ramdas Pophale) SiO2 
 PCOD9263862
Probable space group: C 2/C
;
_chemical_formula_sum "Si O2"
_cell_formula_units_Z 60
_cell_length_a 18.831890
_cell_length_b 8.363016
_cell_length_c 20.693169
_cell_angle_alpha 90.000000
_cell_angle_beta 123.402878
_cell_angle_gamma 90.000000
_cell_volume 2720.675814
_symmetry_space_group_name_H-M "C 2/C"
_symmetry_group_IT_number 15
_symmetry_cell_setting 'monoclinic'
loop_
_space_group_symop_operation_xyz
x,y,z
-x,y,1/2-z
-x,-y,-z
x,-y,1/2+z
1/2+x,1/2+y,z
1/2-x,1/2+y,1/2-z
1/2-x,1/2-y,-z
1/2+x,1/2-y,1/2+z
loop_
_atom_site_type_symbol
_atom_site_label
_atom_site_fract_x
_atom_site_fract_y
_atom_site_fract_z
Si Si1 0.079466 0.153868 0.599104
Si Si2 0.493909 0.055926 0.119928
Si Si3 0.664137 0.170777 0.521148
Si Si4 0.903905 0.026233 0.030072
Si Si5 0.202747 0.037285 0.245802
Si Si6 0.500000 0.247877 0.250000
Si Si7 0.131845 0.640907 0.652400
Si Si8 0.845486 0.020446 0.634159
O O1 0.038022 0.325963 0.589690
O O2 0.002843 0.028024 0.575960
O O3 0.110332 0.131663 0.540919
O O4 0.151782 0.109054 0.686828
O O5 0.519884 0.134779 0.200115
O O6 0.538462 0.886550 0.133946
O O7 0.393676 0.073188 0.058390
O O8 0.647032 0.358808 0.503800
O O9 0.628661 0.131599 0.574161
O O10 0.761702 0.119442 0.571635
O O11 0.876138 0.082892 0.087583
O O12 0.173220 0.192031 0.192565
O O13 0.301790 0.993976 0.290721
O O14 0.178180 0.058434 0.308954
O O15 0.577417 0.359707 0.310997
#
# Coordination Sequence:
#
# PCOD9263862 Si02
#       8
#     8   8   8   8   8   4   8   8
#     4  10  19  35  62  95 119 164 216 257 312 376
#     4  11  23  41  63  94 130 172 217 269 308 394
#     4  10  21  38  66  92 128 172 216 260 321 381
#     4  10  19  34  61  96 123 166 212 258 310 387
#     4  11  22  39  65  96 126 168 213 273 325 380
#     4  12  22  36  64  98 130 172 214 264 320 372
#     4  11  24  41  65  94 126 169 218 271 326 380
#     4  11  21  38  63  99 129 170 212 266 321 388
#
# _framework density 22.053345
#
# number of rings (size 3 to 8) (size 9 to 14) (size 15 to 20)
#    0.000    1.333    5.333    1.600    1.867    0.000 
#    0.000    2.000    0.000    2.400    0.000    0.000 
#    0.000    0.000    0.000    0.000    0.000    0.000 
#
# Total GULP energy -167658.291936 kJ/mol
# GULP energy per Si atom -5588.609731 kJ/mol
# Density = 2.200315 g / cm^3
# Si number density = 22.053345 Si / 1000 Ang^3
#
#
#
# Elastic Constant Matrix: (Units=GPa)
#
#
# Indices 1 2 3 4 5 6 
#
# 1 82.9967 -4.1925 44.2604 0.0000 -2.7238 0.0000
# 2 -4.1925 27.8066 5.4862 0.0000 12.0648 0.0000
# 3 44.2604 5.4862 111.8101 0.0000 -0.7971 0.0000
# 4 0.0000 0.0000 0.0000 -25.3630 0.0000 6.8750
# 5 -2.7238 12.0648 -0.7971 0.0000 35.6325 0.0000
# 6 0.0000 0.0000 0.0000 6.8750 0.0000 11.2063
#
#
#
# Elastic Compliance Matrix: (Units=1/GPa)
#
#
# Indices 1 2 3 4 5 6 
#
# 1 0.015625 0.003699 -0.006368 0.000000 -0.000201 0.000000
# 2 0.003699 0.043565 -0.003706 0.000000 -0.014551 0.000000
# 3 -0.006368 -0.003706 0.011654 0.000000 0.001029 0.000000
# 4 0.000000 0.000000 0.000000 -0.033806 0.000000 0.020740
# 5 -0.000201 -0.014551 0.001029 0.000000 0.032999 0.000000
# 6 0.000000 0.000000 0.000000 0.020740 0.000000 0.076512
#
#
# Mechanical properties :
#
#
# Convention : Reuss Voigt Hill
#
# Bulk Modulus (GPa) = 17.21332 34.85794 26.03563
# Shear Modulus (GPa) = 27.98572 16.09910 22.04241
#
# Velocity S-wave (km/s) = 3.56617 2.70480 3.16492
# Velocity P-wave (km/s) = 4.97785 5.05916 5.01867
#
# Compressibility (1/GPa) = 0.05809453
#
# Stress axis : x y z
#
# Youngs Moduli (GPa) = 64.00023 22.95423 85.80937
#
# Poissons Ratio (x) = -0.08491 0.54644
# Poissons Ratio (y) = -0.23675 0.31798
# Poissons Ratio (z) = 0.40756 0.08506
#
# Static dielectric constant tensor:
#      x y z
#    x 1.825510 0.000000 -0.001690 
#    y 0.000000 1.827600 0.000000 
#    z -0.001690 0.000000 1.825010 
# 
# From -- ./inp_files/247858.got.cif
#   From: 2010.05.17/outbox.cif.g08.bks.cpg/sg15_124_cif.got.tgz:247858.got - 2010.06.03 18:47:42.
