data_PCOD9263544
_publ_section_title
;
Structure prediction by ZEFSAII (Michael W. Deem and Ramdas Pophale) SiO2 
 PCOD9263544
Probable space group: C 2/C
;
_chemical_formula_sum "Si O2"
_cell_formula_units_Z 52
_cell_length_a 18.280964
_cell_length_b 8.791403
_cell_length_c 22.172215
_cell_angle_alpha 90.000000
_cell_angle_beta 138.312173
_cell_angle_gamma 90.000000
_cell_volume 2369.926285
_symmetry_space_group_name_H-M "C 2/C"
_symmetry_group_IT_number 15
_symmetry_cell_setting 'monoclinic'
loop_
_space_group_symop_operation_xyz
x,y,z
-x,y,1/2-z
-x,-y,-z
x,-y,1/2+z
1/2+x,1/2+y,z
1/2-x,1/2+y,1/2-z
1/2-x,1/2-y,-z
1/2+x,1/2-y,1/2+z
loop_
_atom_site_type_symbol
_atom_site_label
_atom_site_fract_x
_atom_site_fract_y
_atom_site_fract_z
Si Si1 0.177450 0.080645 0.718788
Si Si2 0.716495 0.568075 0.362744
Si Si3 0.732204 0.918683 0.362551
Si Si4 0.921135 0.363699 0.786701
Si Si5 0.500000 0.626983 0.750000
Si Si6 0.538174 0.936034 0.458814
Si Si7 0.968123 0.926894 0.544565
O O1 0.225934 0.078922 0.681652
O O2 0.167017 0.254203 0.734255
O O3 0.240271 0.986758 0.808649
O O4 0.056140 0.003903 0.642290
O O5 0.693574 0.747804 0.351442
O O6 0.610123 0.473466 0.316780
O O7 0.830700 0.540455 0.467368
O O8 0.837405 0.954740 0.469224
O O9 0.637302 0.042483 0.302569
O O10 0.002129 0.241082 0.807804
O O11 0.975643 0.477298 0.867326
O O12 0.516534 0.754867 0.445254
O O13 0.500000 0.000000 0.500000
O O14 0.000000 0.000000 0.500000
#
# Coordination Sequence:
#
# PCOD9263544 Si02
#       7
#     8   8   8   8   4   8   8
#     4  10  19  34  57  90 123 154 190 250 317 358
#     4  10  22  39  59  82 123 160 201 247 292 362
#     4  10  19  35  60  89 115 155 200 254 308 351
#     4  11  23  38  61  87 122 158 204 247 291 366
#     4  10  26  44  56  82 118 174 210 236 292 344
#     4  11  21  36  63  97 121 153 197 252 311 355
#     4   9  19  33  54  88 127 152 183 235 308 371
#
# _framework density 21.941611000000002
#
# number of rings (size 3 to 8) (size 9 to 14) (size 15 to 20)
#    0.000    1.846    0.000    5.538    0.000    9.846 
#    0.000    1.538    0.000   10.154    0.000    0.000 
#    0.000    0.000    0.000    0.000    0.000    0.000 
#
# Total GULP energy -145266.376538 kJ/mol
# GULP energy per Si atom -5587.168328 kJ/mol
# Density = 2.189167 g / cm^3
# Si number density = 21.941611 Si / 1000 Ang^3
#
#
#
# Elastic Constant Matrix: (Units=GPa)
#
#
# Indices 1 2 3 4 5 6 
#
# 1 58.1323 28.4693 -5.0946 0.0000 19.8674 0.0000
# 2 28.4693 131.9784 60.0602 0.0000 29.9460 0.0000
# 3 -5.0946 60.0602 88.9854 0.0000 21.4265 0.0000
# 4 0.0000 0.0000 0.0000 31.7765 0.0000 6.4230
# 5 19.8674 29.9460 21.4265 0.0000 21.7660 0.0000
# 6 0.0000 0.0000 0.0000 6.4230 0.0000 35.2556
#
#
#
# Elastic Compliance Matrix: (Units=1/GPa)
#
#
# Indices 1 2 3 4 5 6 
#
# 1 0.034363 -0.005462 0.014937 0.000000 -0.038555 0.000000
# 2 -0.005462 0.013855 -0.008224 0.000000 -0.005980 0.000000
# 3 0.014937 -0.008224 0.023857 0.000000 -0.025805 0.000000
# 4 0.000000 0.000000 0.000000 0.032673 0.000000 -0.005952
# 5 -0.038555 -0.005980 -0.025805 0.000000 0.114766 0.000000
# 6 0.000000 0.000000 0.000000 -0.005952 0.000000 0.029449
#
#
# Mechanical properties :
#
#
# Convention : Reuss Voigt Hill
#
# Bulk Modulus (GPa) = 13.40878 49.55177 31.48028
# Shear Modulus (GPa) = 18.42857 30.80371 24.61614
#
# Velocity S-wave (km/s) = 2.90123 3.75092 3.35310
# Velocity P-wave (km/s) = 4.16500 6.43364 5.41936
#
# Compressibility (1/GPa) = 0.07457800
#
# Stress axis : x y z
#
# Youngs Moduli (GPa) = 29.10119 72.17822 41.91618
#
# Poissons Ratio (x) = 0.39423 -0.62612
# Poissons Ratio (y) = 0.15895 0.34471
# Poissons Ratio (z) = -0.43470 0.59358
#
# Static dielectric constant tensor:
#      x y z
#    x 1.859810 0.000000 0.027660 
#    y 0.000000 1.772560 0.000000 
#    z 0.027660 0.000000 1.802180 
# 
# From -- ./inp_files/166339.got.cif
#   From: 2010.05.17/outbox.cif.g08.bks.cpg/sg15_84_cif.got.tgz:166339.got - 2010.06.03 18:47:42.
