data_PCOD9263982
_publ_section_title
;
Structure prediction by ZEFSAII (Michael W. Deem and Ramdas Pophale) SiO2 
 PCOD9263982
Probable space group: C 2/C
;
_chemical_formula_sum "Si O2"
_cell_formula_units_Z 56
_cell_length_a 14.751038
_cell_length_b 22.751868
_cell_length_c 14.226152
_cell_angle_alpha 90.000000
_cell_angle_beta 148.366238
_cell_angle_gamma 90.000000
_cell_volume 2504.161852
_symmetry_space_group_name_H-M "C 2/C"
_symmetry_group_IT_number 15
_symmetry_cell_setting 'monoclinic'
loop_
_space_group_symop_operation_xyz
x,y,z
-x,y,1/2-z
-x,-y,-z
x,-y,1/2+z
1/2+x,1/2+y,z
1/2-x,1/2+y,1/2-z
1/2-x,1/2-y,-z
1/2+x,1/2-y,1/2+z
loop_
_atom_site_type_symbol
_atom_site_label
_atom_site_fract_x
_atom_site_fract_y
_atom_site_fract_z
Si Si1 0.565403 0.877809 0.911779
Si Si2 0.567408 0.504848 0.710402
Si Si3 0.468485 0.683387 0.008244
Si Si4 0.386456 0.700330 0.736631
Si Si5 0.794245 0.067234 0.849185
Si Si6 0.059687 0.481195 0.408586
Si Si7 0.169599 0.298901 0.670351
O O1 0.500000 0.862806 0.750000
O O2 0.293037 0.754366 0.707762
O O3 0.556280 0.947842 0.911273
O O4 0.752011 0.848245 0.085451
O O5 0.500000 0.530419 0.750000
O O6 0.621154 0.549780 0.675957
O O7 0.407841 0.468468 0.525743
O O8 0.742598 0.467643 0.887862
O O9 0.323391 0.635388 0.900070
O O10 0.414863 0.751205 0.973990
O O11 0.656068 0.674201 0.216629
O O12 0.500000 0.720506 0.750000
O O13 0.454003 0.847512 0.895481
O O14 0.496996 0.675457 0.920679
O O15 0.595897 0.047161 0.669905
O O16 0.000000 0.465339 0.250000
#
# Coordination Sequence:
#
# PCOD9263982 Si02
#       7
#     8   8   8   8   8   8   8
#     4  11  22  32  54  85 123 171 210 254 319 396
#     4  11  24  43  67  96 132 174 222 276 336 401
#     4  10  22  37  58  84 122 164 209 262 323 383
#     4  10  19  35  51  80 123 168 211 257 309 391
#     4  11  25  44  67  99 135 176 227 278 337 399
#     4  11  24  44  65  97 141 176 223 277 336 401
#     4  10  20  36  53  81 121 161 214 257 318 390
#
# _framework density 22.362772
#
# number of rings (size 3 to 8) (size 9 to 14) (size 15 to 20)
#    0.857    0.571    2.857    2.571    4.000    4.000 
#    2.571    0.000    0.000    0.000    0.000    3.000 
#    0.000    0.000    0.000    0.000    0.000    0.000 
#
# Total GULP energy -156227.564238 kJ/mol
# GULP energy per Si atom -5579.555866 kJ/mol
# Density = 2.231187 g / cm^3
# Si number density = 22.362772 Si / 1000 Ang^3
#
#
#
# Elastic Constant Matrix: (Units=GPa)
#
#
# Indices 1 2 3 4 5 6 
#
# 1 56.3218 16.0390 15.5132 0.0000 7.8988 0.0000
# 2 16.0390 46.3576 7.4357 0.0000 8.3066 0.0000
# 3 15.5132 7.4357 93.2292 0.0000 15.8794 0.0000
# 4 0.0000 0.0000 0.0000 21.5293 0.0000 1.0353
# 5 7.8988 8.3066 15.8794 0.0000 38.9623 0.0000
# 6 0.0000 0.0000 0.0000 1.0353 0.0000 14.1716
#
#
#
# Elastic Compliance Matrix: (Units=1/GPa)
#
#
# Indices 1 2 3 4 5 6 
#
# 1 0.020534 -0.006374 -0.002612 0.000000 -0.001739 0.000000
# 2 -0.006374 0.024502 -0.000241 0.000000 -0.003834 0.000000
# 3 -0.002612 -0.000241 0.011908 0.000000 -0.004272 0.000000
# 4 0.000000 0.000000 0.000000 0.046612 0.000000 -0.003405
# 5 -0.001739 -0.003834 -0.004272 0.000000 0.028577 0.000000
# 6 0.000000 0.000000 0.000000 -0.003405 0.000000 0.070812
#
#
# Mechanical properties :
#
#
# Convention : Reuss Voigt Hill
#
# Bulk Modulus (GPa) = 25.98045 30.43161 28.20603
# Shear Modulus (GPa) = 21.34672 25.39403 23.37037
#
# Velocity S-wave (km/s) = 3.09296 3.37345 3.23624
# Velocity P-wave (km/s) = 4.93944 5.36761 5.15797
#
# Compressibility (1/GPa) = 0.03849048
#
# Stress axis : x y z
#
# Youngs Moduli (GPa) = 48.70066 40.81273 83.97865
#
# Poissons Ratio (x) = 0.26013 0.21937
# Poissons Ratio (y) = 0.31040 0.02021
# Poissons Ratio (z) = 0.12721 0.00982
#
# Static dielectric constant tensor:
#      x y z
#    x 1.829590 0.000000 -0.013300 
#    y 0.000000 1.845820 0.000000 
#    z -0.013300 0.000000 1.860820 
# 
# From -- ./inp_files/157231.got.cif
#   From: 2010.05.17/outbox.cif.g08.bks.cpg/sg15_79_cif.got.tgz:157231.got - 2010.06.03 18:47:42.
