data_PCOD9263918
_publ_section_title
;
Structure prediction by ZEFSAII (Michael W. Deem and Ramdas Pophale) SiO2 
 PCOD9263918
Probable space group: C 2/C
;
_chemical_formula_sum "Si O2"
_cell_formula_units_Z 56
_cell_length_a 19.565005
_cell_length_b 13.424543
_cell_length_c 12.880552
_cell_angle_alpha 90.000000
_cell_angle_beta 43.654735
_cell_angle_gamma 90.000000
_cell_volume 2335.386495
_symmetry_space_group_name_H-M "C 2/C"
_symmetry_group_IT_number 15
_symmetry_cell_setting 'monoclinic'
loop_
_space_group_symop_operation_xyz
x,y,z
-x,y,1/2-z
-x,-y,-z
x,-y,1/2+z
1/2+x,1/2+y,z
1/2-x,1/2+y,1/2-z
1/2-x,1/2-y,-z
1/2+x,1/2-y,1/2+z
loop_
_atom_site_type_symbol
_atom_site_label
_atom_site_fract_x
_atom_site_fract_y
_atom_site_fract_z
Si Si1 0.500000 0.668340 0.250000
Si Si2 0.398550 0.706109 0.819364
Si Si3 0.807368 0.481939 0.585273
Si Si4 0.157069 0.513947 0.224390
Si Si5 0.264296 0.220332 0.654861
Si Si6 0.670817 0.774795 0.182122
Si Si7 0.147814 0.009574 0.110603
Si Si8 0.000000 0.508609 0.250000
O O1 0.564280 0.730349 0.261987
O O2 0.584034 0.590052 0.118177
O O3 0.500000 0.749182 0.750000
O O4 0.345979 0.737219 0.769947
O O5 0.411559 0.586862 0.789645
O O6 0.329816 0.728103 0.994333
O O7 0.829859 0.448980 0.675155
O O8 0.789704 0.601852 0.613031
O O9 0.706155 0.442736 0.644537
O O10 0.906299 0.458176 0.411123
O O11 0.150427 0.393389 0.221912
O O12 0.061458 0.559455 0.274388
O O13 0.259366 0.532357 0.054167
O O14 0.286701 0.250725 0.748984
O O15 0.750000 0.750000 0.000000
#
# Coordination Sequence:
#
# PCOD9263918 Si02
#       8
#     4   8   8   8   8   8   8   4
#     4  12  23  40  65  90 126 164 214 244 317 388
#     4  10  20  40  66  90 126 158 205 262 313 368
#     4   9  20  37  61  86 124 160 201 259 304 369
#     4  10  20  40  59  87 123 161 206 257 307 363
#     4   9  22  40  59  91 122 161 208 251 311 368
#     4  11  23  41  61  83 125 168 206 255 303 375
#     4  10  21  39  60  92 123 158 203 258 310 367
#     4  10  19  34  63  90 116 154 208 254 315 366
#
# _framework density 23.978901
#
# number of rings (size 3 to 8) (size 9 to 14) (size 15 to 20)
#    0.000    2.000    2.143    0.857    1.000    2.286 
#    2.571    1.429    0.000    0.000    0.000    0.000 
#    0.000    0.000    0.000    0.000    0.000    0.000 
#
# Total GULP energy -156042.040932 kJ/mol
# GULP energy per Si atom -5572.930033 kJ/mol
# Density = 2.392432 g / cm^3
# Si number density = 23.978901 Si / 1000 Ang^3
#
#
#
# Elastic Constant Matrix: (Units=GPa)
#
#
# Indices 1 2 3 4 5 6 
#
# 1 283.6497 61.3915 89.9765 0.0000 12.1066 0.0000
# 2 61.3915 105.0206 8.0688 0.0000 0.1923 0.0000
# 3 89.9765 8.0688 48.6712 0.0000 16.9125 0.0000
# 4 0.0000 0.0000 0.0000 14.5544 0.0000 6.5149
# 5 12.1066 0.1923 16.9125 0.0000 55.1425 0.0000
# 6 0.0000 0.0000 0.0000 6.5149 0.0000 44.7909
#
#
#
# Elastic Compliance Matrix: (Units=1/GPa)
#
#
# Indices 1 2 3 4 5 6 
#
# 1 0.011123 -0.004883 -0.021166 0.000000 0.004067 0.000000
# 2 -0.004883 0.011802 0.007514 0.000000 -0.001273 0.000000
# 3 -0.021166 0.007514 0.063601 0.000000 -0.014886 0.000000
# 4 0.000000 0.000000 0.000000 0.073493 0.000000 -0.010690
# 5 0.004067 -0.001273 -0.014886 0.000000 0.021812 0.000000
# 6 0.000000 0.000000 0.000000 -0.010690 0.000000 0.023881
#
#
# Mechanical properties :
#
#
# Convention : Reuss Voigt Hill
#
# Bulk Modulus (GPa) = 20.22053 84.02391 52.12222
# Shear Modulus (GPa) = 19.28512 41.42455 30.35484
#
# Velocity S-wave (km/s) = 2.83901 4.16088 3.56181
# Velocity P-wave (km/s) = 4.38151 7.62894 6.22087
#
# Compressibility (1/GPa) = 0.04945468
#
# Stress axis : x y z
#
# Youngs Moduli (GPa) = 89.90532 84.73428 15.72293
#
# Poissons Ratio (x) = 0.41378 0.33279
# Poissons Ratio (y) = 0.43903 -0.11813
# Poissons Ratio (z) = 1.90292 -0.63665
#
# Static dielectric constant tensor:
#      x y z
#    x 1.895700 0.000000 0.079010 
#    y 0.000000 2.072730 0.000000 
#    z 0.079010 0.000000 1.829780 
# 
# From -- ./inp_files/106665.got.cif
#   From: 2010.05.17/outbox.cif.g08.bks.cpg/sg15_54_cif.got.tgz:106665.got - 2010.06.03 18:47:42.
