data_PCOD9263373
_publ_section_title
;
Structure prediction by ZEFSAII (Michael W. Deem and Ramdas Pophale) SiO2 
 PCOD9263373
Probable space group: C 2/C
;
_chemical_formula_sum "Si O2"
_cell_formula_units_Z 40
_cell_length_a 12.433170
_cell_length_b 14.297186
_cell_length_c 13.504807
_cell_angle_alpha 90.000000
_cell_angle_beta 131.856834
_cell_angle_gamma 90.000000
_cell_volume 1788.005819
_symmetry_space_group_name_H-M "C 2/C"
_symmetry_group_IT_number 15
_symmetry_cell_setting 'monoclinic'
loop_
_space_group_symop_operation_xyz
x,y,z
-x,y,1/2-z
-x,-y,-z
x,-y,1/2+z
1/2+x,1/2+y,z
1/2-x,1/2+y,1/2-z
1/2-x,1/2-y,-z
1/2+x,1/2-y,1/2+z
loop_
_atom_site_type_symbol
_atom_site_label
_atom_site_fract_x
_atom_site_fract_y
_atom_site_fract_z
Si Si1 0.229147 0.022472 0.200138
Si Si2 0.850564 0.002967 0.629084
Si Si3 0.947669 0.878468 0.501952
Si Si4 0.045247 0.503713 0.412931
Si Si5 0.086238 0.285434 0.401199
O O1 0.202422 0.043026 0.299731
O O2 0.394540 0.037271 0.271872
O O3 0.178251 0.914741 0.148442
O O4 0.102798 0.079506 0.067592
O O5 0.000000 0.054971 0.750000
O O6 0.900033 0.927911 0.576900
O O7 0.702523 0.051758 0.502279
O O8 0.969656 0.769910 0.536930
O O9 0.073055 0.396309 0.399619
O O10 0.000000 0.500000 0.500000
O O11 0.250000 0.250000 0.500000
O O12 0.000000 0.256151 0.250000
#
# Coordination Sequence:
#
# PCOD9263373 Si02
#       5
#     8   8   8   8   8
#     4   9  19  34  49  79 116 155 195 228 296 365
#     4   9  17  32  52  75 110 151 187 232 289 350
#     4  10  19  34  56  80 117 153 190 245 302 350
#     4  10  21  34  51  80 120 151 188 231 295 366
#     4  12  23  34  58  91 121 147 194 249 308 347
#
# _framework density 22.371292
#
# number of rings (size 3 to 8) (size 9 to 14) (size 15 to 20)
#    0.000    2.000    2.000    3.000    2.800    0.000 
#    0.000    0.000    0.000    0.000    0.000   75.600 
#    0.000    0.000    0.000    0.000    0.000    0.000 
#
# Total GULP energy -111371.544310 kJ/mol
# GULP energy per Si atom -5568.577216 kJ/mol
# Density = 2.232037 g / cm^3
# Si number density = 22.371292 Si / 1000 Ang^3
#
#
#
# Elastic Constant Matrix: (Units=GPa)
#
#
# Indices 1 2 3 4 5 6 
#
# 1 120.2879 13.0743 55.1808 0.0000 45.2652 0.0000
# 2 13.0743 28.8292 0.8752 0.0000 0.5483 0.0000
# 3 55.1808 0.8752 139.3190 0.0000 48.8024 0.0000
# 4 0.0000 0.0000 0.0000 21.8224 0.0000 -4.1945
# 5 45.2652 0.5483 48.8024 0.0000 72.5094 0.0000
# 6 0.0000 0.0000 0.0000 -4.1945 0.0000 26.2395
#
#
#
# Elastic Compliance Matrix: (Units=1/GPa)
#
#
# Indices 1 2 3 4 5 6 
#
# 1 0.012380 -0.005418 -0.002848 0.000000 -0.005771 0.000000
# 2 -0.005418 0.037066 0.001082 0.000000 0.002374 0.000000
# 3 -0.002848 0.001082 0.010048 0.000000 -0.004993 0.000000
# 4 0.000000 0.000000 0.000000 0.047277 0.000000 0.007557
# 5 -0.005771 0.002374 -0.004993 0.000000 0.020736 0.000000
# 6 0.000000 0.000000 0.000000 0.007557 0.000000 0.039319
#
#
# Mechanical properties :
#
#
# Convention : Reuss Voigt Hill
#
# Bulk Modulus (GPa) = 22.16068 47.41074 34.78571
# Shear Modulus (GPa) = 25.47919 38.73466 32.10693
#
# Velocity S-wave (km/s) = 3.37846 4.16558 3.79249
# Velocity P-wave (km/s) = 5.01458 6.66144 5.89579
#
# Compressibility (1/GPa) = 0.04512497
#
# Stress axis : x y z
#
# Youngs Moduli (GPa) = 80.77250 26.97865 99.52169
#
# Poissons Ratio (x) = 0.14618 0.28344
# Poissons Ratio (y) = 0.43766 -0.10764
# Poissons Ratio (z) = 0.23005 -0.02918
#
# Static dielectric constant tensor:
#      x y z
#    x 2.016080 0.000000 -0.015490 
#    y 0.000000 1.897870 0.000000 
#    z -0.015490 0.000000 2.010300 
# 
# From -- ./inp_files/143927.got.cif
#   From: 2010.05.17/outbox.cif.g08.bks.cpg/sg15_72_cif.got.tgz:143927.got - 2010.06.03 18:47:42.
