data_PCOD9263588
_publ_section_title
;
Structure prediction by ZEFSAII (Michael W. Deem and Ramdas Pophale) SiO2 
 PCOD9263588
Probable space group: C 2/C
;
_chemical_formula_sum "Si O2"
_cell_formula_units_Z 56
_cell_length_a 14.435685
_cell_length_b 14.150741
_cell_length_c 13.919480
_cell_angle_alpha 90.000000
_cell_angle_beta 91.939091
_cell_angle_gamma 90.000000
_cell_volume 2841.782437
_symmetry_space_group_name_H-M "C 2/C"
_symmetry_group_IT_number 15
_symmetry_cell_setting 'monoclinic'
loop_
_space_group_symop_operation_xyz
x,y,z
-x,y,1/2-z
-x,-y,-z
x,-y,1/2+z
1/2+x,1/2+y,z
1/2-x,1/2+y,1/2-z
1/2-x,1/2-y,-z
1/2+x,1/2-y,1/2+z
loop_
_atom_site_type_symbol
_atom_site_label
_atom_site_fract_x
_atom_site_fract_y
_atom_site_fract_z
Si Si1 0.364511 0.943244 0.488504
Si Si2 0.693632 0.663082 0.045877
Si Si3 0.349077 0.271696 0.418388
Si Si4 0.607674 0.966053 0.234766
Si Si5 0.059107 0.255965 0.914245
Si Si6 0.298844 0.168421 0.231445
Si Si7 0.827323 0.367658 0.085736
O O1 0.257311 0.922037 0.511896
O O2 0.377397 0.943901 0.375793
O O3 0.427113 0.860309 0.537133
O O4 0.378614 0.045655 0.534322
O O5 0.707765 0.670043 0.160691
O O6 0.750000 0.750000 0.000000
O O7 0.595715 0.679125 0.993024
O O8 0.454540 0.270632 0.386903
O O9 0.294639 0.206005 0.339172
O O10 0.285284 0.364650 0.419940
O O11 0.352416 0.223498 0.523318
O O12 0.500000 0.984913 0.250000
O O13 0.641013 0.880744 0.303908
O O14 0.663300 0.061277 0.263924
O O15 0.126550 0.266941 0.824515
#
# Coordination Sequence:
#
# PCOD9263588 Si02
#       7
#     8   8   8   8   8   8   8
#     4  10  20  37  57  79 117 143 191 238 280 341
#     4   8  18  35  55  82 104 148 189 234 284 326
#     4  11  23  37  54  83 127 149 182 237 299 348
#     4  12  22  33  58  85 107 146 191 235 283 345
#     4  10  20  37  59  83 107 155 196 236 274 342
#     4  10  19  34  58  84 110 142 189 241 286 328
#     4  11  24  37  52  85 119 154 177 232 310 341
#
# _framework density 19.705942
#
# number of rings (size 3 to 8) (size 9 to 14) (size 15 to 20)
#    0.000    2.000    4.286    2.143    6.000    1.143 
#    0.000    0.714    0.000    0.000    0.000    0.000 
#    0.000    0.000    0.000    0.000    0.000    0.000 
#
# Total GULP energy -155995.889162 kJ/mol
# GULP energy per Si atom -5571.281756 kJ/mol
# Density = 1.966109 g / cm^3
# Si number density = 19.705942 Si / 1000 Ang^3
#
#
#
# Elastic Constant Matrix: (Units=GPa)
#
#
# Indices 1 2 3 4 5 6 
#
# 1 42.3818 11.3238 17.2033 0.0000 7.6643 0.0000
# 2 11.3238 32.4565 9.9436 0.0000 4.1587 0.0000
# 3 17.2033 9.9436 121.2409 0.0000 5.2029 0.0000
# 4 0.0000 0.0000 0.0000 21.7485 0.0000 -2.6287
# 5 7.6643 4.1587 5.2029 0.0000 24.6162 0.0000
# 6 0.0000 0.0000 0.0000 -2.6287 0.0000 6.5067
#
#
#
# Elastic Compliance Matrix: (Units=1/GPa)
#
#
# Indices 1 2 3 4 5 6 
#
# 1 0.028208 -0.008038 -0.003052 0.000000 -0.006779 0.000000
# 2 -0.008038 0.034476 -0.001559 0.000000 -0.002992 0.000000
# 3 -0.003052 -0.001559 0.008837 0.000000 -0.000654 0.000000
# 4 0.000000 0.000000 0.000000 0.048341 0.000000 0.019530
# 5 -0.006779 -0.002992 -0.000654 0.000000 0.043378 0.000000
# 6 0.000000 0.000000 0.000000 0.019530 0.000000 0.161577
#
#
# Mechanical properties :
#
#
# Convention : Reuss Voigt Hill
#
# Bulk Modulus (GPa) = 21.63422 30.33563 25.98492
# Shear Modulus (GPa) = 13.67910 21.08153 17.38032
#
# Velocity S-wave (km/s) = 2.63755 3.27434 2.97304
# Velocity P-wave (km/s) = 4.50310 5.45184 5.00003
#
# Compressibility (1/GPa) = 0.04622308
#
# Stress axis : x y z
#
# Youngs Moduli (GPa) = 35.45153 29.00596 113.15992
#
# Poissons Ratio (x) = 0.23314 0.34540
# Poissons Ratio (y) = 0.28495 0.17637
# Poissons Ratio (z) = 0.10821 0.04521
#
# Static dielectric constant tensor:
#      x y z
#    x 1.779170 0.000000 0.006730 
#    y 0.000000 1.749670 0.000000 
#    z 0.006730 0.000000 1.736240 
# 
# From -- ./inp_files/153452.got.cif
#   From: 2010.05.17/outbox.cif.g08.bks.cpg/sg15_77_cif.got.tgz:153452.got - 2010.06.03 18:47:42.
