data_PCOD9263443
_publ_section_title
;
Structure prediction by ZEFSAII (Michael W. Deem and Ramdas Pophale) SiO2 
 PCOD9263443
Probable space group: C 2/C
;
_chemical_formula_sum "Si O2"
_cell_formula_units_Z 56
_cell_length_a 11.619785
_cell_length_b 15.751317
_cell_length_c 13.903180
_cell_angle_alpha 90.000000
_cell_angle_beta 92.004909
_cell_angle_gamma 90.000000
_cell_volume 2543.098418
_symmetry_space_group_name_H-M "C 2/C"
_symmetry_group_IT_number 15
_symmetry_cell_setting 'monoclinic'
loop_
_space_group_symop_operation_xyz
x,y,z
-x,y,1/2-z
-x,-y,-z
x,-y,1/2+z
1/2+x,1/2+y,z
1/2-x,1/2+y,1/2-z
1/2-x,1/2-y,-z
1/2+x,1/2-y,1/2+z
loop_
_atom_site_type_symbol
_atom_site_label
_atom_site_fract_x
_atom_site_fract_y
_atom_site_fract_z
Si Si1 0.138773 0.227817 0.614075
Si Si2 0.299051 0.489099 0.136853
Si Si3 0.290544 0.997991 0.666156
Si Si4 0.906478 0.826994 0.052556
Si Si5 0.872746 0.691694 0.197573
Si Si6 0.172979 0.617894 0.992052
Si Si7 0.535428 0.446467 0.595306
O O1 0.191041 0.259799 0.716386
O O2 0.102783 0.310632 0.548706
O O3 0.229106 0.173144 0.557638
O O4 0.025449 0.169701 0.618171
O O5 0.229165 0.464273 0.229309
O O6 0.323770 0.403153 0.080357
O O7 0.423369 0.536085 0.158063
O O8 0.227094 0.556067 0.073030
O O9 0.340976 0.904799 0.681303
O O10 0.158704 0.982991 0.628108
O O11 0.364565 0.054796 0.594728
O O12 0.856668 0.740707 0.096125
O O13 0.944638 0.850233 0.944690
O O14 0.000000 0.693328 0.250000
O O15 0.500000 0.500000 0.500000
#
# Coordination Sequence:
#
# PCOD9263443 Si02
#       7
#     8   8   8   8   8   8   8
#     4  10  20  37  61  86 123 157 207 252 309 369
#     4  11  20  37  61  96 126 152 207 260 317 377
#     4  12  22  37  62  89 126 165 200 261 323 364
#     4  10  19  36  59  85 121 158 203 258 302 367
#     4  10  23  39  58  87 120 169 219 254 298 383
#     4  11  20  36  62  91 122 163 201 255 314 379
#     4  10  19  34  56  91 120 149 195 257 317 371
#
# _framework density 22.020381
#
# number of rings (size 3 to 8) (size 9 to 14) (size 15 to 20)
#    0.000    1.429    5.714    2.143    0.000    5.143 
#    0.000    2.857    0.000    0.000    0.000    0.000 
#    0.000    0.000    0.000    0.000    0.000    0.000 
#
# Total GULP energy -155970.458904 kJ/mol
# GULP energy per Si atom -5570.373532 kJ/mol
# Density = 2.197026 g / cm^3
# Si number density = 22.020381 Si / 1000 Ang^3
#
#
#
# Elastic Constant Matrix: (Units=GPa)
#
#
# Indices 1 2 3 4 5 6 
#
# 1 5.3880 3.5177 -3.4352 0.0000 -1.5938 0.0000
# 2 3.5177 67.5231 12.4962 0.0000 5.7020 0.0000
# 3 -3.4352 12.4962 67.5309 0.0000 -11.1070 0.0000
# 4 0.0000 0.0000 0.0000 641.1882 0.0000 130.5750
# 5 -1.5938 5.7020 -11.1070 0.0000 14.5812 0.0000
# 6 0.0000 0.0000 0.0000 130.5750 0.0000 52.4152
#
#
#
# Elastic Compliance Matrix: (Units=1/GPa)
#
#
# Indices 1 2 3 4 5 6 
#
# 1 0.229676 -0.020754 0.023994 0.000000 0.051497 0.000000
# 2 -0.020754 0.018406 -0.006881 0.000000 -0.014708 0.000000
# 3 0.023994 -0.006881 0.020779 0.000000 0.021141 0.000000
# 4 0.000000 0.000000 0.000000 0.003166 0.000000 -0.007886
# 5 0.051497 -0.014708 0.021141 0.000000 0.096066 0.000000
# 6 0.000000 0.000000 0.000000 -0.007886 0.000000 0.038723
#
#
# Mechanical properties :
#
#
# Convention : Reuss Voigt Hill
#
# Bulk Modulus (GPa) = 3.82295 18.39994 11.11145
# Shear Modulus (GPa) = 9.97423 150.16113 80.06768
#
# Velocity S-wave (km/s) = 2.13058 8.26680 6.03653
# Velocity P-wave (km/s) = 2.79148 9.97466 7.32415
#
# Compressibility (1/GPa) = 0.26157811
#
# Stress axis : x y z
#
# Youngs Moduli (GPa) = 4.35396 54.32906 48.12566
#
# Poissons Ratio (x) = 1.12757 -1.15470
# Poissons Ratio (y) = 0.09036 0.33114
# Poissons Ratio (z) = -0.10447 0.37382
#
# Static dielectric constant tensor:
#      x y z
#    x 1.855360 0.000000 -0.070180 
#    y 0.000000 1.847410 0.000000 
#    z -0.070180 0.000000 1.929500 
# 
# From -- ./inp_files/144272.got.cif
#   From: 2010.05.17/outbox.cif.g08.bks.cpg/sg15_73_cif.got.tgz:144272.got - 2010.06.03 18:47:42.
