data_PCOD9263567
_publ_section_title
;
Structure prediction by ZEFSAII (Michael W. Deem and Ramdas Pophale) SiO2 
 PCOD9263567
Probable space group: C 2/C
;
_chemical_formula_sum "Si O2"
_cell_formula_units_Z 44
_cell_length_a 23.314955
_cell_length_b 17.065801
_cell_length_c 15.054757
_cell_angle_alpha 90.000000
_cell_angle_beta 24.225702
_cell_angle_gamma 90.000000
_cell_volume 2457.935942
_symmetry_space_group_name_H-M "C 2/C"
_symmetry_group_IT_number 15
_symmetry_cell_setting 'monoclinic'
loop_
_space_group_symop_operation_xyz
x,y,z
-x,y,1/2-z
-x,-y,-z
x,-y,1/2+z
1/2+x,1/2+y,z
1/2-x,1/2+y,1/2-z
1/2-x,1/2-y,-z
1/2+x,1/2-y,1/2+z
loop_
_atom_site_type_symbol
_atom_site_label
_atom_site_fract_x
_atom_site_fract_y
_atom_site_fract_z
Si Si1 0.705078 0.796637 0.191084
Si Si2 0.144624 0.957103 0.822954
Si Si3 0.851077 0.643236 0.917028
Si Si4 0.749127 0.622103 0.694095
Si Si5 0.500000 0.785524 0.750000
Si Si6 0.007027 0.814291 0.408723
O O1 0.654324 0.850708 0.181755
O O2 0.771804 0.842554 0.178775
O O3 0.574887 0.749067 0.416035
O O4 0.812282 0.731054 0.004461
O O5 0.227560 0.912781 0.627308
O O6 0.242973 0.028567 0.712727
O O7 0.100166 0.887561 0.953194
O O8 0.000000 0.000000 0.000000
O O9 0.000000 0.621211 0.750000
O O10 0.888038 0.658613 0.455352
O O11 0.630773 0.651631 0.793355
O O12 0.446619 0.727849 0.747056
#
# Coordination Sequence:
#
# PCOD9263567 Si02
#       6
#     8   8   8   8   4   8
#     4   9  19  34  56  84 102 140 184 223 274 327
#     4   9  20  37  52  75 115 146 175 227 280 322
#     4  10  19  34  58  81 108 140 183 229 275 326
#     4  10  19  35  55  78 111 143 179 230 270 327
#     4  10  20  32  58  82 104 144 194 220 272 330
#     4   9  18  36  54  77 110 144 180 224 274 329
#
# _framework density 17.901198000000001
#
# number of rings (size 3 to 8) (size 9 to 14) (size 15 to 20)
#    0.000    2.545    0.000    1.636    1.273    1.455 
#    6.545    0.909    0.000    0.000    0.000    0.000 
#    0.000    0.000    0.000    0.000    0.000    0.000 
#
# Total GULP energy -122474.845027 kJ/mol
# GULP energy per Si atom -5567.038410 kJ/mol
# Density = 1.786045 g / cm^3
# Si number density = 17.901198 Si / 1000 Ang^3
#
#
#
# Elastic Constant Matrix: (Units=GPa)
#
#
# Indices 1 2 3 4 5 6 
#
# 1 94.3295 37.6872 31.1566 0.0000 10.4838 0.0000
# 2 37.6872 102.0742 24.7679 0.0001 7.2594 0.0000
# 3 31.1566 24.7679 54.4124 0.0002 3.3383 0.0000
# 4 0.0000 0.0001 0.0002 18.6474 -0.0001 -7.5935
# 5 10.4838 7.2594 3.3383 -0.0001 22.0909 0.0000
# 6 0.0000 0.0000 0.0000 -7.5935 0.0000 4.3330
#
#
#
# Elastic Compliance Matrix: (Units=1/GPa)
#
#
# Indices 1 2 3 4 5 6 
#
# 1 0.014690 -0.003497 -0.006523 0.000000 -0.004837 0.000000
# 2 -0.003497 0.012031 -0.003365 0.000000 -0.001786 0.000000
# 3 -0.006523 -0.003365 0.023606 -0.000001 0.000634 -0.000001
# 4 0.000000 0.000000 -0.000001 0.187269 0.000001 0.328187
# 5 -0.004837 -0.001786 0.000634 0.000001 0.048054 0.000001
# 6 0.000000 0.000000 -0.000001 0.328187 0.000001 0.805932
#
#
# Mechanical properties :
#
#
# Convention : Reuss Voigt Hill
#
# Bulk Modulus (GPa) = 42.44825 48.67106 45.55965
# Shear Modulus (GPa) = 4.43969 19.49454 11.96711
#
# Velocity S-wave (km/s) = 1.57654 3.30359 2.58836
# Velocity P-wave (km/s) = 5.20365 6.46524 5.86845
#
# Compressibility (1/GPa) = 0.02355810
#
# Stress axis : x y z
#
# Youngs Moduli (GPa) = 68.07142 83.11615 42.36223
#
# Poissons Ratio (x) = 0.29067 0.27634
# Poissons Ratio (y) = 0.23805 0.14253
# Poissons Ratio (z) = 0.44404 0.27965
#
# Static dielectric constant tensor:
#      x y z
#    x 1.599720 0.000000 -0.022120 
#    y 0.000000 1.624250 0.000000 
#    z -0.022120 0.000000 1.635590 
# 
# From -- ./inp_files/86069.got.cif
#   From: 2010.05.17/outbox.cif.g08.bks.cpg/sg15_44_cif.got.tgz:86069.got - 2010.06.03 18:47:42.
