data_PCOD9263422
_publ_section_title
;
Structure prediction by ZEFSAII (Michael W. Deem and Ramdas Pophale) SiO2 
 PCOD9263422
Probable space group: C 2/C
;
_chemical_formula_sum "Si O2"
_cell_formula_units_Z 40
_cell_length_a 17.978740
_cell_length_b 10.930066
_cell_length_c 17.585915
_cell_angle_alpha 90.000000
_cell_angle_beta 149.115178
_cell_angle_gamma 90.000000
_cell_volume 1773.903758
_symmetry_space_group_name_H-M "C 2/C"
_symmetry_group_IT_number 15
_symmetry_cell_setting 'monoclinic'
loop_
_space_group_symop_operation_xyz
x,y,z
-x,y,1/2-z
-x,-y,-z
x,-y,1/2+z
1/2+x,1/2+y,z
1/2-x,1/2+y,1/2-z
1/2-x,1/2-y,-z
1/2+x,1/2-y,1/2+z
loop_
_atom_site_type_symbol
_atom_site_label
_atom_site_fract_x
_atom_site_fract_y
_atom_site_fract_z
Si Si1 0.941704 0.653368 0.026007
Si Si2 0.105905 0.103108 0.279767
Si Si3 0.385389 0.568565 0.497497
Si Si4 0.645345 0.982279 0.905549
Si Si5 0.261057 0.046183 0.277292
O O1 0.913201 0.620509 0.088841
O O2 0.098768 0.611036 0.135533
O O3 0.925252 0.796977 0.005327
O O4 0.824128 0.571221 0.877560
O O5 0.179466 0.140056 0.263773
O O6 0.000000 0.164748 0.250000
O O7 0.245534 0.066405 0.451444
O O8 0.006233 0.992948 0.157464
O O9 0.240968 0.571029 0.421899
O O10 0.341084 0.500914 0.380770
O O11 0.500000 0.047983 0.750000
#
# Coordination Sequence:
#
# PCOD9263422 Si02
#       5
#     8   8   8   8   8
#     4  10  22  35  55  89 122 149 189 232 290 350
#     4   9  21  37  57  86 117 150 195 238 286 339
#     4  11  21  36  60  87 117 155 187 238 285 344
#     4  10  19  34  56  86 121 152 178 225 297 356
#     4  10  21  37  55  84 118 152 192 234 287 340
#
# _framework density 22.549137999999999
#
# number of rings (size 3 to 8) (size 9 to 14) (size 15 to 20)
#    0.000    2.000    2.000    1.200    5.600    2.400 
#    0.000    0.000    0.000    1.200   10.400    0.000 
#    0.000    0.000    0.000    0.000    0.000    0.000 
#
# Total GULP energy -111485.747208 kJ/mol
# GULP energy per Si atom -5574.287360 kJ/mol
# Density = 2.249782 g / cm^3
# Si number density = 22.549138 Si / 1000 Ang^3
#
#
#
# Elastic Constant Matrix: (Units=GPa)
#
#
# Indices 1 2 3 4 5 6 
#
# 1 148.3985 12.5126 46.4839 0.0000 6.2526 0.0000
# 2 12.5126 43.7691 27.0147 0.0000 -3.7893 0.0000
# 3 46.4839 27.0147 167.4176 0.0000 2.1507 0.0000
# 4 0.0000 0.0000 0.0000 0.0032 0.0000 -8.6716
# 5 6.2526 -3.7893 2.1507 0.0000 49.7714 0.0000
# 6 0.0000 0.0000 0.0000 -8.6716 0.0000 -33.8401
#
#
#
# Elastic Compliance Matrix: (Units=1/GPa)
#
#
# Indices 1 2 3 4 5 6 
#
# 1 0.007458 -0.001047 -0.001890 0.000000 -0.000935 0.000000
# 2 -0.001047 0.025745 -0.003893 0.000000 0.002260 0.000000
# 3 -0.001890 -0.003893 0.007131 0.000000 -0.000367 0.000000
# 4 0.000000 0.000000 0.000000 0.449364 0.000000 -0.115151
# 5 -0.000935 0.002260 -0.000367 0.000000 0.020397 0.000000
# 6 0.000000 0.000000 0.000000 -0.115151 0.000000 -0.000043
#
#
# Mechanical properties :
#
#
# Convention : Reuss Voigt Hill
#
# Bulk Modulus (GPa) = 37.48800 59.06751 48.27776
# Shear Modulus (GPa) = 9.38788 21.42517 15.40652
#
# Velocity S-wave (km/s) = 2.04263 3.08580 2.61673
# Velocity P-wave (km/s) = 4.71426 6.24084 5.53048
#
# Compressibility (1/GPa) = 0.02667520
#
# Stress axis : x y z
#
# Youngs Moduli (GPa) = 134.07981 38.84314 140.23953
#
# Poissons Ratio (x) = 0.04065 0.26504
# Poissons Ratio (y) = 0.14033 0.54590
# Poissons Ratio (z) = 0.25340 0.15120
#
# Static dielectric constant tensor:
#      x y z
#    x 1.901080 0.000000 -0.010680 
#    y 0.000000 1.794030 0.000000 
#    z -0.010680 0.000000 1.889000 
# 
# From -- ./inp_files/210817.got.cif
#   From: 2010.05.17/outbox.cif.g08.bks.cpg/sg15_106_cif.got.tgz:210817.got - 2010.06.03 18:47:42.
