data_PCOD9263889
_publ_section_title
;
Structure prediction by ZEFSAII (Michael W. Deem and Ramdas Pophale) SiO2 
 PCOD9263889
Probable space group: C 2/C
;
_chemical_formula_sum "Si O2"
_cell_formula_units_Z 56
_cell_length_a 5.523204
_cell_length_b 28.500482
_cell_length_c 17.835801
_cell_angle_alpha 90.000000
_cell_angle_beta 74.098145
_cell_angle_gamma 90.000000
_cell_volume 2700.164184
_symmetry_space_group_name_H-M "C 2/C"
_symmetry_group_IT_number 15
_symmetry_cell_setting 'monoclinic'
loop_
_space_group_symop_operation_xyz
x,y,z
-x,y,1/2-z
-x,-y,-z
x,-y,1/2+z
1/2+x,1/2+y,z
1/2-x,1/2+y,1/2-z
1/2-x,1/2-y,-z
1/2+x,1/2-y,1/2+z
loop_
_atom_site_type_symbol
_atom_site_label
_atom_site_fract_x
_atom_site_fract_y
_atom_site_fract_z
Si Si1 0.044900 0.745475 0.951113
Si Si2 0.065089 0.018547 0.590714
Si Si3 0.347743 0.076947 0.447205
Si Si4 0.844976 0.072874 0.338579
Si Si5 0.507182 0.056774 0.661836
Si Si6 0.559344 0.141816 0.564711
Si Si7 0.502242 0.654822 0.082861
O O1 0.076387 0.791755 0.897093
O O2 0.072066 0.692393 0.919607
O O3 0.250000 0.750000 0.000000
O O4 0.750000 0.750000 0.000000
O O5 0.205696 0.035504 0.503570
O O6 0.254566 0.038055 0.640767
O O7 0.784263 0.039158 0.612954
O O8 0.044675 0.963173 0.609324
O O9 0.553615 0.058752 0.370634
O O10 0.462085 0.105892 0.508822
O O11 0.218451 0.119022 0.414088
O O12 0.000000 0.066221 0.250000
O O13 0.854569 0.127427 0.362946
O O14 0.500000 0.046067 0.750000
O O15 0.527102 0.112370 0.642439
O O16 0.837600 0.152203 0.508347
#
# Coordination Sequence:
#
# PCOD9263889 Si02
#       7
#     8   8   8   8   8   8   8
#     4  10  19  34  62  91 117 154 200 253 303 363
#     4  11  24  42  63  88 124 165 215 255 308 368
#     4  10  20  38  63  89 117 159 211 263 304 363
#     4  11  25  40  57  88 127 172 207 256 315 376
#     4  11  22  38  61  91 125 161 201 258 314 372
#     4   9  19  36  58  91 121 151 202 252 308 363
#     4  10  20  37  60  86 120 156 207 252 305 362
#
# _framework density 20.739477999999998
#
# number of rings (size 3 to 8) (size 9 to 14) (size 15 to 20)
#    0.000    1.714    2.857    1.714    2.000    1.143 
#    0.000    0.714    0.000    0.000    7.429    0.000 
#    0.000    0.000    0.000    0.000    0.000    0.000 
#
# Total GULP energy -155894.772240 kJ/mol
# GULP energy per Si atom -5567.670437 kJ/mol
# Density = 2.069227 g / cm^3
# Si number density = 20.739478 Si / 1000 Ang^3
#
#
#
# Elastic Constant Matrix: (Units=GPa)
#
#
# Indices 1 2 3 4 5 6 
#
# 1 80.1704 21.7758 27.3083 0.0000 3.3200 0.0000
# 2 21.7758 162.1710 27.2486 0.0000 -8.2243 0.0000
# 3 27.3083 27.2486 99.4894 0.0000 -14.7812 0.0000
# 4 0.0000 0.0000 0.0000 13.0465 0.0000 6.7872
# 5 3.3200 -8.2243 -14.7812 0.0000 22.5187 0.0000
# 6 0.0000 0.0000 0.0000 6.7872 0.0000 33.8294
#
#
#
# Elastic Compliance Matrix: (Units=1/GPa)
#
#
# Indices 1 2 3 4 5 6 
#
# 1 0.014626 -0.001503 -0.004438 0.000000 -0.005618 0.000000
# 2 -0.001503 0.006654 -0.001126 0.000000 0.001913 0.000000
# 3 -0.004438 -0.001126 0.012869 0.000000 0.008690 0.000000
# 4 0.000000 0.000000 0.000000 0.085581 0.000000 -0.017170
# 5 -0.005618 0.001913 0.008690 0.000000 0.051639 0.000000
# 6 0.000000 0.000000 0.000000 -0.017170 0.000000 0.033005
#
#
# Mechanical properties :
#
#
# Convention : Reuss Voigt Hill
#
# Bulk Modulus (GPa) = 49.95980 54.94400 52.45190
# Shear Modulus (GPa) = 22.20455 31.57878 26.89167
#
# Velocity S-wave (km/s) = 3.27562 3.90634 3.60480
# Velocity P-wave (km/s) = 6.20062 6.84806 6.53237
#
# Compressibility (1/GPa) = 0.02001609
#
# Stress axis : x y z
#
# Youngs Moduli (GPa) = 68.37157 150.27792 77.70736
#
# Poissons Ratio (x) = 0.22590 0.34483
# Poissons Ratio (y) = 0.10278 0.08747
# Poissons Ratio (z) = 0.30341 0.16917
#
# Static dielectric constant tensor:
#      x y z
#    x 1.898220 0.000000 -0.000540 
#    y 0.000000 1.846270 0.000000 
#    z -0.000540 0.000000 1.734010 
# 
# From -- ./inp_files/186097.got.cif
#   From: 2010.05.17/outbox.cif.g08.bks.cpg/sg15_94_cif.got.tgz:186097.got - 2010.06.03 18:47:42.
