data_PCOD9263586
_publ_section_title
;
Structure prediction by ZEFSAII (Michael W. Deem and Ramdas Pophale) SiO2 
 PCOD9263586
Probable space group: C 2/C
;
_chemical_formula_sum "Si O2"
_cell_formula_units_Z 56
_cell_length_a 22.494468
_cell_length_b 8.917051
_cell_length_c 15.782753
_cell_angle_alpha 90.000000
_cell_angle_beta 53.172836
_cell_angle_gamma 90.000000
_cell_volume 2534.034199
_symmetry_space_group_name_H-M "C 2/C"
_symmetry_group_IT_number 15
_symmetry_cell_setting 'monoclinic'
loop_
_space_group_symop_operation_xyz
x,y,z
-x,y,1/2-z
-x,-y,-z
x,-y,1/2+z
1/2+x,1/2+y,z
1/2-x,1/2+y,1/2-z
1/2-x,1/2-y,-z
1/2+x,1/2-y,1/2+z
loop_
_atom_site_type_symbol
_atom_site_label
_atom_site_fract_x
_atom_site_fract_y
_atom_site_fract_z
Si Si1 0.753424 0.669984 0.866546
Si Si2 0.193760 0.615540 0.862362
Si Si3 0.035097 0.757540 0.813017
Si Si4 0.889472 0.663380 0.009908
Si Si5 0.334069 0.542714 0.330075
Si Si6 0.629192 0.997732 0.156318
Si Si7 0.664383 0.712265 0.550610
O O1 0.787938 0.683788 0.743543
O O2 0.787862 0.521746 0.877126
O O3 0.789023 0.806174 0.889530
O O4 0.667080 0.698934 0.933916
O O5 0.273324 0.553480 0.829842
O O6 0.139388 0.469884 0.904108
O O7 0.159446 0.735718 0.957323
O O8 0.076726 0.597940 0.762295
O O9 0.000000 0.790567 0.750000
O O10 0.972483 0.725779 0.936042
O O11 0.093165 0.892094 0.778398
O O12 0.877128 0.584698 0.928782
O O13 0.353939 0.449952 0.396994
O O14 0.615816 0.170178 0.147945
O O15 0.750000 0.750000 0.500000
#
# Coordination Sequence:
#
# PCOD9263586 Si02
#       7
#     8   8   8   8   8   8   8
#     4  10  19  34  58  84 107 143 192 238 277 329
#     4   9  19  34  55  84 117 148 183 232 288 338
#     4   9  18  35  58  82 109 144 188 232 271 329
#     4   9  18  34  56  83 110 144 190 233 277 337
#     4   9  19  36  55  83 113 140 185 234 277 330
#     4   9  18  34  58  82 107 143 185 233 281 336
#     4   9  18  33  55  80 109 142 180 230 286 333
#
# _framework density 22.099150999999999
#
# number of rings (size 3 to 8) (size 9 to 14) (size 15 to 20)
#    0.000    2.857    0.000    1.286    0.000   10.286 
#    0.000    7.143    0.000    3.429    0.000    3.000 
#    0.000    0.000    0.000    0.000    0.000    0.000 
#
# Total GULP energy -156111.353524 kJ/mol
# GULP energy per Si atom -5575.405483 kJ/mol
# Density = 2.204885 g / cm^3
# Si number density = 22.099151 Si / 1000 Ang^3
#
#
#
# Elastic Constant Matrix: (Units=GPa)
#
#
# Indices 1 2 3 4 5 6 
#
# 1 30.8357 30.0314 23.6610 0.0000 -5.7447 0.0000
# 2 30.0314 97.4916 67.9046 0.0000 5.1314 0.0000
# 3 23.6610 67.9046 116.5715 0.0000 -26.7625 0.0000
# 4 0.0000 0.0000 0.0000 22.4999 0.0000 -1.2537
# 5 -5.7447 5.1314 -26.7625 0.0000 31.1497 0.0000
# 6 0.0000 0.0000 0.0000 -1.2537 0.0000 16.9334
#
#
#
# Elastic Compliance Matrix: (Units=1/GPa)
#
#
# Indices 1 2 3 4 5 6 
#
# 1 0.051694 -0.020933 0.005832 0.000000 0.017992 0.000000
# 2 -0.020933 0.033007 -0.021318 0.000000 -0.027613 0.000000
# 3 0.005832 -0.021318 0.025993 0.000000 0.026919 0.000000
# 4 0.000000 0.000000 0.000000 0.044629 0.000000 0.003304
# 5 0.017992 -0.027613 0.026919 0.000000 0.063098 0.000000
# 6 0.000000 0.000000 0.000000 0.003304 0.000000 0.059299
#
#
# Mechanical properties :
#
#
# Convention : Reuss Voigt Hill
#
# Bulk Modulus (GPa) = 26.41574 54.23254 40.32414
# Shear Modulus (GPa) = 13.76744 22.33671 18.05208
#
# Velocity S-wave (km/s) = 2.49867 3.18268 2.86119
# Velocity P-wave (km/s) = 4.50597 6.17250 5.40386
#
# Compressibility (1/GPa) = 0.03785622
#
# Stress axis : x y z
#
# Youngs Moduli (GPa) = 19.34466 30.29655 38.47236
#
# Poissons Ratio (x) = 0.63419 -0.22437
# Poissons Ratio (y) = 0.40494 0.82014
# Poissons Ratio (z) = -0.11282 0.64585
#
# Static dielectric constant tensor:
#      x y z
#    x 1.877790 0.000000 -0.026750 
#    y 0.000000 1.857640 0.000000 
#    z -0.026750 0.000000 1.856270 
# 
# From -- ./inp_files/222012.got.cif
#   From: 2010.05.17/outbox.cif.g08.bks.cpg/sg15_112_cif.got.tgz:222012.got - 2010.06.03 18:47:42.
