data_PCOD9263371
_publ_section_title
;
Structure prediction by ZEFSAII (Michael W. Deem and Ramdas Pophale) SiO2 
 PCOD9263371
Probable space group: C 2/C
;
_chemical_formula_sum "Si O2"
_cell_formula_units_Z 40
_cell_length_a 8.729659
_cell_length_b 11.258526
_cell_length_c 20.400734
_cell_angle_alpha 90.000000
_cell_angle_beta 133.368862
_cell_angle_gamma 90.000000
_cell_volume 1457.565013
_symmetry_space_group_name_H-M "C 2/C"
_symmetry_group_IT_number 15
_symmetry_cell_setting 'monoclinic'
loop_
_space_group_symop_operation_xyz
x,y,z
-x,y,1/2-z
-x,-y,-z
x,-y,1/2+z
1/2+x,1/2+y,z
1/2-x,1/2+y,1/2-z
1/2-x,1/2-y,-z
1/2+x,1/2-y,1/2+z
loop_
_atom_site_type_symbol
_atom_site_label
_atom_site_fract_x
_atom_site_fract_y
_atom_site_fract_z
Si Si1 0.657288 0.867727 0.041588
Si Si2 0.137759 0.354984 0.848574
Si Si3 0.950816 0.034879 0.892499
Si Si4 0.760629 0.765316 0.425006
Si Si5 0.375075 0.911228 0.313335
O O1 0.792020 0.745200 0.080946
O O2 0.655866 0.901398 0.118201
O O3 0.800246 0.960078 0.044229
O O4 0.418585 0.840050 0.949261
O O5 0.347276 0.409051 0.877230
O O6 0.000000 0.299607 0.750000
O O7 0.004100 0.467790 0.834419
O O8 0.881170 0.120289 0.930977
O O9 0.832649 0.081151 0.792220
O O10 0.750000 0.750000 0.500000
O O11 0.521245 0.798593 0.334777
#
# Coordination Sequence:
#
# PCOD9263371 Si02
#       5
#     8   8   8   8   8
#     4  11  20  35  59  83 108 140 180 225 269 313
#     4   9  19  35  55  79 108 144 179 215 269 322
#     4  10  19  34  56  80 107 143 184 221 262 320
#     4   9  19  34  53  79 111 143 176 221 273 318
#     4   9  19  35  54  79 111 142 178 222 266 320
#
# _framework density 27.443031000000001
#
# number of rings (size 3 to 8) (size 9 to 14) (size 15 to 20)
#    0.000    2.400    0.000    4.200    0.000    3.200 
#    0.000    6.000    0.000   25.200    0.000    0.000 
#    0.000    0.000    0.000    0.000    0.000    0.000 
#
# Total GULP energy -112052.726153 kJ/mol
# GULP energy per Si atom -5602.636308 kJ/mol
# Density = 2.738057 g / cm^3
# Si number density = 27.443031 Si / 1000 Ang^3
#
#
#
# Elastic Constant Matrix: (Units=GPa)
#
#
# Indices 1 2 3 4 5 6 
#
# 1 134.4693 54.7049 0.5684 0.0000 3.1022 0.0000
# 2 54.7049 104.6816 46.1425 0.0000 11.0450 0.0000
# 3 0.5684 46.1425 108.8554 0.0000 -2.9171 0.0000
# 4 0.0000 0.0000 0.0000 47.0844 0.0000 -0.8794
# 5 3.1022 11.0450 -2.9171 0.0000 44.3302 0.0000
# 6 0.0000 0.0000 0.0000 -0.8794 0.0000 51.2784
#
#
#
# Elastic Compliance Matrix: (Units=1/GPa)
#
#
# Indices 1 2 3 4 5 6 
#
# 1 0.010092 -0.006620 0.002783 0.000000 0.001126 0.000000
# 2 -0.006620 0.016580 -0.007104 0.000000 -0.004135 0.000000
# 3 0.002783 -0.007104 0.012247 0.000000 0.002381 0.000000
# 4 0.000000 0.000000 0.000000 0.021245 0.000000 0.000364
# 5 0.001126 -0.004135 0.002381 0.000000 0.023666 0.000000
# 6 0.000000 0.000000 0.000000 0.000364 0.000000 0.019508
#
#
# Mechanical properties :
#
#
# Convention : Reuss Voigt Hill
#
# Bulk Modulus (GPa) = 58.69191 61.20422 59.94806
# Shear Modulus (GPa) = 38.19764 44.97796 41.58780
#
# Velocity S-wave (km/s) = 3.73485 4.05280 3.89707
# Velocity P-wave (km/s) = 6.32709 6.65214 6.49165
#
# Compressibility (1/GPa) = 0.01703812
#
# Stress axis : x y z
#
# Youngs Moduli (GPa) = 99.08952 60.31415 81.65153
#
# Poissons Ratio (x) = 0.39926 -0.22727
# Poissons Ratio (y) = 0.65593 0.58007
# Poissons Ratio (z) = -0.27581 0.42849
#
# Static dielectric constant tensor:
#      x y z
#    x 2.114130 0.000000 0.004470 
#    y 0.000000 2.122850 0.000000 
#    z 0.004470 0.000000 2.127420 
# 
# From -- ./inp_files/187953.got.cif
#   From: 2010.05.17/outbox.cif.g08.bks.cpg/sg15_94_cif.got.tgz:187953.got - 2010.06.03 18:47:42.
