data_PCOD9263209
_publ_section_title
;
Structure prediction by ZEFSAII (Michael W. Deem and Ramdas Pophale) SiO2 
 PCOD9263209
Probable space group: C 2/C
;
_chemical_formula_sum "Si O2"
_cell_formula_units_Z 52
_cell_length_a 19.921550
_cell_length_b 12.013437
_cell_length_c 12.058239
_cell_angle_alpha 90.000000
_cell_angle_beta 122.174306
_cell_angle_gamma 90.000000
_cell_volume 2442.678930
_symmetry_space_group_name_H-M "C 2/C"
_symmetry_group_IT_number 15
_symmetry_cell_setting 'monoclinic'
loop_
_space_group_symop_operation_xyz
x,y,z
-x,y,1/2-z
-x,-y,-z
x,-y,1/2+z
1/2+x,1/2+y,z
1/2-x,1/2+y,1/2-z
1/2-x,1/2-y,-z
1/2+x,1/2-y,1/2+z
loop_
_atom_site_type_symbol
_atom_site_label
_atom_site_fract_x
_atom_site_fract_y
_atom_site_fract_z
Si Si1 0.628626 0.456916 0.096034
Si Si2 0.902512 0.594251 0.348934
Si Si3 0.000000 0.725289 0.250000
Si Si4 0.721971 0.723670 0.797329
Si Si5 0.645529 0.663708 0.967670
Si Si6 0.470059 0.381860 0.845873
Si Si7 0.968723 0.373405 0.345755
O O1 0.697167 0.372881 0.191707
O O2 0.653225 0.539478 0.019212
O O3 0.597157 0.536487 0.167191
O O4 0.549081 0.391116 0.990772
O O5 0.947787 0.649634 0.284347
O O6 0.820869 0.662268 0.280547
O O7 0.903076 0.462730 0.325817
O O8 0.957245 0.613489 0.504656
O O9 0.054658 0.802270 0.374488
O O10 0.811015 0.754373 0.907728
O O11 0.683819 0.684012 0.881170
O O12 0.500000 0.412847 0.750000
O O13 0.442187 0.254442 0.821320
O O14 0.000000 0.399507 0.250000
#
# Coordination Sequence:
#
# PCOD9263209 Si02
#       7
#     8   8   4   8   8   8   8
#     4  11  21  38  62  92 121 169 200 258 313 367
#     4  10  19  36  59  85 120 161 203 256 302 371
#     4  10  20  38  66  92 110 160 222 246 302 378
#     4  10  22  43  58  91 126 161 208 257 315 366
#     4  10  23  39  64  90 122 164 208 261 304 376
#     4  10  21  34  60  94 123 155 209 261 303 360
#     4  10  19  34  53  90 122 157 204 252 305 361
#
# _framework density 21.288103
#
# number of rings (size 3 to 8) (size 9 to 14) (size 15 to 20)
#    0.000    1.846    2.308    1.846    7.538    0.000 
#    8.308    0.000    0.000    1.846    0.000    0.000 
#    0.000    0.000    0.000    0.000    0.000    0.000 
#
# Total GULP energy -145314.658191 kJ/mol
# GULP energy per Si atom -5589.025315 kJ/mol
# Density = 2.123965 g / cm^3
# Si number density = 21.288103 Si / 1000 Ang^3
#
#
#
# Elastic Constant Matrix: (Units=GPa)
#
#
# Indices 1 2 3 4 5 6 
#
# 1 27.2976 13.2387 20.0389 0.0000 3.6549 0.0000
# 2 13.2387 134.5382 48.6518 0.0000 13.0591 0.0000
# 3 20.0389 48.6518 102.9634 0.0000 10.9739 0.0000
# 4 0.0000 0.0000 0.0000 -103.1166 0.0000 -18.9936
# 5 3.6549 13.0591 10.9739 0.0000 39.0238 0.0000
# 6 0.0000 0.0000 0.0000 -18.9936 0.0000 15.6806
#
#
#
# Elastic Compliance Matrix: (Units=1/GPa)
#
#
# Indices 1 2 3 4 5 6 
#
# 1 0.043051 -0.001353 -0.007585 0.000000 -0.001446 0.000000
# 2 -0.001353 0.009141 -0.003859 0.000000 -0.001847 0.000000
# 3 -0.007585 -0.003859 0.013194 0.000000 -0.001708 0.000000
# 4 0.000000 0.000000 0.000000 -0.007929 0.000000 -0.009604
# 5 -0.001446 -0.001847 -0.001708 0.000000 0.026859 0.000000
# 6 0.000000 0.000000 0.000000 -0.009604 0.000000 0.052140
#
#
# Mechanical properties :
#
#
# Convention : Reuss Voigt Hill
#
# Bulk Modulus (GPa) = 25.13092 47.62867 36.37979
# Shear Modulus (GPa) = 28.52013 2.50890 15.51452
#
# Velocity S-wave (km/s) = 3.66419 1.08679 2.70254
# Velocity P-wave (km/s) = 5.45275 4.89865 5.18311
#
# Compressibility (1/GPa) = 0.03979162
#
# Stress axis : x y z
#
# Youngs Moduli (GPa) = 23.22810 109.40050 75.79219
#
# Poissons Ratio (x) = 0.14801 0.57491
# Poissons Ratio (y) = 0.03143 0.29248
# Poissons Ratio (z) = 0.17619 0.42217
#
# Static dielectric constant tensor:
#      x y z
#    x 1.771780 0.000000 -0.006880 
#    y 0.000000 1.785530 0.000000 
#    z -0.006880 0.000000 1.764940 
# 
# From -- ./inp_files/111733.got.cif
#   From: 2010.05.17/outbox.cif.g08.bks.cpg/sg15_56_cif.got.tgz:111733.got - 2010.06.03 18:47:42.
