data_PCOD9263463
_publ_section_title
;
Structure prediction by ZEFSAII (Michael W. Deem and Ramdas Pophale) SiO2 
 PCOD9263463
Probable space group: C 2/C
;
_chemical_formula_sum "Si O2"
_cell_formula_units_Z 56
_cell_length_a 17.140884
_cell_length_b 8.938543
_cell_length_c 24.840481
_cell_angle_alpha 90.000000
_cell_angle_beta 50.296956
_cell_angle_gamma 90.000000
_cell_volume 2928.145983
_symmetry_space_group_name_H-M "C 2/C"
_symmetry_group_IT_number 15
_symmetry_cell_setting 'monoclinic'
loop_
_space_group_symop_operation_xyz
x,y,z
-x,y,1/2-z
-x,-y,-z
x,-y,1/2+z
1/2+x,1/2+y,z
1/2-x,1/2+y,1/2-z
1/2-x,1/2-y,-z
1/2+x,1/2-y,1/2+z
loop_
_atom_site_type_symbol
_atom_site_label
_atom_site_fract_x
_atom_site_fract_y
_atom_site_fract_z
Si Si1 0.016025 0.299301 0.932761
Si Si2 0.322645 0.375964 0.688872
Si Si3 0.827761 0.476165 0.163492
Si Si4 0.383215 0.551661 0.555823
Si Si5 0.204866 0.195683 0.463340
Si Si6 0.659712 0.384767 0.166096
Si Si7 0.022254 0.918681 0.326455
O O1 0.061943 0.459348 0.898173
O O2 0.015390 0.194689 0.879398
O O3 0.097578 0.223669 0.937669
O O4 0.899831 0.286364 0.002986
O O5 0.224372 0.428942 0.765577
O O6 0.326593 0.199199 0.678427
O O7 0.332852 0.468632 0.629017
O O8 0.420132 0.433618 0.679315
O O9 0.750188 0.488587 0.147471
O O10 0.500000 0.500000 0.500000
O O11 0.326047 0.478617 0.530111
O O12 0.250000 0.250000 0.500000
O O13 0.288971 0.240928 0.382925
O O14 0.592753 0.350535 0.248273
O O15 0.585019 0.450185 0.153982
#
# Coordination Sequence:
#
# PCOD9263463 Si02
#       7
#     8   8   8   8   8   8   8
#     4  10  21  36  57  85 115 148 196 245 286 342
#     4  10  19  35  58  85 113 148 193 239 294 349
#     4  11  21  36  61  88 112 148 193 246 291 351
#     4   9  19  35  54  80 114 154 190 233 283 341
#     4  11  20  35  57  84 117 156 199 237 280 350
#     4  10  19  34  57  80 111 155 190 231 292 347
#     4   9  19  36  58  80 112 150 194 234 289 349
#
# _framework density 19.124728999999999
#
# number of rings (size 3 to 8) (size 9 to 14) (size 15 to 20)
#    0.000    2.000    2.857    2.571    0.000    0.571 
#    0.000    1.429    0.000    8.571    0.000    0.000 
#    0.000    0.000    0.000    0.000    0.000    0.000 
#
# Total GULP energy -155962.896812 kJ/mol
# GULP energy per Si atom -5570.103458 kJ/mol
# Density = 1.908120 g / cm^3
# Si number density = 19.124729 Si / 1000 Ang^3
#
#
#
# Elastic Constant Matrix: (Units=GPa)
#
#
# Indices 1 2 3 4 5 6 
#
# 1 107.5694 21.1130 13.7288 0.0000 -2.4606 0.0002
# 2 21.1130 61.9251 5.9754 0.0000 -9.2541 0.0004
# 3 13.7288 5.9754 46.7434 0.0000 -4.7373 0.0000
# 4 0.0000 0.0000 0.0000 23.1792 0.0000 -5.6417
# 5 -2.4606 -9.2541 -4.7373 0.0000 26.1101 0.0000
# 6 0.0002 0.0004 0.0000 -5.6417 0.0000 23.3842
#
#
#
# Elastic Compliance Matrix: (Units=1/GPa)
#
#
# Indices 1 2 3 4 5 6 
#
# 1 0.010278 -0.003352 -0.002661 0.000000 -0.000702 0.000000
# 2 -0.003352 0.018263 -0.000740 0.000000 0.006023 0.000000
# 3 -0.002661 -0.000740 0.022634 0.000000 0.003594 0.000000
# 4 0.000000 0.000000 0.000000 0.045834 0.000000 0.011058
# 5 -0.000702 0.006023 0.003594 0.000000 0.041020 0.000000
# 6 0.000000 0.000000 0.000000 0.011058 0.000000 0.045432
#
#
# Mechanical properties :
#
#
# Convention : Reuss Voigt Hill
#
# Bulk Modulus (GPa) = 26.54774 33.09692 29.82233
# Shear Modulus (GPa) = 23.86383 26.22944 25.04663
#
# Velocity S-wave (km/s) = 3.53625 3.70739 3.62283
# Velocity P-wave (km/s) = 5.53037 5.97241 5.75563
#
# Compressibility (1/GPa) = 0.03766800
#
# Stress axis : x y z
#
# Youngs Moduli (GPa) = 97.29626 54.75584 44.18173
#
# Poissons Ratio (x) = 0.18356 0.11758
# Poissons Ratio (y) = 0.32617 0.03268
# Poissons Ratio (z) = 0.25894 0.04050
#
# Static dielectric constant tensor:
#      x y z
#    x 1.707470 0.000000 0.022120 
#    y 0.000000 1.675860 0.000000 
#    z 0.022120 0.000000 1.737950 
# 
# From -- ./inp_files/298120.got.cif
#   From: 2010.05.17/outbox.cif.g08.bks.cpg/sg15_150_cif.got.tgz:298120.got - 2010.06.03 18:47:42.
