data_PCOD9263222
_publ_section_title
;
Structure prediction by ZEFSAII (Michael W. Deem and Ramdas Pophale) SiO2 
 PCOD9263222
Probable space group: C 2/C
;
_chemical_formula_sum "Si O2"
_cell_formula_units_Z 44
_cell_length_a 11.385002
_cell_length_b 11.054718
_cell_length_c 13.682209
_cell_angle_alpha 90.000000
_cell_angle_beta 96.815346
_cell_angle_gamma 90.000000
_cell_volume 1709.847102
_symmetry_space_group_name_H-M "C 2/C"
_symmetry_group_IT_number 15
_symmetry_cell_setting 'monoclinic'
loop_
_space_group_symop_operation_xyz
x,y,z
-x,y,1/2-z
-x,-y,-z
x,-y,1/2+z
1/2+x,1/2+y,z
1/2-x,1/2+y,1/2-z
1/2-x,1/2-y,-z
1/2+x,1/2-y,1/2+z
loop_
_atom_site_type_symbol
_atom_site_label
_atom_site_fract_x
_atom_site_fract_y
_atom_site_fract_z
Si Si1 0.487278 0.135706 0.541686
Si Si2 0.389075 0.490027 0.920699
Si Si3 0.823677 0.739648 0.379370
Si Si4 0.327157 0.855210 0.587183
Si Si5 0.358547 0.262395 0.797405
Si Si6 0.000000 0.402931 0.750000
O O1 0.362180 0.187166 0.490155
O O2 0.585704 0.201975 0.481976
O O3 0.546924 0.163853 0.653228
O O4 0.500000 0.000000 0.500000
O O5 0.354987 0.620147 0.878488
O O6 0.276065 0.436230 0.967483
O O7 0.408405 0.392356 0.836630
O O8 0.500000 0.500000 0.000000
O O9 0.694290 0.728214 0.316540
O O10 0.916698 0.670143 0.317428
O O11 0.261475 0.756502 0.647939
O O12 0.397867 0.948030 0.666679
#
# Coordination Sequence:
#
# PCOD9263222 Si02
#       6
#     8   8   8   8   8   4
#     4  11  21  34  55  84 107 138 183 224 265 317
#     4  10  19  34  57  77 109 143 175 218 270 318
#     4  10  19  34  54  78 106 138 182 217 268 313
#     4   8  18  33  54  80 105 139 178 224 264 308
#     4   9  20  33  56  77 105 140 177 223 260 308
#     4   8  16  32  54  80 102 132 188 228 252 308
#
# _framework density 25.733295999999999
#
# number of rings (size 3 to 8) (size 9 to 14) (size 15 to 20)
#    1.091    1.455    1.818    0.545    2.545    1.455 
#    0.000    0.909    0.000    0.000    0.000    0.000 
#    0.000    0.000    0.000    0.000    0.000    0.000 
#
# Total GULP energy -122524.105146 kJ/mol
# GULP energy per Si atom -5569.277507 kJ/mol
# Density = 2.567473 g / cm^3
# Si number density = 25.733296 Si / 1000 Ang^3
#
#
#
# Elastic Constant Matrix: (Units=GPa)
#
#
# Indices 1 2 3 4 5 6 
#
# 1 94.1843 -0.1702 56.3573 0.0000 31.0491 0.0000
# 2 -0.1702 105.2436 46.3938 0.0000 40.0190 0.0000
# 3 56.3573 46.3938 230.5515 0.0000 66.3138 0.0000
# 4 0.0000 0.0000 0.0000 34.9043 0.0000 23.3001
# 5 31.0491 40.0190 66.3138 0.0000 77.8417 0.0000
# 6 0.0000 0.0000 0.0000 23.3001 0.0000 37.6491
#
#
#
# Elastic Compliance Matrix: (Units=1/GPa)
#
#
# Indices 1 2 3 4 5 6 
#
# 1 0.013757 0.002995 -0.002575 0.000000 -0.004833 0.000000
# 2 0.002995 0.012585 -0.001404 0.000000 -0.006469 0.000000
# 3 -0.002575 -0.001404 0.006287 0.000000 -0.003607 0.000000
# 4 0.000000 0.000000 0.000000 0.048818 0.000000 -0.030212
# 5 -0.004833 -0.006469 -0.003607 0.000000 0.021173 0.000000
# 6 0.000000 0.000000 0.000000 -0.030212 0.000000 0.045259
#
#
# Mechanical properties :
#
#
# Convention : Reuss Voigt Hill
#
# Bulk Modulus (GPa) = 32.61419 70.57122 51.59270
# Shear Modulus (GPa) = 31.23684 51.90558 41.57121
#
# Velocity S-wave (km/s) = 3.48784 4.49604 4.02364
# Velocity P-wave (km/s) = 5.37787 7.37808 6.45591
#
# Compressibility (1/GPa) = 0.03066150
#
# Stress axis : x y z
#
# Youngs Moduli (GPa) = 72.68821 79.45728 159.05973
#
# Poissons Ratio (x) = -0.23801 0.40965
# Poissons Ratio (y) = -0.21774 0.22334
# Poissons Ratio (z) = 0.18721 0.11157
#
# Static dielectric constant tensor:
#      x y z
#    x 5.368820 0.000000 -3.609970 
#    y 0.000000 2.042800 0.000000 
#    z -3.609970 0.000000 6.150900 
# 
# From -- ./inp_files/203685.got.cif
#   From: 2010.05.17/outbox.cif.g08.bks.cpg/sg15_102_cif.got.tgz:203685.got - 2010.06.03 18:47:42.
