data_PCOD9263802
_publ_section_title
;
Structure prediction by ZEFSAII (Michael W. Deem and Ramdas Pophale) SiO2 
 PCOD9263802
Probable space group: C 2/C
;
_chemical_formula_sum "Si O2"
_cell_formula_units_Z 52
_cell_length_a 11.396504
_cell_length_b 18.486169
_cell_length_c 25.411551
_cell_angle_alpha 90.000000
_cell_angle_beta 29.058468
_cell_angle_gamma 90.000000
_cell_volume 2600.276464
_symmetry_space_group_name_H-M "C 2/C"
_symmetry_group_IT_number 15
_symmetry_cell_setting 'monoclinic'
loop_
_space_group_symop_operation_xyz
x,y,z
-x,y,1/2-z
-x,-y,-z
x,-y,1/2+z
1/2+x,1/2+y,z
1/2-x,1/2+y,1/2-z
1/2-x,1/2-y,-z
1/2+x,1/2-y,1/2+z
loop_
_atom_site_type_symbol
_atom_site_label
_atom_site_fract_x
_atom_site_fract_y
_atom_site_fract_z
Si Si1 0.458956 0.149927 0.933224
Si Si2 0.742264 0.045312 0.408241
Si Si3 0.561753 0.602255 0.926736
Si Si4 0.182415 0.054233 0.763677
Si Si5 0.257109 0.733015 0.580263
Si Si6 0.111354 0.526562 0.152660
Si Si7 0.500000 0.660052 0.250000
O O1 0.705867 0.110906 0.821111
O O2 0.345037 0.181978 0.925153
O O3 0.281656 0.090778 0.028479
O O4 0.458742 0.214995 0.975338
O O5 0.780788 0.103735 0.346245
O O6 0.500000 0.000000 0.500000
O O7 0.968110 0.992697 0.324116
O O8 0.591902 0.592402 0.852662
O O9 0.639386 0.681578 0.915203
O O10 0.741685 0.544133 0.884147
O O11 0.297584 0.579057 0.050468
O O12 0.400808 0.001940 0.697124
O O13 0.041724 0.784855 0.685548
O O14 0.000000 0.559378 0.250000
#
# Coordination Sequence:
#
# PCOD9263802 Si02
#       7
#     8   8   8   8   8   8   4
#     4  10  21  36  59  89 115 162 203 238 295 359
#     4  11  24  41  64  85 116 156 208 262 295 347
#     4  10  19  34  60  91 126 150 192 241 300 355
#     4  11  20  35  63  90 117 153 201 254 302 349
#     4  10  20  36  61  87 126 158 196 236 293 377
#     4   9  19  31  55  93 121 149 185 245 298 348
#     4  10  22  40  62  86 118 162 200 240 304 362
#
# _framework density 19.997872999999998
#
# number of rings (size 3 to 8) (size 9 to 14) (size 15 to 20)
#    0.000    1.846    1.538    2.769    5.385    0.000 
#    0.000    0.000    6.769    5.538    0.000    0.000 
#    0.000    0.000    0.000    0.000    0.000    0.000 
#
# Total GULP energy -145065.714727 kJ/mol
# GULP energy per Si atom -5579.450566 kJ/mol
# Density = 1.995236 g / cm^3
# Si number density = 19.997873 Si / 1000 Ang^3
#
#
#
# Elastic Constant Matrix: (Units=GPa)
#
#
# Indices 1 2 3 4 5 6 
#
# 1 59.7318 43.1638 42.0461 -0.0122 7.6714 0.0085
# 2 43.1638 114.8888 72.2954 -0.0163 13.5366 0.0121
# 3 42.0461 72.2954 150.5220 0.0224 15.1057 0.0397
# 4 -0.0122 -0.0163 0.0224 36.0705 0.0030 22.4003
# 5 7.6714 13.5366 15.1057 0.0030 34.5765 -0.0115
# 6 0.0085 0.0121 0.0397 22.4003 -0.0115 23.8943
#
#
#
# Elastic Compliance Matrix: (Units=1/GPa)
#
#
# Indices 1 2 3 4 5 6 
#
# 1 0.024200 -0.006838 -0.003353 0.000018 -0.001228 -0.000017
# 2 -0.006838 0.014595 -0.004893 0.000015 -0.002059 -0.000011
# 3 -0.003353 -0.004893 0.010106 -0.000002 -0.001756 -0.000012
# 4 0.000018 0.000015 -0.000002 0.066354 -0.000035 -0.062205
# 5 -0.001228 -0.002059 -0.001756 -0.000035 0.030767 0.000052
# 6 -0.000017 -0.000011 -0.000012 -0.062205 0.000052 0.100167
#
#
# Mechanical properties :
#
#
# Convention : Reuss Voigt Hill
#
# Bulk Modulus (GPa) = 53.37786 71.12813 62.25299
# Shear Modulus (GPa) = 17.69276 30.08407 23.88841
#
# Velocity S-wave (km/s) = 2.97767 3.88282 3.45997
# Velocity P-wave (km/s) = 6.21062 7.46638 6.86726
#
# Compressibility (1/GPa) = 0.01873436
#
# Stress axis : x y z
#
# Youngs Moduli (GPa) = 41.32186 68.51805 98.94679
#
# Poissons Ratio (x) = 0.46851 0.33174
# Poissons Ratio (y) = 0.28255 0.48416
# Poissons Ratio (z) = 0.13854 0.33527
#
# Static dielectric constant tensor:
#      x y z
#    x 1.695920 -0.000020 0.038730 
#    y -0.000020 1.718230 -0.000020 
#    z 0.038730 -0.000020 1.734240 
# 
# From -- ./inp_files/293434.got.cif
#   From: 2010.05.17/outbox.cif.g08.bks.cpg/sg15_147_cif.got.tgz:293434.got - 2010.06.03 18:47:42.
