data_PCOD9263311
_publ_section_title
;
Structure prediction by ZEFSAII (Michael W. Deem and Ramdas Pophale) SiO2 
 PCOD9263311
Probable space group: C 2/C
;
_chemical_formula_sum "Si O2"
_cell_formula_units_Z 48
_cell_length_a 13.914566
_cell_length_b 13.396667
_cell_length_c 10.552543
_cell_angle_alpha 90.000000
_cell_angle_beta 77.414348
_cell_angle_gamma 90.000000
_cell_volume 1919.820526
_symmetry_space_group_name_H-M "C 2/C"
_symmetry_group_IT_number 15
_symmetry_cell_setting 'monoclinic'
loop_
_space_group_symop_operation_xyz
x,y,z
-x,y,1/2-z
-x,-y,-z
x,-y,1/2+z
1/2+x,1/2+y,z
1/2-x,1/2+y,1/2-z
1/2-x,1/2-y,-z
1/2+x,1/2-y,1/2+z
loop_
_atom_site_type_symbol
_atom_site_label
_atom_site_fract_x
_atom_site_fract_y
_atom_site_fract_z
Si Si1 0.929811 0.069700 0.935980
Si Si2 0.156077 0.637671 0.936187
Si Si3 0.061941 0.465960 0.857631
Si Si4 0.041419 0.746175 0.455581
Si Si5 0.254708 0.665698 0.149120
Si Si6 0.389597 0.369675 0.836245
O O1 0.993948 0.166430 0.885328
O O2 0.888516 0.990017 0.849891
O O3 0.843029 0.109655 0.048886
O O4 0.000000 0.000000 0.000000
O O5 0.053369 0.697003 0.945235
O O6 0.165266 0.624185 0.086933
O O7 0.154277 0.539502 0.850797
O O8 0.241606 0.714924 0.875206
O O9 0.000000 0.488064 0.750000
O O10 0.083782 0.348232 0.867016
O O11 0.000000 0.500000 0.000000
O O12 0.110747 0.803335 0.535321
O O13 0.296134 0.656513 0.278308
O O14 0.500000 0.348742 0.750000
#
# Coordination Sequence:
#
# PCOD9263311 Si02
#       6
#     8   8   8   8   8   8
#     4   9  17  32  52  82 104 140 196 239 284 337
#     4   9  19  35  56  81 113 146 192 239 288 343
#     4  10  22  38  60  86 117 156 193 235 288 352
#     4   9  19  35  55  84 110 143 193 231 286 349
#     4  10  19  34  55  82 111 145 193 244 284 343
#     4  11  18  32  60  79 104 150 198 239 285 351
#
# _framework density 25.002336
#
# number of rings (size 3 to 8) (size 9 to 14) (size 15 to 20)
#    0.000    2.333    5.000    0.000    4.667    0.667 
#    6.000    1.667    0.000    4.000    0.000    0.000 
#    0.000    0.000    0.000    0.000    0.000    0.000 
#
# Total GULP energy -133823.944873 kJ/mol
# GULP energy per Si atom -5575.997703 kJ/mol
# Density = 2.494543 g / cm^3
# Si number density = 25.002336 Si / 1000 Ang^3
#
#
#
# Elastic Constant Matrix: (Units=GPa)
#
#
# Indices 1 2 3 4 5 6 
#
# 1 79.1693 23.6104 34.2525 0.0000 31.7857 0.0000
# 2 23.6104 177.1929 49.8036 0.0000 42.0241 0.0000
# 3 34.2525 49.8036 133.6987 0.0000 50.8533 0.0000
# 4 0.0000 0.0000 0.0000 33.4444 0.0000 9.0588
# 5 31.7857 42.0241 50.8533 0.0000 37.1997 0.0000
# 6 0.0000 0.0000 0.0000 9.0588 0.0000 33.2515
#
#
#
# Elastic Compliance Matrix: (Units=1/GPa)
#
#
# Indices 1 2 3 4 5 6 
#
# 1 0.020285 0.002109 0.003159 0.000000 -0.024034 0.000000
# 2 0.002109 0.007983 0.001253 0.000000 -0.012534 0.000000
# 3 0.003159 0.001253 0.016183 0.000000 -0.026238 0.000000
# 4 0.000000 0.000000 0.000000 0.032283 0.000000 -0.008795
# 5 -0.024034 -0.012534 -0.026238 0.000000 0.097445 0.000000
# 6 0.000000 0.000000 0.000000 -0.008795 0.000000 0.032470
#
#
# Mechanical properties :
#
#
# Convention : Reuss Voigt Hill
#
# Bulk Modulus (GPa) = 17.39332 67.26599 42.32965
# Shear Modulus (GPa) = 23.49956 39.60540 31.55248
#
# Velocity S-wave (km/s) = 3.06910 3.98435 3.55629
# Velocity P-wave (km/s) = 4.41938 6.93751 5.81635
#
# Compressibility (1/GPa) = 0.05749334
#
# Stress axis : x y z
#
# Youngs Moduli (GPa) = 49.29818 125.26932 61.79254
#
# Poissons Ratio (x) = -0.26422 -0.19520
# Poissons Ratio (y) = -0.10398 -0.07744
# Poissons Ratio (z) = -0.15573 -0.15699
#
# Static dielectric constant tensor:
#      x y z
#    x 2.118910 0.000000 -0.053540 
#    y 0.000000 2.106630 0.000000 
#    z -0.053540 0.000000 2.190830 
# 
# From -- ./inp_files/103844.got.cif
#   From: 2010.05.17/outbox.cif.g08.bks.cpg/sg15_52_cif.got.tgz:103844.got - 2010.06.03 18:47:42.
