data_PCOD9263019
_publ_section_title
;
Structure prediction by ZEFSAII (Michael W. Deem and Ramdas Pophale) SiO2 
 PCOD9263019
Probable space group: C 2/C
;
_chemical_formula_sum "Si O2"
_cell_formula_units_Z 40
_cell_length_a 12.611878
_cell_length_b 24.654847
_cell_length_c 9.294971
_cell_angle_alpha 90.000000
_cell_angle_beta 47.082674
_cell_angle_gamma 90.000000
_cell_volume 2116.611246
_symmetry_space_group_name_H-M "C 2/C"
_symmetry_group_IT_number 15
_symmetry_cell_setting 'monoclinic'
loop_
_space_group_symop_operation_xyz
x,y,z
-x,y,1/2-z
-x,-y,-z
x,-y,1/2+z
1/2+x,1/2+y,z
1/2-x,1/2+y,1/2-z
1/2-x,1/2-y,-z
1/2+x,1/2-y,1/2+z
loop_
_atom_site_type_symbol
_atom_site_label
_atom_site_fract_x
_atom_site_fract_y
_atom_site_fract_z
Si Si1 0.655790 0.398634 0.175899
Si Si2 0.866710 0.624859 0.075634
Si Si3 0.344443 0.030537 0.323554
Si Si4 0.810727 0.403036 0.310196
Si Si5 0.832120 0.697125 0.367746
O O1 0.500000 0.390282 0.250000
O O2 0.675503 0.395609 0.328683
O O3 0.722010 0.454394 0.052762
O O4 0.762060 0.352848 0.016976
O O5 0.827968 0.570934 0.203727
O O6 0.823451 0.677341 0.209480
O O7 0.795639 0.619985 0.984597
O O8 0.040823 0.622514 0.890964
O O9 0.500000 0.042835 0.250000
O O10 0.340112 0.967506 0.290592
O O11 0.750000 0.750000 0.500000
O O12 0.000000 0.702625 0.250000
#
# Coordination Sequence:
#
# PCOD9263019 Si02
#       5
#     8   8   8   8   8
#     4  11  23  38  56  86 126 161 203 238 294 365
#     4  10  19  33  59  93 117 149 204 256 287 347
#     4  11  18  33  58  89 119 168 206 233 288 357
#     4  11  19  33  61  89 123 155 200 249 292 343
#     4  11  22  42  65  86 110 154 206 249 302 359
#
# _framework density 18.898132
#
# number of rings (size 3 to 8) (size 9 to 14) (size 15 to 20)
#    0.000    1.200    6.000    3.600    0.000    0.800 
#    0.000    5.000    0.000    0.000    0.000    0.000 
#    0.000    0.000    0.000    0.000    0.000    0.000 
#
# Total GULP energy -111617.451921 kJ/mol
# GULP energy per Si atom -5580.872596 kJ/mol
# Density = 1.885512 g / cm^3
# Si number density = 18.898132 Si / 1000 Ang^3
#
#
#
# Elastic Constant Matrix: (Units=GPa)
#
#
# Indices 1 2 3 4 5 6 
#
# 1 174.2182 26.1536 65.8793 0.0000 18.3258 0.0000
# 2 26.1536 75.9859 46.9418 0.0000 3.4811 0.0000
# 3 65.8793 46.9418 81.6773 0.0000 22.0141 0.0000
# 4 0.0000 0.0000 0.0000 38.0461 0.0000 4.8164
# 5 18.3258 3.4811 22.0141 0.0000 44.3549 0.0000
# 6 0.0000 0.0000 0.0000 4.8164 0.0000 0.4720
#
#
#
# Elastic Compliance Matrix: (Units=1/GPa)
#
#
# Indices 1 2 3 4 5 6 
#
# 1 0.008459 0.002091 -0.008126 0.000000 0.000374 0.000000
# 2 0.002091 0.021876 -0.015658 0.000000 0.005191 0.000000
# 3 -0.008126 -0.015658 0.030662 0.000000 -0.010632 0.000000
# 4 0.000000 0.000000 0.000000 -0.090054 0.000000 0.918976
# 5 0.000374 0.005191 -0.010632 0.000000 0.027260 0.000000
# 6 0.000000 0.000000 0.000000 0.918976 0.000000 -7.259197
#
#
# Mechanical properties :
#
#
# Convention : Reuss Voigt Hill
#
# Bulk Modulus (GPa) = 56.78038 67.75897 62.26967
# Shear Modulus (GPa) = -0.69331 29.43506 14.37087
#
# Velocity S-wave (km/s) = -0.60635 3.95088 2.76060
# Velocity P-wave (km/s) = 5.44247 7.53295 6.57137
#
# Compressibility (1/GPa) = 0.01761172
#
# Stress axis : x y z
#
# Youngs Moduli (GPa) = 118.21233 45.71226 32.61374
#
# Poissons Ratio (x) = -0.09558 0.26501
# Poissons Ratio (y) = -0.24718 0.51067
# Poissons Ratio (z) = 0.96055 0.71577
#
# Static dielectric constant tensor:
#      x y z
#    x 1.675120 0.000000 0.023650 
#    y 0.000000 1.672900 0.000000 
#    z 0.023650 0.000000 1.719740 
# 
# From -- ./inp_files/33306.got.cif
#   From: 2010.05.17/outbox.cif.g08.bks.cpg/sg15_17_cif.got.tgz:33306.got - 2010.06.03 18:47:42.
