data_PCOD9263101
_publ_section_title
;
Structure prediction by ZEFSAII (Michael W. Deem and Ramdas Pophale) SiO2 
 PCOD9263101
Probable space group: C 2/C
;
_chemical_formula_sum "Si O2"
_cell_formula_units_Z 52
_cell_length_a 15.871591
_cell_length_b 29.790297
_cell_length_c 18.142890
_cell_angle_alpha 90.000000
_cell_angle_beta 19.089376
_cell_angle_gamma 90.000000
_cell_volume 2805.473647
_symmetry_space_group_name_H-M "C 2/C"
_symmetry_group_IT_number 15
_symmetry_cell_setting 'monoclinic'
loop_
_space_group_symop_operation_xyz
x,y,z
-x,y,1/2-z
-x,-y,-z
x,-y,1/2+z
1/2+x,1/2+y,z
1/2-x,1/2+y,1/2-z
1/2-x,1/2-y,-z
1/2+x,1/2-y,1/2+z
loop_
_atom_site_type_symbol
_atom_site_label
_atom_site_fract_x
_atom_site_fract_y
_atom_site_fract_z
Si Si1 0.335718 0.148655 0.720117
Si Si2 0.197259 0.498183 0.733142
Si Si3 0.120676 0.240042 0.865441
Si Si4 0.145035 0.799344 0.697079
Si Si5 0.000000 0.542364 0.750000
Si Si6 0.443160 0.073209 0.046189
Si Si7 0.600290 0.608667 0.055250
O O1 0.130330 0.187101 0.873761
O O2 0.587027 0.175318 0.541000
O O3 0.405500 0.119703 0.590300
O O4 0.243292 0.115030 0.859236
O O5 0.500000 0.500000 0.500000
O O6 0.119368 0.512214 0.715545
O O7 0.093174 0.449425 0.844361
O O8 0.072512 0.535407 0.889197
O O9 0.317460 0.246226 0.631293
O O10 0.281243 0.267520 0.795702
O O11 0.000000 0.774826 0.750000
O O12 0.955274 0.840844 0.872778
O O13 0.225496 0.576833 0.538423
O O14 0.165455 0.084375 0.242060
#
# Coordination Sequence:
#
# PCOD9263101 Si02
#       7
#     8   8   8   8   4   8   8
#     4  10  19  34  49  69  99 143 186 235 276 329
#     4  11  22  40  54  79 108 134 185 245 293 343
#     4  10  20  34  48  70 102 146 191 237 281 322
#     4  10  21  31  45  67 104 144 186 239 273 317
#     4  12  22  34  60  78 104 150 188 238 286 350
#     4  10  21  37  56  72 106 142 181 243 293 335
#     4  11  20  35  51  76 104 142 195 232 277 332
#
# _framework density 18.535195000000002
#
# number of rings (size 3 to 8) (size 9 to 14) (size 15 to 20)
#    0.000    1.538    4.615    0.923    2.154    2.462 
#    1.385    0.000    0.000    0.000    0.000    0.000 
#    0.000    0.000    0.000   12.462    2.462   17.385 
#
# Total GULP energy -144855.916575 kJ/mol
# GULP energy per Si atom -5571.381407 kJ/mol
# Density = 1.849301 g / cm^3
# Si number density = 18.535195 Si / 1000 Ang^3
#
#
#
# Elastic Constant Matrix: (Units=GPa)
#
#
# Indices 1 2 3 4 5 6 
#
# 1 45.9691 23.7963 25.8989 0.0274 -2.2568 0.0086
# 2 23.7963 72.5850 34.7176 0.0560 -4.2234 0.0318
# 3 25.8989 34.7176 82.2621 -0.1799 14.3314 -0.1365
# 4 0.0274 0.0560 -0.1799 38.9531 0.0313 12.9883
# 5 -2.2568 -4.2234 14.3314 0.0313 13.2873 0.0330
# 6 0.0086 0.0318 -0.1365 12.9883 0.0330 23.4283
#
#
#
# Elastic Compliance Matrix: (Units=1/GPa)
#
#
# Indices 1 2 3 4 5 6 
#
# 1 0.030570 -0.004077 -0.010569 -0.000058 0.015296 -0.000057
# 2 -0.004077 0.021311 -0.010799 -0.000066 0.017729 -0.000079
# 3 -0.010569 -0.010799 0.025801 0.000119 -0.033056 0.000149
# 4 -0.000058 -0.000066 0.000119 0.031494 -0.000190 -0.017459
# 5 0.015296 0.017729 -0.033056 -0.000190 0.119148 -0.000285
# 6 -0.000057 -0.000079 0.000149 -0.017459 -0.000285 0.052364
#
#
# Mechanical properties :
#
#
# Convention : Reuss Voigt Hill
#
# Bulk Modulus (GPa) = 37.32576 41.07130 39.19853
# Shear Modulus (GPa) = 14.68401 22.89398 18.78900
#
# Velocity S-wave (km/s) = 2.81770 3.51830 3.18731
# Velocity P-wave (km/s) = 5.54684 6.22184 5.89401
#
# Compressibility (1/GPa) = 0.02679115
#
# Stress axis : x y z
#
# Youngs Moduli (GPa) = 32.71234 46.92518 38.75842
#
# Poissons Ratio (x) = 0.19130 0.40963
# Poissons Ratio (y) = 0.13336 0.41856
# Poissons Ratio (z) = 0.34573 0.50676
#
# Static dielectric constant tensor:
#      x y z
#    x 1.647130 0.000070 0.071560 
#    y 0.000070 1.670950 0.000290 
#    z 0.071560 0.000290 1.734190 
# 
# From -- ./inp_files/207607.got.cif
#   From: 2010.05.17/outbox.cif.g08.bks.cpg/sg15_104_cif.got.tgz:207607.got - 2010.06.03 18:47:42.
