data_PCOD9263426
_publ_section_title
;
Structure prediction by ZEFSAII (Michael W. Deem and Ramdas Pophale) SiO2 
 PCOD9263426
Probable space group: C 2/C
;
_chemical_formula_sum "Si O2"
_cell_formula_units_Z 56
_cell_length_a 13.351758
_cell_length_b 7.032898
_cell_length_c 30.401403
_cell_angle_alpha 90.000000
_cell_angle_beta 60.994633
_cell_angle_gamma 90.000000
_cell_volume 2496.681273
_symmetry_space_group_name_H-M "C 2/C"
_symmetry_group_IT_number 15
_symmetry_cell_setting 'monoclinic'
loop_
_space_group_symop_operation_xyz
x,y,z
-x,y,1/2-z
-x,-y,-z
x,-y,1/2+z
1/2+x,1/2+y,z
1/2-x,1/2+y,1/2-z
1/2-x,1/2-y,-z
1/2+x,1/2-y,1/2+z
loop_
_atom_site_type_symbol
_atom_site_label
_atom_site_fract_x
_atom_site_fract_y
_atom_site_fract_z
Si Si1 0.662422 0.939029 0.549693
Si Si2 0.218749 0.016794 0.556619
Si Si3 0.482041 0.591223 0.124814
Si Si4 0.279221 0.855931 0.628025
Si Si5 0.537030 0.145523 0.347734
Si Si6 0.391612 0.474070 0.055505
Si Si7 0.033856 0.664565 0.693487
O O1 0.678061 0.028067 0.498260
O O2 0.668133 0.708964 0.547133
O O3 0.545766 0.965894 0.600360
O O4 0.775129 0.989819 0.553756
O O5 0.112216 0.874181 0.579620
O O6 0.251068 0.027401 0.600852
O O7 0.477874 0.372767 0.144225
O O8 0.406595 0.598658 0.096830
O O9 0.462998 0.720198 0.171309
O O10 0.335445 0.899383 0.662664
O O11 0.373036 0.735029 0.580214
O O12 0.166027 0.727310 0.658496
O O13 0.496107 0.054821 0.310861
O O14 0.500000 0.500000 0.000000
O O15 0.000000 0.713355 0.750000
#
# Coordination Sequence:
#
# PCOD9263426 Si02
#       7
#     8   8   8   8   8   8   8
#     4  10  19  34  56  86 126 169 204 243 312 374
#     4   9  19  34  54  85 122 164 205 246 298 379
#     4   9  21  39  61  90 130 159 207 265 314 378
#     4  10  23  41  58  90 126 158 216 264 311 386
#     4  10  22  42  61  91 126 160 204 269 316 377
#     4  11  20  35  59  92 129 171 203 251 318 387
#     4  11  24  46  68  91 117 165 220 271 331 388
#
# _framework density 22.429777000000001
#
# number of rings (size 3 to 8) (size 9 to 14) (size 15 to 20)
#    0.000    2.000    2.857    0.000    4.000    2.857 
#    5.143    0.000    0.000    0.000    0.000    0.000 
#    0.000    0.000    0.000    0.000    0.000    0.000 
#
# Total GULP energy -156093.871375 kJ/mol
# GULP energy per Si atom -5574.781121 kJ/mol
# Density = 2.237873 g / cm^3
# Si number density = 22.429777 Si / 1000 Ang^3
#
#
#
# Elastic Constant Matrix: (Units=GPa)
#
#
# Indices 1 2 3 4 5 6 
#
# 1 101.1951 12.4432 23.5739 0.0000 9.7700 0.0000
# 2 12.4432 60.9688 28.3766 0.0000 5.4029 0.0000
# 3 23.5739 28.3766 103.4913 0.0000 21.5031 0.0000
# 4 0.0000 0.0000 0.0000 22.3771 0.0000 13.0486
# 5 9.7700 5.4029 21.5031 0.0000 18.5121 0.0000
# 6 0.0000 0.0000 0.0000 13.0486 0.0000 32.5169
#
#
#
# Elastic Compliance Matrix: (Units=1/GPa)
#
#
# Indices 1 2 3 4 5 6 
#
# 1 0.010704 -0.001238 -0.001318 0.000000 -0.003757 0.000000
# 2 -0.001238 0.018951 -0.005142 0.000000 0.001095 0.000000
# 3 -0.001318 -0.005142 0.014389 0.000000 -0.014518 0.000000
# 4 0.000000 0.000000 0.000000 0.058340 0.000000 -0.023411
# 5 -0.003757 0.001095 -0.014518 0.000000 0.072545 0.000000
# 6 0.000000 0.000000 0.000000 -0.023411 0.000000 0.040148
#
#
# Mechanical properties :
#
#
# Convention : Reuss Voigt Hill
#
# Bulk Modulus (GPa) = 34.90675 43.82695 39.36685
# Shear Modulus (GPa) = 20.83149 28.09867 24.46508
#
# Velocity S-wave (km/s) = 3.05083 3.54325 3.30622
# Velocity P-wave (km/s) = 5.29213 6.02673 5.67134
#
# Compressibility (1/GPa) = 0.02864775
#
# Stress axis : x y z
#
# Youngs Moduli (GPa) = 93.42382 52.76895 69.49700
#
# Poissons Ratio (x) = 0.06534 0.09161
# Poissons Ratio (y) = 0.11567 0.35732
# Poissons Ratio (z) = 0.12315 0.27131
#
# Static dielectric constant tensor:
#      x y z
#    x 1.882110 0.000000 0.008870 
#    y 0.000000 1.948920 0.000000 
#    z 0.008870 0.000000 1.855010 
# 
# From -- ./inp_files/295069.got.cif
#   From: 2010.05.17/outbox.cif.g08.bks.cpg/sg15_148_cif.got.tgz:295069.got - 2010.06.03 18:47:42.
