data_PCOD9263462
_publ_section_title
;
Structure prediction by ZEFSAII (Michael W. Deem and Ramdas Pophale) SiO2 
 PCOD9263462
Probable space group: C 2/C
;
_chemical_formula_sum "Si O2"
_cell_formula_units_Z 56
_cell_length_a 10.299281
_cell_length_b 32.196229
_cell_length_c 22.878280
_cell_angle_alpha 90.000000
_cell_angle_beta 155.550343
_cell_angle_gamma 90.000000
_cell_volume 3139.958719
_symmetry_space_group_name_H-M "C 2/C"
_symmetry_group_IT_number 15
_symmetry_cell_setting 'monoclinic'
loop_
_space_group_symop_operation_xyz
x,y,z
-x,y,1/2-z
-x,-y,-z
x,-y,1/2+z
1/2+x,1/2+y,z
1/2-x,1/2+y,1/2-z
1/2-x,1/2-y,-z
1/2+x,1/2-y,1/2+z
loop_
_atom_site_type_symbol
_atom_site_label
_atom_site_fract_x
_atom_site_fract_y
_atom_site_fract_z
Si Si1 0.845364 0.562490 0.411052
Si Si2 0.925264 0.481128 0.064803
Si Si3 0.155998 0.879452 0.135457
Si Si4 0.809078 0.971738 0.338696
Si Si5 0.153656 0.777171 0.374209
Si Si6 0.631254 0.627607 0.865060
Si Si7 0.636476 0.288030 0.119556
O O1 0.500000 0.575069 0.250000
O O2 0.866793 0.551381 0.488654
O O3 0.934710 0.521534 0.410707
O O4 0.095796 0.597984 0.501042
O O5 0.169333 0.468057 0.215301
O O6 0.589144 0.495032 0.953593
O O7 0.500000 0.879609 0.250000
O O8 0.050777 0.927134 0.082767
O O9 0.010824 0.835315 0.055481
O O10 0.143572 0.873455 0.199999
O O11 0.500000 0.982140 0.250000
O O12 0.251679 0.825400 0.407746
O O13 0.435046 0.746231 0.503593
O O14 0.000000 0.765008 0.250000
O O15 0.922382 0.777890 0.335841
O O16 0.500000 0.612474 0.750000
O O17 0.000000 0.286551 0.250000
#
# Coordination Sequence:
#
# PCOD9263462 Si02
#       7
#     8   8   8   8   8   8   8
#     4  11  22  34  53  76 112 139 179 225 271 319
#     4  11  22  36  52  81 104 142 181 226 274 318
#     4   9  18  33  55  78 102 139 182 223 265 321
#     4  11  21  36  57  77 107 143 186 228 270 319
#     4   9  19  34  55  85 112 138 181 225 270 322
#     4  10  19  34  57  80 107 144 182 226 267 323
#     4   9  18  34  56  80 110 145 180 216 274 330
#
# _framework density 17.834630000000001
#
# number of rings (size 3 to 8) (size 9 to 14) (size 15 to 20)
#    0.000    2.000    2.857    1.286    0.000    1.143 
#    0.000    0.000    0.000   21.429    0.000    0.000 
#    0.000    0.000    0.000    0.000    0.000    0.000 
#
# Total GULP energy -155921.814007 kJ/mol
# GULP energy per Si atom -5568.636215 kJ/mol
# Density = 1.779404 g / cm^3
# Si number density = 17.834630 Si / 1000 Ang^3
#
#
#
# Elastic Constant Matrix: (Units=GPa)
#
#
# Indices 1 2 3 4 5 6 
#
# 1 65.9168 19.4910 28.9876 0.0529 7.3050 0.0005
# 2 19.4910 66.1150 36.0985 -0.0965 0.5562 -0.0176
# 3 28.9876 36.0985 77.0917 -0.1587 -3.0578 -0.0369
# 4 0.0529 -0.0965 -0.1587 50.3555 0.0519 7.0723
# 5 7.3050 0.5562 -3.0578 0.0519 25.8370 0.0092
# 6 0.0005 -0.0176 -0.0369 7.0723 0.0092 23.8153
#
#
#
# Elastic Compliance Matrix: (Units=1/GPa)
#
#
# Indices 1 2 3 4 5 6 
#
# 1 0.019353 -0.002077 -0.006551 -0.000039 -0.006202 0.000002
# 2 -0.002077 0.020607 -0.008905 0.000015 -0.000910 -0.000003
# 3 -0.006551 -0.008905 0.019778 0.000046 0.004384 0.000009
# 4 -0.000039 0.000015 0.000046 0.020723 -0.000023 -0.006154
# 5 -0.006202 -0.000910 0.004384 -0.000023 0.040996 -0.000003
# 6 0.000002 -0.000003 0.000009 -0.006154 -0.000003 0.043817
#
#
# Mechanical properties :
#
#
# Convention : Reuss Voigt Hill
#
# Bulk Modulus (GPa) = 40.52770 42.03086 41.27928
# Shear Modulus (GPa) = 23.97355 28.30464 26.13909
#
# Velocity S-wave (km/s) = 3.67033 3.98811 3.83252
# Velocity P-wave (km/s) = 6.38242 6.69514 6.54065
#
# Compressibility (1/GPa) = 0.02467448
#
# Stress axis : x y z
#
# Youngs Moduli (GPa) = 51.67223 48.52751 50.56048
#
# Poissons Ratio (x) = 0.10077 0.33120
# Poissons Ratio (y) = 0.10730 0.45022
# Poissons Ratio (z) = 0.33849 0.43211
#
# Static dielectric constant tensor:
#      x y z
#    x 1.675420 0.000010 -0.001740 
#    y 0.000010 1.644940 0.000000 
#    z -0.001740 0.000000 1.567890 
# 
# From -- ./inp_files/139465.got.cif
#   From: 2010.05.17/outbox.cif.g08.bks.cpg/sg15_70_cif.got.tgz:139465.got - 2010.06.03 18:47:42.
