data_PCOD9263330
_publ_section_title
;
Structure prediction by ZEFSAII (Michael W. Deem and Ramdas Pophale) SiO2 
 PCOD9263330
Probable space group: C 2/C
;
_chemical_formula_sum "Si O2"
_cell_formula_units_Z 64
_cell_length_a 20.762141
_cell_length_b 9.295540
_cell_length_c 31.282121
_cell_angle_alpha 90.000000
_cell_angle_beta 35.270973
_cell_angle_gamma 90.000000
_cell_volume 3486.204715
_symmetry_space_group_name_H-M "C 2/C"
_symmetry_group_IT_number 15
_symmetry_cell_setting 'monoclinic'
loop_
_space_group_symop_operation_xyz
x,y,z
-x,y,1/2-z
-x,-y,-z
x,-y,1/2+z
1/2+x,1/2+y,z
1/2-x,1/2+y,1/2-z
1/2-x,1/2-y,-z
1/2+x,1/2-y,1/2+z
loop_
_atom_site_type_symbol
_atom_site_label
_atom_site_fract_x
_atom_site_fract_y
_atom_site_fract_z
Si Si1 0.342281 0.841483 0.243262
Si Si2 0.056060 0.455861 0.538537
Si Si3 0.898963 0.345211 0.410199
Si Si4 0.652014 0.319267 0.410039
Si Si5 0.001071 0.144241 0.911928
Si Si6 0.173113 0.085189 0.994222
Si Si7 0.847953 0.524896 0.599792
Si Si8 0.804437 0.004583 0.244229
O O1 0.474681 0.857501 0.174396
O O2 0.271509 0.861517 0.324934
O O3 0.290182 0.954364 0.237993
O O4 0.316538 0.677474 0.241012
O O5 0.116716 0.552025 0.540198
O O6 0.131849 0.406456 0.457295
O O7 0.006496 0.315450 0.587965
O O8 0.955994 0.548434 0.571301
O O9 0.877345 0.186514 0.441072
O O10 0.805149 0.392364 0.427600
O O11 0.558977 0.377010 0.427251
O O12 0.637348 0.364347 0.466496
O O13 0.649159 0.146437 0.409738
O O14 0.083843 0.069497 0.833452
O O15 0.880824 0.071589 0.972554
O O16 0.738325 0.553747 0.686739
#
# Coordination Sequence:
#
# PCOD9263330 Si02
#       8
#     8   8   8   8   8   8   8   8
#     4  10  20  35  56  85 110 147 182 237 286 327
#     4  10  19  35  55  83 107 147 186 230 281 329
#     4  11  22  36  58  76 116 154 185 220 277 347
#     4   9  19  35  57  83 111 139 191 239 279 327
#     4  10  21  35  57  85 114 142 190 241 276 320
#     4  11  22  38  53  81 113 154 187 222 276 339
#     4   9  17  32  57  80 110 140 183 232 285 332
#     4  10  19  34  55  84 114 141 183 235 287 328
#
# _framework density 18.358073000000001
#
# number of rings (size 3 to 8) (size 9 to 14) (size 15 to 20)
#    0.000    2.000    3.750    1.125    0.000    1.000 
#    4.500    0.000    0.000    0.750    0.000    0.000 
#    0.000    0.000    0.000    0.000    0.000    0.000 
#
# Total GULP energy -178364.112769 kJ/mol
# GULP energy per Si atom -5573.878524 kJ/mol
# Density = 1.831629 g / cm^3
# Si number density = 18.358073 Si / 1000 Ang^3
#
#
#
# Elastic Constant Matrix: (Units=GPa)
#
#
# Indices 1 2 3 4 5 6 
#
# 1 35.3999 15.6686 7.6290 -0.0001 -7.0795 0.0007
# 2 15.6686 42.7509 7.0512 0.0001 -5.9009 0.0001
# 3 7.6290 7.0512 58.3068 -0.0001 -13.8084 0.0001
# 4 -0.0001 0.0001 -0.0001 24.1294 -0.0001 -1.8478
# 5 -7.0795 -5.9009 -13.8084 -0.0001 29.4038 0.0002
# 6 0.0007 0.0001 0.0001 -1.8478 0.0002 15.9687
#
#
#
# Elastic Compliance Matrix: (Units=1/GPa)
#
#
# Indices 1 2 3 4 5 6 
#
# 1 0.034898 -0.011764 -0.001927 0.000000 0.005137 -0.000002
# 2 -0.011764 0.028229 -0.001354 0.000000 0.002197 0.000000
# 3 -0.001927 -0.001354 0.019569 0.000000 0.008454 0.000000
# 4 0.000000 0.000000 0.000000 0.041814 0.000000 0.004838
# 5 0.005137 0.002197 0.008454 0.000000 0.039657 -0.000001
# 6 -0.000002 0.000000 0.000000 0.004838 -0.000001 0.063182
#
#
# Mechanical properties :
#
#
# Convention : Reuss Voigt Hill
#
# Bulk Modulus (GPa) = 19.00928 21.90615 20.45771
# Shear Modulus (GPa) = 18.18348 20.97428 19.57888
#
# Velocity S-wave (km/s) = 3.15062 3.38377 3.26927
# Velocity P-wave (km/s) = 4.85926 5.21777 5.04170
#
# Compressibility (1/GPa) = 0.05260589
#
# Stress axis : x y z
#
# Youngs Moduli (GPa) = 28.65498 35.42400 51.10197
#
# Poissons Ratio (x) = 0.41671 0.09848
# Poissons Ratio (y) = 0.33709 0.06921
# Poissons Ratio (z) = 0.05522 0.04798
#
# Static dielectric constant tensor:
#      x y z
#    x 1.616700 0.000000 0.003670 
#    y 0.000000 1.629080 0.000000 
#    z 0.003670 0.000000 1.682100 
# 
# From -- ./inp_files/315684.got.cif
#   From: 2010.05.17/outbox.cif.g08.bks.cpg/sg15_158_cif.got.tgz:315684.got - 2010.06.03 18:47:42.
