data_PCOD9263955
_publ_section_title
;
Structure prediction by ZEFSAII (Michael W. Deem and Ramdas Pophale) SiO2 
 PCOD9263955
Probable space group: C 2/C
;
_chemical_formula_sum "Si O2"
_cell_formula_units_Z 40
_cell_length_a 11.903327
_cell_length_b 9.916428
_cell_length_c 13.646200
_cell_angle_alpha 90.000000
_cell_angle_beta 92.844180
_cell_angle_gamma 90.000000
_cell_volume 1608.792578
_symmetry_space_group_name_H-M "C 2/C"
_symmetry_group_IT_number 15
_symmetry_cell_setting 'monoclinic'
loop_
_space_group_symop_operation_xyz
x,y,z
-x,y,1/2-z
-x,-y,-z
x,-y,1/2+z
1/2+x,1/2+y,z
1/2-x,1/2+y,1/2-z
1/2-x,1/2-y,-z
1/2+x,1/2-y,1/2+z
loop_
_atom_site_type_symbol
_atom_site_label
_atom_site_fract_x
_atom_site_fract_y
_atom_site_fract_z
Si Si1 0.810568 0.402504 0.334924
Si Si2 0.467316 0.126842 0.361424
Si Si3 0.118642 0.821408 0.465989
Si Si4 0.725745 0.312720 0.833167
Si Si5 0.009216 0.079418 0.367408
O O1 0.930890 0.469394 0.364570
O O2 0.740621 0.351623 0.425821
O O3 0.744051 0.535276 0.292097
O O4 0.803922 0.295133 0.249356
O O5 0.500000 0.154654 0.250000
O O6 0.568496 0.178633 0.431135
O O7 0.350847 0.205897 0.380853
O O8 0.094880 0.860767 0.576950
O O9 0.038586 0.929541 0.404172
O O10 0.619348 0.330638 0.898564
O O11 0.000000 0.086113 0.250000
#
# Coordination Sequence:
#
# PCOD9263955 Si02
#       5
#     8   8   8   8   8
#     4   9  19  36  61  97 124 175 217 260 325 392
#     4  10  19  34  67  90 132 172 211 265 322 378
#     4  10  19  38  61  96 128 167 220 268 324 387
#     4   9  20  36  61  94 128 168 224 255 330 387
#     4  10  22  37  59  92 132 164 213 279 323 379
#
# _framework density 24.863367
#
# number of rings (size 3 to 8) (size 9 to 14) (size 15 to 20)
#    1.200    1.200    2.000    0.600    2.800    1.600 
#    0.000    1.000    0.000    6.000    0.000    0.000 
#    0.000    0.000    0.000    0.000    0.000    0.000 
#
# Total GULP energy -111687.852012 kJ/mol
# GULP energy per Si atom -5584.392601 kJ/mol
# Density = 2.480678 g / cm^3
# Si number density = 24.863367 Si / 1000 Ang^3
#
#
#
# Elastic Constant Matrix: (Units=GPa)
#
#
# Indices 1 2 3 4 5 6 
#
# 1 108.8164 33.9408 9.9302 0.0000 -5.4896 0.0000
# 2 33.9408 104.3623 41.4823 0.0000 4.1617 0.0000
# 3 9.9302 41.4823 97.4649 0.0000 4.1159 0.0000
# 4 0.0000 0.0000 0.0000 28.5538 0.0000 1.0195
# 5 -5.4896 4.1617 4.1159 0.0000 35.3547 0.0000
# 6 0.0000 0.0000 0.0000 1.0195 0.0000 44.9693
#
#
#
# Elastic Compliance Matrix: (Units=1/GPa)
#
#
# Indices 1 2 3 4 5 6 
#
# 1 0.010381 -0.003613 0.000396 0.000000 0.001991 0.000000
# 2 -0.003613 0.012813 -0.005022 0.000000 -0.001484 0.000000
# 3 0.000396 -0.005022 0.012391 0.000000 -0.000790 0.000000
# 4 0.000000 0.000000 0.000000 0.035050 0.000000 -0.000795
# 5 0.001991 -0.001484 -0.000790 0.000000 0.028861 0.000000
# 6 0.000000 0.000000 0.000000 -0.000795 0.000000 0.022255
#
#
# Mechanical properties :
#
#
# Convention : Reuss Voigt Hill
#
# Bulk Modulus (GPa) = 52.34082 53.48337 52.91209
# Shear Modulus (GPa) = 34.57875 36.79489 35.68682
#
# Velocity S-wave (km/s) = 3.73332 3.85110 3.79267
# Velocity P-wave (km/s) = 6.29926 6.42901 6.36447
#
# Compressibility (1/GPa) = 0.01910555
#
# Stress axis : x y z
#
# Youngs Moduli (GPa) = 96.32981 78.04870 80.70564
#
# Poissons Ratio (x) = 0.28198 -0.03196
# Poissons Ratio (y) = 0.34803 0.40533
# Poissons Ratio (z) = -0.03814 0.39199
#
# Static dielectric constant tensor:
#      x y z
#    x 2.080640 0.000000 0.031490 
#    y 0.000000 1.994590 0.000000 
#    z 0.031490 0.000000 1.943230 
# 
# From -- ./inp_files/151260.got.cif
#   From: 2010.05.17/outbox.cif.g08.bks.cpg/sg15_76_cif.got.tgz:151260.got - 2010.06.03 18:47:42.
