data_PCOD9263777
_publ_section_title
;
Structure prediction by ZEFSAII (Michael W. Deem and Ramdas Pophale) SiO2 
 PCOD9263777
Probable space group: C 2/C
;
_chemical_formula_sum "Si O2"
_cell_formula_units_Z 56
_cell_length_a 8.946619
_cell_length_b 22.069847
_cell_length_c 14.265982
_cell_angle_alpha 90.000000
_cell_angle_beta 75.186920
_cell_angle_gamma 90.000000
_cell_volume 2723.208398
_symmetry_space_group_name_H-M "C 2/C"
_symmetry_group_IT_number 15
_symmetry_cell_setting 'monoclinic'
loop_
_space_group_symop_operation_xyz
x,y,z
-x,y,1/2-z
-x,-y,-z
x,-y,1/2+z
1/2+x,1/2+y,z
1/2-x,1/2+y,1/2-z
1/2-x,1/2-y,-z
1/2+x,1/2-y,1/2+z
loop_
_atom_site_type_symbol
_atom_site_label
_atom_site_fract_x
_atom_site_fract_y
_atom_site_fract_z
Si Si1 0.858648 0.744382 0.842785
Si Si2 0.102304 0.060200 0.496704
Si Si3 0.345180 0.970489 0.121111
Si Si4 0.618030 0.834834 0.814944
Si Si5 0.669266 0.446984 0.771888
Si Si6 0.920216 0.592989 0.015042
Si Si7 0.360410 0.657273 0.505930
O O1 0.722783 0.776290 0.805872
O O2 0.767264 0.690349 0.908947
O O3 0.000000 0.730797 0.750000
O O4 0.903618 0.794240 0.917005
O O5 0.221627 0.047982 0.561134
O O6 0.173209 0.064211 0.381701
O O7 0.004356 0.122096 0.527840
O O8 0.000000 0.000000 0.500000
O O9 0.255032 0.990633 0.228514
O O10 0.430755 0.032854 0.076779
O O11 0.474833 0.918912 0.092449
O O12 0.500000 0.832958 0.750000
O O13 0.736900 0.889970 0.782284
O O14 0.535312 0.849869 0.927573
O O15 0.500000 0.447682 0.750000
O O16 0.741482 0.602712 0.020313
#
# Coordination Sequence:
#
# PCOD9263777 Si02
#       7
#     8   8   8   8   8   8   8
#     4  10  21  40  63  84 110 152 200 246 294 345
#     4  12  20  35  58  83 118 154 196 238 287 351
#     4  10  20  34  54  82 121 152 192 231 285 345
#     4  10  19  34  60  87 110 142 198 245 283 341
#     4  11  20  34  55  85 113 158 199 231 280 349
#     4   9  18  35  53  81 118 151 181 238 285 341
#     4  10  21  39  61  85 113 152 198 242 292 354
#
# _framework density 20.563979
#
# number of rings (size 3 to 8) (size 9 to 14) (size 15 to 20)
#    0.000    1.714    2.857    3.857    0.000    0.000 
#    2.571    1.429    0.000    6.000    0.000    0.000 
#    0.000    0.000    0.000    0.000    0.000    0.000 
#
# Total GULP energy -156011.763452 kJ/mol
# GULP energy per Si atom -5571.848695 kJ/mol
# Density = 2.051717 g / cm^3
# Si number density = 20.563979 Si / 1000 Ang^3
#
#
#
# Elastic Constant Matrix: (Units=GPa)
#
#
# Indices 1 2 3 4 5 6 
#
# 1 54.4022 16.8826 18.3429 0.0000 0.7229 0.0000
# 2 16.8826 44.6556 35.4969 0.0000 -16.2953 0.0000
# 3 18.3429 35.4969 77.0748 0.0000 -24.2243 0.0000
# 4 0.0000 0.0000 0.0000 19.9029 0.0000 -6.1038
# 5 0.7229 -16.2953 -24.2243 0.0000 22.5101 0.0000
# 6 0.0000 0.0000 0.0000 -6.1038 0.0000 18.0912
#
#
#
# Elastic Compliance Matrix: (Units=1/GPa)
#
#
# Indices 1 2 3 4 5 6 
#
# 1 0.023300 -0.009372 -0.005435 0.000000 -0.013381 0.000000
# 2 -0.009372 0.041456 -0.011085 0.000000 0.018383 0.000000
# 3 -0.005435 -0.011085 0.025546 0.000000 0.019642 0.000000
# 4 0.000000 0.000000 0.000000 0.056043 0.000000 0.018908
# 5 -0.013381 0.018383 0.019642 0.000000 0.079299 0.000000
# 6 0.000000 0.000000 0.000000 0.018908 0.000000 0.061655
#
#
# Mechanical properties :
#
#
# Convention : Reuss Voigt Hill
#
# Bulk Modulus (GPa) = 25.96040 35.28638 30.62339
# Shear Modulus (GPa) = 14.20772 19.12819 16.66795
#
# Velocity S-wave (km/s) = 2.63136 3.05319 2.85009
# Velocity P-wave (km/s) = 4.67800 5.44297 5.07492
#
# Compressibility (1/GPa) = 0.03852021
#
# Stress axis : x y z
#
# Youngs Moduli (GPa) = 42.91807 24.12196 39.14488
#
# Poissons Ratio (x) = 0.22607 0.21274
# Poissons Ratio (y) = 0.40222 0.43390
# Poissons Ratio (z) = 0.23324 0.26738
#
# Static dielectric constant tensor:
#      x y z
#    x 1.758490 0.000000 -0.024690 
#    y 0.000000 1.794180 0.000000 
#    z -0.024690 0.000000 1.667110 
# 
# From -- ./inp_files/137276.got.cif
#   From: 2010.05.17/outbox.cif.g08.bks.cpg/sg15_69_cif.got.tgz:137276.got - 2010.06.03 18:47:42.
