data_PCOD9263723
_publ_section_title
;
Structure prediction by ZEFSAII (Michael W. Deem and Ramdas Pophale) SiO2 
 PCOD9263723
Probable space group: C 2/C
;
_chemical_formula_sum "Si O2"
_cell_formula_units_Z 56
_cell_length_a 17.112795
_cell_length_b 5.200459
_cell_length_c 26.433855
_cell_angle_alpha 90.000000
_cell_angle_beta 83.395048
_cell_angle_gamma 90.000000
_cell_volume 2336.851055
_symmetry_space_group_name_H-M "C 2/C"
_symmetry_group_IT_number 15
_symmetry_cell_setting 'monoclinic'
loop_
_space_group_symop_operation_xyz
x,y,z
-x,y,1/2-z
-x,-y,-z
x,-y,1/2+z
1/2+x,1/2+y,z
1/2-x,1/2+y,1/2-z
1/2-x,1/2-y,-z
1/2+x,1/2-y,1/2+z
loop_
_atom_site_type_symbol
_atom_site_label
_atom_site_fract_x
_atom_site_fract_y
_atom_site_fract_z
Si Si1 0.245732 0.096519 0.639658
Si Si2 0.317711 0.247356 0.929997
Si Si3 0.789115 0.260971 0.723243
Si Si4 0.452296 0.160406 0.839599
Si Si5 0.404855 0.206267 0.593803
Si Si6 0.590850 0.326472 0.212850
Si Si7 0.138631 0.181439 0.961619
O O1 0.324423 0.258107 0.630971
O O2 0.174237 0.196476 0.677518
O O3 0.209949 0.027959 0.587932
O O4 0.272933 0.834050 0.666517
O O5 0.374783 0.147673 0.881567
O O6 0.232222 0.120981 0.945752
O O7 0.364922 0.262318 0.978510
O O8 0.765804 0.529584 0.753134
O O9 0.877987 0.188718 0.732107
O O10 0.524304 0.189864 0.872513
O O11 0.443323 0.404758 0.803354
O O12 0.458039 0.909450 0.804665
O O13 0.410740 0.437887 0.553607
O O14 0.388712 0.935346 0.566727
#
# Coordination Sequence:
#
# PCOD9263723 Si02
#       7
#     8   8   8   8   8   8   8
#     4   9  20  37  61  83 110 146 186 230 278 332
#     4   9  20  37  59  83 111 148 190 232 277 329
#     4  10  19  34  59  89 111 137 185 236 276 325
#     4  11  22  37  58  83 115 150 185 227 281 334
#     4  11  23  38  56  83 116 150 186 230 281 330
#     4  10  20  37  59  83 110 145 187 229 274 332
#     4  10  22  38  57  82 113 148 191 234 274 326
#
# _framework density 23.963871000000001
#
# number of rings (size 3 to 8) (size 9 to 14) (size 15 to 20)
#    0.000    2.000    0.000    4.286    0.000   12.000 
#    0.000    0.714    0.000    5.143    0.000    0.000 
#    0.000    0.000    0.000    0.000    0.000    0.000 
#
# Total GULP energy -156511.201090 kJ/mol
# GULP energy per Si atom -5589.685753 kJ/mol
# Density = 2.390933 g / cm^3
# Si number density = 23.963871 Si / 1000 Ang^3
#
#
#
# Elastic Constant Matrix: (Units=GPa)
#
#
# Indices 1 2 3 4 5 6 
#
# 1 74.0255 16.1128 42.3793 0.0000 16.5737 0.0000
# 2 16.1128 135.1582 51.0647 0.0000 24.3017 0.0000
# 3 42.3793 51.0647 116.5027 0.0000 38.8560 0.0000
# 4 0.0000 0.0000 0.0000 33.8834 0.0000 12.8011
# 5 16.5737 24.3017 38.8560 0.0000 50.8462 0.0000
# 6 0.0000 0.0000 0.0000 12.8011 0.0000 11.9788
#
#
#
# Elastic Compliance Matrix: (Units=1/GPa)
#
#
# Indices 1 2 3 4 5 6 
#
# 1 0.017131 0.000451 -0.006032 0.000000 -0.001189 0.000000
# 2 0.000451 0.008990 -0.003519 0.000000 -0.001754 0.000000
# 3 -0.006032 -0.003519 0.014902 0.000000 -0.007739 0.000000
# 4 0.000000 0.000000 0.000000 0.049496 0.000000 -0.052893
# 5 -0.001189 -0.001754 -0.007739 0.000000 0.026808 0.000000
# 6 0.000000 0.000000 0.000000 -0.052893 0.000000 0.140005
#
#
# Mechanical properties :
#
#
# Convention : Reuss Voigt Hill
#
# Bulk Modulus (GPa) = 43.82055 60.53335 52.17695
# Shear Modulus (GPa) = 17.65917 33.75033 25.70475
#
# Velocity S-wave (km/s) = 2.71755 3.75692 3.27868
# Velocity P-wave (km/s) = 5.30778 6.64337 6.01277
#
# Compressibility (1/GPa) = 0.02282034
#
# Stress axis : x y z
#
# Youngs Moduli (GPa) = 58.37534 111.23366 67.10689
#
# Poissons Ratio (x) = -0.05014 0.40481
# Poissons Ratio (y) = -0.02631 0.23617
# Poissons Ratio (z) = 0.35214 0.39147
#
# Static dielectric constant tensor:
#      x y z
#    x 1.950010 0.000000 -0.038920 
#    y 0.000000 1.885720 0.000000 
#    z -0.038920 0.000000 1.969690 
# 
# From -- ./inp_files/314841.got.cif
#   From: 2010.05.17/outbox.cif.g08.bks.cpg/sg15_158_cif.got.tgz:314841.got - 2010.06.03 18:47:42.
