data_PCOD9263326
_publ_section_title
;
Structure prediction by ZEFSAII (Michael W. Deem and Ramdas Pophale) SiO2 
 PCOD9263326
Probable space group: C 2/C
;
_chemical_formula_sum "Si O2"
_cell_formula_units_Z 64
_cell_length_a 15.954754
_cell_length_b 10.577604
_cell_length_c 16.588181
_cell_angle_alpha 90.000000
_cell_angle_beta 112.352739
_cell_angle_gamma 90.000000
_cell_volume 2589.120131
_symmetry_space_group_name_H-M "C 2/C"
_symmetry_group_IT_number 15
_symmetry_cell_setting 'monoclinic'
loop_
_space_group_symop_operation_xyz
x,y,z
-x,y,1/2-z
-x,-y,-z
x,-y,1/2+z
1/2+x,1/2+y,z
1/2-x,1/2+y,1/2-z
1/2-x,1/2-y,-z
1/2+x,1/2-y,1/2+z
loop_
_atom_site_type_symbol
_atom_site_label
_atom_site_fract_x
_atom_site_fract_y
_atom_site_fract_z
Si Si1 0.767383 0.405595 0.602089
Si Si2 0.610764 0.314836 0.645114
Si Si3 0.562270 0.239920 0.853126
Si Si4 0.662885 0.456181 0.821781
Si Si5 0.165850 0.467944 0.209386
Si Si6 0.431468 0.296259 0.154011
Si Si7 0.632233 0.964816 0.482231
Si Si8 0.969092 0.645386 0.424621
O O1 0.669937 0.348198 0.588839
O O2 0.792562 0.489047 0.690315
O O3 0.844480 0.296942 0.623137
O O4 0.775533 0.479166 0.519975
O O5 0.503832 0.294682 0.601896
O O6 0.625279 0.420467 0.719039
O O7 0.647637 0.180764 0.694030
O O8 0.500000 0.239912 0.750000
O O9 0.647585 0.329304 0.867334
O O10 0.591253 0.100449 0.887004
O O11 0.763464 0.501295 0.837187
O O12 0.604067 0.565064 0.840345
O O13 0.078090 0.554400 0.159725
O O14 0.500000 0.259398 0.250000
O O15 0.494227 0.273896 0.099144
O O16 0.609991 0.854978 0.537945
O O17 0.562843 0.074937 0.485367
#
# Coordination Sequence:
#
# PCOD9263326 Si02
#       8
#     8   8   8   8   8   8   8   8
#     4  10  20  32  56  86 109 147 184 239 281 331
#     4  10  19  34  55  84 112 145 187 234 281 329
#     4  10  19  36  59  82 111 152 188 229 283 334
#     4  10  22  34  55  91 118 144 188 239 279 338
#     4  11  19  37  58  84 114 146 192 232 284 336
#     4  11  19  35  56  84 116 148 185 230 287 333
#     4  10  21  37  56  85 116 142 196 235 278 334
#     4  10  22  36  58  84 113 151 188 237 279 335
#
# _framework density 24.718821999999999
#
# number of rings (size 3 to 8) (size 9 to 14) (size 15 to 20)
#    0.000    1.750    3.750    2.625    0.000    0.000 
#    0.000    3.125    0.000    0.000    0.000    0.000 
#    0.000    0.000    0.000    0.000    0.000    0.000 
#
# Total GULP energy -178667.768064 kJ/mol
# GULP energy per Si atom -5583.367752 kJ/mol
# Density = 2.466256 g / cm^3
# Si number density = 24.718822 Si / 1000 Ang^3
#
#
#
# Elastic Constant Matrix: (Units=GPa)
#
#
# Indices 1 2 3 4 5 6 
#
# 1 123.4084 36.3415 29.9075 0.0000 -37.1516 0.0000
# 2 36.3415 85.7797 25.9488 0.0000 -19.1857 0.0000
# 3 29.9075 25.9488 66.9647 0.0000 -22.4243 0.0000
# 4 0.0000 0.0000 0.0000 12.3852 0.0000 -14.9575
# 5 -37.1516 -19.1857 -22.4243 0.0000 37.8378 0.0000
# 6 0.0000 0.0000 0.0000 -14.9575 0.0000 45.0771
#
#
#
# Elastic Compliance Matrix: (Units=1/GPa)
#
#
# Indices 1 2 3 4 5 6 
#
# 1 0.012122 -0.002583 -0.001080 0.000000 0.009952 0.000000
# 2 -0.002583 0.014421 -0.003537 0.000000 0.002680 0.000000
# 3 -0.001080 -0.003537 0.019750 0.000000 0.008850 0.000000
# 4 0.000000 0.000000 0.000000 0.134734 0.000000 0.044707
# 5 0.009952 0.002680 0.008850 0.000000 0.042804 0.000000
# 6 0.000000 0.000000 0.000000 0.044707 0.000000 0.037019
#
#
# Mechanical properties :
#
#
# Convention : Reuss Voigt Hill
#
# Bulk Modulus (GPa) = 31.35544 51.17206 41.26375
# Shear Modulus (GPa) = 17.48971 31.32369 24.40670
#
# Velocity S-wave (km/s) = 2.66286 3.56364 3.14566
# Velocity P-wave (km/s) = 4.70816 6.13835 5.47020
#
# Compressibility (1/GPa) = 0.03189239
#
# Stress axis : x y z
#
# Youngs Moduli (GPa) = 82.49783 69.34099 50.63250
#
# Poissons Ratio (x) = 0.17909 0.05470
# Poissons Ratio (y) = 0.21307 0.17910
# Poissons Ratio (z) = 0.08912 0.24528
#
# Static dielectric constant tensor:
#      x y z
#    x 1.964080 0.000000 0.008640 
#    y 0.000000 1.964140 0.000000 
#    z 0.008640 0.000000 2.145730 
# 
# From -- ./inp_files/247471.got.cif
#   From: 2010.05.17/outbox.cif.g08.bks.cpg/sg15_124_cif.got.tgz:247471.got - 2010.06.03 18:47:42.
