data_PCOD9263292
_publ_section_title
;
Structure prediction by ZEFSAII (Michael W. Deem and Ramdas Pophale) SiO2 
 PCOD9263292
Probable space group: C 2/C
;
_chemical_formula_sum "Si O2"
_cell_formula_units_Z 56
_cell_length_a 11.391029
_cell_length_b 9.110914
_cell_length_c 29.105688
_cell_angle_alpha 90.000000
_cell_angle_beta 60.040960
_cell_angle_gamma 90.000000
_cell_volume 2617.052945
_symmetry_space_group_name_H-M "C 2/C"
_symmetry_group_IT_number 15
_symmetry_cell_setting 'monoclinic'
loop_
_space_group_symop_operation_xyz
x,y,z
-x,y,1/2-z
-x,-y,-z
x,-y,1/2+z
1/2+x,1/2+y,z
1/2-x,1/2+y,1/2-z
1/2-x,1/2-y,-z
1/2+x,1/2-y,1/2+z
loop_
_atom_site_type_symbol
_atom_site_label
_atom_site_fract_x
_atom_site_fract_y
_atom_site_fract_z
Si Si1 0.343904 0.540879 0.279192
Si Si2 0.169089 0.834927 0.307224
Si Si3 0.105675 0.490246 0.937954
Si Si4 0.817212 0.939810 0.621446
Si Si5 0.849971 0.847348 0.369990
Si Si6 0.345904 0.316251 0.047449
Si Si7 0.046408 0.260518 0.074816
O O1 0.500000 0.595501 0.250000
O O2 0.242442 0.677618 0.292885
O O3 0.323241 0.421894 0.242625
O O4 0.331400 0.451262 0.329062
O O5 0.007733 0.827868 0.349851
O O6 0.235680 0.941318 0.332336
O O7 0.248443 0.566133 0.924517
O O8 0.115449 0.318409 0.926781
O O9 0.040486 0.591031 0.911847
O O10 0.000000 0.500000 0.000000
O O11 0.714224 0.811932 0.627638
O O12 0.949543 0.859351 0.616346
O O13 0.865054 0.029063 0.567401
O O14 0.186545 0.293210 0.071000
O O15 0.417310 0.292302 0.984318
#
# Coordination Sequence:
#
# PCOD9263292 Si02
#       7
#     8   8   8   8   8   8   8
#     4  10  23  42  62  85 114 149 192 239 295 356
#     4  11  23  40  63  87 116 152 191 244 297 350
#     4   9  18  35  58  83 116 156 195 236 283 337
#     4  11  22  34  56  86 113 147 191 235 286 344
#     4  10  22  39  58  87 121 153 193 241 292 351
#     4  10  19  34  55  79 111 155 198 235 282 336
#     4   9  20  36  53  78 116 154 192 240 283 331
#
# _framework density 21.398116000000002
#
# number of rings (size 3 to 8) (size 9 to 14) (size 15 to 20)
#    0.000    2.000    0.000    3.000    0.000    5.714 
#    0.000    0.000    0.000   15.429    0.000    0.000 
#    0.000    0.000    0.000    0.000    0.000    0.000 
#
# Total GULP energy -156311.327795 kJ/mol
# GULP energy per Si atom -5582.547421 kJ/mol
# Density = 2.134941 g / cm^3
# Si number density = 21.398116 Si / 1000 Ang^3
#
#
#
# Elastic Constant Matrix: (Units=GPa)
#
#
# Indices 1 2 3 4 5 6 
#
# 1 73.6350 66.1062 31.1377 0.0000 -20.6195 0.0000
# 2 66.1062 148.9336 21.9959 0.0000 -21.8747 0.0000
# 3 31.1377 21.9959 43.1167 0.0000 -16.0086 0.0000
# 4 0.0000 0.0000 0.0000 23.8300 0.0000 -3.1671
# 5 -20.6195 -21.8747 -16.0086 0.0000 31.1234 0.0000
# 6 0.0000 0.0000 0.0000 -3.1671 0.0000 33.7614
#
#
#
# Elastic Compliance Matrix: (Units=1/GPa)
#
#
# Indices 1 2 3 4 5 6 
#
# 1 0.031113 -0.010818 -0.014981 0.000000 0.005303 0.000000
# 2 -0.010818 0.011439 0.002844 0.000000 0.002336 0.000000
# 3 -0.014981 0.002844 0.036609 0.000000 0.010904 0.000000
# 4 0.000000 0.000000 0.000000 0.042494 0.000000 0.003986
# 5 0.005303 0.002336 0.010904 0.000000 0.042894 0.000000
# 6 0.000000 0.000000 0.000000 0.003986 0.000000 0.029994
#
#
# Mechanical properties :
#
#
# Convention : Reuss Voigt Hill
#
# Bulk Modulus (GPa) = 30.07389 56.01833 43.04611
# Shear Modulus (GPa) = 19.87788 27.50598 23.69193
#
# Velocity S-wave (km/s) = 3.05118 3.58919 3.33107
# Velocity P-wave (km/s) = 5.14761 6.58880 5.91229
#
# Compressibility (1/GPa) = 0.03325143
#
# Stress axis : x y z
#
# Youngs Moduli (GPa) = 32.14133 87.41826 27.31554
#
# Poissons Ratio (x) = 0.94572 0.40920
# Poissons Ratio (y) = 0.34772 -0.07769
# Poissons Ratio (z) = 0.48150 -0.24863
#
# Static dielectric constant tensor:
#      x y z
#    x 1.770690 0.000000 -0.017860 
#    y 0.000000 1.790000 0.000000 
#    z -0.017860 0.000000 1.852010 
# 
# From -- ./inp_files/310207.got.cif
#   From: 2010.05.17/outbox.cif.g08.bks.cpg/sg15_156_cif.got.tgz:310207.got - 2010.06.03 18:47:42.
