data_PCOD9263675
_publ_section_title
;
Structure prediction by ZEFSAII (Michael W. Deem and Ramdas Pophale) SiO2 
 PCOD9263675
Probable space group: C 2/C
;
_chemical_formula_sum "Si O2"
_cell_formula_units_Z 64
_cell_length_a 16.429177
_cell_length_b 11.455887
_cell_length_c 15.890947
_cell_angle_alpha 90.000000
_cell_angle_beta 117.766034
_cell_angle_gamma 90.000000
_cell_volume 2646.473491
_symmetry_space_group_name_H-M "C 2/C"
_symmetry_group_IT_number 15
_symmetry_cell_setting 'monoclinic'
loop_
_space_group_symop_operation_xyz
x,y,z
-x,y,1/2-z
-x,-y,-z
x,-y,1/2+z
1/2+x,1/2+y,z
1/2-x,1/2+y,1/2-z
1/2-x,1/2-y,-z
1/2+x,1/2-y,1/2+z
loop_
_atom_site_type_symbol
_atom_site_label
_atom_site_fract_x
_atom_site_fract_y
_atom_site_fract_z
Si Si1 0.073728 0.089542 0.915279
Si Si2 0.229814 0.200375 0.082077
Si Si3 0.915066 0.332641 0.277033
Si Si4 0.215165 0.061190 0.830835
Si Si5 0.035446 0.842864 0.927703
Si Si6 0.206475 0.810810 0.895789
Si Si7 0.606571 0.314072 0.146456
Si Si8 0.099243 0.403909 0.749315
O O1 0.132918 0.082120 0.859456
O O2 0.996624 0.184003 0.865770
O O3 0.012895 0.978666 0.913048
O O4 0.139582 0.122872 0.024550
O O5 0.221816 0.322607 0.129171
O O6 0.316337 0.118210 0.145741
O O7 0.250000 0.250000 0.000000
O O8 0.822348 0.279675 0.190823
O O9 0.899014 0.467392 0.290041
O O10 0.000000 0.337286 0.250000
O O11 0.955663 0.247529 0.367898
O O12 0.167945 0.083767 0.717652
O O13 0.247005 0.931917 0.876604
O O14 0.106576 0.841889 0.884571
O O15 0.091762 0.816359 0.039689
O O16 0.250000 0.750000 0.000000
O O17 0.631979 0.188197 0.194468
O O18 0.000000 0.392056 0.750000
#
# Coordination Sequence:
#
# PCOD9263675 Si02
#       8
#     8   8   8   8   8   8   8   8
#     4  10  19  34  59  82 115 150 197 244 299 355
#     4   9  18  31  55  86 114 138 194 251 300 343
#     4   9  20  37  56  82 112 153 207 243 287 359
#     4   9  19  35  56  87 114 147 195 246 289 370
#     4  10  22  38  56  87 116 154 200 250 291 367
#     4  10  21  38  64  84 111 157 201 245 291 357
#     4  11  20  36  58  85 118 154 193 247 315 353
#     4  10  20  35  59  84 119 161 199 247 301 365
#
# _framework density 24.183123999999999
#
# number of rings (size 3 to 8) (size 9 to 14) (size 15 to 20)
#    0.000    2.250    0.000    3.750    5.250    2.500 
#    2.250    5.000    0.000    0.000    0.000    0.000 
#    0.000    0.000    0.000    0.000    0.000    0.000 
#
# Total GULP energy -178341.829865 kJ/mol
# GULP energy per Si atom -5573.182183 kJ/mol
# Density = 2.412808 g / cm^3
# Si number density = 24.183124 Si / 1000 Ang^3
#
#
#
# Elastic Constant Matrix: (Units=GPa)
#
#
# Indices 1 2 3 4 5 6 
#
# 1 64.1154 24.5613 4.3697 0.0000 -5.2889 0.0000
# 2 24.5613 139.1097 66.3174 0.0000 6.7196 0.0000
# 3 4.3697 66.3174 145.4819 0.0000 8.8254 0.0000
# 4 0.0000 0.0000 0.0000 28.0973 0.0000 -0.2819
# 5 -5.2889 6.7196 8.8254 0.0000 36.5629 0.0000
# 6 0.0000 0.0000 0.0000 -0.2819 0.0000 28.2213
#
#
#
# Elastic Compliance Matrix: (Units=1/GPa)
#
#
# Indices 1 2 3 4 5 6 
#
# 1 0.017162 -0.003630 0.000962 0.000000 0.002917 0.000000
# 2 -0.003630 0.009969 -0.004356 0.000000 -0.001306 0.000000
# 3 0.000962 -0.004356 0.008904 0.000000 -0.001209 0.000000
# 4 0.000000 0.000000 0.000000 0.035594 0.000000 0.000356
# 5 0.002917 -0.001306 -0.001209 0.000000 0.028304 0.000000
# 6 0.000000 0.000000 0.000000 0.000356 0.000000 0.035438
#
#
# Mechanical properties :
#
#
# Convention : Reuss Voigt Hill
#
# Bulk Modulus (GPa) = 45.47951 59.91153 52.69552
# Shear Modulus (GPa) = 31.89819 35.47354 33.68587
#
# Velocity S-wave (km/s) = 3.63578 3.83413 3.73627
# Velocity P-wave (km/s) = 6.03923 6.66548 6.36007
#
# Compressibility (1/GPa) = 0.02198792
#
# Stress axis : x y z
#
# Youngs Moduli (GPa) = 58.26664 100.30845 112.30987
#
# Poissons Ratio (x) = 0.36410 -0.10806
# Poissons Ratio (y) = 0.21150 0.48925
# Poissons Ratio (z) = -0.05606 0.43696
#
# Static dielectric constant tensor:
#      x y z
#    x 2.012570 0.000000 0.002210 
#    y 0.000000 2.047310 0.000000 
#    z 0.002210 0.000000 1.968570 
# 
# From -- ./inp_files/215068.got.cif
#   From: 2010.05.17/outbox.cif.g08.bks.cpg/sg15_108_cif.got.tgz:215068.got - 2010.06.03 18:47:42.
