data_PCOD9263176
_publ_section_title
;
Structure prediction by ZEFSAII (Michael W. Deem and Ramdas Pophale) SiO2 
 PCOD9263176
Probable space group: C 2/C
;
_chemical_formula_sum "Si O2"
_cell_formula_units_Z 48
_cell_length_a 16.053709
_cell_length_b 26.192032
_cell_length_c 12.322436
_cell_angle_alpha 90.000000
_cell_angle_beta 33.105401
_cell_angle_gamma 90.000000
_cell_volume 2829.942947
_symmetry_space_group_name_H-M "C 2/C"
_symmetry_group_IT_number 15
_symmetry_cell_setting 'monoclinic'
loop_
_space_group_symop_operation_xyz
x,y,z
-x,y,1/2-z
-x,-y,-z
x,-y,1/2+z
1/2+x,1/2+y,z
1/2-x,1/2+y,1/2-z
1/2-x,1/2-y,-z
1/2+x,1/2-y,1/2+z
loop_
_atom_site_type_symbol
_atom_site_label
_atom_site_fract_x
_atom_site_fract_y
_atom_site_fract_z
Si Si1 0.662966 0.199478 0.628663
Si Si2 0.864876 0.311441 0.084893
Si Si3 0.116340 0.476205 0.023769
Si Si4 0.105653 0.229482 0.724519
Si Si5 0.319908 0.407407 0.947865
Si Si6 0.378780 0.925714 0.124333
O O1 0.500000 0.196508 0.750000
O O2 0.750000 0.250000 0.500000
O O3 0.640868 0.200302 0.781651
O O4 0.757142 0.149258 0.493795
O O5 0.695938 0.300974 0.219300
O O6 0.899883 0.371788 0.040764
O O7 0.995809 0.274811 0.889962
O O8 0.252409 0.445640 0.931692
O O9 0.155937 0.528640 0.920487
O O10 0.000000 0.486536 0.250000
O O11 0.028522 0.441311 0.030809
O O12 0.250000 0.250000 0.500000
O O13 0.000000 0.201145 0.750000
O O14 0.500000 0.408377 0.750000
O O15 0.251377 0.420848 0.141383
#
# Coordination Sequence:
#
# PCOD9263176 Si02
#       6
#     8   8   8   8   8   8
#     4  11  21  34  54  81 110 142 179 215 263 323
#     4  10  19  34  53  76 105 136 172 214 258 313
#     4   9  18  35  56  76 101 135 177 221 265 315
#     4   9  19  34  51  71 100 134 169 210 255 299
#     4  10  20  34  52  77 110 140 170 218 269 317
#     4   9  19  35  55  77  99 136 180 216 261 319
#
# _framework density 16.961473000000002
#
# number of rings (size 3 to 8) (size 9 to 14) (size 15 to 20)
#    0.000    2.333    0.000    4.000    0.000    4.000 
#    0.000    4.167    0.000    0.000    0.000    0.000 
#    0.000    0.000    0.000    0.000    0.000    0.000 
#
# Total GULP energy -133715.912330 kJ/mol
# GULP energy per Si atom -5571.496347 kJ/mol
# Density = 1.692287 g / cm^3
# Si number density = 16.961473 Si / 1000 Ang^3
#
#
#
# Elastic Constant Matrix: (Units=GPa)
#
#
# Indices 1 2 3 4 5 6 
#
# 1 141.3341 73.3526 52.4401 -0.0001 -18.2318 0.0000
# 2 73.3526 149.6558 62.7123 -0.0001 -10.5401 0.0000
# 3 52.4401 62.7123 77.8269 -0.0003 -29.4245 0.0002
# 4 -0.0001 -0.0001 -0.0003 25.9001 0.0001 2.7092
# 5 -18.2318 -10.5401 -29.4245 0.0001 25.6128 -0.0001
# 6 0.0000 0.0000 0.0002 2.7092 -0.0001 13.2619
#
#
#
# Elastic Compliance Matrix: (Units=1/GPa)
#
#
# Indices 1 2 3 4 5 6 
#
# 1 0.010445 -0.003553 -0.003388 0.000000 0.002080 0.000000
# 2 -0.003553 0.012683 -0.012037 0.000000 -0.011138 0.000000
# 3 -0.003388 -0.012037 0.038975 0.000000 0.037410 0.000000
# 4 0.000000 0.000000 0.000000 0.039453 0.000000 -0.008060
# 5 0.002080 -0.011138 0.037410 0.000000 0.078918 0.000000
# 6 0.000000 0.000000 0.000000 -0.008060 0.000000 0.077051
#
#
# Mechanical properties :
#
#
# Convention : Reuss Voigt Hill
#
# Bulk Modulus (GPa) = 41.41329 82.86963 62.14146
# Shear Modulus (GPa) = 16.47279 24.97575 20.72427
#
# Velocity S-wave (km/s) = 3.11977 3.84148 3.49928
# Velocity P-wave (km/s) = 6.11935 8.28490 7.28306
#
# Compressibility (1/GPa) = 0.02414684
#
# Stress axis : x y z
#
# Youngs Moduli (GPa) = 95.73877 78.84512 25.65731
#
# Poissons Ratio (x) = 0.28016 0.08693
# Poissons Ratio (y) = 0.34018 0.30883
# Poissons Ratio (z) = 0.32439 0.94904
#
# Static dielectric constant tensor:
#      x y z
#    x 1.594840 0.000000 0.009200 
#    y 0.000000 1.579290 0.000000 
#    z 0.009200 0.000000 1.551130 
# 
# From -- ./inp_files/101250.got.cif
#   From: 2010.05.17/outbox.cif.g08.bks.cpg/sg15_51_cif.got.tgz:101250.got - 2010.06.03 18:47:42.
