data_PCOD9263219
_publ_section_title
;
Structure prediction by ZEFSAII (Michael W. Deem and Ramdas Pophale) SiO2 
 PCOD9263219
Probable space group: C 2/C
;
_chemical_formula_sum "Si O2"
_cell_formula_units_Z 56
_cell_length_a 21.527654
_cell_length_b 22.443578
_cell_length_c 11.148867
_cell_angle_alpha 90.000000
_cell_angle_beta 145.493379
_cell_angle_gamma 90.000000
_cell_volume 3051.550580
_symmetry_space_group_name_H-M "C 2/C"
_symmetry_group_IT_number 15
_symmetry_cell_setting 'monoclinic'
loop_
_space_group_symop_operation_xyz
x,y,z
-x,y,1/2-z
-x,-y,-z
x,-y,1/2+z
1/2+x,1/2+y,z
1/2-x,1/2+y,1/2-z
1/2-x,1/2-y,-z
1/2+x,1/2-y,1/2+z
loop_
_atom_site_type_symbol
_atom_site_label
_atom_site_fract_x
_atom_site_fract_y
_atom_site_fract_z
Si Si1 0.819473 0.743033 0.925883
Si Si2 0.414312 0.211241 0.714224
Si Si3 0.624093 0.477310 0.682518
Si Si4 0.085175 0.754060 0.174144
Si Si5 0.450555 0.643472 0.544251
Si Si6 0.727739 0.671942 0.570282
Si Si7 0.132923 0.957613 0.957797
O O1 0.698795 0.754179 0.786827
O O2 0.867969 0.802654 0.943446
O O3 0.801208 0.692318 0.799831
O O4 0.896071 0.730329 0.161884
O O5 0.500000 0.190082 0.750000
O O6 0.359941 0.274719 0.590063
O O7 0.310793 0.171397 0.589070
O O8 0.490225 0.222989 0.949652
O O9 0.500000 0.500000 0.500000
O O10 0.608455 0.408041 0.622604
O O11 0.672568 0.485267 0.893236
O O12 0.672683 0.510916 0.643713
O O13 0.049320 0.823521 0.130925
O O14 0.500000 0.620504 0.750000
O O15 0.669120 0.610767 0.506921
O O16 0.000000 0.960661 0.750000
#
# Coordination Sequence:
#
# PCOD9263219 Si02
#       7
#     8   8   8   8   8   8   8
#     4  10  21  33  53  83 113 150 193 218 296 339
#     4  11  21  33  52  78 120 147 187 224 291 336
#     4  10  21  36  54  81 108 156 192 229 288 345
#     4  10  20  34  50  80 116 153 179 232 272 351
#     4  10  19  34  54  76 119 151 179 231 278 340
#     4  11  22  34  56  86 113 152 193 231 281 352
#     4  10  22  37  57  82 118 149 191 238 285 345
#
# _framework density 18.351327000000001
#
# number of rings (size 3 to 8) (size 9 to 14) (size 15 to 20)
#    0.000    1.714    2.857    2.571    6.000    0.000 
#    2.571    0.000    0.000    0.000    0.000    4.000 
#    0.000    0.000    0.000    0.000    0.000    0.000 
#
# Total GULP energy -156137.135558 kJ/mol
# GULP energy per Si atom -5576.326270 kJ/mol
# Density = 1.830956 g / cm^3
# Si number density = 18.351327 Si / 1000 Ang^3
#
#
#
# Elastic Constant Matrix: (Units=GPa)
#
#
# Indices 1 2 3 4 5 6 
#
# 1 113.3257 31.0532 30.9841 0.0000 -11.3539 0.0000
# 2 31.0532 52.3292 17.7197 0.0000 -9.0859 0.0000
# 3 30.9841 17.7197 61.7706 0.0000 -29.6550 0.0000
# 4 0.0000 0.0000 0.0000 17.9886 0.0000 5.0612
# 5 -11.3539 -9.0859 -29.6550 0.0000 24.4298 0.0000
# 6 0.0000 0.0000 0.0000 5.0612 0.0000 20.7022
#
#
#
# Elastic Compliance Matrix: (Units=1/GPa)
#
#
# Indices 1 2 3 4 5 6 
#
# 1 0.011631 -0.005510 -0.006333 0.000000 -0.004331 0.000000
# 2 -0.005510 0.023791 -0.002498 0.000000 0.003255 0.000000
# 3 -0.006333 -0.002498 0.043676 0.000000 0.049145 0.000000
# 4 0.000000 0.000000 0.000000 0.059697 0.000000 -0.014594
# 5 -0.004331 0.003255 0.049145 0.000000 0.099788 0.000000
# 6 0.000000 0.000000 0.000000 -0.014594 0.000000 0.051872
#
#
# Mechanical properties :
#
#
# Convention : Reuss Voigt Hill
#
# Bulk Modulus (GPa) = 19.83515 42.99330 31.41422
# Shear Modulus (GPa) = 14.88348 22.46868 18.67608
#
# Velocity S-wave (km/s) = 2.85095 3.50289 3.19360
# Velocity P-wave (km/s) = 4.65502 6.31182 5.54564
#
# Compressibility (1/GPa) = 0.05041554
#
# Stress axis : x y z
#
# Youngs Moduli (GPa) = 85.97345 42.03345 22.89585
#
# Poissons Ratio (x) = 0.23160 0.14500
# Poissons Ratio (y) = 0.47370 0.05720
# Poissons Ratio (z) = 0.54447 0.10502
#
# Static dielectric constant tensor:
#      x y z
#    x 1.714990 0.000000 -0.053280 
#    y 0.000000 1.619170 0.000000 
#    z -0.053280 0.000000 1.650420 
# 
# From -- ./inp_files/119852.got.cif
#   From: 2010.05.17/outbox.cif.g08.bks.cpg/sg15_60_cif.got.tgz:119852.got - 2010.06.03 18:47:42.
