data_PCOD9263950
_publ_section_title
;
Structure prediction by ZEFSAII (Michael W. Deem and Ramdas Pophale) SiO2 
 PCOD9263950
Probable space group: C 2/C
;
_chemical_formula_sum "Si O2"
_cell_formula_units_Z 64
_cell_length_a 9.036011
_cell_length_b 17.039749
_cell_length_c 19.539115
_cell_angle_alpha 90.000000
_cell_angle_beta 67.035101
_cell_angle_gamma 90.000000
_cell_volume 2770.025429
_symmetry_space_group_name_H-M "C 2/C"
_symmetry_group_IT_number 15
_symmetry_cell_setting 'monoclinic'
loop_
_space_group_symop_operation_xyz
x,y,z
-x,y,1/2-z
-x,-y,-z
x,-y,1/2+z
1/2+x,1/2+y,z
1/2-x,1/2+y,1/2-z
1/2-x,1/2-y,-z
1/2+x,1/2-y,1/2+z
loop_
_atom_site_type_symbol
_atom_site_label
_atom_site_fract_x
_atom_site_fract_y
_atom_site_fract_z
Si Si1 0.814976 0.875218 0.802702
Si Si2 0.332660 0.419702 0.480976
Si Si3 0.354957 0.201932 0.404431
Si Si4 0.342020 0.543286 0.825288
Si Si5 0.308399 0.561172 0.569231
Si Si6 0.801153 0.199880 0.788415
Si Si7 0.840133 0.560819 0.305773
Si Si8 0.299466 0.727640 0.632540
O O1 0.769586 0.958467 0.843995
O O2 0.732670 0.887286 0.742595
O O3 0.779904 0.811054 0.867703
O O4 0.000000 0.867798 0.750000
O O5 0.240396 0.340454 0.517470
O O6 0.375286 0.424133 0.394047
O O7 0.246962 0.500792 0.521472
O O8 0.507121 0.420924 0.484912
O O9 0.259694 0.252014 0.364141
O O10 0.398005 0.124064 0.351835
O O11 0.509918 0.251217 0.400537
O O12 0.500000 0.534678 0.750000
O O13 0.241343 0.611213 0.808084
O O14 0.280580 0.503035 0.639998
O O15 0.252161 0.648727 0.601366
O O16 0.751084 0.223825 0.721886
O O17 0.000000 0.201200 0.750000
O O18 0.000000 0.519136 0.250000
#
# Coordination Sequence:
#
# PCOD9263950 Si02
#       8
#     8   8   8   8   8   8   8   8
#     4  11  22  36  61  90 130 169 214 264 324 377
#     4  10  21  39  58  92 128 170 213 259 331 394
#     4  10  19  34  65  90 129 161 208 269 322 376
#     4  10  20  36  58  83 117 161 208 265 312 377
#     4  10  22  35  61  92 131 165 209 270 325 382
#     4   9  16  30  57  89 116 148 209 271 310 354
#     4  11  19  39  66  95 121 169 218 268 320 380
#     4  11  20  37  57  95 129 166 210 267 318 384
#
# _framework density 23.104479999999999
#
# number of rings (size 3 to 8) (size 9 to 14) (size 15 to 20)
#    0.000    1.750    2.500    4.875    0.000    2.500 
#    0.000    1.250    0.000    0.000    0.000    0.000 
#    0.000    0.000    0.000    0.000    0.000    0.000 
#
# Total GULP energy -178139.649508 kJ/mol
# GULP energy per Si atom -5566.864047 kJ/mol
# Density = 2.305189 g / cm^3
# Si number density = 23.104480 Si / 1000 Ang^3
#
#
#
# Elastic Constant Matrix: (Units=GPa)
#
#
# Indices 1 2 3 4 5 6 
#
# 1 22.9932 -10.0935 13.5814 0.0000 -6.4578 0.0000
# 2 -10.0935 151.1163 49.7502 0.0000 -9.6018 0.0000
# 3 13.5814 49.7502 97.5165 0.0000 -2.7216 0.0000
# 4 0.0000 0.0000 0.0000 29.3594 0.0000 -4.2878
# 5 -6.4578 -9.6018 -2.7216 0.0000 12.7726 0.0000
# 6 0.0000 0.0000 0.0000 -4.2878 0.0000 10.6706
#
#
#
# Elastic Compliance Matrix: (Units=1/GPa)
#
#
# Indices 1 2 3 4 5 6 
#
# 1 0.068752 0.011964 -0.014544 0.000000 0.040655 0.000000
# 2 0.011964 0.010386 -0.006617 0.000000 0.012446 0.000000
# 3 -0.014544 -0.006617 0.015404 0.000000 -0.009046 0.000000
# 4 0.000000 0.000000 0.000000 0.036184 0.000000 0.014540
# 5 0.040655 0.012446 -0.009046 0.000000 0.106277 0.000000
# 6 0.000000 0.000000 0.000000 0.014540 0.000000 0.099558
#
#
# Mechanical properties :
#
#
# Convention : Reuss Voigt Hill
#
# Bulk Modulus (GPa) = 13.13270 42.01134 27.57202
# Shear Modulus (GPa) = 13.14617 25.11970 19.13294
#
# Velocity S-wave (km/s) = 2.38793 3.30088 2.88080
# Velocity P-wave (km/s) = 3.64683 5.72280 4.79843
#
# Compressibility (1/GPa) = 0.07614581
#
# Stress axis : x y z
#
# Youngs Moduli (GPa) = 14.54503 96.28434 64.91889
#
# Poissons Ratio (x) = -1.15190 0.94419
# Poissons Ratio (y) = -0.17401 0.42960
# Poissons Ratio (z) = 0.21154 0.63715
#
# Static dielectric constant tensor:
#      x y z
#    x 1.994870 0.000000 0.029250 
#    y 0.000000 2.008410 0.000000 
#    z 0.029250 0.000000 1.972070 
# 
# From -- ./inp_files/270221.got.cif
#   From: 2010.05.17/outbox.cif.g08.bks.cpg/sg15_136_cif.got.tgz:270221.got - 2010.06.03 18:47:42.
