data_PCOD9263599
_publ_section_title
;
Structure prediction by ZEFSAII (Michael W. Deem and Ramdas Pophale) SiO2 
 PCOD9263599
Probable space group: C 2/C
;
_chemical_formula_sum "Si O2"
_cell_formula_units_Z 52
_cell_length_a 12.626506
_cell_length_b 15.285083
_cell_length_c 12.551103
_cell_angle_alpha 90.000000
_cell_angle_beta 93.815487
_cell_angle_gamma 90.000000
_cell_volume 2416.958593
_symmetry_space_group_name_H-M "C 2/C"
_symmetry_group_IT_number 15
_symmetry_cell_setting 'monoclinic'
loop_
_space_group_symop_operation_xyz
x,y,z
-x,y,1/2-z
-x,-y,-z
x,-y,1/2+z
1/2+x,1/2+y,z
1/2-x,1/2+y,1/2-z
1/2-x,1/2-y,-z
1/2+x,1/2-y,1/2+z
loop_
_atom_site_type_symbol
_atom_site_label
_atom_site_fract_x
_atom_site_fract_y
_atom_site_fract_z
Si Si1 0.306636 0.102064 0.348122
Si Si2 0.000000 0.513375 0.250000
Si Si3 0.523630 0.578969 0.580434
Si Si4 0.928525 0.750536 0.996854
Si Si5 0.176477 0.067666 0.775030
Si Si6 0.562310 0.081845 0.951235
Si Si7 0.760046 0.257422 0.672441
O O1 0.331099 0.103398 0.475717
O O2 0.270010 0.187292 0.281237
O O3 0.420812 0.075885 0.307617
O O4 0.231705 0.021403 0.313305
O O5 0.070253 0.451329 0.331063
O O6 0.500000 0.500000 0.500000
O O7 0.513088 0.673187 0.524425
O O8 0.631830 0.566211 0.652429
O O9 0.426543 0.578566 0.657260
O O10 0.861928 0.729101 0.100621
O O11 0.841608 0.782757 0.905207
O O12 0.986864 0.665351 0.957542
O O13 0.244569 0.154418 0.801986
O O14 0.500000 0.000000 0.000000
#
# Coordination Sequence:
#
# PCOD9263599 Si02
#       7
#     8   4   8   8   8   8   8
#     4  11  21  36  60  86 115 150 189 232 286 342
#     4  10  22  36  56  84 120 150 180 234 288 338
#     4  10  21  39  59  80 112 152 190 233 281 330
#     4  10  20  35  58  84 111 149 193 235 280 335
#     4  10  22  37  57  86 114 144 191 238 276 332
#     4  10  20  35  54  80 112 146 183 227 282 335
#     4  10  19  34  58  85 112 146 191 237 279 332
#
# _framework density 21.514643
#
# number of rings (size 3 to 8) (size 9 to 14) (size 15 to 20)
#    0.000    1.846    0.000    5.538    0.000    6.154 
#    0.000    4.615    0.000    6.462    0.000    0.000 
#    0.000    0.000    0.000    0.000    0.000    0.000 
#
# Total GULP energy -145255.108984 kJ/mol
# GULP energy per Si atom -5586.734961 kJ/mol
# Density = 2.146568 g / cm^3
# Si number density = 21.514643 Si / 1000 Ang^3
#
#
#
# Elastic Constant Matrix: (Units=GPa)
#
#
# Indices 1 2 3 4 5 6 
#
# 1 22.3940 -6.1303 -3.1017 0.0000 15.6350 0.0000
# 2 -6.1303 73.1961 10.7039 0.0000 4.0056 0.0000
# 3 -3.1017 10.7039 108.9574 0.0000 31.4399 0.0000
# 4 0.0000 0.0000 0.0000 39.5565 0.0000 5.4786
# 5 15.6350 4.0056 31.4399 0.0000 31.4189 0.0000
# 6 0.0000 0.0000 0.0000 5.4786 0.0000 33.2808
#
#
#
# Elastic Compliance Matrix: (Units=1/GPa)
#
#
# Indices 1 2 3 4 5 6 
#
# 1 0.105355 0.009503 0.024665 0.000000 -0.078321 0.000000
# 2 0.009503 0.014725 0.001027 0.000000 -0.007633 0.000000
# 3 0.024665 0.001027 0.018782 0.000000 -0.031200 0.000000
# 4 0.000000 0.000000 0.000000 0.025870 0.000000 -0.004259
# 5 -0.078321 -0.007633 -0.031200 0.000000 0.102997 0.000000
# 6 0.000000 0.000000 0.000000 -0.004259 0.000000 0.030748
#
#
# Mechanical properties :
#
#
# Convention : Reuss Voigt Hill
#
# Bulk Modulus (GPa) = 4.77894 23.05458 13.91676
# Shear Modulus (GPa) = 16.78763 34.38962 25.58863
#
# Velocity S-wave (km/s) = 2.79639 4.00237 3.45245
# Velocity P-wave (km/s) = 3.55704 5.66548 4.73023
#
# Compressibility (1/GPa) = 0.20925134
#
# Stress axis : x y z
#
# Youngs Moduli (GPa) = 9.49174 67.90981 53.24265
#
# Poissons Ratio (x) = -0.64533 -1.31325
# Poissons Ratio (y) = -0.09020 -0.05466
# Poissons Ratio (z) = -0.23412 -0.06971
#
# Static dielectric constant tensor:
#      x y z
#    x 1.715550 0.000000 0.010000 
#    y 0.000000 1.728790 0.000000 
#    z 0.010000 0.000000 1.853640 
# 
# From -- ./inp_files/97107.got.cif
#   From: 2010.05.17/outbox.cif.g08.bks.cpg/sg15_49_cif.got.tgz:97107.got - 2010.06.03 18:47:42.
