data_PCOD9263870
_publ_section_title
;
Structure prediction by ZEFSAII (Michael W. Deem and Ramdas Pophale) SiO2 
 PCOD9263870
Probable space group: C 2/C
;
_chemical_formula_sum "Si O2"
_cell_formula_units_Z 36
_cell_length_a 8.860309
_cell_length_b 22.191265
_cell_length_c 8.801993
_cell_angle_alpha 90.000000
_cell_angle_beta 97.661650
_cell_angle_gamma 90.000000
_cell_volume 1715.210560
_symmetry_space_group_name_H-M "C 2/C"
_symmetry_group_IT_number 15
_symmetry_cell_setting 'monoclinic'
loop_
_space_group_symop_operation_xyz
x,y,z
-x,y,1/2-z
-x,-y,-z
x,-y,1/2+z
1/2+x,1/2+y,z
1/2-x,1/2+y,1/2-z
1/2-x,1/2-y,-z
1/2+x,1/2-y,1/2+z
loop_
_atom_site_type_symbol
_atom_site_label
_atom_site_fract_x
_atom_site_fract_y
_atom_site_fract_z
Si Si1 0.500000 0.482323 0.250000
Si Si2 0.208947 0.797323 0.692281
Si Si3 0.500000 0.806647 0.250000
Si Si4 0.206743 0.158292 0.539288
Si Si5 0.569196 0.417566 0.534156
Si Si6 0.000000 0.233043 0.750000
O O1 0.603949 0.440081 0.369798
O O2 0.409061 0.527486 0.347844
O O3 0.096278 0.740811 0.662181
O O4 0.150143 0.857270 0.602466
O O5 0.373009 0.775995 0.661652
O O6 0.217202 0.810204 0.875672
O O7 0.626911 0.842977 0.361998
O O8 0.094629 0.193291 0.642032
O O9 0.112142 0.097616 0.494636
#
# Coordination Sequence:
#
# PCOD9263870 Si02
#       6
#     4   8   4   8   8   4
#     4  10  22  40  66  90 104 162 208 278 294 360
#     4  11  21  40  59  91 129 170 188 260 292 375
#     4  10  19  34  62  82 138 164 189 222 316 356
#     4  11  21  40  56  96 125 173 190 253 298 374
#     4  11  21  41  66  87 119 151 218 253 316 340
#     4  10  23  34  60  92 136 156 207 220 308 376
#
# _framework density 20.988676000000002
#
# number of rings (size 3 to 8) (size 9 to 14) (size 15 to 20)
#    0.000    1.333    4.444    3.333    0.000    0.889 
#   12.000    0.000    0.000    8.000    0.000    0.000 
#    0.000    0.000    0.000    0.000    0.000    0.000 
#
# Total GULP energy -100507.084504 kJ/mol
# GULP energy per Si atom -5583.726917 kJ/mol
# Density = 2.094091 g / cm^3
# Si number density = 20.988676 Si / 1000 Ang^3
#
#
#
# Elastic Constant Matrix: (Units=GPa)
#
#
# Indices 1 2 3 4 5 6 
#
# 1 111.3986 27.5021 46.0262 0.0000 26.7442 0.0000
# 2 27.5021 73.1055 40.5645 0.0000 9.7119 0.0000
# 3 46.0262 40.5645 155.4465 0.0000 1.3572 0.0000
# 4 0.0000 0.0000 0.0000 38.6057 0.0000 9.7202
# 5 26.7442 9.7119 1.3572 0.0000 35.0086 0.0000
# 6 0.0000 0.0000 0.0000 9.7202 0.0000 3.9692
#
#
#
# Elastic Compliance Matrix: (Units=1/GPa)
#
#
# Indices 1 2 3 4 5 6 
#
# 1 0.013029 -0.001834 -0.003298 0.000000 -0.009316 0.000000
# 2 -0.001834 0.016920 -0.003845 0.000000 -0.003144 0.000000
# 3 -0.003298 -0.003845 0.008384 0.000000 0.003261 0.000000
# 4 0.000000 0.000000 0.000000 0.067558 0.000000 -0.165441
# 5 -0.009316 -0.003144 0.003261 0.000000 0.036427 0.000000
# 6 0.000000 0.000000 0.000000 -0.165441 0.000000 0.657083
#
#
# Mechanical properties :
#
#
# Convention : Reuss Voigt Hill
#
# Bulk Modulus (GPa) = 49.06789 63.12625 56.09707
# Shear Modulus (GPa) = 6.06688 30.57388 18.32038
#
# Velocity S-wave (km/s) = 1.70201 3.82079 2.95764
# Velocity P-wave (km/s) = 5.22412 7.04317 6.20071
#
# Compressibility (1/GPa) = 0.02037993
#
# Stress axis : x y z
#
# Youngs Moduli (GPa) = 76.75358 59.10226 119.26927
#
# Poissons Ratio (x) = 0.10838 0.39332
# Poissons Ratio (y) = 0.14075 0.45858
# Poissons Ratio (z) = 0.25312 0.22724
#
# Static dielectric constant tensor:
#      x y z
#    x 1.759180 0.000000 -0.008400 
#    y 0.000000 1.776640 0.000000 
#    z -0.008400 0.000000 1.877440 
# 
# From -- ./inp_files/23205.got.cif
#   From: 2010.05.17/outbox.cif.g08.bks.cpg/sg15_12_cif.got.tgz:23205.got - 2010.06.03 18:47:42.
