data_PCOD9263318
_publ_section_title
;
Structure prediction by ZEFSAII (Michael W. Deem and Ramdas Pophale) SiO2 
 PCOD9263318
Probable space group: C 2/C
;
_chemical_formula_sum "Si O2"
_cell_formula_units_Z 40
_cell_length_a 8.424553
_cell_length_b 28.034335
_cell_length_c 18.254718
_cell_angle_alpha 90.000000
_cell_angle_beta 27.444969
_cell_angle_gamma 90.000000
_cell_volume 1987.081216
_symmetry_space_group_name_H-M "C 2/C"
_symmetry_group_IT_number 15
_symmetry_cell_setting 'monoclinic'
loop_
_space_group_symop_operation_xyz
x,y,z
-x,y,1/2-z
-x,-y,-z
x,-y,1/2+z
1/2+x,1/2+y,z
1/2-x,1/2+y,1/2-z
1/2-x,1/2-y,-z
1/2+x,1/2-y,1/2+z
loop_
_atom_site_type_symbol
_atom_site_label
_atom_site_fract_x
_atom_site_fract_y
_atom_site_fract_z
Si Si1 0.587649 0.950408 0.427257
Si Si2 0.299304 0.450975 0.067552
Si Si3 0.802473 0.647580 0.565405
Si Si4 0.589412 0.351142 0.429126
Si Si5 0.317204 0.250197 0.561596
O O1 0.387975 0.949981 0.433109
O O2 0.494815 0.901659 0.507868
O O3 0.000000 0.950121 0.250000
O O4 0.500000 0.000000 0.500000
O O5 0.501433 0.400819 0.993370
O O6 0.000000 0.450129 0.250000
O O7 0.500000 0.500000 0.000000
O O8 0.500000 0.647099 0.750000
O O9 0.610302 0.647264 0.566242
O O10 0.993746 0.698128 0.498982
O O11 0.501974 0.300346 0.501293
O O12 0.000000 0.350866 0.250000
O O13 0.250000 0.250000 0.500000
O O14 0.000000 0.249551 0.750000
#
# Coordination Sequence:
#
# PCOD9263318 Si02
#       5
#     8   8   8   8   8
#     4  11  21  37  57  80 109 147 187 232 282 341
#     4  11  22  37  57  84 114 150 192 239 291 345
#     4   9  17  34  55  76 107 147 184 225 283 344
#     4  10  19  34  55  83 111 145 189 240 289 342
#     4   9  19  36  57  81 113 153 192 234 288 346
#
# _framework density 20.130029
#
# number of rings (size 3 to 8) (size 9 to 14) (size 15 to 20)
#    0.000    2.000    0.000    7.200    0.000    0.800 
#    0.000   21.000    0.000    0.000    0.000    0.000 
#    0.000    0.000    0.000    0.000    0.000    0.000 
#
# Total GULP energy -111357.954169 kJ/mol
# GULP energy per Si atom -5567.897708 kJ/mol
# Density = 2.008421 g / cm^3
# Si number density = 20.130029 Si / 1000 Ang^3
#
#
#
# Elastic Constant Matrix: (Units=GPa)
#
#
# Indices 1 2 3 4 5 6 
#
# 1 121.6848 65.6627 13.6292 -0.0001 -0.1980 0.0000
# 2 65.6627 288.4107 45.9536 -0.0001 -7.4944 0.0000
# 3 13.6292 45.9536 32.0412 0.0007 3.2417 0.0003
# 4 -0.0001 -0.0001 0.0007 34.5948 0.0000 0.7695
# 5 -0.1980 -7.4944 3.2417 0.0000 23.5889 0.0000
# 6 0.0000 0.0000 0.0003 0.7695 0.0000 32.0045
#
#
#
# Elastic Compliance Matrix: (Units=1/GPa)
#
#
# Indices 1 2 3 4 5 6 
#
# 1 0.009408 -0.001971 -0.001135 0.000000 -0.000391 0.000000
# 2 -0.001971 0.005039 -0.006641 0.000000 0.002497 0.000000
# 3 -0.001135 -0.006641 0.042016 -0.000001 -0.007894 0.000000
# 4 0.000000 0.000000 -0.000001 0.028922 0.000000 -0.000695
# 5 -0.000391 0.002497 -0.007894 0.000000 0.044268 0.000000
# 6 0.000000 0.000000 0.000000 -0.000695 0.000000 0.031262
#
#
# Mechanical properties :
#
#
# Convention : Reuss Voigt Hill
#
# Bulk Modulus (GPa) = 27.05025 76.95864 52.00444
# Shear Modulus (GPa) = 25.94257 39.16371 32.55314
#
# Velocity S-wave (km/s) = 3.59381 4.41561 4.02573
# Velocity P-wave (km/s) = 5.53964 8.01939 6.89196
#
# Compressibility (1/GPa) = 0.03696824
#
# Stress axis : x y z
#
# Youngs Moduli (GPa) = 106.29052 198.44616 23.80029
#
# Poissons Ratio (x) = 0.39119 0.02702
# Poissons Ratio (y) = 0.20953 0.15806
# Poissons Ratio (z) = 0.12065 1.31794
#
# Static dielectric constant tensor:
#      x y z
#    x 1.702850 0.000000 0.019080 
#    y 0.000000 1.820480 0.000000 
#    z 0.019080 0.000000 1.710760 
# 
# From -- ./inp_files/81005.got.cif
#   From: 2010.05.17/outbox.cif.g08.bks.cpg/sg15_41_cif.got.tgz:81005.got - 2010.06.03 18:47:42.
