data_PCOD9263204
_publ_section_title
;
Structure prediction by ZEFSAII (Michael W. Deem and Ramdas Pophale) SiO2 
 PCOD9263204
Probable space group: C 2/C
;
_chemical_formula_sum "Si O2"
_cell_formula_units_Z 52
_cell_length_a 4.975840
_cell_length_b 21.688734
_cell_length_c 20.835741
_cell_angle_alpha 90.000000
_cell_angle_beta 90.941824
_cell_angle_gamma 90.000000
_cell_volume 2248.282513
_symmetry_space_group_name_H-M "C 2/C"
_symmetry_group_IT_number 15
_symmetry_cell_setting 'monoclinic'
loop_
_space_group_symop_operation_xyz
x,y,z
-x,y,1/2-z
-x,-y,-z
x,-y,1/2+z
1/2+x,1/2+y,z
1/2-x,1/2+y,1/2-z
1/2-x,1/2-y,-z
1/2+x,1/2-y,1/2+z
loop_
_atom_site_type_symbol
_atom_site_label
_atom_site_fract_x
_atom_site_fract_y
_atom_site_fract_z
Si Si1 0.178950 0.437484 0.047738
Si Si2 0.291175 0.149871 0.483440
Si Si3 0.516082 0.555352 0.415646
Si Si4 0.256973 0.998525 0.205030
Si Si5 0.742410 0.142777 0.794566
Si Si6 0.566567 0.317523 0.407097
Si Si7 0.750000 0.750000 0.000000
O O1 0.253111 0.502306 0.079687
O O2 0.310284 0.385509 0.093452
O O3 0.887841 0.408969 0.028284
O O4 0.334300 0.442285 0.979795
O O5 0.057222 0.188433 0.519857
O O6 0.546236 0.191963 0.478854
O O7 0.170123 0.120137 0.419588
O O8 0.326651 0.538755 0.356071
O O9 0.500000 0.021418 0.250000
O O10 0.000000 0.995419 0.250000
O O11 0.323887 0.927690 0.184604
O O12 0.500000 0.165957 0.750000
O O13 0.837882 0.184007 0.854256
O O14 0.000000 0.139485 0.750000
O O15 0.792406 0.268099 0.420443
#
# Coordination Sequence:
#
# PCOD9263204 Si02
#       7
#     8   8   8   8   8   8   4
#     4   9  19  32  54  87 119 152 186 247 301 365
#     4  10  21  34  58  87 115 158 191 256 305 363
#     4  10  19  34  53  86 121 156 199 235 308 363
#     4  10  22  36  56  85 125 166 199 241 295 370
#     4  10  22  37  58  90 125 163 195 240 302 372
#     4  10  20  37  59  87 119 150 199 249 313 362
#     4  10  22  38  58  86 114 146 200 258 312 350
#
# _framework density 23.128765000000001
#
# number of rings (size 3 to 8) (size 9 to 14) (size 15 to 20)
#    0.000    2.154    1.538    0.923    6.462    1.231 
#    0.000    0.000    0.000    0.923    0.000    0.000 
#    0.000    0.000    0.000    0.000    0.000    0.000 
#
# Total GULP energy -144859.207729 kJ/mol
# GULP energy per Si atom -5571.507990 kJ/mol
# Density = 2.307612 g / cm^3
# Si number density = 23.128765 Si / 1000 Ang^3
#
#
#
# Elastic Constant Matrix: (Units=GPa)
#
#
# Indices 1 2 3 4 5 6 
#
# 1 102.8624 23.2963 40.4456 0.0000 18.5233 0.0000
# 2 23.2963 81.4069 50.1427 0.0000 21.0776 0.0000
# 3 40.4456 50.1427 150.2894 0.0000 53.9621 0.0000
# 4 0.0000 0.0000 0.0000 44.4351 0.0000 6.4031
# 5 18.5233 21.0776 53.9621 0.0000 45.9629 0.0000
# 6 0.0000 0.0000 0.0000 6.4031 0.0000 37.8535
#
#
#
# Elastic Compliance Matrix: (Units=1/GPa)
#
#
# Indices 1 2 3 4 5 6 
#
# 1 0.011109 -0.001613 -0.001918 0.000000 -0.001485 0.000000
# 2 -0.001613 0.015781 -0.004263 0.000000 -0.001582 0.000000
# 3 -0.001918 -0.004263 0.013161 0.000000 -0.012723 0.000000
# 4 0.000000 0.000000 0.000000 0.023067 0.000000 -0.003902
# 5 -0.001485 -0.001582 -0.012723 0.000000 0.038018 0.000000
# 6 0.000000 0.000000 0.000000 -0.003902 0.000000 0.027078
#
#
# Mechanical properties :
#
#
# Convention : Reuss Voigt Hill
#
# Bulk Modulus (GPa) = 40.88008 62.48087 51.68048
# Shear Modulus (GPa) = 32.90440 40.36193 36.63317
#
# Velocity S-wave (km/s) = 3.77591 4.18197 3.98412
# Velocity P-wave (km/s) = 6.05998 7.09870 6.59980
#
# Compressibility (1/GPa) = 0.02446179
#
# Stress axis : x y z
#
# Youngs Moduli (GPa) = 90.01961 63.36737 75.98388
#
# Poissons Ratio (x) = 0.10221 0.14574
# Poissons Ratio (y) = 0.14520 0.32394
# Poissons Ratio (z) = 0.17267 0.27015
#
# Static dielectric constant tensor:
#      x y z
#    x -26.873410 0.000000 -18.249860 
#    y 0.000000 -5.236350 0.000000 
#    z -18.249860 0.000000 -9.639700 
# 
# From -- ./inp_files/261235.got.cif
#   From: 2010.05.17/outbox.cif.g08.bks.cpg/sg15_131_cif.got.tgz:261235.got - 2010.06.03 18:47:42.
