data_PCOD9263107
_publ_section_title
;
Structure prediction by ZEFSAII (Michael W. Deem and Ramdas Pophale) SiO2 
 PCOD9263107
Probable space group: C 2/C
;
_chemical_formula_sum "Si O2"
_cell_formula_units_Z 56
_cell_length_a 24.040581
_cell_length_b 18.666590
_cell_length_c 9.210371
_cell_angle_alpha 90.000000
_cell_angle_beta 46.340125
_cell_angle_gamma 90.000000
_cell_volume 2990.171343
_symmetry_space_group_name_H-M "C 2/C"
_symmetry_group_IT_number 15
_symmetry_cell_setting 'monoclinic'
loop_
_space_group_symop_operation_xyz
x,y,z
-x,y,1/2-z
-x,-y,-z
x,-y,1/2+z
1/2+x,1/2+y,z
1/2-x,1/2+y,1/2-z
1/2-x,1/2-y,-z
1/2+x,1/2-y,1/2+z
loop_
_atom_site_type_symbol
_atom_site_label
_atom_site_fract_x
_atom_site_fract_y
_atom_site_fract_z
Si Si1 0.261337 0.052029 0.767858
Si Si2 0.209642 0.077961 0.562012
Si Si3 0.872624 0.643563 0.207181
Si Si4 0.309780 0.207255 0.792454
Si Si5 0.580767 0.143752 0.687601
Si Si6 0.669938 0.728169 0.561976
Si Si7 0.579188 0.979843 0.692802
O O1 0.200407 0.058631 0.746262
O O2 0.275298 0.128693 0.817400
O O3 0.345081 0.030425 0.547085
O O4 0.226324 0.992283 0.937262
O O5 0.292367 0.116135 0.412119
O O6 0.156466 0.143167 0.603296
O O7 0.890687 0.719392 0.248472
O O8 0.924675 0.578553 0.171075
O O9 0.863471 0.649526 0.052116
O O10 0.388286 0.193919 0.741542
O O11 0.323416 0.247896 0.616499
O O12 0.250000 0.250000 0.000000
O O13 0.500000 0.157962 0.750000
O O14 0.583983 0.061860 0.735365
O O15 0.750000 0.750000 0.500000
O O16 0.500000 0.972101 0.750000
#
# Coordination Sequence:
#
# PCOD9263107 Si02
#       7
#     8   8   8   8   8   8   8
#     4  11  21  35  52  79 109 148 190 229 270 336
#     4  10  20  34  51  75 108 143 184 229 278 322
#     4  10  19  34  50  68 106 149 188 224 265 314
#     4  12  23  35  57  80 110 149 194 234 283 321
#     4  11  25  35  52  80 116 151 193 230 269 326
#     4  10  19  36  53  73 103 148 187 231 280 326
#     4  10  21  33  52  74 112 157 196 216 256 321
#
# _framework density 18.728024999999999
#
# number of rings (size 3 to 8) (size 9 to 14) (size 15 to 20)
#    0.000    1.429    5.714    3.429    4.000    1.143 
#    0.000    0.000    0.000    0.000    0.000    0.000 
#    0.000    5.714    0.000    0.000    0.000    0.000 
#
# Total GULP energy -155981.743316 kJ/mol
# GULP energy per Si atom -5570.776547 kJ/mol
# Density = 1.868540 g / cm^3
# Si number density = 18.728025 Si / 1000 Ang^3
#
#
#
# Elastic Constant Matrix: (Units=GPa)
#
#
# Indices 1 2 3 4 5 6 
#
# 1 87.1423 49.6497 25.1268 0.0000 30.5392 0.0000
# 2 49.6497 133.3022 43.7367 0.0000 21.7170 0.0000
# 3 25.1268 43.7367 49.2342 0.0000 23.0801 0.0000
# 4 0.0000 0.0000 0.0000 -3.3901 0.0000 -7.0602
# 5 30.5392 21.7170 23.0801 0.0000 30.4563 0.0000
# 6 0.0000 0.0000 0.0000 -7.0602 0.0000 13.9599
#
#
#
# Elastic Compliance Matrix: (Units=1/GPa)
#
#
# Indices 1 2 3 4 5 6 
#
# 1 0.020350 -0.005643 0.003577 0.000000 -0.019093 0.000000
# 2 -0.005643 0.012161 -0.010098 0.000000 0.004639 0.000000
# 3 0.003577 -0.010098 0.039956 0.000000 -0.026666 0.000000
# 4 0.000000 0.000000 0.000000 -0.143664 0.000000 -0.072657
# 5 -0.019093 0.004639 -0.026666 0.000000 0.068879 0.000000
# 6 0.000000 0.000000 0.000000 -0.072657 0.000000 0.034888
#
#
# Mechanical properties :
#
#
# Convention : Reuss Voigt Hill
#
# Bulk Modulus (GPa) = 20.77247 56.30057 38.53652
# Shear Modulus (GPa) = 68.54693 18.28294 43.41494
#
# Velocity S-wave (km/s) = 6.05646 3.12786 4.81997
# Velocity P-wave (km/s) = 7.74747 6.57055 7.18316
#
# Compressibility (1/GPa) = 0.04814063
#
# Stress axis : x y z
#
# Youngs Moduli (GPa) = 49.13984 82.23140 25.02734
#
# Poissons Ratio (x) = 0.46402 -0.08953
# Poissons Ratio (y) = 0.27729 0.25272
# Poissons Ratio (z) = -0.17579 0.83036
#
# Static dielectric constant tensor:
#      x y z
#    x 1.688000 0.000000 -0.092130 
#    y 0.000000 1.806600 0.000000 
#    z -0.092130 0.000000 1.542630 
# 
# From -- ./inp_files/66825.got.cif
#   From: 2010.05.17/outbox.cif.g08.bks.cpg/sg15_34_cif.got.tgz:66825.got - 2010.06.03 18:47:42.
