data_PCOD9263832
_publ_section_title
;
Structure prediction by ZEFSAII (Michael W. Deem and Ramdas Pophale) SiO2 
 PCOD9263832
Probable space group: C 2/C
;
_chemical_formula_sum "Si O2"
_cell_formula_units_Z 48
_cell_length_a 16.420633
_cell_length_b 15.145470
_cell_length_c 18.951904
_cell_angle_alpha 90.000000
_cell_angle_beta 155.728393
_cell_angle_gamma 90.000000
_cell_volume 1937.463488
_symmetry_space_group_name_H-M "C 2/C"
_symmetry_group_IT_number 15
_symmetry_cell_setting 'monoclinic'
loop_
_space_group_symop_operation_xyz
x,y,z
-x,y,1/2-z
-x,-y,-z
x,-y,1/2+z
1/2+x,1/2+y,z
1/2-x,1/2+y,1/2-z
1/2-x,1/2-y,-z
1/2+x,1/2-y,1/2+z
loop_
_atom_site_type_symbol
_atom_site_label
_atom_site_fract_x
_atom_site_fract_y
_atom_site_fract_z
Si Si1 0.308256 0.511282 0.648936
Si Si2 0.193044 0.635301 0.858088
Si Si3 0.860757 0.835118 0.741606
Si Si4 0.229539 0.107519 0.732261
Si Si5 0.138465 0.776630 0.607904
Si Si6 0.219233 0.188009 0.911050
O O1 0.500000 0.498405 0.750000
O O2 0.244959 0.410313 0.607961
O O3 0.325728 0.544339 0.745729
O O4 0.175180 0.592833 0.513790
O O5 0.160656 0.737905 0.808361
O O6 0.219631 0.577433 0.807145
O O7 0.000000 0.608383 0.750000
O O8 0.404155 0.638712 0.065755
O O9 0.795830 0.830859 0.772352
O O10 0.396726 0.178110 0.888886
O O11 0.040109 0.170738 0.568146
O O12 0.280492 0.750305 0.656842
O O13 0.000000 0.155766 0.750000
O O14 0.250000 0.250000 0.000000
#
# Coordination Sequence:
#
# PCOD9263832 Si02
#       6
#     8   8   8   8   8   8
#     4  10  20  35  58  85 112 148 197 244 291 348
#     4  10  20  36  60  86 114 155 198 239 296 360
#     4  10  21  36  61  84 114 156 198 245 296 358
#     4   9  19  34  57  83 113 151 193 237 288 353
#     4   9  17  32  53  81 110 148 195 233 284 352
#     4  10  19  34  61  87 116 156 201 244 295 360
#
# _framework density 24.774659
#
# number of rings (size 3 to 8) (size 9 to 14) (size 15 to 20)
#    0.000    2.333    0.000    4.000    0.000    2.667 
#    0.000    0.000    0.000  117.000    0.000    0.000 
#    0.000    0.000    0.000    0.000    0.000    0.000 
#
# Total GULP energy -133606.612493 kJ/mol
# GULP energy per Si atom -5566.942187 kJ/mol
# Density = 2.471827 g / cm^3
# Si number density = 24.774659 Si / 1000 Ang^3
#
#
#
# Elastic Constant Matrix: (Units=GPa)
#
#
# Indices 1 2 3 4 5 6 
#
# 1 163.0218 63.9052 7.6643 -0.0097 -10.5913 -0.0205
# 2 63.9052 70.7365 14.6175 -0.0303 -6.5872 -0.0283
# 3 7.6643 14.6175 60.9655 -0.0379 -6.9698 -0.0035
# 4 -0.0097 -0.0303 -0.0379 15.5673 -0.0166 -11.7168
# 5 -10.5913 -6.5872 -6.9698 -0.0166 28.1159 -0.0228
# 6 -0.0205 -0.0283 -0.0035 -11.7168 -0.0228 95.2997
#
#
#
# Elastic Compliance Matrix: (Units=1/GPa)
#
#
# Indices 1 2 3 4 5 6 
#
# 1 0.009637 -0.008762 0.001101 -0.000007 0.001850 -0.000001
# 2 -0.008762 0.023038 -0.004304 0.000037 0.001030 0.000010
# 3 0.001101 -0.004304 0.017731 0.000044 0.003802 0.000006
# 4 -0.000007 0.000037 0.000044 0.070788 0.000066 0.008703
# 5 0.001850 0.001030 0.003802 0.000066 0.037448 0.000018
# 6 -0.000001 0.000010 0.000006 0.008703 0.000018 0.011563
#
#
# Mechanical properties :
#
#
# Convention : Reuss Voigt Hill
#
# Bulk Modulus (GPa) = 37.77090 51.89978 44.83534
# Shear Modulus (GPa) = 24.63524 41.69903 33.16714
#
# Velocity S-wave (km/s) = 3.15679 4.10705 3.66287
# Velocity P-wave (km/s) = 5.34471 6.59429 6.00211
#
# Compressibility (1/GPa) = 0.02647541
#
# Stress axis : x y z
#
# Youngs Moduli (GPa) = 103.76413 43.40666 56.39824
#
# Poissons Ratio (x) = 0.38032 -0.06208
# Poissons Ratio (y) = 0.90915 0.24277
# Poissons Ratio (z) = -0.11422 0.18684
#
# Static dielectric constant tensor:
#      x y z
#    x 2.020400 0.000000 0.003950 
#    y 0.000000 2.025940 0.000000 
#    z 0.003950 0.000000 2.084850 
# 
# From -- ./inp_files/249437.got.cif
#   From: 2010.05.17/outbox.cif.g08.bks.cpg/sg15_125_cif.got.tgz:249437.got - 2010.06.03 18:47:42.
