data_PCOD9263356
_publ_section_title
;
Structure prediction by ZEFSAII (Michael W. Deem and Ramdas Pophale) SiO2 
 PCOD9263356
Probable space group: C 2/C
;
_chemical_formula_sum "Si O2"
_cell_formula_units_Z 48
_cell_length_a 8.119059
_cell_length_b 17.133313
_cell_length_c 18.425601
_cell_angle_alpha 90.000000
_cell_angle_beta 96.604419
_cell_angle_gamma 90.000000
_cell_volume 2546.109521
_symmetry_space_group_name_H-M "C 2/C"
_symmetry_group_IT_number 15
_symmetry_cell_setting 'monoclinic'
loop_
_space_group_symop_operation_xyz
x,y,z
-x,y,1/2-z
-x,-y,-z
x,-y,1/2+z
1/2+x,1/2+y,z
1/2-x,1/2+y,1/2-z
1/2-x,1/2-y,-z
1/2+x,1/2-y,1/2+z
loop_
_atom_site_type_symbol
_atom_site_label
_atom_site_fract_x
_atom_site_fract_y
_atom_site_fract_z
Si Si1 0.208865 0.243009 0.583323
Si Si2 0.635015 0.961864 0.059924
Si Si3 0.912829 0.020571 0.819991
Si Si4 0.387859 0.601929 0.101438
Si Si5 0.088627 0.606544 0.826265
Si Si6 0.056558 0.868372 0.453682
O O1 0.250000 0.250000 0.500000
O O2 0.281349 0.322949 0.619198
O O3 0.311650 0.173415 0.625842
O O4 0.015691 0.215739 0.575812
O O5 0.543304 0.929179 0.125430
O O6 0.750075 0.891648 0.034277
O O7 0.756304 0.032682 0.085341
O O8 0.500000 0.000000 0.000000
O O9 0.719194 0.039814 0.808652
O O10 0.000000 0.046660 0.750000
O O11 0.980278 0.071296 0.891213
O O12 0.970898 0.932334 0.838654
O O13 0.475830 0.616386 0.028170
O O14 0.000000 0.637915 0.750000
#
# Coordination Sequence:
#
# PCOD9263356 Si02
#       6
#     8   8   8   8   8   8
#     4   9  19  37  56  76 107 148 188 225 276 344
#     4  11  19  32  56  84 109 140 187 238 280 334
#     4  10  19  34  56  77 104 144 185 225 281 341
#     4  10  19  35  56  79 105 142 186 229 272 330
#     4  11  22  36  55  83 114 145 187 239 291 349
#     4   9  18  34  54  77 108 147 181 218 276 342
#
# _framework density 18.852291999999998
#
# number of rings (size 3 to 8) (size 9 to 14) (size 15 to 20)
#    0.000    2.000    0.000    8.000    0.000    0.667 
#    0.000    9.167    0.000   14.000    0.000    0.000 
#    0.000    0.000    0.000    0.000    0.000    0.000 
#
# Total GULP energy -133659.548217 kJ/mol
# GULP energy per Si atom -5569.147842 kJ/mol
# Density = 1.880938 g / cm^3
# Si number density = 18.852292 Si / 1000 Ang^3
#
#
#
# Elastic Constant Matrix: (Units=GPa)
#
#
# Indices 1 2 3 4 5 6 
#
# 1 123.8061 56.4932 32.0071 0.0000 -12.4594 0.0000
# 2 56.4932 96.4320 18.6660 0.0000 -3.7363 0.0000
# 3 32.0071 18.6660 77.2770 0.0000 0.2730 0.0000
# 4 0.0000 0.0000 0.0000 12.5920 0.0000 8.9838
# 5 -12.4594 -3.7363 0.2730 0.0000 34.4839 0.0000
# 6 0.0000 0.0000 0.0000 8.9838 0.0000 39.1696
#
#
#
# Elastic Compliance Matrix: (Units=1/GPa)
#
#
# Indices 1 2 3 4 5 6 
#
# 1 0.012279 -0.006358 -0.003564 0.000000 0.003776 0.000000
# 2 -0.006358 0.014220 -0.000799 0.000000 -0.000750 0.000000
# 3 -0.003564 -0.000799 0.014615 0.000000 -0.001490 0.000000
# 4 0.000000 0.000000 0.000000 0.094954 0.000000 -0.021778
# 5 0.003776 -0.000750 -0.001490 0.000000 0.030294 0.000000
# 6 0.000000 0.000000 0.000000 -0.021778 0.000000 0.030525
#
#
# Mechanical properties :
#
#
# Convention : Reuss Voigt Hill
#
# Bulk Modulus (GPa) = 50.82887 56.87197 53.85042
# Shear Modulus (GPa) = 22.23355 29.93901 26.08628
#
# Velocity S-wave (km/s) = 3.43790 3.98940 3.72387
# Velocity P-wave (km/s) = 6.54057 7.17308 6.86411
#
# Compressibility (1/GPa) = 0.01967386
#
# Stress axis : x y z
#
# Youngs Moduli (GPa) = 81.43678 70.32293 68.42416
#
# Poissons Ratio (x) = 0.44709 0.24384
# Poissons Ratio (y) = 0.51774 0.05467
# Poissons Ratio (z) = 0.29021 0.05618
#
# Static dielectric constant tensor:
#      x y z
#    x 1.794820 0.000000 0.059920 
#    y 0.000000 1.695710 0.000000 
#    z 0.059920 0.000000 1.656290 
# 
# From -- ./inp_files/189844.got.cif
#   From: 2010.05.17/outbox.cif.g08.bks.cpg/sg15_95_cif.got.tgz:189844.got - 2010.06.03 18:47:42.
