data_PCOD9263283
_publ_section_title
;
Structure prediction by ZEFSAII (Michael W. Deem and Ramdas Pophale) SiO2 
 PCOD9263283
Probable space group: C 2/C
;
_chemical_formula_sum "Si O2"
_cell_formula_units_Z 36
_cell_length_a 21.048921
_cell_length_b 13.367129
_cell_length_c 13.342170
_cell_angle_alpha 90.000000
_cell_angle_beta 157.129741
_cell_angle_gamma 90.000000
_cell_volume 1458.976673
_symmetry_space_group_name_H-M "C 2/C"
_symmetry_group_IT_number 15
_symmetry_cell_setting 'monoclinic'
loop_
_space_group_symop_operation_xyz
x,y,z
-x,y,1/2-z
-x,-y,-z
x,-y,1/2+z
1/2+x,1/2+y,z
1/2-x,1/2+y,1/2-z
1/2-x,1/2-y,-z
1/2+x,1/2-y,1/2+z
loop_
_atom_site_type_symbol
_atom_site_label
_atom_site_fract_x
_atom_site_fract_y
_atom_site_fract_z
Si Si1 0.500000 0.851735 0.750000
Si Si2 0.569624 0.289233 0.518809
Si Si3 0.707260 0.438524 0.456803
Si Si4 0.210620 0.644048 0.992957
Si Si5 0.071992 0.395065 0.559204
O O1 0.394572 0.781860 0.523298
O O2 0.367994 0.910858 0.623682
O O3 0.435815 0.370024 0.292997
O O4 0.722723 0.339903 0.797078
O O5 0.486469 0.207492 0.472123
O O6 0.680311 0.555478 0.397507
O O7 0.746341 0.412302 0.629704
O O8 0.250000 0.750000 0.000000
O O9 0.028208 0.615301 0.690633
O O10 0.000000 0.500000 0.500000
#
# Coordination Sequence:
#
# PCOD9263283 Si02
#       5
#     4   8   8   8   8
#     4  10  20  34  52  80 110 142 184 218 264 332
#     4  10  19  34  55  78 106 141 181 228 269 319
#     4  10  19  35  58  79 106 147 183 222 272 328
#     4   9  18  34  56  80 105 138 179 227 277 320
#     4   8  15  29  52  77 101 136 176 218 270 324
#
# _framework density 24.674828999999999
#
# number of rings (size 3 to 8) (size 9 to 14) (size 15 to 20)
#    0.000    2.667    0.000    3.333    0.000    0.000 
#    0.000   22.222    0.000   22.667    0.000    0.000 
#    0.000    0.000    0.000    0.000    0.000    0.000 
#
# Total GULP energy -100329.036225 kJ/mol
# GULP energy per Si atom -5573.835346 kJ/mol
# Density = 2.461867 g / cm^3
# Si number density = 24.674829 Si / 1000 Ang^3
#
#
#
# Elastic Constant Matrix: (Units=GPa)
#
#
# Indices 1 2 3 4 5 6 
#
# 1 72.5561 32.6590 58.5457 0.0000 -23.3421 0.0000
# 2 32.6590 186.4298 83.4369 0.0000 -8.5814 0.0000
# 3 58.5457 83.4369 221.4600 0.0000 -44.0708 0.0000
# 4 0.0000 0.0000 0.0000 53.9310 0.0000 -3.5610
# 5 -23.3421 -8.5814 -44.0708 0.0000 68.5014 0.0000
# 6 0.0000 0.0000 0.0000 -3.5610 0.0000 -0.6141
#
#
#
# Elastic Compliance Matrix: (Units=1/GPa)
#
#
# Indices 1 2 3 4 5 6 
#
# 1 0.018578 -0.001469 -0.003595 0.000000 0.003834 0.000000
# 2 -0.001469 0.006613 -0.002337 0.000000 -0.001176 0.000000
# 3 -0.003595 -0.002337 0.006932 0.000000 0.002942 0.000000
# 4 0.000000 0.000000 0.000000 0.013409 0.000000 -0.077748
# 5 0.003834 -0.001176 0.002942 0.000000 0.017650 0.000000
# 6 0.000000 0.000000 0.000000 -0.077748 0.000000 -1.177499
#
#
# Mechanical properties :
#
#
# Convention : Reuss Voigt Hill
#
# Bulk Modulus (GPa) = 57.73523 92.19210 74.96366
# Shear Modulus (GPa) = -4.57146 44.75061 20.08957
#
# Velocity S-wave (km/s) = -1.36261 4.26327 2.85647
# Velocity P-wave (km/s) = 4.57970 7.85353 6.42851
#
# Compressibility (1/GPa) = 0.01732045
#
# Stress axis : x y z
#
# Youngs Moduli (GPa) = 53.82786 151.21278 144.26226
#
# Poissons Ratio (x) = 0.22215 0.51860
# Poissons Ratio (y) = 0.07908 0.33717
# Poissons Ratio (z) = 0.19350 0.35341
#
# Static dielectric constant tensor:
#      x y z
#    x 2.372800 0.000000 0.004120 
#    y 0.000000 1.918160 0.000000 
#    z 0.004120 0.000000 2.001450 
# 
# From -- ./inp_files/141652.got.cif
#   From: 2010.05.17/outbox.cif.g08.bks.cpg/sg15_71_cif.got.tgz:141652.got - 2010.06.03 18:47:42.
