data_PCOD9263520
_publ_section_title
;
Structure prediction by ZEFSAII (Michael W. Deem and Ramdas Pophale) SiO2 
 PCOD9263520
Probable space group: C 2/C
;
_chemical_formula_sum "Si O2"
_cell_formula_units_Z 60
_cell_length_a 27.276040
_cell_length_b 20.557307
_cell_length_c 5.299831
_cell_angle_alpha 90.000000
_cell_angle_beta 85.242745
_cell_angle_gamma 90.000000
_cell_volume 2961.493868
_symmetry_space_group_name_H-M "C 2/C"
_symmetry_group_IT_number 15
_symmetry_cell_setting 'monoclinic'
loop_
_space_group_symop_operation_xyz
x,y,z
-x,y,1/2-z
-x,-y,-z
x,-y,1/2+z
1/2+x,1/2+y,z
1/2-x,1/2+y,1/2-z
1/2-x,1/2-y,-z
1/2+x,1/2-y,1/2+z
loop_
_atom_site_type_symbol
_atom_site_label
_atom_site_fract_x
_atom_site_fract_y
_atom_site_fract_z
Si Si1 0.445079 0.542277 0.462490
Si Si2 0.930472 0.478531 0.916968
Si Si3 0.724593 0.539267 0.060830
Si Si4 0.836853 0.423140 0.462078
Si Si5 0.872082 0.642617 0.459752
Si Si6 0.000000 0.850411 0.250000
Si Si7 0.643028 0.635443 0.033176
Si Si8 0.104662 0.794114 0.056293
O O1 0.451299 0.510349 0.184499
O O2 0.478471 0.602983 0.538687
O O3 0.390442 0.571293 0.488783
O O4 0.954552 0.513356 0.139328
O O5 0.878263 0.520062 0.915652
O O6 0.919654 0.403628 0.973056
O O7 0.710462 0.493992 0.830388
O O8 0.783383 0.547317 0.026385
O O9 0.697833 0.608606 0.044630
O O10 0.850666 0.379381 0.698514
O O11 0.838110 0.380270 0.207025
O O12 0.885350 0.717625 0.465077
O O13 0.953050 0.810546 0.371415
O O14 0.633757 0.677725 0.786883
O O15 0.623166 0.671447 0.291944
#
# Coordination Sequence:
#
# PCOD9263520 Si02
#       8
#     8   8   8   8   8   4   8   8
#     4  11  21  37  59  85 109 140 185 241 296 332
#     4   8  14  26  48  77 102 126 169 226 270 307
#     4  12  22  37  60  87 117 153 191 240 290 335
#     4  10  19  34  57  87 111 140 190 240 276 325
#     4  10  19  35  56  80 112 149 188 231 281 335
#     4  10  24  40  62  86 112 146 196 248 286 348
#     4  11  24  40  55  82 120 156 191 233 285 345
#     4  11  24  42  58  79 114 156 194 234 284 348
#
# _framework density 20.260045999999999
#
# number of rings (size 3 to 8) (size 9 to 14) (size 15 to 20)
#    0.000    1.600    0.000    7.600    0.000    4.267 
#    0.000    4.000    0.000    0.000    0.000    8.400 
#    0.000    0.000    0.000    0.000    0.000    0.000 
#
# Total GULP energy -167559.308930 kJ/mol
# GULP energy per Si atom -5585.310298 kJ/mol
# Density = 2.021393 g / cm^3
# Si number density = 20.260046 Si / 1000 Ang^3
#
#
#
# Elastic Constant Matrix: (Units=GPa)
#
#
# Indices 1 2 3 4 5 6 
#
# 1 58.9187 25.6896 -3.2595 0.0000 -1.7475 0.0000
# 2 25.6896 97.9300 19.1135 0.0000 -0.2652 0.0000
# 3 -3.2595 19.1135 108.8540 0.0000 4.8941 0.0000
# 4 0.0000 0.0000 0.0000 21.7533 0.0000 3.8567
# 5 -1.7475 -0.2652 4.8941 0.0000 14.5670 0.0000
# 6 0.0000 0.0000 0.0000 3.8567 0.0000 -56.1481
#
#
#
# Elastic Compliance Matrix: (Units=1/GPa)
#
#
# Indices 1 2 3 4 5 6 
#
# 1 0.019450 -0.005380 0.001449 0.000000 0.001749 0.000000
# 2 -0.005380 0.012072 -0.002296 0.000000 0.000346 0.000000
# 3 0.001449 -0.002296 0.009775 0.000000 -0.003152 0.000000
# 4 0.000000 0.000000 0.000000 0.045417 0.000000 0.003120
# 5 0.001749 0.000346 -0.003152 0.000000 0.069923 0.000000
# 6 0.000000 0.000000 0.000000 0.003120 0.000000 -0.017596
#
#
# Mechanical properties :
#
#
# Convention : Reuss Voigt Hill
#
# Bulk Modulus (GPa) = 34.67292 38.75445 36.71368
# Shear Modulus (GPa) = 31.03434 10.97838 21.00636
#
# Velocity S-wave (km/s) = 3.91807 2.33034 3.22349
# Velocity P-wave (km/s) = 6.13347 5.13913 5.65819
#
# Compressibility (1/GPa) = 0.02884095
#
# Stress axis : x y z
#
# Youngs Moduli (GPa) = 51.41266 82.83692 102.30263
#
# Poissons Ratio (x) = 0.44569 -0.14819
# Poissons Ratio (y) = 0.27662 0.23492
# Poissons Ratio (z) = -0.07447 0.19022
#
# Static dielectric constant tensor:
#      x y z
#    x 1.784010 0.000000 -0.001260 
#    y 0.000000 1.679340 0.000000 
#    z -0.001260 0.000000 1.757020 
# 
# From -- ./inp_files/17187.got.cif
#   From: 2010.05.17/outbox.cif.g08.bks.cpg/sg15_9_cif.got.tgz:17187.got - 2010.06.03 18:47:42.
