data_PCOD9263179
_publ_section_title
;
Structure prediction by ZEFSAII (Michael W. Deem and Ramdas Pophale) SiO2 
 PCOD9263179
Probable space group: C 2/C
;
_chemical_formula_sum "Si O2"
_cell_formula_units_Z 56
_cell_length_a 15.971657
_cell_length_b 26.076756
_cell_length_c 9.971286
_cell_angle_alpha 90.000000
_cell_angle_beta 56.391916
_cell_angle_gamma 90.000000
_cell_volume 3458.740115
_symmetry_space_group_name_H-M "C 2/C"
_symmetry_group_IT_number 15
_symmetry_cell_setting 'monoclinic'
loop_
_space_group_symop_operation_xyz
x,y,z
-x,y,1/2-z
-x,-y,-z
x,-y,1/2+z
1/2+x,1/2+y,z
1/2-x,1/2+y,1/2-z
1/2-x,1/2-y,-z
1/2+x,1/2-y,1/2+z
loop_
_atom_site_type_symbol
_atom_site_label
_atom_site_fract_x
_atom_site_fract_y
_atom_site_fract_z
Si Si1 0.872288 0.722376 0.245901
Si Si2 0.404999 0.216774 0.537340
Si Si3 0.293464 0.335092 0.246742
Si Si4 0.615256 0.398934 0.099236
Si Si5 0.825930 0.174197 0.187943
Si Si6 0.615906 0.619465 0.097458
Si Si7 0.075184 0.006875 0.059952
O O1 0.879327 0.718516 0.400654
O O2 0.839793 0.781081 0.252860
O O3 0.785179 0.686548 0.266251
O O4 0.975463 0.709676 0.077029
O O5 0.326028 0.175152 0.664462
O O6 0.380873 0.270337 0.634645
O O7 0.317783 0.377474 0.338438
O O8 0.351498 0.347977 0.059373
O O9 0.500000 0.399488 0.250000
O O10 0.640853 0.455755 0.022208
O O11 0.621024 0.360490 0.970367
O O12 0.826190 0.142864 0.326043
O O13 0.500000 0.623383 0.250000
O O14 0.631034 0.561052 0.029674
O O15 0.000000 0.007423 0.250000
O O16 0.000000 0.000000 0.000000
#
# Coordination Sequence:
#
# PCOD9263179 Si02
#       7
#     8   8   8   8   8   8   8
#     4  10  19  34  53  77 103 130 173 226 254 294
#     4  10  19  34  53  77 103 130 175 224 251 299
#     4  11  20  33  51  78  99 138 177 201 257 315
#     4  11  18  30  54  73  98 135 174 209 249 307
#     4  11  20  33  51  78 103 138 173 206 262 310
#     4  11  22  34  48  75 112 139 162 209 260 313
#     4  10  20  34  48  74 105 138 171 210 258 310
#
# _framework density 16.190867000000001
#
# number of rings (size 3 to 8) (size 9 to 14) (size 15 to 20)
#    0.000    1.429    2.857    6.857    0.000    2.286 
#    0.000    2.143    0.000    0.000    0.000    6.000 
#    0.000    0.000    0.000    0.000    0.000    0.000 
#
# Total GULP energy -155955.539894 kJ/mol
# GULP energy per Si atom -5569.840711 kJ/mol
# Density = 1.615402 g / cm^3
# Si number density = 16.190867 Si / 1000 Ang^3
#
#
#
# Elastic Constant Matrix: (Units=GPa)
#
#
# Indices 1 2 3 4 5 6 
#
# 1 49.0638 30.5362 11.6592 0.0000 1.3878 0.0000
# 2 30.5362 76.3644 20.4132 0.0000 -0.6789 0.0000
# 3 11.6592 20.4132 65.3579 0.0000 7.7781 0.0000
# 4 0.0000 0.0000 0.0000 9.0709 0.0000 -3.7023
# 5 1.3878 -0.6789 7.7781 0.0000 36.3162 0.0000
# 6 0.0000 0.0000 0.0000 -3.7023 0.0000 19.1113
#
#
#
# Elastic Compliance Matrix: (Units=1/GPa)
#
#
# Indices 1 2 3 4 5 6 
#
# 1 0.027316 -0.010538 -0.001471 0.000000 -0.000926 0.000000
# 2 -0.010538 0.018409 -0.004062 0.000000 0.001617 0.000000
# 3 -0.001471 -0.004062 0.017274 0.000000 -0.003719 0.000000
# 4 0.000000 0.000000 0.000000 0.119707 0.000000 0.023190
# 5 -0.000926 0.001617 -0.003719 0.000000 0.028398 0.000000
# 6 0.000000 0.000000 0.000000 0.023190 0.000000 0.056818
#
#
# Mechanical properties :
#
#
# Convention : Reuss Voigt Hill
#
# Bulk Modulus (GPa) = 32.40835 35.11148 33.75992
# Shear Modulus (GPa) = 16.11078 21.44485 18.77781
#
# Velocity S-wave (km/s) = 3.15787 3.64332 3.40925
# Velocity P-wave (km/s) = 5.77547 6.27945 6.03272
#
# Compressibility (1/GPa) = 0.03085625
#
# Stress axis : x y z
#
# Youngs Moduli (GPa) = 36.60850 54.32047 57.88949
#
# Poissons Ratio (x) = 0.57243 0.08518
# Poissons Ratio (y) = 0.38578 0.23517
# Poissons Ratio (z) = 0.05387 0.22067
#
# Static dielectric constant tensor:
#      x y z
#    x 1.590980 0.000000 0.018750 
#    y 0.000000 1.607710 0.000000 
#    z 0.018750 0.000000 1.548030 
# 
# From -- ./inp_files/43448.got.cif
#   From: 2010.05.17/outbox.cif.g08.bks.cpg/sg15_22_cif.got.tgz:43448.got - 2010.06.03 18:47:42.
