data_PCOD9263020
_publ_section_title
;
Structure prediction by ZEFSAII (Michael W. Deem and Ramdas Pophale) SiO2 
 PCOD9263020
Probable space group: C 2/C
;
_chemical_formula_sum "Si O2"
_cell_formula_units_Z 48
_cell_length_a 7.366623
_cell_length_b 16.974031
_cell_length_c 16.015691
_cell_angle_alpha 90.000000
_cell_angle_beta 79.106980
_cell_angle_gamma 90.000000
_cell_volume 1966.538846
_symmetry_space_group_name_H-M "C 2/C"
_symmetry_group_IT_number 15
_symmetry_cell_setting 'monoclinic'
loop_
_space_group_symop_operation_xyz
x,y,z
-x,y,1/2-z
-x,-y,-z
x,-y,1/2+z
1/2+x,1/2+y,z
1/2-x,1/2+y,1/2-z
1/2-x,1/2-y,-z
1/2+x,1/2-y,1/2+z
loop_
_atom_site_type_symbol
_atom_site_label
_atom_site_fract_x
_atom_site_fract_y
_atom_site_fract_z
Si Si1 0.469879 0.777456 0.544104
Si Si2 0.730081 0.007688 0.816731
Si Si3 0.590346 0.488593 0.376302
Si Si4 0.145375 0.173867 0.399757
Si Si5 0.695446 0.821151 0.782418
Si Si6 0.412131 0.934477 0.446608
O O1 0.662743 0.798493 0.574347
O O2 0.495898 0.707465 0.476595
O O3 0.325472 0.769240 0.632654
O O4 0.433219 0.852617 0.490160
O O5 0.814245 0.031152 0.720686
O O6 0.717611 0.911992 0.811764
O O7 0.876353 0.027897 0.877222
O O8 0.539523 0.050013 0.854343
O O9 0.626070 0.580625 0.391152
O O10 0.701074 0.446349 0.439078
O O11 0.156899 0.201302 0.301814
O O12 0.500000 0.820022 0.750000
O O13 0.500000 0.000000 0.500000
#
# Coordination Sequence:
#
# PCOD9263020 Si02
#       6
#     8   8   8   8   8   8
#     4  10  19  33  59  93 124 162 208 263 320 373
#     4  10  20  36  63  86 118 164 219 252 308 378
#     4  10  21  38  63  87 119 169 216 258 307 387
#     4   9  18  35  59  86 122 168 213 254 306 383
#     4   9  16  33  60  86 117 169 213 256 310 383
#     4  12  20  35  61  94 127 160 201 267 327 376
#
# _framework density 24.408365
#
# number of rings (size 3 to 8) (size 9 to 14) (size 15 to 20)
#    0.000    2.000    3.333    2.500    0.000    0.667 
#    0.000    0.833   33.000    2.000    0.000    0.000 
#    0.000    0.000    0.000    0.000    0.000    0.000 
#
# Total GULP energy -134259.689828 kJ/mol
# GULP energy per Si atom -5594.153743 kJ/mol
# Density = 2.435281 g / cm^3
# Si number density = 24.408365 Si / 1000 Ang^3
#
#
#
# Elastic Constant Matrix: (Units=GPa)
#
#
# Indices 1 2 3 4 5 6 
#
# 1 93.5367 18.1867 61.7656 0.0000 16.8759 0.0000
# 2 18.1867 47.8269 57.4057 0.0000 -8.7359 0.0000
# 3 61.7656 57.4057 170.2808 0.0000 -14.8478 0.0000
# 4 0.0000 0.0000 0.0000 32.6506 0.0000 -5.6462
# 5 16.8759 -8.7359 -14.8478 0.0000 50.8182 0.0000
# 6 0.0000 0.0000 0.0000 -5.6462 0.0000 12.9570
#
#
#
# Elastic Compliance Matrix: (Units=1/GPa)
#
#
# Indices 1 2 3 4 5 6 
#
# 1 0.016368 0.000557 -0.006763 0.000000 -0.007316 0.000000
# 2 0.000557 0.035489 -0.011955 0.000000 0.002423 0.000000
# 3 -0.006763 -0.011955 0.012696 0.000000 0.003900 0.000000
# 4 0.000000 0.000000 0.000000 0.033123 0.000000 0.014434
# 5 -0.007316 0.002423 0.003900 0.000000 0.023664 0.000000
# 6 0.000000 0.000000 0.000000 0.014434 0.000000 0.083468
#
#
# Mechanical properties :
#
#
# Convention : Reuss Voigt Hill
#
# Bulk Modulus (GPa) = 35.42150 65.15114 50.28632
# Shear Modulus (GPa) = 19.95684 30.90426 25.43055
#
# Velocity S-wave (km/s) = 2.86251 3.56214 3.23132
# Velocity P-wave (km/s) = 5.04667 6.60822 5.87951
#
# Compressibility (1/GPa) = 0.02823144
#
# Stress axis : x y z
#
# Youngs Moduli (GPa) = 61.09306 28.17804 78.76450
#
# Poissons Ratio (x) = -0.01569 0.53268
# Poissons Ratio (y) = -0.03402 0.94161
# Poissons Ratio (z) = 0.41317 0.33686
#
# Static dielectric constant tensor:
#      x y z
#    x -0.827420 0.000000 1.384980 
#    y 0.000000 1.894030 0.000000 
#    z 1.384980 0.000000 1.252660 
# 
# From -- ./inp_files/135461.got.cif
#   From: 2010.05.17/outbox.cif.g08.bks.cpg/sg15_68_cif.got.tgz:135461.got - 2010.06.03 18:47:42.
