data_PCOD9263577
_publ_section_title
;
Structure prediction by ZEFSAII (Michael W. Deem and Ramdas Pophale) SiO2 
 PCOD9263577
Probable space group: C 2/C
;
_chemical_formula_sum "Si O2"
_cell_formula_units_Z 64
_cell_length_a 9.963484
_cell_length_b 28.389103
_cell_length_c 15.400136
_cell_angle_alpha 90.000000
_cell_angle_beta 131.256581
_cell_angle_gamma 90.000000
_cell_volume 3274.681147
_symmetry_space_group_name_H-M "C 2/C"
_symmetry_group_IT_number 15
_symmetry_cell_setting 'monoclinic'
loop_
_space_group_symop_operation_xyz
x,y,z
-x,y,1/2-z
-x,-y,-z
x,-y,1/2+z
1/2+x,1/2+y,z
1/2-x,1/2+y,1/2-z
1/2-x,1/2-y,-z
1/2+x,1/2-y,1/2+z
loop_
_atom_site_type_symbol
_atom_site_label
_atom_site_fract_x
_atom_site_fract_y
_atom_site_fract_z
Si Si1 0.114128 0.815646 0.667048
Si Si2 0.100673 0.575192 0.067642
Si Si3 0.707774 0.422308 0.668597
Si Si4 0.762818 0.320487 0.920491
Si Si5 0.906171 0.816881 0.115995
Si Si6 0.072168 0.256361 0.015572
Si Si7 0.902274 0.979119 0.617321
Si Si8 0.283963 0.421064 0.024701
O O1 0.176741 0.866799 0.665450
O O2 0.187136 0.806578 0.793724
O O3 0.177225 0.776688 0.627169
O O4 0.899196 0.817252 0.581756
O O5 0.172444 0.565067 0.196405
O O6 0.171275 0.626013 0.064856
O O7 0.198794 0.538343 0.045469
O O8 0.888013 0.577516 0.985523
O O9 0.519011 0.449589 0.598792
O O10 0.777464 0.429181 0.601180
O O11 0.922311 0.284626 0.003861
O O12 0.705919 0.795240 0.034805
O O13 0.884137 0.870926 0.075845
O O14 0.000000 0.815846 0.250000
O O15 0.996886 0.780462 0.086776
O O16 0.000000 0.968633 0.750000
O O17 0.905176 0.034283 0.599770
#
# Coordination Sequence:
#
# PCOD9263577 Si02
#       8
#     8   8   8   8   8   8   8   8
#     4  10  19  34  58  83 109 143 186 231 272 322
#     4  10  20  36  57  84 110 139 186 233 272 324
#     4  10  20  36  57  84 110 139 186 233 272 324
#     4  10  19  34  58  83 109 143 186 231 272 322
#     4  11  24  37  52  79 116 147 185 227 272 338
#     4  11  21  38  54  80 109 151 188 222 280 318
#     4  10  21  38  60  81 109 145 182 226 276 331
#     4  12  21  37  56  85 111 149 179 220 288 331
#
# _framework density 19.543887999999999
#
# number of rings (size 3 to 8) (size 9 to 14) (size 15 to 20)
#    0.000    1.500    3.750    2.625    0.000    0.000 
#    0.000    0.000    0.000    0.000    0.000    0.000 
#    0.000    0.000    0.000    0.000    0.000    0.000 
#
# Total GULP energy -178463.562284 kJ/mol
# GULP energy per Si atom -5576.986321 kJ/mol
# Density = 1.949940 g / cm^3
# Si number density = 19.543888 Si / 1000 Ang^3
#
#
#
# Elastic Constant Matrix: (Units=GPa)
#
#
# Indices 1 2 3 4 5 6 
#
# 1 37.3631 2.1522 -14.8923 0.0000 -2.1168 0.0000
# 2 2.1522 83.1879 2.9119 0.0000 -7.6680 0.0000
# 3 -14.8923 2.9119 24.7504 0.0000 -7.7010 0.0000
# 4 0.0000 0.0000 0.0000 20.7668 0.0000 -5.2539
# 5 -2.1168 -7.6680 -7.7010 0.0000 20.8830 0.0000
# 6 0.0000 0.0000 0.0000 -5.2539 0.0000 7.0380
#
#
#
# Elastic Compliance Matrix: (Units=1/GPa)
#
#
# Indices 1 2 3 4 5 6 
#
# 1 0.038592 -0.000689 0.027608 0.000000 0.013840 0.000000
# 2 -0.000689 0.012454 -0.000541 0.000000 0.004304 0.000000
# 3 0.027608 -0.000541 0.065391 0.000000 0.026714 0.000000
# 4 0.000000 0.000000 0.000000 0.059365 0.000000 0.044316
# 5 0.013840 0.004304 0.026714 0.000000 0.060720 0.000000
# 6 0.000000 0.000000 0.000000 0.044316 0.000000 0.175167
#
#
# Mechanical properties :
#
#
# Convention : Reuss Voigt Hill
#
# Bulk Modulus (GPa) = 5.91038 13.96057 9.93547
# Shear Modulus (GPa) = 12.03858 20.07954 16.05906
#
# Velocity S-wave (km/s) = 2.48458 3.20880 2.86963
# Velocity P-wave (km/s) = 3.35583 4.57025 4.00929
#
# Compressibility (1/GPa) = 0.16919397
#
# Stress axis : x y z
#
# Youngs Moduli (GPa) = 25.91190 80.29256 15.29269
#
# Poissons Ratio (x) = 0.05533 -0.42220
# Poissons Ratio (y) = 0.01786 0.00827
# Poissons Ratio (z) = -0.71538 0.04342
#
# Static dielectric constant tensor:
#      x y z
#    x 1.712180 0.000000 0.017120 
#    y 0.000000 1.663300 0.000000 
#    z 0.017120 0.000000 1.694200 
# 
# From -- ./inp_files/139548.got.cif
#   From: 2010.05.17/outbox.cif.g08.bks.cpg/sg15_70_cif.got.tgz:139548.got - 2010.06.03 18:47:42.
