data_PCOD9263286
_publ_section_title
;
Structure prediction by ZEFSAII (Michael W. Deem and Ramdas Pophale) SiO2 
 PCOD9263286
Probable space group: C 2/C
;
_chemical_formula_sum "Si O2"
_cell_formula_units_Z 36
_cell_length_a 8.409481
_cell_length_b 11.016066
_cell_length_c 15.171629
_cell_angle_alpha 90.000000
_cell_angle_beta 84.447846
_cell_angle_gamma 90.000000
_cell_volume 1398.896772
_symmetry_space_group_name_H-M "C 2/C"
_symmetry_group_IT_number 15
_symmetry_cell_setting 'monoclinic'
loop_
_space_group_symop_operation_xyz
x,y,z
-x,y,1/2-z
-x,-y,-z
x,-y,1/2+z
1/2+x,1/2+y,z
1/2-x,1/2+y,1/2-z
1/2-x,1/2-y,-z
1/2+x,1/2-y,1/2+z
loop_
_atom_site_type_symbol
_atom_site_label
_atom_site_fract_x
_atom_site_fract_y
_atom_site_fract_z
Si Si1 0.566080 0.144254 0.383627
Si Si2 0.753813 0.166149 0.208017
Si Si3 0.500000 0.539750 0.750000
Si Si4 0.534132 0.306350 0.951128
Si Si5 0.688633 0.537514 0.580890
O O1 0.689672 0.208163 0.307103
O O2 0.401316 0.132673 0.340027
O O3 0.544539 0.214163 0.476543
O O4 0.641255 0.012850 0.400477
O O5 0.858626 0.045889 0.221725
O O6 0.878721 0.241799 0.141417
O O7 0.586033 0.603061 0.663704
O O8 0.408317 0.412362 0.934264
O O9 0.672427 0.377083 0.998351
#
# Coordination Sequence:
#
# PCOD9263286 Si02
#       5
#     8   8   4   8   8
#     4  10  19  34  55  78 109 146 184 232 286 337
#     4   9  19  33  52  78 108 144 183 230 280 333
#     4   8  16  34  52  74 112 148 180 230 288 336
#     4  10  19  34  55  80 109 146 187 231 286 341
#     4   9  19  33  54  79 108 144 188 235 282 340
#
# _framework density 25.734566000000001
#
# number of rings (size 3 to 8) (size 9 to 14) (size 15 to 20)
#    0.000    2.667    0.000    1.333    0.000    2.667 
#    0.000    0.000    0.000   10.667    0.000    0.000 
#    0.000    0.000    0.000    0.000    0.000    0.000 
#
# Total GULP energy -100711.930806 kJ/mol
# GULP energy per Si atom -5595.107267 kJ/mol
# Density = 2.567599 g / cm^3
# Si number density = 25.734566 Si / 1000 Ang^3
#
#
#
# Elastic Constant Matrix: (Units=GPa)
#
#
# Indices 1 2 3 4 5 6 
#
# 1 102.4382 51.8594 37.3346 0.0000 -8.2535 0.0000
# 2 51.8594 83.0986 33.3193 0.0000 -8.1237 0.0000
# 3 37.3346 33.3193 160.0935 0.0000 -50.4906 0.0000
# 4 0.0000 0.0000 0.0000 34.5973 0.0000 -14.6767
# 5 -8.2535 -8.1237 -50.4906 0.0000 58.2895 0.0000
# 6 0.0000 0.0000 0.0000 -14.6767 0.0000 30.7398
#
#
#
# Elastic Compliance Matrix: (Units=1/GPa)
#
#
# Indices 1 2 3 4 5 6 
#
# 1 0.014684 -0.008477 -0.001895 0.000000 -0.000743 0.000000
# 2 -0.008477 0.018046 -0.001877 0.000000 -0.000311 0.000000
# 3 -0.001895 -0.001877 0.009510 0.000000 0.007707 0.000000
# 4 0.000000 0.000000 0.000000 0.036245 0.000000 0.017305
# 5 -0.000743 -0.000311 0.007707 0.000000 0.023683 0.000000
# 6 0.000000 0.000000 0.000000 0.017305 0.000000 0.040794
#
#
# Mechanical properties :
#
#
# Convention : Reuss Voigt Hill
#
# Bulk Modulus (GPa) = 56.36113 65.62854 60.99484
# Shear Modulus (GPa) = 28.83948 39.59977 34.21963
#
# Velocity S-wave (km/s) = 3.35125 3.92698 3.65048
# Velocity P-wave (km/s) = 6.07643 6.79110 6.44368
#
# Compressibility (1/GPa) = 0.01774272
#
# Stress axis : x y z
#
# Youngs Moduli (GPa) = 68.10132 55.41297 105.15656
#
# Poissons Ratio (x) = 0.46973 0.19923
# Poissons Ratio (y) = 0.57729 0.19740
# Poissons Ratio (z) = 0.12902 0.10402
#
# Static dielectric constant tensor:
#      x y z
#    x 2.021280 0.000000 -0.012520 
#    y 0.000000 2.034320 0.000000 
#    z -0.012520 0.000000 2.115970 
# 
# From -- ./inp_files/132629.got.cif
#   From: 2010.05.17/outbox.cif.g08.bks.cpg/sg15_67_cif.got.tgz:132629.got - 2010.06.03 18:47:42.
