data_PCOD9263846
_publ_section_title
;
Structure prediction by ZEFSAII (Michael W. Deem and Ramdas Pophale) SiO2 
 PCOD9263846
Probable space group: C 2/C
;
_chemical_formula_sum "Si O2"
_cell_formula_units_Z 56
_cell_length_a 18.389389
_cell_length_b 17.086477
_cell_length_c 16.301274
_cell_angle_alpha 90.000000
_cell_angle_beta 149.843690
_cell_angle_gamma 90.000000
_cell_volume 2573.102479
_symmetry_space_group_name_H-M "C 2/C"
_symmetry_group_IT_number 15
_symmetry_cell_setting 'monoclinic'
loop_
_space_group_symop_operation_xyz
x,y,z
-x,y,1/2-z
-x,-y,-z
x,-y,1/2+z
1/2+x,1/2+y,z
1/2-x,1/2+y,1/2-z
1/2-x,1/2-y,-z
1/2+x,1/2-y,1/2+z
loop_
_atom_site_type_symbol
_atom_site_label
_atom_site_fract_x
_atom_site_fract_y
_atom_site_fract_z
Si Si1 0.655958 0.711771 0.719027
Si Si2 0.057756 0.302101 0.095858
Si Si3 0.720433 0.340034 0.448753
Si Si4 0.452830 0.958415 0.619626
Si Si5 0.363212 0.707318 0.169610
Si Si6 0.710205 0.915949 0.638575
Si Si7 0.249349 0.389689 0.850044
O O1 0.790538 0.676746 0.799159
O O2 0.517694 0.731251 0.528801
O O3 0.627434 0.664895 0.774726
O O4 0.710181 0.798740 0.796778
O O5 0.086946 0.270760 0.214761
O O6 0.939589 0.370300 0.985602
O O7 0.750000 0.250000 0.500000
O O8 0.870808 0.379767 0.567634
O O9 0.675212 0.387278 0.486598
O O10 0.500000 0.001696 0.750000
O O11 0.600805 0.937060 0.719830
O O12 0.342017 0.005446 0.455472
O O13 0.500000 0.680447 0.250000
O O14 0.250000 0.750000 0.000000
O O15 0.292135 0.637824 0.152630
O O16 0.800802 0.921527 0.811848
#
# Coordination Sequence:
#
# PCOD9263846 Si02
#       7
#     8   8   8   8   8   8   8
#     4  10  19  34  61  91 127 161 212 270 324 380
#     4  11  20  37  58  94 123 161 219 271 322 384
#     4   9  18  34  59  89 124 162 207 267 328 379
#     4  10  21  36  59  94 129 166 219 270 328 390
#     4  12  23  39  62  88 128 167 222 269 320 385
#     4  11  22  36  64  90 130 167 214 267 332 387
#     4   9  18  35  55  88 127 158 203 265 319 377
#
# _framework density 21.763611000000001
#
# number of rings (size 3 to 8) (size 9 to 14) (size 15 to 20)
#    0.000    1.714    4.286    2.143    2.000    1.143 
#    0.000    2.143    0.000   10.286    0.000    0.000 
#    0.000    0.000    0.000    0.000    0.000    0.000 
#
# Total GULP energy -156208.393878 kJ/mol
# GULP energy per Si atom -5578.871210 kJ/mol
# Density = 2.171408 g / cm^3
# Si number density = 21.763611 Si / 1000 Ang^3
#
#
#
# Elastic Constant Matrix: (Units=GPa)
#
#
# Indices 1 2 3 4 5 6 
#
# 1 153.9797 30.7176 53.6879 -0.0001 -21.0224 0.0000
# 2 30.7176 44.8001 3.5103 0.0000 1.2747 0.0003
# 3 53.6879 3.5103 72.5605 -0.0002 -12.6379 0.0002
# 4 -0.0001 0.0000 -0.0002 30.0142 0.0000 2.7093
# 5 -21.0224 1.2747 -12.6379 0.0000 53.0734 0.0002
# 6 0.0000 0.0003 0.0002 2.7093 0.0002 14.8662
#
#
#
# Elastic Compliance Matrix: (Units=1/GPa)
#
#
# Indices 1 2 3 4 5 6 
#
# 1 0.010720 -0.006869 -0.007127 0.000000 0.002714 0.000000
# 2 -0.006869 0.026843 0.003336 0.000000 -0.002571 -0.000001
# 3 -0.007127 0.003336 0.019183 0.000000 0.001665 0.000000
# 4 0.000000 0.000000 0.000000 0.033875 0.000000 -0.006174
# 5 0.002714 -0.002571 0.001665 0.000000 0.020375 0.000000
# 6 0.000000 -0.000001 0.000000 -0.006174 0.000000 0.068392
#
#
# Mechanical properties :
#
#
# Convention : Reuss Voigt Hill
#
# Bulk Modulus (GPa) = 28.22727 49.68577 38.95652
# Shear Modulus (GPa) = 23.52752 31.81907 27.67330
#
# Velocity S-wave (km/s) = 3.29150 3.82780 3.56973
# Velocity P-wave (km/s) = 5.23864 6.51271 5.91011
#
# Compressibility (1/GPa) = 0.03542673
#
# Stress axis : x y z
#
# Youngs Moduli (GPa) = 93.28201 37.25356 52.12844
#
# Poissons Ratio (x) = 0.25590 0.37151
# Poissons Ratio (y) = 0.64077 -0.17391
# Poissons Ratio (z) = 0.66481 -0.12428
#
# Static dielectric constant tensor:
#      x y z
#    x 1.840090 0.000000 -0.072290 
#    y 0.000000 1.815420 0.000000 
#    z -0.072290 0.000000 1.858120 
# 
# From -- ./inp_files/211890.got.cif
#   From: 2010.05.17/outbox.cif.g08.bks.cpg/sg15_106_cif.got.tgz:211890.got - 2010.06.03 18:47:42.
