data_PCOD9263355
_publ_section_title
;
Structure prediction by ZEFSAII (Michael W. Deem and Ramdas Pophale) SiO2 
 PCOD9263355
Probable space group: C 2/C
;
_chemical_formula_sum "Si O2"
_cell_formula_units_Z 56
_cell_length_a 17.235568
_cell_length_b 13.062857
_cell_length_c 17.518174
_cell_angle_alpha 90.000000
_cell_angle_beta 136.509611
_cell_angle_gamma 90.000000
_cell_volume 2714.488657
_symmetry_space_group_name_H-M "C 2/C"
_symmetry_group_IT_number 15
_symmetry_cell_setting 'monoclinic'
loop_
_space_group_symop_operation_xyz
x,y,z
-x,y,1/2-z
-x,-y,-z
x,-y,1/2+z
1/2+x,1/2+y,z
1/2-x,1/2+y,1/2-z
1/2-x,1/2-y,-z
1/2+x,1/2-y,1/2+z
loop_
_atom_site_type_symbol
_atom_site_label
_atom_site_fract_x
_atom_site_fract_y
_atom_site_fract_z
Si Si1 0.308339 0.389579 0.312352
Si Si2 0.371305 0.167315 0.398312
Si Si3 0.448121 0.879774 0.345350
Si Si4 0.516263 0.555785 0.674084
Si Si5 0.837948 0.901099 0.922723
Si Si6 0.889387 0.158946 0.298833
Si Si7 0.924502 0.399813 0.765753
O O1 0.348561 0.288710 0.384655
O O2 0.175325 0.394716 0.205426
O O3 0.371097 0.392636 0.277250
O O4 0.345204 0.487238 0.387942
O O5 0.451274 0.127013 0.522063
O O6 0.241188 0.128364 0.312203
O O7 0.425717 0.142586 0.354124
O O8 0.432000 0.767067 0.296454
O O9 0.457483 0.980077 0.299798
O O10 0.500000 0.574387 0.750000
O O11 0.416044 0.599327 0.551340
O O12 0.531954 0.434414 0.669276
O O13 0.882999 0.828759 0.886780
O O14 0.707361 0.885978 0.848618
O O15 0.000000 0.357518 0.750000
#
# Coordination Sequence:
#
# PCOD9263355 Si02
#       7
#     8   8   8   8   8   8   8
#     4   9  19  35  54  76  99 131 173 207 245 295
#     4  10  19  34  56  75  97 134 174 208 241 292
#     4  10  19  34  56  75  97 134 174 208 241 292
#     4  11  21  32  52  79 104 129 164 210 255 296
#     4   9  18  36  55  71  99 137 168 204 249 294
#     4   9  19  35  54  76  99 131 173 207 245 295
#     4  10  22  34  49  76 107 134 162 202 257 304
#
# _framework density 20.630037000000002
#
# number of rings (size 3 to 8) (size 9 to 14) (size 15 to 20)
#    0.000    2.286    0.000    4.714    0.000    3.429 
#    0.000    0.000    0.000   13.714    0.000    0.000 
#    0.000    0.000    0.000    0.000    0.000    0.000 
#
# Total GULP energy -156215.120845 kJ/mol
# GULP energy per Si atom -5579.111459 kJ/mol
# Density = 2.058308 g / cm^3
# Si number density = 20.630037 Si / 1000 Ang^3
#
#
#
# Elastic Constant Matrix: (Units=GPa)
#
#
# Indices 1 2 3 4 5 6 
#
# 1 73.2896 -23.3145 36.8692 0.0000 -3.7216 0.0000
# 2 -23.3145 38.4775 -15.9121 0.0000 -0.9919 0.0000
# 3 36.8692 -15.9121 116.7589 0.0000 5.4116 0.0000
# 4 0.0000 0.0000 0.0000 19.2650 0.0000 8.2872
# 5 -3.7216 -0.9919 5.4116 0.0000 14.0831 0.0000
# 6 0.0000 0.0000 0.0000 8.2872 0.0000 2.9946
#
#
#
# Elastic Compliance Matrix: (Units=1/GPa)
#
#
# Indices 1 2 3 4 5 6 
#
# 1 0.019920 0.010090 -0.005286 0.000000 0.008006 0.000000
# 2 0.010090 0.032656 0.001053 0.000000 0.004562 0.000000
# 3 -0.005286 0.001053 0.010628 0.000000 -0.005407 0.000000
# 4 0.000000 0.000000 0.000000 -0.272582 0.000000 0.754331
# 5 0.008006 0.004562 -0.005407 0.000000 0.075522 0.000000
# 6 0.000000 0.000000 0.000000 0.754331 0.000000 -1.753571
#
#
# Mechanical properties :
#
#
# Convention : Reuss Voigt Hill
#
# Bulk Modulus (GPa) = 13.34783 24.86791 19.10787
# Shear Modulus (GPa) = -2.66785 22.66077 9.99646
#
# Velocity S-wave (km/s) = -1.13842 3.31786 2.20366
# Velocity P-wave (km/s) = 2.18086 5.17281 3.96952
#
# Compressibility (1/GPa) = 0.07491852
#
# Stress axis : x y z
#
# Youngs Moduli (GPa) = 50.20015 30.62202 94.09166
#
# Poissons Ratio (x) = -0.30899 0.49738
# Poissons Ratio (y) = -0.50654 -0.09905
# Poissons Ratio (z) = 0.26537 -0.03224
#
# Static dielectric constant tensor:
#      x y z
#    x 1.715740 0.000000 0.025370 
#    y 0.000000 1.813830 0.000000 
#    z 0.025370 0.000000 1.735610 
# 
# From -- ./inp_files/105273.got.cif
#   From: 2010.05.17/outbox.cif.g08.bks.cpg/sg15_53_cif.got.tgz:105273.got - 2010.06.03 18:47:42.
