data_PCOD9263695
_publ_section_title
;
Structure prediction by ZEFSAII (Michael W. Deem and Ramdas Pophale) SiO2 
 PCOD9263695
Probable space group: C 2/C
;
_chemical_formula_sum "Si O2"
_cell_formula_units_Z 36
_cell_length_a 15.424472
_cell_length_b 19.570476
_cell_length_c 5.426886
_cell_angle_alpha 90.000000
_cell_angle_beta 64.098802
_cell_angle_gamma 90.000000
_cell_volume 1473.625228
_symmetry_space_group_name_H-M "C 2/C"
_symmetry_group_IT_number 15
_symmetry_cell_setting 'monoclinic'
loop_
_space_group_symop_operation_xyz
x,y,z
-x,y,1/2-z
-x,-y,-z
x,-y,1/2+z
1/2+x,1/2+y,z
1/2-x,1/2+y,1/2-z
1/2-x,1/2-y,-z
1/2+x,1/2-y,1/2+z
loop_
_atom_site_type_symbol
_atom_site_label
_atom_site_fract_x
_atom_site_fract_y
_atom_site_fract_z
Si Si1 0.322259 0.825047 0.667412
Si Si2 0.129790 0.962078 0.455213
Si Si3 0.378033 0.241216 0.594695
Si Si4 0.341612 0.016384 0.185992
Si Si5 0.500000 0.339251 0.750000
O O1 0.368037 0.808969 0.343736
O O2 0.220244 0.785941 0.796118
O O3 0.308514 0.905359 0.719000
O O4 0.382302 0.797307 0.828389
O O5 0.086160 0.887412 0.545539
O O6 0.098976 0.004718 0.735406
O O7 0.245731 0.968179 0.308612
O O8 0.460188 0.293554 0.577903
O O9 0.394334 0.001401 0.371564
#
# Coordination Sequence:
#
# PCOD9263695 Si02
#       5
#     8   8   8   8   4
#     4  10  21  40  56  84 119 162 209 238 293 357
#     4  10  22  35  54  85 125 161 188 236 296 362
#     4  10  23  37  59  81 120 167 201 247 285 360
#     4  10  19  34  59  86 114 150 196 251 294 345
#     4  12  24  40  60  94 128 160 200 242 314 366
#
# _framework density 24.429552000000001
#
# number of rings (size 3 to 8) (size 9 to 14) (size 15 to 20)
#    0.000    1.778    0.000    4.667    0.000   13.333 
#    0.000    0.000    0.000    0.000    0.000   15.556 
#    0.000    0.000    0.000    0.000    0.000    0.000 
#
# Total GULP energy -100778.954615 kJ/mol
# GULP energy per Si atom -5598.830812 kJ/mol
# Density = 2.437395 g / cm^3
# Si number density = 24.429552 Si / 1000 Ang^3
#
#
#
# Elastic Constant Matrix: (Units=GPa)
#
#
# Indices 1 2 3 4 5 6 
#
# 1 129.1001 48.2052 73.5097 0.0000 14.0337 0.0000
# 2 48.2052 110.3553 54.4798 0.0000 12.7130 0.0000
# 3 73.5097 54.4798 175.8836 0.0000 68.8882 0.0000
# 4 0.0000 0.0000 0.0000 141.5934 0.0000 138.8496
# 5 14.0337 12.7130 68.8882 0.0000 42.3931 0.0000
# 6 0.0000 0.0000 0.0000 138.8496 0.0000 165.5330
#
#
#
# Elastic Compliance Matrix: (Units=1/GPa)
#
#
# Indices 1 2 3 4 5 6 
#
# 1 0.012358 -0.002394 -0.008534 0.000000 0.010494 0.000000
# 2 -0.002394 0.011744 -0.004313 0.000000 0.004279 0.000000
# 3 -0.008534 -0.004313 0.024688 0.000000 -0.035999 0.000000
# 4 0.000000 0.000000 0.000000 0.039800 0.000000 -0.033384
# 5 0.010494 0.004279 -0.035999 0.000000 0.077329 0.000000
# 6 0.000000 0.000000 0.000000 -0.033384 0.000000 0.034044
#
#
# Mechanical properties :
#
#
# Convention : Reuss Voigt Hill
#
# Bulk Modulus (GPa) = 54.62144 85.30313 69.96229
# Shear Modulus (GPa) = 21.13749 85.84687 53.49218
#
# Velocity S-wave (km/s) = 2.94469 5.93438 4.68445
# Velocity P-wave (km/s) = 5.82829 9.05260 7.61310
#
# Compressibility (1/GPa) = 0.01830783
#
# Stress axis : x y z
#
# Youngs Moduli (GPa) = 80.91761 85.15129 40.50599
#
# Poissons Ratio (x) = 0.20389 0.34566
# Poissons Ratio (y) = 0.19375 0.17470
# Poissons Ratio (z) = 0.69051 0.36726
#
# Static dielectric constant tensor:
#      x y z
#    x 1.952170 0.000000 -0.007820 
#    y 0.000000 1.870550 0.000000 
#    z -0.007820 0.000000 2.006340 
# 
# From -- ./inp_files/9772.got.cif
#   From: 2010.05.17/outbox.cif.g08.bks.cpg/sg15_5_cif.got.tgz:9772.got - 2010.06.03 18:47:42.
