data_PCOD9263581
_publ_section_title
;
Structure prediction by ZEFSAII (Michael W. Deem and Ramdas Pophale) SiO2 
 PCOD9263581
Probable space group: C 2/C
;
_chemical_formula_sum "Si O2"
_cell_formula_units_Z 56
_cell_length_a 9.757450
_cell_length_b 23.928111
_cell_length_c 14.470755
_cell_angle_alpha 90.000000
_cell_angle_beta 59.149832
_cell_angle_gamma 90.000000
_cell_volume 2900.560428
_symmetry_space_group_name_H-M "C 2/C"
_symmetry_group_IT_number 15
_symmetry_cell_setting 'monoclinic'
loop_
_space_group_symop_operation_xyz
x,y,z
-x,y,1/2-z
-x,-y,-z
x,-y,1/2+z
1/2+x,1/2+y,z
1/2-x,1/2+y,1/2-z
1/2-x,1/2-y,-z
1/2+x,1/2-y,1/2+z
loop_
_atom_site_type_symbol
_atom_site_label
_atom_site_fract_x
_atom_site_fract_y
_atom_site_fract_z
Si Si1 0.199531 0.471423 0.331061
Si Si2 0.138982 0.111401 0.587451
Si Si3 0.177562 0.071869 0.885987
Si Si4 0.349573 0.929346 0.514607
Si Si5 0.054738 0.334659 0.498925
Si Si6 0.156661 0.683524 0.751856
Si Si7 0.515475 0.264769 0.347076
O O1 0.322710 0.427439 0.336853
O O2 0.252058 0.475366 0.206604
O O3 0.199645 0.528385 0.388105
O O4 0.019243 0.448250 0.409118
O O5 0.318766 0.124886 0.492538
O O6 0.009878 0.080826 0.568448
O O7 0.065260 0.173485 0.628978
O O8 0.221696 0.067314 0.977208
O O9 0.274224 0.126281 0.815151
O O10 0.390299 0.868426 0.541955
O O11 0.052038 0.276761 0.553608
O O12 0.117375 0.324436 0.373192
O O13 0.299449 0.726768 0.694373
O O14 0.000000 0.699236 0.750000
O O15 0.500000 0.240375 0.250000
#
# Coordination Sequence:
#
# PCOD9263581 Si02
#       7
#     8   8   8   8   8   8   8
#     4  10  19  34  58  83 111 146 197 245 290 352
#     4  10  20  35  59  86 111 152 203 246 284 355
#     4  11  18  35  61  83 110 147 201 246 288 354
#     4  10  21  35  55  84 113 152 191 243 303 349
#     4  11  21  38  59  86 121 153 200 245 293 372
#     4  11  20  36  60  87 111 155 202 243 291 351
#     4  11  22  36  59  88 119 157 197 248 304 351
#
# _framework density 19.306614
#
# number of rings (size 3 to 8) (size 9 to 14) (size 15 to 20)
#    0.000    1.429    5.714    2.143    0.000    1.143 
#    0.000    4.286    0.000    1.714    0.000    0.000 
#    0.000    0.000    0.000    0.000    0.000    0.000 
#
# Total GULP energy -156150.221001 kJ/mol
# GULP energy per Si atom -5576.793607 kJ/mol
# Density = 1.926267 g / cm^3
# Si number density = 19.306614 Si / 1000 Ang^3
#
#
#
# Elastic Constant Matrix: (Units=GPa)
#
#
# Indices 1 2 3 4 5 6 
#
# 1 136.8053 -0.4735 8.0622 0.0000 -1.6821 0.0000
# 2 -0.4735 34.1913 11.9220 0.0000 0.9616 0.0000
# 3 8.0622 11.9220 32.2466 0.0000 3.7837 0.0000
# 4 0.0000 0.0000 0.0000 14.3977 0.0000 -1.2310
# 5 -1.6821 0.9616 3.7837 0.0000 17.5625 0.0000
# 6 0.0000 0.0000 0.0000 -1.2310 0.0000 9.9562
#
#
#
# Elastic Compliance Matrix: (Units=1/GPa)
#
#
# Indices 1 2 3 4 5 6 
#
# 1 0.007464 0.000883 -0.002330 0.000000 0.001169 0.000000
# 2 0.000883 0.033693 -0.012794 0.000000 0.000996 0.000000
# 3 -0.002330 -0.012794 0.037208 0.000000 -0.007539 0.000000
# 4 0.000000 0.000000 0.000000 0.070198 0.000000 0.008679
# 5 0.001169 0.000996 -0.007539 0.000000 0.058621 0.000000
# 6 0.000000 0.000000 0.000000 0.008679 0.000000 0.101513
#
#
# Mechanical properties :
#
#
# Convention : Reuss Voigt Hill
#
# Bulk Modulus (GPa) = 20.04689 26.91828 23.48259
# Shear Modulus (GPa) = 14.13202 20.63212 17.38207
#
# Velocity S-wave (km/s) = 2.70844 3.27258 3.00378
# Velocity P-wave (km/s) = 4.49298 5.31530 4.92135
#
# Compressibility (1/GPa) = 0.04988305
#
# Stress axis : x y z
#
# Youngs Moduli (GPa) = 133.96971 29.68016 26.87584
#
# Poissons Ratio (x) = -0.02620 0.06261
# Poissons Ratio (y) = -0.11827 0.34385
# Poissons Ratio (z) = 0.31211 0.37973
#
# Static dielectric constant tensor:
#      x y z
#    x 1.707040 0.000000 -0.017390 
#    y 0.000000 1.701140 0.000000 
#    z -0.017390 0.000000 1.680880 
# 
# From -- ./inp_files/138501.got.cif
#   From: 2010.05.17/outbox.cif.g08.bks.cpg/sg15_70_cif.got.tgz:138501.got - 2010.06.03 18:47:42.
