data_PCOD9263338
_publ_section_title
;
Structure prediction by ZEFSAII (Michael W. Deem and Ramdas Pophale) SiO2 
 PCOD9263338
Probable space group: C 2/C
;
_chemical_formula_sum "Si O2"
_cell_formula_units_Z 56
_cell_length_a 8.062093
_cell_length_b 26.314415
_cell_length_c 12.491732
_cell_angle_alpha 90.000000
_cell_angle_beta 94.558942
_cell_angle_gamma 90.000000
_cell_volume 2641.727005
_symmetry_space_group_name_H-M "C 2/C"
_symmetry_group_IT_number 15
_symmetry_cell_setting 'monoclinic'
loop_
_space_group_symop_operation_xyz
x,y,z
-x,y,1/2-z
-x,-y,-z
x,-y,1/2+z
1/2+x,1/2+y,z
1/2-x,1/2+y,1/2-z
1/2-x,1/2-y,-z
1/2+x,1/2-y,1/2+z
loop_
_atom_site_type_symbol
_atom_site_label
_atom_site_fract_x
_atom_site_fract_y
_atom_site_fract_z
Si Si1 0.842976 0.569477 0.005872
Si Si2 0.149063 0.975080 0.072702
Si Si3 0.167414 0.744515 0.687655
Si Si4 0.392941 0.811660 0.840165
Si Si5 0.221564 0.589352 0.091977
Si Si6 0.688605 0.987815 0.215007
Si Si7 0.722550 0.818091 0.986766
O O1 0.825238 0.550910 0.884178
O O2 0.748146 0.621887 0.021772
O O3 0.787748 0.519442 0.065909
O O4 0.030021 0.582400 0.047628
O O5 0.170847 0.966887 0.198142
O O6 0.180762 0.923911 0.009883
O O7 0.000000 0.000000 0.000000
O O8 0.305310 0.763542 0.780903
O O9 0.163313 0.788760 0.594581
O O10 0.226543 0.698908 0.611675
O O11 0.000000 0.736630 0.750000
O O12 0.500000 0.837044 0.750000
O O13 0.258921 0.853711 0.866741
O O14 0.532203 0.803671 0.938304
O O15 0.247979 0.543501 0.176989
O O16 0.500000 0.990918 0.250000
#
# Coordination Sequence:
#
# PCOD9263338 Si02
#       7
#     8   8   8   8   8   8   8
#     4  10  20  36  60  83 113 159 199 235 284 346
#     4  11  23  35  53  85 127 149 188 247 297 339
#     4  10  21  38  62  88 115 149 196 246 312 351
#     4   9  19  36  61  84 114 148 197 241 295 351
#     4  10  19  34  55  86 106 155 204 236 274 349
#     4  11  18  33  60  80 113 158 198 234 275 349
#     4   9  21  40  61  86 120 153 198 249 289 359
#
# _framework density 21.198255
#
# number of rings (size 3 to 8) (size 9 to 14) (size 15 to 20)
#    0.000    2.000    2.857    1.286    4.000    4.571 
#    0.000    0.000   15.714    0.000    0.000    0.000 
#    0.000    0.000    0.000    0.000    0.000    0.000 
#
# Total GULP energy -155902.780482 kJ/mol
# GULP energy per Si atom -5567.956446 kJ/mol
# Density = 2.115001 g / cm^3
# Si number density = 21.198255 Si / 1000 Ang^3
#
#
#
# Elastic Constant Matrix: (Units=GPa)
#
#
# Indices 1 2 3 4 5 6 
#
# 1 39.8917 -7.8915 21.1377 0.0000 -1.8051 0.0000
# 2 -7.8915 42.3529 19.0321 0.0000 -2.4317 0.0000
# 3 21.1377 19.0321 70.0267 0.0000 2.5743 0.0000
# 4 0.0000 0.0000 0.0000 10.2156 0.0000 -5.1614
# 5 -1.8051 -2.4317 2.5743 0.0000 27.7273 0.0000
# 6 0.0000 0.0000 0.0000 -5.1614 0.0000 15.3988
#
#
#
# Elastic Compliance Matrix: (Units=1/GPa)
#
#
# Indices 1 2 3 4 5 6 
#
# 1 0.035712 0.013508 -0.014630 0.000000 0.004868 0.000000
# 2 0.013508 0.032264 -0.013027 0.000000 0.004919 0.000000
# 3 -0.014630 -0.013027 0.022390 0.000000 -0.004174 0.000000
# 4 0.000000 0.000000 0.000000 0.117847 0.000000 0.039501
# 5 0.004868 0.004919 -0.004174 0.000000 0.037201 0.000000
# 6 0.000000 0.000000 0.000000 0.039501 0.000000 0.078180
#
#
# Mechanical properties :
#
#
# Convention : Reuss Voigt Hill
#
# Bulk Modulus (GPa) = 16.11115 24.09200 20.10158
# Shear Modulus (GPa) = 13.41978 18.66786 16.04382
#
# Velocity S-wave (km/s) = 2.51880 2.97076 2.75407
# Velocity P-wave (km/s) = 4.00947 4.81217 4.42904
#
# Compressibility (1/GPa) = 0.06206881
#
# Stress axis : x y z
#
# Youngs Moduli (GPa) = 28.00142 30.99383 44.66199
#
# Poissons Ratio (x) = -0.41867 0.65341
# Poissons Ratio (y) = -0.37824 0.58182
# Poissons Ratio (z) = 0.40966 0.40376
#
# Static dielectric constant tensor:
#      x y z
#    x 1.847450 0.000000 0.007850 
#    y 0.000000 1.794300 0.000000 
#    z 0.007850 0.000000 1.738410 
# 
# From -- ./inp_files/82270.got.cif
#   From: 2010.05.17/outbox.cif.g08.bks.cpg/sg15_42_cif.got.tgz:82270.got - 2010.06.03 18:47:42.
