data_PCOD9263034
_publ_section_title
;
Structure prediction by ZEFSAII (Michael W. Deem and Ramdas Pophale) SiO2 
 PCOD9263034
Probable space group: C 2/C
;
_chemical_formula_sum "Si O2"
_cell_formula_units_Z 64
_cell_length_a 11.288241
_cell_length_b 14.751345
_cell_length_c 21.541013
_cell_angle_alpha 90.000000
_cell_angle_beta 135.228111
_cell_angle_gamma 90.000000
_cell_volume 2526.231025
_symmetry_space_group_name_H-M "C 2/C"
_symmetry_group_IT_number 15
_symmetry_cell_setting 'monoclinic'
loop_
_space_group_symop_operation_xyz
x,y,z
-x,y,1/2-z
-x,-y,-z
x,-y,1/2+z
1/2+x,1/2+y,z
1/2-x,1/2+y,1/2-z
1/2-x,1/2-y,-z
1/2+x,1/2-y,1/2+z
loop_
_atom_site_type_symbol
_atom_site_label
_atom_site_fract_x
_atom_site_fract_y
_atom_site_fract_z
Si Si1 0.581915 0.456131 0.847160
Si Si2 0.763101 0.030437 0.300784
Si Si3 0.397110 0.945436 0.631013
Si Si4 0.315696 0.264179 0.838039
Si Si5 0.544574 0.747800 0.534960
Si Si6 0.173958 0.592328 0.533914
Si Si7 0.913143 0.747297 0.650097
Si Si8 0.520145 0.266652 0.343301
O O1 0.500000 0.450597 0.750000
O O2 0.441279 0.503587 0.840008
O O3 0.753121 0.510572 0.900426
O O4 0.614043 0.352993 0.878254
O O5 0.724652 0.018907 0.359829
O O6 0.580842 0.007286 0.203729
O O7 0.780318 0.138510 0.293389
O O8 0.328380 0.946452 0.536448
O O9 0.427161 0.837032 0.653657
O O10 0.458239 0.211017 0.852810
O O11 0.139813 0.212666 0.760279
O O12 0.405689 0.290057 0.936101
O O13 0.496646 0.855281 0.513818
O O14 0.724942 0.711790 0.581406
O O15 0.533361 0.730892 0.604252
O O16 0.318258 0.668849 0.595753
O O17 0.000000 0.740501 0.750000
#
# Coordination Sequence:
#
# PCOD9263034 Si02
#       8
#     8   8   8   8   8   8   8   8
#     4  10  24  38  54  79 116 162 193 231 287 346
#     4   9  18  37  60  79 110 149 200 238 275 352
#     4   9  18  35  61  88 103 148 198 242 292 335
#     4  10  19  33  60  84 112 152 188 239 296 345
#     4  11  21  35  60  88 115 146 193 243 290 357
#     4  11  23  35  54  89 121 147 183 244 300 343
#     4  10  20  40  58  78 111 157 201 234 280 341
#     4  10  20  35  56  89 122 142 180 248 305 338
#
# _framework density 25.334182999999999
#
# number of rings (size 3 to 8) (size 9 to 14) (size 15 to 20)
#    0.000    2.000    1.250    3.375    7.000    2.000 
#    0.000    0.000    0.000    3.000    0.000    0.000 
#    0.000    0.000    0.000    0.000    0.000    0.000 
#
# Total GULP energy -178628.679042 kJ/mol
# GULP energy per Si atom -5582.146220 kJ/mol
# Density = 2.527652 g / cm^3
# Si number density = 25.334183 Si / 1000 Ang^3
#
#
#
# Elastic Constant Matrix: (Units=GPa)
#
#
# Indices 1 2 3 4 5 6 
#
# 1 96.8790 -15.5511 38.5130 0.0000 24.1035 0.0000
# 2 -15.5511 33.3818 -0.5545 0.0000 6.6675 0.0000
# 3 38.5130 -0.5545 127.4729 0.0000 12.2865 0.0000
# 4 0.0000 0.0000 0.0000 18.6126 0.0000 -42.8991
# 5 24.1035 6.6675 12.2865 0.0000 42.2252 0.0000
# 6 0.0000 0.0000 0.0000 -42.8991 0.0000 185.7853
#
#
#
# Elastic Compliance Matrix: (Units=1/GPa)
#
#
# Indices 1 2 3 4 5 6 
#
# 1 0.015564 0.009028 -0.003775 0.000000 -0.009211 0.000000
# 2 0.009028 0.036216 -0.001566 0.000000 -0.010416 0.000000
# 3 -0.003775 -0.001566 0.008999 0.000000 -0.000216 0.000000
# 4 0.000000 0.000000 0.000000 0.114851 0.000000 0.026520
# 5 -0.009211 -0.010416 -0.000216 0.000000 0.030648 0.000000
# 6 0.000000 0.000000 0.000000 0.026520 0.000000 0.011506
#
#
# Mechanical properties :
#
#
# Convention : Reuss Voigt Hill
#
# Bulk Modulus (GPa) = 14.67293 33.61649 24.14471
# Shear Modulus (GPa) = 21.44727 65.01303 43.23015
#
# Velocity S-wave (km/s) = 2.91275 5.07128 4.13534
# Velocity P-wave (km/s) = 4.13721 6.89845 5.68793
#
# Compressibility (1/GPa) = 0.06815274
#
# Stress axis : x y z
#
# Youngs Moduli (GPa) = 64.25150 27.61175 111.11831
#
# Poissons Ratio (x) = -0.24927 0.41949
# Poissons Ratio (y) = -0.58004 0.17401
# Poissons Ratio (z) = 0.24256 0.04324
#
# Static dielectric constant tensor:
#      x y z
#    x 2.100650 0.000000 0.015240 
#    y 0.000000 2.037130 0.000000 
#    z 0.015240 0.000000 1.939390 
# 
# From -- ./inp_files/270861.got.cif
#   From: 2010.05.17/outbox.cif.g08.bks.cpg/sg15_136_cif.got.tgz:270861.got - 2010.06.03 18:47:42.
