data_PCOD9263526
_publ_section_title
;
Structure prediction by ZEFSAII (Michael W. Deem and Ramdas Pophale) SiO2 
 PCOD9263526
Probable space group: C 2/C
;
_chemical_formula_sum "Si O2"
_cell_formula_units_Z 64
_cell_length_a 17.354911
_cell_length_b 8.962190
_cell_length_c 18.827755
_cell_angle_alpha 90.000000
_cell_angle_beta 119.256420
_cell_angle_gamma 90.000000
_cell_volume 2554.884479
_symmetry_space_group_name_H-M "C 2/C"
_symmetry_group_IT_number 15
_symmetry_cell_setting 'monoclinic'
loop_
_space_group_symop_operation_xyz
x,y,z
-x,y,1/2-z
-x,-y,-z
x,-y,1/2+z
1/2+x,1/2+y,z
1/2-x,1/2+y,1/2-z
1/2-x,1/2-y,-z
1/2+x,1/2-y,1/2+z
loop_
_atom_site_type_symbol
_atom_site_label
_atom_site_fract_x
_atom_site_fract_y
_atom_site_fract_z
Si Si1 0.685539 0.788657 0.671847
Si Si2 0.015037 0.740792 0.495286
Si Si3 0.054830 0.026165 0.114803
Si Si4 0.059561 0.438256 0.716528
Si Si5 0.587196 0.030150 0.947899
Si Si6 0.293161 0.575099 0.706795
Si Si7 0.086506 0.950983 0.837701
Si Si8 0.312975 0.137060 0.631505
O O1 0.594908 0.828048 0.672650
O O2 0.736750 0.720083 0.764256
O O3 0.717820 0.953407 0.665403
O O4 0.719213 0.680869 0.623503
O O5 0.942337 0.635987 0.501129
O O6 0.074374 0.824955 0.580173
O O7 0.075746 0.637370 0.472568
O O8 0.961417 0.879397 0.438924
O O9 0.132342 0.992418 0.205586
O O10 0.957743 0.045523 0.105925
O O11 0.137424 0.525445 0.791565
O O12 0.000000 0.359985 0.750000
O O13 0.991502 0.547878 0.646176
O O14 0.674774 0.070088 0.942530
O O15 0.346052 0.580782 0.656489
O O16 0.135290 0.794551 0.847113
O O17 0.000000 0.958508 0.750000
#
# Coordination Sequence:
#
# PCOD9263526 Si02
#       8
#     8   8   8   8   8   8   8   8
#     4  11  21  37  54  95 118 157 182 240 317 371
#     4  10  21  34  57  86 115 158 212 243 289 338
#     4  10  20  37  56  88 118 154 197 256 289 350
#     4  10  21  35  63  93 120 150 197 247 302 360
#     4  10  20  36  59  88 114 157 207 249 283 360
#     4  10  22  34  58  83 123 149 189 239 313 357
#     4   9  17  31  55  83 112 146 185 235 304 351
#     4  10  19  34  57  87 122 151 184 245 304 361
#
# _framework density 25.050056000000001
#
# number of rings (size 3 to 8) (size 9 to 14) (size 15 to 20)
#    0.000    2.000    2.500    1.875    3.500    3.500 
#    0.000    0.000    0.000    7.500    3.250    0.000 
#    0.000    0.000    0.000    0.000    0.000    0.000 
#
# Total GULP energy -178624.114905 kJ/mol
# GULP energy per Si atom -5582.003591 kJ/mol
# Density = 2.499304 g / cm^3
# Si number density = 25.050056 Si / 1000 Ang^3
#
#
#
# Elastic Constant Matrix: (Units=GPa)
#
#
# Indices 1 2 3 4 5 6 
#
# 1 135.4924 36.8354 35.8428 0.0000 -47.3103 0.0000
# 2 36.8354 75.8308 13.4912 0.0000 -19.9528 0.0000
# 3 35.8428 13.4912 52.4573 0.0000 -29.9034 0.0000
# 4 0.0000 0.0000 0.0000 44.7925 0.0000 -11.5816
# 5 -47.3103 -19.9528 -29.9034 0.0000 47.8744 0.0000
# 6 0.0000 0.0000 0.0000 -11.5816 0.0000 33.3047
#
#
#
# Elastic Compliance Matrix: (Units=1/GPa)
#
#
# Indices 1 2 3 4 5 6 
#
# 1 0.012002 -0.003010 -0.002144 0.000000 0.009266 0.000000
# 2 -0.003010 0.015573 0.000087 0.000000 0.003570 0.000000
# 3 -0.002144 0.000087 0.030001 0.000000 0.016657 0.000000
# 4 0.000000 0.000000 0.000000 0.024531 0.000000 0.008530
# 5 0.009266 0.003570 0.016657 0.000000 0.041937 0.000000
# 6 0.000000 0.000000 0.000000 0.008530 0.000000 0.032992
#
#
# Mechanical properties :
#
#
# Convention : Reuss Voigt Hill
#
# Bulk Modulus (GPa) = 21.07879 48.45770 34.76825
# Shear Modulus (GPa) = 27.32468 37.03507 32.17988
#
# Velocity S-wave (km/s) = 3.30631 3.84922 3.58805
# Velocity P-wave (km/s) = 4.79672 6.25633 5.57451
#
# Compressibility (1/GPa) = 0.04744105
#
# Stress axis : x y z
#
# Youngs Moduli (GPa) = 83.32229 64.21198 33.33234
#
# Poissons Ratio (x) = 0.19329 0.07146
# Poissons Ratio (y) = 0.25082 -0.00289
# Poissons Ratio (z) = 0.17863 -0.00556
#
# Static dielectric constant tensor:
#      x y z
#    x 2.059480 0.000000 0.044800 
#    y 0.000000 2.001380 0.000000 
#    z 0.044800 0.000000 2.180870 
# 
# From -- ./inp_files/247455.got.cif
#   From: 2010.05.17/outbox.cif.g08.bks.cpg/sg15_124_cif.got.tgz:247455.got - 2010.06.03 18:47:42.
