data_PCOD9263841
_publ_section_title
;
Structure prediction by ZEFSAII (Michael W. Deem and Ramdas Pophale) SiO2 
 PCOD9263841
Probable space group: C 2/C
;
_chemical_formula_sum "Si O2"
_cell_formula_units_Z 48
_cell_length_a 23.932459
_cell_length_b 15.261653
_cell_length_c 8.122828
_cell_angle_alpha 90.000000
_cell_angle_beta 144.277252
_cell_angle_gamma 90.000000
_cell_volume 1732.237935
_symmetry_space_group_name_H-M "C 2/C"
_symmetry_group_IT_number 15
_symmetry_cell_setting 'monoclinic'
loop_
_space_group_symop_operation_xyz
x,y,z
-x,y,1/2-z
-x,-y,-z
x,-y,1/2+z
1/2+x,1/2+y,z
1/2-x,1/2+y,1/2-z
1/2-x,1/2-y,-z
1/2+x,1/2-y,1/2+z
loop_
_atom_site_type_symbol
_atom_site_label
_atom_site_fract_x
_atom_site_fract_y
_atom_site_fract_z
Si Si1 0.830624 0.683983 0.907346
Si Si2 0.500000 0.510307 0.750000
Si Si3 0.241241 0.864324 0.703974
Si Si4 0.456928 0.375709 0.439306
Si Si5 0.970561 0.694225 0.930428
Si Si6 0.500000 0.051408 0.750000
Si Si7 0.309440 0.021337 0.675906
O O1 0.750063 0.758633 0.750233
O O2 0.786387 0.588595 0.769763
O O3 0.921421 0.673539 0.247156
O O4 0.891032 0.703588 0.882443
O O5 0.424024 0.433467 0.517041
O O6 0.482312 0.568595 0.547903
O O7 0.129921 0.859315 0.392010
O O8 0.278252 0.922184 0.639333
O O9 0.264523 0.925745 0.915935
O O10 0.513314 0.288329 0.609600
O O11 0.945174 0.619792 0.737795
O O12 0.425382 0.991268 0.472336
#
# Coordination Sequence:
#
# PCOD9263841 Si02
#       7
#     8   4   8   8   8   4   8
#     4  10  22  43  67  95 131 176 222 265 331 400
#     4  10  19  34  61  90 124 170 218 260 314 388
#     4  11  24  42  64  98 135 173 218 272 339 394
#     4  10  20  37  59  92 128 168 215 265 324 390
#     4  10  21  40  67  94 130 172 218 277 326 390
#     4  12  25  42  67 102 128 168 232 278 332 390
#     4  12  25  43  67  94 134 178 222 280 330 391
#
# _framework density 27.709821000000002
#
# number of rings (size 3 to 8) (size 9 to 14) (size 15 to 20)
#    0.000    1.333    0.000    7.000    0.000    3.333 
#    0.000   12.500    0.000    0.000    0.000    0.000 
#    0.000    0.000    0.000    0.000    0.000    0.000 
#
# Total GULP energy -133719.874507 kJ/mol
# GULP energy per Si atom -5571.661438 kJ/mol
# Density = 2.764675 g / cm^3
# Si number density = 27.709821 Si / 1000 Ang^3
#
#
#
# Elastic Constant Matrix: (Units=GPa)
#
#
# Indices 1 2 3 4 5 6 
#
# 1 74.6576 50.7031 -4.8191 0.0000 -8.7907 0.0000
# 2 50.7031 168.2049 35.9391 0.0000 -4.8641 0.0000
# 3 -4.8191 35.9391 80.8070 0.0000 -12.1662 0.0000
# 4 0.0000 0.0000 0.0000 45.4199 0.0000 -9.3528
# 5 -8.7907 -4.8641 -12.1662 0.0000 34.7777 0.0000
# 6 0.0000 0.0000 0.0000 -9.3528 0.0000 23.7513
#
#
#
# Elastic Compliance Matrix: (Units=1/GPa)
#
#
# Indices 1 2 3 4 5 6 
#
# 1 0.018810 -0.006550 0.004869 0.000000 0.005542 0.000000
# 2 -0.006550 0.008851 -0.004634 0.000000 -0.002039 0.000000
# 3 0.004869 -0.004634 0.015638 0.000000 0.006053 0.000000
# 4 0.000000 0.000000 0.000000 0.023960 0.000000 0.009435
# 5 0.005542 -0.002039 0.006053 0.000000 0.031987 0.000000
# 6 0.000000 0.000000 0.000000 0.009435 0.000000 0.045818
#
#
# Mechanical properties :
#
#
# Convention : Reuss Voigt Hill
#
# Bulk Modulus (GPa) = 32.60639 54.14619 43.37629
# Shear Modulus (GPa) = 29.77682 36.91286 33.34484
#
# Velocity S-wave (km/s) = 3.28166 3.65378 3.47271
# Velocity P-wave (km/s) = 5.11387 6.11417 5.63625
#
# Compressibility (1/GPa) = 0.03066884
#
# Stress axis : x y z
#
# Youngs Moduli (GPa) = 53.16393 112.98530 63.94723
#
# Poissons Ratio (x) = 0.74006 -0.31138
# Poissons Ratio (y) = 0.34823 0.29633
# Poissons Ratio (z) = -0.25887 0.52357
#
# Static dielectric constant tensor:
#      x y z
#    x 2.289060 0.000000 -0.023720 
#    y 0.000000 2.308350 0.000000 
#    z -0.023720 0.000000 2.295830 
# 
# From -- ./inp_files/66526.got.cif
#   From: 2010.05.17/outbox.cif.g08.bks.cpg/sg15_34_cif.got.tgz:66526.got - 2010.06.03 18:47:42.
