data_PCOD9263246
_publ_section_title
;
Structure prediction by ZEFSAII (Michael W. Deem and Ramdas Pophale) SiO2 
 PCOD9263246
Probable space group: C 2/C
;
_chemical_formula_sum "Si O2"
_cell_formula_units_Z 36
_cell_length_a 19.332237
_cell_length_b 21.352177
_cell_length_c 8.194142
_cell_angle_alpha 90.000000
_cell_angle_beta 33.485412
_cell_angle_gamma 90.000000
_cell_volume 1866.165462
_symmetry_space_group_name_H-M "C 2/C"
_symmetry_group_IT_number 15
_symmetry_cell_setting 'monoclinic'
loop_
_space_group_symop_operation_xyz
x,y,z
-x,y,1/2-z
-x,-y,-z
x,-y,1/2+z
1/2+x,1/2+y,z
1/2-x,1/2+y,1/2-z
1/2-x,1/2-y,-z
1/2+x,1/2-y,1/2+z
loop_
_atom_site_type_symbol
_atom_site_label
_atom_site_fract_x
_atom_site_fract_y
_atom_site_fract_z
Si Si1 0.246318 0.808094 0.884623
Si Si2 0.355294 0.433591 0.851122
Si Si3 0.000000 0.258905 0.250000
Si Si4 0.148513 0.931034 0.251635
Si Si5 0.852343 0.198810 0.253998
O O1 0.381910 0.801690 0.531067
O O2 0.139613 0.798004 0.957032
O O3 0.250000 0.750000 0.000000
O O4 0.218538 0.873142 0.030399
O O5 0.499769 0.429747 0.503502
O O6 0.304134 0.500776 0.897960
O O7 0.298185 0.370380 0.893518
O O8 0.347891 0.428420 0.060185
O O9 0.962441 0.214746 0.168000
O O10 0.750000 0.250000 0.500000
#
# Coordination Sequence:
#
# PCOD9263246 Si02
#       5
#     8   8   4   8   8
#     4  11  22  36  57  84 115 151 188 230 283 338
#     4  10  19  34  54  82 113 140 182 233 281 333
#     4  10  22  38  56  82 116 148 190 236 278 336
#     4  10  20  33  55  83 111 144 180 230 289 334
#     4  10  20  36  57  80 111 146 184 231 276 329
#
# _framework density 19.290894000000002
#
# number of rings (size 3 to 8) (size 9 to 14) (size 15 to 20)
#    0.000    1.778    0.000    6.667    0.000    5.333 
#    0.000    0.000    0.000   12.000    0.000    0.000 
#    0.000    0.000    0.000    0.000    0.000    0.000 
#
# Total GULP energy -100369.911674 kJ/mol
# GULP energy per Si atom -5576.106204 kJ/mol
# Density = 1.924699 g / cm^3
# Si number density = 19.290894 Si / 1000 Ang^3
#
#
#
# Elastic Constant Matrix: (Units=GPa)
#
#
# Indices 1 2 3 4 5 6 
#
# 1 121.1479 57.5129 25.1032 0.0000 14.9183 0.0000
# 2 57.5129 205.4766 54.6115 0.0000 12.6832 0.0000
# 3 25.1032 54.6115 90.0326 0.0000 2.6314 0.0000
# 4 0.0000 0.0000 0.0000 35.4234 0.0000 8.7354
# 5 14.9183 12.6832 2.6314 0.0000 21.2929 0.0000
# 6 0.0000 0.0000 0.0000 8.7354 0.0000 36.9702
#
#
#
# Elastic Compliance Matrix: (Units=1/GPa)
#
#
# Indices 1 2 3 4 5 6 
#
# 1 0.010271 -0.002150 -0.001391 0.000000 -0.005743 0.000000
# 2 -0.002150 0.006454 -0.003259 0.000000 -0.001935 0.000000
# 3 -0.001391 -0.003259 0.013435 0.000000 0.001256 0.000000
# 4 0.000000 0.000000 0.000000 0.029977 0.000000 -0.007083
# 5 -0.005743 -0.001935 0.001256 0.000000 0.051985 0.000000
# 6 0.000000 0.000000 0.000000 -0.007083 0.000000 0.028722
#
#
# Mechanical properties :
#
#
# Convention : Reuss Voigt Hill
#
# Bulk Modulus (GPa) = 60.39161 76.79025 68.59093
# Shear Modulus (GPa) = 31.25678 37.36594 34.31136
#
# Velocity S-wave (km/s) = 4.02965 4.40588 4.22196
# Velocity P-wave (km/s) = 7.28179 8.11019 7.70713
#
# Compressibility (1/GPa) = 0.01655859
#
# Stress axis : x y z
#
# Youngs Moduli (GPa) = 97.36335 154.93736 74.43207
#
# Poissons Ratio (x) = 0.33319 0.10357
# Poissons Ratio (y) = 0.20938 0.24256
# Poissons Ratio (z) = 0.13548 0.50491
#
# Static dielectric constant tensor:
#      x y z
#    x 1.739610 0.000000 -0.000610 
#    y 0.000000 1.673380 0.000000 
#    z -0.000610 0.000000 1.685980 
# 
# From -- ./inp_files/57664.got.cif
#   From: 2010.05.17/outbox.cif.g08.bks.cpg/sg15_29_cif.got.tgz:57664.got - 2010.06.03 18:47:42.
