data_PCOD9263876
_publ_section_title
;
Structure prediction by ZEFSAII (Michael W. Deem and Ramdas Pophale) SiO2 
 PCOD9263876
Probable space group: C 2/C
;
_chemical_formula_sum "Si O2"
_cell_formula_units_Z 44
_cell_length_a 7.709696
_cell_length_b 28.790886
_cell_length_c 9.511622
_cell_angle_alpha 90.000000
_cell_angle_beta 70.080867
_cell_angle_gamma 90.000000
_cell_volume 1984.976149
_symmetry_space_group_name_H-M "C 2/C"
_symmetry_group_IT_number 15
_symmetry_cell_setting 'monoclinic'
loop_
_space_group_symop_operation_xyz
x,y,z
-x,y,1/2-z
-x,-y,-z
x,-y,1/2+z
1/2+x,1/2+y,z
1/2-x,1/2+y,1/2-z
1/2-x,1/2-y,-z
1/2+x,1/2-y,1/2+z
loop_
_atom_site_type_symbol
_atom_site_label
_atom_site_fract_x
_atom_site_fract_y
_atom_site_fract_z
Si Si1 0.240542 0.518835 0.962915
Si Si2 0.778842 0.851987 0.814556
Si Si3 0.000000 0.423632 0.750000
Si Si4 0.219141 0.250009 0.175334
Si Si5 0.163988 0.949378 0.354740
Si Si6 0.716908 0.150530 0.664288
O O1 0.232954 0.521764 0.796797
O O2 0.447477 0.539493 0.927506
O O3 0.247470 0.466974 0.024338
O O4 0.094620 0.547520 0.095757
O O5 0.661728 0.890624 0.767214
O O6 0.725956 0.799659 0.776044
O O7 0.000000 0.859089 0.750000
O O8 0.736940 0.850877 0.991172
O O9 0.289731 0.300427 0.205255
O O10 0.000000 0.251645 0.250000
O O11 0.250000 0.250000 0.000000
O O12 0.188913 0.896063 0.308963
O O13 0.500000 0.146858 0.750000
#
# Coordination Sequence:
#
# PCOD9263876 Si02
#       6
#     8   8   4   8   8   8
#     4  10  24  40  60  86 127 161 211 259 308 375
#     4  10  21  38  61  89 128 163 200 253 315 361
#     4  12  24  38  62  98 126 160 212 256 300 380
#     4   8  16  32  55  84 113 154 201 246 296 369
#     4  10  22  42  60  85 123 169 203 259 321 364
#     4  10  19  34  62  86 114 161 210 250 308 369
#
# _framework density 22.166513999999999
#
# number of rings (size 3 to 8) (size 9 to 14) (size 15 to 20)
#    0.000    2.182    0.000    2.182    3.818    0.727 
#    0.000    1.818    0.000   39.273    0.000    0.000 
#    0.000    0.000    0.000    0.000    0.000    0.000 
#
# Total GULP energy -122738.439769 kJ/mol
# GULP energy per Si atom -5579.019990 kJ/mol
# Density = 2.211606 g / cm^3
# Si number density = 22.166514 Si / 1000 Ang^3
#
#
#
# Elastic Constant Matrix: (Units=GPa)
#
#
# Indices 1 2 3 4 5 6 
#
# 1 88.4458 43.9059 42.7514 0.0000 -23.3133 0.0000
# 2 43.9059 100.2110 11.1445 0.0000 -13.0811 0.0000
# 3 42.7514 11.1445 106.9455 0.0000 -39.7586 0.0000
# 4 0.0000 0.0000 0.0000 22.7346 0.0000 -5.9695
# 5 -23.3133 -13.0811 -39.7586 0.0000 40.3632 0.0000
# 6 0.0000 0.0000 0.0000 -5.9695 0.0000 29.5521
#
#
#
# Elastic Compliance Matrix: (Units=1/GPa)
#
#
# Indices 1 2 3 4 5 6 
#
# 1 0.018168 -0.006981 -0.005483 0.000000 0.002830 0.000000
# 2 -0.006981 0.013107 0.002374 0.000000 0.002555 0.000000
# 3 -0.005483 0.002374 0.016415 0.000000 0.013771 0.000000
# 4 0.000000 0.000000 0.000000 0.046449 0.000000 0.009383
# 5 0.002830 0.002555 0.013771 0.000000 0.040803 0.000000
# 6 0.000000 0.000000 0.000000 0.009383 0.000000 0.035734
#
#
# Mechanical properties :
#
#
# Convention : Reuss Voigt Hill
#
# Bulk Modulus (GPa) = 36.34920 54.57844 45.46382
# Shear Modulus (GPa) = 24.99690 31.71668 28.35679
#
# Velocity S-wave (km/s) = 3.36175 3.78675 3.58056
# Velocity P-wave (km/s) = 5.61269 6.61776 6.13584
#
# Compressibility (1/GPa) = 0.02751092
#
# Stress axis : x y z
#
# Youngs Moduli (GPa) = 55.04148 76.29571 60.92121
#
# Poissons Ratio (x) = 0.53261 0.33403
# Poissons Ratio (y) = 0.38424 -0.14465
# Poissons Ratio (z) = 0.30179 -0.18116
#
# Static dielectric constant tensor:
#      x y z
#    x 1.803880 0.000000 0.016410 
#    y 0.000000 1.947960 0.000000 
#    z 0.016410 0.000000 1.781110 
# 
# From -- ./inp_files/25468.got.cif
#   From: 2010.05.17/outbox.cif.g08.bks.cpg/sg15_13_cif.got.tgz:25468.got - 2010.06.03 18:47:42.
