data_PCOD9263783
_publ_section_title
;
Structure prediction by ZEFSAII (Michael W. Deem and Ramdas Pophale) SiO2 
 PCOD9263783
Probable space group: C 2/C
;
_chemical_formula_sum "Si O2"
_cell_formula_units_Z 48
_cell_length_a 12.466590
_cell_length_b 26.912004
_cell_length_c 9.760491
_cell_angle_alpha 90.000000
_cell_angle_beta 127.667398
_cell_angle_gamma 90.000000
_cell_volume 2592.122127
_symmetry_space_group_name_H-M "C 2/C"
_symmetry_group_IT_number 15
_symmetry_cell_setting 'monoclinic'
loop_
_space_group_symop_operation_xyz
x,y,z
-x,y,1/2-z
-x,-y,-z
x,-y,1/2+z
1/2+x,1/2+y,z
1/2-x,1/2+y,1/2-z
1/2-x,1/2-y,-z
1/2+x,1/2-y,1/2+z
loop_
_atom_site_type_symbol
_atom_site_label
_atom_site_fract_x
_atom_site_fract_y
_atom_site_fract_z
Si Si1 0.466564 0.704057 0.886709
Si Si2 0.892706 0.896814 0.468449
Si Si3 0.235759 0.716929 0.352712
Si Si4 0.847325 0.603730 0.177010
Si Si5 0.844057 0.958404 0.174110
Si Si6 0.309893 0.574309 0.187452
O O1 0.500000 0.695825 0.750000
O O2 0.397496 0.655200 0.893108
O O3 0.370323 0.752126 0.820523
O O4 0.609692 0.711180 0.075753
O O5 0.832931 0.937435 0.318794
O O6 0.812595 0.895231 0.548384
O O7 0.046794 0.913270 0.626101
O O8 0.250000 0.750000 0.500000
O O9 0.181680 0.662681 0.348865
O O10 0.809120 0.586846 0.300640
O O11 0.000000 0.594180 0.250000
O O12 0.747921 0.573877 0.998557
O O13 0.000000 0.952510 0.250000
O O14 0.809898 0.016478 0.147398
#
# Coordination Sequence:
#
# PCOD9263783 Si02
#       6
#     8   8   8   8   8   8
#     4  10  19  34  60  87 118 150 201 247 297 351
#     4  11  20  36  61  93 120 150 202 261 292 345
#     4  10  19  35  57  88 113 151 201 249 288 343
#     4  12  25  41  61  88 127 158 198 249 304 360
#     4  12  20  38  66  92 113 162 210 244 287 355
#     4  11  23  37  61  91 124 153 201 253 301 342
#
# _framework density 18.517647
#
# number of rings (size 3 to 8) (size 9 to 14) (size 15 to 20)
#    0.000    1.000    5.000    5.500    0.000    0.667 
#    0.000    1.667    0.000    0.000    0.000    0.000 
#    0.000    0.000    0.000    0.000    0.000    0.000 
#
# Total GULP energy -134038.231475 kJ/mol
# GULP energy per Si atom -5584.926311 kJ/mol
# Density = 1.847550 g / cm^3
# Si number density = 18.517647 Si / 1000 Ang^3
#
#
#
# Elastic Constant Matrix: (Units=GPa)
#
#
# Indices 1 2 3 4 5 6 
#
# 1 130.3548 40.8607 54.1691 0.0000 2.6207 0.0000
# 2 40.8607 133.6499 43.4185 0.0000 5.5756 0.0000
# 3 54.1691 43.4185 62.3309 0.0000 -10.7572 0.0000
# 4 0.0000 0.0000 0.0000 22.8002 0.0000 12.9560
# 5 2.6207 5.5756 -10.7572 0.0000 26.6350 0.0000
# 6 0.0000 0.0000 0.0000 12.9560 0.0000 3.8323
#
#
#
# Elastic Compliance Matrix: (Units=1/GPa)
#
#
# Indices 1 2 3 4 5 6 
#
# 1 0.012921 0.000426 -0.012642 0.000000 -0.006467 0.000000
# 2 0.000426 0.010375 -0.008578 0.000000 -0.005678 0.000000
# 3 -0.012642 -0.008578 0.036042 0.000000 0.017596 0.000000
# 4 0.000000 0.000000 0.000000 -0.047617 0.000000 0.160981
# 5 -0.006467 -0.005678 0.017596 0.000000 0.046476 0.000000
# 6 0.000000 0.000000 0.000000 0.160981 0.000000 -0.283297
#
#
# Mechanical properties :
#
#
# Convention : Reuss Voigt Hill
#
# Bulk Modulus (GPa) = 56.33367 67.02579 61.67973
# Shear Modulus (GPa) = -28.15410 23.17931 -2.48740
#
# Velocity S-wave (km/s) = -3.90345 3.54183 -1.16025
# Velocity P-wave (km/s) = 3.18932 7.28013 5.62015
#
# Compressibility (1/GPa) = 0.01775137
#
# Stress axis : x y z
#
# Youngs Moduli (GPa) = 77.39181 96.38158 27.74509
#
# Poissons Ratio (x) = -0.04110 0.35076
# Poissons Ratio (y) = -0.03301 0.23800
# Poissons Ratio (z) = 0.97842 0.82675
#
# Static dielectric constant tensor:
#      x y z
#    x 1.653500 0.000000 0.013740 
#    y 0.000000 1.588620 0.000000 
#    z 0.013740 0.000000 1.664960 
# 
# From -- ./inp_files/33774.got.cif
#   From: 2010.05.17/outbox.cif.g08.bks.cpg/sg15_17_cif.got.tgz:33774.got - 2010.06.03 18:47:42.
