data_PCOD9263249
_publ_section_title
;
Structure prediction by ZEFSAII (Michael W. Deem and Ramdas Pophale) SiO2 
 PCOD9263249
Probable space group: C 2/C
;
_chemical_formula_sum "Si O2"
_cell_formula_units_Z 64
_cell_length_a 18.170743
_cell_length_b 20.532297
_cell_length_c 12.493959
_cell_angle_alpha 90.000000
_cell_angle_beta 130.736891
_cell_angle_gamma 90.000000
_cell_volume 3531.960118
_symmetry_space_group_name_H-M "C 2/C"
_symmetry_group_IT_number 15
_symmetry_cell_setting 'monoclinic'
loop_
_space_group_symop_operation_xyz
x,y,z
-x,y,1/2-z
-x,-y,-z
x,-y,1/2+z
1/2+x,1/2+y,z
1/2-x,1/2+y,1/2-z
1/2-x,1/2-y,-z
1/2+x,1/2-y,1/2+z
loop_
_atom_site_type_symbol
_atom_site_label
_atom_site_fract_x
_atom_site_fract_y
_atom_site_fract_z
Si Si1 0.733789 0.910127 0.166395
Si Si2 0.398708 0.291994 0.683592
Si Si3 0.194619 0.557068 0.195211
Si Si4 0.391927 0.083485 0.606413
Si Si5 0.418989 0.585315 0.354611
Si Si6 0.385403 0.068931 0.148566
Si Si7 0.456102 0.560614 0.823439
Si Si8 0.734300 0.179122 0.870595
O O1 0.843787 0.920919 0.231488
O O2 0.732517 0.854650 0.254405
O O3 0.695238 0.977988 0.183284
O O4 0.669156 0.896592 0.000853
O O5 0.500000 0.258338 0.750000
O O6 0.424302 0.355670 0.776732
O O7 0.326943 0.245472 0.681624
O O8 0.340776 0.309203 0.520244
O O9 0.305760 0.576611 0.277653
O O10 0.158486 0.580431 0.276105
O O11 0.125603 0.586147 0.037216
O O12 0.500000 0.097338 0.750000
O O13 0.317468 0.130371 0.595021
O O14 0.370429 0.008513 0.615536
O O15 0.481419 0.592479 0.521904
O O16 0.457616 0.517928 0.339803
O O17 0.500000 0.081814 0.250000
O O18 0.500000 0.577272 0.750000
#
# Coordination Sequence:
#
# PCOD9263249 Si02
#       8
#     8   8   8   8   8   8   8   8
#     4  10  21  34  55  82 117 151 189 238 286 354
#     4  11  23  39  60  85 115 154 196 243 289 344
#     4  10  19  34  54  82 117 151 186 239 294 348
#     4  10  20  32  55  81 112 151 190 237 287 345
#     4  10  20  35  57  88 116 150 189 243 297 356
#     4  10  21  33  52  82 116 155 186 234 292 340
#     4  10  20  34  59  89 118 152 186 239 304 353
#     4  11  22  39  58  85 117 151 193 240 294 341
#
# _framework density 18.120249999999999
#
# number of rings (size 3 to 8) (size 9 to 14) (size 15 to 20)
#    0.000    1.750    2.500    2.250    1.750    3.500 
#    0.000    0.000    0.000    3.750    0.000    0.000 
#    0.000    0.000    0.000    0.000    0.000    0.000 
#
# Total GULP energy -178666.580849 kJ/mol
# GULP energy per Si atom -5583.330652 kJ/mol
# Density = 1.807901 g / cm^3
# Si number density = 18.120250 Si / 1000 Ang^3
#
#
#
# Elastic Constant Matrix: (Units=GPa)
#
#
# Indices 1 2 3 4 5 6 
#
# 1 67.6975 16.2702 51.8653 0.0000 -19.7989 0.0000
# 2 16.2702 44.8576 40.4196 0.0000 -4.2827 0.0000
# 3 51.8653 40.4196 158.5616 0.0000 -10.9205 0.0000
# 4 0.0000 0.0000 0.0000 13.2537 0.0000 -4.2962
# 5 -19.7989 -4.2827 -10.9205 0.0000 33.6062 0.0000
# 6 0.0000 0.0000 0.0000 -4.2962 0.0000 13.6216
#
#
#
# Elastic Compliance Matrix: (Units=1/GPa)
#
#
# Indices 1 2 3 4 5 6 
#
# 1 0.023494 -0.001573 -0.006490 0.000000 0.011532 0.000000
# 2 -0.001573 0.029103 -0.006866 0.000000 0.000551 0.000000
# 3 -0.006490 -0.006866 0.010082 0.000000 -0.001422 0.000000
# 4 0.000000 0.000000 0.000000 0.084042 0.000000 0.026506
# 5 0.011532 0.000551 -0.001422 0.000000 0.036159 0.000000
# 6 0.000000 0.000000 0.000000 0.026506 0.000000 0.081773
#
#
# Mechanical properties :
#
#
# Convention : Reuss Voigt Hill
#
# Bulk Modulus (GPa) = 30.46817 54.24745 42.35781
# Shear Modulus (GPa) = 16.36923 22.93376 19.65149
#
# Velocity S-wave (km/s) = 3.00887 3.56145 3.29675
# Velocity P-wave (km/s) = 5.37792 6.84940 6.15777
#
# Compressibility (1/GPa) = 0.03282114
#
# Stress axis : x y z
#
# Youngs Moduli (GPa) = 42.56341 34.36089 99.18810
#
# Poissons Ratio (x) = 0.05405 0.64371
# Poissons Ratio (y) = 0.06695 0.68106
# Poissons Ratio (z) = 0.27623 0.23593
#
# Static dielectric constant tensor:
#      x y z
#    x 1.606310 0.000000 0.015020 
#    y 0.000000 1.615500 0.000000 
#    z 0.015020 0.000000 1.634540 
# 
# From -- ./inp_files/107499.got.cif
#   From: 2010.05.17/outbox.cif.g08.bks.cpg/sg15_54_cif.got.tgz:107499.got - 2010.06.03 18:47:42.
