data_PCOD9263324
_publ_section_title
;
Structure prediction by ZEFSAII (Michael W. Deem and Ramdas Pophale) SiO2 
 PCOD9263324
Probable space group: C 2/C
;
_chemical_formula_sum "Si O2"
_cell_formula_units_Z 56
_cell_length_a 27.724162
_cell_length_b 5.467019
_cell_length_c 25.669205
_cell_angle_alpha 90.000000
_cell_angle_beta 129.892621
_cell_angle_gamma 90.000000
_cell_volume 2985.087436
_symmetry_space_group_name_H-M "C 2/C"
_symmetry_group_IT_number 15
_symmetry_cell_setting 'monoclinic'
loop_
_space_group_symop_operation_xyz
x,y,z
-x,y,1/2-z
-x,-y,-z
x,-y,1/2+z
1/2+x,1/2+y,z
1/2-x,1/2+y,1/2-z
1/2-x,1/2-y,-z
1/2+x,1/2-y,1/2+z
loop_
_atom_site_type_symbol
_atom_site_label
_atom_site_fract_x
_atom_site_fract_y
_atom_site_fract_z
Si Si1 0.644863 0.249886 0.445399
Si Si2 0.275791 0.417161 0.209606
Si Si3 0.515067 0.248300 0.542491
Si Si4 0.093427 0.272389 0.451864
Si Si5 0.296092 0.690829 0.901736
Si Si6 0.772208 0.688970 0.094437
Si Si7 0.156815 0.863330 0.656161
O O1 0.614538 0.511593 0.440960
O O2 0.707933 0.205414 0.524430
O O3 0.671944 0.249646 0.405684
O O4 0.599746 0.015319 0.421275
O O5 0.248750 0.666137 0.167515
O O6 0.286864 0.266418 0.163968
O O7 0.216657 0.314331 0.201036
O O8 0.333388 0.452592 0.288678
O O9 0.500000 0.500000 0.500000
O O10 0.472513 0.252009 0.564742
O O11 0.588588 0.248390 0.607638
O O12 0.500000 0.000000 0.500000
O O13 0.144853 0.325226 0.532777
O O14 0.250208 0.591762 0.915168
O O15 0.330519 0.485197 0.891150
#
# Coordination Sequence:
#
# PCOD9263324 Si02
#       7
#     8   8   8   8   8   8   8
#     4  10  21  36  58  86 119 151 198 249 301 344
#     4  11  20  36  56  88 121 155 197 250 308 370
#     4  12  25  40  63  89 123 166 203 247 300 369
#     4  11  21  37  58  85 119 155 195 247 292 355
#     4  10  19  34  55  83 124 150 194 243 309 358
#     4   9  21  32  56  86 114 154 192 248 304 355
#     4  11  23  36  58  89 122 164 198 250 309 373
#
# _framework density 18.759917000000002
#
# number of rings (size 3 to 8) (size 9 to 14) (size 15 to 20)
#    0.000    1.429    4.286    1.714    4.000    1.714 
#    0.000    0.000    0.000    0.857    0.000    0.000 
#    0.000    0.000    0.000    0.000    0.000    0.000 
#
# Total GULP energy -155920.405014 kJ/mol
# GULP energy per Si atom -5568.585893 kJ/mol
# Density = 1.871722 g / cm^3
# Si number density = 18.759917 Si / 1000 Ang^3
#
#
#
# Elastic Constant Matrix: (Units=GPa)
#
#
# Indices 1 2 3 4 5 6 
#
# 1 81.3818 37.9919 2.4826 -0.0525 1.5291 0.1011
# 2 37.9919 79.5480 6.0436 0.0309 7.4655 -0.0226
# 3 2.4826 6.0436 60.1617 -0.0405 0.5978 0.0563
# 4 -0.0525 0.0309 -0.0405 21.9302 -0.0065 0.4784
# 5 1.5291 7.4655 0.5978 -0.0065 19.6450 0.0201
# 6 0.1011 -0.0226 0.0563 0.4784 0.0201 20.7662
#
#
#
# Elastic Compliance Matrix: (Units=1/GPa)
#
#
# Indices 1 2 3 4 5 6 
#
# 1 0.015869 -0.007747 0.000107 0.000052 0.001706 -0.000089
# 2 -0.007747 0.016915 -0.001322 -0.000048 -0.005785 0.000066
# 3 0.000107 -0.001322 0.016751 0.000034 -0.000016 -0.000048
# 4 0.000052 -0.000048 0.000034 0.045622 0.000029 -0.001051
# 5 0.001706 -0.005785 -0.000016 0.000029 0.052970 -0.000067
# 6 -0.000089 0.000066 -0.000048 -0.001051 -0.000067 0.048180
#
#
# Mechanical properties :
#
#
# Convention : Reuss Voigt Hill
#
# Bulk Modulus (GPa) = 31.63693 34.90306 33.26999
# Shear Modulus (GPa) = 22.24510 24.10650 23.17580
#
# Velocity S-wave (km/s) = 3.44725 3.58858 3.51862
# Velocity P-wave (km/s) = 5.72236 5.98465 5.85497
#
# Compressibility (1/GPa) = 0.03160863
#
# Stress axis : x y z
#
# Youngs Moduli (GPa) = 63.01451 59.12074 59.69968
#
# Poissons Ratio (x) = 0.45803 -0.00636
# Poissons Ratio (y) = 0.48820 0.07893
# Poissons Ratio (z) = -0.00672 0.07816
#
# Static dielectric constant tensor:
#      x y z
#    x 1.665990 -0.000020 -0.039060 
#    y -0.000020 1.797890 0.000020 
#    z -0.039060 0.000020 1.659980 
# 
# From -- ./inp_files/281041.got.cif
#   From: 2010.05.17/outbox.cif.g08.bks.cpg/sg15_141_cif.got.tgz:281041.got - 2010.06.03 18:47:42.
