data_PCOD9263689
_publ_section_title
;
Structure prediction by ZEFSAII (Michael W. Deem and Ramdas Pophale) SiO2 
 PCOD9263689
Probable space group: C 2/C
;
_chemical_formula_sum "Si O2"
_cell_formula_units_Z 48
_cell_length_a 7.703197
_cell_length_b 16.628054
_cell_length_c 17.707410
_cell_angle_alpha 90.000000
_cell_angle_beta 130.458287
_cell_angle_gamma 90.000000
_cell_volume 1725.769673
_symmetry_space_group_name_H-M "C 2/C"
_symmetry_group_IT_number 15
_symmetry_cell_setting 'monoclinic'
loop_
_space_group_symop_operation_xyz
x,y,z
-x,y,1/2-z
-x,-y,-z
x,-y,1/2+z
1/2+x,1/2+y,z
1/2-x,1/2+y,1/2-z
1/2-x,1/2-y,-z
1/2+x,1/2-y,1/2+z
loop_
_atom_site_type_symbol
_atom_site_label
_atom_site_fract_x
_atom_site_fract_y
_atom_site_fract_z
Si Si1 0.905362 0.018850 0.352161
Si Si2 0.458751 0.788130 0.899481
Si Si3 0.854434 0.460520 0.875074
Si Si4 0.500000 0.718472 0.750000
Si Si5 0.040190 0.868806 0.016792
Si Si6 0.039439 0.633347 0.613686
Si Si7 0.000000 0.719497 0.750000
O O1 0.719095 0.032709 0.234366
O O2 0.134543 0.029960 0.366698
O O3 0.890940 0.087377 0.411982
O O4 0.910050 0.935351 0.402933
O O5 0.498829 0.880155 0.930843
O O6 0.453836 0.773870 0.808888
O O7 0.559584 0.712809 0.975000
O O8 0.186958 0.776598 0.838702
O O9 0.988994 0.542659 0.919628
O O10 0.285532 0.666725 0.655991
O O11 0.272955 0.841509 0.038978
O O12 0.095111 0.658144 0.715703
#
# Coordination Sequence:
#
# PCOD9263689 Si02
#       7
#     8   8   8   4   8   8   4
#     4  10  22  40  64  89 123 164 208 259 314 376
#     4  10  20  35  58  88 120 157 201 252 311 367
#     4  11  21  36  61  92 122 154 199 257 320 376
#     4  10  20  36  60  88 124 166 208 252 304 378
#     4  10  22  41  64  89 120 164 213 258 311 375
#     4  10  19  34  59  85 115 156 206 253 302 369
#     4   8  16  32  52  78 108 150 198 236 288 370
#
# _framework density 27.813676000000001
#
# number of rings (size 3 to 8) (size 9 to 14) (size 15 to 20)
#    0.000    2.000    0.000    6.000    0.000    3.333 
#    0.000    0.000    0.000   10.000    0.000    0.000 
#    0.000    0.000    0.000    0.000    0.000    0.000 
#
# Total GULP energy -134044.858172 kJ/mol
# GULP energy per Si atom -5585.202424 kJ/mol
# Density = 2.775037 g / cm^3
# Si number density = 27.813676 Si / 1000 Ang^3
#
#
#
# Elastic Constant Matrix: (Units=GPa)
#
#
# Indices 1 2 3 4 5 6 
#
# 1 85.3875 63.1493 22.3429 0.0000 -9.6906 0.0000
# 2 63.1493 207.1308 65.8509 0.0000 -17.2072 0.0000
# 3 22.3429 65.8509 160.9707 0.0000 -20.3447 0.0000
# 4 0.0000 0.0000 0.0000 22.9285 0.0000 -19.3037
# 5 -9.6906 -17.2072 -20.3447 0.0000 21.9344 0.0000
# 6 0.0000 0.0000 0.0000 -19.3037 0.0000 28.8120
#
#
#
# Elastic Compliance Matrix: (Units=1/GPa)
#
#
# Indices 1 2 3 4 5 6 
#
# 1 0.015346 -0.004432 0.000114 0.000000 0.003409 0.000000
# 2 -0.004432 0.006958 -0.002026 0.000000 0.001621 0.000000
# 3 0.000114 -0.002026 0.007738 0.000000 0.005638 0.000000
# 4 0.000000 0.000000 0.000000 0.100048 0.000000 0.067031
# 5 0.003409 0.001621 0.005638 0.000000 0.053597 0.000000
# 6 0.000000 0.000000 0.000000 0.067031 0.000000 0.079618
#
#
# Mechanical properties :
#
#
# Convention : Reuss Voigt Hill
#
# Bulk Modulus (GPa) = 57.62619 84.01947 70.82283
# Shear Modulus (GPa) = 17.74450 34.87803 26.31127
#
# Velocity S-wave (km/s) = 2.52856 3.54501 3.07902
# Velocity P-wave (km/s) = 5.41188 6.85782 6.17730
#
# Compressibility (1/GPa) = 0.01735322
#
# Stress axis : x y z
#
# Youngs Moduli (GPa) = 65.16432 143.72311 129.23162
#
# Poissons Ratio (x) = 0.63691 -0.01469
# Poissons Ratio (y) = 0.28878 0.26187
# Poissons Ratio (z) = -0.00741 0.29124
#
# Static dielectric constant tensor:
#      x y z
#    x 2.346240 0.000000 0.060880 
#    y 0.000000 2.195550 0.000000 
#    z 0.060880 0.000000 2.215850 
# 
# From -- ./inp_files/190680.got.cif
#   From: 2010.05.17/outbox.cif.g08.bks.cpg/sg15_96_cif.got.tgz:190680.got - 2010.06.03 18:47:42.
