data_PCOD9263319
_publ_section_title
;
Structure prediction by ZEFSAII (Michael W. Deem and Ramdas Pophale) SiO2 
 PCOD9263319
Probable space group: C 2/C
;
_chemical_formula_sum "Si O2"
_cell_formula_units_Z 60
_cell_length_a 14.909447
_cell_length_b 20.551322
_cell_length_c 16.215648
_cell_angle_alpha 90.000000
_cell_angle_beta 146.135658
_cell_angle_gamma 90.000000
_cell_volume 2768.655269
_symmetry_space_group_name_H-M "C 2/C"
_symmetry_group_IT_number 15
_symmetry_cell_setting 'monoclinic'
loop_
_space_group_symop_operation_xyz
x,y,z
-x,y,1/2-z
-x,-y,-z
x,-y,1/2+z
1/2+x,1/2+y,z
1/2-x,1/2+y,1/2-z
1/2-x,1/2-y,-z
1/2+x,1/2-y,1/2+z
loop_
_atom_site_type_symbol
_atom_site_label
_atom_site_fract_x
_atom_site_fract_y
_atom_site_fract_z
Si Si1 0.470411 0.158004 0.317174
Si Si2 0.863385 0.765699 0.960036
Si Si3 0.530433 0.607650 0.560094
Si Si4 0.500000 0.165895 0.750000
Si Si5 0.911301 0.227243 0.307116
Si Si6 0.822554 0.879036 0.492076
Si Si7 0.561218 0.504734 0.214150
Si Si8 0.231545 0.397078 0.703159
O O1 0.500000 0.126831 0.250000
O O2 0.607896 0.206007 0.456992
O O3 0.423267 0.110185 0.356794
O O4 0.314492 0.204011 0.180514
O O5 0.987656 0.825194 0.073415
O O6 0.906211 0.749083 0.897621
O O7 0.675558 0.613301 0.606038
O O8 0.551554 0.547558 0.635008
O O9 0.376313 0.597212 0.381940
O O10 0.586814 0.213045 0.751849
O O11 0.353136 0.124101 0.604146
O O12 0.769698 0.173250 0.190721
O O13 0.072930 0.185807 0.412391
O O14 0.926133 0.938860 0.604289
O O15 0.500000 0.469992 0.250000
O O16 0.728926 0.544326 0.328887
#
# Coordination Sequence:
#
# PCOD9263319 Si02
#       8
#     8   8   8   4   8   8   8   8
#     4  10  19  34  55  83 113 152 182 225 283 346
#     4   9  20  34  56  84 115 141 188 233 283 326
#     4   8  17  36  56  73 101 145 185 223 269 318
#     4  12  20  30  54  82 116 154 178 208 282 352
#     4   8  19  30  48  76 113 145 175 219 264 332
#     4   9  20  32  50  78 111 143 180 219 269 330
#     4  10  19  35  61  81  99 137 195 236 268 321
#     4   8  18  32  53  77 110 136 178 225 273 317
#
# _framework density 21.67117
#
# number of rings (size 3 to 8) (size 9 to 14) (size 15 to 20)
#    0.000    3.733    0.000    2.400   11.200    1.600 
#    0.000    0.000   13.200    0.800    0.000    0.000 
#    0.000    0.000    0.000    0.000    0.000    0.000 
#
# Total GULP energy -167135.967246 kJ/mol
# GULP energy per Si atom -5571.198908 kJ/mol
# Density = 2.162185 g / cm^3
# Si number density = 21.671170 Si / 1000 Ang^3
#
#
#
# Elastic Constant Matrix: (Units=GPa)
#
#
# Indices 1 2 3 4 5 6 
#
# 1 49.3275 10.1140 8.6339 0.0000 0.6129 0.0000
# 2 10.1140 36.0099 2.8073 0.0001 -12.9884 0.0001
# 3 8.6339 2.8073 13.8568 0.0013 1.7434 0.0006
# 4 0.0000 0.0001 0.0013 9.0107 0.0006 -13.8673
# 5 0.6129 -12.9884 1.7434 0.0006 16.5728 0.0002
# 6 0.0000 0.0001 0.0006 -13.8673 0.0002 10.9765
#
#
#
# Elastic Compliance Matrix: (Units=1/GPa)
#
#
# Indices 1 2 3 4 5 6 
#
# 1 0.024189 -0.007859 -0.012761 -0.000004 -0.005711 -0.000004
# 2 -0.007859 0.043276 -0.008284 0.000003 0.035078 0.000003
# 3 -0.012761 -0.008284 0.083661 0.000018 -0.014822 0.000019
# 4 -0.000004 0.000003 0.000018 -0.117525 0.000007 -0.148477
# 5 -0.005711 0.035078 -0.014822 0.000007 0.089602 0.000008
# 6 -0.000004 0.000003 0.000019 -0.148477 0.000008 -0.096477
#
#
# Mechanical properties :
#
#
# Convention : Reuss Voigt Hill
#
# Bulk Modulus (GPa) = 10.71612 15.81163 13.26388
# Shear Modulus (GPa) = 43.23816 12.48792 27.86304
#
# Velocity S-wave (km/s) = 4.47160 2.40312 3.58958
# Velocity P-wave (km/s) = 5.62280 3.87453 4.82845
#
# Compressibility (1/GPa) = 0.09331737
#
# Stress axis : x y z
#
# Youngs Moduli (GPa) = 41.34187 23.10771 11.95304
#
# Poissons Ratio (x) = 0.18160 0.15253
# Poissons Ratio (y) = 0.32491 0.09902
# Poissons Ratio (z) = 0.52755 0.19143
#
# Static dielectric constant tensor:
#      x y z
#    x 1.920580 0.000000 0.006150 
#    y 0.000000 1.789990 0.000000 
#    z 0.006150 0.000000 1.826500 
# 
# From -- ./inp_files/206729.got.cif
#   From: 2010.05.17/outbox.cif.g08.bks.cpg/sg15_104_cif.got.tgz:206729.got - 2010.06.03 18:47:42.
