data_PCOD9263470
_publ_section_title
;
Structure prediction by ZEFSAII (Michael W. Deem and Ramdas Pophale) SiO2 
 PCOD9263470
Probable space group: C 2/C
;
_chemical_formula_sum "Si O2"
_cell_formula_units_Z 48
_cell_length_a 17.125320
_cell_length_b 14.158372
_cell_length_c 16.885804
_cell_angle_alpha 90.000000
_cell_angle_beta 28.974682
_cell_angle_gamma 90.000000
_cell_volume 1983.346514
_symmetry_space_group_name_H-M "C 2/C"
_symmetry_group_IT_number 15
_symmetry_cell_setting 'monoclinic'
loop_
_space_group_symop_operation_xyz
x,y,z
-x,y,1/2-z
-x,-y,-z
x,-y,1/2+z
1/2+x,1/2+y,z
1/2-x,1/2+y,1/2-z
1/2-x,1/2-y,-z
1/2+x,1/2-y,1/2+z
loop_
_atom_site_type_symbol
_atom_site_label
_atom_site_fract_x
_atom_site_fract_y
_atom_site_fract_z
Si Si1 0.512144 0.156754 0.648615
Si Si2 0.286405 0.205588 0.718655
Si Si3 0.529751 0.199238 0.365664
Si Si4 0.192145 0.468519 0.647898
Si Si5 0.329435 0.444535 0.866594
Si Si6 0.037081 0.910659 0.376215
O O1 0.500000 0.188703 0.750000
O O2 0.416961 0.218935 0.670192
O O3 0.413688 0.057638 0.730903
O O4 0.302397 0.135106 0.034238
O O5 0.378631 0.177688 0.555503
O O6 0.182166 0.296800 0.790681
O O7 0.146587 0.126353 0.851843
O O8 0.580117 0.122742 0.257779
O O9 0.513506 0.308354 0.352266
O O10 0.249937 0.493191 0.507887
O O11 0.358350 0.449238 0.547222
O O12 0.500000 0.409369 0.750000
O O13 0.369897 0.512293 0.757754
#
# Coordination Sequence:
#
# PCOD9263470 Si02
#       6
#     8   8   8   8   8   8
#     4  10  22  39  59  85 111 150 189 240 286 335
#     4  10  21  38  58  80 119 145 194 236 280 340
#     4  10  19  36  54  83 112 153 187 229 279 331
#     4  10  19  34  57  81 122 147 192 226 277 340
#     4   9  19  35  55  84 117 151 188 231 278 338
#     4   9  18  34  54  86 115 150 185 229 278 335
#
# _framework density 24.201519999999999
#
# number of rings (size 3 to 8) (size 9 to 14) (size 15 to 20)
#    1.000    1.333    1.667    1.000    0.000    4.000 
#    0.000   15.000    0.000    0.000    0.000    0.000 
#    0.000    0.000    0.000    0.000    0.000    0.000 
#
# Total GULP energy -133935.050450 kJ/mol
# GULP energy per Si atom -5580.627102 kJ/mol
# Density = 2.414644 g / cm^3
# Si number density = 24.201520 Si / 1000 Ang^3
#
#
#
# Elastic Constant Matrix: (Units=GPa)
#
#
# Indices 1 2 3 4 5 6 
#
# 1 104.9648 7.6804 28.7151 -0.0025 -38.7848 0.0040
# 2 7.6804 59.5060 27.6474 -0.0027 3.3472 0.0044
# 3 28.7151 27.6474 116.4622 -0.0087 -25.3416 0.0149
# 4 -0.0025 -0.0027 -0.0087 46.9295 0.0024 -55.8916
# 5 -38.7848 3.3472 -25.3416 0.0024 28.8474 -0.0043
# 6 0.0040 0.0044 0.0149 -55.8916 -0.0043 120.9206
#
#
#
# Elastic Compliance Matrix: (Units=1/GPa)
#
#
# Indices 1 2 3 4 5 6 
#
# 1 0.020587 -0.005826 0.003062 0.000000 0.031044 0.000000
# 2 -0.005826 0.021980 -0.007468 0.000000 -0.016944 0.000000
# 3 0.003062 -0.007468 0.013215 0.000001 0.016593 -0.000001
# 4 0.000000 0.000000 0.000001 0.047404 0.000000 0.021911
# 5 0.031044 -0.016944 0.016593 0.000000 0.092946 0.000001
# 6 0.000000 0.000000 -0.000001 0.021911 0.000001 0.018397
#
#
# Mechanical properties :
#
#
# Convention : Reuss Voigt Hill
#
# Bulk Modulus (GPa) = 28.31498 45.44655 36.88077
# Shear Modulus (GPa) = 20.26216 53.79885 37.03050
#
# Velocity S-wave (km/s) = 2.89663 4.71994 3.91588
# Velocity P-wave (km/s) = 4.78668 6.96584 5.97642
#
# Compressibility (1/GPa) = 0.03531699
#
# Stress axis : x y z
#
# Youngs Moduli (GPa) = 48.57545 45.49577 75.67225
#
# Poissons Ratio (x) = 0.26507 -0.23174
# Poissons Ratio (y) = 0.28301 0.56515
# Poissons Ratio (z) = -0.14876 0.33978
#
# Static dielectric constant tensor:
#      x y z
#    x 2.005060 0.000000 0.010720 
#    y 0.000000 1.923360 0.000000 
#    z 0.010720 0.000000 1.932870 
# 
# From -- ./inp_files/211582.got.cif
#   From: 2010.05.17/outbox.cif.g08.bks.cpg/sg15_106_cif.got.tgz:211582.got - 2010.06.03 18:47:42.
