data_PCOD9263551
_publ_section_title
;
Structure prediction by ZEFSAII (Michael W. Deem and Ramdas Pophale) SiO2 
 PCOD9263551
Probable space group: C 2/C
;
_chemical_formula_sum "Si O2"
_cell_formula_units_Z 44
_cell_length_a 9.788590
_cell_length_b 24.314190
_cell_length_c 8.016327
_cell_angle_alpha 90.000000
_cell_angle_beta 72.586385
_cell_angle_gamma 90.000000
_cell_volume 1820.458494
_symmetry_space_group_name_H-M "C 2/C"
_symmetry_group_IT_number 15
_symmetry_cell_setting 'monoclinic'
loop_
_space_group_symop_operation_xyz
x,y,z
-x,y,1/2-z
-x,-y,-z
x,-y,1/2+z
1/2+x,1/2+y,z
1/2-x,1/2+y,1/2-z
1/2-x,1/2-y,-z
1/2+x,1/2-y,1/2+z
loop_
_atom_site_type_symbol
_atom_site_label
_atom_site_fract_x
_atom_site_fract_y
_atom_site_fract_z
Si Si1 0.218106 0.728998 0.700394
Si Si2 0.336504 0.338090 0.615419
Si Si3 0.097232 0.633183 0.956118
Si Si4 0.665172 0.030048 0.749949
Si Si5 0.718700 0.084044 0.400871
Si Si6 0.000000 0.183117 0.750000
O O1 0.250000 0.750000 0.500000
O O2 0.137154 0.776923 0.828946
O O3 0.137297 0.672498 0.783979
O O4 0.371378 0.719990 0.730293
O O5 0.179502 0.341699 0.584255
O O6 0.333471 0.376824 0.775570
O O7 0.444438 0.351339 0.427294
O O8 0.167026 0.573164 0.900122
O O9 0.929620 0.619385 0.035900
O O10 0.500000 0.029238 0.750000
O O11 0.750633 0.058240 0.568814
O O12 0.701059 0.969017 0.789967
#
# Coordination Sequence:
#
# PCOD9263551 Si02
#       6
#     8   8   8   8   8   4
#     4  11  25  43  64  92 127 175 218 267 323 386
#     4  11  23  39  62  87 125 171 210 268 321 382
#     4  10  20  37  58  90 127 164 211 267 326 389
#     4  10  19  34  57  93 129 162 208 269 335 394
#     4  11  21  35  62  94 128 167 213 269 339 390
#     4  10  24  44  62  88 126 166 224 262 322 386
#
# _framework density 24.169733999999998
#
# number of rings (size 3 to 8) (size 9 to 14) (size 15 to 20)
#    0.000    1.455    0.000    8.182    5.091    0.727 
#    0.000    0.000    0.000    9.818    0.000    0.000 
#    0.000    0.000    0.000    0.000    0.000    0.000 
#
# Total GULP energy -123070.992651 kJ/mol
# GULP energy per Si atom -5594.136030 kJ/mol
# Density = 2.411472 g / cm^3
# Si number density = 24.169734 Si / 1000 Ang^3
#
#
#
# Elastic Constant Matrix: (Units=GPa)
#
#
# Indices 1 2 3 4 5 6 
#
# 1 64.7267 14.6359 16.0704 0.0000 -2.4695 0.0000
# 2 14.6359 124.9434 34.0512 0.0000 -19.2224 0.0000
# 3 16.0704 34.0512 155.3038 0.0000 -20.2382 0.0000
# 4 0.0000 0.0000 0.0000 50.9030 0.0000 12.4641
# 5 -2.4695 -19.2224 -20.2382 0.0000 31.7134 0.0000
# 6 0.0000 0.0000 0.0000 12.4641 0.0000 8.8121
#
#
#
# Elastic Compliance Matrix: (Units=1/GPa)
#
#
# Indices 1 2 3 4 5 6 
#
# 1 0.016136 -0.001603 -0.001397 0.000000 -0.000607 0.000000
# 2 -0.001603 0.009253 -0.001253 0.000000 0.004685 0.000000
# 3 -0.001397 -0.001253 0.007357 0.000000 0.003827 0.000000
# 4 0.000000 0.000000 0.000000 0.030054 0.000000 -0.042509
# 5 -0.000607 0.004685 0.003827 0.000000 0.036767 0.000000
# 6 0.000000 0.000000 0.000000 -0.042509 0.000000 0.173607
#
#
# Mechanical properties :
#
#
# Convention : Reuss Voigt Hill
#
# Bulk Modulus (GPa) = 41.25243 52.72098 46.98671
# Shear Modulus (GPa) = 17.25567 36.96678 27.11122
#
# Velocity S-wave (km/s) = 2.67486 3.91508 3.35281
# Velocity P-wave (km/s) = 5.16185 6.50364 5.87120
#
# Compressibility (1/GPa) = 0.02424100
#
# Stress axis : x y z
#
# Youngs Moduli (GPa) = 61.97413 108.06781 135.92666
#
# Poissons Ratio (x) = 0.17320 0.18994
# Poissons Ratio (y) = 0.09932 0.17026
# Poissons Ratio (z) = 0.08660 0.13536
#
# Static dielectric constant tensor:
#      x y z
#    x 1.932000 0.000000 -0.004930 
#    y 0.000000 1.883060 0.000000 
#    z -0.004930 0.000000 1.985220 
# 
# From -- ./inp_files/32422.got.cif
#   From: 2010.05.17/outbox.cif.g08.bks.cpg/sg15_17_cif.got.tgz:32422.got - 2010.06.03 18:47:42.
