data_PCOD9263818
_publ_section_title
;
Structure prediction by ZEFSAII (Michael W. Deem and Ramdas Pophale) SiO2 
 PCOD9263818
Probable space group: C 2/C
;
_chemical_formula_sum "Si O2"
_cell_formula_units_Z 56
_cell_length_a 13.989339
_cell_length_b 19.589408
_cell_length_c 8.763090
_cell_angle_alpha 90.000000
_cell_angle_beta 95.154812
_cell_angle_gamma 90.000000
_cell_volume 2391.749779
_symmetry_space_group_name_H-M "C 2/C"
_symmetry_group_IT_number 15
_symmetry_cell_setting 'monoclinic'
loop_
_space_group_symop_operation_xyz
x,y,z
-x,y,1/2-z
-x,-y,-z
x,-y,1/2+z
1/2+x,1/2+y,z
1/2-x,1/2+y,1/2-z
1/2-x,1/2-y,-z
1/2+x,1/2-y,1/2+z
loop_
_atom_site_type_symbol
_atom_site_label
_atom_site_fract_x
_atom_site_fract_y
_atom_site_fract_z
Si Si1 0.500000 0.842533 0.750000
Si Si2 0.359185 0.063029 0.409310
Si Si3 0.346807 0.488742 0.391385
Si Si4 0.605889 0.916162 0.234266
Si Si5 0.437681 0.282497 0.091309
Si Si6 0.221205 0.103504 0.901925
Si Si7 0.636660 0.406602 0.823296
Si Si8 0.500000 0.289199 0.750000
O O1 0.558468 0.887643 0.640717
O O2 0.577431 0.792947 0.841695
O O3 0.355803 0.069909 0.590583
O O4 0.252778 0.084976 0.337607
O O5 0.391870 0.988790 0.353239
O O6 0.277244 0.541788 0.474509
O O7 0.312938 0.439015 0.251998
O O8 0.392297 0.439154 0.520341
O O9 0.407169 0.545592 0.313624
O O10 0.500000 0.888602 0.250000
O O11 0.675479 0.870614 0.140766
O O12 0.500000 0.311244 0.250000
O O13 0.350054 0.335649 0.065251
O O14 0.482518 0.267681 0.928364
O O15 0.596906 0.332584 0.792038
#
# Coordination Sequence:
#
# PCOD9263818 Si02
#       8
#     4   8   8   8   8   8   8   4
#     4  10  28  48  71  95 142 194 248 286 352 422
#     4  12  23  45  70 108 143 183 231 299 367 427
#     4  10  19  34  61 103 137 179 214 287 373 419
#     4  12  24  38  73 111 143 178 227 302 367 433
#     4  10  25  49  70  96 142 194 243 295 341 430
#     4  11  19  41  63 100 147 176 223 289 367 419
#     4  11  21  37  63 101 142 176 221 292 359 432
#     4  12  24  44  71  99 134 190 258 292 336 432
#
# _framework density 23.413820999999999
#
# number of rings (size 3 to 8) (size 9 to 14) (size 15 to 20)
#    0.429    0.571    6.429    1.286    0.000    0.571 
#    6.429    3.571    0.000    0.000    0.000    0.000 
#    0.000    0.000    0.000    0.000    0.000    0.000 
#
# Total GULP energy -155891.321175 kJ/mol
# GULP energy per Si atom -5567.547185 kJ/mol
# Density = 2.336053 g / cm^3
# Si number density = 23.413821 Si / 1000 Ang^3
#
#
#
# Elastic Constant Matrix: (Units=GPa)
#
#
# Indices 1 2 3 4 5 6 
#
# 1 91.4573 7.6363 17.6117 0.0000 -14.1445 0.0000
# 2 7.6363 44.2514 18.1178 0.0000 -15.5197 0.0000
# 3 17.6117 18.1178 165.0965 0.0000 -18.2564 0.0000
# 4 0.0000 0.0000 0.0000 22.2107 0.0000 -0.6341
# 5 -14.1445 -15.5197 -18.2564 0.0000 38.3173 0.0000
# 6 0.0000 0.0000 0.0000 -0.6341 0.0000 15.3350
#
#
#
# Elastic Compliance Matrix: (Units=1/GPa)
#
#
# Indices 1 2 3 4 5 6 
#
# 1 0.011704 -0.000365 -0.000789 0.000000 0.003797 0.000000
# 2 -0.000365 0.026871 -0.001817 0.000000 0.009883 0.000000
# 3 -0.000789 -0.001817 0.006573 0.000000 0.002105 0.000000
# 4 0.000000 0.000000 0.000000 0.045077 0.000000 0.001864
# 5 0.003797 0.009883 0.002105 0.000000 0.032505 0.000000
# 6 0.000000 0.000000 0.000000 0.001864 0.000000 0.065288
#
#
# Mechanical properties :
#
#
# Convention : Reuss Voigt Hill
#
# Bulk Modulus (GPa) = 25.50595 43.05966 34.28280
# Shear Modulus (GPa) = 24.15131 32.33522 28.24326
#
# Velocity S-wave (km/s) = 3.21518 3.72025 3.47690
# Velocity P-wave (km/s) = 4.96995 6.07325 5.54909
#
# Compressibility (1/GPa) = 0.03920654
#
# Stress axis : x y z
#
# Youngs Moduli (GPa) = 85.44388 37.21443 152.12968
#
# Poissons Ratio (x) = 0.01359 0.11996
# Poissons Ratio (y) = 0.03121 0.27642
# Poissons Ratio (z) = 0.06738 0.06762
#
# Static dielectric constant tensor:
#      x y z
#    x 2.021130 0.000000 0.016010 
#    y 0.000000 1.868600 0.000000 
#    z 0.016010 0.000000 1.934560 
# 
# From -- ./inp_files/41288.got.cif
#   From: 2010.05.17/outbox.cif.g08.bks.cpg/sg15_21_cif.got.tgz:41288.got - 2010.06.03 18:47:42.
