data_PCOD9263909
_publ_section_title
;
Structure prediction by ZEFSAII (Michael W. Deem and Ramdas Pophale) SiO2 
 PCOD9263909
Probable space group: C 2/C
;
_chemical_formula_sum "Si O2"
_cell_formula_units_Z 56
_cell_length_a 15.182764
_cell_length_b 10.335712
_cell_length_c 19.101002
_cell_angle_alpha 90.000000
_cell_angle_beta 49.888646
_cell_angle_gamma 90.000000
_cell_volume 2292.406954
_symmetry_space_group_name_H-M "C 2/C"
_symmetry_group_IT_number 15
_symmetry_cell_setting 'monoclinic'
loop_
_space_group_symop_operation_xyz
x,y,z
-x,y,1/2-z
-x,-y,-z
x,-y,1/2+z
1/2+x,1/2+y,z
1/2-x,1/2+y,1/2-z
1/2-x,1/2-y,-z
1/2+x,1/2-y,1/2+z
loop_
_atom_site_type_symbol
_atom_site_label
_atom_site_fract_x
_atom_site_fract_y
_atom_site_fract_z
Si Si1 0.584986 0.716892 0.765620
Si Si2 0.147415 0.083280 0.950922
Si Si3 0.591951 0.095189 0.916631
Si Si4 0.500000 0.470954 0.750000
Si Si5 0.500000 0.066049 0.750000
Si Si6 0.427835 0.678902 0.980678
Si Si7 0.304073 0.958772 0.757251
Si Si8 0.927075 0.753648 0.896734
O O1 0.500000 0.773395 0.750000
O O2 0.596915 0.571518 0.728454
O O3 0.503805 0.710556 0.874952
O O4 0.695732 0.803794 0.729695
O O5 0.020865 0.126561 0.989273
O O6 0.213264 0.045967 0.845690
O O7 0.165465 0.196732 0.998644
O O8 0.152356 0.945480 0.988753
O O9 0.680035 0.003659 0.830001
O O10 0.527786 0.183681 0.890697
O O11 0.630893 0.194075 0.957442
O O12 0.500000 0.000000 0.000000
O O13 0.467691 0.380557 0.832314
O O14 0.423972 0.992204 0.733413
O O15 0.410596 0.152411 0.841568
#
# Coordination Sequence:
#
# PCOD9263909 Si02
#       8
#     8   8   8   4   4   8   8   8
#     4  10  19  34  63  83 117 159 191 240 302 353
#     4  10  21  36  60  87 115 151 203 247 292 351
#     4  10  20  35  59  82 117 160 194 238 302 356
#     4   9  17  34  60  86 111 159 200 230 296 361
#     4   9  19  36  60  80 121 157 188 238 300 353
#     4  10  20  39  59  79 121 159 190 247 298 348
#     4  11  21  36  58  91 116 153 199 245 298 355
#     4   9  18  35  58  84 112 157 194 238 293 353
#
# _framework density 24.428471999999999
#
# number of rings (size 3 to 8) (size 9 to 14) (size 15 to 20)
#    0.429    1.714    3.571    0.000    0.000    1.714 
#    0.000    2.857    0.000    5.143    0.000    0.000 
#    0.000    0.000    0.000    0.000    0.000    0.000 
#
# Total GULP energy -155882.058508 kJ/mol
# GULP energy per Si atom -5567.216375 kJ/mol
# Density = 2.437287 g / cm^3
# Si number density = 24.428472 Si / 1000 Ang^3
#
#
#
# Elastic Constant Matrix: (Units=GPa)
#
#
# Indices 1 2 3 4 5 6 
#
# 1 39.7672 18.8885 4.3200 0.0000 10.3162 0.0000
# 2 18.8885 74.8322 14.7174 0.0000 12.8077 0.0000
# 3 4.3200 14.7174 105.7519 0.0000 8.5735 0.0000
# 4 0.0000 0.0000 0.0000 268.8940 0.0000 29.0020
# 5 10.3162 12.8077 8.5735 0.0000 30.8680 0.0000
# 6 0.0000 0.0000 0.0000 29.0020 0.0000 17.7080
#
#
#
# Elastic Compliance Matrix: (Units=1/GPa)
#
#
# Indices 1 2 3 4 5 6 
#
# 1 0.030082 -0.006364 0.000264 0.000000 -0.007486 0.000000
# 2 -0.006364 0.015985 -0.001636 0.000000 -0.004051 0.000000
# 3 0.000264 -0.001636 0.009847 0.000000 -0.002144 0.000000
# 4 0.000000 0.000000 0.000000 0.004517 0.000000 -0.007398
# 5 -0.007486 -0.004051 -0.002144 0.000000 0.037174 0.000000
# 6 0.000000 0.000000 0.000000 -0.007398 0.000000 0.068587
#
#
# Mechanical properties :
#
#
# Convention : Reuss Voigt Hill
#
# Bulk Modulus (GPa) = 24.72702 32.91145 28.81923
# Shear Modulus (GPa) = 25.62192 75.65571 50.63881
#
# Velocity S-wave (km/s) = 3.24212 5.57113 4.55790
# Velocity P-wave (km/s) = 4.91521 7.40845 6.28667
#
# Compressibility (1/GPa) = 0.04044159
#
# Stress axis : x y z
#
# Youngs Moduli (GPa) = 33.24201 62.56009 101.55524
#
# Poissons Ratio (x) = 0.39811 -0.02678
# Poissons Ratio (y) = 0.21154 0.16616
# Poissons Ratio (z) = -0.00877 0.10236
#
# Static dielectric constant tensor:
#      x y z
#    x 1.955110 0.000000 -0.025170 
#    y 0.000000 2.091140 0.000000 
#    z -0.025170 0.000000 1.928250 
# 
# From -- ./inp_files/252363.got.cif
#   From: 2010.05.17/outbox.cif.g08.bks.cpg/sg15_127_cif.got.tgz:252363.got - 2010.06.03 18:47:42.
