data_PCOD9263321
_publ_section_title
;
Structure prediction by ZEFSAII (Michael W. Deem and Ramdas Pophale) SiO2 
 PCOD9263321
Probable space group: C 2/C
;
_chemical_formula_sum "Si O2"
_cell_formula_units_Z 56
_cell_length_a 19.567602
_cell_length_b 9.241735
_cell_length_c 16.865023
_cell_angle_alpha 90.000000
_cell_angle_beta 96.747596
_cell_angle_gamma 90.000000
_cell_volume 3028.721910
_symmetry_space_group_name_H-M "C 2/C"
_symmetry_group_IT_number 15
_symmetry_cell_setting 'monoclinic'
loop_
_space_group_symop_operation_xyz
x,y,z
-x,y,1/2-z
-x,-y,-z
x,-y,1/2+z
1/2+x,1/2+y,z
1/2-x,1/2+y,1/2-z
1/2-x,1/2-y,-z
1/2+x,1/2-y,1/2+z
loop_
_atom_site_type_symbol
_atom_site_label
_atom_site_fract_x
_atom_site_fract_y
_atom_site_fract_z
Si Si1 0.447101 0.616806 0.307745
Si Si2 0.101140 0.380381 0.307069
Si Si3 0.004600 0.320548 0.432155
Si Si4 0.309265 0.443046 0.305358
Si Si5 0.115293 0.535505 0.043496
Si Si6 0.279975 0.128791 0.562185
Si Si7 0.180878 0.390929 0.720822
O O1 0.500000 0.555655 0.250000
O O2 0.419263 0.765797 0.263032
O O3 0.485961 0.665682 0.392990
O O4 0.383410 0.514750 0.314151
O O5 0.164011 0.312676 0.366665
O O6 0.128918 0.528500 0.273928
O O7 0.039167 0.401817 0.360700
O O8 0.935786 0.400364 0.451840
O O9 0.063600 0.336993 0.506456
O O10 0.279327 0.435972 0.390835
O O11 0.254454 0.535981 0.247833
O O12 0.312987 0.280807 0.271981
O O13 0.152529 0.573895 0.129820
O O14 0.174424 0.520356 0.985097
O O15 0.250000 0.250000 0.500000
#
# Coordination Sequence:
#
# PCOD9263321 Si02
#       7
#     8   8   8   8   8   8   8
#     4  10  20  39  61  87 117 156 194 239 290 355
#     4   9  19  36  63  86 111 154 196 236 291 350
#     4   9  19  36  62  85 117 153 196 234 290 355
#     4  11  23  38  60  88 119 154 200 246 296 347
#     4  10  19  34  60  86 111 152 196 238 285 346
#     4  10  19  34  55  83 115 153 193 229 292 349
#     4  11  21  36  61  88 114 152 198 250 288 347
#
# _framework density 18.489647000000001
#
# number of rings (size 3 to 8) (size 9 to 14) (size 15 to 20)
#    0.000    2.000    2.857    1.714    0.000    0.000 
#    2.571    1.429    6.286    0.000    0.000    0.000 
#    0.000    0.000    0.000    0.000    0.000    0.000 
#
# Total GULP energy -156092.519297 kJ/mol
# GULP energy per Si atom -5574.732832 kJ/mol
# Density = 1.844756 g / cm^3
# Si number density = 18.489647 Si / 1000 Ang^3
#
#
#
# Elastic Constant Matrix: (Units=GPa)
#
#
# Indices 1 2 3 4 5 6 
#
# 1 138.2396 52.8610 58.0889 0.0000 -23.3329 0.0000
# 2 52.8610 66.6598 36.3042 0.0000 -13.1773 0.0000
# 3 58.0889 36.3042 96.4751 0.0000 10.9944 0.0000
# 4 0.0000 0.0000 0.0000 17.5853 0.0000 1.3995
# 5 -23.3329 -13.1773 10.9944 0.0000 35.5838 0.0000
# 6 0.0000 0.0000 0.0000 1.3995 0.0000 33.7769
#
#
#
# Elastic Compliance Matrix: (Units=1/GPa)
#
#
# Indices 1 2 3 4 5 6 
#
# 1 0.014001 -0.005028 -0.007641 0.000000 0.009680 0.000000
# 2 -0.005028 0.024396 -0.007056 0.000000 0.007918 0.000000
# 3 -0.007641 -0.007056 0.019165 0.000000 -0.013545 0.000000
# 4 0.000000 0.000000 0.000000 0.057054 0.000000 -0.002364
# 5 0.009680 0.007918 -0.013545 0.000000 0.041567 0.000000
# 6 0.000000 0.000000 0.000000 -0.002364 0.000000 0.029704
#
#
# Mechanical properties :
#
#
# Convention : Reuss Voigt Hill
#
# Bulk Modulus (GPa) = 55.20877 66.20919 60.70898
# Shear Modulus (GPa) = 21.61001 27.66389 24.63695
#
# Velocity S-wave (km/s) = 3.42243 3.87225 3.65427
# Velocity P-wave (km/s) = 6.74844 7.47522 7.12111
#
# Compressibility (1/GPa) = 0.01811306
#
# Stress axis : x y z
#
# Youngs Moduli (GPa) = 71.42268 40.99002 52.17830
#
# Poissons Ratio (x) = 0.20608 0.39872
# Poissons Ratio (y) = 0.35909 0.36815
# Poissons Ratio (z) = 0.54578 0.28921
#
# Static dielectric constant tensor:
#      x y z
#    x 1.671550 0.000000 0.003140 
#    y 0.000000 1.613700 0.000000 
#    z 0.003140 0.000000 1.667090 
# 
# From -- ./inp_files/213419.got.cif
#   From: 2010.05.17/outbox.cif.g08.bks.cpg/sg15_107_cif.got.tgz:213419.got - 2010.06.03 18:47:42.
