data_PCOD9263277
_publ_section_title
;
Structure prediction by ZEFSAII (Michael W. Deem and Ramdas Pophale) SiO2 
 PCOD9263277
Probable space group: C 2/C
;
_chemical_formula_sum "Si O2"
_cell_formula_units_Z 52
_cell_length_a 8.077504
_cell_length_b 10.926007
_cell_length_c 25.377523
_cell_angle_alpha 90.000000
_cell_angle_beta 79.329077
_cell_angle_gamma 90.000000
_cell_volume 2200.958678
_symmetry_space_group_name_H-M "C 2/C"
_symmetry_group_IT_number 15
_symmetry_cell_setting 'monoclinic'
loop_
_space_group_symop_operation_xyz
x,y,z
-x,y,1/2-z
-x,-y,-z
x,-y,1/2+z
1/2+x,1/2+y,z
1/2-x,1/2+y,1/2-z
1/2-x,1/2-y,-z
1/2+x,1/2-y,1/2+z
loop_
_atom_site_type_symbol
_atom_site_label
_atom_site_fract_x
_atom_site_fract_y
_atom_site_fract_z
Si Si1 0.228800 0.350789 0.281456
Si Si2 0.749166 0.416423 0.550158
Si Si3 0.435254 0.149169 0.140401
Si Si4 0.000000 0.360837 0.750000
Si Si5 0.195688 0.864385 0.109034
Si Si6 0.657143 0.146182 0.674597
Si Si7 0.587102 0.147391 0.565574
O O1 0.342830 0.230508 0.268237
O O2 0.300162 0.412462 0.330313
O O3 0.225609 0.416939 0.224425
O O4 0.036011 0.315231 0.304337
O O5 0.885181 0.418593 0.589987
O O6 0.632578 0.531237 0.572743
O O7 0.658537 0.285953 0.557859
O O8 0.840808 0.423101 0.488960
O O9 0.473600 0.079723 0.193590
O O10 0.584090 0.243368 0.117639
O O11 0.275050 0.235101 0.162497
O O12 0.386088 0.835992 0.080034
O O13 0.656559 0.089806 0.616212
#
# Coordination Sequence:
#
# PCOD9263277 Si02
#       7
#     8   8   8   4   8   8   8
#     4   8  14  26  51  75  97 136 171 203 262 312
#     4  10  20  36  54  76 106 141 178 214 260 315
#     4   9  18  32  53  77 105 137 174 219 262 311
#     4   8  14  28  50  76 108 136 166 220 268 302
#     4  10  19  34  55  77 103 138 174 217 266 307
#     4   8  14  29  50  71 101 137 165 208 263 300
#     4   9  19  35  53  76 108 140 175 218 259 309
#
# _framework density 23.626068
#
# number of rings (size 3 to 8) (size 9 to 14) (size 15 to 20)
#    0.000    3.077    0.000    0.462    0.000    0.615 
#    0.000   14.615    0.000  108.923    0.000    0.000 
#    0.000    0.000    0.000    0.000    0.000    0.000 
#
# Total GULP energy -145064.453526 kJ/mol
# GULP energy per Si atom -5579.402059 kJ/mol
# Density = 2.357229 g / cm^3
# Si number density = 23.626068 Si / 1000 Ang^3
#
#
#
# Elastic Constant Matrix: (Units=GPa)
#
#
# Indices 1 2 3 4 5 6 
#
# 1 74.6145 26.5395 22.4971 0.0000 -13.9774 0.0000
# 2 26.5395 55.4122 36.6059 0.0000 -13.2562 0.0000
# 3 22.4971 36.6059 191.5637 0.0000 -4.6839 0.0000
# 4 0.0000 0.0000 0.0000 46.9245 0.0000 1.4103
# 5 -13.9774 -13.2562 -4.6839 0.0000 24.0440 0.0000
# 6 0.0000 0.0000 0.0000 1.4103 0.0000 21.8368
#
#
#
# Elastic Compliance Matrix: (Units=1/GPa)
#
#
# Indices 1 2 3 4 5 6 
#
# 1 0.016988 -0.006186 -0.000658 0.000000 0.006337 0.000000
# 2 -0.006186 0.026044 -0.004006 0.000000 0.009983 0.000000
# 3 -0.000658 -0.004006 0.006028 0.000000 -0.001417 0.000000
# 4 0.000000 0.000000 0.000000 0.021352 0.000000 -0.001379
# 5 0.006337 0.009983 -0.001417 0.000000 0.050502 0.000000
# 6 0.000000 0.000000 0.000000 -0.001379 0.000000 0.045883
#
#
# Mechanical properties :
#
#
# Convention : Reuss Voigt Hill
#
# Bulk Modulus (GPa) = 36.54924 54.76393 45.65659
# Shear Modulus (GPa) = 25.30142 34.29092 29.79617
#
# Velocity S-wave (km/s) = 3.27603 3.81386 3.55513
# Velocity P-wave (km/s) = 5.46015 6.52869 6.01818
#
# Compressibility (1/GPa) = 0.02736035
#
# Stress axis : x y z
#
# Youngs Moduli (GPa) = 58.86549 38.39696 165.88212
#
# Poissons Ratio (x) = 0.23751 0.10917
# Poissons Ratio (y) = 0.36411 0.66455
# Poissons Ratio (z) = 0.03874 0.15383
#
# Static dielectric constant tensor:
#      x y z
#    x 1.894400 0.000000 0.049340 
#    y 0.000000 1.925730 0.000000 
#    z 0.049340 0.000000 1.952270 
# 
# From -- ./inp_files/263932.got.cif
#   From: 2010.05.17/outbox.cif.g08.bks.cpg/sg15_132_cif.got.tgz:263932.got - 2010.06.03 18:47:42.
