data_PCOD9263473
_publ_section_title
;
Structure prediction by ZEFSAII (Michael W. Deem and Ramdas Pophale) SiO2 
 PCOD9263473
Probable space group: C 2/C
;
_chemical_formula_sum "Si O2"
_cell_formula_units_Z 60
_cell_length_a 9.303881
_cell_length_b 23.851172
_cell_length_c 25.334890
_cell_angle_alpha 90.000000
_cell_angle_beta 38.592554
_cell_angle_gamma 90.000000
_cell_volume 3506.896647
_symmetry_space_group_name_H-M "C 2/C"
_symmetry_group_IT_number 15
_symmetry_cell_setting 'monoclinic'
loop_
_space_group_symop_operation_xyz
x,y,z
-x,y,1/2-z
-x,-y,-z
x,-y,1/2+z
1/2+x,1/2+y,z
1/2-x,1/2+y,1/2-z
1/2-x,1/2-y,-z
1/2+x,1/2-y,1/2+z
loop_
_atom_site_type_symbol
_atom_site_label
_atom_site_fract_x
_atom_site_fract_y
_atom_site_fract_z
Si Si1 0.849653 0.134264 0.155728
Si Si2 0.170189 0.810148 0.001698
Si Si3 0.092647 0.503327 0.383543
Si Si4 0.267568 0.351764 0.406951
Si Si5 0.179106 0.570136 0.462415
Si Si6 0.994295 0.761427 0.552938
Si Si7 0.470210 0.107996 0.347185
Si Si8 0.500000 0.578752 0.750000
O O1 0.868947 0.198366 0.130947
O O2 0.700808 0.127769 0.251245
O O3 0.716573 0.102923 0.146249
O O4 0.100982 0.108473 0.091022
O O5 0.993618 0.796718 0.005351
O O6 0.373413 0.845293 0.915212
O O7 0.250000 0.750000 0.000000
O O8 0.105402 0.841889 0.073828
O O9 0.209223 0.532966 0.401267
O O10 0.013877 0.550855 0.365847
O O11 0.278145 0.461026 0.305411
O O12 0.881262 0.469125 0.470290
O O13 0.155529 0.294206 0.416187
O O14 0.433032 0.381911 0.318114
O O15 0.048614 0.392096 0.479972
O O16 0.250000 0.750000 0.500000
#
# Coordination Sequence:
#
# PCOD9263473 Si02
#       8
#     8   8   8   8   8   8   8   4
#     4  10  21  34  56  82 111 143 186 229 288 336
#     4   9  19  34  56  79 111 144 183 228 279 337
#     4  10  20  35  56  80 111 142 196 229 279 331
#     4  10  19  36  57  81 112 148 190 229 285 336
#     4  10  19  34  57  82 107 147 187 233 275 339
#     4  10  19  34  58  84 110 147 186 228 283 344
#     4  10  20  36  53  80 112 141 183 237 277 334
#     4  10  22  34  58  84 108 152 190 238 278 334
#
# _framework density 17.109143
#
# number of rings (size 3 to 8) (size 9 to 14) (size 15 to 20)
#    0.000    2.133    2.667    0.800    0.000    3.733 
#    0.000    0.000    2.933    2.400    0.000    0.000 
#    0.000    0.000    0.000    0.000    0.000    0.000 
#
# Total GULP energy -167191.164306 kJ/mol
# GULP energy per Si atom -5573.038810 kJ/mol
# Density = 1.707020 g / cm^3
# Si number density = 17.109143 Si / 1000 Ang^3
#
#
#
# Elastic Constant Matrix: (Units=GPa)
#
#
# Indices 1 2 3 4 5 6 
#
# 1 71.3349 43.0051 56.4116 -0.0018 9.6231 0.0011
# 2 43.0051 98.8967 52.7384 0.0000 15.2516 0.0004
# 3 56.4116 52.7384 96.3809 -0.0039 15.7972 0.0028
# 4 -0.0018 0.0000 -0.0039 30.6251 0.0016 6.0255
# 5 9.6231 15.2516 15.7972 0.0016 18.8525 -0.0009
# 6 0.0011 0.0004 0.0028 6.0255 -0.0009 33.0268
#
#
#
# Elastic Compliance Matrix: (Units=1/GPa)
#
#
# Indices 1 2 3 4 5 6 
#
# 1 0.027643 -0.004918 -0.013710 0.000000 0.001357 0.000000
# 2 -0.004918 0.015722 -0.004696 -0.000001 -0.006274 0.000000
# 3 -0.013710 -0.004696 0.022257 0.000003 -0.007852 -0.000002
# 4 0.000000 -0.000001 0.000003 0.033869 -0.000005 -0.006179
# 5 0.001357 -0.006274 -0.007852 -0.000005 0.064006 0.000003
# 6 0.000000 0.000000 -0.000002 -0.006179 0.000003 0.031406
#
#
# Mechanical properties :
#
#
# Convention : Reuss Voigt Hill
#
# Bulk Modulus (GPa) = 52.70920 63.43585 58.07252
# Shear Modulus (GPa) = 20.17148 24.13134 22.15141
#
# Velocity S-wave (km/s) = 3.43736 3.75965 3.60211
# Velocity P-wave (km/s) = 6.82850 7.48360 7.16354
#
# Compressibility (1/GPa) = 0.01897202
#
# Stress axis : x y z
#
# Youngs Moduli (GPa) = 36.17616 63.60525 44.93022
#
# Poissons Ratio (x) = 0.31283 0.61601
# Poissons Ratio (y) = 0.17793 0.21099
# Poissons Ratio (z) = 0.49599 0.29868
#
# Static dielectric constant tensor:
#      x y z
#    x 1.573860 0.000000 0.014090 
#    y 0.000000 1.598350 0.000000 
#    z 0.014090 0.000000 1.572870 
# 
# From -- ./inp_files/137399.got.cif
#   From: 2010.05.17/outbox.cif.g08.bks.cpg/sg15_69_cif.got.tgz:137399.got - 2010.06.03 18:47:42.
