data_PCOD9263349
_publ_section_title
;
Structure prediction by ZEFSAII (Michael W. Deem and Ramdas Pophale) SiO2 
 PCOD9263349
Probable space group: C 2/C
;
_chemical_formula_sum "Si O2"
_cell_formula_units_Z 40
_cell_length_a 15.804298
_cell_length_b 19.448088
_cell_length_c 11.316569
_cell_angle_alpha 90.000000
_cell_angle_beta 30.099921
_cell_angle_gamma 90.000000
_cell_volume 1744.400085
_symmetry_space_group_name_H-M "C 2/C"
_symmetry_group_IT_number 15
_symmetry_cell_setting 'monoclinic'
loop_
_space_group_symop_operation_xyz
x,y,z
-x,y,1/2-z
-x,-y,-z
x,-y,1/2+z
1/2+x,1/2+y,z
1/2-x,1/2+y,1/2-z
1/2-x,1/2-y,-z
1/2+x,1/2-y,1/2+z
loop_
_atom_site_type_symbol
_atom_site_label
_atom_site_fract_x
_atom_site_fract_y
_atom_site_fract_z
Si Si1 0.698278 0.544982 0.147634
Si Si2 0.121475 0.805593 0.706019
Si Si3 0.808262 0.994159 0.591013
Si Si4 0.237750 0.159102 0.447284
Si Si5 0.523810 0.263915 0.385463
O O1 0.705100 0.626639 0.160627
O O2 0.501495 0.520523 0.374056
O O3 0.764953 0.507104 0.186214
O O4 0.770909 0.532871 0.927437
O O5 0.250000 0.750000 0.500000
O O6 0.000000 0.832212 0.750000
O O7 0.001549 0.770282 0.946351
O O8 0.801054 0.915974 0.551532
O O9 0.425833 0.187508 0.214746
O O10 0.149348 0.178480 0.677648
O O11 0.150044 0.213335 0.464330
#
# Coordination Sequence:
#
# PCOD9263349 Si02
#       5
#     8   8   8   8   8
#     4  10  20  34  58  87 116 153 206 255 296 348
#     4  12  24  38  59  92 123 159 197 249 307 368
#     4  10  19  34  55  89 115 151 203 257 291 355
#     4  10  20  35  63  87 122 151 198 255 299 355
#     4  10  20  36  55  91 120 157 195 245 306 356
#
# _framework density 22.930519
#
# number of rings (size 3 to 8) (size 9 to 14) (size 15 to 20)
#    0.000    1.600    4.000    3.600    2.800    0.000 
#    0.000    0.000    0.000    1.200   15.600    0.000 
#    0.000    0.000    0.000    0.000    0.000    0.000 
#
# Total GULP energy -111486.512434 kJ/mol
# GULP energy per Si atom -5574.325622 kJ/mol
# Density = 2.287833 g / cm^3
# Si number density = 22.930519 Si / 1000 Ang^3
#
#
#
# Elastic Constant Matrix: (Units=GPa)
#
#
# Indices 1 2 3 4 5 6 
#
# 1 64.8209 10.4390 41.5625 -0.0026 41.6332 0.0016
# 2 10.4390 115.3507 25.6345 -0.0016 -1.2495 0.0009
# 3 41.5625 25.6345 70.4350 -0.0048 44.2576 0.0043
# 4 -0.0026 -0.0016 -0.0048 16.0648 0.0039 6.0586
# 5 41.6332 -1.2495 44.2576 0.0039 41.4506 -0.0033
# 6 0.0016 0.0009 0.0043 6.0586 -0.0033 29.1919
#
#
#
# Elastic Compliance Matrix: (Units=1/GPa)
#
#
# Indices 1 2 3 4 5 6 
#
# 1 0.050143 -0.008994 0.016716 0.000037 -0.068482 -0.000020
# 2 -0.008994 0.013527 -0.016859 -0.000015 0.027442 0.000009
# 3 0.016716 -0.016859 0.064838 0.000053 -0.086526 -0.000031
# 4 0.000037 -0.000015 0.000053 0.067534 -0.000101 -0.014016
# 5 -0.068482 0.027442 -0.086526 -0.000101 0.186122 0.000058
# 6 -0.000020 0.000009 -0.000031 -0.014016 0.000058 0.037165
#
#
# Mechanical properties :
#
#
# Convention : Reuss Voigt Hill
#
# Bulk Modulus (GPa) = 9.07174 45.09761 27.08468
# Shear Modulus (GPa) = 10.54078 28.87283 19.70681
#
# Velocity S-wave (km/s) = 2.14635 3.55229 2.93476
# Velocity P-wave (km/s) = 3.17918 6.04440 4.82918
#
# Compressibility (1/GPa) = 0.11023243
#
# Stress axis : x y z
#
# Youngs Moduli (GPa) = 19.94315 73.92607 15.42303
#
# Poissons Ratio (x) = 0.66492 -0.25781
# Poissons Ratio (y) = 0.17938 0.26002
# Poissons Ratio (z) = -0.33336 1.24632
#
# Static dielectric constant tensor:
#      x y z
#    x 1.990640 -0.000020 0.031290 
#    y -0.000020 1.871840 -0.000010 
#    z 0.031290 -0.000010 1.934760 
# 
# From -- ./inp_files/106832.got.cif
#   From: 2010.05.17/outbox.cif.g08.bks.cpg/sg15_54_cif.got.tgz:106832.got - 2010.06.03 18:47:42.
