data_PCOD9263587
_publ_section_title
;
Structure prediction by ZEFSAII (Michael W. Deem and Ramdas Pophale) SiO2 
 PCOD9263587
Probable space group: C 2/C
;
_chemical_formula_sum "Si O2"
_cell_formula_units_Z 48
_cell_length_a 9.904607
_cell_length_b 13.488043
_cell_length_c 19.463868
_cell_angle_alpha 90.000000
_cell_angle_beta 120.716558
_cell_angle_gamma 90.000000
_cell_volume 2235.448340
_symmetry_space_group_name_H-M "C 2/C"
_symmetry_group_IT_number 15
_symmetry_cell_setting 'monoclinic'
loop_
_space_group_symop_operation_xyz
x,y,z
-x,y,1/2-z
-x,-y,-z
x,-y,1/2+z
1/2+x,1/2+y,z
1/2-x,1/2+y,1/2-z
1/2-x,1/2-y,-z
1/2+x,1/2-y,1/2+z
loop_
_atom_site_type_symbol
_atom_site_label
_atom_site_fract_x
_atom_site_fract_y
_atom_site_fract_z
Si Si1 0.339369 0.648341 0.540219
Si Si2 0.199846 0.136307 0.606206
Si Si3 0.285658 0.569551 0.037464
Si Si4 0.159669 0.072488 0.163450
Si Si5 0.805179 0.651937 0.341830
Si Si6 0.395342 0.785658 0.656216
O O1 0.250000 0.750000 0.500000
O O2 0.509998 0.643497 0.550470
O O3 0.256026 0.544801 0.510760
O O4 0.369320 0.672027 0.628226
O O5 0.258468 0.129637 0.542918
O O6 0.253537 0.234707 0.660069
O O7 0.223841 0.035053 0.655396
O O8 0.472947 0.575207 0.102941
O O9 0.204860 0.600612 0.086924
O O10 0.210779 0.099936 0.254777
O O11 0.241045 0.153027 0.134496
O O12 0.986602 0.662386 0.366722
O O13 0.500000 0.786375 0.750000
#
# Coordination Sequence:
#
# PCOD9263587 Si02
#       6
#     8   8   8   8   8   8
#     4  10  19  34  58  84 108 146 191 229 275 337
#     4  10  21  38  58  82 119 153 183 234 294 339
#     4  11  21  36  59  87 115 147 189 239 285 338
#     4  10  20  39  60  81 112 156 195 232 283 340
#     4  10  22  37  57  86 115 148 192 238 283 335
#     4   9  19  36  55  78 112 150 189 234 283 335
#
# _framework density 21.472203
#
# number of rings (size 3 to 8) (size 9 to 14) (size 15 to 20)
#    0.000    2.000    0.000    5.000    0.000    5.333 
#    0.000   15.833    0.000    0.000    0.000    0.000 
#    0.000    0.000    0.000    0.000    0.000    0.000 
#
# Total GULP energy -133883.202883 kJ/mol
# GULP energy per Si atom -5578.466787 kJ/mol
# Density = 2.142333 g / cm^3
# Si number density = 21.472203 Si / 1000 Ang^3
#
#
#
# Elastic Constant Matrix: (Units=GPa)
#
#
# Indices 1 2 3 4 5 6 
#
# 1 46.2884 6.1252 33.8598 0.0000 -31.2327 0.0000
# 2 6.1252 62.5354 47.2856 0.0000 -16.6391 0.0000
# 3 33.8598 47.2856 113.9264 0.0000 -26.6026 0.0000
# 4 0.0000 0.0000 0.0000 42.0942 0.0000 -6.5213
# 5 -31.2327 -16.6391 -26.6026 0.0000 40.4995 0.0000
# 6 0.0000 0.0000 0.0000 -6.5213 0.0000 19.0143
#
#
#
# Elastic Compliance Matrix: (Units=1/GPa)
#
#
# Indices 1 2 3 4 5 6 
#
# 1 0.058562 0.016366 -0.014271 0.000000 0.042512 0.000000
# 2 0.016366 0.028386 -0.012964 0.000000 0.015768 0.000000
# 3 -0.014271 -0.012964 0.017229 0.000000 -0.005015 0.000000
# 4 0.000000 0.000000 0.000000 0.025089 0.000000 0.008605
# 5 0.042512 0.015768 -0.005015 0.000000 0.060660 0.000000
# 6 0.000000 0.000000 0.000000 0.008605 0.000000 0.055543
#
#
# Mechanical properties :
#
#
# Convention : Reuss Voigt Hill
#
# Bulk Modulus (GPa) = 12.13017 44.14351 28.13684
# Shear Modulus (GPa) = 16.96718 29.35359 23.16039
#
# Velocity S-wave (km/s) = 2.81409 3.70138 3.28780
# Velocity P-wave (km/s) = 4.02744 6.23458 5.24835
#
# Compressibility (1/GPa) = 0.08243906
#
# Stress axis : x y z
#
# Youngs Moduli (GPa) = 17.07601 35.22861 58.04238
#
# Poissons Ratio (x) = -0.57656 0.82833
# Poissons Ratio (y) = -0.27947 0.75246
# Poissons Ratio (z) = 0.24369 0.45670
#
# Static dielectric constant tensor:
#      x y z
#    x 1.780100 0.000000 -0.027270 
#    y 0.000000 1.838740 0.000000 
#    z -0.027270 0.000000 2.030320 
# 
# From -- ./inp_files/237237.got.cif
#   From: 2010.05.17/outbox.cif.g08.bks.cpg/sg15_119_cif.got.tgz:237237.got - 2010.06.03 18:47:42.
