data_PCOD9263079
_publ_section_title
;
Structure prediction by ZEFSAII (Michael W. Deem and Ramdas Pophale) SiO2 
 PCOD9263079
Probable space group: C 2/C
;
_chemical_formula_sum "Si O2"
_cell_formula_units_Z 56
_cell_length_a 11.131497
_cell_length_b 17.006860
_cell_length_c 17.864122
_cell_angle_alpha 90.000000
_cell_angle_beta 117.241738
_cell_angle_gamma 90.000000
_cell_volume 3006.780807
_symmetry_space_group_name_H-M "C 2/C"
_symmetry_group_IT_number 15
_symmetry_cell_setting 'monoclinic'
loop_
_space_group_symop_operation_xyz
x,y,z
-x,y,1/2-z
-x,-y,-z
x,-y,1/2+z
1/2+x,1/2+y,z
1/2-x,1/2+y,1/2-z
1/2-x,1/2-y,-z
1/2+x,1/2-y,1/2+z
loop_
_atom_site_type_symbol
_atom_site_label
_atom_site_fract_x
_atom_site_fract_y
_atom_site_fract_z
Si Si1 0.383711 0.974969 0.909686
Si Si2 0.814716 0.698398 0.378546
Si Si3 0.895305 0.880446 0.404377
Si Si4 0.896522 0.753477 0.792392
Si Si5 0.419170 0.640799 0.080721
Si Si6 0.072330 0.980045 0.348913
Si Si7 0.367180 0.920885 0.262004
O O1 0.234167 0.004889 0.893587
O O2 0.387280 0.013004 0.828967
O O3 0.398285 0.881039 0.905887
O O4 0.500000 0.000000 0.000000
O O5 0.880577 0.784933 0.397691
O O6 0.728012 0.699259 0.277348
O O7 0.710233 0.683188 0.418088
O O8 0.892823 0.894854 0.492242
O O9 0.765804 0.920555 0.327530
O O10 0.021897 0.918468 0.397092
O O11 0.859433 0.664342 0.799329
O O12 0.000000 0.752173 0.750000
O O13 0.966169 0.793454 0.882465
O O14 0.474473 0.569061 0.146476
O O15 0.000000 0.956791 0.250000
O O16 0.500000 0.920601 0.250000
#
# Coordination Sequence:
#
# PCOD9263079 Si02
#       7
#     8   8   8   8   8   8   8
#     4  11  24  40  63  84 121 169 209 246 308 382
#     4   9  20  37  58  89 121 161 203 249 313 366
#     4  11  22  37  63  94 119 153 208 267 311 364
#     4   8  16  33  57  87 114 145 189 251 307 349
#     4  10  19  33  63  91 118 148 203 266 306 357
#     4  11  22  42  61  86 124 166 206 249 315 380
#     4  10  22  37  59  87 120 154 198 252 312 365
#
# _framework density 18.624569999999999
#
# number of rings (size 3 to 8) (size 9 to 14) (size 15 to 20)
#    0.000    2.000    1.429    3.857    6.000    0.000 
#    0.000    1.429    0.000    0.000    0.000    0.000 
#    0.000    0.000    0.000    0.000    0.000    0.000 
#
# Total GULP energy -155903.350169 kJ/mol
# GULP energy per Si atom -5567.976792 kJ/mol
# Density = 1.858218 g / cm^3
# Si number density = 18.624570 Si / 1000 Ang^3
#
#
#
# Elastic Constant Matrix: (Units=GPa)
#
#
# Indices 1 2 3 4 5 6 
#
# 1 51.7975 25.3024 17.3023 0.0000 1.3028 0.0000
# 2 25.3024 74.1896 17.8278 0.0000 -4.8147 0.0000
# 3 17.3023 17.8278 79.4024 0.0000 -1.3166 0.0000
# 4 0.0000 0.0000 0.0000 18.3809 0.0000 -3.0466
# 5 1.3028 -4.8147 -1.3166 0.0000 23.1934 0.0000
# 6 0.0000 0.0000 0.0000 -3.0466 0.0000 23.6004
#
#
#
# Elastic Compliance Matrix: (Units=1/GPa)
#
#
# Indices 1 2 3 4 5 6 
#
# 1 0.024327 -0.007627 -0.003641 0.000000 -0.003156 0.000000
# 2 -0.007627 0.016820 -0.002052 0.000000 0.003804 0.000000
# 3 -0.003641 -0.002052 0.013857 0.000000 0.000565 0.000000
# 4 0.000000 0.000000 0.000000 0.055594 0.000000 0.007177
# 5 -0.003156 0.003804 0.000565 0.000000 0.044115 0.000000
# 6 0.000000 0.000000 0.000000 0.007177 0.000000 0.043299
#
#
# Mechanical properties :
#
#
# Convention : Reuss Voigt Hill
#
# Bulk Modulus (GPa) = 35.25339 36.25051 35.75195
# Shear Modulus (GPa) = 21.35792 22.69874 22.02833
#
# Velocity S-wave (km/s) = 3.39006 3.49485 3.44285
# Velocity P-wave (km/s) = 5.85601 5.98259 5.91964
#
# Compressibility (1/GPa) = 0.02836607
#
# Stress axis : x y z
#
# Youngs Moduli (GPa) = 41.10646 59.45346 72.16327
#
# Poissons Ratio (x) = 0.45343 0.26275
# Poissons Ratio (y) = 0.31351 0.14804
# Poissons Ratio (z) = 0.14967 0.12197
#
# Static dielectric constant tensor:
#      x y z
#    x 1.686830 0.000000 0.010730 
#    y 0.000000 1.668510 0.000000 
#    z 0.010730 0.000000 1.648810 
# 
# From -- ./inp_files/198442.got.cif
#   From: 2010.05.17/outbox.cif.g08.bks.cpg/sg15_100_cif.got.tgz:198442.got - 2010.06.03 18:47:42.
