data_PCOD9263195
_publ_section_title
;
Structure prediction by ZEFSAII (Michael W. Deem and Ramdas Pophale) SiO2 
 PCOD9263195
Probable space group: C 2/C
;
_chemical_formula_sum "Si O2"
_cell_formula_units_Z 48
_cell_length_a 15.732277
_cell_length_b 15.253817
_cell_length_c 10.490263
_cell_angle_alpha 90.000000
_cell_angle_beta 103.753573
_cell_angle_gamma 90.000000
_cell_volume 2445.243221
_symmetry_space_group_name_H-M "C 2/C"
_symmetry_group_IT_number 15
_symmetry_cell_setting 'monoclinic'
loop_
_space_group_symop_operation_xyz
x,y,z
-x,y,1/2-z
-x,-y,-z
x,-y,1/2+z
1/2+x,1/2+y,z
1/2-x,1/2+y,1/2-z
1/2-x,1/2-y,-z
1/2+x,1/2-y,1/2+z
loop_
_atom_site_type_symbol
_atom_site_label
_atom_site_fract_x
_atom_site_fract_y
_atom_site_fract_z
Si Si1 0.795043 0.121888 0.588858
Si Si2 0.703602 0.338933 0.938932
Si Si3 0.057744 0.972842 0.897702
Si Si4 0.247164 0.793987 0.685957
Si Si5 0.147008 0.516199 0.994367
Si Si6 0.412549 0.921245 0.766836
O O1 0.801032 0.178731 0.461155
O O2 0.783200 0.194789 0.693972
O O3 0.873004 0.050958 0.615247
O O4 0.703618 0.069117 0.552994
O O5 0.615444 0.386606 0.954414
O O6 0.688124 0.319476 0.784031
O O7 0.779418 0.409807 0.990248
O O8 0.750000 0.250000 0.000000
O O9 0.000000 0.957871 0.750000
O O10 0.000000 0.000000 0.000000
O O11 0.330953 0.856701 0.728979
O O12 0.085178 0.543138 0.089083
O O13 0.102975 0.497220 0.843422
O O14 0.500000 0.874890 0.750000
#
# Coordination Sequence:
#
# PCOD9263195 Si02
#       6
#     8   8   8   8   8   8
#     4   9  19  37  62  82 114 156 203 239 298 367
#     4  10  22  38  60  84 120 156 204 241 298 369
#     4  11  24  40  63  93 127 160 202 263 319 364
#     4   9  19  36  58  85 111 156 201 244 283 367
#     4   9  20  35  57  80 106 155 193 232 285 364
#     4  10  19  34  53  81 115 141 189 239 289 335
#
# _framework density 19.629950000000001
#
# number of rings (size 3 to 8) (size 9 to 14) (size 15 to 20)
#    0.000    2.333    0.000    1.500    4.667    3.333 
#    3.000    0.833    0.000    0.000    0.000    0.000 
#    0.000    0.000    0.000    0.000    0.000    0.000 
#
# Total GULP energy -133676.622997 kJ/mol
# GULP energy per Si atom -5569.859292 kJ/mol
# Density = 1.958527 g / cm^3
# Si number density = 19.629950 Si / 1000 Ang^3
#
#
#
# Elastic Constant Matrix: (Units=GPa)
#
#
# Indices 1 2 3 4 5 6 
#
# 1 83.0325 16.1246 18.5291 0.0000 -12.6170 0.0000
# 2 16.1246 92.3900 13.3482 0.0000 -1.1560 0.0000
# 3 18.5291 13.3482 41.5924 0.0000 3.3667 0.0000
# 4 0.0000 0.0000 0.0000 21.1433 0.0000 0.2437
# 5 -12.6170 -1.1560 3.3667 0.0000 27.9214 0.0000
# 6 0.0000 0.0000 0.0000 0.2437 0.0000 19.4227
#
#
#
# Elastic Compliance Matrix: (Units=1/GPa)
#
#
# Indices 1 2 3 4 5 6 
#
# 1 0.015006 -0.001542 -0.006800 0.000000 0.007537 0.000000
# 2 -0.001542 0.011532 -0.003026 0.000000 0.000145 0.000000
# 3 -0.006800 -0.003026 0.028581 0.000000 -0.006644 0.000000
# 4 0.000000 0.000000 0.000000 0.047303 0.000000 -0.000593
# 5 0.007537 0.000145 -0.006644 0.000000 0.040028 0.000000
# 6 0.000000 0.000000 0.000000 -0.000593 0.000000 0.051494
#
#
# Mechanical properties :
#
#
# Convention : Reuss Voigt Hill
#
# Bulk Modulus (GPa) = 30.88056 34.77985 32.83021
# Shear Modulus (GPa) = 21.98062 24.96499 23.47280
#
# Velocity S-wave (km/s) = 3.34990 3.57007 3.46173
# Velocity P-wave (km/s) = 5.54328 5.89492 5.72180
#
# Compressibility (1/GPa) = 0.03238283
#
# Stress axis : x y z
#
# Youngs Moduli (GPa) = 66.64145 86.71682 34.98817
#
# Poissons Ratio (x) = 0.13373 0.23792
# Poissons Ratio (y) = 0.10277 0.10586
# Poissons Ratio (z) = 0.45317 0.26237
#
# Static dielectric constant tensor:
#      x y z
#    x 1.710980 0.000000 -0.002380 
#    y 0.000000 1.716350 0.000000 
#    z -0.002380 0.000000 1.739020 
# 
# From -- ./inp_files/96470.got.cif
#   From: 2010.05.17/outbox.cif.g08.bks.cpg/sg15_49_cif.got.tgz:96470.got - 2010.06.03 18:47:42.
