data_PCOD9263236
_publ_section_title
;
Structure prediction by ZEFSAII (Michael W. Deem and Ramdas Pophale) SiO2 
 PCOD9263236
Probable space group: C 2/C
;
_chemical_formula_sum "Si O2"
_cell_formula_units_Z 56
_cell_length_a 23.217295
_cell_length_b 25.843139
_cell_length_c 11.899764
_cell_angle_alpha 90.000000
_cell_angle_beta 25.330473
_cell_angle_gamma 90.000000
_cell_volume 3054.746948
_symmetry_space_group_name_H-M "C 2/C"
_symmetry_group_IT_number 15
_symmetry_cell_setting 'monoclinic'
loop_
_space_group_symop_operation_xyz
x,y,z
-x,y,1/2-z
-x,-y,-z
x,-y,1/2+z
1/2+x,1/2+y,z
1/2-x,1/2+y,1/2-z
1/2-x,1/2-y,-z
1/2+x,1/2-y,1/2+z
loop_
_atom_site_type_symbol
_atom_site_label
_atom_site_fract_x
_atom_site_fract_y
_atom_site_fract_z
Si Si1 0.691956 0.109955 0.103855
Si Si2 0.648880 0.258831 0.864657
Si Si3 0.102896 0.643016 0.897467
Si Si4 0.645705 0.289867 0.130108
Si Si5 0.352620 0.933860 0.571505
Si Si6 0.639550 0.837477 0.071498
Si Si7 0.838285 0.450836 0.055649
O O1 0.557220 0.138938 0.297177
O O2 0.648417 0.080995 0.295368
O O3 0.727041 0.070039 0.943616
O O4 0.805012 0.152458 0.928689
O O5 0.656076 0.196950 0.852163
O O6 0.771051 0.286445 0.587159
O O7 0.652125 0.280145 0.985620
O O8 0.505493 0.276005 0.066018
O O9 0.115399 0.645519 0.741270
O O10 0.173209 0.592885 0.827929
O O11 0.750000 0.250000 0.000000
O O12 0.500000 0.935498 0.250000
O O13 0.287576 0.884956 0.622098
O O14 0.293150 0.991149 0.663936
O O15 0.500000 0.827787 0.250000
O O16 0.000000 0.454351 0.750000
#
# Coordination Sequence:
#
# PCOD9263236 Si02
#       7
#     8   8   8   8   8   8   8
#     4  11  19  36  56  83 113 149 182 236 289 332
#     4  11  23  35  56  88 110 156 193 226 285 342
#     4  11  20  35  54  82 119 141 187 235 286 338
#     4  11  21  35  58  81 119 150 190 236 279 338
#     4  10  19  34  54  81 111 147 189 231 285 341
#     4  11  21  38  56  81 115 153 186 230 284 343
#     4   9  22  31  55  87 111 144 186 240 290 332
#
# _framework density 18.332125000000001
#
# number of rings (size 3 to 8) (size 9 to 14) (size 15 to 20)
#    0.000    1.429    5.714    1.286    6.000    1.714 
#    0.000    0.000    0.000    0.857    3.714    0.000 
#    0.000    0.000    0.000    0.000    0.000    0.000 
#
# Total GULP energy -156157.536477 kJ/mol
# GULP energy per Si atom -5577.054874 kJ/mol
# Density = 1.829040 g / cm^3
# Si number density = 18.332125 Si / 1000 Ang^3
#
#
#
# Elastic Constant Matrix: (Units=GPa)
#
#
# Indices 1 2 3 4 5 6 
#
# 1 67.4057 30.6470 15.9023 -0.0015 -1.4874 -0.0005
# 2 30.6470 148.3118 26.3991 -0.0012 -9.4614 -0.0006
# 3 15.9023 26.3991 38.8255 -0.0059 -4.1867 0.0003
# 4 -0.0015 -0.0012 -0.0059 16.8364 0.0018 1.5226
# 5 -1.4874 -9.4614 -4.1867 0.0018 19.0713 -0.0008
# 6 -0.0005 -0.0006 0.0003 1.5226 -0.0008 31.0234
#
#
#
# Elastic Compliance Matrix: (Units=1/GPa)
#
#
# Indices 1 2 3 4 5 6 
#
# 1 0.017304 -0.002692 -0.005383 0.000000 -0.001168 0.000000
# 2 -0.002692 0.008231 -0.004175 -0.000001 0.002957 0.000000
# 3 -0.005383 -0.004175 0.031271 0.000010 0.004374 -0.000001
# 4 0.000000 -0.000001 0.000010 0.059660 -0.000004 -0.002928
# 5 -0.001168 0.002957 0.004374 -0.000004 0.054771 0.000002
# 6 0.000000 0.000000 -0.000001 -0.002928 0.000002 0.032377
#
#
# Mechanical properties :
#
#
# Convention : Reuss Voigt Hill
#
# Bulk Modulus (GPa) = 30.95382 44.49331 37.72356
# Shear Modulus (GPa) = 20.93086 25.49252 23.21169
#
# Velocity S-wave (km/s) = 3.38266 3.73311 3.56220
# Velocity P-wave (km/s) = 5.67258 6.55018 6.12711
#
# Compressibility (1/GPa) = 0.03230619
#
# Stress axis : x y z
#
# Youngs Moduli (GPa) = 57.79131 121.49841 31.97821
#
# Poissons Ratio (x) = 0.32707 0.17213
# Poissons Ratio (y) = 0.15557 0.13350
# Poissons Ratio (z) = 0.31108 0.50724
#
# Static dielectric constant tensor:
#      x y z
#    x 1.653130 0.000000 0.018370 
#    y 0.000000 1.659280 0.000000 
#    z 0.018370 0.000000 1.644090 
# 
# From -- ./inp_files/90916.got.cif
#   From: 2010.05.17/outbox.cif.g08.bks.cpg/sg15_46_cif.got.tgz:90916.got - 2010.06.03 18:47:42.
