data_PCOD9263294
_publ_section_title
;
Structure prediction by ZEFSAII (Michael W. Deem and Ramdas Pophale) SiO2 
 PCOD9263294
Probable space group: C 2/C
;
_chemical_formula_sum "Si O2"
_cell_formula_units_Z 32
_cell_length_a 19.011214
_cell_length_b 7.716031
_cell_length_c 13.686148
_cell_angle_alpha 90.000000
_cell_angle_beta 145.340992
_cell_angle_gamma 90.000000
_cell_volume 1141.725072
_symmetry_space_group_name_H-M "C 2/C"
_symmetry_group_IT_number 15
_symmetry_cell_setting 'monoclinic'
loop_
_space_group_symop_operation_xyz
x,y,z
-x,y,1/2-z
-x,-y,-z
x,-y,1/2+z
1/2+x,1/2+y,z
1/2-x,1/2+y,1/2-z
1/2-x,1/2-y,-z
1/2+x,1/2-y,1/2+z
loop_
_atom_site_type_symbol
_atom_site_label
_atom_site_fract_x
_atom_site_fract_y
_atom_site_fract_z
Si Si1 0.475663 0.555383 0.084334
Si Si2 0.740911 0.915304 0.736350
Si Si3 0.235830 0.060054 0.942195
Si Si4 0.114729 0.621843 0.725662
O O1 0.590870 0.489997 0.278687
O O2 0.492349 0.763366 0.107889
O O3 0.500000 0.500000 0.000000
O O4 0.342809 0.467373 0.936467
O O5 0.730495 0.051377 0.634229
O O6 0.620198 0.945939 0.667000
O O7 0.798665 0.755940 0.739220
O O8 0.250000 0.250000 0.000000
O O9 0.323489 0.929024 0.101220
#
# Coordination Sequence:
#
# PCOD9263294 Si02
#       4
#     8   8   8   8
#     4   8  18  36  55  78 111 148 184 231 282 337
#     4  10  20  37  57  82 114 153 188 231 289 343
#     4  10  19  34  55  80 109 144 188 236 280 337
#     4  10  19  35  59  82 112 151 189 232 287 343
#
# _framework density 28.027763
#
# number of rings (size 3 to 8) (size 9 to 14) (size 15 to 20)
#    0.000    3.000    0.000    4.500    0.000    1.000 
#    0.000   22.500    0.000   21.000    0.000    0.000 
#    0.000    0.000    0.000    0.000    0.000    0.000 
#
# Total GULP energy -89271.392924 kJ/mol
# GULP energy per Si atom -5579.462058 kJ/mol
# Density = 2.796397 g / cm^3
# Si number density = 28.027763 Si / 1000 Ang^3
#
#
#
# Elastic Constant Matrix: (Units=GPa)
#
#
# Indices 1 2 3 4 5 6 
#
# 1 77.9104 -8.5328 -0.3338 0.0000 -18.4241 0.0000
# 2 -8.5328 126.0434 74.3320 0.0000 -10.0442 0.0000
# 3 -0.3338 74.3320 191.6348 0.0000 -29.0769 0.0000
# 4 0.0000 0.0000 0.0000 69.7331 0.0000 -11.2694
# 5 -18.4241 -10.0442 -29.0769 0.0000 45.4222 0.0000
# 6 0.0000 0.0000 0.0000 -11.2694 0.0000 37.6285
#
#
#
# Elastic Compliance Matrix: (Units=1/GPa)
#
#
# Indices 1 2 3 4 5 6 
#
# 1 0.014503 0.001171 0.000557 0.000000 0.006498 0.000000
# 2 0.001171 0.010385 -0.003994 0.000000 0.000215 0.000000
# 3 0.000557 -0.003994 0.007386 0.000000 0.004071 0.000000
# 4 0.000000 0.000000 0.000000 0.015070 0.000000 0.004513
# 5 0.006498 0.000215 0.004071 0.000000 0.027305 0.000000
# 6 0.000000 0.000000 0.000000 0.004513 0.000000 0.027927
#
#
# Mechanical properties :
#
#
# Convention : Reuss Voigt Hill
#
# Bulk Modulus (GPa) = 36.04539 58.50215 47.27377
# Shear Modulus (GPa) = 42.97210 52.56499 47.76854
#
# Velocity S-wave (km/s) = 3.91985 4.33536 4.13283
# Velocity P-wave (km/s) = 5.77716 6.78076 6.29898
#
# Compressibility (1/GPa) = 0.02774280
#
# Stress axis : x y z
#
# Youngs Moduli (GPa) = 68.95338 96.28914 135.39160
#
# Poissons Ratio (x) = -0.11277 -0.07540
# Poissons Ratio (y) = -0.08076 0.54071
# Poissons Ratio (z) = -0.03840 0.38455
#
# Static dielectric constant tensor:
#      x y z
#    x 2.355340 0.000000 0.136310 
#    y 0.000000 2.411270 0.000000 
#    z 0.136310 0.000000 2.235440 
# 
# From -- ./inp_files/140730.got.cif
#   From: 2010.05.17/outbox.cif.g08.bks.cpg/sg15_71_cif.got.tgz:140730.got - 2010.06.03 18:47:42.
