data_PCOD9263620
_publ_section_title
;
Structure prediction by ZEFSAII (Michael W. Deem and Ramdas Pophale) SiO2 
 PCOD9263620
Probable space group: C 2/C
;
_chemical_formula_sum "Si O2"
_cell_formula_units_Z 32
_cell_length_a 19.252778
_cell_length_b 16.337974
_cell_length_c 12.451214
_cell_angle_alpha 90.000000
_cell_angle_beta 158.901582
_cell_angle_gamma 90.000000
_cell_volume 1409.843394
_symmetry_space_group_name_H-M "C 2/C"
_symmetry_group_IT_number 15
_symmetry_cell_setting 'monoclinic'
loop_
_space_group_symop_operation_xyz
x,y,z
-x,y,1/2-z
-x,-y,-z
x,-y,1/2+z
1/2+x,1/2+y,z
1/2-x,1/2+y,1/2-z
1/2-x,1/2-y,-z
1/2+x,1/2-y,1/2+z
loop_
_atom_site_type_symbol
_atom_site_label
_atom_site_fract_x
_atom_site_fract_y
_atom_site_fract_z
Si Si1 0.097990 0.684970 0.232515
Si Si2 0.626458 0.551621 0.824097
Si Si3 0.679933 0.756519 0.623387
Si Si4 0.609223 0.626595 0.218736
O O1 0.250000 0.750000 0.500000
O O2 0.170357 0.597870 0.375839
O O3 0.116976 0.687019 0.131514
O O4 0.884542 0.714748 0.949910
O O5 0.500000 0.563112 0.750000
O O6 0.508126 0.594280 0.555937
O O7 0.662782 0.456160 0.856007
O O8 0.528712 0.682831 0.408096
O O9 0.724248 0.813313 0.585128
#
# Coordination Sequence:
#
# PCOD9263620 Si02
#       4
#     8   8   8   8
#     4  11  17  30  59  85 113 143 185 232 282 326
#     4  11  20  35  55  86 116 146 183 235 289 321
#     4  10  19  34  58  87 106 149 191 228 278 337
#     4  10  22  34  59  82 116 145 188 235 279 334
#
# _framework density 22.697558000000001
#
# number of rings (size 3 to 8) (size 9 to 14) (size 15 to 20)
#    0.000    1.500    7.500    0.750    0.000    0.000 
#    0.000    2.500   11.000    0.000    0.000    0.000 
#    0.000    0.000    0.000    0.000    0.000    0.000 
#
# Total GULP energy -89511.996146 kJ/mol
# GULP energy per Si atom -5594.499759 kJ/mol
# Density = 2.264590 g / cm^3
# Si number density = 22.697558 Si / 1000 Ang^3
#
#
#
# Elastic Constant Matrix: (Units=GPa)
#
#
# Indices 1 2 3 4 5 6 
#
# 1 90.5822 27.4299 21.4765 0.0000 7.2076 0.0000
# 2 27.4299 180.2941 44.0854 0.0000 6.3064 0.0000
# 3 21.4765 44.0854 42.6803 0.0000 13.1224 0.0000
# 4 0.0000 0.0000 0.0000 35.1647 0.0000 -6.9037
# 5 7.2076 6.3064 13.1224 0.0000 26.9667 0.0000
# 6 0.0000 0.0000 0.0000 -6.9037 0.0000 41.3032
#
#
#
# Elastic Compliance Matrix: (Units=1/GPa)
#
#
# Indices 1 2 3 4 5 6 
#
# 1 0.012573 -0.000516 -0.005641 0.000000 -0.000495 0.000000
# 2 -0.000516 0.007570 -0.008300 0.000000 0.002406 0.000000
# 3 -0.005641 -0.008300 0.039725 0.000000 -0.015882 0.000000
# 4 0.000000 0.000000 0.000000 0.029402 0.000000 0.004915
# 5 -0.000495 0.002406 -0.015882 0.000000 0.044381 0.000000
# 6 0.000000 0.000000 0.000000 0.004915 0.000000 0.025033
#
#
# Mechanical properties :
#
#
# Convention : Reuss Voigt Hill
#
# Bulk Modulus (GPa) = 32.30668 55.50447 43.90557
# Shear Modulus (GPa) = 25.26331 35.39125 30.32728
#
# Velocity S-wave (km/s) = 3.33985 3.95302 3.65930
# Velocity P-wave (km/s) = 5.39789 6.73366 6.10243
#
# Compressibility (1/GPa) = 0.03095335
#
# Stress axis : x y z
#
# Youngs Moduli (GPa) = 79.53624 132.09591 25.17333
#
# Poissons Ratio (x) = 0.06817 0.14201
# Poissons Ratio (y) = 0.04105 0.20893
# Poissons Ratio (z) = 0.44870 1.09634
#
# Static dielectric constant tensor:
#      x y z
#    x 1.883310 0.000000 -0.048660 
#    y 0.000000 1.818150 0.000000 
#    z -0.048660 0.000000 1.854530 
# 
# From -- ./inp_files/22256.got.cif
#   From: 2010.05.17/outbox.cif.g08.bks.cpg/sg15_12_cif.got.tgz:22256.got - 2010.06.03 18:47:42.
