data_PCOD9263367
_publ_section_title
;
Structure prediction by ZEFSAII (Michael W. Deem and Ramdas Pophale) SiO2 
 PCOD9263367
Probable space group: C 2/C
;
_chemical_formula_sum "Si O2"
_cell_formula_units_Z 48
_cell_length_a 15.462740
_cell_length_b 17.584603
_cell_length_c 13.981712
_cell_angle_alpha 90.000000
_cell_angle_beta 143.891184
_cell_angle_gamma 90.000000
_cell_volume 2240.428304
_symmetry_space_group_name_H-M "C 2/C"
_symmetry_group_IT_number 15
_symmetry_cell_setting 'monoclinic'
loop_
_space_group_symop_operation_xyz
x,y,z
-x,y,1/2-z
-x,-y,-z
x,-y,1/2+z
1/2+x,1/2+y,z
1/2-x,1/2+y,1/2-z
1/2-x,1/2-y,-z
1/2+x,1/2-y,1/2+z
loop_
_atom_site_type_symbol
_atom_site_label
_atom_site_fract_x
_atom_site_fract_y
_atom_site_fract_z
Si Si1 0.951782 0.223157 0.107753
Si Si2 0.739602 0.373266 0.270054
Si Si3 0.220576 0.000662 0.903635
Si Si4 0.051907 0.580614 0.005200
Si Si5 0.755737 0.707850 0.279796
Si Si6 0.415459 0.441166 0.546807
O O1 0.084548 0.204865 0.152251
O O2 0.000000 0.258372 0.250000
O O3 0.886248 0.140211 0.070886
O O4 0.833284 0.273263 0.949704
O O5 0.746726 0.418056 0.376295
O O6 0.706526 0.283333 0.247921
O O7 0.898992 0.375049 0.360611
O O8 0.631815 0.421594 0.103556
O O9 0.181092 0.001397 0.980050
O O10 0.081008 0.965401 0.720660
O O11 0.356402 0.945271 0.004639
O O12 0.162963 0.629112 0.172158
O O13 0.000000 0.500000 0.000000
#
# Coordination Sequence:
#
# PCOD9263367 Si02
#       6
#     8   8   8   8   8   8
#     4  11  19  31  48  77 113 144 174 220 283 342
#     4  10  22  34  53  85 110 151 189 224 285 337
#     4  10  19  36  55  78 115 145 187 229 274 335
#     4  10  20  36  54  79 114 149 188 230 278 337
#     4  11  20  34  50  78 113 147 181 225 283 338
#     4  10  19  34  56  79 111 149 181 231 282 326
#
# _framework density 21.424475000000001
#
# number of rings (size 3 to 8) (size 9 to 14) (size 15 to 20)
#    0.000    1.667    5.000    1.000    0.000    2.000 
#    0.000    0.000    0.000    0.000    0.000   42.000 
#    0.000    0.000    0.000    0.000    0.000    0.000 
#
# Total GULP energy -133689.299131 kJ/mol
# GULP energy per Si atom -5570.387464 kJ/mol
# Density = 2.137571 g / cm^3
# Si number density = 21.424475 Si / 1000 Ang^3
#
#
#
# Elastic Constant Matrix: (Units=GPa)
#
#
# Indices 1 2 3 4 5 6 
#
# 1 37.7743 22.6233 5.9966 0.0000 7.1916 0.0000
# 2 22.6233 114.9156 0.4174 0.0000 -5.6037 0.0000
# 3 5.9966 0.4174 36.3542 0.0000 12.8134 0.0000
# 4 0.0000 0.0000 0.0000 26.4653 0.0000 4.0525
# 5 7.1916 -5.6037 12.8134 0.0000 28.5731 0.0000
# 6 0.0000 0.0000 0.0000 4.0525 0.0000 22.7871
#
#
#
# Elastic Compliance Matrix: (Units=1/GPa)
#
#
# Indices 1 2 3 4 5 6 
#
# 1 0.032534 -0.006811 -0.002294 0.000000 -0.008496 0.000000
# 2 -0.006811 0.010234 -0.000363 0.000000 0.003884 0.000000
# 3 -0.002294 -0.000363 0.032914 0.000000 -0.014254 0.000000
# 4 0.000000 0.000000 0.000000 0.038843 0.000000 -0.006908
# 5 -0.008496 0.003884 -0.014254 0.000000 0.044290 0.000000
# 6 0.000000 0.000000 0.000000 -0.006908 0.000000 0.045113
#
#
# Mechanical properties :
#
#
# Convention : Reuss Voigt Hill
#
# Bulk Modulus (GPa) = 17.62256 27.45763 22.54010
# Shear Modulus (GPa) = 20.68018 26.23222 23.45620
#
# Velocity S-wave (km/s) = 3.11023 3.50295 3.31241
# Velocity P-wave (km/s) = 4.59797 5.40413 5.01727
#
# Compressibility (1/GPa) = 0.05674543
#
# Stress axis : x y z
#
# Youngs Moduli (GPa) = 30.73743 97.71736 30.38258
#
# Poissons Ratio (x) = 0.66553 0.06969
# Poissons Ratio (y) = 0.20935 0.01103
# Poissons Ratio (z) = 0.07051 0.03547
#
# Static dielectric constant tensor:
#      x y z
#    x 1.848130 0.000000 0.027530 
#    y 0.000000 1.882810 0.000000 
#    z 0.027530 0.000000 1.813310 
# 
# From -- ./inp_files/155077.got.cif
#   From: 2010.05.17/outbox.cif.g08.bks.cpg/sg15_78_cif.got.tgz:155077.got - 2010.06.03 18:47:42.
