data_PCOD9263152
_publ_section_title
;
Structure prediction by ZEFSAII (Michael W. Deem and Ramdas Pophale) SiO2 
 PCOD9263152
Probable space group: C 2/C
;
_chemical_formula_sum "Si O2"
_cell_formula_units_Z 48
_cell_length_a 19.587889
_cell_length_b 9.749557
_cell_length_c 30.329472
_cell_angle_alpha 90.000000
_cell_angle_beta 29.770323
_cell_angle_gamma 90.000000
_cell_volume 2875.927836
_symmetry_space_group_name_H-M "C 2/C"
_symmetry_group_IT_number 15
_symmetry_cell_setting 'monoclinic'
loop_
_space_group_symop_operation_xyz
x,y,z
-x,y,1/2-z
-x,-y,-z
x,-y,1/2+z
1/2+x,1/2+y,z
1/2-x,1/2+y,1/2-z
1/2-x,1/2-y,-z
1/2+x,1/2-y,1/2+z
loop_
_atom_site_type_symbol
_atom_site_label
_atom_site_fract_x
_atom_site_fract_y
_atom_site_fract_z
Si Si1 0.389968 0.513459 0.775424
Si Si2 0.909948 0.608394 0.577457
Si Si3 0.176306 0.335452 0.279061
Si Si4 0.418035 0.529108 0.160013
Si Si5 0.929355 0.108431 0.508050
Si Si6 0.630867 0.811527 0.205212
O O1 0.500000 0.561300 0.750000
O O2 0.247401 0.597497 0.851724
O O3 0.452917 0.506396 0.690847
O O4 0.354175 0.354298 0.805895
O O5 0.896143 0.591464 0.638479
O O6 0.000000 0.500000 0.500000
O O7 0.987536 0.751804 0.529554
O O8 0.326341 0.404086 0.193326
O O9 0.171532 0.171065 0.290028
O O10 0.111326 0.351876 0.267295
O O11 0.543199 0.562492 0.057607
O O12 0.770828 0.125982 0.608376
O O13 0.000000 0.000000 0.500000
O O14 0.500000 0.851560 0.250000
#
# Coordination Sequence:
#
# PCOD9263152 Si02
#       6
#     8   8   8   8   8   8
#     4   9  18  35  55  77 106 136 170 220 269 299
#     4  10  19  34  54  79  99 135 184 213 246 312
#     4   9  18  32  52  76 101 136 172 211 261 303
#     4   9  18  32  54  77 100 138 175 212 255 312
#     4  11  20  33  55  79 104 137 179 212 253 315
#     4  10  19  34  52  79 110 137 167 217 269 306
#
# _framework density 16.690265
#
# number of rings (size 3 to 8) (size 9 to 14) (size 15 to 20)
#    0.000    2.333    3.333    0.000    0.000    0.000 
#    3.000    4.167    0.000    1.000    0.000    0.000 
#    0.000    0.000    0.000    0.000    0.000    0.000 
#
# Total GULP energy -133629.384341 kJ/mol
# GULP energy per Si atom -5567.891014 kJ/mol
# Density = 1.665228 g / cm^3
# Si number density = 16.690265 Si / 1000 Ang^3
#
#
#
# Elastic Constant Matrix: (Units=GPa)
#
#
# Indices 1 2 3 4 5 6 
#
# 1 131.8756 33.1270 64.1208 0.0004 -10.8771 -0.0006
# 2 33.1270 29.8531 37.0640 0.0002 3.6695 0.0002
# 3 64.1208 37.0640 114.9540 0.0000 -4.7307 0.0001
# 4 0.0004 0.0002 0.0000 17.8336 0.0000 1.9287
# 5 -10.8771 3.6695 -4.7307 0.0000 19.9624 0.0001
# 6 -0.0006 0.0002 0.0001 1.9287 0.0001 21.1293
#
#
#
# Elastic Compliance Matrix: (Units=1/GPa)
#
#
# Indices 1 2 3 4 5 6 
#
# 1 0.012538 -0.011083 -0.003086 0.000000 0.008138 0.000000
# 2 -0.011083 0.070265 -0.017423 0.000000 -0.023084 -0.000001
# 3 -0.003086 -0.017423 0.016259 0.000000 0.005375 0.000000
# 4 0.000000 0.000000 0.000000 0.056633 0.000000 -0.005169
# 5 0.008138 -0.023084 0.005375 0.000000 0.060045 0.000000
# 6 0.000000 -0.000001 0.000000 -0.005169 0.000000 0.047800
#
#
# Mechanical properties :
#
#
# Convention : Reuss Voigt Hill
#
# Bulk Modulus (GPa) = 27.87140 60.58960 44.23050
# Shear Modulus (GPa) = 14.76309 21.27646 18.01977
#
# Velocity S-wave (km/s) = 2.97734 3.57428 3.28938
# Velocity P-wave (km/s) = 5.34367 7.30857 6.40195
#
# Compressibility (1/GPa) = 0.03587907
#
# Stress axis : x y z
#
# Youngs Moduli (GPa) = 79.75497 14.23192 61.50427
#
# Poissons Ratio (x) = 0.15773 0.18978
# Poissons Ratio (y) = 0.88392 1.07159
# Poissons Ratio (z) = 0.24609 0.24796
#
# Static dielectric constant tensor:
#      x y z
#    x 1.561760 0.000000 0.036670 
#    y 0.000000 1.498560 0.000000 
#    z 0.036670 0.000000 1.580190 
# 
# From -- ./inp_files/180730.got.cif
#   From: 2010.05.17/outbox.cif.g08.bks.cpg/sg15_91_cif.got.tgz:180730.got - 2010.06.03 18:47:42.
