data_PCOD9263863
_publ_section_title
;
Structure prediction by ZEFSAII (Michael W. Deem and Ramdas Pophale) SiO2 
 PCOD9263863
Probable space group: C 2/C
;
_chemical_formula_sum "Si O2"
_cell_formula_units_Z 52
_cell_length_a 5.874343
_cell_length_b 13.723350
_cell_length_c 24.317781
_cell_angle_alpha 90.000000
_cell_angle_beta 98.728423
_cell_angle_gamma 90.000000
_cell_volume 1937.690231
_symmetry_space_group_name_H-M "C 2/C"
_symmetry_group_IT_number 15
_symmetry_cell_setting 'monoclinic'
loop_
_space_group_symop_operation_xyz
x,y,z
-x,y,1/2-z
-x,-y,-z
x,-y,1/2+z
1/2+x,1/2+y,z
1/2-x,1/2+y,1/2-z
1/2-x,1/2-y,-z
1/2+x,1/2-y,1/2+z
loop_
_atom_site_type_symbol
_atom_site_label
_atom_site_fract_x
_atom_site_fract_y
_atom_site_fract_z
Si Si1 0.634071 0.782666 0.698386
Si Si2 0.005209 0.104847 0.031508
Si Si3 0.803880 0.186320 0.616678
Si Si4 0.479753 0.896092 0.189151
Si Si5 0.106620 0.006758 0.634421
Si Si6 0.000000 0.940206 0.750000
Si Si7 0.982912 0.380715 0.493425
O O1 0.500000 0.766082 0.750000
O O2 0.453734 0.779853 0.640725
O O3 0.805535 0.693725 0.691310
O O4 0.793728 0.873854 0.718755
O O5 0.024972 0.084456 0.097258
O O6 0.255844 0.146068 0.021987
O O7 0.749398 0.148157 0.013888
O O8 0.000000 0.000000 0.000000
O O9 0.703372 0.148814 0.670906
O O10 0.594532 0.172025 0.566517
O O11 0.980903 0.101442 0.605155
O O12 0.500000 0.940792 0.250000
O O13 0.377707 0.972898 0.142109
O O14 0.064456 0.998483 0.697696
O O15 0.000000 0.500000 0.500000
#
# Coordination Sequence:
#
# PCOD9263863 Si02
#       7
#     8   8   8   8   8   4   8
#     4  11  23  43  59  87 130 184 231 264 343 427
#     4  10  19  38  58  98 137 173 218 286 355 413
#     4  11  21  36  66  97 125 175 226 289 334 411
#     4  11  20  37  62  91 126 165 228 282 330 416
#     4  11  24  36  64  98 135 171 224 286 354 408
#     4  12  26  44  60  98 142 184 220 282 358 428
#     4  10  19  34  61  96 134 165 225 284 353 397
#
# _framework density 26.836072999999999
#
# number of rings (size 3 to 8) (size 9 to 14) (size 15 to 20)
#    0.000    1.231    5.385    2.769    4.308    1.846 
#    0.000    0.000    0.000    1.846    0.000    0.000 
#    0.000    0.000    0.000    0.000    0.000    0.000 
#
# Total GULP energy -145200.723906 kJ/mol
# GULP energy per Si atom -5584.643227 kJ/mol
# Density = 2.677499 g / cm^3
# Si number density = 26.836073 Si / 1000 Ang^3
#
#
#
# Elastic Constant Matrix: (Units=GPa)
#
#
# Indices 1 2 3 4 5 6 
#
# 1 161.0687 25.6569 46.5134 0.0000 31.4872 0.0000
# 2 25.6569 77.6146 6.1204 0.0000 19.7853 0.0000
# 3 46.5134 6.1204 116.6657 0.0000 28.8269 0.0000
# 4 0.0000 0.0000 0.0000 30.1955 0.0000 12.8861
# 5 31.4872 19.7853 28.8269 0.0000 60.4107 0.0000
# 6 0.0000 0.0000 0.0000 12.8861 0.0000 28.1355
#
#
#
# Elastic Compliance Matrix: (Units=1/GPa)
#
#
# Indices 1 2 3 4 5 6 
#
# 1 0.007619 -0.001755 -0.002388 0.000000 -0.002257 0.000000
# 2 -0.001755 0.014483 0.001004 0.000000 -0.004308 0.000000
# 3 -0.002388 0.001004 0.010480 0.000000 -0.004085 0.000000
# 4 0.000000 0.000000 0.000000 0.041163 0.000000 -0.018853
# 5 -0.002257 -0.004308 -0.004085 0.000000 0.021090 0.000000
# 6 0.000000 0.000000 0.000000 -0.018853 0.000000 0.044177
#
#
# Mechanical properties :
#
#
# Convention : Reuss Voigt Hill
#
# Bulk Modulus (GPa) = 38.01486 56.88118 47.44802
# Shear Modulus (GPa) = 32.45538 42.21890 37.33714
#
# Velocity S-wave (km/s) = 3.48141 3.97068 3.73407
# Velocity P-wave (km/s) = 5.50968 6.50104 6.02578
#
# Compressibility (1/GPa) = 0.02630550
#
# Stress axis : x y z
#
# Youngs Moduli (GPa) = 131.25373 69.04515 95.41743
#
# Poissons Ratio (x) = 0.12117 0.22784
# Poissons Ratio (y) = 0.23034 -0.09583
# Poissons Ratio (z) = 0.31341 -0.06934
#
# Static dielectric constant tensor:
#      x y z
#    x 2.120640 0.000000 0.051980 
#    y 0.000000 2.117080 0.000000 
#    z 0.051980 0.000000 2.129940 
# 
# From -- ./inp_files/285903.got.cif
#   From: 2010.05.17/outbox.cif.g08.bks.cpg/sg15_143_cif.got.tgz:285903.got - 2010.06.03 18:47:42.
