data_PCOD9263490
_publ_section_title
;
Structure prediction by ZEFSAII (Michael W. Deem and Ramdas Pophale) SiO2 
 PCOD9263490
Probable space group: C 2/C
;
_chemical_formula_sum "Si O2"
_cell_formula_units_Z 48
_cell_length_a 16.788571
_cell_length_b 9.953731
_cell_length_c 25.197477
_cell_angle_alpha 90.000000
_cell_angle_beta 147.209129
_cell_angle_gamma 90.000000
_cell_volume 2280.419342
_symmetry_space_group_name_H-M "C 2/C"
_symmetry_group_IT_number 15
_symmetry_cell_setting 'monoclinic'
loop_
_space_group_symop_operation_xyz
x,y,z
-x,y,1/2-z
-x,-y,-z
x,-y,1/2+z
1/2+x,1/2+y,z
1/2-x,1/2+y,1/2-z
1/2-x,1/2-y,-z
1/2+x,1/2-y,1/2+z
loop_
_atom_site_type_symbol
_atom_site_label
_atom_site_fract_x
_atom_site_fract_y
_atom_site_fract_z
Si Si1 0.576263 0.132446 0.106599
Si Si2 0.714350 0.148233 0.824059
Si Si3 0.726948 0.087417 0.617140
Si Si4 0.005412 0.751010 0.887414
Si Si5 0.762286 0.352698 0.693707
Si Si6 0.302792 0.351448 0.594567
O O1 0.647102 0.263714 0.118394
O O2 0.621796 0.135212 0.193276
O O3 0.655428 0.002293 0.124457
O O4 0.406644 0.128175 0.996372
O O5 0.594907 0.173404 0.711042
O O6 0.668363 0.219712 0.853150
O O7 0.743270 0.990421 0.842145
O O8 0.797148 0.221340 0.679115
O O9 0.828638 0.982913 0.643442
O O10 0.102447 0.850590 0.905475
O O11 0.896129 0.822484 0.867191
O O12 0.128775 0.659051 0.983818
#
# Coordination Sequence:
#
# PCOD9263490 Si02
#       6
#     8   8   8   8   8   8
#     4   9  18  33  53  80 112 147 188 228 271 328
#     4  10  20  34  56  84 111 144 186 232 276 329
#     4  10  19  34  57  84 113 147 187 232 278 329
#     4  10  21  37  59  82 110 150 191 225 271 341
#     4  11  20  33  58  87 112 141 190 239 276 320
#     4  10  21  38  59  81 112 151 186 224 280 339
#
# _framework density 21.048760000000001
#
# number of rings (size 3 to 8) (size 9 to 14) (size 15 to 20)
#    0.000    2.000    0.000    6.500    0.000    2.667 
#    0.000    0.000    0.000   33.000    0.000   11.667 
#    0.000    0.000    0.000    0.000    0.000    0.000 
#
# Total GULP energy -134132.650143 kJ/mol
# GULP energy per Si atom -5588.860423 kJ/mol
# Density = 2.100085 g / cm^3
# Si number density = 21.048760 Si / 1000 Ang^3
#
#
#
# Elastic Constant Matrix: (Units=GPa)
#
#
# Indices 1 2 3 4 5 6 
#
# 1 54.4750 32.2960 15.5393 0.0000 -8.2774 0.0000
# 2 32.2960 143.4678 31.8707 0.0000 -17.6356 0.0000
# 3 15.5393 31.8707 100.2296 0.0001 -6.2040 0.0000
# 4 0.0000 0.0000 0.0001 19.6736 0.0000 -14.9920
# 5 -8.2774 -17.6356 -6.2040 0.0000 16.2042 0.0000
# 6 0.0000 0.0000 0.0000 -14.9920 0.0000 7.5131
#
#
#
# Elastic Compliance Matrix: (Units=1/GPa)
#
#
# Indices 1 2 3 4 5 6 
#
# 1 0.022099 -0.003772 -0.001825 0.000000 0.006485 0.000000
# 2 -0.003772 0.009131 -0.001867 0.000000 0.007296 0.000000
# 3 -0.001825 -0.001867 0.010929 0.000000 0.001220 0.000000
# 4 0.000000 0.000000 0.000000 -0.097633 0.000000 -0.194823
# 5 0.006485 0.007296 0.001220 0.000000 0.073432 0.000001
# 6 0.000000 0.000000 0.000000 -0.194823 0.000001 -0.255660
#
#
# Mechanical properties :
#
#
# Convention : Reuss Voigt Hill
#
# Bulk Modulus (GPa) = 36.72353 50.84270 43.78312
# Shear Modulus (GPa) = -23.39781 23.24259 -0.07761
#
# Velocity S-wave (km/s) = -3.33768 3.32659 -0.19222
# Velocity P-wave (km/s) = 1.62211 6.24197 4.56034
#
# Compressibility (1/GPa) = 0.02723050
#
# Stress axis : x y z
#
# Youngs Moduli (GPa) = 45.25000 109.51787 91.49735
#
# Poissons Ratio (x) = 0.41312 0.16702
# Poissons Ratio (y) = 0.17069 0.17083
# Poissons Ratio (z) = 0.08260 0.20447
#
# Static dielectric constant tensor:
#      x y z
#    x 1.770760 0.000000 0.012930 
#    y 0.000000 1.749340 0.000000 
#    z 0.012930 0.000000 1.793640 
# 
# From -- ./inp_files/317306.got.cif
#   From: 2010.05.17/outbox.cif.g08.bks.cpg/sg15_159_cif.got.tgz:317306.got - 2010.06.03 18:47:42.
