data_PCOD9263004
_publ_section_title
;
Structure prediction by ZEFSAII (Michael W. Deem and Ramdas Pophale) SiO2 
 PCOD9263004
Probable space group: C 2/C
;
_chemical_formula_sum "Si O2"
_cell_formula_units_Z 64
_cell_length_a 11.346856
_cell_length_b 16.388631
_cell_length_c 28.874114
_cell_angle_alpha 90.000000
_cell_angle_beta 147.266722
_cell_angle_gamma 90.000000
_cell_volume 2903.397772
_symmetry_space_group_name_H-M "C 2/C"
_symmetry_group_IT_number 15
_symmetry_cell_setting 'monoclinic'
loop_
_space_group_symop_operation_xyz
x,y,z
-x,y,1/2-z
-x,-y,-z
x,-y,1/2+z
1/2+x,1/2+y,z
1/2-x,1/2+y,1/2-z
1/2-x,1/2-y,-z
1/2+x,1/2-y,1/2+z
loop_
_atom_site_type_symbol
_atom_site_label
_atom_site_fract_x
_atom_site_fract_y
_atom_site_fract_z
Si Si1 0.624993 0.980973 0.676706
Si Si2 0.764850 0.411016 0.692323
Si Si3 0.033392 0.338492 0.580517
Si Si4 0.815430 0.718161 0.618750
Si Si5 0.702231 0.462493 0.094032
Si Si6 0.155845 0.230602 0.898946
Si Si7 0.974372 0.773553 0.931227
Si Si8 0.260545 0.161847 0.787387
O O1 0.726155 0.924626 0.750250
O O2 0.584708 0.926826 0.618249
O O3 0.403019 0.012354 0.627547
O O4 0.753352 0.064812 0.712711
O O5 0.728326 0.494661 0.652246
O O6 0.569666 0.350593 0.615598
O O7 0.000000 0.380101 0.750000
O O8 0.238882 0.293994 0.624183
O O9 0.957714 0.281179 0.597963
O O10 0.825864 0.334574 0.477082
O O11 0.705016 0.634612 0.600549
O O12 0.707833 0.733387 0.532479
O O13 0.066782 0.694717 0.694412
O O14 0.500000 0.500000 0.000000
O O15 0.313501 0.289121 0.921809
O O16 0.971106 0.196152 0.804347
O O17 0.867707 0.697351 0.869601
#
# Coordination Sequence:
#
# PCOD9263004 Si02
#       8
#     8   8   8   8   8   8   8   8
#     4  10  23  37  56  92 125 170 213 260 318 380
#     4  10  19  33  59  88 117 150 205 257 310 364
#     4  10  22  41  65  92 129 165 216 260 320 403
#     4  10  23  38  62  96 127 165 201 264 336 375
#     4  10  19  34  59  91 125 154 204 272 323 372
#     4  10  22  38  68  92 116 169 213 259 318 382
#     4  11  20  40  66  89 120 166 211 258 312 395
#     4  11  23  40  62  92 130 164 216 266 319 377
#
# _framework density 22.043137999999999
#
# number of rings (size 3 to 8) (size 9 to 14) (size 15 to 20)
#    0.000    1.750    1.250    3.750    5.250    0.500 
#    0.000    2.500   11.000    0.000    0.000    0.000 
#    0.000    0.000    0.000    0.000    0.000    0.000 
#
# Total GULP energy -178827.248386 kJ/mol
# GULP energy per Si atom -5588.351512 kJ/mol
# Density = 2.199297 g / cm^3
# Si number density = 22.043138 Si / 1000 Ang^3
#
#
#
# Elastic Constant Matrix: (Units=GPa)
#
#
# Indices 1 2 3 4 5 6 
#
# 1 32.4968 8.6994 4.6998 0.0000 5.8516 0.0000
# 2 8.6994 84.4934 26.8005 0.0000 0.3180 0.0000
# 3 4.6998 26.8005 100.4680 0.0001 2.3964 0.0000
# 4 0.0000 0.0000 0.0001 35.8737 0.0001 -9.2714
# 5 5.8516 0.3180 2.3964 0.0001 27.8791 0.0000
# 6 0.0000 0.0000 0.0000 -9.2714 0.0000 27.4214
#
#
#
# Elastic Compliance Matrix: (Units=1/GPa)
#
#
# Indices 1 2 3 4 5 6 
#
# 1 0.032934 -0.003199 -0.000524 0.000000 -0.006831 0.000000
# 2 -0.003199 0.013241 -0.003402 0.000000 0.000813 0.000000
# 3 -0.000524 -0.003402 0.010904 0.000000 -0.000788 0.000000
# 4 0.000000 0.000000 0.000000 0.030545 0.000000 0.010327
# 5 -0.006831 0.000813 -0.000788 0.000000 0.037361 0.000000
# 6 0.000000 0.000000 0.000000 0.010327 0.000000 0.039960
#
#
# Mechanical properties :
#
#
# Convention : Reuss Voigt Hill
#
# Bulk Modulus (GPa) = 23.34857 33.09528 28.22193
# Shear Modulus (GPa) = 25.84363 30.05209 27.94786
#
# Velocity S-wave (km/s) = 3.42776 3.69634 3.56458
# Velocity P-wave (km/s) = 5.12653 5.76747 5.45642
#
# Compressibility (1/GPa) = 0.04282918
#
# Stress axis : x y z
#
# Youngs Moduli (GPa) = 30.36334 75.52568 91.70782
#
# Poissons Ratio (x) = 0.24160 0.04809
# Poissons Ratio (y) = 0.09713 0.31197
# Poissons Ratio (z) = 0.01592 0.25692
#
# Static dielectric constant tensor:
#      x y z
#    x 1.862470 0.000000 0.015700 
#    y 0.000000 1.857570 0.000000 
#    z 0.015700 0.000000 1.845410 
# 
# From -- ./inp_files/311676.got.cif
#   From: 2010.05.17/outbox.cif.g08.bks.cpg/sg15_156_cif.got.tgz:311676.got - 2010.06.03 18:47:42.
