data_PCOD9263465
_publ_section_title
;
Structure prediction by ZEFSAII (Michael W. Deem and Ramdas Pophale) SiO2 
 PCOD9263465
Probable space group: C 2/C
;
_chemical_formula_sum "Si O2"
_cell_formula_units_Z 48
_cell_length_a 31.135756
_cell_length_b 15.030170
_cell_length_c 12.513945
_cell_angle_alpha 90.000000
_cell_angle_beta 152.295110
_cell_angle_gamma 90.000000
_cell_volume 2722.660845
_symmetry_space_group_name_H-M "C 2/C"
_symmetry_group_IT_number 15
_symmetry_cell_setting 'monoclinic'
loop_
_space_group_symop_operation_xyz
x,y,z
-x,y,1/2-z
-x,-y,-z
x,-y,1/2+z
1/2+x,1/2+y,z
1/2-x,1/2+y,1/2-z
1/2-x,1/2-y,-z
1/2+x,1/2-y,1/2+z
loop_
_atom_site_type_symbol
_atom_site_label
_atom_site_fract_x
_atom_site_fract_y
_atom_site_fract_z
Si Si1 0.878736 0.683155 0.652833
Si Si2 0.327633 0.333046 0.836050
Si Si3 0.000000 0.423549 0.250000
Si Si4 0.448175 0.059284 0.973698
Si Si5 0.429373 0.466414 0.193781
Si Si6 0.075663 0.127765 0.163344
Si Si7 0.500000 0.200871 0.250000
O O1 0.775328 0.703524 0.386672
O O2 0.873569 0.615003 0.742289
O O3 0.927844 0.773553 0.797642
O O4 0.939569 0.635498 0.696617
O O5 0.348215 0.369150 0.762417
O O6 0.344641 0.412605 0.956935
O O7 0.409265 0.261770 0.037919
O O8 0.068481 0.488472 0.468432
O O9 0.506548 0.136622 0.161560
O O10 0.500000 0.000000 0.000000
O O11 0.500000 0.482106 0.250000
O O12 0.405496 0.556496 0.202602
O O13 0.483387 0.404232 0.398142
#
# Coordination Sequence:
#
# PCOD9263465 Si02
#       7
#     8   8   4   8   8   8   4
#     4  11  21  35  58  83 109 140 191 226 272 332
#     4  11  20  35  56  86 107 144 185 229 268 327
#     4   9  22  38  55  80 110 148 175 232 284 319
#     4   9  19  37  57  77 106 146 182 226 275 321
#     4   9  19  36  55  80 113 148 176 220 280 323
#     4  10  19  34  57  81 108 144 183 220 270 328
#     4  11  18  36  59  76 112 142 187 224 268 329
#
# _framework density 17.629812000000001
#
# number of rings (size 3 to 8) (size 9 to 14) (size 15 to 20)
#    0.000    2.000    4.167    0.500    1.167    1.333 
#    6.000    0.000    0.000    9.000    0.000    0.000 
#    0.000    0.000    0.000    0.000    0.000    0.000 
#
# Total GULP energy -133633.339735 kJ/mol
# GULP energy per Si atom -5568.055822 kJ/mol
# Density = 1.758969 g / cm^3
# Si number density = 17.629812 Si / 1000 Ang^3
#
#
#
# Elastic Constant Matrix: (Units=GPa)
#
#
# Indices 1 2 3 4 5 6 
#
# 1 65.0906 53.6160 41.7765 0.0000 -21.5052 0.0000
# 2 53.6160 129.3075 49.6969 0.0000 -15.1825 0.0000
# 3 41.7765 49.6969 73.0459 0.0000 -4.4293 0.0000
# 4 0.0000 0.0000 0.0000 17.7191 0.0000 -21.4769
# 5 -21.5052 -15.1825 -4.4293 0.0000 24.8060 0.0000
# 6 0.0000 0.0000 0.0000 -21.4769 0.0000 35.8085
#
#
#
# Elastic Compliance Matrix: (Units=1/GPa)
#
#
# Indices 1 2 3 4 5 6 
#
# 1 0.042116 -0.007431 -0.017280 0.000000 0.028878 0.000000
# 2 -0.007431 0.012489 -0.004220 0.000000 0.000448 0.000000
# 3 -0.017280 -0.004220 0.025657 0.000000 -0.012983 0.000000
# 4 0.000000 0.000000 0.000000 0.206699 0.000000 0.123972
# 5 0.028878 0.000448 -0.012983 0.000000 0.063305 0.000000
# 6 0.000000 0.000000 0.000000 0.123972 0.000000 0.102281
#
#
# Mechanical properties :
#
#
# Convention : Reuss Voigt Hill
#
# Bulk Modulus (GPa) = 44.64346 61.95809 53.30078
# Shear Modulus (GPa) = 9.65481 23.82371 16.73926
#
# Velocity S-wave (km/s) = 2.34271 3.68003 3.08472
# Velocity P-wave (km/s) = 5.71799 7.29912 6.55639
#
# Compressibility (1/GPa) = 0.02239970
#
# Stress axis : x y z
#
# Youngs Moduli (GPa) = 23.74377 80.06958 38.97589
#
# Poissons Ratio (x) = 0.59499 0.67352
# Poissons Ratio (y) = 0.17644 0.16447
# Poissons Ratio (z) = 0.41030 0.33789
#
# Static dielectric constant tensor:
#      x y z
#    x 1.590640 0.000000 -0.041210 
#    y 0.000000 1.615000 0.000000 
#    z -0.041210 0.000000 1.610250 
# 
# From -- ./inp_files/96359.got.cif
#   From: 2010.05.17/outbox.cif.g08.bks.cpg/sg15_49_cif.got.tgz:96359.got - 2010.06.03 18:47:42.
