data_PCOD9263056
_publ_section_title
;
Structure prediction by ZEFSAII (Michael W. Deem and Ramdas Pophale) SiO2 
 PCOD9263056
Probable space group: C 2/C
;
_chemical_formula_sum "Si O2"
_cell_formula_units_Z 60
_cell_length_a 7.804769
_cell_length_b 22.395813
_cell_length_c 17.746053
_cell_angle_alpha 90.000000
_cell_angle_beta 125.040472
_cell_angle_gamma 90.000000
_cell_volume 2539.675410
_symmetry_space_group_name_H-M "C 2/C"
_symmetry_group_IT_number 15
_symmetry_cell_setting 'monoclinic'
loop_
_space_group_symop_operation_xyz
x,y,z
-x,y,1/2-z
-x,-y,-z
x,-y,1/2+z
1/2+x,1/2+y,z
1/2-x,1/2+y,1/2-z
1/2-x,1/2-y,-z
1/2+x,1/2-y,1/2+z
loop_
_atom_site_type_symbol
_atom_site_label
_atom_site_fract_x
_atom_site_fract_y
_atom_site_fract_z
Si Si1 0.000000 0.098407 0.750000
Si Si2 0.629278 0.597169 0.558778
Si Si3 0.969719 0.107446 0.356789
Si Si4 0.798069 0.827557 0.060192
Si Si5 0.264083 0.770477 0.665009
Si Si6 0.256753 0.988067 0.212463
Si Si7 0.876572 0.700826 0.616198
Si Si8 0.832264 0.317612 0.925531
O O1 0.113375 0.138330 0.842546
O O2 0.180039 0.056685 0.758792
O O3 0.592022 0.584221 0.462351
O O4 0.454440 0.645795 0.538420
O O5 0.632802 0.538613 0.609219
O O6 0.838561 0.634360 0.634514
O O7 0.830337 0.164113 0.347048
O O8 0.155997 0.136497 0.354771
O O9 0.830386 0.053830 0.291893
O O10 0.770154 0.759563 0.083629
O O11 0.563257 0.842207 0.973667
O O12 0.500000 0.770755 0.750000
O O13 0.108456 0.727119 0.672746
O O14 0.500000 0.990410 0.250000
O O15 0.813821 0.692158 0.511909
O O16 0.731179 0.751367 0.617948
#
# Coordination Sequence:
#
# PCOD9263056 Si02
#       8
#     4   8   8   8   8   8   8   8
#     4  10  24  42  58  90 116 152 208 250 294 366
#     4  10  21  36  60  91 119 149 205 252 291 361
#     4  10  21  40  58  87 120 158 203 242 299 361
#     4  10  19  35  60  92 115 152 191 249 314 342
#     4  10  19  33  61  84 122 161 190 243 301 363
#     4  11  25  42  64  84 120 167 201 252 303 352
#     4   8  16  30  52  84 113 145 186 236 293 341
#     4   8  16  31  56  80 112 151 181 238 294 347
#
# _framework density 23.625067000000001
#
# number of rings (size 3 to 8) (size 9 to 14) (size 15 to 20)
#    0.000    2.400    0.667    3.200    5.600    2.133 
#    2.400    1.333    5.867    0.000    0.000    0.000 
#    0.000    0.000    0.000    0.000    0.000    0.000 
#
# Total GULP energy -167468.285682 kJ/mol
# GULP energy per Si atom -5582.276189 kJ/mol
# Density = 2.357130 g / cm^3
# Si number density = 23.625067 Si / 1000 Ang^3
#
#
#
# Elastic Constant Matrix: (Units=GPa)
#
#
# Indices 1 2 3 4 5 6 
#
# 1 75.2583 30.3826 22.4648 0.0000 32.7063 0.0000
# 2 30.3826 126.6220 13.4635 0.0000 19.3879 0.0000
# 3 22.4648 13.4635 65.4148 0.0000 20.2794 0.0000
# 4 0.0000 0.0000 0.0000 14.3058 0.0000 9.5293
# 5 32.7063 19.3879 20.2794 0.0000 39.3141 0.0000
# 6 0.0000 0.0000 0.0000 9.5293 0.0000 27.8251
#
#
#
# Elastic Compliance Matrix: (Units=1/GPa)
#
#
# Indices 1 2 3 4 5 6 
#
# 1 0.021822 -0.002596 -0.002058 0.000000 -0.015812 0.000000
# 2 -0.002596 0.008867 -0.000294 0.000000 -0.002061 0.000000
# 3 -0.002058 -0.000294 0.018425 0.000000 -0.007647 0.000000
# 4 0.000000 0.000000 0.000000 0.090561 0.000000 -0.031014
# 5 -0.015812 -0.002061 -0.007647 0.000000 0.043552 0.000000
# 6 0.000000 0.000000 0.000000 -0.031014 0.000000 0.046560
#
#
# Mechanical properties :
#
#
# Convention : Reuss Voigt Hill
#
# Bulk Modulus (GPa) = 25.49882 44.43522 34.96702
# Shear Modulus (GPa) = 19.78191 29.68793 24.73492
#
# Velocity S-wave (km/s) = 2.89680 3.54874 3.23921
# Velocity P-wave (km/s) = 4.69096 5.96999 5.36870
#
# Compressibility (1/GPa) = 0.03921749
#
# Stress axis : x y z
#
# Youngs Moduli (GPa) = 45.82598 112.77274 54.27394
#
# Poissons Ratio (x) = 0.29277 0.11168
# Poissons Ratio (y) = 0.11897 0.01598
# Poissons Ratio (z) = 0.09430 0.03321
#
# Static dielectric constant tensor:
#      x y z
#    x 1.944010 0.000000 -0.021890 
#    y 0.000000 1.897260 0.000000 
#    z -0.021890 0.000000 1.923650 
# 
# From -- ./inp_files/192232.got.cif
#   From: 2010.05.17/outbox.cif.g08.bks.cpg/sg15_97_cif.got.tgz:192232.got - 2010.06.03 18:47:42.
