data_PCOD9263525
_publ_section_title
;
Structure prediction by ZEFSAII (Michael W. Deem and Ramdas Pophale) SiO2 
 PCOD9263525
Probable space group: C 2/C
;
_chemical_formula_sum "Si O2"
_cell_formula_units_Z 48
_cell_length_a 14.855699
_cell_length_b 23.422380
_cell_length_c 10.149466
_cell_angle_alpha 90.000000
_cell_angle_beta 140.371726
_cell_angle_gamma 90.000000
_cell_volume 2252.447314
_symmetry_space_group_name_H-M "C 2/C"
_symmetry_group_IT_number 15
_symmetry_cell_setting 'monoclinic'
loop_
_space_group_symop_operation_xyz
x,y,z
-x,y,1/2-z
-x,-y,-z
x,-y,1/2+z
1/2+x,1/2+y,z
1/2-x,1/2+y,1/2-z
1/2-x,1/2-y,-z
1/2+x,1/2-y,1/2+z
loop_
_atom_site_type_symbol
_atom_site_label
_atom_site_fract_x
_atom_site_fract_y
_atom_site_fract_z
Si Si1 0.374671 0.843657 0.410595
Si Si2 0.898520 0.795705 0.522386
Si Si3 0.586629 0.280996 0.472635
Si Si4 0.166477 0.671737 0.091201
Si Si5 0.851799 0.469410 0.371178
Si Si6 0.172928 0.440878 0.447384
O O1 0.235690 0.832536 0.167575
O O2 0.380497 0.786788 0.506942
O O3 0.513409 0.843039 0.476138
O O4 0.370550 0.907583 0.461338
O O5 0.990413 0.787177 0.493715
O O6 0.847143 0.731624 0.500079
O O7 0.000000 0.817985 0.750000
O O8 0.500000 0.301797 0.250000
O O9 0.728232 0.314762 0.669194
O O10 0.214927 0.620311 0.053840
O O11 0.782401 0.456719 0.150522
O O12 0.780534 0.511943 0.393762
O O13 0.000000 0.500000 0.500000
O O14 0.000000 0.440757 0.250000
#
# Coordination Sequence:
#
# PCOD9263525 Si02
#       6
#     8   8   8   8   8   8
#     4  10  21  37  61  90 121 153 201 246 293 349
#     4  10  23  37  59  91 124 156 195 241 302 362
#     4  10  24  41  56  87 126 162 194 241 311 361
#     4  10  20  36  64  84 119 161 200 243 293 358
#     4  10  20  35  55  91 118 150 193 257 292 338
#     4  10  19  34  57  87 121 145 196 248 300 337
#
# _framework density 21.310153
#
# number of rings (size 3 to 8) (size 9 to 14) (size 15 to 20)
#    0.000    2.000    3.333    0.500    4.667   11.333 
#    3.000    0.000    0.000    2.000    0.000    0.000 
#    0.000    0.000    0.000    0.000    0.000    0.000 
#
# Total GULP energy -134039.311785 kJ/mol
# GULP energy per Si atom -5584.971324 kJ/mol
# Density = 2.126165 g / cm^3
# Si number density = 21.310153 Si / 1000 Ang^3
#
#
#
# Elastic Constant Matrix: (Units=GPa)
#
#
# Indices 1 2 3 4 5 6 
#
# 1 44.3876 14.1744 23.8318 0.0000 -8.4491 0.0000
# 2 14.1744 106.2547 22.8949 0.0000 10.0823 0.0000
# 3 23.8318 22.8949 134.8989 0.0000 -1.3463 0.0000
# 4 0.0000 0.0000 0.0000 6.2554 0.0000 -4.5160
# 5 -8.4491 10.0823 -1.3463 0.0000 26.6533 0.0000
# 6 0.0000 0.0000 0.0000 -4.5160 0.0000 17.6004
#
#
#
# Elastic Compliance Matrix: (Units=1/GPa)
#
#
# Indices 1 2 3 4 5 6 
#
# 1 0.027897 -0.003774 -0.004188 0.000000 0.010059 0.000000
# 2 -0.003774 0.010675 -0.001198 0.000000 -0.005295 0.000000
# 3 -0.004188 -0.001198 0.008352 0.000000 -0.000452 0.000000
# 4 0.000000 0.000000 0.000000 0.196207 0.000000 0.050344
# 5 0.010059 -0.005295 -0.000452 0.000000 0.042688 0.000000
# 6 0.000000 0.000000 0.000000 0.050344 0.000000 0.069735
#
#
# Mechanical properties :
#
#
# Convention : Reuss Voigt Hill
#
# Bulk Modulus (GPa) = 34.95838 45.26037 40.10937
# Shear Modulus (GPa) = 13.04098 25.07783 19.05941
#
# Velocity S-wave (km/s) = 2.47647 3.43418 2.99387
# Velocity P-wave (km/s) = 4.96159 6.08356 5.55100
#
# Compressibility (1/GPa) = 0.02860544
#
# Stress axis : x y z
#
# Youngs Moduli (GPa) = 35.84628 93.67412 119.73828
#
# Poissons Ratio (x) = 0.35349 0.50141
# Poissons Ratio (y) = 0.13527 0.14344
# Poissons Ratio (z) = 0.15011 0.11222
#
# Static dielectric constant tensor:
#      x y z
#    x 1.820350 0.000000 -0.016620 
#    y 0.000000 1.799330 0.000000 
#    z -0.016620 0.000000 1.781800 
# 
# From -- ./inp_files/108129.got.cif
#   From: 2010.05.17/outbox.cif.g08.bks.cpg/sg15_55_cif.got.tgz:108129.got - 2010.06.03 18:47:42.
