data_PCOD9263611
_publ_section_title
;
Structure prediction by ZEFSAII (Michael W. Deem and Ramdas Pophale) SiO2 
 PCOD9263611
Probable space group: C 2/C
;
_chemical_formula_sum "Si O2"
_cell_formula_units_Z 52
_cell_length_a 14.931847
_cell_length_b 7.621739
_cell_length_c 20.527028
_cell_angle_alpha 90.000000
_cell_angle_beta 90.011380
_cell_angle_gamma 90.000000
_cell_volume 2336.112053
_symmetry_space_group_name_H-M "C 2/C"
_symmetry_group_IT_number 15
_symmetry_cell_setting 'monoclinic'
loop_
_space_group_symop_operation_xyz
x,y,z
-x,y,1/2-z
-x,-y,-z
x,-y,1/2+z
1/2+x,1/2+y,z
1/2-x,1/2+y,1/2-z
1/2-x,1/2-y,-z
1/2+x,1/2-y,1/2+z
loop_
_atom_site_type_symbol
_atom_site_label
_atom_site_fract_x
_atom_site_fract_y
_atom_site_fract_z
Si Si1 0.637923 0.602081 0.853086
Si Si2 0.141463 0.769426 0.071318
Si Si3 0.000000 0.999926 0.250000
Si Si4 0.358511 0.730528 0.071349
Si Si5 0.862124 0.101972 0.353081
Si Si6 0.838458 0.488516 0.674205
Si Si7 0.338491 0.988446 0.325818
O O1 0.564288 0.604437 0.797273
O O2 0.615603 0.468883 0.911057
O O3 0.647709 0.807652 0.865744
O O4 0.729432 0.514278 0.825163
O O5 0.249988 0.749998 0.067756
O O6 0.118748 0.644362 0.132113
O O7 0.115556 0.968806 0.088932
O O8 0.106340 0.718957 0.999974
O O9 0.064256 0.104284 0.202721
O O10 0.381227 0.855546 0.132163
O O11 0.770602 0.014184 0.325145
O O12 0.852358 0.307545 0.365737
O O13 0.866616 0.500005 0.750013
#
# Coordination Sequence:
#
# PCOD9263611 Si02
#       7
#     8   8   4   8   8   8   8
#     4  10  21  33  55  82 115 148 189 236 297 342
#     4   9  19  36  58  85 116 152 197 243 287 345
#     4  12  20  36  56  88 120 148 188 254 298 344
#     4   9  19  36  58  85 116 152 197 243 287 345
#     4  10  21  33  55  82 115 148 189 236 297 342
#     4  10  19  34  58  86 111 152 195 241 284 350
#     4  10  19  34  58  86 111 152 195 241 284 350
#
# _framework density 22.259207
#
# number of rings (size 3 to 8) (size 9 to 14) (size 15 to 20)
#    0.000    2.154    1.538    1.846    8.615    1.231 
#    0.000   13.846    0.000    1.846    0.000    0.000 
#    0.000    0.000    0.000    0.000    0.000    0.000 
#
# Total GULP energy -144857.763120 kJ/mol
# GULP energy per Si atom -5571.452428 kJ/mol
# Density = 2.220854 g / cm^3
# Si number density = 22.259207 Si / 1000 Ang^3
#
#
#
# Elastic Constant Matrix: (Units=GPa)
#
#
# Indices 1 2 3 4 5 6 
#
# 1 35.3307 5.2302 0.6203 0.0000 -2.3243 0.0000
# 2 5.2302 115.8066 72.1147 0.0000 4.9193 0.0000
# 3 0.6203 72.1147 159.4058 0.0000 11.4523 0.0000
# 4 0.0000 0.0000 0.0000 -18.7926 0.0000 -1.3656
# 5 -2.3243 4.9193 11.4523 0.0000 2.6804 0.0000
# 6 0.0000 0.0000 0.0000 -1.3656 0.0000 -0.3935
#
#
#
# Elastic Compliance Matrix: (Units=1/GPa)
#
#
# Indices 1 2 3 4 5 6 
#
# 1 0.031200 -0.001732 -0.002179 0.000000 0.039542 0.000000
# 2 -0.001732 0.012123 -0.005442 0.000000 -0.000501 0.000000
# 3 -0.002179 -0.005442 0.011777 0.000000 -0.042219 0.000000
# 4 0.000000 0.000000 0.000000 -0.071156 0.000000 0.246937
# 5 0.039542 -0.000501 -0.042219 0.000000 0.588665 0.000000
# 6 0.000000 0.000000 0.000000 0.246937 0.000000 -3.398314
#
#
# Mechanical properties :
#
#
# Convention : Reuss Voigt Hill
#
# Bulk Modulus (GPa) = 27.47628 51.83036 39.65332
# Shear Modulus (GPa) = -1.78899 12.20407 5.20754
#
# Velocity S-wave (km/s) = -0.89747 2.34406 1.53120
# Velocity P-wave (km/s) = 3.36105 5.53729 4.58030
#
# Compressibility (1/GPa) = 0.03639503
#
# Stress axis : x y z
#
# Youngs Moduli (GPa) = 32.05132 82.48581 84.91270
#
# Poissons Ratio (x) = 0.14287 0.18499
# Poissons Ratio (y) = 0.05552 0.46208
# Poissons Ratio (z) = 0.06983 0.44887
#
# Static dielectric constant tensor:
#      x y z
#    x 1.961660 0.000000 -0.012090 
#    y 0.000000 1.943760 0.000000 
#    z -0.012090 0.000000 1.797900 
# 
# From -- ./inp_files/209103.got.cif
#   From: 2010.05.17/outbox.cif.g08.bks.cpg/sg15_105_cif.got.tgz:209103.got - 2010.06.03 18:47:42.
