data_PCOD9263382
_publ_section_title
;
Structure prediction by ZEFSAII (Michael W. Deem and Ramdas Pophale) SiO2 
 PCOD9263382
Probable space group: C 2/C
;
_chemical_formula_sum "Si O2"
_cell_formula_units_Z 56
_cell_length_a 22.134778
_cell_length_b 6.267738
_cell_length_c 21.591219
_cell_angle_alpha 90.000000
_cell_angle_beta 73.984202
_cell_angle_gamma 90.000000
_cell_volume 2879.190824
_symmetry_space_group_name_H-M "C 2/C"
_symmetry_group_IT_number 15
_symmetry_cell_setting 'monoclinic'
loop_
_space_group_symop_operation_xyz
x,y,z
-x,y,1/2-z
-x,-y,-z
x,-y,1/2+z
1/2+x,1/2+y,z
1/2-x,1/2+y,1/2-z
1/2-x,1/2-y,-z
1/2+x,1/2-y,1/2+z
loop_
_atom_site_type_symbol
_atom_site_label
_atom_site_fract_x
_atom_site_fract_y
_atom_site_fract_z
Si Si1 0.142653 0.318177 0.111094
Si Si2 0.863617 0.980625 0.488919
Si Si3 0.417199 0.822901 0.562444
Si Si4 0.807487 0.018467 0.305764
Si Si5 0.056468 0.602057 0.064686
Si Si6 0.310650 0.696728 0.682482
Si Si7 0.755232 0.141937 0.104710
O O1 0.078088 0.434591 0.110617
O O2 0.196340 0.494945 0.103241
O O3 0.144742 0.170182 0.171110
O O4 0.160642 0.167666 0.048325
O O5 0.906144 0.099242 0.529029
O O6 0.906268 0.821076 0.438016
O O7 0.805906 0.854980 0.535637
O O8 0.483265 0.848247 0.578450
O O9 0.360366 0.828494 0.627313
O O10 0.419734 0.001145 0.507716
O O11 0.834757 0.875911 0.242674
O O12 0.771927 0.864463 0.364284
O O13 0.752660 0.166459 0.292736
O O14 0.291215 0.487072 0.648957
#
# Coordination Sequence:
#
# PCOD9263382 Si02
#       7
#     8   8   8   8   8   8   8
#     4  10  22  33  52  80 114 149 179 221 281 342
#     4  10  19  34  56  82 111 143 183 227 283 333
#     4   9  20  35  57  83 111 143 188 233 276 334
#     4  11  20  35  56  81 110 141 183 232 283 334
#     4  10  19  36  55  82 114 147 184 229 280 330
#     4  10  20  35  56  84 106 142 187 234 283 334
#     4  10  20  34  54  82 112 142 180 229 284 332
#
# _framework density 19.449909999999999
#
# number of rings (size 3 to 8) (size 9 to 14) (size 15 to 20)
#    0.000    2.000    1.429    2.571    0.000    4.571 
#    0.000    0.000    0.000    5.143    0.000    0.000 
#    0.000    0.000    0.000    0.000    0.000    0.000 
#
# Total GULP energy -156249.813677 kJ/mol
# GULP energy per Si atom -5580.350488 kJ/mol
# Density = 1.940564 g / cm^3
# Si number density = 19.449910 Si / 1000 Ang^3
#
#
#
# Elastic Constant Matrix: (Units=GPa)
#
#
# Indices 1 2 3 4 5 6 
#
# 1 84.6913 27.4614 35.2199 0.0000 22.7225 0.0000
# 2 27.4614 56.1837 7.1858 0.0000 10.4168 0.0000
# 3 35.2199 7.1858 51.3626 0.0000 7.8571 0.0000
# 4 0.0000 0.0000 0.0000 25.2772 0.0000 5.2017
# 5 22.7225 10.4168 7.8571 0.0000 18.4741 0.0000
# 6 0.0000 0.0000 0.0000 5.2017 0.0000 26.5880
#
#
#
# Elastic Compliance Matrix: (Units=1/GPa)
#
#
# Indices 1 2 3 4 5 6 
#
# 1 0.025203 -0.006625 -0.013032 0.000000 -0.021721 0.000000
# 2 -0.006625 0.021681 0.002282 0.000000 -0.005047 0.000000
# 3 -0.013032 0.002282 0.027629 0.000000 0.002992 0.000000
# 4 0.000000 0.000000 0.000000 0.041221 0.000000 -0.008064
# 5 -0.021721 -0.005047 0.002992 0.000000 0.082419 0.000000
# 6 0.000000 0.000000 0.000000 -0.008064 0.000000 0.039189
#
#
# Mechanical properties :
#
#
# Convention : Reuss Voigt Hill
#
# Bulk Modulus (GPa) = 25.15002 36.88574 31.01788
# Shear Modulus (GPa) = 17.52254 22.22587 19.87420
#
# Velocity S-wave (km/s) = 3.00477 3.38409 3.20005
# Velocity P-wave (km/s) = 4.99969 5.85449 5.44389
#
# Compressibility (1/GPa) = 0.03976140
#
# Stress axis : x y z
#
# Youngs Moduli (GPa) = 39.67772 46.12383 36.19383
#
# Poissons Ratio (x) = 0.30556 0.47170
# Poissons Ratio (y) = 0.26285 -0.08258
# Poissons Ratio (z) = 0.51710 -0.10523
#
# Static dielectric constant tensor:
#      x y z
#    x 1.668330 0.000000 0.038060 
#    y 0.000000 1.688870 0.000000 
#    z 0.038060 0.000000 1.687960 
# 
# From -- ./inp_files/254071.got.cif
#   From: 2010.05.17/outbox.cif.g08.bks.cpg/sg15_128_cif.got.tgz:254071.got - 2010.06.03 18:47:42.
