data_PCOD9263949
_publ_section_title
;
Structure prediction by ZEFSAII (Michael W. Deem and Ramdas Pophale) SiO2 
 PCOD9263949
Probable space group: C 2/C
;
_chemical_formula_sum "Si O2"
_cell_formula_units_Z 40
_cell_length_a 8.936663
_cell_length_b 14.501846
_cell_length_c 20.044673
_cell_angle_alpha 90.000000
_cell_angle_beta 141.497831
_cell_angle_gamma 90.000000
_cell_volume 1617.215447
_symmetry_space_group_name_H-M "C 2/C"
_symmetry_group_IT_number 15
_symmetry_cell_setting 'monoclinic'
loop_
_space_group_symop_operation_xyz
x,y,z
-x,y,1/2-z
-x,-y,-z
x,-y,1/2+z
1/2+x,1/2+y,z
1/2-x,1/2+y,1/2-z
1/2-x,1/2-y,-z
1/2+x,1/2-y,1/2+z
loop_
_atom_site_type_symbol
_atom_site_label
_atom_site_fract_x
_atom_site_fract_y
_atom_site_fract_z
Si Si1 0.787618 0.041692 0.493436
Si Si2 0.500000 0.208529 0.750000
Si Si3 0.890642 0.671080 0.331334
Si Si4 0.500000 0.697117 0.750000
Si Si5 0.271379 0.469519 0.832518
Si Si6 0.066284 0.339612 0.422327
O O1 0.833984 0.062701 0.430049
O O2 0.699334 0.937921 0.480624
O O3 0.581518 0.111989 0.438247
O O4 0.042903 0.050240 0.618104
O O5 0.270641 0.273877 0.675182
O O6 0.472361 0.160215 0.670361
O O7 0.005346 0.739403 0.317785
O O8 0.734123 0.603539 0.228756
O O9 0.782412 0.658835 0.848186
O O10 0.000000 0.496133 0.750000
O O11 0.250000 0.250000 0.500000
#
# Coordination Sequence:
#
# PCOD9263949 Si02
#       6
#     8   4   8   4   8   8
#     4  10  19  34  65  90 110 163 216 248 300 383
#     4  10  24  40  62  94 132 166 202 264 322 364
#     4  10  19  39  62  86 121 166 208 250 307 374
#     4  10  20  42  60  86 132 172 190 266 328 358
#     4   9  18  33  63  85 115 154 213 251 301 356
#     4  11  25  41  64  94 133 165 207 261 322 370
#
# _framework density 24.733872000000002
#
# number of rings (size 3 to 8) (size 9 to 14) (size 15 to 20)
#    0.000    2.000    3.000    2.400    7.000    0.800 
#    0.000   12.000    0.000    0.000    0.000    0.000 
#    0.000    0.000    0.000    0.000    0.000    0.000 
#
# Total GULP energy -111475.654014 kJ/mol
# GULP energy per Si atom -5573.782701 kJ/mol
# Density = 2.467758 g / cm^3
# Si number density = 24.733872 Si / 1000 Ang^3
#
#
#
# Elastic Constant Matrix: (Units=GPa)
#
#
# Indices 1 2 3 4 5 6 
#
# 1 91.4611 20.3826 20.1894 0.0000 17.5495 0.0000
# 2 20.3826 53.7339 11.1193 0.0000 9.0838 0.0000
# 3 20.1894 11.1193 99.2863 0.0000 20.1744 0.0000
# 4 0.0000 0.0000 0.0000 47.1596 0.0000 -8.6475
# 5 17.5495 9.0838 20.1744 0.0000 35.5978 0.0000
# 6 0.0000 0.0000 0.0000 -8.6475 0.0000 40.8381
#
#
#
# Elastic Compliance Matrix: (Units=1/GPa)
#
#
# Indices 1 2 3 4 5 6 
#
# 1 0.012973 -0.003868 -0.001250 0.000000 -0.004701 0.000000
# 2 -0.003868 0.020757 -0.000960 0.000000 -0.002846 0.000000
# 3 -0.001250 -0.000960 0.011594 0.000000 -0.005709 0.000000
# 4 0.000000 0.000000 0.000000 0.022061 0.000000 0.004671
# 5 -0.004701 -0.002846 -0.005709 0.000000 0.034371 0.000000
# 6 0.000000 0.000000 0.000000 0.004671 0.000000 0.025476
#
#
# Mechanical properties :
#
#
# Convention : Reuss Voigt Hill
#
# Bulk Modulus (GPa) = 30.14850 38.65154 34.40002
# Shear Modulus (GPa) = 33.23500 37.57176 35.40338
#
# Velocity S-wave (km/s) = 3.66963 3.90172 3.78745
# Velocity P-wave (km/s) = 5.49277 5.99656 5.75019
#
# Compressibility (1/GPa) = 0.03316915
#
# Stress axis : x y z
#
# Youngs Moduli (GPa) = 77.08077 48.17616 86.25425
#
# Poissons Ratio (x) = 0.18634 0.10780
# Poissons Ratio (y) = 0.29814 0.08279
# Poissons Ratio (z) = 0.09633 0.04624
#
# Static dielectric constant tensor:
#      x y z
#    x 1.988510 0.000000 0.084090 
#    y 0.000000 2.063560 0.000000 
#    z 0.084090 0.000000 2.006760 
# 
# From -- ./inp_files/232946.got.cif
#   From: 2010.05.17/outbox.cif.g08.bks.cpg/sg15_117_cif.got.tgz:232946.got - 2010.06.03 18:47:42.
