data_PCOD9263052
_publ_section_title
;
Structure prediction by ZEFSAII (Michael W. Deem and Ramdas Pophale) SiO2 
 PCOD9263052
Probable space group: C 2/C
;
_chemical_formula_sum "Si O2"
_cell_formula_units_Z 48
_cell_length_a 14.700636
_cell_length_b 26.626198
_cell_length_c 10.945957
_cell_angle_alpha 90.000000
_cell_angle_beta 30.247410
_cell_angle_gamma 90.000000
_cell_volume 2158.246692
_symmetry_space_group_name_H-M "C 2/C"
_symmetry_group_IT_number 15
_symmetry_cell_setting 'monoclinic'
loop_
_space_group_symop_operation_xyz
x,y,z
-x,y,1/2-z
-x,-y,-z
x,-y,1/2+z
1/2+x,1/2+y,z
1/2-x,1/2+y,1/2-z
1/2-x,1/2-y,-z
1/2+x,1/2-y,1/2+z
loop_
_atom_site_type_symbol
_atom_site_label
_atom_site_fract_x
_atom_site_fract_y
_atom_site_fract_z
Si Si1 0.095913 0.908275 0.424094
Si Si2 0.358072 0.195043 0.239926
Si Si3 0.728407 0.692980 0.660009
Si Si4 0.617101 0.935172 0.221124
Si Si5 0.229315 0.409361 0.753131
Si Si6 0.797262 0.546518 0.467123
O O1 0.116274 0.852840 0.343494
O O2 0.210633 0.910715 0.414669
O O3 0.885104 0.921238 0.669271
O O4 0.190568 0.945019 0.215636
O O5 0.337473 0.252328 0.221349
O O6 0.234716 0.191731 0.505225
O O7 0.307677 0.150044 0.208959
O O8 0.565005 0.186643 0.037824
O O9 0.500000 0.908363 0.250000
O O10 0.457295 0.938591 0.506949
O O11 0.677365 0.988945 0.100591
O O12 0.290429 0.425640 0.546660
O O13 0.000000 0.568337 0.250000
#
# Coordination Sequence:
#
# PCOD9263052 Si02
#       6
#     8   8   8   8   8   8
#     4  12  24  42  67  96 132 168 217 269 334 384
#     4  10  19  33  60  98 136 163 201 255 331 393
#     4  10  19  34  59  99 135 164 198 262 326 398
#     4  11  27  46  64  88 129 175 229 270 317 382
#     4  12  23  41  66  97 130 174 212 266 329 394
#     4  11  22  42  65  91 129 168 210 273 330 386
#
# _framework density 22.240276000000001
#
# number of rings (size 3 to 8) (size 9 to 14) (size 15 to 20)
#    0.000    1.000    5.000    2.000    2.333    2.667 
#    6.000    0.000    0.000    1.000    0.000    0.000 
#    0.000    0.000    0.000    0.000    0.000    0.000 
#
# Total GULP energy -134242.015880 kJ/mol
# GULP energy per Si atom -5593.417328 kJ/mol
# Density = 2.218966 g / cm^3
# Si number density = 22.240276 Si / 1000 Ang^3
#
#
#
# Elastic Constant Matrix: (Units=GPa)
#
#
# Indices 1 2 3 4 5 6 
#
# 1 107.6512 20.2648 16.0060 -0.0026 -20.7634 0.0019
# 2 20.2648 136.1708 33.8563 0.0003 1.3437 0.0001
# 3 16.0060 33.8563 56.5508 -0.0101 -21.3553 0.0050
# 4 -0.0026 0.0003 -0.0101 20.4366 0.0036 -2.8813
# 5 -20.7634 1.3437 -21.3553 0.0036 38.5245 -0.0026
# 6 0.0019 0.0001 0.0050 -2.8813 -0.0026 20.7422
#
#
#
# Elastic Compliance Matrix: (Units=1/GPa)
#
#
# Indices 1 2 3 4 5 6 
#
# 1 0.010729 -0.001718 0.000251 0.000000 0.005981 0.000000
# 2 -0.001718 0.009420 -0.007117 -0.000003 -0.005200 0.000001
# 3 0.000251 -0.007117 0.027847 0.000011 0.015820 -0.000003
# 4 0.000000 -0.000003 0.000011 0.049909 0.000002 0.006933
# 5 0.005981 -0.005200 0.015820 0.000002 0.038132 0.000001
# 6 0.000000 0.000001 -0.000003 0.006933 0.000001 0.049174
#
#
# Mechanical properties :
#
#
# Convention : Reuss Voigt Hill
#
# Bulk Modulus (GPa) = 32.43846 48.95853 40.69850
# Shear Modulus (GPa) = 23.51203 31.29036 27.40119
#
# Velocity S-wave (km/s) = 3.25496 3.75497 3.51387
# Velocity P-wave (km/s) = 5.36130 6.39226 5.89934
#
# Compressibility (1/GPa) = 0.03082761
#
# Stress axis : x y z
#
# Youngs Moduli (GPa) = 93.20455 106.15442 35.91009
#
# Poissons Ratio (x) = 0.18238 -0.00900
# Poissons Ratio (y) = 0.16013 0.25558
# Poissons Ratio (z) = -0.02336 0.75551
#
# Static dielectric constant tensor:
#      x y z
#    x 1.880520 0.000000 0.012870 
#    y 0.000000 1.807370 0.000000 
#    z 0.012870 0.000000 1.867670 
# 
# From -- ./inp_files/101204.got.cif
#   From: 2010.05.17/outbox.cif.g08.bks.cpg/sg15_51_cif.got.tgz:101204.got - 2010.06.03 18:47:42.
