data_PCOD9263961
_publ_section_title
;
Structure prediction by ZEFSAII (Michael W. Deem and Ramdas Pophale) SiO2 
 PCOD9263961
Probable space group: C 2/C
;
_chemical_formula_sum "Si O2"
_cell_formula_units_Z 64
_cell_length_a 29.765186
_cell_length_b 12.642843
_cell_length_c 9.111899
_cell_angle_alpha 90.000000
_cell_angle_beta 102.514190
_cell_angle_gamma 90.000000
_cell_volume 3347.494691
_symmetry_space_group_name_H-M "C 2/C"
_symmetry_group_IT_number 15
_symmetry_cell_setting 'monoclinic'
loop_
_space_group_symop_operation_xyz
x,y,z
-x,y,1/2-z
-x,-y,-z
x,-y,1/2+z
1/2+x,1/2+y,z
1/2-x,1/2+y,1/2-z
1/2-x,1/2-y,-z
1/2+x,1/2-y,1/2+z
loop_
_atom_site_type_symbol
_atom_site_label
_atom_site_fract_x
_atom_site_fract_y
_atom_site_fract_z
Si Si1 0.468024 0.549775 0.349512
Si Si2 0.673492 0.288098 0.477994
Si Si3 0.781961 0.202685 0.187857
Si Si4 0.092455 0.056873 0.933960
Si Si5 0.679919 0.053672 0.445798
Si Si6 0.341139 0.632930 0.952705
Si Si7 0.823355 0.636024 0.380782
Si Si8 0.739137 0.384063 0.302139
O O1 0.500000 0.608690 0.250000
O O2 0.500000 0.500000 0.500000
O O3 0.429765 0.600811 0.429685
O O4 0.442415 0.465653 0.224808
O O5 0.696345 0.330307 0.642531
O O6 0.631740 0.363712 0.409589
O O7 0.659595 0.166061 0.486853
O O8 0.712946 0.295837 0.382255
O O9 0.729768 0.166543 0.125535
O O10 0.773653 0.328344 0.211724
O O11 0.815102 0.161355 0.085645
O O12 0.116320 0.944148 0.990130
O O13 0.678626 0.070571 0.271754
O O14 0.730740 0.053413 0.558586
O O15 0.657866 0.945483 0.485369
O O16 0.350082 0.751603 0.895761
O O17 0.303465 0.573693 0.822463
#
# Coordination Sequence:
#
# PCOD9263961 Si02
#       8
#     8   8   8   8   8   8   8   8
#     4   9  20  40  61  85 116 138 163 200 275 377
#     4  11  20  36  50  76 107 139 192 236 279 324
#     4  10  20  33  46  70 101 148 196 245 276 304
#     4  11  22  35  60  88 111 145 164 229 286 330
#     4  11  23  35  51  66 101 156 203 240 273 312
#     4  11  23  34  50  80 110 135 193 242 280 322
#     4  11  23  36  49  67 102 155 204 240 275 307
#     4  10  19  35  48  63 101 152 196 244 277 306
#
# _framework density 19.118776
#
# number of rings (size 3 to 8) (size 9 to 14) (size 15 to 20)
#    0.000    1.500    3.750    3.750    8.750    0.000 
#    0.000    0.000    0.000    0.000    0.000    0.000 
#    0.000   20.000    0.000    0.000    0.000    0.000 
#
# Total GULP energy -178241.147608 kJ/mol
# GULP energy per Si atom -5570.035863 kJ/mol
# Density = 1.907526 g / cm^3
# Si number density = 19.118776 Si / 1000 Ang^3
#
#
#
# Elastic Constant Matrix: (Units=GPa)
#
#
# Indices 1 2 3 4 5 6 
#
# 1 50.9626 12.7188 24.7225 0.0000 -4.9125 0.0000
# 2 12.7188 93.8260 13.5112 0.0000 3.1287 0.0000
# 3 24.7225 13.5112 120.1997 0.0000 -6.7899 0.0000
# 4 0.0000 0.0000 0.0000 19.3500 0.0000 -5.2823
# 5 -4.9125 3.1287 -6.7899 0.0000 38.4549 0.0000
# 6 0.0000 0.0000 0.0000 -5.2823 0.0000 6.1795
#
#
#
# Elastic Compliance Matrix: (Units=1/GPa)
#
#
# Indices 1 2 3 4 5 6 
#
# 1 0.022523 -0.002524 -0.004217 0.000000 0.002338 0.000000
# 2 -0.002524 0.011163 -0.000813 0.000000 -0.001374 0.000000
# 3 -0.004217 -0.000813 0.009345 0.000000 0.001177 0.000000
# 4 0.000000 0.000000 0.000000 0.067410 0.000000 0.057623
# 5 0.002338 -0.001374 0.001177 0.000000 0.026623 0.000000
# 6 0.000000 0.000000 0.000000 0.057623 0.000000 0.211081
#
#
# Mechanical properties :
#
#
# Convention : Reuss Voigt Hill
#
# Bulk Modulus (GPa) = 35.81281 40.76592 38.28937
# Shear Modulus (GPa) = 13.42063 27.06594 20.24328
#
# Velocity S-wave (km/s) = 2.65233 3.76663 3.25748
# Velocity P-wave (km/s) = 5.30587 6.34708 5.84968
#
# Compressibility (1/GPa) = 0.02792297
#
# Stress axis : x y z
#
# Youngs Moduli (GPa) = 44.39888 89.58077 107.01237
#
# Poissons Ratio (x) = 0.22609 0.45124
# Poissons Ratio (y) = 0.11206 0.08703
# Poissons Ratio (z) = 0.18722 0.07286
#
# Static dielectric constant tensor:
#      x y z
#    x 1.706410 0.000000 -0.035690 
#    y 0.000000 1.751530 0.000000 
#    z -0.035690 0.000000 1.758760 
# 
# From -- ./inp_files/69762.got.cif
#   From: 2010.05.17/outbox.cif.g08.bks.cpg/sg15_35_cif.got.tgz:69762.got - 2010.06.03 18:47:42.
