data_PCOD9263974
_publ_section_title
;
Structure prediction by ZEFSAII (Michael W. Deem and Ramdas Pophale) SiO2 
 PCOD9263974
Probable space group: C 2/C
;
_chemical_formula_sum "Si O2"
_cell_formula_units_Z 64
_cell_length_a 8.319048
_cell_length_b 24.837189
_cell_length_c 16.186607
_cell_angle_alpha 90.000000
_cell_angle_beta 79.109811
_cell_angle_gamma 90.000000
_cell_volume 3284.274412
_symmetry_space_group_name_H-M "C 2/C"
_symmetry_group_IT_number 15
_symmetry_cell_setting 'monoclinic'
loop_
_space_group_symop_operation_xyz
x,y,z
-x,y,1/2-z
-x,-y,-z
x,-y,1/2+z
1/2+x,1/2+y,z
1/2-x,1/2+y,1/2-z
1/2-x,1/2-y,-z
1/2+x,1/2-y,1/2+z
loop_
_atom_site_type_symbol
_atom_site_label
_atom_site_fract_x
_atom_site_fract_y
_atom_site_fract_z
Si Si1 0.338628 0.576629 0.321841
Si Si2 0.590875 0.105261 0.943411
Si Si3 0.278749 0.690572 0.030678
Si Si4 0.842189 0.451048 0.912179
Si Si5 0.333990 0.147435 0.290339
Si Si6 0.191003 0.046615 0.703676
Si Si7 0.692836 0.071321 0.632551
Si Si8 0.012854 0.096411 0.012973
O O1 0.500000 0.572317 0.250000
O O2 0.246567 0.625640 0.285650
O O3 0.265971 0.516121 0.320148
O O4 0.388480 0.590361 0.410465
O O5 0.747619 0.082029 0.878914
O O6 0.439474 0.110391 0.896391
O O7 0.645284 0.156175 0.991794
O O8 0.547596 0.063008 0.020030
O O9 0.255792 0.683099 0.131932
O O10 0.446740 0.656817 0.001545
O O11 0.250000 0.750000 0.000000
O O12 0.871172 0.407973 0.837049
O O13 0.864537 0.510937 0.881438
O O14 0.651798 0.439475 0.957115
O O15 0.500000 0.176203 0.250000
O O16 0.287177 0.071423 0.771862
O O17 0.000000 0.048759 0.750000
O O18 0.867891 0.078409 0.571288
#
# Coordination Sequence:
#
# PCOD9263974 Si02
#       8
#     8   8   8   8   8   8   8   8
#     4  11  18  34  56  91 123 155 197 237 289 360
#     4  10  23  36  56  85 118 155 203 247 297 360
#     4  10  23  47  65  79 114 162 209 268 323 348
#     4  10  19  35  50  85 127 165 187 218 303 371
#     4  10  21  34  61  92 121 151 200 251 303 366
#     4  11  21  34  55  83 127 171 193 226 290 376
#     4  12  21  33  55  89 126 160 192 238 296 371
#     4  10  21  35  60  85 118 158 204 250 294 371
#
# _framework density 19.486799999999999
#
# number of rings (size 3 to 8) (size 9 to 14) (size 15 to 20)
#    0.000    1.750    3.750    4.125    5.250    0.000 
#    0.000    2.500    5.500    0.000    0.000    0.000 
#    0.000    0.000    0.000    0.000    0.000    0.000 
#
# Total GULP energy -178433.977688 kJ/mol
# GULP energy per Si atom -5576.061803 kJ/mol
# Density = 1.944245 g / cm^3
# Si number density = 19.486800 Si / 1000 Ang^3
#
#
#
# Elastic Constant Matrix: (Units=GPa)
#
#
# Indices 1 2 3 4 5 6 
#
# 1 57.8863 -1.6301 10.1290 0.0000 14.5847 0.0000
# 2 -1.6301 44.6307 3.5442 0.0000 4.4477 0.0000
# 3 10.1290 3.5442 76.9715 0.0000 26.1130 0.0000
# 4 0.0000 0.0000 0.0000 12.1722 0.0000 10.1930
# 5 14.5847 4.4477 26.1130 0.0000 42.4350 0.0000
# 6 0.0000 0.0000 0.0000 10.1930 0.0000 13.9635
#
#
#
# Elastic Compliance Matrix: (Units=1/GPa)
#
#
# Indices 1 2 3 4 5 6 
#
# 1 0.019003 0.001366 -0.000378 0.000000 -0.006442 0.000000
# 2 0.001366 0.022746 -0.000327 0.000000 -0.002652 0.000000
# 3 -0.000378 -0.000327 0.016431 0.000000 -0.009947 0.000000
# 4 0.000000 0.000000 0.000000 0.211347 0.000000 -0.154279
# 5 -0.006442 -0.002652 -0.009947 0.000000 0.032178 0.000000
# 6 0.000000 0.000000 0.000000 -0.154279 0.000000 0.184236
#
#
# Mechanical properties :
#
#
# Convention : Reuss Voigt Hill
#
# Bulk Modulus (GPa) = 16.80636 22.61941 19.71289
# Shear Modulus (GPa) = 9.91170 24.87717 17.39444
#
# Velocity S-wave (km/s) = 2.25774 3.57685 2.99093
# Velocity P-wave (km/s) = 3.92935 5.35642 4.69739
#
# Compressibility (1/GPa) = 0.05950127
#
# Stress axis : x y z
#
# Youngs Moduli (GPa) = 52.62361 43.96318 60.85986
#
# Poissons Ratio (x) = -0.06006 0.02302
# Poissons Ratio (y) = -0.07189 0.01992
# Poissons Ratio (z) = 0.01990 0.01439
#
# Static dielectric constant tensor:
#      x y z
#    x 1.803980 0.000000 0.044480 
#    y 0.000000 1.654980 0.000000 
#    z 0.044480 0.000000 1.741960 
# 
# From -- ./inp_files/138612.got.cif
#   From: 2010.05.17/outbox.cif.g08.bks.cpg/sg15_70_cif.got.tgz:138612.got - 2010.06.03 18:47:42.
