data_PCOD9263992
_publ_section_title
;
Structure prediction by ZEFSAII (Michael W. Deem and Ramdas Pophale) SiO2 
 PCOD9263992
Probable space group: C 2/C
;
_chemical_formula_sum "Si O2"
_cell_formula_units_Z 40
_cell_length_a 28.529204
_cell_length_b 6.279894
_cell_length_c 11.086507
_cell_angle_alpha 90.000000
_cell_angle_beta 52.117056
_cell_angle_gamma 90.000000
_cell_volume 1567.691487
_symmetry_space_group_name_H-M "C 2/C"
_symmetry_group_IT_number 15
_symmetry_cell_setting 'monoclinic'
loop_
_space_group_symop_operation_xyz
x,y,z
-x,y,1/2-z
-x,-y,-z
x,-y,1/2+z
1/2+x,1/2+y,z
1/2-x,1/2+y,1/2-z
1/2-x,1/2-y,-z
1/2+x,1/2-y,1/2+z
loop_
_atom_site_type_symbol
_atom_site_label
_atom_site_fract_x
_atom_site_fract_y
_atom_site_fract_z
Si Si1 0.799600 0.293521 0.520007
Si Si2 0.091943 0.566478 0.366931
Si Si3 0.308894 0.837549 0.173796
Si Si4 0.891208 0.045197 0.476416
Si Si5 0.495339 0.687687 0.906758
O O1 0.750000 0.250000 0.500000
O O2 0.760050 0.210594 0.697361
O O3 0.815933 0.528722 0.539055
O O4 0.857901 0.147286 0.414257
O O5 0.158313 0.467973 0.269224
O O6 0.095898 0.749789 0.461903
O O7 0.048941 0.374476 0.474573
O O8 0.058591 0.684246 0.309652
O O9 0.345132 0.620375 0.105739
O O10 0.952343 0.918762 0.372749
O O11 0.500000 0.500000 0.000000
#
# Coordination Sequence:
#
# PCOD9263992 Si02
#       5
#     8   8   8   8   8
#     4  11  22  35  54  80 111 152 189 233 287 347
#     4   8  15  26  49  77 104 140 183 231 286 342
#     4  10  19  35  52  77 114 141 188 235 281 348
#     4   9  17  31  49  75 110 144 181 234 275 342
#     4   8  13  25  47  79 104 135 187 228 288 345
#
# _framework density 25.515225000000001
#
# number of rings (size 3 to 8) (size 9 to 14) (size 15 to 20)
#    0.000    2.800    2.000    0.000    0.000    0.800 
#    0.000    0.000    0.000    0.000    0.000  182.000 
#    0.000    0.000    0.000    0.000    0.000    0.000 
#
# Total GULP energy -111423.357750 kJ/mol
# GULP energy per Si atom -5571.167888 kJ/mol
# Density = 2.545715 g / cm^3
# Si number density = 25.515225 Si / 1000 Ang^3
#
#
#
# Elastic Constant Matrix: (Units=GPa)
#
#
# Indices 1 2 3 4 5 6 
#
# 1 177.5837 70.7282 17.7478 0.0000 -8.4831 0.0000
# 2 70.7282 158.5945 17.4441 0.0000 -8.8412 0.0000
# 3 17.7478 17.4441 14.2661 0.0000 -19.3513 0.0000
# 4 0.0000 0.0000 0.0000 9.0575 0.0000 -21.3219
# 5 -8.4831 -8.8412 -19.3513 0.0000 46.6024 0.0000
# 6 0.0000 0.0000 0.0000 -21.3219 0.0000 86.0588
#
#
#
# Elastic Compliance Matrix: (Units=1/GPa)
#
#
# Indices 1 2 3 4 5 6 
#
# 1 0.007556 -0.002251 -0.012276 0.000000 -0.004149 0.000000
# 2 -0.002251 0.008577 -0.013821 0.000000 -0.004522 0.000000
# 3 -0.012276 -0.013821 0.219079 0.000000 0.086114 0.000000
# 4 0.000000 0.000000 0.000000 0.264917 0.000000 0.065636
# 5 -0.004149 -0.004522 0.086114 0.000000 0.055603 0.000000
# 6 0.000000 0.000000 0.000000 0.065636 0.000000 0.027882
#
#
# Mechanical properties :
#
#
# Convention : Reuss Voigt Hill
#
# Bulk Modulus (GPa) = 5.60175 62.47605 34.03890
# Shear Modulus (GPa) = 7.14472 44.64537 25.89505
#
# Velocity S-wave (km/s) = 1.67519 4.18754 3.18918
# Velocity P-wave (km/s) = 2.43760 6.92240 5.18949
#
# Compressibility (1/GPa) = 0.17851550
#
# Stress axis : x y z
#
# Youngs Moduli (GPa) = 132.33927 116.58568 4.56456
#
# Poissons Ratio (x) = 0.26242 0.05604
# Poissons Ratio (y) = 0.29788 0.06309
# Poissons Ratio (z) = 1.62465 1.61138
#
# Static dielectric constant tensor:
#      x y z
#    x 2.076570 0.000000 0.220180 
#    y 0.000000 1.852520 0.000000 
#    z 0.220180 0.000000 2.535850 
# 
# From -- ./inp_files/170753.got.cif
#   From: 2010.05.17/outbox.cif.g08.bks.cpg/sg15_86_cif.got.tgz:170753.got - 2010.06.03 18:47:42.
