data_PCOD9263153
_publ_section_title
;
Structure prediction by ZEFSAII (Michael W. Deem and Ramdas Pophale) SiO2 
 PCOD9263153
Probable space group: C 2/C
;
_chemical_formula_sum "Si O2"
_cell_formula_units_Z 48
_cell_length_a 15.649678
_cell_length_b 19.232622
_cell_length_c 9.987326
_cell_angle_alpha 90.000000
_cell_angle_beta 115.007871
_cell_angle_gamma 90.000000
_cell_volume 2724.212707
_symmetry_space_group_name_H-M "C 2/C"
_symmetry_group_IT_number 15
_symmetry_cell_setting 'monoclinic'
loop_
_space_group_symop_operation_xyz
x,y,z
-x,y,1/2-z
-x,-y,-z
x,-y,1/2+z
1/2+x,1/2+y,z
1/2-x,1/2+y,1/2-z
1/2-x,1/2-y,-z
1/2+x,1/2-y,1/2+z
loop_
_atom_site_type_symbol
_atom_site_label
_atom_site_fract_x
_atom_site_fract_y
_atom_site_fract_z
Si Si1 0.171426 0.450056 0.521199
Si Si2 0.676932 0.215142 0.049276
Si Si3 0.500000 0.095995 0.750000
Si Si4 0.000000 0.634301 0.250000
Si Si5 0.219520 0.211077 0.115137
Si Si6 0.799160 0.439062 0.659653
Si Si7 0.466655 0.207402 0.941057
O O1 0.189665 0.367559 0.535916
O O2 0.066207 0.449710 0.389110
O O3 0.187772 0.471407 0.684445
O O4 0.227662 0.501034 0.461770
O O5 0.706507 0.231002 0.220271
O O6 0.750000 0.250000 0.000000
O O7 0.567915 0.234929 0.956546
O O8 0.444179 0.146014 0.818405
O O9 0.902621 0.592224 0.195828
O O10 0.010956 0.676426 0.396486
O O11 0.229953 0.127604 0.108712
O O12 0.117903 0.238645 0.096733
O O13 0.250000 0.250000 0.000000
#
# Coordination Sequence:
#
# PCOD9263153 Si02
#       7
#     8   8   4   4   8   8   8
#     4  10  22  35  50  80 114 149 186 227 281 348
#     4  10  21  39  56  84 112 144 192 238 282 335
#     4  10  19  34  52  80 106 155 182 232 293 338
#     4  12  19  36  54  82 118 147 182 230 279 350
#     4  11  20  34  57  81 112 152 186 229 281 333
#     4  11  23  35  52  81 117 155 183 231 282 344
#     4  11  20  35  57  85 115 144 190 234 280 336
#
# _framework density 17.619769999999999
#
# number of rings (size 3 to 8) (size 9 to 14) (size 15 to 20)
#    0.000    1.333    6.667    2.500    2.333    2.667 
#    0.000    0.000    0.000    1.000    0.000    2.333 
#    0.000    0.000    0.000    0.000    0.000    0.000 
#
# Total GULP energy -133777.685802 kJ/mol
# GULP energy per Si atom -5574.070242 kJ/mol
# Density = 1.757967 g / cm^3
# Si number density = 17.619770 Si / 1000 Ang^3
#
#
#
# Elastic Constant Matrix: (Units=GPa)
#
#
# Indices 1 2 3 4 5 6 
#
# 1 87.0899 41.6426 21.7795 0.0000 -0.5321 0.0000
# 2 41.6426 60.1887 36.4984 0.0000 -2.0154 0.0000
# 3 21.7795 36.4984 110.5913 0.0000 -16.7881 0.0000
# 4 0.0000 0.0000 0.0000 0.9574 0.0000 -6.1542
# 5 -0.5321 -2.0154 -16.7881 0.0000 25.6453 0.0000
# 6 0.0000 0.0000 0.0000 -6.1542 0.0000 27.5116
#
#
#
# Elastic Compliance Matrix: (Units=1/GPa)
#
#
# Indices 1 2 3 4 5 6 
#
# 1 0.017200 -0.012296 0.000642 0.000000 -0.000189 0.000000
# 2 -0.012296 0.029796 -0.007878 0.000000 -0.003071 0.000000
# 3 0.000642 -0.007878 0.012684 0.000000 0.007698 0.000000
# 4 0.000000 0.000000 0.000000 -2.385356 0.000000 -0.533593
# 5 -0.000189 -0.003071 0.007698 0.000000 0.043787 0.000000
# 6 0.000000 0.000000 0.000000 -0.533593 0.000000 -0.083014
#
#
# Mechanical properties :
#
#
# Convention : Reuss Voigt Hill
#
# Bulk Modulus (GPa) = 48.50513 50.85677 49.68095
# Shear Modulus (GPa) = -2.15613 21.35284 9.59835
#
# Velocity S-wave (km/s) = -1.10741 3.48497 2.33652
# Velocity P-wave (km/s) = 5.09445 6.71710 5.96124
#
# Compressibility (1/GPa) = 0.02061638
#
# Stress axis : x y z
#
# Youngs Moduli (GPa) = 58.13963 33.56161 78.83660
#
# Poissons Ratio (x) = 0.41266 -0.05061
# Poissons Ratio (y) = 0.71487 0.62109
# Poissons Ratio (z) = -0.03732 0.26441
#
# Static dielectric constant tensor:
#      x y z
#    x 1.611460 0.000000 -0.011480 
#    y 0.000000 1.624760 0.000000 
#    z -0.011480 0.000000 1.650640 
# 
# From -- ./inp_files/40711.got.cif
#   From: 2010.05.17/outbox.cif.g08.bks.cpg/sg15_21_cif.got.tgz:40711.got - 2010.06.03 18:47:42.
