data_PCOD9263609
_publ_section_title
;
Structure prediction by ZEFSAII (Michael W. Deem and Ramdas Pophale) SiO2 
 PCOD9263609
Probable space group: C 2/C
;
_chemical_formula_sum "Si O2"
_cell_formula_units_Z 44
_cell_length_a 29.536814
_cell_length_b 12.038902
_cell_length_c 9.750865
_cell_angle_alpha 90.000000
_cell_angle_beta 147.341631
_cell_angle_gamma 90.000000
_cell_volume 1871.064423
_symmetry_space_group_name_H-M "C 2/C"
_symmetry_group_IT_number 15
_symmetry_cell_setting 'monoclinic'
loop_
_space_group_symop_operation_xyz
x,y,z
-x,y,1/2-z
-x,-y,-z
x,-y,1/2+z
1/2+x,1/2+y,z
1/2-x,1/2+y,1/2-z
1/2-x,1/2-y,-z
1/2+x,1/2-y,1/2+z
loop_
_atom_site_type_symbol
_atom_site_label
_atom_site_fract_x
_atom_site_fract_y
_atom_site_fract_z
Si Si1 0.674755 0.009962 0.894686
Si Si2 0.141149 0.892007 0.595492
Si Si3 0.643611 0.125341 0.075369
Si Si4 0.500000 0.710301 0.250000
Si Si5 0.399410 0.419750 0.712265
Si Si6 0.772191 0.294555 0.315595
O O1 0.683062 0.887646 0.981475
O O2 0.768955 0.055626 0.133818
O O3 0.625024 0.090377 0.870672
O O4 0.645422 0.987124 0.667054
O O5 0.085261 0.913827 0.586744
O O6 0.162733 0.764053 0.620915
O O7 0.113261 0.960264 0.390139
O O8 0.732465 0.190007 0.298030
O O9 0.577971 0.208957 0.972653
O O10 0.528555 0.638621 0.193234
O O11 0.311697 0.351671 0.461880
#
# Coordination Sequence:
#
# PCOD9263609 Si02
#       6
#     8   8   8   4   8   8
#     4  10  19  34  58  86 108 136 177 226 273 314
#     4  10  19  34  58  86 108 136 177 226 273 314
#     4  10  21  36  56  79 112 144 178 220 264 323
#     4  10  24  40  52  72 108 154 184 216 268 316
#     4  10  21  36  56  79 112 144 178 220 264 323
#     4   9  18  33  58  87 112 135 172 222 276 317
#
# _framework density 23.516027000000001
#
# number of rings (size 3 to 8) (size 9 to 14) (size 15 to 20)
#    0.000    2.182    0.000    4.364    0.000    7.273 
#    0.000    0.000    0.000    2.182    0.000    0.000 
#    0.000    0.000    0.000    0.000    0.000    0.000 
#
# Total GULP energy -122943.620247 kJ/mol
# GULP energy per Si atom -5588.346375 kJ/mol
# Density = 2.346250 g / cm^3
# Si number density = 23.516027 Si / 1000 Ang^3
#
#
#
# Elastic Constant Matrix: (Units=GPa)
#
#
# Indices 1 2 3 4 5 6 
#
# 1 133.1602 40.8676 24.2766 0.0000 -9.5726 0.0000
# 2 40.8676 84.9039 8.7023 0.0000 -1.6439 0.0000
# 3 24.2766 8.7023 22.0497 0.0000 -5.0598 0.0000
# 4 0.0000 0.0000 0.0000 28.6773 0.0000 -0.1657
# 5 -9.5726 -1.6439 -5.0598 0.0000 29.0047 0.0000
# 6 0.0000 0.0000 0.0000 -0.1657 0.0000 45.2472
#
#
#
# Elastic Compliance Matrix: (Units=1/GPa)
#
#
# Indices 1 2 3 4 5 6 
#
# 1 0.010661 -0.004101 -0.009755 0.000000 0.001584 0.000000
# 2 -0.004101 0.013853 -0.001128 0.000000 -0.000765 0.000000
# 3 -0.009755 -0.001128 0.058111 0.000000 0.006854 0.000000
# 4 0.000000 0.000000 0.000000 0.034872 0.000000 0.000128
# 5 0.001584 -0.000765 0.006854 0.000000 0.036152 0.000000
# 6 0.000000 0.000000 0.000000 0.000128 0.000000 0.022101
#
#
# Mechanical properties :
#
#
# Convention : Reuss Voigt Hill
#
# Bulk Modulus (GPa) = 18.99118 43.08965 31.04041
# Shear Modulus (GPa) = 22.39449 31.67032 27.03240
#
# Velocity S-wave (km/s) = 3.08930 3.67380 3.39415
# Velocity P-wave (km/s) = 4.56272 6.02984 5.34684
#
# Compressibility (1/GPa) = 0.05265604
#
# Stress axis : x y z
#
# Youngs Moduli (GPa) = 93.80208 72.18807 17.20855
#
# Poissons Ratio (x) = 0.29603 0.16788
# Poissons Ratio (y) = 0.38467 0.01941
# Poissons Ratio (z) = 0.91508 0.08141
#
# Static dielectric constant tensor:
#      x y z
#    x 1.948150 0.000000 -0.033430 
#    y 0.000000 1.884730 0.000000 
#    z -0.033430 0.000000 1.918220 
# 
# From -- ./inp_files/54445.got.cif
#   From: 2010.05.17/outbox.cif.g08.bks.cpg/sg15_28_cif.got.tgz:54445.got - 2010.06.03 18:47:42.
