data_PCOD9263122
_publ_section_title
;
Structure prediction by ZEFSAII (Michael W. Deem and Ramdas Pophale) SiO2 
 PCOD9263122
Probable space group: C 2/C
;
_chemical_formula_sum "Si O2"
_cell_formula_units_Z 64
_cell_length_a 18.488959
_cell_length_b 14.422989
_cell_length_c 14.415417
_cell_angle_alpha 90.000000
_cell_angle_beta 58.041799
_cell_angle_gamma 90.000000
_cell_volume 3261.468906
_symmetry_space_group_name_H-M "C 2/C"
_symmetry_group_IT_number 15
_symmetry_cell_setting 'monoclinic'
loop_
_space_group_symop_operation_xyz
x,y,z
-x,y,1/2-z
-x,-y,-z
x,-y,1/2+z
1/2+x,1/2+y,z
1/2-x,1/2+y,1/2-z
1/2-x,1/2-y,-z
1/2+x,1/2-y,1/2+z
loop_
_atom_site_type_symbol
_atom_site_label
_atom_site_fract_x
_atom_site_fract_y
_atom_site_fract_z
Si Si1 0.508208 0.001229 0.354605
Si Si2 0.472849 0.371399 0.169870
Si Si3 0.407815 0.431638 0.798064
Si Si4 0.726849 0.581396 0.250497
Si Si5 0.366897 0.944779 0.083830
Si Si6 0.694986 0.840347 0.532915
Si Si7 0.887263 0.685221 0.218994
Si Si8 0.349734 0.457320 0.502894
O O1 0.500000 0.986399 0.250000
O O2 0.419888 0.996971 0.470349
O O3 0.545091 0.104776 0.350802
O O4 0.575551 0.936703 0.363525
O O5 0.500000 0.329359 0.250000
O O6 0.426480 0.467989 0.232404
O O7 0.415630 0.288175 0.169634
O O8 0.562240 0.396954 0.060203
O O9 0.500000 0.387067 0.750000
O O10 0.340476 0.382142 0.778541
O O11 0.373523 0.454761 0.923828
O O12 0.782256 0.499691 0.167563
O O13 0.796078 0.656352 0.237690
O O14 0.677890 0.539101 0.372231
O O15 0.343433 0.853869 0.042367
O O16 0.750000 0.750000 0.500000
O O17 0.626775 0.830724 0.661011
O O18 0.765369 0.917948 0.509124
#
# Coordination Sequence:
#
# PCOD9263122 Si02
#       8
#     8   8   8   8   8   8   8   8
#     4  10  19  34  51  75 115 159 190 230 282 335
#     4   9  18  31  50  80 111 149 179 228 288 342
#     4   9  18  33  54  78 112 140 185 237 285 336
#     4  10  20  34  50  80 117 145 188 227 287 344
#     4  10  21  31  50  79 115 154 194 229 284 347
#     4  11  19  30  51  80 114 148 179 238 294 336
#     4  10  20  31  51  77 115 153 182 230 287 343
#     4   9  19  32  51  78 110 145 183 228 286 334
#
# _framework density 19.623061
#
# number of rings (size 3 to 8) (size 9 to 14) (size 15 to 20)
#    0.000    2.500    2.500    1.875    1.750    2.000 
#    0.000    0.000    0.000    0.000    0.000    7.000 
#   11.250    0.625    0.000    0.000    0.000    0.000 
#
# Total GULP energy -178208.710650 kJ/mol
# GULP energy per Si atom -5569.022208 kJ/mol
# Density = 1.957840 g / cm^3
# Si number density = 19.623061 Si / 1000 Ang^3
#
#
#
# Elastic Constant Matrix: (Units=GPa)
#
#
# Indices 1 2 3 4 5 6 
#
# 1 126.6912 17.9478 37.3067 0.0000 15.6283 0.0000
# 2 17.9478 23.5744 5.3539 0.0000 2.5105 0.0000
# 3 37.3067 5.3539 128.2435 0.0000 -6.3350 0.0000
# 4 0.0000 0.0000 0.0000 7.0050 0.0000 -2.8922
# 5 15.6283 2.5105 -6.3350 0.0000 30.9025 0.0000
# 6 0.0000 0.0000 0.0000 -2.8922 0.0000 21.5875
#
#
#
# Elastic Compliance Matrix: (Units=1/GPa)
#
#
# Indices 1 2 3 4 5 6 
#
# 1 0.010377 -0.006651 -0.003004 0.000000 -0.005323 0.000000
# 2 -0.006651 0.047555 -0.000076 0.000000 -0.000515 0.000000
# 3 -0.003004 -0.000076 0.008840 0.000000 0.003337 0.000000
# 4 0.000000 0.000000 0.000000 0.151114 0.000000 0.020246
# 5 -0.005323 -0.000515 0.003337 0.000000 0.035778 0.000000
# 6 0.000000 0.000000 0.000000 0.020246 0.000000 0.049036
#
#
# Mechanical properties :
#
#
# Convention : Reuss Voigt Hill
#
# Bulk Modulus (GPa) = 21.13756 44.41398 32.77577
# Shear Modulus (GPa) = 14.79597 26.42570 20.61083
#
# Velocity S-wave (km/s) = 2.74890 3.67368 3.24441
# Velocity P-wave (km/s) = 4.56842 6.37787 5.54742
#
# Compressibility (1/GPa) = 0.04730915
#
# Stress axis : x y z
#
# Youngs Moduli (GPa) = 96.37039 21.02848 113.12783
#
# Poissons Ratio (x) = 0.13986 0.33983
# Poissons Ratio (y) = 0.64095 0.00860
# Poissons Ratio (z) = 0.28949 0.00160
#
# Static dielectric constant tensor:
#      x y z
#    x 1.741060 0.000000 0.003980 
#    y 0.000000 1.764530 0.000000 
#    z 0.003980 0.000000 1.674660 
# 
# From -- ./inp_files/162555.got.cif
#   From: 2010.05.17/outbox.cif.g08.bks.cpg/sg15_82_cif.got.tgz:162555.got - 2010.06.03 18:47:42.
