data_PCOD9263069
_publ_section_title
;
Structure prediction by ZEFSAII (Michael W. Deem and Ramdas Pophale) SiO2 
 PCOD9263069
Probable space group: C 2/C
;
_chemical_formula_sum "Si O2"
_cell_formula_units_Z 56
_cell_length_a 12.645715
_cell_length_b 27.188311
_cell_length_c 13.745571
_cell_angle_alpha 90.000000
_cell_angle_beta 34.355627
_cell_angle_gamma 90.000000
_cell_volume 2666.980654
_symmetry_space_group_name_H-M "C 2/C"
_symmetry_group_IT_number 15
_symmetry_cell_setting 'monoclinic'
loop_
_space_group_symop_operation_xyz
x,y,z
-x,y,1/2-z
-x,-y,-z
x,-y,1/2+z
1/2+x,1/2+y,z
1/2-x,1/2+y,1/2-z
1/2-x,1/2-y,-z
1/2+x,1/2-y,1/2+z
loop_
_atom_site_type_symbol
_atom_site_label
_atom_site_fract_x
_atom_site_fract_y
_atom_site_fract_z
Si Si1 0.161627 0.194501 0.208253
Si Si2 0.780008 0.823437 0.309740
Si Si3 0.479881 0.740401 0.522508
Si Si4 0.047420 0.088859 0.923866
Si Si5 0.152818 0.912755 0.718517
Si Si6 0.199084 0.018136 0.657322
Si Si7 0.696006 0.893467 0.549000
O O1 0.297795 0.241214 0.101531
O O2 0.252734 0.140197 0.136997
O O3 0.000000 0.197454 0.250000
O O4 0.079168 0.200625 0.379392
O O5 0.597109 0.789962 0.443173
O O6 0.936544 0.783444 0.159672
O O7 0.770222 0.851876 0.418510
O O8 0.812262 0.865672 0.204020
O O9 0.149262 0.041721 0.799415
O O10 0.970087 0.082938 0.090225
O O11 0.862250 0.098686 0.999374
O O12 0.000000 0.910886 0.750000
O O13 0.270267 0.962573 0.615277
O O14 0.321640 0.056730 0.502559
O O15 0.000000 0.016108 0.750000
O O16 0.500000 0.881852 0.750000
#
# Coordination Sequence:
#
# PCOD9263069 Si02
#       7
#     8   8   8   8   8   8   8
#     4  10  20  35  59  83 118 158 200 240 291 344
#     4  10  21  38  60  85 115 153 197 240 292 351
#     4  10  21  37  58  84 119 155 197 251 289 343
#     4  10  19  38  60  83 118 156 193 234 298 353
#     4  10  19  33  62  87 115 146 201 238 283 344
#     4   8  17  35  59  88 112 151 193 235 290 354
#     4  10  22  38  62  84 121 158 189 238 297 360
#
# _framework density 20.997527000000002
#
# number of rings (size 3 to 8) (size 9 to 14) (size 15 to 20)
#    0.000    2.286    1.429    2.143    2.000    0.000 
#    0.000    5.714    9.429    0.000    0.000    0.000 
#    0.000    0.000    0.000    0.000    0.000    0.000 
#
# Total GULP energy -156061.349796 kJ/mol
# GULP energy per Si atom -5573.619636 kJ/mol
# Density = 2.094974 g / cm^3
# Si number density = 20.997527 Si / 1000 Ang^3
#
#
#
# Elastic Constant Matrix: (Units=GPa)
#
#
# Indices 1 2 3 4 5 6 
#
# 1 58.4417 27.0118 27.4713 0.0000 29.6703 0.0000
# 2 27.0118 132.2174 23.0359 0.0000 2.0098 0.0000
# 3 27.4713 23.0359 64.0018 0.0001 15.2701 -0.0001
# 4 0.0000 0.0000 0.0001 -6.3515 0.0000 20.3173
# 5 29.6703 2.0098 15.2701 0.0000 27.9076 0.0000
# 6 0.0000 0.0000 -0.0001 20.3173 0.0000 2.1864
#
#
#
# Elastic Compliance Matrix: (Units=1/GPa)
#
#
# Indices 1 2 3 4 5 6 
#
# 1 0.047077 -0.007798 -0.006432 0.000000 -0.045970 0.000000
# 2 -0.007798 0.009394 -0.002128 0.000000 0.008779 0.000000
# 3 -0.006432 -0.002128 0.020108 0.000000 -0.004011 0.000000
# 4 0.000000 0.000000 0.000000 -0.005124 0.000000 0.047617
# 5 -0.045970 0.008779 -0.004011 0.000000 0.086268 0.000000
# 6 0.000000 0.000000 0.000000 0.047617 0.000000 0.014886
#
#
# Mechanical properties :
#
#
# Convention : Reuss Voigt Hill
#
# Bulk Modulus (GPa) = 22.79894 45.52210 34.16052
# Shear Modulus (GPa) = 22.73267 16.55796 19.64532
#
# Velocity S-wave (km/s) = 3.29391 2.81119 3.06208
# Velocity P-wave (km/s) = 5.03468 5.68013 5.36711
#
# Compressibility (1/GPa) = 0.04386170
#
# Stress axis : x y z
#
# Youngs Moduli (GPa) = 21.24168 106.45244 49.73027
#
# Poissons Ratio (x) = 0.83015 0.31988
# Poissons Ratio (y) = 0.16565 0.10585
# Poissons Ratio (z) = 0.13663 0.22657
#
# Static dielectric constant tensor:
#      x y z
#    x 1.737210 0.000000 -0.001690 
#    y 0.000000 1.827840 0.000000 
#    z -0.001690 0.000000 1.763560 
# 
# From -- ./inp_files/156890.got.cif
#   From: 2010.05.17/outbox.cif.g08.bks.cpg/sg15_79_cif.got.tgz:156890.got - 2010.06.03 18:47:42.
