data_PCOD9263933
_publ_section_title
;
Structure prediction by ZEFSAII (Michael W. Deem and Ramdas Pophale) SiO2 
 PCOD9263933
Probable space group: C 2/C
;
_chemical_formula_sum "Si O2"
_cell_formula_units_Z 52
_cell_length_a 9.030246
_cell_length_b 24.766247
_cell_length_c 11.851070
_cell_angle_alpha 90.000000
_cell_angle_beta 74.740427
_cell_angle_gamma 90.000000
_cell_volume 2556.990675
_symmetry_space_group_name_H-M "C 2/C"
_symmetry_group_IT_number 15
_symmetry_cell_setting 'monoclinic'
loop_
_space_group_symop_operation_xyz
x,y,z
-x,y,1/2-z
-x,-y,-z
x,-y,1/2+z
1/2+x,1/2+y,z
1/2-x,1/2+y,1/2-z
1/2-x,1/2-y,-z
1/2+x,1/2-y,1/2+z
loop_
_atom_site_type_symbol
_atom_site_label
_atom_site_fract_x
_atom_site_fract_y
_atom_site_fract_z
Si Si1 0.887690 0.212897 0.428271
Si Si2 0.488485 0.072255 0.122985
Si Si3 0.000000 0.066736 0.750000
Si Si4 0.801089 0.522888 0.597544
Si Si5 0.207162 0.757562 0.790610
Si Si6 0.500000 0.823720 0.750000
Si Si7 0.209213 0.146422 0.853351
Si Si8 0.500000 0.917076 0.250000
O O1 0.750000 0.250000 0.500000
O O2 0.843276 0.206086 0.307003
O O3 0.876681 0.163184 0.515056
O O4 0.054494 0.241520 0.397381
O O5 0.500000 0.052548 0.250000
O O6 0.470103 0.135941 0.149742
O O7 0.353251 0.039515 0.088330
O O8 0.639953 0.053898 0.025452
O O9 0.876732 0.031582 0.843071
O O10 0.899013 0.105267 0.690997
O O11 0.901475 0.550097 0.678119
O O12 0.356114 0.786524 0.809179
O O13 0.254281 0.699038 0.732266
O O14 0.375103 0.119609 0.839591
#
# Coordination Sequence:
#
# PCOD9263933 Si02
#       8
#     8   8   4   8   8   4   8   4
#     4   9  19  35  55  74 116 160 194 228 278 331
#     4   9  21  39  63  83 113 150 194 236 305 349
#     4  10  23  36  58  90 114 142 193 244 290 332
#     4  10  20  41  63  85 116 144 197 246 295 352
#     4  10  20  37  52  85 119 155 190 236 278 343
#     4  10  22  36  60  84 118 148 198 230 300 340
#     4  10  20  34  54  83 117 150 194 228 280 331
#     4  10  19  34  64  82 112 158 197 228 282 350
#
# _framework density 20.336406
#
# number of rings (size 3 to 8) (size 9 to 14) (size 15 to 20)
#    0.462    1.846    0.769    2.308    4.308    0.000 
#    2.769    6.154    0.000    0.000    0.000    0.000 
#    0.000    0.000    0.000    0.000    0.000    0.000 
#
# Total GULP energy -144854.802168 kJ/mol
# GULP energy per Si atom -5571.338545 kJ/mol
# Density = 2.029012 g / cm^3
# Si number density = 20.336406 Si / 1000 Ang^3
#
#
#
# Elastic Constant Matrix: (Units=GPa)
#
#
# Indices 1 2 3 4 5 6 
#
# 1 117.5032 40.8154 27.1096 0.0000 -43.9126 0.0000
# 2 40.8154 65.8427 3.1554 0.0000 -14.7884 0.0000
# 3 27.1096 3.1554 79.9609 0.0000 -30.9097 0.0000
# 4 0.0000 0.0000 0.0000 22.6327 0.0000 -9.4013
# 5 -43.9126 -14.7884 -30.9097 0.0000 36.0874 0.0000
# 6 0.0000 0.0000 0.0000 -9.4013 0.0000 15.7634
#
#
#
# Elastic Compliance Matrix: (Units=1/GPa)
#
#
# Indices 1 2 3 4 5 6 
#
# 1 0.018366 -0.006624 0.002428 0.000000 0.021714 0.000000
# 2 -0.006624 0.019604 0.002185 0.000000 0.001844 0.000000
# 3 0.002428 0.002185 0.019562 0.000000 0.020606 0.000000
# 4 0.000000 0.000000 0.000000 0.058734 0.000000 0.035029
# 5 0.021714 0.001844 0.020606 0.000000 0.072538 0.000000
# 6 0.000000 0.000000 0.000000 0.035029 0.000000 0.084329
#
#
# Mechanical properties :
#
#
# Convention : Reuss Voigt Hill
#
# Bulk Modulus (GPa) = 18.68805 45.05192 31.86999
# Shear Modulus (GPa) = 16.94968 27.71182 22.33075
#
# Velocity S-wave (km/s) = 2.89011 3.69544 3.31731
# Velocity P-wave (km/s) = 4.51070 6.35687 5.51163
#
# Compressibility (1/GPa) = 0.05351014
#
# Stress axis : x y z
#
# Youngs Moduli (GPa) = 54.44890 51.01099 51.11969
#
# Poissons Ratio (x) = 0.33791 -0.12414
# Poissons Ratio (y) = 0.36069 -0.11171
# Poissons Ratio (z) = -0.13222 -0.11147
#
# Static dielectric constant tensor:
#      x y z
#    x 1.715210 0.000000 0.013120 
#    y 0.000000 1.772360 0.000000 
#    z 0.013120 0.000000 1.795070 
# 
# From -- ./inp_files/80668.got.cif
#   From: 2010.05.17/outbox.cif.g08.bks.cpg/sg15_41_cif.got.tgz:80668.got - 2010.06.03 18:47:42.
