data_PCOD9263187
_publ_section_title
;
Structure prediction by ZEFSAII (Michael W. Deem and Ramdas Pophale) SiO2 
 PCOD9263187
Probable space group: C 2/C
;
_chemical_formula_sum "Si O2"
_cell_formula_units_Z 56
_cell_length_a 25.913053
_cell_length_b 6.597302
_cell_length_c 18.569452
_cell_angle_alpha 90.000000
_cell_angle_beta 130.343045
_cell_angle_gamma 90.000000
_cell_volume 2419.595876
_symmetry_space_group_name_H-M "C 2/C"
_symmetry_group_IT_number 15
_symmetry_cell_setting 'monoclinic'
loop_
_space_group_symop_operation_xyz
x,y,z
-x,y,1/2-z
-x,-y,-z
x,-y,1/2+z
1/2+x,1/2+y,z
1/2-x,1/2+y,1/2-z
1/2-x,1/2-y,-z
1/2+x,1/2-y,1/2+z
loop_
_atom_site_type_symbol
_atom_site_label
_atom_site_fract_x
_atom_site_fract_y
_atom_site_fract_z
Si Si1 0.546329 0.077988 0.645976
Si Si2 0.423310 0.418878 0.928441
Si Si3 0.398306 0.047360 0.002633
Si Si4 0.343265 0.810447 0.831908
Si Si5 0.888264 0.585214 0.654682
Si Si6 0.728513 0.181020 0.375251
Si Si7 0.301301 0.442137 0.550700
O O1 0.580506 0.280779 0.646602
O O2 0.549492 0.068593 0.734559
O O3 0.469171 0.068334 0.551187
O O4 0.591538 0.900532 0.652417
O O5 0.366307 0.588072 0.874333
O O6 0.500000 0.500000 0.000000
O O7 0.411337 0.269377 0.984228
O O8 0.388474 0.022618 0.078042
O O9 0.339947 0.944547 0.901304
O O10 0.281641 0.814710 0.719705
O O11 0.830248 0.467785 0.647516
O O12 0.870805 0.821780 0.625578
O O13 0.716617 0.400519 0.401515
O O14 0.793365 0.075497 0.471012
O O15 0.250000 0.250000 0.500000
#
# Coordination Sequence:
#
# PCOD9263187 Si02
#       7
#     8   8   8   8   8   8   8
#     4  10  19  34  53  80 113 156 189 219 268 338
#     4  11  18  33  54  75 111 158 195 221 266 332
#     4  11  21  33  52  82 120 153 182 230 276 329
#     4  10  19  34  56  80 108 148 197 227 266 337
#     4  10  21  34  55  83 117 144 184 238 286 330
#     4   9  19  36  61  83 102 143 193 235 285 344
#     4   9  18  37  61  81 103 136 183 240 289 338
#
# _framework density 23.144362000000001
#
# number of rings (size 3 to 8) (size 9 to 14) (size 15 to 20)
#    0.000    2.000    2.857    2.143    0.000    2.286 
#    0.000    0.000    9.429    0.000    0.000    0.000 
#    0.000    0.000    0.000    0.000    0.000    0.000 
#
# Total GULP energy -156398.228211 kJ/mol
# GULP energy per Si atom -5585.651008 kJ/mol
# Density = 2.309168 g / cm^3
# Si number density = 23.144362 Si / 1000 Ang^3
#
#
#
# Elastic Constant Matrix: (Units=GPa)
#
#
# Indices 1 2 3 4 5 6 
#
# 1 38.0956 10.5537 25.8997 0.0000 -14.8414 0.0000
# 2 10.5537 127.2701 52.3424 0.0001 -3.9942 0.0000
# 3 25.8997 52.3424 192.6721 0.0000 -26.3865 0.0000
# 4 0.0000 0.0001 0.0000 21.4547 0.0000 8.5894
# 5 -14.8414 -3.9942 -26.3865 0.0000 31.0668 0.0000
# 6 0.0000 0.0000 0.0000 8.5894 0.0000 7.2099
#
#
#
# Elastic Compliance Matrix: (Units=1/GPa)
#
#
# Indices 1 2 3 4 5 6 
#
# 1 0.033601 -0.001438 -0.002210 0.000000 0.013990 0.000000
# 2 -0.001438 0.008936 -0.002457 0.000000 -0.001625 0.000000
# 3 -0.002210 -0.002457 0.006752 0.000000 0.004363 0.000000
# 4 0.000000 0.000000 0.000000 0.089111 0.000000 -0.106160
# 5 0.013990 -0.001625 0.004363 0.000000 0.042369 0.000000
# 6 0.000000 0.000000 0.000000 -0.106160 0.000000 0.265168
#
#
# Mechanical properties :
#
#
# Convention : Reuss Voigt Hill
#
# Bulk Modulus (GPa) = 26.96956 59.51438 43.24197
# Shear Modulus (GPa) = 10.62682 29.89576 20.26129
#
# Velocity S-wave (km/s) = 2.14511 3.59793 2.96198
# Velocity P-wave (km/s) = 4.22059 6.55976 5.51561
#
# Compressibility (1/GPa) = 0.03707884
#
# Stress axis : x y z
#
# Youngs Moduli (GPa) = 29.76100 111.90715 148.09909
#
# Poissons Ratio (x) = 0.16096 0.32731
# Poissons Ratio (y) = 0.04281 0.36385
# Poissons Ratio (z) = 0.06577 0.27493
#
# Static dielectric constant tensor:
#      x y z
#    x 1.912460 0.000000 0.031020 
#    y 0.000000 1.862410 0.000000 
#    z 0.031020 0.000000 1.912330 
# 
# From -- ./inp_files/223951.got.cif
#   From: 2010.05.17/outbox.cif.g08.bks.cpg/sg15_112_cif.got.tgz:223951.got - 2010.06.03 18:47:42.
