data_PCOD9263691
_publ_section_title
;
Structure prediction by ZEFSAII (Michael W. Deem and Ramdas Pophale) SiO2 
 PCOD9263691
Probable space group: C 2/C
;
_chemical_formula_sum "Si O2"
_cell_formula_units_Z 56
_cell_length_a 28.029606
_cell_length_b 18.390668
_cell_length_c 17.354652
_cell_angle_alpha 90.000000
_cell_angle_beta 17.300370
_cell_angle_gamma 90.000000
_cell_volume 2660.380049
_symmetry_space_group_name_H-M "C 2/C"
_symmetry_group_IT_number 15
_symmetry_cell_setting 'monoclinic'
loop_
_space_group_symop_operation_xyz
x,y,z
-x,y,1/2-z
-x,-y,-z
x,-y,1/2+z
1/2+x,1/2+y,z
1/2-x,1/2+y,1/2-z
1/2-x,1/2-y,-z
1/2+x,1/2-y,1/2+z
loop_
_atom_site_type_symbol
_atom_site_label
_atom_site_fract_x
_atom_site_fract_y
_atom_site_fract_z
Si Si1 0.187848 0.771461 0.179070
Si Si2 0.315945 0.585718 0.744026
Si Si3 0.181011 0.812294 0.769338
Si Si4 0.327916 0.345923 0.056048
Si Si5 0.686778 0.445147 0.678296
Si Si6 0.181703 0.133791 0.437612
Si Si7 0.817376 0.016617 0.494536
O O1 0.263363 0.848873 0.086451
O O2 0.999217 0.786394 0.470817
O O3 0.250000 0.750000 0.000000
O O4 0.228675 0.705423 0.171785
O O5 0.331040 0.617275 0.635191
O O6 0.241540 0.507160 0.876397
O O7 0.499921 0.571487 0.486267
O O8 0.265919 0.735725 0.653604
O O9 0.255933 0.864416 0.587549
O O10 0.178671 0.861529 0.850170
O O11 0.500000 0.339860 0.750000
O O12 0.237372 0.408453 0.146718
O O13 0.684846 0.476939 0.594505
O O14 0.000000 0.140140 0.750000
O O15 0.249873 0.058889 0.368247
O O16 0.000000 0.016382 0.250000
#
# Coordination Sequence:
#
# PCOD9263691 Si02
#       7
#     8   8   8   8   8   8   8
#     4  11  21  36  59  92 123 153 193 245 303 363
#     4  10  19  34  59  85 118 148 195 253 289 343
#     4  11  24  37  60  89 120 162 193 241 307 358
#     4  11  21  40  59  86 120 158 199 244 291 349
#     4  10  20  35  56  89 116 147 206 250 290 342
#     4  11  21  37  60  90 120 150 198 249 299 352
#     4  10  20  35  59  87 113 152 202 251 290 340
#
# _framework density 21.049623
#
# number of rings (size 3 to 8) (size 9 to 14) (size 15 to 20)
#    0.000    1.429    5.714    1.714    8.000    0.571 
#    0.000    0.714    0.000    6.000    0.000    0.000 
#    0.000    0.000    0.000    0.000    0.000    0.000 
#
# Total GULP energy -155983.509952 kJ/mol
# GULP energy per Si atom -5570.839641 kJ/mol
# Density = 2.100171 g / cm^3
# Si number density = 21.049623 Si / 1000 Ang^3
#
#
#
# Elastic Constant Matrix: (Units=GPa)
#
#
# Indices 1 2 3 4 5 6 
#
# 1 92.7873 65.8249 19.7165 -0.0013 17.4951 0.0000
# 2 65.8249 210.0538 32.9649 0.0025 13.7716 0.0022
# 3 19.7165 32.9649 17.6640 -0.0040 11.7157 -0.0052
# 4 -0.0013 0.0025 -0.0040 39.2602 0.0021 8.8846
# 5 17.4951 13.7716 11.7157 0.0021 13.1075 0.0010
# 6 0.0000 0.0022 -0.0052 8.8846 0.0010 41.3270
#
#
#
# Elastic Compliance Matrix: (Units=1/GPa)
#
#
# Indices 1 2 3 4 5 6 
#
# 1 0.017315 -0.004540 0.003218 0.000002 -0.021217 0.000001
# 2 -0.004540 0.008529 -0.021920 -0.000003 0.016691 -0.000003
# 3 0.003218 -0.021920 0.200162 0.000025 -0.160173 0.000025
# 4 0.000002 -0.000003 0.000025 0.026774 -0.000026 -0.005756
# 5 -0.021217 0.016691 -0.160173 -0.000026 0.230241 -0.000021
# 6 0.000001 -0.000003 0.000025 -0.005756 -0.000021 0.025435
#
#
# Mechanical properties :
#
#
# Convention : Reuss Voigt Hill
#
# Bulk Modulus (GPa) = 5.57031 61.94639 33.75835
# Shear Modulus (GPa) = 8.13301 32.20554 20.16927
#
# Velocity S-wave (km/s) = 1.96777 3.91574 3.09880
# Velocity P-wave (km/s) = 2.79550 7.06659 5.37362
#
# Compressibility (1/GPa) = 0.17952308
#
# Stress axis : x y z
#
# Youngs Moduli (GPa) = 57.75438 117.24600 4.99595
#
# Poissons Ratio (x) = 0.53229 -0.01608
# Poissons Ratio (y) = 0.26220 0.10951
# Poissons Ratio (z) = -0.18587 2.57000
#
# Static dielectric constant tensor:
#      x y z
#    x 1.786970 -0.000010 -0.045810 
#    y -0.000010 1.882970 -0.000010 
#    z -0.045810 -0.000010 1.749110 
# 
# From -- ./inp_files/225670.got.cif
#   From: 2010.05.17/outbox.cif.g08.bks.cpg/sg15_113_cif.got.tgz:225670.got - 2010.06.03 18:47:42.
