data_PCOD9263555
_publ_section_title
;
Structure prediction by ZEFSAII (Michael W. Deem and Ramdas Pophale) SiO2 
 PCOD9263555
Probable space group: C 2/C
;
_chemical_formula_sum "Si O2"
_cell_formula_units_Z 44
_cell_length_a 9.647316
_cell_length_b 21.240217
_cell_length_c 10.798437
_cell_angle_alpha 90.000000
_cell_angle_beta 85.808422
_cell_angle_gamma 90.000000
_cell_volume 2206.800934
_symmetry_space_group_name_H-M "C 2/C"
_symmetry_group_IT_number 15
_symmetry_cell_setting 'monoclinic'
loop_
_space_group_symop_operation_xyz
x,y,z
-x,y,1/2-z
-x,-y,-z
x,-y,1/2+z
1/2+x,1/2+y,z
1/2-x,1/2+y,1/2-z
1/2-x,1/2-y,-z
1/2+x,1/2-y,1/2+z
loop_
_atom_site_type_symbol
_atom_site_label
_atom_site_fract_x
_atom_site_fract_y
_atom_site_fract_z
Si Si1 0.421702 0.522542 0.380920
Si Si2 0.481889 0.055107 0.899682
Si Si3 0.230172 0.097123 0.603080
Si Si4 0.005794 0.843230 0.549774
Si Si5 0.000000 0.741109 0.750000
Si Si6 0.246686 0.651404 0.641021
O O1 0.500000 0.504484 0.250000
O O2 0.500000 0.500000 0.500000
O O3 0.287330 0.478608 0.391108
O O4 0.421686 0.597704 0.384689
O O5 0.500000 0.037809 0.750000
O O6 0.605047 0.105166 0.921506
O O7 0.335888 0.092430 0.915261
O O8 0.500000 0.000000 0.000000
O O9 0.187577 0.124407 0.737893
O O10 0.128658 0.127878 0.510118
O O11 0.128800 0.822095 0.449462
O O12 0.958974 0.787618 0.641406
O O13 0.871787 0.699995 0.808421
#
# Coordination Sequence:
#
# PCOD9263555 Si02
#       6
#     8   8   8   8   4   8
#     4  10  19  34  57  96 125 150 202 270 318 368
#     4  10  21  40  64  95 135 171 208 266 332 388
#     4  10  20  39  65  92 127 163 214 263 325 385
#     4  11  23  38  66  93 122 165 222 264 317 381
#     4  12  24  44  62  90 136 172 216 264 320 396
#     4  11  22  44  62  89 128 174 209 263 329 382
#
# _framework density 19.938365000000001
#
# number of rings (size 3 to 8) (size 9 to 14) (size 15 to 20)
#    0.000    1.455    3.636    4.364    0.000    5.091 
#    3.273    0.000    0.000    0.000    0.000    0.000 
#    0.000    0.000    0.000    0.000    0.000    0.000 
#
# Total GULP energy -122618.396242 kJ/mol
# GULP energy per Si atom -5573.563466 kJ/mol
# Density = 1.989298 g / cm^3
# Si number density = 19.938365 Si / 1000 Ang^3
#
#
#
# Elastic Constant Matrix: (Units=GPa)
#
#
# Indices 1 2 3 4 5 6 
#
# 1 70.8014 14.5304 39.8825 0.0000 3.6969 0.0000
# 2 14.5304 90.3543 38.1595 0.0000 10.2293 0.0000
# 3 39.8825 38.1595 105.4061 0.0000 0.0240 0.0000
# 4 0.0000 0.0000 0.0000 36.7384 0.0000 -3.1715
# 5 3.6969 10.2293 0.0240 0.0000 28.7968 0.0000
# 6 0.0000 0.0000 0.0000 -3.1715 0.0000 22.6943
#
#
#
# Elastic Compliance Matrix: (Units=1/GPa)
#
#
# Indices 1 2 3 4 5 6 
#
# 1 0.018110 0.000302 -0.006961 0.000000 -0.002426 0.000000
# 2 0.000302 0.013720 -0.005080 0.000000 -0.004908 0.000000
# 3 -0.006961 -0.005080 0.013960 0.000000 0.002687 0.000000
# 4 0.000000 0.000000 0.000000 0.027552 0.000000 0.003850
# 5 -0.002426 -0.004908 0.002687 0.000000 0.036779 0.000000
# 6 0.000000 0.000000 0.000000 0.003850 0.000000 0.044602
#
#
# Mechanical properties :
#
#
# Convention : Reuss Voigt Hill
#
# Bulk Modulus (GPa) = 44.82021 50.18961 47.50491
# Shear Modulus (GPa) = 26.93418 29.24520 28.08969
#
# Velocity S-wave (km/s) = 3.67941 3.83401 3.75751
# Velocity P-wave (km/s) = 6.37016 6.69526 6.53473
#
# Compressibility (1/GPa) = 0.02231137
#
# Stress axis : x y z
#
# Youngs Moduli (GPa) = 55.21850 72.88534 71.63551
#
# Poissons Ratio (x) = -0.02203 0.49866
# Poissons Ratio (y) = -0.01669 0.36393
# Poissons Ratio (z) = 0.38438 0.37028
#
# Static dielectric constant tensor:
#      x y z
#    x 1.720420 0.000000 -0.013300 
#    y 0.000000 1.747140 0.000000 
#    z -0.013300 0.000000 1.712580 
# 
# From -- ./inp_files/78220.got.cif
#   From: 2010.05.17/outbox.cif.g08.bks.cpg/sg15_40_cif.got.tgz:78220.got - 2010.06.03 18:47:42.
