data_PCOD9263965
_publ_section_title
;
Structure prediction by ZEFSAII (Michael W. Deem and Ramdas Pophale) SiO2 
 PCOD9263965
Probable space group: C 2/C
;
_chemical_formula_sum "Si O2"
_cell_formula_units_Z 56
_cell_length_a 21.078565
_cell_length_b 24.853464
_cell_length_c 18.321542
_cell_angle_alpha 90.000000
_cell_angle_beta 158.524691
_cell_angle_gamma 90.000000
_cell_volume 3513.904907
_symmetry_space_group_name_H-M "C 2/C"
_symmetry_group_IT_number 15
_symmetry_cell_setting 'monoclinic'
loop_
_space_group_symop_operation_xyz
x,y,z
-x,y,1/2-z
-x,-y,-z
x,-y,1/2+z
1/2+x,1/2+y,z
1/2-x,1/2+y,1/2-z
1/2-x,1/2-y,-z
1/2+x,1/2-y,1/2+z
loop_
_atom_site_type_symbol
_atom_site_label
_atom_site_fract_x
_atom_site_fract_y
_atom_site_fract_z
Si Si1 0.812253 0.387261 0.354012
Si Si2 0.066145 0.553748 0.026280
Si Si3 0.747925 0.682996 0.048226
Si Si4 0.499630 0.026164 0.161510
Si Si5 0.347400 0.794101 0.497067
Si Si6 0.464373 0.560161 0.485919
Si Si7 0.619520 0.564079 0.943309
O O1 0.888110 0.426640 0.501013
O O2 0.798346 0.327634 0.373045
O O3 0.942733 0.399767 0.426761
O O4 0.620851 0.404293 0.123770
O O5 0.057837 0.530893 0.934783
O O6 0.263567 0.570857 0.253489
O O7 0.000000 0.500000 0.000000
O O8 0.663735 0.729580 0.007708
O O9 0.953749 0.688381 0.279062
O O10 0.729835 0.690175 0.941446
O O11 0.677115 0.625154 0.991186
O O12 0.500000 0.030956 0.250000
O O13 0.701133 0.032689 0.356088
O O14 0.500000 0.500000 0.500000
O O15 0.485043 0.562547 0.594678
O O16 0.500000 0.544314 0.750000
#
# Coordination Sequence:
#
# PCOD9263965 Si02
#       7
#     8   8   8   8   8   8   8
#     4  11  20  35  51  66  96 132 170 203 247 293
#     4  10  19  35  49  68  95 123 165 204 252 300
#     4  10  21  32  44  64  96 125 171 213 247 273
#     4  11  19  33  48  69  97 125 161 211 247 291
#     4  10  20  33  46  64  92 131 166 214 246 277
#     4  12  20  32  52  71  91 127 168 206 248 296
#     4  12  23  31  47  72  97 132 179 207 240 294
#
# _framework density 15.936686
#
# number of rings (size 3 to 8) (size 9 to 14) (size 15 to 20)
#    0.000    1.143    7.143    2.571    6.000    0.000 
#    0.000    0.000    0.000    0.000    0.000    0.000 
#    0.000    0.000    0.000    6.429    0.571    1.286 
#
# Total GULP energy -156003.009583 kJ/mol
# GULP energy per Si atom -5571.536057 kJ/mol
# Density = 1.590041 g / cm^3
# Si number density = 15.936686 Si / 1000 Ang^3
#
#
#
# Elastic Constant Matrix: (Units=GPa)
#
#
# Indices 1 2 3 4 5 6 
#
# 1 35.7117 1.8707 11.2884 0.0000 3.7667 0.0000
# 2 1.8707 18.8568 13.4243 0.0000 -1.6409 0.0000
# 3 11.2884 13.4243 98.3144 0.0001 16.6786 0.0001
# 4 0.0000 0.0000 0.0001 17.2822 0.0001 -4.0708
# 5 3.7667 -1.6409 16.6786 0.0001 27.3548 0.0000
# 6 0.0000 0.0000 0.0001 -4.0708 0.0000 24.1741
#
#
#
# Elastic Compliance Matrix: (Units=1/GPa)
#
#
# Indices 1 2 3 4 5 6 
#
# 1 0.029195 -0.001113 -0.002796 0.000000 -0.002382 0.000000
# 2 -0.001113 0.061026 -0.009873 0.000000 0.009834 0.000000
# 3 -0.002796 -0.009873 0.013246 0.000000 -0.008283 0.000000
# 4 0.000000 0.000000 0.000000 0.060253 0.000000 0.010146
# 5 -0.002382 0.009834 -0.008283 0.000000 0.042525 0.000000
# 6 0.000000 0.000000 0.000000 0.010146 0.000000 0.043075
#
#
# Mechanical properties :
#
#
# Convention : Reuss Voigt Hill
#
# Bulk Modulus (GPa) = 13.17474 22.89441 18.03458
# Shear Modulus (GPa) = 16.54608 22.18220 19.36414
#
# Velocity S-wave (km/s) = 3.22567 3.73486 3.48956
# Velocity P-wave (km/s) = 4.70724 5.74421 5.25138
#
# Compressibility (1/GPa) = 0.07590281
#
# Stress axis : x y z
#
# Youngs Moduli (GPa) = 34.25194 16.38637 75.49514
#
# Poissons Ratio (x) = 0.01824 0.21109
# Poissons Ratio (y) = 0.03812 0.74538
# Poissons Ratio (z) = 0.09577 0.16179
#
# Static dielectric constant tensor:
#      x y z
#    x 1.562400 0.000000 0.001050 
#    y 0.000000 1.546310 0.000000 
#    z 0.001050 0.000000 1.596140 
# 
# From -- ./inp_files/217099.got.cif
#   From: 2010.05.17/outbox.cif.g08.bks.cpg/sg15_109_cif.got.tgz:217099.got - 2010.06.03 18:47:42.
