data_PCOD9263301
_publ_section_title
;
Structure prediction by ZEFSAII (Michael W. Deem and Ramdas Pophale) SiO2 
 PCOD9263301
Probable space group: C 2/C
;
_chemical_formula_sum "Si O2"
_cell_formula_units_Z 64
_cell_length_a 14.824078
_cell_length_b 31.466072
_cell_length_c 7.399071
_cell_angle_alpha 90.000000
_cell_angle_beta 46.073347
_cell_angle_gamma 90.000000
_cell_volume 2485.751477
_symmetry_space_group_name_H-M "C 2/C"
_symmetry_group_IT_number 15
_symmetry_cell_setting 'monoclinic'
loop_
_space_group_symop_operation_xyz
x,y,z
-x,y,1/2-z
-x,-y,-z
x,-y,1/2+z
1/2+x,1/2+y,z
1/2-x,1/2+y,1/2-z
1/2-x,1/2-y,-z
1/2+x,1/2-y,1/2+z
loop_
_atom_site_type_symbol
_atom_site_label
_atom_site_fract_x
_atom_site_fract_y
_atom_site_fract_z
Si Si1 0.884130 0.839300 0.699864
Si Si2 0.710561 0.713223 0.831348
Si Si3 0.023101 0.934821 0.928602
Si Si4 0.147047 0.358309 0.507578
Si Si5 0.023829 0.247782 0.518129
Si Si6 0.283064 0.037532 0.987458
Si Si7 0.367437 0.126841 0.900454
Si Si8 0.252248 0.553223 0.889662
O O1 0.955902 0.883924 0.597304
O O2 0.947344 0.802161 0.503939
O O3 0.862570 0.816930 0.925614
O O4 0.743662 0.851227 0.837591
O O5 0.761433 0.682266 0.600263
O O6 0.842073 0.731996 0.728493
O O7 0.606464 0.747577 0.912766
O O8 0.154573 0.957792 0.782015
O O9 0.000000 0.945437 0.750000
O O10 0.902113 0.946789 0.212350
O O11 0.155984 0.366920 0.279281
O O12 0.196464 0.401806 0.527323
O O13 0.000000 0.353437 0.750000
O O14 0.000000 0.265054 0.750000
O O15 0.365755 0.076492 0.943655
O O16 0.260370 0.049286 0.810148
O O17 0.318388 0.988342 0.940554
O O18 0.500000 0.147035 0.750000
#
# Coordination Sequence:
#
# PCOD9263301 Si02
#       8
#     8   8   8   8   8   8   8   8
#     4  10  21  39  64  88 115 158 202 238 293 360
#     4  11  24  44  65  89 122 161 202 244 298 365
#     4   9  16  33  57  80 110 148 189 235 287 350
#     4  10  22  39  60  83 111 157 202 243 299 358
#     4  12  25  40  62  94 126 155 194 252 305 353
#     4   9  19  32  51  80 109 146 190 239 293 345
#     4   9  20  37  57  82 117 155 198 247 294 352
#     4  10  19  34  55  80 112 148 191 240 293 351
#
# _framework density 25.746742000000001
#
# number of rings (size 3 to 8) (size 9 to 14) (size 15 to 20)
#    0.000    2.000    0.000    5.625    0.000    4.500 
#    0.000    6.250    0.000    0.750    0.000    0.000 
#    0.000    0.000    0.000    0.000    0.000    0.000 
#
# Total GULP energy -178784.614381 kJ/mol
# GULP energy per Si atom -5587.019199 kJ/mol
# Density = 2.568814 g / cm^3
# Si number density = 25.746742 Si / 1000 Ang^3
#
#
#
# Elastic Constant Matrix: (Units=GPa)
#
#
# Indices 1 2 3 4 5 6 
#
# 1 68.2767 22.2472 30.6906 0.0000 -24.3431 0.0000
# 2 22.2472 109.4395 26.2299 0.0000 -10.4886 0.0000
# 3 30.6906 26.2299 107.7079 0.0000 -16.9050 0.0000
# 4 0.0000 0.0000 0.0000 -30.7915 0.0000 40.9644
# 5 -24.3431 -10.4886 -16.9050 0.0000 40.8742 0.0000
# 6 0.0000 0.0000 0.0000 40.9644 0.0000 -6.6958
#
#
#
# Elastic Compliance Matrix: (Units=1/GPa)
#
#
# Indices 1 2 3 4 5 6 
#
# 1 0.020723 -0.002340 -0.003735 0.000000 0.010197 0.000000
# 2 -0.002340 0.010069 -0.001709 0.000000 0.000483 0.000000
# 3 -0.003735 -0.001709 0.011065 0.000000 0.001914 0.000000
# 4 0.000000 0.000000 0.000000 0.004549 0.000000 0.027831
# 5 0.010197 0.000483 0.001914 0.000000 0.031454 0.000000
# 6 0.000000 0.000000 0.000000 0.027831 0.000000 0.020919
#
#
# Mechanical properties :
#
#
# Convention : Reuss Voigt Hill
#
# Bulk Modulus (GPa) = 38.03905 49.30660 43.67282
# Shear Modulus (GPa) = 40.61376 14.42782 27.52079
#
# Velocity S-wave (km/s) = 3.97600 2.36979 3.27296
# Velocity P-wave (km/s) = 5.99037 5.16528 5.59306
#
# Compressibility (1/GPa) = 0.02628878
#
# Stress axis : x y z
#
# Youngs Moduli (GPa) = 48.25540 99.31255 90.37386
#
# Poissons Ratio (x) = 0.23242 0.33751
# Poissons Ratio (y) = 0.11293 0.15449
# Poissons Ratio (z) = 0.18021 0.16977
#
# Static dielectric constant tensor:
#      x y z
#    x 2.135360 0.000000 -0.010290 
#    y 0.000000 2.045570 0.000000 
#    z -0.010290 0.000000 2.063750 
# 
# From -- ./inp_files/52813.got.cif
#   From: 2010.05.17/outbox.cif.g08.bks.cpg/sg15_27_cif.got.tgz:52813.got - 2010.06.03 18:47:42.
