data_PCOD9263085
_publ_section_title
;
Structure prediction by ZEFSAII (Michael W. Deem and Ramdas Pophale) SiO2 
 PCOD9263085
Probable space group: C 2/C
;
_chemical_formula_sum "Si O2"
_cell_formula_units_Z 52
_cell_length_a 7.772412
_cell_length_b 28.614148
_cell_length_c 11.233219
_cell_angle_alpha 90.000000
_cell_angle_beta 81.026433
_cell_angle_gamma 90.000000
_cell_volume 2467.700630
_symmetry_space_group_name_H-M "C 2/C"
_symmetry_group_IT_number 15
_symmetry_cell_setting 'monoclinic'
loop_
_space_group_symop_operation_xyz
x,y,z
-x,y,1/2-z
-x,-y,-z
x,-y,1/2+z
1/2+x,1/2+y,z
1/2-x,1/2+y,1/2-z
1/2-x,1/2-y,-z
1/2+x,1/2-y,1/2+z
loop_
_atom_site_type_symbol
_atom_site_label
_atom_site_fract_x
_atom_site_fract_y
_atom_site_fract_z
Si Si1 0.312562 0.025812 0.024120
Si Si2 0.035888 0.382494 0.499401
Si Si3 0.202593 0.102649 0.722963
Si Si4 0.791991 0.683914 0.896361
Si Si5 0.199893 0.502299 0.723164
Si Si6 0.671627 0.292288 0.661622
Si Si7 0.000000 0.659550 0.250000
O O1 0.222337 0.017710 0.161955
O O2 0.379081 0.079431 0.005800
O O3 0.223152 0.001109 0.918831
O O4 0.500000 0.000000 0.000000
O O5 0.216997 0.394044 0.416915
O O6 0.967231 0.337607 0.433710
O O7 0.064132 0.371647 0.633670
O O8 0.231900 0.148453 0.800489
O O9 0.305456 0.058126 0.760749
O O10 0.000000 0.091474 0.750000
O O11 0.817971 0.736143 0.847038
O O12 0.669932 0.688310 0.026528
O O13 0.000000 0.484124 0.750000
O O14 0.500000 0.306752 0.750000
O O15 0.842502 0.310522 0.711767
#
# Coordination Sequence:
#
# PCOD9263085 Si02
#       7
#     8   8   8   8   8   8   4
#     4  10  19  33  65  84 112 159 208 261 305 362
#     4  11  21  41  63  92 122 158 221 257 309 386
#     4  12  23  35  60  91 124 161 204 258 315 380
#     4  10  22  42  64  90 118 171 210 259 316 378
#     4  10  19  37  59  86 112 158 210 253 308 369
#     4  10  22  43  65  88 132 166 210 266 327 377
#     4  10  26  38  64 100 124 166 216 264 318 388
#
# _framework density 21.072248999999999
#
# number of rings (size 3 to 8) (size 9 to 14) (size 15 to 20)
#    0.000    1.538    4.615    1.385    6.462    0.000 
#    0.000    3.846    0.000    0.923    0.000    0.000 
#    0.000    0.000    0.000    0.000    0.000    0.000 
#
# Total GULP energy -144884.760122 kJ/mol
# GULP energy per Si atom -5572.490774 kJ/mol
# Density = 2.102429 g / cm^3
# Si number density = 21.072249 Si / 1000 Ang^3
#
#
#
# Elastic Constant Matrix: (Units=GPa)
#
#
# Indices 1 2 3 4 5 6 
#
# 1 46.4553 1.1253 41.1429 0.0000 -12.3314 0.0000
# 2 1.1253 69.6749 35.0516 0.0000 -1.0827 0.0000
# 3 41.1429 35.0516 181.1308 0.0000 3.8913 0.0000
# 4 0.0000 0.0000 0.0000 32.6495 0.0000 2.4228
# 5 -12.3314 -1.0827 3.8913 0.0000 27.2886 0.0000
# 6 0.0000 0.0000 0.0000 2.4228 0.0000 35.3608
#
#
#
# Elastic Compliance Matrix: (Units=1/GPa)
#
#
# Indices 1 2 3 4 5 6 
#
# 1 0.033626 0.004140 -0.008796 0.000000 0.016614 0.000000
# 2 0.004140 0.016441 -0.004189 0.000000 0.003121 0.000000
# 3 -0.008796 -0.004189 0.008444 0.000000 -0.005345 0.000000
# 4 0.000000 0.000000 0.000000 0.030785 0.000000 -0.002109
# 5 0.016614 0.003121 -0.005345 0.000000 0.045039 0.000000
# 6 0.000000 0.000000 0.000000 -0.002109 0.000000 0.028424
#
#
# Mechanical properties :
#
#
# Convention : Reuss Voigt Hill
#
# Bulk Modulus (GPa) = 24.49675 50.21120 37.35398
# Shear Modulus (GPa) = 25.76555 33.72253 29.74404
#
# Velocity S-wave (km/s) = 3.50054 4.00475 3.76110
# Velocity P-wave (km/s) = 5.29044 6.72784 6.05197
#
# Compressibility (1/GPa) = 0.04082173
#
# Stress axis : x y z
#
# Youngs Moduli (GPa) = 29.73880 60.82198 118.42224
#
# Poissons Ratio (x) = -0.25181 1.04165
# Poissons Ratio (y) = -0.12312 0.49609
# Poissons Ratio (z) = 0.26159 0.25479
#
# Static dielectric constant tensor:
#      x y z
#    x 1.733730 0.000000 -0.001640 
#    y 0.000000 1.807690 0.000000 
#    z -0.001640 0.000000 1.851970 
# 
# From -- ./inp_files/80703.got.cif
#   From: 2010.05.17/outbox.cif.g08.bks.cpg/sg15_41_cif.got.tgz:80703.got - 2010.06.03 18:47:42.
