data_PCOD9263541
_publ_section_title
;
Structure prediction by ZEFSAII (Michael W. Deem and Ramdas Pophale) SiO2 
 PCOD9263541
Probable space group: C 2/C
;
_chemical_formula_sum "Si O2"
_cell_formula_units_Z 56
_cell_length_a 11.935572
_cell_length_b 29.265642
_cell_length_c 9.212925
_cell_angle_alpha 90.000000
_cell_angle_beta 59.581314
_cell_angle_gamma 90.000000
_cell_volume 2775.119478
_symmetry_space_group_name_H-M "C 2/C"
_symmetry_group_IT_number 15
_symmetry_cell_setting 'monoclinic'
loop_
_space_group_symop_operation_xyz
x,y,z
-x,y,1/2-z
-x,-y,-z
x,-y,1/2+z
1/2+x,1/2+y,z
1/2-x,1/2+y,1/2-z
1/2-x,1/2-y,-z
1/2+x,1/2-y,1/2+z
loop_
_atom_site_type_symbol
_atom_site_label
_atom_site_fract_x
_atom_site_fract_y
_atom_site_fract_z
Si Si1 0.385078 0.312830 0.104561
Si Si2 0.159355 0.849788 0.944016
Si Si3 0.775001 0.865131 0.917320
Si Si4 0.935322 0.284869 0.450768
Si Si5 0.816773 0.295574 0.014928
Si Si6 0.628923 0.548937 0.565207
Si Si7 0.851459 0.037414 0.290455
O O1 0.280256 0.315147 0.299835
O O2 0.531197 0.320533 0.065889
O O3 0.352794 0.352452 0.010808
O O4 0.368421 0.263259 0.038591
O O5 0.148198 0.852469 0.778677
O O6 0.298460 0.827971 0.889492
O O7 0.162665 0.898161 0.022033
O O8 0.764409 0.919660 0.900405
O O9 0.652811 0.830329 0.999271
O O10 0.000000 0.278564 0.250000
O O11 0.045811 0.290381 0.500882
O O12 0.750000 0.250000 0.000000
O O13 0.500000 0.550350 0.750000
O O14 0.630076 0.533398 0.395375
O O15 0.703720 0.509228 0.603448
O O16 0.000000 0.045600 0.250000
#
# Coordination Sequence:
#
# PCOD9263541 Si02
#       7
#     8   8   8   8   8   8   8
#     4  12  23  39  62  84 127 158 204 249 301 370
#     4  11  23  38  61  94 121 158 199 256 314 352
#     4  11  23  40  61  86 120 164 202 244 297 374
#     4  12  25  42  61  86 121 166 209 241 296 364
#     4  12  25  40  59  91 121 162 204 253 300 350
#     4  10  19  34  57  89 126 155 193 250 319 368
#     4  10  20  35  58  91 122 157 199 252 313 364
#
# _framework density 20.179310999999998
#
# number of rings (size 3 to 8) (size 9 to 14) (size 15 to 20)
#    0.000    0.857    2.857    7.286    0.000    2.857 
#    0.000    0.000    0.000    0.857    0.000    0.000 
#    0.000    0.000    0.000    0.000    0.000    0.000 
#
# Total GULP energy -156060.451202 kJ/mol
# GULP energy per Si atom -5573.587543 kJ/mol
# Density = 2.013338 g / cm^3
# Si number density = 20.179311 Si / 1000 Ang^3
#
#
#
# Elastic Constant Matrix: (Units=GPa)
#
#
# Indices 1 2 3 4 5 6 
#
# 1 66.8009 12.5448 3.9335 0.0000 14.2922 0.0000
# 2 12.5448 94.2973 25.5173 0.0000 10.5601 0.0000
# 3 3.9335 25.5173 73.3890 0.0000 20.5084 0.0000
# 4 0.0000 0.0000 0.0000 39.7994 0.0000 5.2428
# 5 14.2922 10.5601 20.5084 0.0000 25.9332 0.0000
# 6 0.0000 0.0000 0.0000 5.2428 0.0000 18.3746
#
#
#
# Elastic Compliance Matrix: (Units=1/GPa)
#
#
# Indices 1 2 3 4 5 6 
#
# 1 0.017534 -0.001847 0.002815 0.000000 -0.011137 0.000000
# 2 -0.001847 0.011981 -0.003836 0.000000 -0.000828 0.000000
# 3 0.002815 -0.003836 0.019006 0.000000 -0.015020 0.000000
# 4 0.000000 0.000000 0.000000 0.026107 0.000000 -0.007449
# 5 -0.011137 -0.000828 -0.015020 0.000000 0.056913 0.000000
# 6 0.000000 0.000000 0.000000 -0.007449 0.000000 0.056548
#
#
# Mechanical properties :
#
#
# Convention : Reuss Voigt Hill
#
# Bulk Modulus (GPa) = 23.37281 35.38650 29.37965
# Shear Modulus (GPa) = 24.02843 29.65423 26.84133
#
# Velocity S-wave (km/s) = 3.45446 3.83761 3.65107
# Velocity P-wave (km/s) = 5.24583 6.10004 5.68899
#
# Compressibility (1/GPa) = 0.04278476
#
# Stress axis : x y z
#
# Youngs Moduli (GPa) = 57.03295 83.46498 52.61506
#
# Poissons Ratio (x) = 0.15416 -0.14809
# Poissons Ratio (y) = 0.10534 0.20181
# Poissons Ratio (z) = -0.16052 0.32013
#
# Static dielectric constant tensor:
#      x y z
#    x 1.761160 0.000000 0.024780 
#    y 0.000000 1.817450 0.000000 
#    z 0.024780 0.000000 1.725480 
# 
# From -- ./inp_files/35563.got.cif
#   From: 2010.05.17/outbox.cif.g08.bks.cpg/sg15_18_cif.got.tgz:35563.got - 2010.06.03 18:47:42.
