data_PCOD9263478
_publ_section_title
;
Structure prediction by ZEFSAII (Michael W. Deem and Ramdas Pophale) SiO2 
 PCOD9263478
Probable space group: C 2/C
;
_chemical_formula_sum "Si O2"
_cell_formula_units_Z 52
_cell_length_a 15.597445
_cell_length_b 8.680118
_cell_length_c 18.180508
_cell_angle_alpha 90.000000
_cell_angle_beta 114.691690
_cell_angle_gamma 90.000000
_cell_volume 2236.366165
_symmetry_space_group_name_H-M "C 2/C"
_symmetry_group_IT_number 15
_symmetry_cell_setting 'monoclinic'
loop_
_space_group_symop_operation_xyz
x,y,z
-x,y,1/2-z
-x,-y,-z
x,-y,1/2+z
1/2+x,1/2+y,z
1/2-x,1/2+y,1/2-z
1/2-x,1/2-y,-z
1/2+x,1/2-y,1/2+z
loop_
_atom_site_type_symbol
_atom_site_label
_atom_site_fract_x
_atom_site_fract_y
_atom_site_fract_z
Si Si1 0.502150 0.798539 0.037900
Si Si2 0.000000 0.219486 0.250000
Si Si3 0.859006 0.490891 0.816744
Si Si4 0.860147 0.409391 0.094747
Si Si5 0.035654 0.302851 0.875625
Si Si6 0.724372 0.679484 0.659140
Si Si7 0.540396 0.494764 0.641689
O O1 0.402313 0.867499 0.030089
O O2 0.505554 0.624139 0.067830
O O3 0.585220 0.895700 0.107761
O O4 0.517710 0.808565 0.957203
O O5 0.935220 0.320321 0.173907
O O6 0.938236 0.111226 0.280515
O O7 0.943757 0.390422 0.809826
O O8 0.800020 0.596302 0.740086
O O9 0.793846 0.358655 0.829551
O O10 0.761042 0.352744 0.089785
O O11 0.874605 0.592349 0.109504
O O12 0.034951 0.122848 0.858614
O O13 0.628355 0.588772 0.642365
#
# Coordination Sequence:
#
# PCOD9263478 Si02
#       7
#     8   4   8   8   8   8   8
#     4  10  20  40  59  80 113 157 197 232 281 354
#     4  10  20  36  56  82 110 150 186 232 290 342
#     4  10  20  34  56  81 116 150 188 241 291 348
#     4  10  19  34  57  82 112 146 192 238 285 349
#     4  10  21  37  60  84 110 157 200 232 281 353
#     4  11  21  35  55  89 116 147 189 248 310 337
#     4  10  22  38  60  86 118 147 189 245 292 346
#
# _framework density 23.252006000000002
#
# number of rings (size 3 to 8) (size 9 to 14) (size 15 to 20)
#    0.000    1.846    0.000    6.923    0.000    3.077 
#    0.000   10.769    0.000    1.846    0.000    0.000 
#    0.000    0.000    0.000    0.000    0.000    0.000 
#
# Total GULP energy -145309.641420 kJ/mol
# GULP energy per Si atom -5588.832362 kJ/mol
# Density = 2.319908 g / cm^3
# Si number density = 23.252006 Si / 1000 Ang^3
#
#
#
# Elastic Constant Matrix: (Units=GPa)
#
#
# Indices 1 2 3 4 5 6 
#
# 1 84.9174 35.6784 13.3304 0.0000 -13.7355 0.0000
# 2 35.6784 169.5121 27.5188 0.0000 2.3727 0.0000
# 3 13.3304 27.5188 64.7923 0.0000 -8.2208 0.0000
# 4 0.0000 0.0000 0.0000 34.9250 0.0000 3.3752
# 5 -13.7355 2.3727 -8.2208 0.0000 32.0873 0.0000
# 6 0.0000 0.0000 0.0000 3.3752 0.0000 35.2616
#
#
#
# Elastic Compliance Matrix: (Units=1/GPa)
#
#
# Indices 1 2 3 4 5 6 
#
# 1 0.014115 -0.002908 -0.000904 0.000000 0.006025 0.000000
# 2 -0.002908 0.006980 -0.002677 0.000000 -0.002447 0.000000
# 3 -0.000904 -0.002677 0.017295 0.000000 0.004242 0.000000
# 4 0.000000 0.000000 0.000000 0.028900 0.000000 -0.002766
# 5 0.006025 -0.002447 0.004242 0.000000 0.035012 0.000000
# 6 0.000000 0.000000 0.000000 -0.002766 0.000000 0.028624
#
#
# Mechanical properties :
#
#
# Convention : Reuss Voigt Hill
#
# Bulk Modulus (GPa) = 39.35257 52.47523 45.91390
# Shear Modulus (GPa) = 32.81370 36.63440 34.72405
#
# Velocity S-wave (km/s) = 3.76070 3.97361 3.86862
# Velocity P-wave (km/s) = 5.98483 6.60831 6.30429
#
# Compressibility (1/GPa) = 0.02541130
#
# Stress axis : x y z
#
# Youngs Moduli (GPa) = 70.84827 143.26182 57.81998
#
# Poissons Ratio (x) = 0.41666 0.05228
# Poissons Ratio (y) = 0.20605 0.15477
# Poissons Ratio (z) = 0.06406 0.38348
#
# Static dielectric constant tensor:
#      x y z
#    x 1.911940 0.000000 -0.022610 
#    y 0.000000 1.895230 0.000000 
#    z -0.022610 0.000000 1.920040 
# 
# From -- ./inp_files/209027.got.cif
#   From: 2010.05.17/outbox.cif.g08.bks.cpg/sg15_105_cif.got.tgz:209027.got - 2010.06.03 18:47:42.
