data_PCOD9263615
_publ_section_title
;
Structure prediction by ZEFSAII (Michael W. Deem and Ramdas Pophale) SiO2 
 PCOD9263615
Probable space group: C 2/C
;
_chemical_formula_sum "Si O2"
_cell_formula_units_Z 64
_cell_length_a 30.891527
_cell_length_b 20.790994
_cell_length_c 19.624270
_cell_angle_alpha 90.000000
_cell_angle_beta 163.191141
_cell_angle_gamma 90.000000
_cell_volume 3644.820227
_symmetry_space_group_name_H-M "C 2/C"
_symmetry_group_IT_number 15
_symmetry_cell_setting 'monoclinic'
loop_
_space_group_symop_operation_xyz
x,y,z
-x,y,1/2-z
-x,-y,-z
x,-y,1/2+z
1/2+x,1/2+y,z
1/2-x,1/2+y,1/2-z
1/2-x,1/2-y,-z
1/2+x,1/2-y,1/2+z
loop_
_atom_site_type_symbol
_atom_site_label
_atom_site_fract_x
_atom_site_fract_y
_atom_site_fract_z
Si Si1 0.122920 0.261717 0.057455
Si Si2 0.411590 0.647335 0.787388
Si Si3 0.056119 0.382644 0.762077
Si Si4 0.419456 0.611873 0.201205
Si Si5 0.406852 0.463724 0.179285
Si Si6 0.121269 0.679241 0.703176
Si Si7 0.437716 0.706317 0.976282
Si Si8 0.936113 0.437533 0.866797
O O1 0.162145 0.287227 0.192620
O O2 0.279377 0.258508 0.252835
O O3 0.005364 0.202858 0.888331
O O4 0.035271 0.317973 0.887631
O O5 0.229950 0.638526 0.515089
O O6 0.459961 0.582211 0.820991
O O7 0.441381 0.667011 0.910626
O O8 0.014335 0.430266 0.637346
O O9 0.000000 0.408856 0.750000
O O10 0.500000 0.610516 0.250000
O O11 0.404105 0.537611 0.199805
O O12 0.517442 0.655215 0.398968
O O13 0.258408 0.643712 0.945523
O O14 0.500000 0.458747 0.250000
O O15 0.241574 0.442728 0.906472
O O16 0.056390 0.736190 0.650926
O O17 0.996372 0.625928 0.495647
O O18 0.000000 0.500000 0.000000
#
# Coordination Sequence:
#
# PCOD9263615 Si02
#       8
#     8   8   8   8   8   8   8   8
#     4  10  20  35  57  85 117 151 189 239 295 351
#     4  10  22  38  54  89 120 149 193 240 300 345
#     4  10  19  34  58  86 116 153 194 237 287 357
#     4  11  21  39  61  84 115 157 204 236 285 351
#     4  10  23  38  61  88 116 153 193 245 293 350
#     4  10  21  37  59  87 111 152 202 241 286 343
#     4  11  22  36  62  84 118 158 190 245 295 344
#     4  10  20  38  62  84 117 154 195 240 294 355
#
# _framework density 17.559165
#
# number of rings (size 3 to 8) (size 9 to 14) (size 15 to 20)
#    0.000    1.750    3.750    0.750    1.750    2.000 
#    0.000    0.000    0.000    0.750    0.000    0.000 
#    0.000    0.000    0.000    0.000    0.000    0.000 
#
# Total GULP energy -178167.178600 kJ/mol
# GULP energy per Si atom -5567.724331 kJ/mol
# Density = 1.751920 g / cm^3
# Si number density = 17.559165 Si / 1000 Ang^3
#
#
#
# Elastic Constant Matrix: (Units=GPa)
#
#
# Indices 1 2 3 4 5 6 
#
# 1 80.5777 50.0820 26.6284 0.0000 4.2489 0.0000
# 2 50.0820 95.2960 32.0877 0.0000 5.1988 0.0000
# 3 26.6284 32.0877 58.6740 0.0000 10.1151 0.0000
# 4 0.0000 0.0000 0.0000 23.0214 0.0000 4.0554
# 5 4.2489 5.1988 10.1151 0.0000 22.2774 0.0000
# 6 0.0000 0.0000 0.0000 4.0554 0.0000 18.4532
#
#
#
# Elastic Compliance Matrix: (Units=1/GPa)
#
#
# Indices 1 2 3 4 5 6 
#
# 1 0.019134 -0.008741 -0.003934 0.000000 0.000177 0.000000
# 2 -0.008741 0.016856 -0.005273 0.000000 0.000128 0.000000
# 3 -0.003934 -0.005273 0.023186 0.000000 -0.008547 0.000000
# 4 0.000000 0.000000 0.000000 0.045187 0.000000 -0.009931
# 5 0.000177 0.000128 -0.008547 0.000000 0.048706 0.000000
# 6 0.000000 0.000000 0.000000 -0.009931 0.000000 0.056374
#
#
# Mechanical properties :
#
#
# Convention : Reuss Voigt Hill
#
# Bulk Modulus (GPa) = 42.95589 50.23822 46.59705
# Shear Modulus (GPa) = 19.75520 21.13369 20.44445
#
# Velocity S-wave (km/s) = 3.35784 3.47301 3.41591
# Velocity P-wave (km/s) = 6.28888 6.68995 6.49251
#
# Compressibility (1/GPa) = 0.02327969
#
# Stress axis : x y z
#
# Youngs Moduli (GPa) = 52.26376 59.32669 43.12934
#
# Poissons Ratio (x) = 0.51855 0.16967
# Poissons Ratio (y) = 0.45681 0.22744
# Poissons Ratio (z) = 0.20560 0.31285
#
# Static dielectric constant tensor:
#      x y z
#    x 2.060490 0.000000 0.325910 
#    y 0.000000 1.584340 0.000000 
#    z 0.325910 0.000000 1.827620 
# 
# From -- ./inp_files/223179.got.cif
#   From: 2010.05.17/outbox.cif.g08.bks.cpg/sg15_112_cif.got.tgz:223179.got - 2010.06.03 18:47:42.
