data_PCOD9263940
_publ_section_title
;
Structure prediction by ZEFSAII (Michael W. Deem and Ramdas Pophale) SiO2 
 PCOD9263940
Probable space group: C 2/C
;
_chemical_formula_sum "Si O2"
_cell_formula_units_Z 40
_cell_length_a 7.286133
_cell_length_b 12.572202
_cell_length_c 25.897244
_cell_angle_alpha 90.000000
_cell_angle_beta 140.863686
_cell_angle_gamma 90.000000
_cell_volume 1497.292495
_symmetry_space_group_name_H-M "C 2/C"
_symmetry_group_IT_number 15
_symmetry_cell_setting 'monoclinic'
loop_
_space_group_symop_operation_xyz
x,y,z
-x,y,1/2-z
-x,-y,-z
x,-y,1/2+z
1/2+x,1/2+y,z
1/2-x,1/2+y,1/2-z
1/2-x,1/2-y,-z
1/2+x,1/2-y,1/2+z
loop_
_atom_site_type_symbol
_atom_site_label
_atom_site_fract_x
_atom_site_fract_y
_atom_site_fract_z
Si Si1 0.400727 0.983390 0.286320
Si Si2 0.670120 0.618173 0.463909
Si Si3 0.678581 0.829862 0.659998
Si Si4 0.296981 0.466870 0.115132
Si Si5 0.195973 0.186783 0.574767
O O1 0.500000 0.985247 0.250000
O O2 0.584086 0.903698 0.360288
O O3 0.073494 0.936764 0.209279
O O4 0.426850 0.104063 0.313271
O O5 0.601570 0.509733 0.418971
O O6 0.634135 0.716039 0.416814
O O7 0.525173 0.638128 0.488042
O O8 0.021263 0.608182 0.548638
O O9 0.557602 0.734781 0.597398
O O10 0.000000 0.793688 0.750000
O O11 0.690334 0.927589 0.621959
#
# Coordination Sequence:
#
# PCOD9263940 Si02
#       5
#     8   8   8   8   8
#     4  11  22  37  63  94 129 184 228 270 338 403
#     4   9  18  35  65  96 128 174 219 279 346 398
#     4   9  18  35  62  87 125 172 219 273 329 386
#     4   9  18  37  65  92 127 181 224 263 347 403
#     4  10  19  34  64  94 128 169 219 280 336 395
#
# _framework density 26.714886
#
# number of rings (size 3 to 8) (size 9 to 14) (size 15 to 20)
#    0.000    2.400    2.000    0.600    0.000    0.000 
#    0.000    2.000   70.400    0.000    0.000    0.000 
#    0.000    0.000    0.000    0.000    0.000    0.000 
#
# Total GULP energy -111696.364095 kJ/mol
# GULP energy per Si atom -5584.818205 kJ/mol
# Density = 2.665408 g / cm^3
# Si number density = 26.714886 Si / 1000 Ang^3
#
#
#
# Elastic Constant Matrix: (Units=GPa)
#
#
# Indices 1 2 3 4 5 6 
#
# 1 66.7653 41.9481 56.6341 0.0000 -30.4667 0.0000
# 2 41.9481 94.5969 40.7429 0.0000 -9.2669 0.0000
# 3 56.6341 40.7429 127.5235 0.0000 -18.5223 0.0000
# 4 0.0000 0.0000 0.0000 47.2909 0.0000 -15.8139
# 5 -30.4667 -9.2669 -18.5223 0.0000 52.2689 0.0000
# 6 0.0000 0.0000 0.0000 -15.8139 0.0000 35.8786
#
#
#
# Elastic Compliance Matrix: (Units=1/GPa)
#
#
# Indices 1 2 3 4 5 6 
#
# 1 0.039222 -0.010776 -0.011526 0.000000 0.016867 0.000000
# 2 -0.010776 0.015253 -0.000640 0.000000 -0.003804 0.000000
# 3 -0.011526 -0.000640 0.012833 0.000000 -0.002284 0.000000
# 4 0.000000 0.000000 0.000000 0.024801 0.000000 0.010931
# 5 0.016867 -0.003804 -0.002284 0.000000 0.027480 0.000000
# 6 0.000000 0.000000 0.000000 0.010931 0.000000 0.032690
#
#
# Mechanical properties :
#
#
# Convention : Reuss Voigt Hill
#
# Bulk Modulus (GPa) = 46.67664 63.05954 54.86809
# Shear Modulus (GPa) = 24.35403 37.05839 30.70621
#
# Velocity S-wave (km/s) = 3.02259 3.72853 3.39396
# Velocity P-wave (km/s) = 5.44899 6.49552 5.99514
#
# Compressibility (1/GPa) = 0.02142399
#
# Stress axis : x y z
#
# Youngs Moduli (GPa) = 25.49557 65.56199 77.92292
#
# Poissons Ratio (x) = 0.70651 0.89815
# Poissons Ratio (y) = 0.27475 0.04986
# Poissons Ratio (z) = 0.29387 0.04195
#
# Static dielectric constant tensor:
#      x y z
#    x 2.210550 0.000000 -0.004620 
#    y 0.000000 2.078360 0.000000 
#    z -0.004620 0.000000 2.154240 
# 
# From -- ./inp_files/288545.got.cif
#   From: 2010.05.17/outbox.cif.g08.bks.cpg/sg15_145_cif.got.tgz:288545.got - 2010.06.03 18:47:42.
