data_PCOD9263315
_publ_section_title
;
Structure prediction by ZEFSAII (Michael W. Deem and Ramdas Pophale) SiO2 
 PCOD9263315
Probable space group: C 2/C
;
_chemical_formula_sum "Si O2"
_cell_formula_units_Z 56
_cell_length_a 15.910361
_cell_length_b 25.947107
_cell_length_c 11.073498
_cell_angle_alpha 90.000000
_cell_angle_beta 39.463780
_cell_angle_gamma 90.000000
_cell_volume 2905.568186
_symmetry_space_group_name_H-M "C 2/C"
_symmetry_group_IT_number 15
_symmetry_cell_setting 'monoclinic'
loop_
_space_group_symop_operation_xyz
x,y,z
-x,y,1/2-z
-x,-y,-z
x,-y,1/2+z
1/2+x,1/2+y,z
1/2-x,1/2+y,1/2-z
1/2-x,1/2-y,-z
1/2+x,1/2-y,1/2+z
loop_
_atom_site_type_symbol
_atom_site_label
_atom_site_fract_x
_atom_site_fract_y
_atom_site_fract_z
Si Si1 0.351980 0.100737 0.361923
Si Si2 0.150633 0.037662 0.728313
Si Si3 0.514830 0.398691 0.933052
Si Si4 0.851176 0.500004 0.710462
Si Si5 0.683560 0.437301 0.552791
Si Si6 0.305960 0.783288 0.826468
Si Si7 0.476276 0.702541 0.922185
O O1 0.500000 0.093241 0.250000
O O2 0.235639 0.086223 0.584904
O O3 0.330495 0.056985 0.285628
O O4 0.339619 0.158930 0.330053
O O5 0.247751 0.012644 0.720027
O O6 0.131184 0.993706 0.650979
O O7 0.014256 0.057179 0.936039
O O8 0.652512 0.404155 0.707487
O O9 0.401820 0.410361 0.957789
O O10 0.493284 0.346044 0.027879
O O11 0.000000 0.500000 0.500000
O O12 0.823602 0.544774 0.841865
O O13 0.433577 0.751440 0.644872
O O14 0.250000 0.750000 0.000000
O O15 0.178016 0.785953 0.884581
O O16 0.500000 0.691781 0.750000
#
# Coordination Sequence:
#
# PCOD9263315 Si02
#       7
#     8   8   8   8   8   8   8
#     4  11  20  33  56  85 120 154 198 248 311 365
#     4  10  19  34  55  82 124 161 199 244 297 367
#     4  10  20  38  56  85 118 162 201 247 306 361
#     4  10  20  35  54  87 121 162 204 242 297 361
#     4   9  21  35  55  83 117 162 200 244 287 358
#     4  10  21  37  57  90 116 149 195 260 317 368
#     4  10  21  39  62  88 122 151 201 262 322 376
#
# _framework density 19.273339
#
# number of rings (size 3 to 8) (size 9 to 14) (size 15 to 20)
#    0.000    2.000    1.429    3.429    2.000    0.000 
#   10.286    0.000    0.000    3.429    0.000    0.000 
#    0.000    0.000    0.000    0.000    0.000    0.000 
#
# Total GULP energy -156020.218049 kJ/mol
# GULP energy per Si atom -5572.150645 kJ/mol
# Density = 1.922947 g / cm^3
# Si number density = 19.273339 Si / 1000 Ang^3
#
#
#
# Elastic Constant Matrix: (Units=GPa)
#
#
# Indices 1 2 3 4 5 6 
#
# 1 69.1124 57.6680 44.4263 0.0000 -12.0640 0.0000
# 2 57.6680 153.7734 48.9192 0.0000 1.2695 0.0000
# 3 44.4263 48.9192 109.4416 0.0000 2.7890 0.0000
# 4 0.0000 0.0000 0.0000 25.0737 0.0000 -5.5848
# 5 -12.0640 1.2695 2.7890 0.0000 20.2045 0.0000
# 6 0.0000 0.0000 0.0000 -5.5848 0.0000 29.0274
#
#
#
# Elastic Compliance Matrix: (Units=1/GPa)
#
#
# Indices 1 2 3 4 5 6 
#
# 1 0.031663 -0.009080 -0.009324 0.000000 0.020764 0.000000
# 2 -0.009080 0.010185 -0.000715 0.000000 -0.005963 0.000000
# 3 -0.009324 -0.000715 0.013430 0.000000 -0.007376 0.000000
# 4 0.000000 0.000000 0.000000 0.041668 0.000000 0.008017
# 5 0.020764 -0.005963 -0.007376 0.000000 0.063285 0.000000
# 6 0.000000 0.000000 0.000000 0.008017 0.000000 0.035993
#
#
# Mechanical properties :
#
#
# Convention : Reuss Voigt Hill
#
# Bulk Modulus (GPa) = 58.68172 70.48383 64.58278
# Shear Modulus (GPa) = 20.82121 26.94873 23.88497
#
# Velocity S-wave (km/s) = 3.29038 3.74336 3.52415
# Velocity P-wave (km/s) = 6.70437 7.43866 7.08104
#
# Compressibility (1/GPa) = 0.01704108
#
# Stress axis : x y z
#
# Youngs Moduli (GPa) = 31.58238 98.18642 74.46193
#
# Poissons Ratio (x) = 0.89149 0.69428
# Poissons Ratio (y) = 0.28675 0.05322
# Poissons Ratio (z) = 0.29447 0.07018
#
# Static dielectric constant tensor:
#      x y z
#    x 1.679560 0.000000 0.019380 
#    y 0.000000 1.674540 0.000000 
#    z 0.019380 0.000000 1.766760 
# 
# From -- ./inp_files/101108.got.cif
#   From: 2010.05.17/outbox.cif.g08.bks.cpg/sg15_51_cif.got.tgz:101108.got - 2010.06.03 18:47:42.
