data_PCOD9263084
_publ_section_title
;
Structure prediction by ZEFSAII (Michael W. Deem and Ramdas Pophale) SiO2 
 PCOD9263084
Probable space group: C 2/C
;
_chemical_formula_sum "Si O2"
_cell_formula_units_Z 40
_cell_length_a 8.044357
_cell_length_b 22.996344
_cell_length_c 11.106846
_cell_angle_alpha 90.000000
_cell_angle_beta 121.274152
_cell_angle_gamma 90.000000
_cell_volume 1756.107462
_symmetry_space_group_name_H-M "C 2/C"
_symmetry_group_IT_number 15
_symmetry_cell_setting 'monoclinic'
loop_
_space_group_symop_operation_xyz
x,y,z
-x,y,1/2-z
-x,-y,-z
x,-y,1/2+z
1/2+x,1/2+y,z
1/2-x,1/2+y,1/2-z
1/2-x,1/2-y,-z
1/2+x,1/2-y,1/2+z
loop_
_atom_site_type_symbol
_atom_site_label
_atom_site_fract_x
_atom_site_fract_y
_atom_site_fract_z
Si Si1 0.284536 0.887739 0.356525
Si Si2 0.000000 0.910496 0.750000
Si Si3 0.263591 0.201098 0.653841
Si Si4 0.321273 0.167476 0.410374
Si Si5 0.500000 0.971865 0.250000
Si Si6 0.166228 0.988226 0.467277
O O1 0.199431 0.835786 0.244613
O O2 0.469155 0.862099 0.499175
O O3 0.369344 0.931389 0.286292
O O4 0.156110 0.927461 0.394931
O O5 0.168091 0.866194 0.768184
O O6 0.138177 0.956185 0.871477
O O7 0.500000 0.208031 0.750000
O O8 0.232869 0.168299 0.514685
O O9 0.169442 0.264513 0.616832
O O10 0.631188 0.009090 0.387708
O O11 0.000000 0.000000 0.500000
#
# Coordination Sequence:
#
# PCOD9263084 Si02
#       6
#     8   4   8   8   4   8
#     4  11  21  42  67 100 143 186 235 298 356 425
#     4  12  22  39  64 104 133 182 238 294 350 436
#     4   9  17  35  63 104 141 183 230 289 355 426
#     4  10  19  33  65 107 139 179 232 287 355 430
#     4  12  22  43  66 104 139 184 234 298 370 418
#     4  12  28  42  65 100 143 192 242 296 366 426
#
# _framework density 22.777650999999999
#
# number of rings (size 3 to 8) (size 9 to 14) (size 15 to 20)
#    0.000    1.200    6.000    1.800    2.800    0.000 
#    0.000    0.000    0.000    1.200   20.800    0.000 
#    0.000    0.000    0.000    0.000    0.000    0.000 
#
# Total GULP energy -111734.688402 kJ/mol
# GULP energy per Si atom -5586.734420 kJ/mol
# Density = 2.272581 g / cm^3
# Si number density = 22.777651 Si / 1000 Ang^3
#
#
#
# Elastic Constant Matrix: (Units=GPa)
#
#
# Indices 1 2 3 4 5 6 
#
# 1 65.7801 50.3542 20.9757 0.0000 -11.6935 0.0000
# 2 50.3542 147.1120 53.3524 0.0000 -1.1019 0.0000
# 3 20.9757 53.3524 115.3899 0.0000 25.7791 0.0000
# 4 0.0000 0.0000 0.0000 -11.1127 0.0000 -66.8590
# 5 -11.6935 -1.1019 25.7791 0.0000 24.2047 0.0000
# 6 0.0000 0.0000 0.0000 -66.8590 0.0000 -59.9066
#
#
#
# Elastic Compliance Matrix: (Units=1/GPa)
#
#
# Indices 1 2 3 4 5 6 
#
# 1 0.025032 -0.006430 -0.005529 0.000000 0.017689 0.000000
# 2 -0.006430 0.010482 -0.004055 0.000000 0.001689 0.000000
# 3 -0.005529 -0.004055 0.015988 0.000000 -0.019884 0.000000
# 4 0.000000 0.000000 0.000000 0.015747 0.000000 -0.017574
# 5 0.017689 0.001689 -0.019884 0.000000 0.071114 0.000000
# 6 0.000000 0.000000 0.000000 -0.017574 0.000000 0.002921
#
#
# Mechanical properties :
#
#
# Convention : Reuss Voigt Hill
#
# Bulk Modulus (GPa) = 51.35128 64.18296 57.76712
# Shear Modulus (GPa) = 27.80795 4.21040 16.00918
#
# Velocity S-wave (km/s) = 3.49785 1.36106 2.65400
# Velocity P-wave (km/s) = 6.23753 5.54159 5.89983
#
# Compressibility (1/GPa) = 0.01947371
#
# Stress axis : x y z
#
# Youngs Moduli (GPa) = 39.94846 95.40339 62.54502
#
# Poissons Ratio (x) = 0.61349 0.34582
# Poissons Ratio (y) = 0.25689 0.25361
# Poissons Ratio (z) = 0.22088 0.38685
#
# Static dielectric constant tensor:
#      x y z
#    x 1.789120 0.000000 -0.140500 
#    y 0.000000 1.191430 0.000000 
#    z -0.140500 0.000000 1.665480 
# 
# From -- ./inp_files/79559.got.cif
#   From: 2010.05.17/outbox.cif.g08.bks.cpg/sg15_40_cif.got.tgz:79559.got - 2010.06.03 18:47:42.
