data_PCOD9263043
_publ_section_title
;
Structure prediction by ZEFSAII (Michael W. Deem and Ramdas Pophale) SiO2 
 PCOD9263043
Probable space group: C 2/C
;
_chemical_formula_sum "Si O2"
_cell_formula_units_Z 52
_cell_length_a 33.787247
_cell_length_b 14.231245
_cell_length_c 16.864541
_cell_angle_alpha 90.000000
_cell_angle_beta 162.356384
_cell_angle_gamma 90.000000
_cell_volume 2457.817267
_symmetry_space_group_name_H-M "C 2/C"
_symmetry_group_IT_number 15
_symmetry_cell_setting 'monoclinic'
loop_
_space_group_symop_operation_xyz
x,y,z
-x,y,1/2-z
-x,-y,-z
x,-y,1/2+z
1/2+x,1/2+y,z
1/2-x,1/2+y,1/2-z
1/2-x,1/2-y,-z
1/2+x,1/2-y,1/2+z
loop_
_atom_site_type_symbol
_atom_site_label
_atom_site_fract_x
_atom_site_fract_y
_atom_site_fract_z
Si Si1 0.145644 0.124165 0.173598
Si Si2 0.220435 0.070793 0.905837
Si Si3 0.976714 0.196419 0.409646
Si Si4 0.996569 0.457628 0.582794
Si Si5 0.797410 0.950843 0.472742
Si Si6 0.500000 0.454875 0.250000
Si Si7 0.058303 0.350835 0.280073
O O1 0.090952 0.195594 0.134160
O O2 0.287071 0.155444 0.416452
O O3 0.170744 0.023267 0.264894
O O4 0.049690 0.106093 0.918281
O O5 0.117375 0.150752 0.690485
O O6 0.365980 0.097524 0.155158
O O7 0.214158 0.037148 0.985739
O O8 0.982902 0.293645 0.376181
O O9 0.886653 0.128066 0.184038
O O10 0.852385 0.417499 0.323576
O O11 0.000000 0.500000 0.500000
O O12 0.015474 0.542698 0.680972
O O13 0.876778 0.984714 0.547093
O O14 0.000000 0.313610 0.250000
#
# Coordination Sequence:
#
# PCOD9263043 Si02
#       7
#     8   8   8   8   8   4   8
#     4  10  20  35  58  86 116 160 205 249 293 363
#     4   9  17  37  59  88 114 152 204 247 287 366
#     4  11  20  38  63  91 119 155 204 250 304 363
#     4   9  20  39  63  84 117 157 200 242 300 364
#     4  10  19  33  60  91 113 152 204 251 296 352
#     4  12  18  30  62  88 118 152 220 256 288 350
#     4  11  24  39  59  89 127 157 196 249 314 359
#
# _framework density 21.156984000000001
#
# number of rings (size 3 to 8) (size 9 to 14) (size 15 to 20)
#    0.000    1.846    3.077    3.231    1.077    0.000 
#    0.000    3.077    6.769    0.000    0.000    0.000 
#    0.000    0.000    0.000    0.000    0.000    0.000 
#
# Total GULP energy -145237.441607 kJ/mol
# GULP energy per Si atom -5586.055446 kJ/mol
# Density = 2.110883 g / cm^3
# Si number density = 21.156984 Si / 1000 Ang^3
#
#
#
# Elastic Constant Matrix: (Units=GPa)
#
#
# Indices 1 2 3 4 5 6 
#
# 1 120.6512 12.0688 33.4593 0.0000 14.4764 0.0000
# 2 12.0688 16.2328 18.5814 0.0000 14.4304 0.0000
# 3 33.4593 18.5814 132.2723 0.0000 33.8342 0.0000
# 4 0.0000 0.0000 0.0000 -13.7818 0.0000 2.3528
# 5 14.4764 14.4304 33.8342 0.0000 34.2792 0.0000
# 6 0.0000 0.0000 0.0000 2.3528 0.0000 16.1903
#
#
#
# Elastic Compliance Matrix: (Units=1/GPa)
#
#
# Indices 1 2 3 4 5 6 
#
# 1 0.009244 -0.004761 -0.001583 0.000000 -0.000337 0.000000
# 2 -0.004761 0.102776 -0.003586 0.000000 -0.037715 0.000000
# 3 -0.001583 -0.003586 0.010578 0.000000 -0.008262 0.000000
# 4 0.000000 0.000000 0.000000 -0.070803 0.000000 0.010289
# 5 -0.000337 -0.037715 -0.008262 0.000000 0.053346 0.000000
# 6 0.000000 0.000000 0.000000 0.010289 0.000000 0.060270
#
#
# Mechanical properties :
#
#
# Convention : Reuss Voigt Hill
#
# Bulk Modulus (GPa) = 9.73358 44.15280 26.94319
# Shear Modulus (GPa) = 22.77711 21.00733 21.89222
#
# Velocity S-wave (km/s) = 3.28468 3.15449 3.22024
# Velocity P-wave (km/s) = 4.35846 5.84655 5.15647
#
# Compressibility (1/GPa) = 0.10273713
#
# Stress axis : x y z
#
# Youngs Moduli (GPa) = 108.17682 9.72987 94.53686
#
# Poissons Ratio (x) = 0.04632 0.14969
# Poissons Ratio (y) = 0.51502 0.33903
# Poissons Ratio (z) = 0.17129 0.03489
#
# Static dielectric constant tensor:
#      x y z
#    x 1.756070 0.000000 0.004140 
#    y 0.000000 1.761390 0.000000 
#    z 0.004140 0.000000 1.786030 
# 
# From -- ./inp_files/182894.got.cif
#   From: 2010.05.17/outbox.cif.g08.bks.cpg/sg15_92_cif.got.tgz:182894.got - 2010.06.03 18:47:42.
