data_PCOD9263108
_publ_section_title
;
Structure prediction by ZEFSAII (Michael W. Deem and Ramdas Pophale) SiO2 
 PCOD9263108
Probable space group: C 2/C
;
_chemical_formula_sum "Si O2"
_cell_formula_units_Z 48
_cell_length_a 11.464440
_cell_length_b 26.855732
_cell_length_c 15.460115
_cell_angle_alpha 90.000000
_cell_angle_beta 151.353868
_cell_angle_gamma 90.000000
_cell_volume 2281.914329
_symmetry_space_group_name_H-M "C 2/C"
_symmetry_group_IT_number 15
_symmetry_cell_setting 'monoclinic'
loop_
_space_group_symop_operation_xyz
x,y,z
-x,y,1/2-z
-x,-y,-z
x,-y,1/2+z
1/2+x,1/2+y,z
1/2-x,1/2+y,1/2-z
1/2-x,1/2-y,-z
1/2+x,1/2-y,1/2+z
loop_
_atom_site_type_symbol
_atom_site_label
_atom_site_fract_x
_atom_site_fract_y
_atom_site_fract_z
Si Si1 0.285699 0.399764 0.778413
Si Si2 0.897748 0.302796 0.781996
Si Si3 0.626369 0.958204 0.521224
Si Si4 0.797864 0.812628 0.188577
Si Si5 0.135203 0.094036 0.651067
Si Si6 0.321635 0.044959 0.056384
O O1 0.305185 0.343091 0.826150
O O2 0.278004 0.418206 0.675273
O O3 0.014997 0.418766 0.632622
O O4 0.513520 0.420751 0.980052
O O5 0.840195 0.244437 0.744012
O O6 0.000000 0.313409 0.750000
O O7 0.067384 0.311789 0.975657
O O8 0.394831 0.931869 0.327839
O O9 0.500000 0.000000 0.500000
O O10 0.760250 0.994472 0.542585
O O11 0.811412 0.850207 0.277556
O O12 0.000000 0.827221 0.250000
O O13 0.920195 0.073998 0.574192
O O14 0.500000 0.029703 0.250000
#
# Coordination Sequence:
#
# PCOD9263108 Si02
#       6
#     8   8   8   8   8   8
#     4  10  19  34  50  73 107 140 182 221 255 317
#     4  11  19  31  45  77 107 138 190 211 246 327
#     4  10  22  35  51  77 103 142 188 226 263 319
#     4  11  20  29  49  73 104 147 183 209 256 321
#     4  11  21  36  55  72 109 152 178 219 277 303
#     4   9  20  35  54  75 103 144 187 223 267 324
#
# _framework density 21.034970000000001
#
# number of rings (size 3 to 8) (size 9 to 14) (size 15 to 20)
#    0.000    1.667    1.667    6.500    2.333    6.000 
#    0.000    1.667    0.000    0.000    0.000    0.000 
#    0.000    1.333    2.000    2.667    1.667    0.000 
#
# Total GULP energy -133628.226368 kJ/mol
# GULP energy per Si atom -5567.842765 kJ/mol
# Density = 2.098709 g / cm^3
# Si number density = 21.034970 Si / 1000 Ang^3
#
#
#
# Elastic Constant Matrix: (Units=GPa)
#
#
# Indices 1 2 3 4 5 6 
#
# 1 20.0825 22.3836 24.5915 -0.0004 -9.3088 -0.0006
# 2 22.3836 98.0637 48.5941 -0.0016 -13.6392 -0.0012
# 3 24.5915 48.5941 135.7927 0.0025 -19.8177 0.0016
# 4 -0.0004 -0.0016 0.0025 41.7731 0.0013 -4.6261
# 5 -9.3088 -13.6392 -19.8177 0.0013 12.5064 0.0007
# 6 -0.0006 -0.0012 0.0016 -4.6261 0.0007 25.8357
#
#
#
# Elastic Compliance Matrix: (Units=1/GPa)
#
#
# Indices 1 2 3 4 5 6 
#
# 1 0.090954 -0.011562 -0.005586 -0.000001 0.046239 0.000001
# 2 -0.011562 0.014590 -0.002681 0.000001 0.003058 0.000001
# 3 -0.005586 -0.002681 0.010799 -0.000001 0.010031 -0.000001
# 4 -0.000001 0.000001 -0.000001 0.024423 -0.000005 0.004373
# 5 0.046239 0.003058 0.010031 -0.000005 0.133605 -0.000004
# 6 0.000001 0.000001 -0.000001 0.004373 -0.000004 0.039489
#
#
# Mechanical properties :
#
#
# Convention : Reuss Voigt Hill
#
# Bulk Modulus (GPa) = 13.04012 49.45305 31.24658
# Shear Modulus (GPa) = 13.18978 26.58100 19.88539
#
# Velocity S-wave (km/s) = 2.50679 3.55865 3.07799
# Velocity P-wave (km/s) = 3.81987 6.35974 5.24584
#
# Compressibility (1/GPa) = 0.07668640
#
# Stress axis : x y z
#
# Youngs Moduli (GPa) = 10.99451 68.53828 92.60018
#
# Poissons Ratio (x) = 0.79242 0.51725
# Poissons Ratio (y) = 0.12711 0.24828
# Poissons Ratio (z) = 0.06141 0.18377
#
# Static dielectric constant tensor:
#      x y z
#    x 1.834740 0.000000 -0.080310 
#    y 0.000000 1.887830 0.000000 
#    z -0.080310 0.000000 1.573300 
# 
# From -- ./inp_files/148697.got.cif
#   From: 2010.05.17/outbox.cif.g08.bks.cpg/sg15_75_cif.got.tgz:148697.got - 2010.06.03 18:47:42.
