data_PCOD9263035
_publ_section_title
;
Structure prediction by ZEFSAII (Michael W. Deem and Ramdas Pophale) SiO2 
 PCOD9263035
Probable space group: C 2/C
;
_chemical_formula_sum "Si O2"
_cell_formula_units_Z 48
_cell_length_a 12.541957
_cell_length_b 22.070806
_cell_length_c 9.152144
_cell_angle_alpha 90.000000
_cell_angle_beta 82.131465
_cell_angle_gamma 90.000000
_cell_volume 2509.562422
_symmetry_space_group_name_H-M "C 2/C"
_symmetry_group_IT_number 15
_symmetry_cell_setting 'monoclinic'
loop_
_space_group_symop_operation_xyz
x,y,z
-x,y,1/2-z
-x,-y,-z
x,-y,1/2+z
1/2+x,1/2+y,z
1/2-x,1/2+y,1/2-z
1/2-x,1/2-y,-z
1/2+x,1/2-y,1/2+z
loop_
_atom_site_type_symbol
_atom_site_label
_atom_site_fract_x
_atom_site_fract_y
_atom_site_fract_z
Si Si1 0.672043 0.422201 0.433259
Si Si2 0.980930 0.724256 0.547758
Si Si3 0.626526 0.459859 0.762823
Si Si4 0.057726 0.140656 0.492198
Si Si5 0.320034 0.812014 0.322927
Si Si6 0.164204 0.235054 0.643370
O O1 0.681847 0.442513 0.600544
O O2 0.672466 0.480796 0.330555
O O3 0.553506 0.391492 0.447213
O O4 0.761471 0.373897 0.372628
O O5 0.967697 0.796161 0.586249
O O6 0.901985 0.686883 0.669030
O O7 0.935073 0.723453 0.391447
O O8 0.102337 0.707447 0.560398
O O9 0.500000 0.471068 0.750000
O O10 0.624817 0.404285 0.877811
O O11 0.121888 0.166577 0.619721
O O12 0.226773 0.765946 0.283383
O O13 0.250000 0.250000 0.500000
#
# Coordination Sequence:
#
# PCOD9263035 Si02
#       6
#     8   8   8   8   8   8
#     4  11  24  34  59  84 117 159 204 240 300 355
#     4   8  19  36  54  88 119 148 191 243 305 352
#     4  10  22  37  52  84 116 157 195 253 297 345
#     4   9  19  36  55  82 123 149 185 251 302 352
#     4  10  19  33  60  84 118 162 193 238 303 365
#     4   8  17  32  55  82 112 155 184 227 299 362
#
# _framework density 19.126840000000001
#
# number of rings (size 3 to 8) (size 9 to 14) (size 15 to 20)
#    1.000    1.667    0.000    2.000   11.667    0.667 
#    0.000    0.000    0.000    4.000    0.000    0.000 
#    0.000    0.000    0.000    0.000    0.000    0.000 
#
# Total GULP energy -133620.177317 kJ/mol
# GULP energy per Si atom -5567.507388 kJ/mol
# Density = 1.908331 g / cm^3
# Si number density = 19.126840 Si / 1000 Ang^3
#
#
#
# Elastic Constant Matrix: (Units=GPa)
#
#
# Indices 1 2 3 4 5 6 
#
# 1 92.4666 47.2947 64.3768 0.0000 20.9777 0.0000
# 2 47.2947 89.5422 32.7628 0.0000 -23.9665 0.0000
# 3 64.3768 32.7628 81.4468 0.0000 -25.3421 0.0000
# 4 0.0000 0.0000 0.0000 -4.1403 0.0000 -34.1917
# 5 20.9777 -23.9665 -25.3421 0.0000 21.9607 0.0000
# 6 0.0000 0.0000 0.0000 -34.1917 0.0000 -3.9817
#
#
#
# Elastic Compliance Matrix: (Units=1/GPa)
#
#
# Indices 1 2 3 4 5 6 
#
# 1 -0.007242 0.007085 0.011596 0.000000 0.028032 0.000000
# 2 0.007085 0.008970 -0.012900 0.000000 -0.011865 0.000000
# 3 0.011596 -0.012900 0.000740 0.000000 -0.024302 0.000000
# 4 0.000000 0.000000 0.000000 0.003455 0.000000 -0.029665
# 5 0.028032 -0.011865 -0.024302 0.000000 -0.022233 0.000000
# 6 0.000000 0.000000 0.000000 -0.029665 0.000000 0.003592
#
#
# Mechanical properties :
#
#
# Convention : Reuss Voigt Hill
#
# Bulk Modulus (GPa) = 71.27489 61.36934 66.32211
# Shear Modulus (GPa) = -255.06094 10.70248 -122.17923
#
# Velocity S-wave (km/s) = -11.56036 2.36805 -8.00107
# Velocity P-wave (km/s) = 11.86777 6.29540 7.11379
#
# Compressibility (1/GPa) = 0.01403019
#
# Stress axis : x y z
#
# Youngs Moduli (GPa) = -138.08368 111.48108 1351.45283
#
# Poissons Ratio (x) = -0.78984 -15.67169
# Poissons Ratio (y) = 0.97832 17.43385
# Poissons Ratio (z) = 1.60124 1.43811
#
# Static dielectric constant tensor:
#      x y z
#    x 1.568380 0.000000 0.238540 
#    y 0.000000 1.647950 0.000000 
#    z 0.238540 0.000000 1.422980 
# 
# From -- ./inp_files/40291.got.cif
#   From: 2010.05.17/outbox.cif.g08.bks.cpg/sg15_21_cif.got.tgz:40291.got - 2010.06.03 18:47:42.
