data_PCOD9263907
_publ_section_title
;
Structure prediction by ZEFSAII (Michael W. Deem and Ramdas Pophale) SiO2 
 PCOD9263907
Probable space group: C 2/C
;
_chemical_formula_sum "Si O2"
_cell_formula_units_Z 64
_cell_length_a 8.164171
_cell_length_b 29.846386
_cell_length_c 20.474140
_cell_angle_alpha 90.000000
_cell_angle_beta 146.016469
_cell_angle_gamma 90.000000
_cell_volume 2788.598787
_symmetry_space_group_name_H-M "C 2/C"
_symmetry_group_IT_number 15
_symmetry_cell_setting 'monoclinic'
loop_
_space_group_symop_operation_xyz
x,y,z
-x,y,1/2-z
-x,-y,-z
x,-y,1/2+z
1/2+x,1/2+y,z
1/2-x,1/2+y,1/2-z
1/2-x,1/2-y,-z
1/2+x,1/2-y,1/2+z
loop_
_atom_site_type_symbol
_atom_site_label
_atom_site_fract_x
_atom_site_fract_y
_atom_site_fract_z
Si Si1 0.385757 0.899554 0.631705
Si Si2 0.457184 0.532515 0.045613
Si Si3 0.847734 0.055191 0.572638
Si Si4 0.755777 0.135465 0.784984
Si Si5 0.827829 0.812130 0.995599
Si Si6 0.510500 0.355407 0.831836
Si Si7 0.723895 0.232084 0.118460
Si Si8 0.985332 0.597057 0.919873
O O1 0.227780 0.933649 0.628892
O O2 0.372577 0.927305 0.557988
O O3 0.182538 0.855793 0.552975
O O4 0.695703 0.875361 0.747773
O O5 0.413748 0.497666 0.090594
O O6 0.500000 0.500000 0.000000
O O7 0.163651 0.560455 0.938141
O O8 0.733546 0.071374 0.604766
O O9 0.132643 0.086007 0.657346
O O10 0.500000 0.147701 0.750000
O O11 0.656114 0.131783 0.677224
O O12 0.018305 0.170025 0.886930
O O13 0.021188 0.772796 0.028200
O O14 0.505939 0.794792 0.910121
O O15 0.500000 0.360993 0.750000
O O16 0.618417 0.303872 0.876532
O O17 0.767066 0.382547 0.951354
O O18 0.000000 0.250463 0.250000
#
# Coordination Sequence:
#
# PCOD9263907 Si02
#       8
#     8   8   8   8   8   8   8   8
#     4  10  19  40  67  96 137 183 231 289 348 423
#     4  10  23  42  63  94 136 181 234 290 351 413
#     4  10  21  41  65  95 133 178 236 285 348 415
#     4  11  23  42  67  99 139 185 230 288 351 424
#     4  10  19  35  66 100 135 181 231 279 361 417
#     4  11  20  40  66 102 137 179 237 287 351 421
#     4  10  19  34  63 104 135 176 231 292 341 425
#     4  12  23  41  69 100 134 185 233 289 349 422
#
# _framework density 22.950595
#
# number of rings (size 3 to 8) (size 9 to 14) (size 15 to 20)
#    0.000    1.500    3.750    4.125    0.000    0.500 
#    9.000    0.000    0.000   12.000    9.750    0.000 
#    0.000    0.000    0.000    0.000    0.000    0.000 
#
# Total GULP energy -178534.871242 kJ/mol
# GULP energy per Si atom -5579.214726 kJ/mol
# Density = 2.289836 g / cm^3
# Si number density = 22.950595 Si / 1000 Ang^3
#
#
#
# Elastic Constant Matrix: (Units=GPa)
#
#
# Indices 1 2 3 4 5 6 
#
# 1 87.0259 44.5112 42.9150 0.0003 9.4205 0.0000
# 2 44.5112 144.9221 53.2232 0.0002 18.7179 0.0000
# 3 42.9150 53.2232 120.5057 -0.0023 12.3983 -0.0001
# 4 0.0003 0.0002 -0.0023 19.4024 0.0003 10.8229
# 5 9.4205 18.7179 12.3983 0.0003 38.6722 0.0001
# 6 0.0000 0.0000 -0.0001 10.8229 0.0001 21.3030
#
#
#
# Elastic Compliance Matrix: (Units=1/GPa)
#
#
# Indices 1 2 3 4 5 6 
#
# 1 0.015100 -0.003077 -0.003923 -0.000001 -0.000931 0.000000
# 2 -0.003077 0.009194 -0.002672 0.000000 -0.002844 0.000000
# 3 -0.003923 -0.002672 0.011007 0.000002 -0.001280 -0.000001
# 4 -0.000001 0.000000 0.000002 0.071922 -0.000001 -0.036540
# 5 -0.000931 -0.002844 -0.001280 -0.000001 0.027872 0.000000
# 6 0.000000 0.000000 -0.000001 -0.036540 0.000000 0.065506
#
#
# Mechanical properties :
#
#
# Convention : Reuss Voigt Hill
#
# Bulk Modulus (GPa) = 62.66679 70.41691 66.54185
# Shear Modulus (GPa) = 22.19619 29.99581 26.09600
#
# Velocity S-wave (km/s) = 3.11324 3.61913 3.37568
# Velocity P-wave (km/s) = 6.34724 6.94354 6.65207
#
# Compressibility (1/GPa) = 0.01595742
#
# Stress axis : x y z
#
# Youngs Moduli (GPa) = 66.22643 108.76661 90.84901
#
# Poissons Ratio (x) = 0.33465 0.35637
# Poissons Ratio (y) = 0.20377 0.24278
# Poissons Ratio (z) = 0.25978 0.29066
#
# Static dielectric constant tensor:
#      x y z
#    x 1.963550 0.000000 -0.044050 
#    y 0.000000 1.961610 0.000000 
#    z -0.044050 0.000000 1.933800 
# 
# From -- ./inp_files/266749.got.cif
#   From: 2010.05.17/outbox.cif.g08.bks.cpg/sg15_134_cif.got.tgz:266749.got - 2010.06.03 18:47:42.
