data_PCOD9263419
_publ_section_title
;
Structure prediction by ZEFSAII (Michael W. Deem and Ramdas Pophale) SiO2 
 PCOD9263419
Probable space group: C 2/C
;
_chemical_formula_sum "Si O2"
_cell_formula_units_Z 56
_cell_length_a 7.619936
_cell_length_b 12.624851
_cell_length_c 27.307946
_cell_angle_alpha 90.000000
_cell_angle_beta 104.630639
_cell_angle_gamma 90.000000
_cell_volume 2541.855844
_symmetry_space_group_name_H-M "C 2/C"
_symmetry_group_IT_number 15
_symmetry_cell_setting 'monoclinic'
loop_
_space_group_symop_operation_xyz
x,y,z
-x,y,1/2-z
-x,-y,-z
x,-y,1/2+z
1/2+x,1/2+y,z
1/2-x,1/2+y,1/2-z
1/2-x,1/2-y,-z
1/2+x,1/2-y,1/2+z
loop_
_atom_site_type_symbol
_atom_site_label
_atom_site_fract_x
_atom_site_fract_y
_atom_site_fract_z
Si Si1 0.573752 0.386206 0.627823
Si Si2 0.711397 0.756061 0.055306
Si Si3 0.421138 0.011592 0.154481
Si Si4 0.904533 0.570403 0.549625
Si Si5 0.279343 0.094007 0.442792
Si Si6 0.416045 0.231563 0.374631
Si Si7 0.550922 0.795900 0.307522
O O1 0.648872 0.349442 0.579652
O O2 0.735726 0.447514 0.665201
O O3 0.387890 0.446250 0.601422
O O4 0.530809 0.283441 0.657639
O O5 0.546768 0.835342 0.052448
O O6 0.894918 0.785658 0.097630
O O7 0.750000 0.750000 0.000000
O O8 0.352405 0.947763 0.101382
O O9 0.515833 0.917022 0.190274
O O10 0.535906 0.116339 0.147305
O O11 0.031304 0.467640 0.549003
O O12 0.748933 0.587255 0.498553
O O13 0.322192 0.206175 0.420800
O O14 0.268504 0.289203 0.331190
O O15 0.500000 0.758720 0.250000
#
# Coordination Sequence:
#
# PCOD9263419 Si02
#       7
#     8   8   8   8   8   8   8
#     4  10  23  40  59  90 125 162 208 255 309 365
#     4  11  20  35  59  91 127 168 202 239 300 370
#     4  10  22  41  62  90 125 160 199 262 311 363
#     4  10  19  34  56  85 130 165 202 244 292 371
#     4   9  19  34  53  85 122 167 204 241 292 363
#     4   9  21  39  60  89 127 159 200 260 306 361
#     4  11  24  44  67  88 115 159 213 264 321 371
#
# _framework density 22.031147000000001
#
# number of rings (size 3 to 8) (size 9 to 14) (size 15 to 20)
#    0.000    2.000    2.857    0.000    4.000    3.429 
#    0.000    2.143    0.000    0.000    0.000    0.000 
#    0.000    0.000    0.000    0.000    0.000    0.000 
#
# Total GULP energy -156021.334851 kJ/mol
# GULP energy per Si atom -5572.190530 kJ/mol
# Density = 2.198100 g / cm^3
# Si number density = 22.031147 Si / 1000 Ang^3
#
#
#
# Elastic Constant Matrix: (Units=GPa)
#
#
# Indices 1 2 3 4 5 6 
#
# 1 59.4375 12.5033 20.9913 0.0000 4.2685 0.0000
# 2 12.5033 78.7162 17.1537 0.0000 -2.4280 0.0000
# 3 20.9913 17.1537 85.7614 0.0000 2.6478 0.0000
# 4 0.0000 0.0000 0.0000 13.5835 0.0000 3.7522
# 5 4.2685 -2.4280 2.6478 0.0000 20.3155 0.0000
# 6 0.0000 0.0000 0.0000 3.7522 0.0000 24.2464
#
#
#
# Elastic Compliance Matrix: (Units=1/GPa)
#
#
# Indices 1 2 3 4 5 6 
#
# 1 0.019008 -0.002243 -0.004089 0.000000 -0.003729 0.000000
# 2 -0.002243 0.013624 -0.002250 0.000000 0.002393 0.000000
# 3 -0.004089 -0.002250 0.013146 0.000000 -0.001123 0.000000
# 4 0.000000 0.000000 0.000000 0.076907 0.000000 -0.011902
# 5 -0.003729 0.002393 -0.001123 0.000000 0.050439 0.000000
# 6 0.000000 0.000000 0.000000 -0.011902 0.000000 0.043085
#
#
# Mechanical properties :
#
#
# Convention : Reuss Voigt Hill
#
# Bulk Modulus (GPa) = 34.94743 36.13463 35.54103
# Shear Modulus (GPa) = 20.58368 23.18019 21.88193
#
# Velocity S-wave (km/s) = 3.05995 3.24721 3.15497
# Velocity P-wave (km/s) = 5.32743 5.52236 5.42577
#
# Compressibility (1/GPa) = 0.02861441
#
# Stress axis : x y z
#
# Youngs Moduli (GPa) = 52.60926 73.39837 76.07052
#
# Poissons Ratio (x) = 0.16465 0.31103
# Poissons Ratio (y) = 0.11802 0.17115
# Poissons Ratio (z) = 0.21510 0.16514
#
# Static dielectric constant tensor:
#      x y z
#    x 1.853070 0.000000 -0.019660 
#    y 0.000000 1.936890 0.000000 
#    z -0.019660 0.000000 1.862060 
# 
# From -- ./inp_files/264417.got.cif
#   From: 2010.05.17/outbox.cif.g08.bks.cpg/sg15_133_cif.got.tgz:264417.got - 2010.06.03 18:47:42.
