data_PCOD9263031
_publ_section_title
;
Structure prediction by ZEFSAII (Michael W. Deem and Ramdas Pophale) SiO2 
 PCOD9263031
Probable space group: C 2/C
;
_chemical_formula_sum "Si O2"
_cell_formula_units_Z 48
_cell_length_a 20.597251
_cell_length_b 6.635730
_cell_length_c 15.434273
_cell_angle_alpha 90.000000
_cell_angle_beta 73.557826
_cell_angle_gamma 90.000000
_cell_volume 2023.255381
_symmetry_space_group_name_H-M "C 2/C"
_symmetry_group_IT_number 15
_symmetry_cell_setting 'monoclinic'
loop_
_space_group_symop_operation_xyz
x,y,z
-x,y,1/2-z
-x,-y,-z
x,-y,1/2+z
1/2+x,1/2+y,z
1/2-x,1/2+y,1/2-z
1/2-x,1/2-y,-z
1/2+x,1/2-y,1/2+z
loop_
_atom_site_type_symbol
_atom_site_label
_atom_site_fract_x
_atom_site_fract_y
_atom_site_fract_z
Si Si1 0.975281 0.770141 0.427251
Si Si2 0.569551 0.936239 0.378556
Si Si3 0.748774 0.063241 0.433839
Si Si4 0.460625 0.657494 0.342147
Si Si5 0.660683 0.826741 0.582076
Si Si6 0.172427 0.326248 0.200965
O O1 0.945563 0.673432 0.525665
O O2 0.919203 0.697761 0.378275
O O3 0.049777 0.672942 0.389934
O O4 0.965753 0.009291 0.422092
O O5 0.509053 0.844565 0.342909
O O6 0.638549 0.870107 0.305900
O O7 0.750000 0.250000 0.500000
O O8 0.766506 0.167896 0.335481
O O9 0.680543 0.948269 0.486877
O O10 0.804077 0.890241 0.432243
O O11 0.500000 0.542561 0.250000
O O12 0.387684 0.729304 0.337022
O O13 0.689065 0.961087 0.649752
#
# Coordination Sequence:
#
# PCOD9263031 Si02
#       6
#     8   8   8   8   8   8
#     4  11  21  35  54  81 115 149 178 225 289 338
#     4  10  23  35  51  83 120 143 178 228 284 342
#     4   9  19  35  57  84 103 140 192 236 272 315
#     4  10  20  32  54  81 108 146 185 225 271 335
#     4  10  19  33  60  80 106 143 191 229 273 330
#     4  10  19  35  57  79 108 143 187 234 270 329
#
# _framework density 23.724143000000002
#
# number of rings (size 3 to 8) (size 9 to 14) (size 15 to 20)
#    0.000    2.000    3.333    0.500    2.333    0.000 
#    0.000    0.000   11.000    0.000    0.000    0.000 
#    0.000    0.000    0.000    0.000    0.000    0.000 
#
# Total GULP energy -133756.388615 kJ/mol
# GULP energy per Si atom -5573.182859 kJ/mol
# Density = 2.367015 g / cm^3
# Si number density = 23.724143 Si / 1000 Ang^3
#
#
#
# Elastic Constant Matrix: (Units=GPa)
#
#
# Indices 1 2 3 4 5 6 
#
# 1 25.4603 13.8159 1.8153 0.0000 -8.2983 0.0000
# 2 13.8159 126.2144 31.9192 0.0000 -14.6633 0.0000
# 3 1.8153 31.9192 87.7104 0.0000 -13.7452 0.0000
# 4 0.0000 0.0000 0.0000 32.2088 0.0000 -13.7492
# 5 -8.2983 -14.6633 -13.7452 0.0000 32.0192 0.0000
# 6 0.0000 0.0000 0.0000 -13.7492 0.0000 34.1071
#
#
#
# Elastic Compliance Matrix: (Units=1/GPa)
#
#
# Indices 1 2 3 4 5 6 
#
# 1 0.044900 -0.004255 0.002291 0.000000 0.010672 0.000000
# 2 -0.004255 0.009374 -0.003027 0.000000 0.001891 0.000000
# 3 0.002291 -0.003027 0.013221 0.000000 0.004883 0.000000
# 4 0.000000 0.000000 0.000000 0.037501 0.000000 0.015117
# 5 0.010672 0.001891 0.004883 0.000000 0.036959 0.000000
# 6 0.000000 0.000000 0.000000 0.015117 0.000000 0.035413
#
#
# Mechanical properties :
#
#
# Convention : Reuss Voigt Hill
#
# Bulk Modulus (GPa) = 17.38689 37.16510 27.27600
# Shear Modulus (GPa) = 24.21075 32.45600 28.33337
#
# Velocity S-wave (km/s) = 3.19801 3.70274 3.45959
# Velocity P-wave (km/s) = 4.58051 5.82923 5.24218
#
# Compressibility (1/GPa) = 0.05751459
#
# Stress axis : x y z
#
# Youngs Moduli (GPa) = 22.27148 106.67885 75.64010
#
# Poissons Ratio (x) = 0.45388 -0.17332
# Poissons Ratio (y) = 0.09476 0.22896
# Poissons Ratio (z) = -0.05103 0.32291
#
# Static dielectric constant tensor:
#      x y z
#    x 1.887860 0.000000 0.000750 
#    y 0.000000 1.947140 0.000000 
#    z 0.000750 0.000000 2.005810 
# 
# From -- ./inp_files/220827.got.cif
#   From: 2010.05.17/outbox.cif.g08.bks.cpg/sg15_111_cif.got.tgz:220827.got - 2010.06.03 18:47:42.
