data_PCOD9263892
_publ_section_title
;
Structure prediction by ZEFSAII (Michael W. Deem and Ramdas Pophale) SiO2 
 PCOD9263892
Probable space group: C 2/C
;
_chemical_formula_sum "Si O2"
_cell_formula_units_Z 64
_cell_length_a 13.982223
_cell_length_b 14.147968
_cell_length_c 33.190761
_cell_angle_alpha 90.000000
_cell_angle_beta 32.590203
_cell_angle_gamma 90.000000
_cell_volume 3536.514168
_symmetry_space_group_name_H-M "C 2/C"
_symmetry_group_IT_number 15
_symmetry_cell_setting 'monoclinic'
loop_
_space_group_symop_operation_xyz
x,y,z
-x,y,1/2-z
-x,-y,-z
x,-y,1/2+z
1/2+x,1/2+y,z
1/2-x,1/2+y,1/2-z
1/2-x,1/2-y,-z
1/2+x,1/2-y,1/2+z
loop_
_atom_site_type_symbol
_atom_site_label
_atom_site_fract_x
_atom_site_fract_y
_atom_site_fract_z
Si Si1 0.598521 0.578390 0.914974
Si Si2 0.027009 0.388463 0.484922
Si Si3 0.166007 0.227169 0.662863
Si Si4 0.255535 0.645203 0.481538
Si Si5 0.544120 0.226135 0.062354
Si Si6 0.334916 0.392803 0.657139
Si Si7 0.231847 0.473865 0.066778
Si Si8 0.967662 0.638203 0.172419
O O1 0.562268 0.676175 0.905688
O O2 0.686666 0.494210 0.857421
O O3 0.706051 0.591909 0.918377
O O4 0.404169 0.538135 0.995904
O O5 0.202937 0.355356 0.397983
O O6 0.036889 0.333980 0.523872
O O7 0.000000 0.500000 0.500000
O O8 0.859486 0.358379 0.517574
O O9 0.278227 0.308748 0.646494
O O10 0.078347 0.279957 0.655924
O O11 0.000000 0.197704 0.750000
O O12 0.250000 0.750000 0.500000
O O13 0.459736 0.615604 0.404073
O O14 0.181424 0.579015 0.543738
O O15 0.459287 0.167916 0.129093
O O16 0.750000 0.250000 0.000000
O O17 0.212209 0.378327 0.739405
O O18 0.078502 0.542193 0.135760
#
# Coordination Sequence:
#
# PCOD9263892 Si02
#       8
#     8   8   8   8   8   8   8   8
#     4  10  20  35  63  95 122 153 209 266 323 364
#     4  12  25  41  62  97 130 171 218 258 312 387
#     4  10  20  39  67  96 124 158 211 269 324 378
#     4  11  22  39  61  86 126 169 209 246 314 392
#     4  12  23  40  64  94 127 170 217 265 315 383
#     4  10  22  39  65  96 124 162 211 272 325 379
#     4  10  19  34  62  92 117 159 202 266 313 369
#     4  11  21  40  64  95 127 158 214 271 320 376
#
# _framework density 18.096916
#
# number of rings (size 3 to 8) (size 9 to 14) (size 15 to 20)
#    0.000    1.250    5.000    1.500    3.500    0.000 
#    2.250    4.375    2.750    0.000    0.000    0.000 
#    0.000    0.000    0.000    0.000    0.000    0.000 
#
# Total GULP energy -178661.878387 kJ/mol
# GULP energy per Si atom -5583.183700 kJ/mol
# Density = 1.805573 g / cm^3
# Si number density = 18.096916 Si / 1000 Ang^3
#
#
#
# Elastic Constant Matrix: (Units=GPa)
#
#
# Indices 1 2 3 4 5 6 
#
# 1 126.5466 38.9491 46.6106 -0.0004 14.7951 0.0003
# 2 38.9491 96.7951 45.6954 -0.0008 0.8303 0.0005
# 3 46.6106 45.6954 106.2969 -0.0009 8.0579 0.0007
# 4 -0.0004 -0.0008 -0.0009 29.0904 0.0004 4.0103
# 5 14.7951 0.8303 8.0579 0.0004 20.9197 -0.0002
# 6 0.0003 0.0005 0.0007 4.0103 -0.0002 34.2221
#
#
#
# Elastic Compliance Matrix: (Units=1/GPa)
#
#
# Indices 1 2 3 4 5 6 
#
# 1 0.010587 -0.002808 -0.002962 0.000000 -0.006235 0.000000
# 2 -0.002808 0.013764 -0.004939 0.000000 0.003342 0.000000
# 3 -0.002962 -0.004939 0.013037 0.000000 -0.002730 0.000000
# 4 0.000000 0.000000 0.000000 0.034940 -0.000001 -0.004094
# 5 -0.006235 0.003342 -0.002730 -0.000001 0.053130 0.000001
# 6 0.000000 0.000000 0.000000 -0.004094 0.000001 0.029701
#
#
# Mechanical properties :
#
#
# Convention : Reuss Voigt Hill
#
# Bulk Modulus (GPa) = 62.62289 65.79429 64.20859
# Shear Modulus (GPa) = 27.48768 30.07201 28.77985
#
# Velocity S-wave (km/s) = 3.90155 4.08084 3.99221
# Velocity P-wave (km/s) = 7.41454 7.65767 7.53709
#
# Compressibility (1/GPa) = 0.01596860
#
# Stress axis : x y z
#
# Youngs Moduli (GPa) = 94.45981 72.65381 76.70593
#
# Poissons Ratio (x) = 0.20400 0.22724
# Poissons Ratio (y) = 0.26523 0.37885
# Poissons Ratio (z) = 0.27983 0.35884
#
# Static dielectric constant tensor:
#      x y z
#    x 1.615310 0.000000 0.010870 
#    y 0.000000 1.660660 0.000000 
#    z 0.010870 0.000000 1.590290 
# 
# From -- ./inp_files/293057.got.cif
#   From: 2010.05.17/outbox.cif.g08.bks.cpg/sg15_147_cif.got.tgz:293057.got - 2010.06.03 18:47:42.
