data_PCOD9263299
_publ_section_title
;
Structure prediction by ZEFSAII (Michael W. Deem and Ramdas Pophale) SiO2 
 PCOD9263299
Probable space group: C 2/C
;
_chemical_formula_sum "Si O2"
_cell_formula_units_Z 48
_cell_length_a 9.817247
_cell_length_b 13.273249
_cell_length_c 19.618786
_cell_angle_alpha 90.000000
_cell_angle_beta 129.094932
_cell_angle_gamma 90.000000
_cell_volume 1984.074603
_symmetry_space_group_name_H-M "C 2/C"
_symmetry_group_IT_number 15
_symmetry_cell_setting 'monoclinic'
loop_
_space_group_symop_operation_xyz
x,y,z
-x,y,1/2-z
-x,-y,-z
x,-y,1/2+z
1/2+x,1/2+y,z
1/2-x,1/2+y,1/2-z
1/2-x,1/2-y,-z
1/2+x,1/2-y,1/2+z
loop_
_atom_site_type_symbol
_atom_site_label
_atom_site_fract_x
_atom_site_fract_y
_atom_site_fract_z
Si Si1 0.785702 0.562024 0.784044
Si Si2 0.859940 0.589606 0.954575
Si Si3 0.457300 0.256002 0.665450
Si Si4 0.901851 0.187760 0.424973
Si Si5 0.662223 0.394048 0.105852
Si Si6 0.890389 0.576201 0.121436
O O1 0.739635 0.566745 0.849752
O O2 0.642949 0.580045 0.679777
O O3 0.913713 0.658968 0.806883
O O4 0.906521 0.460937 0.812511
O O5 0.934046 0.698453 0.958100
O O6 0.826543 0.597845 0.024341
O O7 0.000000 0.500000 0.000000
O O8 0.500000 0.308509 0.750000
O O9 0.496357 0.325721 0.613796
O O10 0.267500 0.208239 0.619277
O O11 0.692773 0.166559 0.360058
O O12 0.989695 0.115035 0.507444
O O13 0.790240 0.479934 0.119230
#
# Coordination Sequence:
#
# PCOD9263299 Si02
#       6
#     8   8   8   8   8   8
#     4   8  17  36  57  74 108 155 189 222 277 343
#     4   9  19  37  57  79 111 153 191 225 277 347
#     4   8  16  32  52  75 107 148 191 229 270 331
#     4  11  20  32  56  87 111 145 194 239 278 328
#     4  10  19  35  55  79 113 152 190 233 280 336
#     4  10  19  34  55  80 111 145 184 234 286 337
#
# _framework density 24.192637999999999
#
# number of rings (size 3 to 8) (size 9 to 14) (size 15 to 20)
#    0.000    2.667    0.000    4.000    0.000    0.000 
#    0.000   17.500    0.000    0.000    0.000    0.000 
#    0.000    0.000    0.000    0.000    0.000    0.000 
#
# Total GULP energy -133644.609039 kJ/mol
# GULP energy per Si atom -5568.525377 kJ/mol
# Density = 2.413757 g / cm^3
# Si number density = 24.192638 Si / 1000 Ang^3
#
#
#
# Elastic Constant Matrix: (Units=GPa)
#
#
# Indices 1 2 3 4 5 6 
#
# 1 78.1965 5.3750 50.6983 0.0000 -33.3115 0.0000
# 2 5.3750 65.3257 25.6017 0.0000 -4.0194 0.0000
# 3 50.6983 25.6017 143.3995 0.0000 -55.2755 0.0000
# 4 0.0000 0.0000 0.0000 19.4575 0.0000 -9.5631
# 5 -33.3115 -4.0194 -55.2755 0.0000 38.9625 0.0000
# 6 0.0000 0.0000 0.0000 -9.5631 0.0000 4.8458
#
#
#
# Elastic Compliance Matrix: (Units=1/GPa)
#
#
# Indices 1 2 3 4 5 6 
#
# 1 0.020193 -0.000304 -0.000976 0.000000 0.015849 0.000000
# 2 -0.000304 0.017006 -0.005192 0.000000 -0.005871 0.000000
# 3 -0.000976 -0.005192 0.017031 0.000000 0.022791 0.000000
# 4 0.000000 0.000000 0.000000 1.709980 0.000000 3.374624
# 5 0.015849 -0.005871 0.022791 0.000000 0.070944 0.000000
# 6 0.000000 0.000000 0.000000 3.374624 0.000000 6.866144
#
#
# Mechanical properties :
#
#
# Convention : Reuss Voigt Hill
#
# Bulk Modulus (GPa) = 24.22059 50.03019 37.12539
# Shear Modulus (GPa) = 0.57287 26.33626 13.45457
#
# Velocity S-wave (km/s) = 0.48714 3.30298 2.36083
# Velocity P-wave (km/s) = 3.21709 5.93895 4.77602
#
# Compressibility (1/GPa) = 0.04128718
#
# Stress axis : x y z
#
# Youngs Moduli (GPa) = 49.52101 58.80130 58.71755
#
# Poissons Ratio (x) = 0.01787 0.05730
# Poissons Ratio (y) = 0.01505 0.30485
# Poissons Ratio (z) = 0.04833 0.30529
#
# Static dielectric constant tensor:
#      x y z
#    x 1.979790 0.000000 -0.028890 
#    y 0.000000 1.957030 0.000000 
#    z -0.028890 0.000000 2.024640 
# 
# From -- ./inp_files/238499.got.cif
#   From: 2010.05.17/outbox.cif.g08.bks.cpg/sg15_120_cif.got.tgz:238499.got - 2010.06.03 18:47:42.
