data_PCOD9263077
_publ_section_title
;
Structure prediction by ZEFSAII (Michael W. Deem and Ramdas Pophale) SiO2 
 PCOD9263077
Probable space group: C 2/C
;
_chemical_formula_sum "Si O2"
_cell_formula_units_Z 36
_cell_length_a 7.898862
_cell_length_b 12.377765
_cell_length_c 17.547032
_cell_angle_alpha 90.000000
_cell_angle_beta 104.417917
_cell_angle_gamma 90.000000
_cell_volume 1661.546308
_symmetry_space_group_name_H-M "C 2/C"
_symmetry_group_IT_number 15
_symmetry_cell_setting 'monoclinic'
loop_
_space_group_symop_operation_xyz
x,y,z
-x,y,1/2-z
-x,-y,-z
x,-y,1/2+z
1/2+x,1/2+y,z
1/2-x,1/2+y,1/2-z
1/2-x,1/2-y,-z
1/2+x,1/2-y,1/2+z
loop_
_atom_site_type_symbol
_atom_site_label
_atom_site_fract_x
_atom_site_fract_y
_atom_site_fract_z
Si Si1 0.200986 0.113546 0.266822
Si Si2 0.500000 0.055103 0.750000
Si Si3 0.509163 0.098729 0.592426
Si Si4 0.149285 0.794828 0.326702
Si Si5 0.552421 0.850031 0.576027
O O1 0.238527 0.209709 0.211076
O O2 0.266869 0.145816 0.358293
O O3 0.000000 0.083755 0.250000
O O4 0.337244 0.021066 0.254469
O O5 0.442644 0.122234 0.669999
O O6 0.717430 0.119164 0.623324
O O7 0.440261 0.166291 0.513455
O O8 0.471934 0.971467 0.575496
O O9 0.000000 0.832039 0.250000
O O10 0.062081 0.732510 0.387646
#
# Coordination Sequence:
#
# PCOD9263077 Si02
#       5
#     8   4   8   8   8
#     4  10  19  37  61  80 119 165 193 249 322 350
#     4  10  20  40  58  86 122 156 208 254 300 374
#     4  10  19  33  63  83 117 164 203 249 316 365
#     4  10  19  36  60  89 121 159 206 255 305 370
#     4   9  19  38  57  86 120 159 202 259 309 357
#
# _framework density 21.666564000000001
#
# number of rings (size 3 to 8) (size 9 to 14) (size 15 to 20)
#    0.000    2.222    5.556    0.667    1.556    3.556 
#    0.000    2.222    4.889    0.000    0.000    0.000 
#    0.000    0.000    0.000    0.000    0.000    0.000 
#
# Total GULP energy -100409.253248 kJ/mol
# GULP energy per Si atom -5578.291847 kJ/mol
# Density = 2.161725 g / cm^3
# Si number density = 21.666564 Si / 1000 Ang^3
#
#
#
# Elastic Constant Matrix: (Units=GPa)
#
#
# Indices 1 2 3 4 5 6 
#
# 1 124.3300 23.2475 45.1347 0.0000 12.5917 0.0000
# 2 23.2475 52.8933 17.3765 0.0000 -0.0756 0.0000
# 3 45.1347 17.3765 177.3353 0.0000 -23.4836 0.0000
# 4 0.0000 0.0000 0.0000 1.4823 0.0000 0.7442
# 5 12.5917 -0.0756 -23.4836 0.0000 20.7215 0.0000
# 6 0.0000 0.0000 0.0000 0.7442 0.0000 32.3043
#
#
#
# Elastic Compliance Matrix: (Units=1/GPa)
#
#
# Indices 1 2 3 4 5 6 
#
# 1 0.011373 -0.003681 -0.004060 0.000000 -0.011525 0.000000
# 2 -0.003681 0.020834 -0.000939 0.000000 0.001248 0.000000
# 3 -0.004060 -0.000939 0.008343 0.000000 0.011918 0.000000
# 4 0.000000 0.000000 0.000000 0.682505 0.000000 -0.015723
# 5 -0.011525 0.001248 0.011918 0.000000 0.068774 0.000000
# 6 0.000000 0.000000 0.000000 -0.015723 0.000000 0.031318
#
#
# Mechanical properties :
#
#
# Convention : Reuss Voigt Hill
#
# Bulk Modulus (GPa) = 43.12441 58.45288 50.78864
# Shear Modulus (GPa) = 5.89458 28.82163 17.35811
#
# Velocity S-wave (km/s) = 1.65121 3.65120 2.83353
# Velocity P-wave (km/s) = 4.85615 6.69417 5.84783
#
# Compressibility (1/GPa) = 0.02318872
#
# Stress axis : x y z
#
# Youngs Moduli (GPa) = 87.93109 47.99787 119.86533
#
# Poissons Ratio (x) = 0.17669 0.48666
# Poissons Ratio (y) = 0.32368 0.11258
# Poissons Ratio (z) = 0.35700 0.04508
#
# Static dielectric constant tensor:
#      x y z
#    x 1.772320 0.000000 -0.016490 
#    y 0.000000 1.852430 0.000000 
#    z -0.016490 0.000000 1.851270 
# 
# From -- ./inp_files/187680.got.cif
#   From: 2010.05.17/outbox.cif.g08.bks.cpg/sg15_94_cif.got.tgz:187680.got - 2010.06.03 18:47:42.
