data_PCOD9263485
_publ_section_title
;
Structure prediction by ZEFSAII (Michael W. Deem and Ramdas Pophale) SiO2 
 PCOD9263485
Probable space group: C 2/C
;
_chemical_formula_sum "Si O2"
_cell_formula_units_Z 56
_cell_length_a 21.093031
_cell_length_b 12.150167
_cell_length_c 11.809143
_cell_angle_alpha 90.000000
_cell_angle_beta 112.994354
_cell_angle_gamma 90.000000
_cell_volume 2786.017665
_symmetry_space_group_name_H-M "C 2/C"
_symmetry_group_IT_number 15
_symmetry_cell_setting 'monoclinic'
loop_
_space_group_symop_operation_xyz
x,y,z
-x,y,1/2-z
-x,-y,-z
x,-y,1/2+z
1/2+x,1/2+y,z
1/2-x,1/2+y,1/2-z
1/2-x,1/2-y,-z
1/2+x,1/2-y,1/2+z
loop_
_atom_site_type_symbol
_atom_site_label
_atom_site_fract_x
_atom_site_fract_y
_atom_site_fract_z
Si Si1 0.853960 0.178343 0.550035
Si Si2 0.450820 0.634461 0.433653
Si Si3 0.616913 0.178909 0.156341
Si Si4 0.500000 0.238750 0.750000
Si Si5 0.401233 0.065309 0.592390
Si Si6 0.500000 0.885227 0.750000
Si Si7 0.291003 0.093672 0.100991
Si Si8 0.085069 0.092746 0.676067
O O1 0.898814 0.205808 0.471477
O O2 0.789892 0.100195 0.474218
O O3 0.822504 0.294228 0.568263
O O4 0.898136 0.117203 0.680013
O O5 0.489318 0.689124 0.354793
O O6 0.508589 0.605468 0.568657
O O7 0.405137 0.533390 0.352914
O O8 0.553278 0.174704 0.202917
O O9 0.681286 0.112918 0.252811
O O10 0.629084 0.309139 0.148332
O O11 0.596925 0.117903 0.029157
O O12 0.433469 0.159470 0.694784
O O13 0.453239 0.963186 0.639718
O O14 0.328265 0.013984 0.577479
#
# Coordination Sequence:
#
# PCOD9263485 Si02
#       8
#     8   8   8   4   8   4   8   8
#     4  10  22  42  62  87 119 159 210 250 289 358
#     4  11  24  38  62  88 125 153 198 259 309 360
#     4  10  19  34  57  83 121 154 202 251 298 356
#     4  11  24  39  58 100 126 155 194 251 332 368
#     4  10  20  35  56  86 127 155 190 249 305 369
#     4   9  20  29  52  88 114 155 196 235 306 360
#     4   9  22  39  61  88 115 163 211 238 296 367
#     4  10  23  36  62  89 110 159 205 253 306 355
#
# _framework density 20.100373999999999
#
# number of rings (size 3 to 8) (size 9 to 14) (size 15 to 20)
#    0.000    2.000    1.429    0.857   10.000    4.571 
#    0.000    2.857    0.000    2.571    0.000    0.000 
#    0.000    0.000    0.000    0.000    0.000    0.000 
#
# Total GULP energy -155904.872237 kJ/mol
# GULP energy per Si atom -5568.031151 kJ/mol
# Density = 2.005463 g / cm^3
# Si number density = 20.100374 Si / 1000 Ang^3
#
#
#
# Elastic Constant Matrix: (Units=GPa)
#
#
# Indices 1 2 3 4 5 6 
#
# 1 52.6808 6.1582 34.4146 0.0000 6.6926 0.0000
# 2 6.1582 63.1820 27.0330 0.0000 1.9158 0.0000
# 3 34.4146 27.0330 100.9527 0.0000 5.9682 0.0000
# 4 0.0000 0.0000 0.0000 11.1202 0.0000 11.9506
# 5 6.6926 1.9158 5.9682 0.0000 14.3554 0.0000
# 6 0.0000 0.0000 0.0000 11.9506 0.0000 14.2183
#
#
#
# Elastic Compliance Matrix: (Units=1/GPa)
#
#
# Indices 1 2 3 4 5 6 
#
# 1 0.025497 0.001442 -0.008575 0.000000 -0.008514 0.000000
# 2 0.001442 0.017959 -0.005248 0.000000 -0.000887 0.000000
# 3 -0.008575 -0.005248 0.014308 0.000000 -0.001251 0.000000
# 4 0.000000 0.000000 0.000000 0.929691 0.000000 -0.781415
# 5 -0.008514 -0.000887 -0.001251 0.000000 0.074268 0.000000
# 6 0.000000 0.000000 0.000000 -0.781415 0.000000 0.727119
#
#
# Mechanical properties :
#
#
# Convention : Reuss Voigt Hill
#
# Bulk Modulus (GPa) = 30.30115 39.11413 34.70764
# Shear Modulus (GPa) = 2.74032 17.88610 10.31321
#
# Velocity S-wave (km/s) = 1.16888 2.98625 2.26760
# Velocity P-wave (km/s) = 4.11453 5.60285 4.91535
#
# Compressibility (1/GPa) = 0.03300205
#
# Stress axis : x y z
#
# Youngs Moduli (GPa) = 39.22059 55.68199 69.89134
#
# Poissons Ratio (x) = -0.08028 0.59928
# Poissons Ratio (y) = -0.05654 0.36680
# Poissons Ratio (z) = 0.33630 0.29223
#
# Static dielectric constant tensor:
#      x y z
#    x 1.710620 0.000000 0.029780 
#    y 0.000000 1.750290 0.000000 
#    z 0.029780 0.000000 1.751200 
# 
# From -- ./inp_files/117694.got.cif
#   From: 2010.05.17/outbox.cif.g08.bks.cpg/sg15_59_cif.got.tgz:117694.got - 2010.06.03 18:47:42.
