data_PCOD9263316
_publ_section_title
;
Structure prediction by ZEFSAII (Michael W. Deem and Ramdas Pophale) SiO2 
 PCOD9263316
Probable space group: C 2/C
;
_chemical_formula_sum "Si O2"
_cell_formula_units_Z 52
_cell_length_a 8.256636
_cell_length_b 22.016539
_cell_length_c 12.181049
_cell_angle_alpha 90.000000
_cell_angle_beta 77.663101
_cell_angle_gamma 90.000000
_cell_volume 2163.169861
_symmetry_space_group_name_H-M "C 2/C"
_symmetry_group_IT_number 15
_symmetry_cell_setting 'monoclinic'
loop_
_space_group_symop_operation_xyz
x,y,z
-x,y,1/2-z
-x,-y,-z
x,-y,1/2+z
1/2+x,1/2+y,z
1/2-x,1/2+y,1/2-z
1/2-x,1/2-y,-z
1/2+x,1/2-y,1/2+z
loop_
_atom_site_type_symbol
_atom_site_label
_atom_site_fract_x
_atom_site_fract_y
_atom_site_fract_z
Si Si1 0.927976 0.188187 0.949557
Si Si2 0.943852 0.315535 0.043626
Si Si3 0.849870 0.026981 0.432603
Si Si4 0.816430 0.923103 0.591337
Si Si5 0.981043 0.557440 0.087328
Si Si6 0.500000 0.126716 0.750000
Si Si7 0.139874 0.085829 0.821384
O O1 0.754470 0.192316 0.909087
O O2 0.065852 0.151434 0.864628
O O3 0.990570 0.253783 0.976369
O O4 0.866629 0.146403 0.062309
O O5 0.033498 0.329689 0.143281
O O6 0.981388 0.376718 0.970761
O O7 0.714893 0.052966 0.370334
O O8 0.833706 0.056737 0.558699
O O9 0.032048 0.045934 0.369555
O O10 0.827350 0.956365 0.468574
O O11 0.631883 0.942260 0.651759
O O12 0.000000 0.500000 0.000000
O O13 0.330885 0.088913 0.750567
O O14 0.000000 0.064836 0.750000
#
# Coordination Sequence:
#
# PCOD9263316 Si02
#       7
#     8   8   8   8   8   4   8
#     4   9  19  35  55  79 110 139 184 224 272 327
#     4  10  19  34  55  83 103 144 182 226 273 328
#     4   9  16  29  49  73  99 129 170 207 261 313
#     4   8  16  29  49  74  99 129 162 214 258 309
#     4   9  16  29  49  76 100 126 167 215 258 308
#     4  12  22  34  54  78 108 140 184 224 274 320
#     4  11  21  34  52  79 107 142 179 228 273 315
#
# _framework density 24.038798
#
# number of rings (size 3 to 8) (size 9 to 14) (size 15 to 20)
#    0.000    2.462    3.077    0.000    0.000    0.615 
#    0.000    0.000    1.692    0.000    6.000    0.000 
#    0.000    0.000    0.000    0.000    0.000    0.000 
#
# Total GULP energy -144768.022029 kJ/mol
# GULP energy per Si atom -5568.000847 kJ/mol
# Density = 2.398408 g / cm^3
# Si number density = 24.038798 Si / 1000 Ang^3
#
#
#
# Elastic Constant Matrix: (Units=GPa)
#
#
# Indices 1 2 3 4 5 6 
#
# 1 205.4791 25.7336 42.4699 0.0000 4.5884 0.0000
# 2 25.7336 151.2936 28.5750 0.0000 14.5264 0.0000
# 3 42.4699 28.5750 75.0970 0.0000 18.5197 0.0000
# 4 0.0000 0.0000 0.0000 15.2053 0.0000 12.4801
# 5 4.5884 14.5264 18.5197 0.0000 44.2388 0.0000
# 6 0.0000 0.0000 0.0000 12.4801 0.0000 24.9624
#
#
#
# Elastic Compliance Matrix: (Units=1/GPa)
#
#
# Indices 1 2 3 4 5 6 
#
# 1 0.005563 -0.000427 -0.003207 0.000000 0.000906 0.000000
# 2 -0.000427 0.007227 -0.002156 0.000000 -0.001426 0.000000
# 3 -0.003207 -0.002156 0.017500 0.000000 -0.006285 0.000000
# 4 0.000000 0.000000 0.000000 0.111536 0.000000 -0.055763
# 5 0.000906 -0.001426 -0.006285 0.000000 0.025610 0.000000
# 6 0.000000 0.000000 0.000000 -0.055763 0.000000 0.067939
#
#
# Mechanical properties :
#
#
# Convention : Reuss Voigt Hill
#
# Bulk Modulus (GPa) = 53.45175 69.49185 61.47180
# Shear Modulus (GPa) = 19.74789 39.22071 29.48430
#
# Velocity S-wave (km/s) = 2.86929 4.04364 3.50598
# Velocity P-wave (km/s) = 5.76724 7.12547 6.48203
#
# Compressibility (1/GPa) = 0.01870846
#
# Stress axis : x y z
#
# Youngs Moduli (GPa) = 179.76691 138.37851 57.14233
#
# Poissons Ratio (x) = 0.05916 0.18324
# Poissons Ratio (y) = 0.07685 0.12322
# Poissons Ratio (z) = 0.57645 0.29839
#
# Static dielectric constant tensor:
#      x y z
#    x 2.111950 0.000000 -0.080640 
#    y 0.000000 1.944530 0.000000 
#    z -0.080640 0.000000 1.927180 
# 
# From -- ./inp_files/136870.got.cif
#   From: 2010.05.17/outbox.cif.g08.bks.cpg/sg15_69_cif.got.tgz:136870.got - 2010.06.03 18:47:42.
