data_PCOD9263115
_publ_section_title
;
Structure prediction by ZEFSAII (Michael W. Deem and Ramdas Pophale) SiO2 
 PCOD9263115
Probable space group: C 2/C
;
_chemical_formula_sum "Si O2"
_cell_formula_units_Z 48
_cell_length_a 16.566823
_cell_length_b 29.808680
_cell_length_c 5.364596
_cell_angle_alpha 90.000000
_cell_angle_beta 99.946546
_cell_angle_gamma 90.000000
_cell_volume 2609.406295
_symmetry_space_group_name_H-M "C 2/C"
_symmetry_group_IT_number 15
_symmetry_cell_setting 'monoclinic'
loop_
_space_group_symop_operation_xyz
x,y,z
-x,y,1/2-z
-x,-y,-z
x,-y,1/2+z
1/2+x,1/2+y,z
1/2-x,1/2+y,1/2-z
1/2-x,1/2-y,-z
1/2+x,1/2-y,1/2+z
loop_
_atom_site_type_symbol
_atom_site_label
_atom_site_fract_x
_atom_site_fract_y
_atom_site_fract_z
Si Si1 0.817695 0.798395 0.404680
Si Si2 0.024166 0.148876 0.514697
Si Si3 0.104073 0.766454 0.550595
Si Si4 0.405989 0.981628 0.924224
Si Si5 0.134879 0.671088 0.689373
Si Si6 0.089085 0.623688 0.182102
O O1 0.835596 0.779210 0.688924
O O2 0.725444 0.812187 0.310877
O O3 0.880830 0.839758 0.427020
O O4 0.850563 0.768204 0.192027
O O5 0.968909 0.196048 0.485819
O O6 0.000000 0.125339 0.250000
O O7 0.000000 0.124118 0.750000
O O8 0.080916 0.715178 0.592412
O O9 0.404279 0.929477 0.857910
O O10 0.368164 0.008535 0.673148
O O11 0.500000 0.000000 0.000000
O O12 0.143744 0.642025 0.440523
O O13 0.101413 0.646406 0.918533
O O14 0.000000 0.632399 0.250000
#
# Coordination Sequence:
#
# PCOD9263115 Si02
#       6
#     8   8   8   8   8   8
#     4  10  19  34  51  67  96 138 179 210 264 324
#     4   8  16  28  48  65  83 117 183 214 234 282
#     4  10  19  34  51  69  94 140 188 217 246 308
#     4  10  19  36  63  72  91 126 176 207 236 313
#     4  12  24  34  49  75 108 130 164 227 290 294
#     4  12  25  37  51  78 102 129 167 222 268 308
#
# _framework density 18.394988999999999
#
# number of rings (size 3 to 8) (size 9 to 14) (size 15 to 20)
#    0.000    1.667    1.667    4.500    2.333    6.000 
#    0.000    0.000    0.000    0.000    0.000    0.000 
#    0.000    0.000    0.000    0.000    0.000  525.000 
#
# Total GULP energy -133780.082688 kJ/mol
# GULP energy per Si atom -5574.170112 kJ/mol
# Density = 1.835312 g / cm^3
# Si number density = 18.394989 Si / 1000 Ang^3
#
#
#
# Elastic Constant Matrix: (Units=GPa)
#
#
# Indices 1 2 3 4 5 6 
#
# 1 39.9152 0.1446 -1.6926 0.0000 1.9537 0.0000
# 2 0.1446 43.4145 17.6522 0.0000 1.2742 0.0000
# 3 -1.6926 17.6522 154.8265 0.0000 -11.6113 0.0000
# 4 0.0000 0.0000 0.0000 25.3411 0.0000 -4.5473
# 5 1.9537 1.2742 -11.6113 0.0000 26.1395 0.0000
# 6 0.0000 0.0000 0.0000 -4.5473 0.0000 6.7395
#
#
#
# Elastic Compliance Matrix: (Units=1/GPa)
#
#
# Indices 1 2 3 4 5 6 
#
# 1 0.025148 -0.000092 0.000150 0.000000 -0.001809 0.000000
# 2 -0.000092 0.024311 -0.002960 0.000000 -0.002493 0.000000
# 3 0.000150 -0.002960 0.007043 0.000000 0.003261 0.000000
# 4 0.000000 0.000000 0.000000 0.044897 0.000000 0.030293
# 5 -0.001809 -0.002493 0.003261 0.000000 0.039962 0.000000
# 6 0.000000 0.000000 0.000000 0.030293 0.000000 0.168817
#
#
# Mechanical properties :
#
#
# Convention : Reuss Voigt Hill
#
# Bulk Modulus (GPa) = 19.72445 30.04051 24.88248
# Shear Modulus (GPa) = 15.02042 26.44749 20.73395
#
# Velocity S-wave (km/s) = 2.86063 3.79589 3.36095
# Velocity P-wave (km/s) = 4.65371 5.96473 5.34953
#
# Compressibility (1/GPa) = 0.05069849
#
# Stress axis : x y z
#
# Youngs Moduli (GPa) = 39.76404 41.13421 141.99473
#
# Poissons Ratio (x) = 0.00377 -0.02126
# Poissons Ratio (y) = 0.00364 0.42026
# Poissons Ratio (z) = -0.00595 0.12174
#
# Static dielectric constant tensor:
#      x y z
#    x 1.619120 0.000000 0.000930 
#    y 0.000000 1.623880 0.000000 
#    z 0.000930 0.000000 1.749070 
# 
# From -- ./inp_files/10777.got.cif
#   From: 2010.05.17/outbox.cif.g08.bks.cpg/sg15_6_cif.got.tgz:10777.got - 2010.06.03 18:47:42.
