data_PCOD9263728
_publ_section_title
;
Structure prediction by ZEFSAII (Michael W. Deem and Ramdas Pophale) SiO2 
 PCOD9263728
Probable space group: C 2/C
;
_chemical_formula_sum "Si O2"
_cell_formula_units_Z 56
_cell_length_a 15.505009
_cell_length_b 19.644676
_cell_length_c 11.570074
_cell_angle_alpha 90.000000
_cell_angle_beta 123.606846
_cell_angle_gamma 90.000000
_cell_volume 2935.097184
_symmetry_space_group_name_H-M "C 2/C"
_symmetry_group_IT_number 15
_symmetry_cell_setting 'monoclinic'
loop_
_space_group_symop_operation_xyz
x,y,z
-x,y,1/2-z
-x,-y,-z
x,-y,1/2+z
1/2+x,1/2+y,z
1/2-x,1/2+y,1/2-z
1/2-x,1/2-y,-z
1/2+x,1/2-y,1/2+z
loop_
_atom_site_type_symbol
_atom_site_label
_atom_site_fract_x
_atom_site_fract_y
_atom_site_fract_z
Si Si1 0.415335 0.058013 0.420592
Si Si2 0.426418 0.683503 0.086553
Si Si3 0.842244 0.699081 0.084665
Si Si4 0.289958 0.568777 0.079810
Si Si5 0.261703 0.062133 0.098376
Si Si6 0.958030 0.292020 0.913601
Si Si7 0.434992 0.437122 0.900682
O O1 0.320623 0.064509 0.439721
O O2 0.357080 0.048578 0.255188
O O3 0.468496 0.131070 0.464533
O O4 0.500000 0.000000 0.500000
O O5 0.500000 0.703623 0.250000
O O6 0.324687 0.643404 0.059290
O O7 0.486853 0.623745 0.064761
O O8 0.418383 0.743778 0.987155
O O9 0.803357 0.620621 0.043002
O O10 0.881799 0.705587 0.246378
O O11 0.931358 0.722594 0.062645
O O12 0.750000 0.750000 0.000000
O O13 0.378960 0.546878 0.237137
O O14 0.279152 0.509584 0.978531
O O15 0.160615 0.088655 0.091754
O O16 0.500000 0.500000 0.000000
#
# Coordination Sequence:
#
# PCOD9263728 Si02
#       7
#     8   8   8   8   8   8   8
#     4  10  22  41  60  83 117 157 208 253 294 352
#     4  10  21  39  59  89 129 161 197 243 308 375
#     4  10  21  39  63  89 116 155 203 253 309 355
#     4  10  21  36  59  88 119 160 197 243 306 359
#     4  10  20  37  61  86 119 154 196 252 298 353
#     4  10  22  41  62  86 120 159 199 255 304 359
#     4  10  19  34  59  89 124 157 192 242 297 367
#
# _framework density 19.079436000000001
#
# number of rings (size 3 to 8) (size 9 to 14) (size 15 to 20)
#    0.000    2.000    1.429    1.714    0.000    4.571 
#    5.143    0.000    0.000    0.000    0.000    0.000 
#    0.000    0.000    0.000    0.000    0.000    0.000 
#
# Total GULP energy -156038.366181 kJ/mol
# GULP energy per Si atom -5572.798792 kJ/mol
# Density = 1.903601 g / cm^3
# Si number density = 19.079436 Si / 1000 Ang^3
#
#
#
# Elastic Constant Matrix: (Units=GPa)
#
#
# Indices 1 2 3 4 5 6 
#
# 1 80.7122 49.2123 41.3930 0.0000 12.2091 0.0000
# 2 49.2123 108.4642 54.1975 0.0000 4.2885 0.0000
# 3 41.3930 54.1975 45.5439 0.0000 4.1661 0.0000
# 4 0.0000 0.0000 0.0000 23.4837 0.0000 -3.8337
# 5 12.2091 4.2885 4.1661 0.0000 28.0479 0.0000
# 6 0.0000 0.0000 0.0000 -3.8337 0.0000 33.7507
#
#
#
# Elastic Compliance Matrix: (Units=1/GPa)
#
#
# Indices 1 2 3 4 5 6 
#
# 1 0.024675 -0.000089 -0.021633 0.000000 -0.007514 0.000000
# 2 -0.000089 0.022752 -0.027047 0.000000 0.000577 0.000000
# 3 -0.021633 -0.027047 0.073565 0.000000 0.002625 0.000000
# 4 0.000000 0.000000 0.000000 0.043387 0.000000 0.004928
# 5 -0.007514 0.000577 0.002625 0.000000 0.038446 0.000000
# 6 0.000000 0.000000 0.000000 0.004928 0.000000 0.030189
#
#
# Mechanical properties :
#
#
# Convention : Reuss Voigt Hill
#
# Bulk Modulus (GPa) = 42.63780 58.25843 50.44812
# Shear Modulus (GPa) = 14.77674 23.05096 18.91385
#
# Velocity S-wave (km/s) = 2.78598 3.47963 3.15194
# Velocity P-wave (km/s) = 5.72232 6.83701 6.30435
#
# Compressibility (1/GPa) = 0.02345337
#
# Stress axis : x y z
#
# Youngs Moduli (GPa) = 40.52710 43.95192 13.59348
#
# Poissons Ratio (x) = 0.00390 0.29407
# Poissons Ratio (y) = 0.00360 0.36767
# Poissons Ratio (z) = 0.87672 1.18878
#
# Static dielectric constant tensor:
#      x y z
#    x 1.768980 0.000000 -0.037370 
#    y 0.000000 1.671880 0.000000 
#    z -0.037370 0.000000 1.662330 
# 
# From -- ./inp_files/106752.got.cif
#   From: 2010.05.17/outbox.cif.g08.bks.cpg/sg15_54_cif.got.tgz:106752.got - 2010.06.03 18:47:42.
