data_PCOD9263223
_publ_section_title
;
Structure prediction by ZEFSAII (Michael W. Deem and Ramdas Pophale) SiO2 
 PCOD9263223
Probable space group: C 2/C
;
_chemical_formula_sum "Si O2"
_cell_formula_units_Z 56
_cell_length_a 10.445643
_cell_length_b 28.009466
_cell_length_c 7.963305
_cell_angle_alpha 90.000000
_cell_angle_beta 88.441540
_cell_angle_gamma 90.000000
_cell_volume 2329.017119
_symmetry_space_group_name_H-M "C 2/C"
_symmetry_group_IT_number 15
_symmetry_cell_setting 'monoclinic'
loop_
_space_group_symop_operation_xyz
x,y,z
-x,y,1/2-z
-x,-y,-z
x,-y,1/2+z
1/2+x,1/2+y,z
1/2-x,1/2+y,1/2-z
1/2-x,1/2-y,-z
1/2+x,1/2-y,1/2+z
loop_
_atom_site_type_symbol
_atom_site_label
_atom_site_fract_x
_atom_site_fract_y
_atom_site_fract_z
Si Si1 0.280924 0.725164 0.710596
Si Si2 0.251769 0.391761 0.829398
Si Si3 0.559178 0.153215 0.582463
Si Si4 0.891395 0.806365 0.889872
Si Si5 0.640630 0.574624 0.690042
Si Si6 0.278706 0.839461 0.022606
Si Si7 0.639035 0.479598 0.833425
O O1 0.158994 0.693329 0.644006
O O2 0.232442 0.778644 0.684449
O O3 0.395272 0.714422 0.577702
O O4 0.295738 0.705787 0.897743
O O5 0.369265 0.363171 0.911608
O O6 0.251657 0.364167 0.651419
O O7 0.271217 0.446156 0.782453
O O8 0.130358 0.379931 0.947608
O O9 0.500000 0.128264 0.750000
O O10 0.428667 0.173736 0.508682
O O11 0.000000 0.797512 0.750000
O O12 0.500000 0.591709 0.750000
O O13 0.734812 0.618417 0.654428
O O14 0.681090 0.534744 0.824865
O O15 0.631514 0.544296 0.516489
O O16 0.500000 0.477554 0.750000
#
# Coordination Sequence:
#
# PCOD9263223 Si02
#       7
#     8   8   8   8   8   8   8
#     4   9  20  35  54  78 105 141 180 214 259 313
#     4  10  21  33  53  81 106 136 175 217 264 311
#     4   9  18  34  55  74  99 139 176 213 258 311
#     4  10  19  34  54  78 107 141 179 217 256 309
#     4  10  21  34  54  78 104 138 174 215 266 318
#     4  10  20  35  53  76 106 137 174 220 265 312
#     4  10  20  35  53  77 107 138 172 215 266 318
#
# _framework density 24.044477000000001
#
# number of rings (size 3 to 8) (size 9 to 14) (size 15 to 20)
#    0.000    2.286    0.000    3.857    0.000    9.714 
#    0.000    0.714    0.000    3.429    0.000    0.000 
#    0.000    0.000    0.000    0.000    0.000    0.000 
#
# Total GULP energy -156323.144165 kJ/mol
# GULP energy per Si atom -5582.969434 kJ/mol
# Density = 2.398975 g / cm^3
# Si number density = 24.044477 Si / 1000 Ang^3
#
#
#
# Elastic Constant Matrix: (Units=GPa)
#
#
# Indices 1 2 3 4 5 6 
#
# 1 62.8039 22.9535 26.8296 0.0000 -27.4889 0.0000
# 2 22.9535 96.0817 22.4249 0.0000 -15.6221 0.0000
# 3 26.8296 22.4249 127.9238 0.0000 -39.2052 0.0000
# 4 0.0000 0.0000 0.0000 47.3592 0.0000 -2.5926
# 5 -27.4889 -15.6221 -39.2052 0.0000 49.4612 0.0000
# 6 0.0000 0.0000 0.0000 -2.5926 0.0000 22.1855
#
#
#
# Elastic Compliance Matrix: (Units=1/GPa)
#
#
# Indices 1 2 3 4 5 6 
#
# 1 0.022140 -0.003378 -0.000802 0.000000 0.010602 0.000000
# 2 -0.003378 0.011613 -0.001028 0.000000 0.000975 0.000000
# 3 -0.000802 -0.001028 0.010474 0.000000 0.007531 0.000000
# 4 0.000000 0.000000 0.000000 0.021251 0.000000 0.002483
# 5 0.010602 0.000975 0.007531 0.000000 0.032388 0.000000
# 6 0.000000 0.000000 0.000000 0.002483 0.000000 0.045365
#
#
# Mechanical properties :
#
#
# Convention : Reuss Voigt Hill
#
# Bulk Modulus (GPa) = 29.57674 47.91394 38.74534
# Shear Modulus (GPa) = 30.31790 38.10794 34.21292
#
# Velocity S-wave (km/s) = 3.55478 3.98539 3.77623
# Velocity P-wave (km/s) = 5.40150 6.41469 5.92977
#
# Compressibility (1/GPa) = 0.03381036
#
# Stress axis : x y z
#
# Youngs Moduli (GPa) = 45.16631 86.10699 95.47609
#
# Poissons Ratio (x) = 0.29089 0.07658
# Poissons Ratio (y) = 0.15258 0.09818
# Poissons Ratio (z) = 0.03623 0.08855
#
# Static dielectric constant tensor:
#      x y z
#    x 1.946880 0.000000 0.088050 
#    y 0.000000 1.920430 0.000000 
#    z 0.088050 0.000000 2.055160 
# 
# From -- ./inp_files/35149.got.cif
#   From: 2010.05.17/outbox.cif.g08.bks.cpg/sg15_18_cif.got.tgz:35149.got - 2010.06.03 18:47:42.
