data_PCOD9263734
_publ_section_title
;
Structure prediction by ZEFSAII (Michael W. Deem and Ramdas Pophale) SiO2 
 PCOD9263734
Probable space group: C 2/C
;
_chemical_formula_sum "Si O2"
_cell_formula_units_Z 60
_cell_length_a 17.467459
_cell_length_b 9.245102
_cell_length_c 23.001581
_cell_angle_alpha 90.000000
_cell_angle_beta 118.555743
_cell_angle_gamma 90.000000
_cell_volume 3262.630970
_symmetry_space_group_name_H-M "C 2/C"
_symmetry_group_IT_number 15
_symmetry_cell_setting 'monoclinic'
loop_
_space_group_symop_operation_xyz
x,y,z
-x,y,1/2-z
-x,-y,-z
x,-y,1/2+z
1/2+x,1/2+y,z
1/2-x,1/2+y,1/2-z
1/2-x,1/2-y,-z
1/2+x,1/2-y,1/2+z
loop_
_atom_site_type_symbol
_atom_site_label
_atom_site_fract_x
_atom_site_fract_y
_atom_site_fract_z
Si Si1 0.500000 0.546793 0.250000
Si Si2 0.929844 0.997329 0.923894
Si Si3 0.437813 0.255441 0.830129
Si Si4 0.438470 0.233678 0.340104
Si Si5 0.200192 0.491872 0.211205
Si Si6 0.652956 0.365312 0.307892
Si Si7 0.052101 0.503139 0.830942
Si Si8 0.264336 0.932876 0.643067
O O1 0.550527 0.645206 0.222263
O O2 0.573852 0.450784 0.309325
O O3 0.941700 0.139556 0.888045
O O4 0.942416 0.858054 0.887153
O O5 0.830762 0.980927 0.911556
O O6 0.000000 0.000000 0.000000
O O7 0.349512 0.161114 0.798925
O O8 0.514158 0.136870 0.852915
O O9 0.397364 0.296360 0.265777
O O10 0.369945 0.109867 0.334018
O O11 0.525089 0.144758 0.353952
O O12 0.276422 0.473630 0.192985
O O13 0.235236 0.537727 0.287192
O O14 0.706745 0.234365 0.356027
O O15 0.153482 0.516842 0.853959
O O16 0.000000 0.499963 0.750000
#
# Coordination Sequence:
#
# PCOD9263734 Si02
#       8
#     4   8   8   8   8   8   8   8
#     4  12  20  28  58  94 124 138 182 250 318 350
#     4  12  26  43  59  79 121 175 211 233 269 351
#     4  11  21  37  58  94 122 149 191 248 302 360
#     4  10  21  35  57  86 121 150 191 242 297 359
#     4  10  19  34  59  91 119 144 186 253 318 348
#     4  11  19  30  56  95 121 144 180 253 316 356
#     4  11  19  35  62  97 125 146 175 249 334 357
#     4  11  20  35  61  87 123 150 195 242 309 357
#
# _framework density 18.390066999999998
#
# number of rings (size 3 to 8) (size 9 to 14) (size 15 to 20)
#    0.000    1.067    8.667    0.800    1.867    1.067 
#    0.000    4.000    0.000    0.000    0.000    0.000 
#    0.000    0.000    0.000    0.000    0.000    0.000 
#
# Total GULP energy -167441.515520 kJ/mol
# GULP energy per Si atom -5581.383851 kJ/mol
# Density = 1.834821 g / cm^3
# Si number density = 18.390067 Si / 1000 Ang^3
#
#
#
# Elastic Constant Matrix: (Units=GPa)
#
#
# Indices 1 2 3 4 5 6 
#
# 1 123.8512 35.0911 24.4551 0.0000 23.7592 0.0000
# 2 35.0911 101.7936 26.7634 0.0000 7.8374 0.0000
# 3 24.4551 26.7634 53.4765 0.0000 23.2430 0.0000
# 4 0.0000 0.0000 0.0000 6.4796 0.0000 -0.0934
# 5 23.7592 7.8374 23.2430 0.0000 18.8601 0.0000
# 6 0.0000 0.0000 0.0000 -0.0934 0.0000 23.1883
#
#
#
# Elastic Compliance Matrix: (Units=1/GPa)
#
#
# Indices 1 2 3 4 5 6 
#
# 1 0.011963 -0.003936 0.005035 0.000000 -0.019640 0.000000
# 2 -0.003936 0.012822 -0.009596 0.000000 0.011456 0.000000
# 3 0.005035 -0.009596 0.047859 0.000000 -0.061336 0.000000
# 4 0.000000 0.000000 0.000000 0.154339 0.000000 0.000622
# 5 -0.019640 0.011456 -0.061336 0.000000 0.148594 0.000000
# 6 0.000000 0.000000 0.000000 0.000622 0.000000 0.043128
#
#
# Mechanical properties :
#
#
# Convention : Reuss Voigt Hill
#
# Bulk Modulus (GPa) = 17.96942 50.19339 34.08140
# Shear Modulus (GPa) = 11.00725 22.55973 16.78349
#
# Velocity S-wave (km/s) = 2.44917 3.50628 3.02427
# Velocity P-wave (km/s) = 4.21786 6.61400 5.54686
#
# Compressibility (1/GPa) = 0.05565010
#
# Stress axis : x y z
#
# Youngs Moduli (GPa) = 83.59276 77.99384 20.89477
#
# Poissons Ratio (x) = 0.30696 -0.10522
# Poissons Ratio (y) = 0.32899 0.20051
# Poissons Ratio (z) = -0.42093 0.74846
#
# Static dielectric constant tensor:
#      x y z
#    x 1.675670 0.000000 0.002750 
#    y 0.000000 1.701930 0.000000 
#    z 0.002750 0.000000 1.587950 
# 
# From -- ./inp_files/247408.got.cif
#   From: 2010.05.17/outbox.cif.g08.bks.cpg/sg15_124_cif.got.tgz:247408.got - 2010.06.03 18:47:42.
