data_PCOD9263165
_publ_section_title
;
Structure prediction by ZEFSAII (Michael W. Deem and Ramdas Pophale) SiO2 
 PCOD9263165
Probable space group: C 2/C
;
_chemical_formula_sum "Si O2"
_cell_formula_units_Z 60
_cell_length_a 22.920804
_cell_length_b 20.193510
_cell_length_c 7.217954
_cell_angle_alpha 90.000000
_cell_angle_beta 110.758213
_cell_angle_gamma 90.000000
_cell_volume 3123.968095
_symmetry_space_group_name_H-M "C 2/C"
_symmetry_group_IT_number 15
_symmetry_cell_setting 'monoclinic'
loop_
_space_group_symop_operation_xyz
x,y,z
-x,y,1/2-z
-x,-y,-z
x,-y,1/2+z
1/2+x,1/2+y,z
1/2-x,1/2+y,1/2-z
1/2-x,1/2-y,-z
1/2+x,1/2-y,1/2+z
loop_
_atom_site_type_symbol
_atom_site_label
_atom_site_fract_x
_atom_site_fract_y
_atom_site_fract_z
Si Si1 0.702251 0.310575 0.907559
Si Si2 0.058769 0.619504 0.175288
Si Si3 0.729355 0.342077 0.508308
Si Si4 0.183874 0.552855 0.300941
Si Si5 0.859140 0.738703 0.162412
Si Si6 0.891518 0.715881 0.792923
Si Si7 0.799503 0.404089 0.104536
Si Si8 0.500000 0.133773 0.750000
O O1 0.708172 0.328512 0.696493
O O2 0.635740 0.275925 0.860670
O O3 0.750000 0.250000 0.000000
O O4 0.729888 0.374046 0.042111
O O5 0.117016 0.575000 0.309237
O O6 0.092836 0.691141 0.174232
O O7 0.000000 0.622487 0.250000
O O8 0.034884 0.593560 0.949432
O O9 0.755843 0.416487 0.525112
O O10 0.794767 0.302585 0.560137
O O11 0.672930 0.309560 0.326042
O O12 0.189263 0.474556 0.292641
O O13 0.186388 0.584514 0.097915
O O14 0.893159 0.741885 0.003336
O O15 0.843733 0.653974 0.727532
O O16 0.954693 0.682780 0.806706
#
# Coordination Sequence:
#
# PCOD9263165 Si02
#       8
#     8   8   8   8   8   8   8   4
#     4   8  16  31  51  73  95 127 167 216 271 308
#     4  11  22  37  52  71 103 147 185 216 249 296
#     4   8  16  30  49  75  99 122 163 220 265 314
#     4  10  21  34  50  73 105 137 173 214 261 312
#     4   9  17  31  54  73  94 130 174 216 267 306
#     4  10  19  34  53  71 101 136 172 221 261 301
#     4  10  20  34  50  73 102 133 173 215 263 313
#     4  12  22  36  50  74 108 136 182 224 248 294
#
# _framework density 19.206340999999998
#
# number of rings (size 3 to 8) (size 9 to 14) (size 15 to 20)
#    0.000    2.400    2.667    0.000    5.600    0.000 
#    1.200    1.333    0.000    0.000    0.000    0.000 
#    2.000    4.800    0.000    0.133    0.000    0.000 
#
# Total GULP energy -167035.377221 kJ/mol
# GULP energy per Si atom -5567.845907 kJ/mol
# Density = 1.916263 g / cm^3
# Si number density = 19.206341 Si / 1000 Ang^3
#
#
#
# Elastic Constant Matrix: (Units=GPa)
#
#
# Indices 1 2 3 4 5 6 
#
# 1 17.1903 39.6131 -8.9586 0.0000 -13.4344 0.0000
# 2 39.6131 84.0802 20.6586 0.0000 12.9013 0.0000
# 3 -8.9586 20.6586 48.6327 0.0000 0.6934 0.0000
# 4 0.0000 0.0000 0.0000 21.2790 0.0000 1.2115
# 5 -13.4344 12.9013 0.6934 0.0000 20.0102 0.0000
# 6 0.0000 0.0000 0.0000 1.2115 0.0000 13.3897
#
#
#
# Elastic Compliance Matrix: (Units=1/GPa)
#
#
# Indices 1 2 3 4 5 6 
#
# 1 -0.030159 0.023195 -0.014914 0.000000 -0.034686 0.000000
# 2 0.023195 -0.002994 0.005298 0.000000 0.017320 0.000000
# 3 -0.014914 0.005298 0.015764 0.000000 -0.013975 0.000000
# 4 0.000000 0.000000 0.000000 0.047238 0.000000 -0.004274
# 5 -0.034686 0.017320 -0.013975 0.000000 0.016005 0.000000
# 6 0.000000 0.000000 0.000000 -0.004274 0.000000 0.075071
#
#
# Mechanical properties :
#
#
# Convention : Reuss Voigt Hill
#
# Bulk Modulus (GPa) = 102.36220 28.05885 65.21052
# Shear Modulus (GPa) = 51.53390 17.50846 34.52118
#
# Velocity S-wave (km/s) = 5.18555 3.02254 4.24416
# Velocity P-wave (km/s) = 9.44802 5.17899 7.61863
#
# Compressibility (1/GPa) = 0.00976923
#
# Stress axis : x y z
#
# Youngs Moduli (GPa) = -33.15791 -334.00474 63.43618
#
# Poissons Ratio (x) = 7.74740 0.94609
# Poissons Ratio (y) = 0.76911 -0.33606
# Poissons Ratio (z) = -0.49452 1.76945
#
# Static dielectric constant tensor:
#      x y z
#    x 1.530010 0.000000 -0.434300 
#    y 0.000000 1.722450 0.000000 
#    z -0.434300 0.000000 0.768880 
# 
# From -- ./inp_files/63122.got.cif
#   From: 2010.05.17/outbox.cif.g08.bks.cpg/sg15_32_cif.got.tgz:63122.got - 2010.06.03 18:47:42.
