data_PCOD9263979
_publ_section_title
;
Structure prediction by ZEFSAII (Michael W. Deem and Ramdas Pophale) SiO2 
 PCOD9263979
Probable space group: C 2/C
;
_chemical_formula_sum "Si O2"
_cell_formula_units_Z 64
_cell_length_a 15.273857
_cell_length_b 25.976753
_cell_length_c 9.478025
_cell_angle_alpha 90.000000
_cell_angle_beta 73.578483
_cell_angle_gamma 90.000000
_cell_volume 3607.149739
_symmetry_space_group_name_H-M "C 2/C"
_symmetry_group_IT_number 15
_symmetry_cell_setting 'monoclinic'
loop_
_space_group_symop_operation_xyz
x,y,z
-x,y,1/2-z
-x,-y,-z
x,-y,1/2+z
1/2+x,1/2+y,z
1/2-x,1/2+y,1/2-z
1/2-x,1/2-y,-z
1/2+x,1/2-y,1/2+z
loop_
_atom_site_type_symbol
_atom_site_label
_atom_site_fract_x
_atom_site_fract_y
_atom_site_fract_z
Si Si1 0.604686 0.942646 0.028349
Si Si2 0.609104 0.049732 0.860050
Si Si3 0.722421 0.857757 0.812934
Si Si4 0.719578 0.865554 0.479125
Si Si5 0.114101 0.741916 0.449644
Si Si6 0.095541 0.265887 0.499669
Si Si7 0.392991 0.301070 0.775870
Si Si8 0.101956 0.180700 0.725204
O O1 0.495934 0.931545 0.073450
O O2 0.627627 0.951481 0.183388
O O3 0.664736 0.897571 0.932507
O O4 0.617171 0.993834 0.928486
O O5 0.674126 0.087872 0.915773
O O6 0.718552 0.872048 0.649053
O O7 0.679390 0.801095 0.857271
O O8 0.826658 0.849755 0.815153
O O9 0.659966 0.814748 0.471629
O O10 0.820445 0.854844 0.373739
O O11 0.131296 0.755413 0.604075
O O12 0.118880 0.798274 0.374222
O O13 0.010521 0.721555 0.478395
O O14 0.121081 0.224043 0.370528
O O15 0.103373 0.234920 0.640724
O O16 0.500000 0.312941 0.750000
O O17 0.000000 0.159498 0.750000
#
# Coordination Sequence:
#
# PCOD9263979 Si02
#       8
#     8   8   8   8   8   8   8   8
#     4  10  23  42  62  85 114 141 177 225 278 333
#     4  10  23  42  62  86 112 142 177 225 279 330
#     4  12  22  35  56  84 111 148 191 228 277 330
#     4  12  22  34  58  83 111 148 190 230 274 331
#     4  10  21  32  52  79 115 152 188 230 271 322
#     4  10  19  35  51  78 116 152 188 224 272 327
#     4  10  22  36  51  77 117 155 188 231 274 318
#     4  10  20  35  52  78 114 155 192 225 265 322
#
# _framework density 17.742539000000001
#
# number of rings (size 3 to 8) (size 9 to 14) (size 15 to 20)
#    0.000    1.500    2.500    3.000    3.500    2.500 
#    0.000    0.000    0.000    0.750    0.000    3.500 
#    0.000    0.000    0.000    0.000    0.000    0.000 
#
# Total GULP energy -178636.427888 kJ/mol
# GULP energy per Si atom -5582.388371 kJ/mol
# Density = 1.770216 g / cm^3
# Si number density = 17.742539 Si / 1000 Ang^3
#
#
#
# Elastic Constant Matrix: (Units=GPa)
#
#
# Indices 1 2 3 4 5 6 
#
# 1 95.8251 55.1336 56.4639 0.0000 -9.3552 0.0000
# 2 55.1336 59.3265 39.1654 0.0000 -4.7208 0.0000
# 3 56.4639 39.1654 95.8149 0.0000 -9.0939 0.0000
# 4 0.0000 0.0000 0.0000 26.7708 0.0000 -5.9097
# 5 -9.3552 -4.7208 -9.0939 0.0000 25.1706 0.0000
# 6 0.0000 0.0000 0.0000 -5.9097 0.0000 22.2174
#
#
#
# Elastic Compliance Matrix: (Units=1/GPa)
#
#
# Indices 1 2 3 4 5 6 
#
# 1 0.026044 -0.019191 -0.007172 0.000000 0.003489 0.000000
# 2 -0.019191 0.037249 -0.004070 0.000000 -0.001617 0.000000
# 3 -0.007172 -0.004070 0.016570 0.000000 0.002557 0.000000
# 4 0.000000 0.000000 0.000000 0.039684 0.000000 0.010556
# 5 0.003489 -0.001617 0.002557 0.000000 0.041646 0.000000
# 6 0.000000 0.000000 0.000000 0.010556 0.000000 0.047817
#
#
# Mechanical properties :
#
#
# Convention : Reuss Voigt Hill
#
# Bulk Modulus (GPa) = 52.64185 61.38804 57.01495
# Shear Modulus (GPa) = 18.10224 21.51201 19.80712
#
# Velocity S-wave (km/s) = 3.19764 3.48581 3.34483
# Velocity P-wave (km/s) = 6.58540 7.13271 6.86451
#
# Compressibility (1/GPa) = 0.01899629
#
# Stress axis : x y z
#
# Youngs Moduli (GPa) = 38.39649 26.84659 60.35093
#
# Poissons Ratio (x) = 0.51521 0.43285
# Poissons Ratio (y) = 0.73686 0.24563
# Poissons Ratio (z) = 0.27539 0.10927
#
# Static dielectric constant tensor:
#      x y z
#    x 1.640260 0.000000 -0.014790 
#    y 0.000000 1.555560 0.000000 
#    z -0.014790 0.000000 1.620330 
# 
# From -- ./inp_files/43534.got.cif
#   From: 2010.05.17/outbox.cif.g08.bks.cpg/sg15_22_cif.got.tgz:43534.got - 2010.06.03 18:47:42.
