data_PCOD9263746
_publ_section_title
;
Structure prediction by ZEFSAII (Michael W. Deem and Ramdas Pophale) SiO2 
 PCOD9263746
Probable space group: C 2/C
;
_chemical_formula_sum "Si O2"
_cell_formula_units_Z 36
_cell_length_a 12.613135
_cell_length_b 9.737137
_cell_length_c 11.281553
_cell_angle_alpha 90.000000
_cell_angle_beta 78.912912
_cell_angle_gamma 90.000000
_cell_volume 1359.693292
_symmetry_space_group_name_H-M "C 2/C"
_symmetry_group_IT_number 15
_symmetry_cell_setting 'monoclinic'
loop_
_space_group_symop_operation_xyz
x,y,z
-x,y,1/2-z
-x,-y,-z
x,-y,1/2+z
1/2+x,1/2+y,z
1/2-x,1/2+y,1/2-z
1/2-x,1/2-y,-z
1/2+x,1/2-y,1/2+z
loop_
_atom_site_type_symbol
_atom_site_label
_atom_site_fract_x
_atom_site_fract_y
_atom_site_fract_z
Si Si1 0.500000 0.274556 0.250000
Si Si2 0.646964 0.359526 0.025154
Si Si3 0.211798 0.422070 0.069540
Si Si4 0.471305 0.745581 0.381831
Si Si5 0.891914 0.519122 0.160645
O O1 0.595545 0.356217 0.166473
O O2 0.443321 0.167850 0.171445
O O3 0.750000 0.250000 0.000000
O O4 0.671541 0.511315 0.971084
O O5 0.549299 0.313328 0.962647
O O6 0.177331 0.484418 0.206652
O O7 0.157334 0.271475 0.084714
O O8 0.166214 0.481224 0.953142
O O9 0.500000 0.679836 0.250000
O O10 0.515993 0.903872 0.367198
#
# Coordination Sequence:
#
# PCOD9263746 Si02
#       5
#     4   8   8   8   8
#     4  12  20  32  58  92 134 160 226 274 324 398
#     4  12  21  34  61 100 131 173 226 277 332 414
#     4  11  21  34  61  93 130 173 223 269 347 392
#     4  10  19  34  59  94 132 167 219 283 331 398
#     4  11  17  32  55  88 122 169 207 264 328 395
#
# _framework density 26.476557
#
# number of rings (size 3 to 8) (size 9 to 14) (size 15 to 20)
#    0.000    0.889   10.000    0.667    0.000    0.000 
#    0.000    0.000    4.889    6.667    0.000    0.000 
#    0.000    0.000    0.000    0.000    0.000    0.000 
#
# Total GULP energy -100467.583154 kJ/mol
# GULP energy per Si atom -5581.532397 kJ/mol
# Density = 2.641630 g / cm^3
# Si number density = 26.476557 Si / 1000 Ang^3
#
#
#
# Elastic Constant Matrix: (Units=GPa)
#
#
# Indices 1 2 3 4 5 6 
#
# 1 98.9353 28.6953 53.6695 0.0000 -25.1357 0.0000
# 2 28.6953 110.2716 37.3850 0.0000 -33.0050 0.0000
# 3 53.6695 37.3850 148.2798 0.0000 -2.6799 0.0000
# 4 0.0000 0.0000 0.0000 5.8624 0.0000 -4.0245
# 5 -25.1357 -33.0050 -2.6799 0.0000 53.8193 0.0000
# 6 0.0000 0.0000 0.0000 -4.0245 0.0000 15.6231
#
#
#
# Elastic Compliance Matrix: (Units=1/GPa)
#
#
# Indices 1 2 3 4 5 6 
#
# 1 0.014568 -0.000114 -0.005127 0.000000 0.006479 0.000000
# 2 -0.000114 0.012285 -0.002924 0.000000 0.007335 0.000000
# 3 -0.005127 -0.002924 0.009270 0.000000 -0.003726 0.000000
# 4 0.000000 0.000000 0.000000 0.207222 0.000000 0.053380
# 5 0.006479 0.007335 -0.003726 0.000000 0.025919 0.000000
# 6 0.000000 0.000000 0.000000 0.053380 0.000000 0.077759
#
#
# Mechanical properties :
#
#
# Convention : Reuss Voigt Hill
#
# Bulk Modulus (GPa) = 50.52139 66.33180 58.42659
# Shear Modulus (GPa) = 13.51539 30.91008 22.21274
#
# Velocity S-wave (km/s) = 2.26180 3.42050 2.89962
# Velocity P-wave (km/s) = 5.09352 6.38022 5.77283
#
# Compressibility (1/GPa) = 0.01979360
#
# Stress axis : x y z
#
# Youngs Moduli (GPa) = 68.64426 81.40232 107.88057
#
# Poissons Ratio (x) = 0.00924 0.55311
# Poissons Ratio (y) = 0.00779 0.31540
# Poissons Ratio (z) = 0.35194 0.23799
#
# Static dielectric constant tensor:
#      x y z
#    x 2.256370 0.000000 -0.080160 
#    y 0.000000 2.163550 0.000000 
#    z -0.080160 0.000000 2.119160 
# 
# From -- ./inp_files/84378.got.cif
#   From: 2010.05.17/outbox.cif.g08.bks.cpg/sg15_43_cif.got.tgz:84378.got - 2010.06.03 18:47:42.
