data_PCOD9263421
_publ_section_title
;
Structure prediction by ZEFSAII (Michael W. Deem and Ramdas Pophale) SiO2 
 PCOD9263421
Probable space group: C 2/C
;
_chemical_formula_sum "Si O2"
_cell_formula_units_Z 64
_cell_length_a 24.900434
_cell_length_b 10.224674
_cell_length_c 19.128106
_cell_angle_alpha 90.000000
_cell_angle_beta 132.153966
_cell_angle_gamma 90.000000
_cell_volume 3610.340484
_symmetry_space_group_name_H-M "C 2/C"
_symmetry_group_IT_number 15
_symmetry_cell_setting 'monoclinic'
loop_
_space_group_symop_operation_xyz
x,y,z
-x,y,1/2-z
-x,-y,-z
x,-y,1/2+z
1/2+x,1/2+y,z
1/2-x,1/2+y,1/2-z
1/2-x,1/2-y,-z
1/2+x,1/2-y,1/2+z
loop_
_atom_site_type_symbol
_atom_site_label
_atom_site_fract_x
_atom_site_fract_y
_atom_site_fract_z
Si Si1 0.802100 0.133775 0.613867
Si Si2 0.286499 0.936140 0.583948
Si Si3 0.718972 0.870490 0.182126
Si Si4 0.054489 0.397467 0.083696
Si Si5 0.206782 0.921889 0.660645
Si Si6 0.939005 0.496083 0.254004
Si Si7 0.538508 0.377807 0.498347
Si Si8 0.541848 0.691874 0.714099
O O1 0.774717 0.041109 0.527789
O O2 0.808073 0.283493 0.591274
O O3 0.740588 0.127891 0.619569
O O4 0.881533 0.115562 0.715803
O O5 0.253435 0.943848 0.631964
O O6 0.360101 0.018126 0.649237
O O7 0.637008 0.914637 0.127270
O O8 0.727023 0.719028 0.210869
O O9 0.774486 0.963004 0.270519
O O10 0.054965 0.419059 0.167717
O O11 0.031743 0.252379 0.039759
O O12 0.000000 0.500000 0.000000
O O13 0.123394 0.909753 0.567082
O O14 0.946027 0.650841 0.279776
O O15 0.000000 0.465040 0.250000
O O16 0.500000 0.500000 0.500000
O O17 0.504467 0.349502 0.393093
O O18 0.500000 0.667862 0.750000
#
# Coordination Sequence:
#
# PCOD9263421 Si02
#       8
#     8   8   8   8   8   8   8   8
#     4   9  18  30  52  81 112 144 184 238 283 342
#     4   9  17  32  52  80 112 142 186 233 291 330
#     4  10  21  34  56  83 111 149 186 237 289 340
#     4  11  22  37  57  84 117 150 196 244 293 348
#     4  10  20  36  57  81 113 149 187 235 287 344
#     4  10  20  33  58  84 116 153 194 247 297 346
#     4  11  23  37  58  87 118 157 197 241 300 358
#     4  10  19  34  56  86 116 152 200 245 292 349
#
# _framework density 17.726859999999999
#
# number of rings (size 3 to 8) (size 9 to 14) (size 15 to 20)
#    0.000    2.000    2.500    1.500    1.750    4.000 
#    0.000    0.625    0.000    2.250    0.000    0.000 
#    0.000    0.000    0.000    0.000    0.000    0.000 
#
# Total GULP energy -178408.165423 kJ/mol
# GULP energy per Si atom -5575.255169 kJ/mol
# Density = 1.768651 g / cm^3
# Si number density = 17.726860 Si / 1000 Ang^3
#
#
#
# Elastic Constant Matrix: (Units=GPa)
#
#
# Indices 1 2 3 4 5 6 
#
# 1 96.0737 37.1526 37.9031 0.0000 7.0449 0.0000
# 2 37.1526 49.8931 50.9795 0.0000 6.0680 0.0000
# 3 37.9031 50.9795 126.2006 0.0000 -0.3115 0.0000
# 4 0.0000 0.0000 0.0000 19.2353 0.0000 0.8424
# 5 7.0449 6.0680 -0.3115 0.0000 25.5107 0.0000
# 6 0.0000 0.0000 0.0000 0.8424 0.0000 20.9353
#
#
#
# Elastic Compliance Matrix: (Units=1/GPa)
#
#
# Indices 1 2 3 4 5 6 
#
# 1 0.014674 -0.010616 -0.000123 0.000000 -0.001529 0.000000
# 2 -0.010616 0.043657 -0.014466 0.000000 -0.007629 0.000000
# 3 -0.000123 -0.014466 0.013813 0.000000 0.003643 0.000000
# 4 0.000000 0.000000 0.000000 0.052080 0.000000 -0.002096
# 5 -0.001529 -0.007629 0.003643 0.000000 0.041481 0.000000
# 6 0.000000 0.000000 0.000000 -0.002096 0.000000 0.047851
#
#
# Mechanical properties :
#
#
# Convention : Reuss Voigt Hill
#
# Bulk Modulus (GPa) = 46.00777 58.24866 52.12822
# Shear Modulus (GPa) = 18.43595 22.87839 20.65717
#
# Velocity S-wave (km/s) = 3.22840 3.59640 3.41736
# Velocity P-wave (km/s) = 6.31719 7.08348 6.71128
#
# Compressibility (1/GPa) = 0.02173546
#
# Stress axis : x y z
#
# Youngs Moduli (GPa) = 68.14551 22.90606 72.39395
#
# Poissons Ratio (x) = 0.24317 0.00889
# Poissons Ratio (y) = 0.72343 1.04724
# Poissons Ratio (z) = 0.00837 0.33135
#
# Static dielectric constant tensor:
#      x y z
#    x 1.619180 0.000000 0.039130 
#    y 0.000000 1.600890 0.000000 
#    z 0.039130 0.000000 1.637120 
# 
# From -- ./inp_files/219158.got.cif
#   From: 2010.05.17/outbox.cif.g08.bks.cpg/sg15_110_cif.got.tgz:219158.got - 2010.06.03 18:47:42.
