data_PCOD9263245
_publ_section_title
;
Structure prediction by ZEFSAII (Michael W. Deem and Ramdas Pophale) SiO2 
 PCOD9263245
Probable space group: C 2/C
;
_chemical_formula_sum "Si O2"
_cell_formula_units_Z 48
_cell_length_a 16.548075
_cell_length_b 14.736145
_cell_length_c 13.397661
_cell_angle_alpha 90.000000
_cell_angle_beta 47.536755
_cell_angle_gamma 90.000000
_cell_volume 2410.162692
_symmetry_space_group_name_H-M "C 2/C"
_symmetry_group_IT_number 15
_symmetry_cell_setting 'monoclinic'
loop_
_space_group_symop_operation_xyz
x,y,z
-x,y,1/2-z
-x,-y,-z
x,-y,1/2+z
1/2+x,1/2+y,z
1/2-x,1/2+y,1/2-z
1/2-x,1/2-y,-z
1/2+x,1/2-y,1/2+z
loop_
_atom_site_type_symbol
_atom_site_label
_atom_site_fract_x
_atom_site_fract_y
_atom_site_fract_z
Si Si1 0.765816 0.452888 0.905566
Si Si2 0.943503 0.079083 0.396861
Si Si3 0.443946 0.920441 0.164814
Si Si4 0.138109 0.756894 0.652374
Si Si5 0.661235 0.973051 0.442719
Si Si6 0.661425 0.600800 0.306800
O O1 0.875848 0.494587 0.766086
O O2 0.711647 0.382587 0.873716
O O3 0.672180 0.531793 0.987902
O O4 0.795700 0.426158 0.992857
O O5 0.926720 0.183658 0.377459
O O6 0.000000 0.036697 0.250000
O O7 0.033106 0.075642 0.408889
O O8 0.410835 0.835619 0.261336
O O9 0.398612 0.910886 0.089561
O O10 0.570903 0.950237 0.050127
O O11 0.250000 0.750000 0.500000
O O12 0.166106 0.817670 0.725228
O O13 0.763693 0.021668 0.303744
#
# Coordination Sequence:
#
# PCOD9263245 Si02
#       6
#     8   8   8   8   8   8
#     4  11  19  36  56  80 113 151 193 231 285 359
#     4  10  19  34  54  82 112 143 183 236 292 333
#     4  10  22  36  59  85 114 151 198 245 288 344
#     4  11  20  37  58  88 116 145 192 248 294 333
#     4  10  20  38  57  83 116 157 192 236 293 351
#     4  10  22  33  54  85 112 148 189 233 291 347
#
# _framework density 19.915666999999999
#
# number of rings (size 3 to 8) (size 9 to 14) (size 15 to 20)
#    0.000    1.667    5.000    1.000    0.000    8.000 
#    0.000    0.833    0.000    0.000    0.000    2.333 
#    0.000    0.000    0.000    0.000    0.000    0.000 
#
# Total GULP energy -133681.972780 kJ/mol
# GULP energy per Si atom -5570.082199 kJ/mol
# Density = 1.987034 g / cm^3
# Si number density = 19.915667 Si / 1000 Ang^3
#
#
#
# Elastic Constant Matrix: (Units=GPa)
#
#
# Indices 1 2 3 4 5 6 
#
# 1 160.1391 25.6120 42.6701 0.0000 30.5655 0.0000
# 2 25.6120 49.0920 18.9030 0.0000 5.6177 0.0000
# 3 42.6701 18.9030 75.7899 0.0000 6.0675 0.0000
# 4 0.0000 0.0000 0.0000 35.0767 0.0000 7.2329
# 5 30.5655 5.6177 6.0675 0.0000 53.8050 0.0000
# 6 0.0000 0.0000 0.0000 7.2329 0.0000 23.7219
#
#
#
# Elastic Compliance Matrix: (Units=1/GPa)
#
#
# Indices 1 2 3 4 5 6 
#
# 1 0.008437 -0.002466 -0.003806 0.000000 -0.004106 0.000000
# 2 -0.002466 0.023416 -0.004408 0.000000 -0.000547 0.000000
# 3 -0.003806 -0.004408 0.016375 0.000000 0.000776 0.000000
# 4 0.000000 0.000000 0.000000 0.030422 0.000000 -0.009276
# 5 -0.004106 -0.000547 0.000776 0.000000 0.020888 0.000000
# 6 0.000000 0.000000 0.000000 -0.009276 0.000000 0.044983
#
#
# Mechanical properties :
#
#
# Convention : Reuss Voigt Hill
#
# Bulk Modulus (GPa) = 37.22042 51.04346 44.13194
# Shear Modulus (GPa) = 28.59798 35.70978 32.15388
#
# Velocity S-wave (km/s) = 3.79351 4.23904 4.02245
# Velocity P-wave (km/s) = 6.15769 7.04590 6.61672
#
# Compressibility (1/GPa) = 0.02686697
#
# Stress axis : x y z
#
# Youngs Moduli (GPa) = 118.52670 42.70496 61.07017
#
# Poissons Ratio (x) = 0.10532 0.23245
# Poissons Ratio (y) = 0.29231 0.26920
# Poissons Ratio (z) = 0.45114 0.18825
#
# Static dielectric constant tensor:
#      x y z
#    x 1.884320 0.000000 -0.124900 
#    y 0.000000 1.710350 0.000000 
#    z -0.124900 0.000000 1.877470 
# 
# From -- ./inp_files/106292.got.cif
#   From: 2010.05.17/outbox.cif.g08.bks.cpg/sg15_54_cif.got.tgz:106292.got - 2010.06.03 18:47:42.
