data_PCOD9263886
_publ_section_title
;
Structure prediction by ZEFSAII (Michael W. Deem and Ramdas Pophale) SiO2 
 PCOD9263886
Probable space group: C 2/C
;
_chemical_formula_sum "Si O2"
_cell_formula_units_Z 52
_cell_length_a 7.700289
_cell_length_b 16.906500
_cell_length_c 17.080282
_cell_angle_alpha 90.000000
_cell_angle_beta 95.047102
_cell_angle_gamma 90.000000
_cell_volume 2214.973899
_symmetry_space_group_name_H-M "C 2/C"
_symmetry_group_IT_number 15
_symmetry_cell_setting 'monoclinic'
loop_
_space_group_symop_operation_xyz
x,y,z
-x,y,1/2-z
-x,-y,-z
x,-y,1/2+z
1/2+x,1/2+y,z
1/2-x,1/2+y,1/2-z
1/2-x,1/2-y,-z
1/2+x,1/2-y,1/2+z
loop_
_atom_site_type_symbol
_atom_site_label
_atom_site_fract_x
_atom_site_fract_y
_atom_site_fract_z
Si Si1 0.000000 0.896933 0.250000
Si Si2 0.808927 0.679568 0.121606
Si Si3 0.523063 0.967681 0.666094
Si Si4 0.810238 0.165047 0.217012
Si Si5 0.855280 0.213164 0.881507
Si Si6 0.990942 0.873536 0.520649
Si Si7 0.677188 0.518645 0.899259
O O1 0.106563 0.844679 0.190677
O O2 0.114012 0.951369 0.311967
O O3 0.768428 0.705430 0.208378
O O4 0.632922 0.683220 0.065662
O O5 0.862604 0.586122 0.131181
O O6 0.972578 0.731388 0.101663
O O7 0.500000 0.008630 0.750000
O O8 0.672438 0.902693 0.691897
O O9 0.613515 0.016808 0.601198
O O10 0.801821 0.229500 0.148269
O O11 0.000000 0.137546 0.250000
O O12 0.841964 0.166393 0.961827
O O13 0.907080 0.934839 0.578538
O O14 0.104772 0.922228 0.461453
#
# Coordination Sequence:
#
# PCOD9263886 Si02
#       7
#     4   8   8   8   8   8   8
#     4  10  20  36  64  76 120 158 200 244 296 348
#     4  10  19  36  62  85 118 156 195 250 300 350
#     4   9  20  35  58  91 118 152 202 247 286 347
#     4  10  19  34  62  90 114 151 206 247 289 351
#     4  10  19  40  58  88 119 153 195 253 301 349
#     4  10  22  37  61  90 123 161 194 243 307 355
#     4  10  22  38  58  89 121 163 199 236 296 367
#
# _framework density 23.476573999999999
#
# number of rings (size 3 to 8) (size 9 to 14) (size 15 to 20)
#    0.000    2.154    1.538    2.308    5.385    0.615 
#    0.000    9.231    0.000    0.000    0.000    0.000 
#    0.000    0.000    0.000    0.000    0.000    0.000 
#
# Total GULP energy -145197.867148 kJ/mol
# GULP energy per Si atom -5584.533352 kJ/mol
# Density = 2.342314 g / cm^3
# Si number density = 23.476574 Si / 1000 Ang^3
#
#
#
# Elastic Constant Matrix: (Units=GPa)
#
#
# Indices 1 2 3 4 5 6 
#
# 1 61.8495 -3.6639 21.6864 0.0000 -2.7241 0.0000
# 2 -3.6639 44.1503 21.0750 0.0000 4.1394 0.0000
# 3 21.6864 21.0750 109.2176 0.0000 3.3750 0.0000
# 4 0.0000 0.0000 0.0000 18.3732 0.0000 1.6876
# 5 -2.7241 4.1394 3.3750 0.0000 31.1475 0.0000
# 6 0.0000 0.0000 0.0000 1.6876 0.0000 24.7368
#
#
#
# Elastic Compliance Matrix: (Units=1/GPa)
#
#
# Indices 1 2 3 4 5 6 
#
# 1 0.017932 0.003373 -0.004260 0.000000 0.001582 0.000000
# 2 0.003373 0.025829 -0.005576 0.000000 -0.002533 0.000000
# 3 -0.004260 -0.005576 0.011104 0.000000 -0.000835 0.000000
# 4 0.000000 0.000000 0.000000 0.054770 0.000000 -0.003737
# 5 0.001582 -0.002533 -0.000835 0.000000 0.032671 0.000000
# 6 0.000000 0.000000 0.000000 -0.003737 0.000000 0.040680
#
#
# Mechanical properties :
#
#
# Convention : Reuss Voigt Hill
#
# Bulk Modulus (GPa) = 23.84403 32.60136 28.22270
# Shear Modulus (GPa) = 23.82199 26.59285 25.20742
#
# Velocity S-wave (km/s) = 3.18891 3.36927 3.28033
# Velocity P-wave (km/s) = 4.87211 5.39007 5.13762
#
# Compressibility (1/GPa) = 0.04193922
#
# Stress axis : x y z
#
# Youngs Moduli (GPa) = 55.76747 38.71640 90.06052
#
# Poissons Ratio (x) = -0.13061 0.38369
# Poissons Ratio (y) = -0.18813 0.50214
# Poissons Ratio (z) = 0.23759 0.21587
#
# Static dielectric constant tensor:
#      x y z
#    x 1.890400 0.000000 -0.038790 
#    y 0.000000 1.954290 0.000000 
#    z -0.038790 0.000000 1.904970 
# 
# From -- ./inp_files/190576.got.cif
#   From: 2010.05.17/outbox.cif.g08.bks.cpg/sg15_96_cif.got.tgz:190576.got - 2010.06.03 18:47:42.
