data_PCOD9263618
_publ_section_title
;
Structure prediction by ZEFSAII (Michael W. Deem and Ramdas Pophale) SiO2 
 PCOD9263618
Probable space group: C 2/C
;
_chemical_formula_sum "Si O2"
_cell_formula_units_Z 56
_cell_length_a 17.313801
_cell_length_b 9.660329
_cell_length_c 14.056678
_cell_angle_alpha 90.000000
_cell_angle_beta 77.187615
_cell_angle_gamma 90.000000
_cell_volume 2292.539536
_symmetry_space_group_name_H-M "C 2/C"
_symmetry_group_IT_number 15
_symmetry_cell_setting 'monoclinic'
loop_
_space_group_symop_operation_xyz
x,y,z
-x,y,1/2-z
-x,-y,-z
x,-y,1/2+z
1/2+x,1/2+y,z
1/2-x,1/2+y,1/2-z
1/2-x,1/2-y,-z
1/2+x,1/2-y,1/2+z
loop_
_atom_site_type_symbol
_atom_site_label
_atom_site_fract_x
_atom_site_fract_y
_atom_site_fract_z
Si Si1 0.064430 0.080548 0.111749
Si Si2 0.469195 0.135908 0.913404
Si Si3 0.291163 0.101887 0.012181
Si Si4 0.799065 0.061940 0.807482
Si Si5 0.091561 0.917039 0.381632
Si Si6 0.480604 0.832173 0.898593
Si Si7 0.797188 0.673144 0.403376
O O1 0.121075 0.983503 0.156548
O O2 0.097089 0.083729 0.994259
O O3 0.055399 0.238724 0.147675
O O4 0.976245 0.025012 0.127551
O O5 0.385853 0.109696 0.989868
O O6 0.526092 0.181367 0.984111
O O7 0.499744 0.990644 0.866921
O O8 0.262017 0.037015 0.120427
O O9 0.250000 0.250000 0.000000
O O10 0.279666 0.986688 0.932210
O O11 0.827919 0.044952 0.692523
O O12 0.775356 0.223826 0.823265
O O13 0.050323 0.774648 0.355370
O O14 0.392372 0.809130 0.884891
O O15 0.750000 0.750000 0.500000
#
# Coordination Sequence:
#
# PCOD9263618 Si02
#       7
#     8   8   8   8   8   8   8
#     4  10  19  34  58  86 117 152 196 240 300 349
#     4   9  18  33  57  83 110 156 191 238 305 349
#     4  10  19  35  58  83 118 156 195 241 302 352
#     4  11  20  36  60  83 117 158 199 245 289 361
#     4  10  21  34  58  88 114 154 201 244 294 353
#     4   9  17  33  56  81 113 143 196 239 292 357
#     4   9  19  32  55  85 108 151 193 237 297 352
#
# _framework density 24.427059
#
# number of rings (size 3 to 8) (size 9 to 14) (size 15 to 20)
#    0.000    2.286    2.857    0.429    0.000    0.000 
#    0.000    1.429   22.000    0.000    0.000    0.000 
#    0.000    0.000    0.000    0.000    0.000    0.000 
#
# Total GULP energy -156155.133562 kJ/mol
# GULP energy per Si atom -5576.969056 kJ/mol
# Density = 2.437146 g / cm^3
# Si number density = 24.427059 Si / 1000 Ang^3
#
#
#
# Elastic Constant Matrix: (Units=GPa)
#
#
# Indices 1 2 3 4 5 6 
#
# 1 46.5793 17.6497 19.7968 0.0000 -2.6646 0.0000
# 2 17.6497 171.8402 17.3273 0.0000 -3.3217 0.0000
# 3 19.7968 17.3273 117.3645 0.0000 -27.0579 0.0000
# 4 0.0000 0.0000 0.0000 10.3880 0.0000 -11.3323
# 5 -2.6646 -3.3217 -27.0579 0.0000 14.5036 0.0000
# 6 0.0000 0.0000 0.0000 -11.3323 0.0000 26.4251
#
#
#
# Elastic Compliance Matrix: (Units=1/GPa)
#
#
# Indices 1 2 3 4 5 6 
#
# 1 0.024068 -0.002073 -0.004990 0.000000 -0.005362 0.000000
# 2 -0.002073 0.006088 -0.000554 0.000000 -0.000019 0.000000
# 3 -0.004990 -0.000554 0.016149 0.000000 0.029084 0.000000
# 4 0.000000 0.000000 0.000000 0.180893 0.000000 0.077575
# 5 -0.005362 -0.000019 0.029084 0.000000 0.122218 0.000000
# 6 0.000000 0.000000 0.000000 0.077575 0.000000 0.071111
#
#
# Mechanical properties :
#
#
# Convention : Reuss Voigt Hill
#
# Bulk Modulus (GPa) = 32.18275 49.48129 40.83202
# Shear Modulus (GPa) = 11.20783 28.99734 20.10259
#
# Velocity S-wave (km/s) = 2.14435 3.44917 2.87185
# Velocity P-wave (km/s) = 4.39712 6.01357 5.26772
#
# Compressibility (1/GPa) = 0.03107255
#
# Stress axis : x y z
#
# Youngs Moduli (GPa) = 41.54870 164.26617 61.92281
#
# Poissons Ratio (x) = 0.34045 0.30900
# Poissons Ratio (y) = 0.08611 0.03428
# Poissons Ratio (z) = 0.20733 0.09095
#
# Static dielectric constant tensor:
#      x y z
#    x 1.972430 0.000000 0.074080 
#    y 0.000000 2.069280 0.000000 
#    z 0.074080 0.000000 2.047770 
# 
# From -- ./inp_files/218192.got.cif
#   From: 2010.05.17/outbox.cif.g08.bks.cpg/sg15_110_cif.got.tgz:218192.got - 2010.06.03 18:47:42.
