data_PCOD9263608
_publ_section_title
;
Structure prediction by ZEFSAII (Michael W. Deem and Ramdas Pophale) SiO2 
 PCOD9263608
Probable space group: C 2/C
;
_chemical_formula_sum "Si O2"
_cell_formula_units_Z 56
_cell_length_a 15.008398
_cell_length_b 16.803966
_cell_length_c 15.009506
_cell_angle_alpha 90.000000
_cell_angle_beta 48.587349
_cell_angle_gamma 90.000000
_cell_volume 2838.922558
_symmetry_space_group_name_H-M "C 2/C"
_symmetry_group_IT_number 15
_symmetry_cell_setting 'monoclinic'
loop_
_space_group_symop_operation_xyz
x,y,z
-x,y,1/2-z
-x,-y,-z
x,-y,1/2+z
1/2+x,1/2+y,z
1/2-x,1/2+y,1/2-z
1/2-x,1/2-y,-z
1/2+x,1/2-y,1/2+z
loop_
_atom_site_type_symbol
_atom_site_label
_atom_site_fract_x
_atom_site_fract_y
_atom_site_fract_z
Si Si1 0.125124 0.479050 0.185246
Si Si2 0.109434 0.632725 0.855155
Si Si3 0.624215 0.720249 0.220545
Si Si4 0.367097 0.458555 0.477104
Si Si5 0.660623 0.121605 0.491296
Si Si6 0.445123 0.428807 0.615157
Si Si7 0.787867 0.961176 0.339041
O O1 0.122093 0.445993 0.286037
O O2 0.231310 0.537468 0.096013
O O3 0.000000 0.519017 0.250000
O O4 0.136050 0.403678 0.110108
O O5 0.151020 0.705582 0.766469
O O6 0.199965 0.611008 0.873599
O O7 0.968049 0.643107 0.965535
O O8 0.500000 0.735220 0.250000
O O9 0.738317 0.688555 0.089324
O O10 0.595314 0.646848 0.304569
O O11 0.430884 0.417307 0.518880
O O12 0.420807 0.547915 0.448231
O O13 0.366440 0.437786 0.373690
O O14 0.710122 0.038678 0.418125
O O15 0.370338 0.504402 0.704625
#
# Coordination Sequence:
#
# PCOD9263608 Si02
#       7
#     8   8   8   8   8   8   8
#     4   9  17  31  52  81 108 142 190 229 277 336
#     4  11  21  34  53  83 115 150 186 230 285 348
#     4  11  22  36  55  81 117 147 184 239 287 343
#     4  10  19  34  58  86 106 147 188 239 284 325
#     4   9  20  35  55  79 111 152 185 233 291 327
#     4  10  20  36  58  84 113 145 192 234 288 333
#     4  10  19  36  57  82 115 145 191 237 277 337
#
# _framework density 19.725791999999998
#
# number of rings (size 3 to 8) (size 9 to 14) (size 15 to 20)
#    0.000    2.000    1.429    4.714    0.000    3.429 
#    0.000    0.714    0.000    0.000    0.000    0.000 
#    0.000    0.000    0.000    0.000    0.000    0.000 
#
# Total GULP energy -155985.718323 kJ/mol
# GULP energy per Si atom -5570.918512 kJ/mol
# Density = 1.968090 g / cm^3
# Si number density = 19.725792 Si / 1000 Ang^3
#
#
#
# Elastic Constant Matrix: (Units=GPa)
#
#
# Indices 1 2 3 4 5 6 
#
# 1 132.0489 25.9353 30.8384 0.0000 9.4502 0.0000
# 2 25.9353 37.8691 10.8610 0.0000 1.7042 0.0000
# 3 30.8384 10.8610 68.5423 0.0000 -8.0830 0.0000
# 4 0.0000 0.0000 0.0000 15.9682 0.0000 6.4137
# 5 9.4502 1.7042 -8.0830 0.0000 34.7152 0.0000
# 6 0.0000 0.0000 0.0000 6.4137 0.0000 15.0765
#
#
#
# Elastic Compliance Matrix: (Units=1/GPa)
#
#
# Indices 1 2 3 4 5 6 
#
# 1 0.009797 -0.005431 -0.003938 0.000000 -0.003317 0.000000
# 2 -0.005431 0.030878 -0.002523 0.000000 -0.000625 0.000000
# 3 -0.003938 -0.002523 0.017380 0.000000 0.005243 0.000000
# 4 0.000000 0.000000 0.000000 0.075530 0.000000 -0.032131
# 5 -0.003317 -0.000625 0.005243 0.000000 0.030960 0.000000
# 6 0.000000 0.000000 0.000000 -0.032131 0.000000 0.079998
#
#
# Mechanical properties :
#
#
# Convention : Reuss Voigt Hill
#
# Bulk Modulus (GPa) = 29.18032 41.52552 35.35292
# Shear Modulus (GPa) = 17.87313 24.54036 21.20674
#
# Velocity S-wave (km/s) = 3.01338 3.53097 3.28239
# Velocity P-wave (km/s) = 5.18964 6.14172 5.68565
#
# Compressibility (1/GPa) = 0.03426968
#
# Stress axis : x y z
#
# Youngs Moduli (GPa) = 102.07489 32.38577 57.53895
#
# Poissons Ratio (x) = 0.17587 0.22661
# Poissons Ratio (y) = 0.55433 0.14518
# Poissons Ratio (z) = 0.40201 0.08171
#
# Static dielectric constant tensor:
#      x y z
#    x 1.763910 0.000000 -0.010080 
#    y 0.000000 1.660700 0.000000 
#    z -0.010080 0.000000 1.762780 
# 
# From -- ./inp_files/155133.got.cif
#   From: 2010.05.17/outbox.cif.g08.bks.cpg/sg15_78_cif.got.tgz:155133.got - 2010.06.03 18:47:42.
