data_PCOD9263042
_publ_section_title
;
Structure prediction by ZEFSAII (Michael W. Deem and Ramdas Pophale) SiO2 
 PCOD9263042
Probable space group: C 2/C
;
_chemical_formula_sum "Si O2"
_cell_formula_units_Z 64
_cell_length_a 15.777476
_cell_length_b 9.357226
_cell_length_c 21.184326
_cell_angle_alpha 90.000000
_cell_angle_beta 95.875082
_cell_angle_gamma 90.000000
_cell_volume 3111.086762
_symmetry_space_group_name_H-M "C 2/C"
_symmetry_group_IT_number 15
_symmetry_cell_setting 'monoclinic'
loop_
_space_group_symop_operation_xyz
x,y,z
-x,y,1/2-z
-x,-y,-z
x,-y,1/2+z
1/2+x,1/2+y,z
1/2-x,1/2+y,1/2-z
1/2-x,1/2-y,-z
1/2+x,1/2-y,1/2+z
loop_
_atom_site_type_symbol
_atom_site_label
_atom_site_fract_x
_atom_site_fract_y
_atom_site_fract_z
Si Si1 0.306910 0.912677 0.131832
Si Si2 0.637014 0.982128 0.728336
Si Si3 0.669577 0.523952 0.285387
Si Si4 0.721793 0.591431 0.018993
Si Si5 0.574032 0.270595 0.707987
Si Si6 0.121200 0.826451 0.171576
Si Si7 0.549921 0.551289 0.080681
Si Si8 0.636039 0.610891 0.419321
O O1 0.216417 0.851323 0.150864
O O2 0.350343 0.775922 0.100693
O O3 0.353099 0.988817 0.195245
O O4 0.283969 0.030654 0.077741
O O5 0.731291 0.011960 0.707689
O O6 0.609451 0.831506 0.697425
O O7 0.574117 0.103029 0.699326
O O8 0.659441 0.678511 0.250532
O O9 0.618547 0.422818 0.234322
O O10 0.633104 0.528948 0.352214
O O11 0.627161 0.594684 0.041579
O O12 0.750000 0.750000 0.000000
O O13 0.710545 0.467365 0.964653
O O14 0.500000 0.312601 0.750000
O O15 0.564473 0.348449 0.642316
O O16 0.061923 0.892372 0.111878
O O17 0.454125 0.586980 0.052578
#
# Coordination Sequence:
#
# PCOD9263042 Si02
#       8
#     8   8   8   8   8   8   8   8
#     4  10  21  40  62  92 119 164 206 251 298 371
#     4  11  19  35  62  92 127 148 196 249 312 354
#     4  10  19  33  60  88 113 164 198 235 299 373
#     4  11  27  42  63  91 117 160 219 265 294 342
#     4  11  20  38  59  91 124 157 192 243 314 376
#     4   9  20  34  58  93 127 153 192 250 304 365
#     4  10  23  42  62  88 126 160 204 244 307 372
#     4  12  21  42  65  82 122 169 210 242 306 363
#
# _framework density 20.571591000000002
#
# number of rings (size 3 to 8) (size 9 to 14) (size 15 to 20)
#    0.000    1.500    3.750    2.250    3.500    0.000 
#    2.250    1.875    0.000    0.000    0.000    0.000 
#    0.000    0.000    0.000    0.000    0.000    0.000 
#
# Total GULP energy -178479.417743 kJ/mol
# GULP energy per Si atom -5577.481804 kJ/mol
# Density = 2.052477 g / cm^3
# Si number density = 20.571591 Si / 1000 Ang^3
#
#
#
# Elastic Constant Matrix: (Units=GPa)
#
#
# Indices 1 2 3 4 5 6 
#
# 1 54.7996 15.6408 12.7018 0.0000 -9.0725 0.0000
# 2 15.6408 115.9991 41.3926 0.0000 -5.4613 0.0000
# 3 12.7018 41.3926 59.2782 0.0000 -2.2661 0.0000
# 4 0.0000 0.0000 0.0000 10.9224 0.0000 -6.0014
# 5 -9.0725 -5.4613 -2.2661 0.0000 27.8258 0.0000
# 6 0.0000 0.0000 0.0000 -6.0014 0.0000 21.1177
#
#
#
# Elastic Compliance Matrix: (Units=1/GPa)
#
#
# Indices 1 2 3 4 5 6 
#
# 1 0.020383 -0.001312 -0.003217 0.000000 0.006126 0.000000
# 2 -0.001312 0.011638 -0.007799 0.000000 0.001221 0.000000
# 3 -0.003217 -0.007799 0.022978 0.000000 -0.000708 0.000000
# 4 0.000000 0.000000 0.000000 0.108496 0.000000 0.030833
# 5 0.006126 0.001221 -0.000708 0.000000 0.038117 0.000000
# 6 0.000000 0.000000 0.000000 0.030833 0.000000 0.056116
#
#
# Mechanical properties :
#
#
# Convention : Reuss Voigt Hill
#
# Bulk Modulus (GPa) = 32.95704 41.06082 37.00893
# Shear Modulus (GPa) = 17.09413 22.66264 19.87838
#
# Velocity S-wave (km/s) = 2.88576 3.32271 3.11191
# Velocity P-wave (km/s) = 5.21142 5.89269 5.56250
#
# Compressibility (1/GPa) = 0.03034253
#
# Stress axis : x y z
#
# Youngs Moduli (GPa) = 49.06121 85.92527 43.52066
#
# Poissons Ratio (x) = 0.11272 0.14002
# Poissons Ratio (y) = 0.06436 0.33941
# Poissons Ratio (z) = 0.15784 0.67011
#
# Static dielectric constant tensor:
#      x y z
#    x 1.807250 0.000000 0.019230 
#    y 0.000000 1.781100 0.000000 
#    z 0.019230 0.000000 1.755680 
# 
# From -- ./inp_files/247470.got.cif
#   From: 2010.05.17/outbox.cif.g08.bks.cpg/sg15_124_cif.got.tgz:247470.got - 2010.06.03 18:47:42.
