data_PCOD9263711
_publ_section_title
;
Structure prediction by ZEFSAII (Michael W. Deem and Ramdas Pophale) SiO2 
 PCOD9263711
Probable space group: C 2/C
;
_chemical_formula_sum "Si O2"
_cell_formula_units_Z 40
_cell_length_a 21.192455
_cell_length_b 9.188730
_cell_length_c 10.195498
_cell_angle_alpha 90.000000
_cell_angle_beta 76.625366
_cell_angle_gamma 90.000000
_cell_volume 1931.540227
_symmetry_space_group_name_H-M "C 2/C"
_symmetry_group_IT_number 15
_symmetry_cell_setting 'monoclinic'
loop_
_space_group_symop_operation_xyz
x,y,z
-x,y,1/2-z
-x,-y,-z
x,-y,1/2+z
1/2+x,1/2+y,z
1/2-x,1/2+y,1/2-z
1/2-x,1/2-y,-z
1/2+x,1/2-y,1/2+z
loop_
_atom_site_type_symbol
_atom_site_label
_atom_site_fract_x
_atom_site_fract_y
_atom_site_fract_z
Si Si1 0.089635 0.201632 0.724218
Si Si2 0.004415 0.330987 0.529667
Si Si3 0.800449 0.881229 0.636355
Si Si4 0.765886 0.097689 0.869341
Si Si5 0.552134 0.572564 0.378450
O O1 0.056628 0.285953 0.618699
O O2 0.166745 0.189024 0.680521
O O3 0.062495 0.276174 0.870100
O O4 0.064760 0.033033 0.748572
O O5 0.025699 0.237310 0.391945
O O6 0.000000 0.500000 0.500000
O O7 0.764992 0.937762 0.522990
O O8 0.790551 0.708288 0.642429
O O9 0.875942 0.921575 0.594120
O O10 0.770676 0.957966 0.776920
O O11 0.500000 0.500000 0.500000
#
# Coordination Sequence:
#
# PCOD9263711 Si02
#       5
#     8   8   8   8   8
#     4   9  19  37  56  81 119 157 201 252 308 387
#     4  10  19  34  59  87 119 151 205 261 318 357
#     4  10  21  38  63  90 120 163 203 255 310 365
#     4  10  21  39  62  87 123 158 207 254 309 372
#     4   9  18  36  62  84 115 163 206 245 301 379
#
# _framework density 20.708860999999999
#
# number of rings (size 3 to 8) (size 9 to 14) (size 15 to 20)
#    0.000    2.400    2.000    0.000    0.000    2.400 
#    0.000   12.000    4.400    0.000    0.000    0.000 
#    0.000    0.000    0.000    0.000    0.000    0.000 
#
# Total GULP energy -111474.133770 kJ/mol
# GULP energy per Si atom -5573.706689 kJ/mol
# Density = 2.066173 g / cm^3
# Si number density = 20.708861 Si / 1000 Ang^3
#
#
#
# Elastic Constant Matrix: (Units=GPa)
#
#
# Indices 1 2 3 4 5 6 
#
# 1 60.7604 4.9348 -12.8618 0.0000 3.2938 0.0000
# 2 4.9348 116.4419 22.1382 0.0000 12.1039 0.0000
# 3 -12.8618 22.1382 47.9381 0.0000 4.9351 0.0000
# 4 0.0000 0.0000 0.0000 34.9200 0.0000 3.6537
# 5 3.2938 12.1039 4.9351 0.0000 22.4143 0.0000
# 6 0.0000 0.0000 0.0000 3.6537 0.0000 30.5153
#
#
#
# Elastic Compliance Matrix: (Units=1/GPa)
#
#
# Indices 1 2 3 4 5 6 
#
# 1 0.017994 -0.001556 0.005865 0.000000 -0.003095 0.000000
# 2 -0.001556 0.009957 -0.004590 0.000000 -0.004137 0.000000
# 3 0.005865 -0.004590 0.024952 0.000000 -0.003877 0.000000
# 4 0.000000 0.000000 0.000000 0.029000 0.000000 -0.003472
# 5 -0.003095 -0.004137 -0.003877 0.000000 0.048157 0.000000
# 6 0.000000 0.000000 0.000000 -0.003472 0.000000 0.033186
#
#
# Mechanical properties :
#
#
# Convention : Reuss Voigt Hill
#
# Bulk Modulus (GPa) = 19.10520 28.17364 23.63942
# Shear Modulus (GPa) = 27.58552 31.63187 29.60869
#
# Velocity S-wave (km/s) = 3.65370 3.91251 3.78532
# Velocity P-wave (km/s) = 5.20049 5.83476 5.52673
#
# Compressibility (1/GPa) = 0.05234177
#
# Stress axis : x y z
#
# Youngs Moduli (GPa) = 55.57491 100.43633 40.07622
#
# Poissons Ratio (x) = 0.15627 -0.23504
# Poissons Ratio (y) = 0.08647 0.18393
# Poissons Ratio (z) = -0.32594 0.46095
#
# Static dielectric constant tensor:
#      x y z
#    x 1.793540 0.000000 0.024650 
#    y 0.000000 1.759420 0.000000 
#    z 0.024650 0.000000 1.798900 
# 
# From -- ./inp_files/115944.got.cif
#   From: 2010.05.17/outbox.cif.g08.bks.cpg/sg15_58_cif.got.tgz:115944.got - 2010.06.03 18:47:42.
