data_PCOD9263729
_publ_section_title
;
Structure prediction by ZEFSAII (Michael W. Deem and Ramdas Pophale) SiO2 
 PCOD9263729
Probable space group: C 2/C
;
_chemical_formula_sum "Si O2"
_cell_formula_units_Z 40
_cell_length_a 12.679882
_cell_length_b 13.599064
_cell_length_c 13.962542
_cell_angle_alpha 90.000000
_cell_angle_beta 134.319956
_cell_angle_gamma 90.000000
_cell_volume 1722.533459
_symmetry_space_group_name_H-M "C 2/C"
_symmetry_group_IT_number 15
_symmetry_cell_setting 'monoclinic'
loop_
_space_group_symop_operation_xyz
x,y,z
-x,y,1/2-z
-x,-y,-z
x,-y,1/2+z
1/2+x,1/2+y,z
1/2-x,1/2+y,1/2-z
1/2-x,1/2-y,-z
1/2+x,1/2-y,1/2+z
loop_
_atom_site_type_symbol
_atom_site_label
_atom_site_fract_x
_atom_site_fract_y
_atom_site_fract_z
Si Si1 0.157629 0.838306 0.392928
Si Si2 0.575667 0.916119 0.427473
Si Si3 0.323613 0.516299 0.950001
Si Si4 0.581637 0.292491 0.898580
Si Si5 0.715780 0.009344 0.677732
O O1 0.250000 0.750000 0.500000
O O2 0.242377 0.895627 0.360165
O O3 0.000000 0.805446 0.250000
O O4 0.133345 0.923010 0.458139
O O5 0.660650 0.951940 0.387154
O O6 0.504158 0.808702 0.379826
O O7 0.445114 0.986517 0.376048
O O8 0.700811 0.923420 0.589887
O O9 0.319030 0.497338 0.834535
O O10 0.413597 0.615228 0.029388
O O11 0.500000 0.322387 0.750000
O O12 0.750000 0.250000 0.000000
#
# Coordination Sequence:
#
# PCOD9263729 Si02
#       5
#     8   8   8   8   8
#     4  11  27  47  64  91 130 175 224 272 326 392
#     4   9  19  36  61  99 133 164 209 258 320 391
#     4  10  21  39  65  94 128 162 211 271 324 388
#     4  10  19  34  59  89 124 158 195 255 318 369
#     4  10  21  38  65  95 130 175 214 259 322 387
#
# _framework density 23.221610999999999
#
# number of rings (size 3 to 8) (size 9 to 14) (size 15 to 20)
#    0.000    2.000    0.000    3.600    0.000    8.800 
#    0.000    2.000    0.000    0.000    0.000    0.000 
#    0.000    0.000    0.000    0.000    0.000    0.000 
#
# Total GULP energy -111611.256790 kJ/mol
# GULP energy per Si atom -5580.562839 kJ/mol
# Density = 2.316876 g / cm^3
# Si number density = 23.221611 Si / 1000 Ang^3
#
#
#
# Elastic Constant Matrix: (Units=GPa)
#
#
# Indices 1 2 3 4 5 6 
#
# 1 105.7768 15.9372 34.9524 0.0000 -3.9013 0.0000
# 2 15.9372 80.4029 42.3591 0.0000 -0.0785 0.0000
# 3 34.9524 42.3591 165.3161 0.0000 -26.4750 0.0000
# 4 0.0000 0.0000 0.0000 39.6881 0.0000 -4.5563
# 5 -3.9013 -0.0785 -26.4750 0.0000 47.9137 0.0000
# 6 0.0000 0.0000 0.0000 -4.5563 0.0000 20.5866
#
#
#
# Elastic Compliance Matrix: (Units=1/GPa)
#
#
# Indices 1 2 3 4 5 6 
#
# 1 0.010239 -0.001004 -0.001947 0.000000 -0.000243 0.000000
# 2 -0.001004 0.014693 -0.003907 0.000000 -0.002217 0.000000
# 3 -0.001947 -0.003907 0.008157 0.000000 0.004342 0.000000
# 4 0.000000 0.000000 0.000000 0.025853 0.000000 0.005722
# 5 -0.000243 -0.002217 0.004342 0.000000 0.023247 0.000000
# 6 0.000000 0.000000 0.000000 0.005722 0.000000 0.049842
#
#
# Mechanical properties :
#
#
# Convention : Reuss Voigt Hill
#
# Bulk Modulus (GPa) = 51.61870 59.77701 55.69786
# Shear Modulus (GPa) = 32.85032 38.85415 35.85224
#
# Velocity S-wave (km/s) = 3.76526 4.09490 3.93353
# Velocity P-wave (km/s) = 6.41715 6.93941 6.68339
#
# Compressibility (1/GPa) = 0.01937282
#
# Stress axis : x y z
#
# Youngs Moduli (GPa) = 97.66179 68.06028 122.59100
#
# Poissons Ratio (x) = 0.06836 0.23863
# Poissons Ratio (y) = 0.09809 0.47902
# Poissons Ratio (z) = 0.19010 0.26594
#
# Static dielectric constant tensor:
#      x y z
#    x 1.953720 0.000000 -0.003870 
#    y 0.000000 1.890800 0.000000 
#    z -0.003870 0.000000 2.039650 
# 
# From -- ./inp_files/154159.got.cif
#   From: 2010.05.17/outbox.cif.g08.bks.cpg/sg15_78_cif.got.tgz:154159.got - 2010.06.03 18:47:42.
