data_PCOD9263220
_publ_section_title
;
Structure prediction by ZEFSAII (Michael W. Deem and Ramdas Pophale) SiO2 
 PCOD9263220
Probable space group: C 2/C
;
_chemical_formula_sum "Si O2"
_cell_formula_units_Z 48
_cell_length_a 18.100587
_cell_length_b 9.008334
_cell_length_c 15.746663
_cell_angle_alpha 90.000000
_cell_angle_beta 92.416510
_cell_angle_gamma 90.000000
_cell_volume 2565.306680
_symmetry_space_group_name_H-M "C 2/C"
_symmetry_group_IT_number 15
_symmetry_cell_setting 'monoclinic'
loop_
_space_group_symop_operation_xyz
x,y,z
-x,y,1/2-z
-x,-y,-z
x,-y,1/2+z
1/2+x,1/2+y,z
1/2-x,1/2+y,1/2-z
1/2-x,1/2-y,-z
1/2+x,1/2-y,1/2+z
loop_
_atom_site_type_symbol
_atom_site_label
_atom_site_fract_x
_atom_site_fract_y
_atom_site_fract_z
Si Si1 0.967795 0.067119 0.839519
Si Si2 0.670064 0.275089 0.767161
Si Si3 0.397674 0.776006 0.599863
Si Si4 0.180291 0.873964 0.253242
Si Si5 0.586091 0.266145 0.588556
Si Si6 0.457104 0.908912 0.159086
O O1 0.891198 0.146885 0.810714
O O2 0.000000 0.009242 0.750000
O O3 0.028930 0.176476 0.879365
O O4 0.948270 0.929817 0.898436
O O5 0.744975 0.184560 0.784592
O O6 0.682939 0.451010 0.774346
O O7 0.641921 0.245390 0.669665
O O8 0.604494 0.215558 0.823638
O O9 0.336526 0.716641 0.662016
O O10 0.378064 0.755048 0.500902
O O11 0.418252 0.943792 0.623831
O O12 0.518408 0.152516 0.597796
O O13 0.500000 0.939924 0.250000
#
# Coordination Sequence:
#
# PCOD9263220 Si02
#       6
#     8   8   8   8   8   8
#     4   9  18  34  54  76 101 136 176 208 250 307
#     4  10  21  37  56  74 102 140 177 210 250 308
#     4  11  20  32  55  82 107 131 167 217 260 301
#     4  10  20  35  54  76 101 137 177 210 251 304
#     4  10  20  34  54  79 107 135 166 213 263 303
#     4  10  19  34  54  77 103 136 174 209 250 306
#
# _framework density 18.711213999999998
#
# number of rings (size 3 to 8) (size 9 to 14) (size 15 to 20)
#    0.000    2.000    0.000    7.000    0.000    2.000 
#    0.000    0.000    0.000    6.000    0.000    0.000 
#    0.000    0.000    0.000    0.000    0.000    0.000 
#
# Total GULP energy -134025.868600 kJ/mol
# GULP energy per Si atom -5584.411192 kJ/mol
# Density = 1.866863 g / cm^3
# Si number density = 18.711214 Si / 1000 Ang^3
#
#
#
# Elastic Constant Matrix: (Units=GPa)
#
#
# Indices 1 2 3 4 5 6 
#
# 1 56.6444 -2.3929 -13.1812 0.0000 -1.0249 0.0000
# 2 -2.3929 41.2241 -0.4734 0.0000 1.6339 0.0000
# 3 -13.1812 -0.4734 41.1345 0.0000 -10.0566 0.0000
# 4 0.0000 0.0000 0.0000 13.2529 0.0000 0.7450
# 5 -1.0249 1.6339 -10.0566 0.0000 10.2744 0.0000
# 6 0.0000 0.0000 0.0000 0.7450 0.0000 24.0905
#
#
#
# Elastic Compliance Matrix: (Units=1/GPa)
#
#
# Indices 1 2 3 4 5 6 
#
# 1 0.019984 0.000840 0.009029 0.000000 0.010697 0.000000
# 2 0.000840 0.024471 -0.000500 0.000000 -0.004297 0.000000
# 3 0.009029 -0.000500 0.036069 0.000000 0.036284 0.000000
# 4 0.000000 0.000000 0.000000 0.075587 0.000000 -0.002337
# 5 0.010697 -0.004297 0.036284 0.000000 0.134595 0.000000
# 6 0.000000 0.000000 0.000000 -0.002337 0.000000 0.041582
#
#
# Mechanical properties :
#
#
# Convention : Reuss Voigt Hill
#
# Bulk Modulus (GPa) = 10.07448 11.87866 10.97657
# Shear Modulus (GPa) = 14.42427 19.86026 17.14226
#
# Velocity S-wave (km/s) = 2.77950 3.26146 3.03008
# Velocity P-wave (km/s) = 3.96191 4.53266 4.25686
#
# Compressibility (1/GPa) = 0.09926075
#
# Stress axis : x y z
#
# Youngs Moduli (GPa) = 50.04000 40.86479 27.72479
#
# Poissons Ratio (x) = -0.03431 -0.25032
# Poissons Ratio (y) = -0.04202 0.01386
# Poissons Ratio (z) = -0.45179 0.02043
#
# Static dielectric constant tensor:
#      x y z
#    x 1.637330 0.000000 0.005080 
#    y 0.000000 1.637590 0.000000 
#    z 0.005080 0.000000 1.636700 
# 
# From -- ./inp_files/159691.got.cif
#   From: 2010.05.17/outbox.cif.g08.bks.cpg/sg15_80_cif.got.tgz:159691.got - 2010.06.03 18:47:42.
