data_PCOD9263740
_publ_section_title
;
Structure prediction by ZEFSAII (Michael W. Deem and Ramdas Pophale) SiO2 
 PCOD9263740
Probable space group: C 2/C
;
_chemical_formula_sum "Si O2"
_cell_formula_units_Z 52
_cell_length_a 14.205318
_cell_length_b 17.870384
_cell_length_c 14.730691
_cell_angle_alpha 90.000000
_cell_angle_beta 138.973078
_cell_angle_gamma 90.000000
_cell_volume 2454.627075
_symmetry_space_group_name_H-M "C 2/C"
_symmetry_group_IT_number 15
_symmetry_cell_setting 'monoclinic'
loop_
_space_group_symop_operation_xyz
x,y,z
-x,y,1/2-z
-x,-y,-z
x,-y,1/2+z
1/2+x,1/2+y,z
1/2-x,1/2+y,1/2-z
1/2-x,1/2-y,-z
1/2+x,1/2-y,1/2+z
loop_
_atom_site_type_symbol
_atom_site_label
_atom_site_fract_x
_atom_site_fract_y
_atom_site_fract_z
Si Si1 0.240391 0.612046 0.329898
Si Si2 0.147761 0.162140 0.372661
Si Si3 0.000000 0.705763 0.250000
Si Si4 0.889854 0.535728 0.749434
Si Si5 0.255863 0.196196 0.641709
Si Si6 0.932184 0.616672 0.484407
Si Si7 0.984301 0.769317 0.039683
O O1 0.134471 0.653937 0.322259
O O2 0.240348 0.523451 0.350703
O O3 0.155613 0.609325 0.172839
O O4 0.381948 0.662995 0.433186
O O5 0.154551 0.192547 0.479215
O O6 0.144445 0.232847 0.302315
O O7 0.302347 0.126998 0.462255
O O8 0.000000 0.117661 0.250000
O O9 0.037204 0.750798 0.369347
O O10 0.837343 0.619440 0.697239
O O11 0.000000 0.514255 0.750000
O O12 0.972666 0.549850 0.905171
O O13 0.150038 0.206561 0.648456
O O14 0.023774 0.692697 0.527395
#
# Coordination Sequence:
#
# PCOD9263740 Si02
#       7
#     8   8   4   8   8   8   8
#     4  11  23  43  64  90 127 164 216 262 315 380
#     4  10  19  34  59  92 126 159 206 253 305 372
#     4  10  22  42  66  94 118 164 216 268 310 370
#     4  12  23  41  61  92 133 167 204 256 328 378
#     4  10  22  35  59  90 124 161 202 257 312 371
#     4  10  23  38  64  94 125 168 215 257 312 375
#     4  10  23  41  66  94 123 165 219 268 310 367
#
# _framework density 21.184481000000002
#
# number of rings (size 3 to 8) (size 9 to 14) (size 15 to 20)
#    0.000    1.538    2.308    2.308   10.769    0.615 
#    0.000    0.000    1.692    0.000    0.000    0.000 
#    0.000    0.000    0.000    0.000    0.000    0.000 
#
# Total GULP energy -144894.968206 kJ/mol
# GULP energy per Si atom -5572.883393 kJ/mol
# Density = 2.113626 g / cm^3
# Si number density = 21.184481 Si / 1000 Ang^3
#
#
#
# Elastic Constant Matrix: (Units=GPa)
#
#
# Indices 1 2 3 4 5 6 
#
# 1 90.1962 8.4849 25.6117 0.0001 -9.2548 -0.0002
# 2 8.4849 73.7018 20.2040 0.0000 5.7195 -0.0003
# 3 25.6117 20.2040 76.2829 0.0001 -3.7017 -0.0004
# 4 0.0001 0.0000 0.0001 48.4650 0.0001 41.8818
# 5 -9.2548 5.7195 -3.7017 0.0001 36.9209 -0.0003
# 6 -0.0002 -0.0003 -0.0004 41.8818 -0.0003 110.0189
#
#
#
# Elastic Compliance Matrix: (Units=1/GPa)
#
#
# Indices 1 2 3 4 5 6 
#
# 1 0.012547 -0.000591 -0.003918 0.000000 0.002844 0.000000
# 2 -0.000591 0.014925 -0.003893 0.000000 -0.002850 0.000000
# 3 -0.003918 -0.003893 0.015513 0.000000 0.001176 0.000000
# 4 0.000000 0.000000 0.000000 0.030749 0.000000 -0.011705
# 5 0.002844 -0.002850 0.001176 0.000000 0.028357 0.000000
# 6 0.000000 0.000000 0.000000 -0.011705 0.000000 0.013545
#
#
# Mechanical properties :
#
#
# Convention : Reuss Voigt Hill
#
# Bulk Modulus (GPa) = 38.19647 38.75356 38.47502
# Shear Modulus (GPa) = 35.41927 51.47298 43.44613
#
# Velocity S-wave (km/s) = 4.09338 4.93460 4.53354
# Velocity P-wave (km/s) = 6.35693 7.12742 6.75317
#
# Compressibility (1/GPa) = 0.02618043
#
# Stress axis : x y z
#
# Youngs Moduli (GPa) = 79.70105 67.00363 64.46354
#
# Poissons Ratio (x) = 0.03961 0.25257
# Poissons Ratio (y) = 0.04711 0.25094
# Poissons Ratio (z) = 0.31227 0.26083
#
# Static dielectric constant tensor:
#      x y z
#    x 1.828830 0.000000 -0.021970 
#    y 0.000000 1.800440 0.000000 
#    z -0.021970 0.000000 1.851000 
# 
# From -- ./inp_files/155536.got.cif
#   From: 2010.05.17/outbox.cif.g08.bks.cpg/sg15_78_cif.got.tgz:155536.got - 2010.06.03 18:47:42.
