data_PCOD9263190
_publ_section_title
;
Structure prediction by ZEFSAII (Michael W. Deem and Ramdas Pophale) SiO2 
 PCOD9263190
Probable space group: C 2/C
;
_chemical_formula_sum "Si O2"
_cell_formula_units_Z 36
_cell_length_a 19.219682
_cell_length_b 13.107985
_cell_length_c 12.730922
_cell_angle_alpha 90.000000
_cell_angle_beta 25.412202
_cell_angle_gamma 90.000000
_cell_volume 1376.348266
_symmetry_space_group_name_H-M "C 2/C"
_symmetry_group_IT_number 15
_symmetry_cell_setting 'monoclinic'
loop_
_space_group_symop_operation_xyz
x,y,z
-x,y,1/2-z
-x,-y,-z
x,-y,1/2+z
1/2+x,1/2+y,z
1/2-x,1/2+y,1/2-z
1/2-x,1/2-y,-z
1/2+x,1/2-y,1/2+z
loop_
_atom_site_type_symbol
_atom_site_label
_atom_site_fract_x
_atom_site_fract_y
_atom_site_fract_z
Si Si1 0.047292 0.747975 0.900776
Si Si2 0.681042 0.115646 0.396045
Si Si3 0.500000 0.522944 0.250000
Si Si4 0.261256 0.609606 0.747332
Si Si5 0.328772 0.334363 0.462769
O O1 0.990787 0.673457 0.882987
O O2 0.891633 0.821315 0.131875
O O3 0.198921 0.825691 0.688455
O O4 0.110503 0.672737 0.906207
O O5 0.693680 0.994185 0.390285
O O6 0.122070 0.083753 0.011121
O O7 0.613706 0.444438 0.160890
O O8 0.249394 0.365756 0.682661
O O9 0.500000 0.282996 0.250000
O O10 0.250000 0.250000 0.500000
#
# Coordination Sequence:
#
# PCOD9263190 Si02
#       5
#     8   8   4   8   8
#     4  10  21  33  56  79 103 145 172 214 264 309
#     4  10  19  34  53  81 107 135 173 219 261 314
#     4   8  20  34  56  72 106 140 168 222 252 304
#     4  10  20  37  53  75 108 137 182 213 260 303
#     4   9  17  31  53  75 106 134 169 210 268 305
#
# _framework density 26.156171000000001
#
# number of rings (size 3 to 8) (size 9 to 14) (size 15 to 20)
#    0.667    1.778    0.000    2.667    0.000    0.889 
#    0.000    0.000    9.778    0.000    0.000    0.000 
#    0.000    0.000    0.000    0.000    0.000    0.000 
#
# Total GULP energy -100337.030300 kJ/mol
# GULP energy per Si atom -5574.279461 kJ/mol
# Density = 2.609664 g / cm^3
# Si number density = 26.156171 Si / 1000 Ang^3
#
#
#
# Elastic Constant Matrix: (Units=GPa)
#
#
# Indices 1 2 3 4 5 6 
#
# 1 83.0697 48.1835 69.1179 0.0000 -16.1688 0.0000
# 2 48.1835 205.6504 67.2833 0.0000 -37.9896 0.0000
# 3 69.1179 67.2833 119.5520 0.0000 -51.2438 0.0000
# 4 0.0000 0.0000 0.0000 43.4721 0.0000 -18.9763
# 5 -16.1688 -37.9896 -51.2438 0.0000 55.6471 0.0000
# 6 0.0000 0.0000 0.0000 -18.9763 0.0000 39.2318
#
#
#
# Elastic Compliance Matrix: (Units=1/GPa)
#
#
# Indices 1 2 3 4 5 6 
#
# 1 0.027233 -0.002132 -0.019457 0.000000 -0.011460 0.000000
# 2 -0.002132 0.006217 -0.001177 0.000000 0.002541 0.000000
# 3 -0.019457 -0.001177 0.028925 0.000000 0.020180 0.000000
# 4 0.000000 0.000000 0.000000 0.029160 0.000000 0.014105
# 5 -0.011460 0.002541 0.020180 0.000000 0.034958 0.000000
# 6 0.000000 0.000000 0.000000 0.014105 0.000000 0.032312
#
#
# Mechanical properties :
#
#
# Convention : Reuss Voigt Hill
#
# Bulk Modulus (GPa) = 59.37028 86.38240 72.87634
# Shear Modulus (GPa) = 23.81509 42.58269 33.19889
#
# Velocity S-wave (km/s) = 3.02072 4.03925 3.56653
# Velocity P-wave (km/s) = 5.90880 7.40617 6.69945
#
# Compressibility (1/GPa) = 0.01684344
#
# Stress axis : x y z
#
# Youngs Moduli (GPa) = 36.72016 160.86047 34.57172
#
# Poissons Ratio (x) = 0.34294 0.67265
# Poissons Ratio (y) = 0.07828 0.04070
# Poissons Ratio (z) = 0.71445 0.18936
#
# Static dielectric constant tensor:
#      x y z
#    x 2.114750 0.000000 0.037780 
#    y 0.000000 2.133190 0.000000 
#    z 0.037780 0.000000 2.067780 
# 
# From -- ./inp_files/215529.got.cif
#   From: 2010.05.17/outbox.cif.g08.bks.cpg/sg15_108_cif.got.tgz:215529.got - 2010.06.03 18:47:42.
