data_PCOD9263400
_publ_section_title
;
Structure prediction by ZEFSAII (Michael W. Deem and Ramdas Pophale) SiO2 
 PCOD9263400
Probable space group: C 2/C
;
_chemical_formula_sum "Si O2"
_cell_formula_units_Z 48
_cell_length_a 15.781401
_cell_length_b 19.240198
_cell_length_c 8.158875
_cell_angle_alpha 90.000000
_cell_angle_beta 50.614681
_cell_angle_gamma 90.000000
_cell_volume 1914.725566
_symmetry_space_group_name_H-M "C 2/C"
_symmetry_group_IT_number 15
_symmetry_cell_setting 'monoclinic'
loop_
_space_group_symop_operation_xyz
x,y,z
-x,y,1/2-z
-x,-y,-z
x,-y,1/2+z
1/2+x,1/2+y,z
1/2-x,1/2+y,1/2-z
1/2-x,1/2-y,-z
1/2+x,1/2-y,1/2+z
loop_
_atom_site_type_symbol
_atom_site_label
_atom_site_fract_x
_atom_site_fract_y
_atom_site_fract_z
Si Si1 0.350659 0.914330 0.651358
Si Si2 0.000000 0.815388 0.250000
Si Si3 0.877176 0.212134 0.408085
Si Si4 0.414904 0.436669 0.133697
Si Si5 0.238873 0.972292 0.466794
Si Si6 0.220097 0.782907 0.818426
Si Si7 0.500000 0.150474 0.750000
O O1 0.286276 0.932132 0.562128
O O2 0.292413 0.846489 0.800708
O O3 0.470936 0.892851 0.445219
O O4 0.337626 0.984739 0.765824
O O5 0.970893 0.867788 0.135891
O O6 0.890167 0.773368 0.438018
O O7 0.823098 0.191690 0.305389
O O8 0.800772 0.219599 0.663854
O O9 0.902770 0.294886 0.345154
O O10 0.000000 0.180702 0.250000
O O11 0.336290 0.430103 0.070127
O O12 0.339654 0.466974 0.370122
O O13 0.500000 0.500000 0.000000
#
# Coordination Sequence:
#
# PCOD9263400 Si02
#       7
#     8   4   8   8   8   8   4
#     4  10  19  35  55  81 115 149 190 229 281 334
#     4  12  20  30  54  83 115 146 188 232 282 342
#     4   8  18  37  60  76 103 140 193 240 290 335
#     4  11  18  31  46  74 117 158 175 217 272 332
#     4  10  20  31  49  78 119 153 184 220 271 346
#     4  10  19  34  56  84 108 143 187 239 286 343
#     4   8  18  36  62  75  99 148 192 250 274 330
#
# _framework density 25.068867000000001
#
# number of rings (size 3 to 8) (size 9 to 14) (size 15 to 20)
#    0.500    1.667    3.333    1.000    0.000    2.000 
#    0.000    0.833    0.000    8.000    0.000    0.000 
#    0.000    0.000    0.000    0.000    0.000    0.000 
#
# Total GULP energy -133868.359288 kJ/mol
# GULP energy per Si atom -5577.848304 kJ/mol
# Density = 2.501181 g / cm^3
# Si number density = 25.068867 Si / 1000 Ang^3
#
#
#
# Elastic Constant Matrix: (Units=GPa)
#
#
# Indices 1 2 3 4 5 6 
#
# 1 38.5464 3.2240 1.9430 0.0000 10.8076 0.0000
# 2 3.2240 61.8308 38.0651 0.0000 1.1990 0.0000
# 3 1.9430 38.0651 153.6564 0.0000 -32.7827 0.0000
# 4 0.0000 0.0000 0.0000 26.2219 0.0000 -3.0680
# 5 10.8076 1.1990 -32.7827 0.0000 36.4781 0.0000
# 6 0.0000 0.0000 0.0000 -3.0680 0.0000 21.9469
#
#
#
# Elastic Compliance Matrix: (Units=1/GPa)
#
#
# Indices 1 2 3 4 5 6 
#
# 1 0.029208 0.000475 -0.002891 0.000000 -0.011267 0.000000
# 2 0.000475 0.020228 -0.006420 0.000000 -0.006575 0.000000
# 3 -0.002891 -0.006420 0.010347 0.000000 0.010366 0.000000
# 4 0.000000 0.000000 0.000000 0.038770 0.000000 0.005420
# 5 -0.011267 -0.006575 0.010366 0.000000 0.040284 0.000000
# 6 0.000000 0.000000 0.000000 0.005420 0.000000 0.046322
#
#
# Mechanical properties :
#
#
# Convention : Reuss Voigt Hill
#
# Bulk Modulus (GPa) = 23.74654 37.83308 30.78981
# Shear Modulus (GPa) = 23.05558 30.98281 27.01919
#
# Velocity S-wave (km/s) = 3.03593 3.51936 3.28655
# Velocity P-wave (km/s) = 4.66714 5.62485 5.16823
#
# Compressibility (1/GPa) = 0.04211139
#
# Stress axis : x y z
#
# Youngs Moduli (GPa) = 34.23740 49.43581 96.65023
#
# Poissons Ratio (x) = -0.02350 0.27941
# Poissons Ratio (y) = -0.01627 0.62049
# Poissons Ratio (z) = 0.09898 0.31738
#
# Static dielectric constant tensor:
#      x y z
#    x 2.032470 0.000000 -0.036740 
#    y 0.000000 2.011670 0.000000 
#    z -0.036740 0.000000 2.113150 
# 
# From -- ./inp_files/32092.got.cif
#   From: 2010.05.17/outbox.cif.g08.bks.cpg/sg15_17_cif.got.tgz:32092.got - 2010.06.03 18:47:42.
