data_PCOD9263958
_publ_section_title
;
Structure prediction by ZEFSAII (Michael W. Deem and Ramdas Pophale) SiO2 
 PCOD9263958
Probable space group: C 2/C
;
_chemical_formula_sum "Si O2"
_cell_formula_units_Z 40
_cell_length_a 17.985905
_cell_length_b 20.862226
_cell_length_c 5.455861
_cell_angle_alpha 90.000000
_cell_angle_beta 83.170960
_cell_angle_gamma 90.000000
_cell_volume 2032.656986
_symmetry_space_group_name_H-M "C 2/C"
_symmetry_group_IT_number 15
_symmetry_cell_setting 'monoclinic'
loop_
_space_group_symop_operation_xyz
x,y,z
-x,y,1/2-z
-x,-y,-z
x,-y,1/2+z
1/2+x,1/2+y,z
1/2-x,1/2+y,1/2-z
1/2-x,1/2-y,-z
1/2+x,1/2-y,1/2+z
loop_
_atom_site_type_symbol
_atom_site_label
_atom_site_fract_x
_atom_site_fract_y
_atom_site_fract_z
Si Si1 0.456885 0.302776 0.510223
Si Si2 0.276725 0.175714 0.961161
Si Si3 0.914114 0.524541 0.492407
Si Si4 0.217025 0.176619 0.483865
Si Si5 0.070879 0.341368 0.374779
O O1 0.500000 0.316415 0.750000
O O2 0.370627 0.324342 0.542726
O O3 0.449754 0.225524 0.495710
O O4 0.500000 0.325738 0.250000
O O5 0.232099 0.147642 0.745727
O O6 0.362016 0.172707 0.840265
O O7 0.250000 0.250000 0.000000
O O8 0.259950 0.147417 0.234149
O O9 0.879548 0.489240 0.272902
O O10 0.911487 0.600587 0.451756
O O11 0.000000 0.500000 0.500000
O O12 0.250000 0.250000 0.500000
O O13 0.000000 0.364498 0.250000
#
# Coordination Sequence:
#
# PCOD9263958 Si02
#       5
#     8   8   8   8   8
#     4  11  23  31  49  73  91 127 175 210 241 293
#     4  10  20  34  47  68  94 128 162 211 253 298
#     4  10  21  37  46  66  96 126 164 228 248 272
#     4  10  19  35  45  63 101 121 155 215 245 293
#     4  11  22  32  54  70  95 133 180 215 245 290
#
# _framework density 19.678675999999999
#
# number of rings (size 3 to 8) (size 9 to 14) (size 15 to 20)
#    0.000    1.600    6.000    1.200   11.200    1.600 
#    0.000    0.000    0.000    0.000    0.000    0.000 
#    0.000    0.000    0.000    0.000    0.000   92.000 
#
# Total GULP energy -111512.912816 kJ/mol
# GULP energy per Si atom -5575.645641 kJ/mol
# Density = 1.963389 g / cm^3
# Si number density = 19.678676 Si / 1000 Ang^3
#
#
#
# Elastic Constant Matrix: (Units=GPa)
#
#
# Indices 1 2 3 4 5 6 
#
# 1 137.8565 3.8146 54.7853 0.0000 -4.2794 0.0000
# 2 3.8146 12.2700 0.8926 0.0000 2.4005 0.0000
# 3 54.7853 0.8926 170.2684 0.0000 8.5230 0.0000
# 4 0.0000 0.0000 0.0000 13.3386 0.0000 1.4878
# 5 -4.2794 2.4005 8.5230 0.0000 34.5100 0.0000
# 6 0.0000 0.0000 0.0000 1.4878 0.0000 2.2824
#
#
#
# Elastic Compliance Matrix: (Units=1/GPa)
#
#
# Indices 1 2 3 4 5 6 
#
# 1 0.008514 -0.002823 -0.002822 0.000000 0.001949 0.000000
# 2 -0.002823 0.083564 0.000789 0.000000 -0.006357 0.000000
# 3 -0.002822 0.000789 0.006882 0.000000 -0.002105 0.000000
# 4 0.000000 0.000000 0.000000 0.080848 0.000000 -0.052700
# 5 0.001949 -0.006357 -0.002105 0.000000 0.030181 0.000000
# 6 0.000000 0.000000 0.000000 -0.052700 0.000000 0.472486
#
#
# Mechanical properties :
#
#
# Convention : Reuss Voigt Hill
#
# Bulk Modulus (GPa) = 11.20487 48.81998 30.01243
# Shear Modulus (GPa) = 6.92580 27.41969 17.17275
#
# Velocity S-wave (km/s) = 1.87805 3.73684 2.95728
# Velocity P-wave (km/s) = 3.22631 6.59402 5.19086
#
# Compressibility (1/GPa) = 0.08924691
#
# Stress axis : x y z
#
# Youngs Moduli (GPa) = 117.45177 11.96689 145.29847
#
# Poissons Ratio (x) = 0.03378 0.41007
# Poissons Ratio (y) = 0.33157 -0.11457
# Poissons Ratio (z) = 0.33148 -0.00944
#
# Static dielectric constant tensor:
#      x y z
#    x 1.709180 0.000000 -0.026300 
#    y 0.000000 1.619290 0.000000 
#    z -0.026300 0.000000 1.731550 
# 
# From -- ./inp_files/7820.got.cif
#   From: 2010.05.17/outbox.cif.g08.bks.cpg/sg15_4_cif.got.tgz:7820.got - 2010.06.03 18:47:42.
