data_PCOD9263637
_publ_section_title
;
Structure prediction by ZEFSAII (Michael W. Deem and Ramdas Pophale) SiO2 
 PCOD9263637
Probable space group: C 2/C
;
_chemical_formula_sum "Si O2"
_cell_formula_units_Z 60
_cell_length_a 15.417759
_cell_length_b 14.025323
_cell_length_c 15.558322
_cell_angle_alpha 90.000000
_cell_angle_beta 67.829247
_cell_angle_gamma 90.000000
_cell_volume 3115.570407
_symmetry_space_group_name_H-M "C 2/C"
_symmetry_group_IT_number 15
_symmetry_cell_setting 'monoclinic'
loop_
_space_group_symop_operation_xyz
x,y,z
-x,y,1/2-z
-x,-y,-z
x,-y,1/2+z
1/2+x,1/2+y,z
1/2-x,1/2+y,1/2-z
1/2-x,1/2-y,-z
1/2+x,1/2-y,1/2+z
loop_
_atom_site_type_symbol
_atom_site_label
_atom_site_fract_x
_atom_site_fract_y
_atom_site_fract_z
Si Si1 0.868449 0.207550 0.545415
Si Si2 0.463145 0.411125 0.570467
Si Si3 0.756948 0.691976 0.749149
Si Si4 0.763462 0.090415 0.199373
Si Si5 0.789865 0.605982 0.005696
Si Si6 0.500000 0.522125 0.250000
Si Si7 0.610620 0.050913 0.702609
Si Si8 0.697960 0.546959 0.653660
O O1 0.827351 0.171270 0.651618
O O2 0.842400 0.318851 0.547408
O O3 0.803489 0.156554 0.497360
O O4 0.974378 0.177253 0.486293
O O5 0.500000 0.500000 0.500000
O O6 0.351095 0.409987 0.601354
O O7 0.477612 0.420313 0.669576
O O8 0.764819 0.804653 0.738779
O O9 0.846879 0.634418 0.751453
O O10 0.732892 0.650650 0.664988
O O11 0.667255 0.047571 0.198242
O O12 0.784355 0.016042 0.267489
O O13 0.859228 0.585632 0.902320
O O14 0.755135 0.508805 0.060832
O O15 0.412930 0.458932 0.313717
O O16 0.500000 0.040691 0.750000
#
# Coordination Sequence:
#
# PCOD9263637 Si02
#       8
#     8   8   8   8   8   4   8   8
#     4  10  19  34  58  90 119 155 202 258 310 369
#     4  11  21  35  61  92 125 159 205 261 326 371
#     4  10  21  40  61  87 121 162 203 260 309 371
#     4  10  22  40  60  88 125 158 201 262 314 370
#     4  10  19  34  58  88 121 152 205 255 298 370
#     4  10  20  32  60  88 118 162 194 254 314 378
#     4  10  23  41  63  85 122 168 207 256 315 375
#     4  10  19  37  58  86 123 155 199 253 312 365
#
# _framework density 19.258109999999999
#
# number of rings (size 3 to 8) (size 9 to 14) (size 15 to 20)
#    0.000    1.867    2.667    3.200    1.867    0.000 
#    2.400    4.667    0.000    0.000    0.000    0.000 
#    0.000    0.000    0.000    0.000    0.000    0.000 
#
# Total GULP energy -167176.359503 kJ/mol
# GULP energy per Si atom -5572.545317 kJ/mol
# Density = 1.921428 g / cm^3
# Si number density = 19.258110 Si / 1000 Ang^3
#
#
#
# Elastic Constant Matrix: (Units=GPa)
#
#
# Indices 1 2 3 4 5 6 
#
# 1 92.5270 31.7288 32.2950 0.0000 -35.2522 0.0000
# 2 31.7288 63.2175 18.8242 0.0000 -6.4084 0.0000
# 3 32.2950 18.8242 47.0086 0.0000 -19.1238 0.0000
# 4 0.0000 0.0000 0.0000 28.3585 0.0000 7.1449
# 5 -35.2522 -6.4084 -19.1238 0.0000 32.7873 0.0000
# 6 0.0000 0.0000 0.0000 7.1449 0.0000 16.2095
#
#
#
# Elastic Compliance Matrix: (Units=1/GPa)
#
#
# Indices 1 2 3 4 5 6 
#
# 1 0.022902 -0.008195 -0.004047 0.000000 0.020662 0.000000
# 2 -0.008195 0.020913 -0.006117 0.000000 -0.008292 0.000000
# 3 -0.004047 -0.006117 0.031789 0.000000 0.012995 0.000000
# 4 0.000000 0.000000 0.000000 0.039668 0.000000 -0.017485
# 5 0.020662 -0.008292 0.012995 0.000000 0.058674 0.000000
# 6 0.000000 0.000000 0.000000 -0.017485 0.000000 0.069399
#
#
# Mechanical properties :
#
#
# Convention : Reuss Voigt Hill
#
# Bulk Modulus (GPa) = 25.71664 40.93881 33.32772
# Shear Modulus (GPa) = 17.06335 23.46475 20.26405
#
# Velocity S-wave (km/s) = 2.97986 3.49440 3.24734
# Velocity P-wave (km/s) = 5.02216 6.13067 5.60389
#
# Compressibility (1/GPa) = 0.03888533
#
# Stress axis : x y z
#
# Youngs Moduli (GPa) = 43.66343 47.81801 31.45742
#
# Poissons Ratio (x) = 0.39188 0.12730
# Poissons Ratio (y) = 0.35783 0.19244
# Poissons Ratio (z) = 0.17669 0.29252
#
# Static dielectric constant tensor:
#      x y z
#    x 1.730940 0.000000 0.030800 
#    y 0.000000 1.695080 0.000000 
#    z 0.030800 0.000000 1.676490 
# 
# From -- ./inp_files/154235.got.cif
#   From: 2010.05.17/outbox.cif.g08.bks.cpg/sg15_78_cif.got.tgz:154235.got - 2010.06.03 18:47:42.
