data_PCOD9263417
_publ_section_title
;
Structure prediction by ZEFSAII (Michael W. Deem and Ramdas Pophale) SiO2 
 PCOD9263417
Probable space group: C 2/C
;
_chemical_formula_sum "Si O2"
_cell_formula_units_Z 64
_cell_length_a 8.401374
_cell_length_b 14.873316
_cell_length_c 27.052361
_cell_angle_alpha 90.000000
_cell_angle_beta 130.318390
_cell_angle_gamma 90.000000
_cell_volume 2577.393668
_symmetry_space_group_name_H-M "C 2/C"
_symmetry_group_IT_number 15
_symmetry_cell_setting 'monoclinic'
loop_
_space_group_symop_operation_xyz
x,y,z
-x,y,1/2-z
-x,-y,-z
x,-y,1/2+z
1/2+x,1/2+y,z
1/2-x,1/2+y,1/2-z
1/2-x,1/2-y,-z
1/2+x,1/2-y,1/2+z
loop_
_atom_site_type_symbol
_atom_site_label
_atom_site_fract_x
_atom_site_fract_y
_atom_site_fract_z
Si Si1 0.633532 0.068993 0.623211
Si Si2 0.550290 0.863727 0.814375
Si Si3 0.789233 0.814799 0.948727
Si Si4 0.291865 0.366756 0.677001
Si Si5 0.494538 0.436181 0.128402
Si Si6 0.385652 0.936374 0.271396
Si Si7 0.300079 0.497341 0.496089
Si Si8 0.601217 0.718653 0.583843
O O1 0.717088 0.965489 0.645354
O O2 0.396612 0.065530 0.555765
O O3 0.804155 0.109662 0.620578
O O4 0.637691 0.107343 0.679754
O O5 0.500000 0.829855 0.750000
O O6 0.759386 0.837531 0.885134
O O7 0.371976 0.830880 0.815353
O O8 0.519809 0.972118 0.806877
O O9 0.720151 0.902365 0.967004
O O10 0.616944 0.745984 0.933248
O O11 0.023334 0.791260 0.012122
O O12 0.500000 0.374238 0.750000
O O13 0.273152 0.293132 0.630032
O O14 0.660923 0.465072 0.203610
O O15 0.629495 0.376331 0.116684
O O16 0.380577 0.505915 0.068524
O O17 0.500000 0.883951 0.250000
O O18 0.500000 0.500000 0.500000
#
# Coordination Sequence:
#
# PCOD9263417 Si02
#       8
#     8   8   8   8   8   8   8   8
#     4  11  20  39  58  92 126 157 209 268 310 370
#     4   9  17  31  58  82 111 151 200 247 293 360
#     4   9  17  37  59  80 111 160 204 235 299 374
#     4  10  19  36  62  89 115 160 212 254 302 376
#     4  11  23  33  57  92 120 157 196 260 323 355
#     4  10  19  34  56  85 120 158 192 250 310 366
#     4  11  21  36  59  89 118 156 211 257 303 374
#     4   9  19  36  59  82 117 164 200 240 305 385
#
# _framework density 24.831285000000001
#
# number of rings (size 3 to 8) (size 9 to 14) (size 15 to 20)
#    0.000    2.000    3.750    3.000    1.750    0.500 
#    0.000    5.000    0.000    1.500    0.000    0.000 
#    0.000    0.000    0.000    0.000    0.000    0.000 
#
# Total GULP energy -178496.716647 kJ/mol
# GULP energy per Si atom -5578.022395 kJ/mol
# Density = 2.477477 g / cm^3
# Si number density = 24.831285 Si / 1000 Ang^3
#
#
#
# Elastic Constant Matrix: (Units=GPa)
#
#
# Indices 1 2 3 4 5 6 
#
# 1 94.4832 -7.5589 29.3848 0.0000 -6.6434 0.0000
# 2 -7.5589 30.1278 32.7939 0.0000 7.3828 0.0000
# 3 29.3848 32.7939 152.6843 0.0000 2.6234 0.0000
# 4 0.0000 0.0000 0.0000 18.7332 0.0000 -0.8331
# 5 -6.6434 7.3828 2.6234 0.0000 43.1558 0.0000
# 6 0.0000 0.0000 0.0000 -0.8331 0.0000 12.9202
#
#
#
# Elastic Compliance Matrix: (Units=1/GPa)
#
#
# Indices 1 2 3 4 5 6 
#
# 1 0.012458 0.007212 -0.003963 0.000000 0.000925 0.000000
# 2 0.007212 0.049619 -0.011931 0.000000 -0.006653 0.000000
# 3 -0.003963 -0.011931 0.009860 0.000000 0.000832 0.000000
# 4 0.000000 0.000000 0.000000 0.053535 0.000000 0.003452
# 5 0.000925 -0.006653 0.000832 0.000000 0.024402 0.000000
# 6 0.000000 0.000000 0.000000 0.003452 0.000000 0.077621
#
#
# Mechanical properties :
#
#
# Convention : Reuss Voigt Hill
#
# Bulk Modulus (GPa) = 18.32344 42.94833 30.63589
# Shear Modulus (GPa) = 19.00791 29.80687 24.40739
#
# Velocity S-wave (km/s) = 2.76974 3.46840 3.13857
# Velocity P-wave (km/s) = 4.19807 5.77697 5.04961
#
# Compressibility (1/GPa) = 0.05457489
#
# Stress axis : x y z
#
# Youngs Moduli (GPa) = 80.26746 20.15375 101.41604
#
# Poissons Ratio (x) = -0.14536 0.40188
# Poissons Ratio (y) = -0.57892 1.20999
# Poissons Ratio (z) = 0.31807 0.24045
#
# Static dielectric constant tensor:
#      x y z
#    x 2.014590 0.000000 -0.011070 
#    y 0.000000 2.061170 0.000000 
#    z -0.011070 0.000000 2.126990 
# 
# From -- ./inp_files/289988.got.cif
#   From: 2010.05.17/outbox.cif.g08.bks.cpg/sg15_145_cif.got.tgz:289988.got - 2010.06.03 18:47:42.
