data_PCOD9263882
_publ_section_title
;
Structure prediction by ZEFSAII (Michael W. Deem and Ramdas Pophale) SiO2 
 PCOD9263882
Probable space group: C 2/C
;
_chemical_formula_sum "Si O2"
_cell_formula_units_Z 64
_cell_length_a 19.175143
_cell_length_b 9.359672
_cell_length_c 19.839501
_cell_angle_alpha 90.000000
_cell_angle_beta 118.018175
_cell_angle_gamma 90.000000
_cell_volume 3143.341990
_symmetry_space_group_name_H-M "C 2/C"
_symmetry_group_IT_number 15
_symmetry_cell_setting 'monoclinic'
loop_
_space_group_symop_operation_xyz
x,y,z
-x,y,1/2-z
-x,-y,-z
x,-y,1/2+z
1/2+x,1/2+y,z
1/2-x,1/2+y,1/2-z
1/2-x,1/2-y,-z
1/2+x,1/2-y,1/2+z
loop_
_atom_site_type_symbol
_atom_site_label
_atom_site_fract_x
_atom_site_fract_y
_atom_site_fract_z
Si Si1 0.268830 0.544603 0.182633
Si Si2 0.887149 0.505437 0.457200
Si Si3 0.506190 0.068606 0.619201
Si Si4 0.184010 0.769142 0.224019
Si Si5 0.998410 0.724164 0.323458
Si Si6 0.439400 0.360210 0.784520
Si Si7 0.932037 0.184880 0.517237
Si Si8 0.403486 0.547113 0.904354
O O1 0.202460 0.550589 0.095180
O O2 0.233191 0.629351 0.230821
O O3 0.280001 0.378201 0.206109
O O4 0.353286 0.618694 0.211639
O O5 0.932834 0.594880 0.535123
O O6 0.900105 0.339506 0.482935
O O7 0.931342 0.504771 0.404649
O O8 0.540447 0.205869 0.672857
O O9 0.481944 0.943290 0.659491
O O10 0.093542 0.737010 0.199868
O O11 0.172245 0.861093 0.150221
O O12 0.000000 0.780034 0.250000
O O13 0.058800 0.809436 0.398322
O O14 0.500000 0.385954 0.750000
O O15 0.432415 0.463054 0.848706
O O16 0.886610 0.064485 0.455772
O O17 0.023776 0.148632 0.539743
#
# Coordination Sequence:
#
# PCOD9263882 Si02
#       8
#     8   8   8   8   8   8   8   8
#     4  11  23  38  59  91 125 159 209 260 314 360
#     4  10  19  34  62  88 122 157 210 254 306 362
#     4  10  19  35  62  90 122 165 204 250 307 377
#     4  10  22  35  58  87 122 161 199 254 302 359
#     4  10  20  36  60  92 123 158 201 248 303 373
#     4  11  23  39  61  88 122 167 209 258 315 372
#     4   9  18  33  58  89 116 159 201 248 289 369
#     4   9  19  34  56  89 119 153 207 246 297 360
#
# _framework density 20.360496000000001
#
# number of rings (size 3 to 8) (size 9 to 14) (size 15 to 20)
#    0.000    2.000    2.500    1.125    3.500    4.500 
#    0.000    0.625    0.000    8.250    0.000    0.000 
#    0.000    0.000    0.000    0.000    0.000    0.000 
#
# Total GULP energy -178211.920776 kJ/mol
# GULP energy per Si atom -5569.122524 kJ/mol
# Density = 2.031415 g / cm^3
# Si number density = 20.360496 Si / 1000 Ang^3
#
#
#
# Elastic Constant Matrix: (Units=GPa)
#
#
# Indices 1 2 3 4 5 6 
#
# 1 66.0946 9.1760 46.8773 0.0000 14.4581 0.0000
# 2 9.1760 82.7820 38.7766 0.0000 1.9793 0.0000
# 3 46.8773 38.7766 120.2064 0.0000 8.4950 0.0000
# 4 0.0000 0.0000 0.0000 12.1926 0.0000 19.3387
# 5 14.4581 1.9793 8.4950 0.0000 36.1198 0.0000
# 6 0.0000 0.0000 0.0000 19.3387 0.0000 7.4911
#
#
#
# Elastic Compliance Matrix: (Units=1/GPa)
#
#
# Indices 1 2 3 4 5 6 
#
# 1 0.022803 0.001852 -0.008987 0.000000 -0.007116 0.000000
# 2 0.001852 0.014384 -0.005343 0.000000 -0.000273 0.000000
# 3 -0.008987 -0.005343 0.013497 0.000000 0.000716 0.000000
# 4 0.000000 0.000000 0.000000 -0.026503 0.000000 0.068419
# 5 -0.007116 -0.000273 0.000716 0.000000 0.030380 0.000000
# 6 0.000000 0.000000 0.000000 0.068419 0.000000 -0.043137
#
#
# Mechanical properties :
#
#
# Convention : Reuss Voigt Hill
#
# Bulk Modulus (GPa) = 38.86824 50.97144 44.91984
# Shear Modulus (GPa) = 111.21651 22.77758 66.99705
#
# Velocity S-wave (km/s) = 7.39880 3.34835 5.74255
# Velocity P-wave (km/s) = 9.59798 6.32751 8.12892
#
# Compressibility (1/GPa) = 0.02572795
#
# Stress axis : x y z
#
# Youngs Moduli (GPa) = 43.85292 69.52208 74.09124
#
# Poissons Ratio (x) = -0.12878 0.66589
# Poissons Ratio (y) = -0.08123 0.39588
# Poissons Ratio (z) = 0.39413 0.37146
#
# Static dielectric constant tensor:
#      x y z
#    x 1.726440 0.000000 -0.015000 
#    y 0.000000 1.795190 0.000000 
#    z -0.015000 0.000000 1.777160 
# 
# From -- ./inp_files/251905.got.cif
#   From: 2010.05.17/outbox.cif.g08.bks.cpg/sg15_126_cif.got.tgz:251905.got - 2010.06.03 18:47:42.
