data_PCOD9263927
_publ_section_title
;
Structure prediction by ZEFSAII (Michael W. Deem and Ramdas Pophale) SiO2 
 PCOD9263927
Probable space group: C 2/C
;
_chemical_formula_sum "Si O2"
_cell_formula_units_Z 64
_cell_length_a 8.668679
_cell_length_b 15.585673
_cell_length_c 22.842873
_cell_angle_alpha 90.000000
_cell_angle_beta 103.170230
_cell_angle_gamma 90.000000
_cell_volume 3005.060539
_symmetry_space_group_name_H-M "C 2/C"
_symmetry_group_IT_number 15
_symmetry_cell_setting 'monoclinic'
loop_
_space_group_symop_operation_xyz
x,y,z
-x,y,1/2-z
-x,-y,-z
x,-y,1/2+z
1/2+x,1/2+y,z
1/2-x,1/2+y,1/2-z
1/2-x,1/2-y,-z
1/2+x,1/2-y,1/2+z
loop_
_atom_site_type_symbol
_atom_site_label
_atom_site_fract_x
_atom_site_fract_y
_atom_site_fract_z
Si Si1 0.663066 0.698407 0.362153
Si Si2 0.006250 0.630978 0.891326
Si Si3 0.570286 0.972601 0.817211
Si Si4 0.802764 0.795436 0.099730
Si Si5 0.889642 0.601733 0.467325
Si Si6 0.249229 0.430529 0.996439
Si Si7 0.069216 0.713448 0.191901
Si Si8 0.364009 0.611211 0.387915
O O1 0.591655 0.790472 0.368708
O O2 0.800246 0.670090 0.419776
O O3 0.523272 0.632768 0.367049
O O4 0.745018 0.709076 0.305938
O O5 0.048029 0.544077 0.863401
O O6 0.817474 0.645319 0.873719
O O7 0.069453 0.631615 0.963369
O O8 0.500000 0.004788 0.750000
O O9 0.478452 0.885052 0.822693
O O10 0.750433 0.940215 0.834204
O O11 0.975394 0.777366 0.140562
O O12 0.714557 0.702510 0.097595
O O13 0.804846 0.847597 0.038859
O O14 0.782772 0.515489 0.466551
O O15 0.067704 0.585735 0.459122
O O16 0.361860 0.440197 0.949570
O O17 0.000000 0.733756 0.250000
#
# Coordination Sequence:
#
# PCOD9263927 Si02
#       8
#     8   8   8   8   8   8   8   8
#     4  11  24  38  63  93 132 165 205 268 335 392
#     4  10  21  39  61  96 128 166 211 264 321 385
#     4  10  21  42  68  87 119 173 223 265 313 386
#     4   9  20  35  62  90 121 168 216 255 311 387
#     4  10  20  35  61  96 132 170 210 256 326 388
#     4  10  19  34  63  94 128 171 215 257 314 397
#     4  10  23  44  65  87 121 170 222 272 321 384
#     4  10  20  39  59  94 132 163 205 261 331 387
#
# _framework density 21.297408000000001
#
# number of rings (size 3 to 8) (size 9 to 14) (size 15 to 20)
#    0.000    2.000    1.250    2.250    3.500    4.500 
#    2.250    9.375    0.000    0.000    0.000    0.000 
#    0.000    0.000    0.000    0.000    0.000    0.000 
#
# Total GULP energy -178406.278829 kJ/mol
# GULP energy per Si atom -5575.196213 kJ/mol
# Density = 2.124893 g / cm^3
# Si number density = 21.297408 Si / 1000 Ang^3
#
#
#
# Elastic Constant Matrix: (Units=GPa)
#
#
# Indices 1 2 3 4 5 6 
#
# 1 107.1148 26.6714 46.5360 0.0000 -27.9373 0.0000
# 2 26.6714 42.3115 13.6597 0.0000 0.5875 0.0000
# 3 46.5360 13.6597 83.1832 0.0000 -18.9323 0.0000
# 4 0.0000 0.0000 0.0000 9.2607 0.0000 5.0368
# 5 -27.9373 0.5875 -18.9323 0.0000 27.2644 0.0000
# 6 0.0000 0.0000 0.0000 5.0368 0.0000 27.5144
#
#
#
# Elastic Compliance Matrix: (Units=1/GPa)
#
#
# Indices 1 2 3 4 5 6 
#
# 1 0.017886 -0.009888 -0.004944 0.000000 0.015108 0.000000
# 2 -0.009888 0.030800 -0.002355 0.000000 -0.012432 0.000000
# 3 -0.004944 -0.002355 0.016667 0.000000 0.006558 0.000000
# 4 0.000000 0.000000 0.000000 0.119924 0.000000 -0.021953
# 5 0.015108 -0.012432 0.006558 0.000000 0.056980 0.000000
# 6 0.000000 0.000000 0.000000 -0.021953 0.000000 0.040363
#
#
# Mechanical properties :
#
#
# Convention : Reuss Voigt Hill
#
# Bulk Modulus (GPa) = 32.28071 45.14932 38.71502
# Shear Modulus (GPa) = 15.27546 22.52406 18.89976
#
# Velocity S-wave (km/s) = 2.68105 3.25560 2.98219
# Velocity P-wave (km/s) = 4.97735 5.94789 5.48413
#
# Compressibility (1/GPa) = 0.03097825
#
# Stress axis : x y z
#
# Youngs Moduli (GPa) = 55.90898 32.46705 59.99909
#
# Poissons Ratio (x) = 0.32105 0.29663
# Poissons Ratio (y) = 0.55285 0.14132
# Poissons Ratio (z) = 0.27641 0.07647
#
# Static dielectric constant tensor:
#      x y z
#    x 1.836910 0.000000 -0.038560 
#    y 0.000000 1.765610 0.000000 
#    z -0.038560 0.000000 1.834940 
# 
# From -- ./inp_files/264694.got.cif
#   From: 2010.05.17/outbox.cif.g08.bks.cpg/sg15_133_cif.got.tgz:264694.got - 2010.06.03 18:47:42.
