data_PCOD9263766
_publ_section_title
;
Structure prediction by ZEFSAII (Michael W. Deem and Ramdas Pophale) SiO2 
 PCOD9263766
Probable space group: C 2/C
;
_chemical_formula_sum "Si O2"
_cell_formula_units_Z 48
_cell_length_a 8.329979
_cell_length_b 13.087381
_cell_length_c 20.750225
_cell_angle_alpha 90.000000
_cell_angle_beta 133.241422
_cell_angle_gamma 90.000000
_cell_volume 1647.909079
_symmetry_space_group_name_H-M "C 2/C"
_symmetry_group_IT_number 15
_symmetry_cell_setting 'monoclinic'
loop_
_space_group_symop_operation_xyz
x,y,z
-x,y,1/2-z
-x,-y,-z
x,-y,1/2+z
1/2+x,1/2+y,z
1/2-x,1/2+y,1/2-z
1/2-x,1/2-y,-z
1/2+x,1/2-y,1/2+z
loop_
_atom_site_type_symbol
_atom_site_label
_atom_site_fract_x
_atom_site_fract_y
_atom_site_fract_z
Si Si1 0.864826 0.923048 0.851113
Si Si2 0.376649 0.873527 0.032007
Si Si3 0.838348 0.420638 0.567628
Si Si4 0.500000 0.248327 0.250000
Si Si5 0.500000 0.554459 0.250000
Si Si6 0.537058 0.319452 0.384815
Si Si7 0.265390 0.738352 0.115919
O O1 0.746263 0.957817 0.885472
O O2 0.703313 0.826762 0.788613
O O3 0.885816 0.982922 0.787573
O O4 0.111508 0.891883 0.944433
O O5 0.435435 0.804006 0.986310
O O6 0.398192 0.805937 0.101411
O O7 0.470510 0.985609 0.071492
O O8 0.647904 0.396922 0.463394
O O9 0.916243 0.303882 0.597649
O O10 0.593305 0.329140 0.327003
O O11 0.341547 0.636166 0.171100
O O12 0.289489 0.315591 0.341714
#
# Coordination Sequence:
#
# PCOD9263766 Si02
#       7
#     8   8   8   4   4   8   8
#     4  10  19  34  60  84 113 158 189 238 290 346
#     4  10  21  37  62  88 115 152 202 242 290 352
#     4  10  21  37  62  88 115 152 202 242 290 352
#     4  10  20  36  58  84 120 154 196 236 298 356
#     4  10  20  36  58  84 120 154 196 236 298 356
#     4  10  20  37  61  84 114 159 193 244 295 346
#     4  10  20  37  61  84 114 159 193 244 295 346
#
# _framework density 29.127821000000001
#
# number of rings (size 3 to 8) (size 9 to 14) (size 15 to 20)
#    0.000    2.000    3.333    0.500    0.000    0.667 
#    0.000    6.667    0.000    0.000    0.000    0.000 
#    0.000    0.000    0.000    0.000    0.000    0.000 
#
# Total GULP energy -133605.530941 kJ/mol
# GULP energy per Si atom -5566.897123 kJ/mol
# Density = 2.906152 g / cm^3
# Si number density = 29.127821 Si / 1000 Ang^3
#
#
#
# Elastic Constant Matrix: (Units=GPa)
#
#
# Indices 1 2 3 4 5 6 
#
# 1 84.9189 25.0210 24.1831 0.0000 -31.0166 0.0000
# 2 25.0210 151.9846 11.6003 0.0000 -3.5330 0.0000
# 3 24.1831 11.6003 135.3895 0.0000 -39.9946 0.0000
# 4 0.0000 0.0000 0.0000 3.3088 0.0000 -3.6028
# 5 -31.0166 -3.5330 -39.9946 0.0000 68.7904 0.0000
# 6 0.0000 0.0000 0.0000 -3.6028 0.0000 44.5456
#
#
#
# Elastic Compliance Matrix: (Units=1/GPa)
#
#
# Indices 1 2 3 4 5 6 
#
# 1 0.014898 -0.002260 -0.000625 0.000000 0.006238 0.000000
# 2 -0.002260 0.006966 -0.000469 0.000000 -0.000934 0.000000
# 3 -0.000625 -0.000469 0.008992 0.000000 0.004922 0.000000
# 4 0.000000 0.000000 0.000000 0.331405 0.000000 0.026804
# 5 0.006238 -0.000934 0.004922 0.000000 0.020163 0.000000
# 6 0.000000 0.000000 0.000000 0.026804 0.000000 0.024617
#
#
# Mechanical properties :
#
#
# Convention : Reuss Voigt Hill
#
# Bulk Modulus (GPa) = 41.41061 54.87795 48.14428
# Shear Modulus (GPa) = 11.85402 44.09487 27.97445
#
# Velocity S-wave (km/s) = 2.01953 3.89503 3.10240
# Velocity P-wave (km/s) = 4.43686 6.25377 5.42196
#
# Compressibility (1/GPa) = 0.02414840
#
# Stress axis : x y z
#
# Youngs Moduli (GPa) = 67.12220 143.55934 111.21146
#
# Poissons Ratio (x) = 0.32444 0.06947
# Poissons Ratio (y) = 0.15169 0.05216
# Poissons Ratio (z) = 0.04193 0.06734
#
# Static dielectric constant tensor:
#      x y z
#    x 2.537070 0.000000 -0.128030 
#    y 0.000000 2.344300 0.000000 
#    z -0.128030 0.000000 2.697380 
# 
# From -- ./inp_files/238508.got.cif
#   From: 2010.05.17/outbox.cif.g08.bks.cpg/sg15_120_cif.got.tgz:238508.got - 2010.06.03 18:47:42.
