data_PCOD9263735
_publ_section_title
;
Structure prediction by ZEFSAII (Michael W. Deem and Ramdas Pophale) SiO2 
 PCOD9263735
Probable space group: C 2/C
;
_chemical_formula_sum "Si O2"
_cell_formula_units_Z 64
_cell_length_a 12.672881
_cell_length_b 27.239688
_cell_length_c 15.767813
_cell_angle_alpha 90.000000
_cell_angle_beta 140.597215
_cell_angle_gamma 90.000000
_cell_volume 3455.127048
_symmetry_space_group_name_H-M "C 2/C"
_symmetry_group_IT_number 15
_symmetry_cell_setting 'monoclinic'
loop_
_space_group_symop_operation_xyz
x,y,z
-x,y,1/2-z
-x,-y,-z
x,-y,1/2+z
1/2+x,1/2+y,z
1/2-x,1/2+y,1/2-z
1/2-x,1/2-y,-z
1/2+x,1/2-y,1/2+z
loop_
_atom_site_type_symbol
_atom_site_label
_atom_site_fract_x
_atom_site_fract_y
_atom_site_fract_z
Si Si1 0.635981 0.424940 0.498778
Si Si2 0.494636 0.821248 0.615384
Si Si3 0.644724 0.803798 0.273331
Si Si4 0.244529 0.408193 0.254843
Si Si5 0.133307 0.507097 0.258333
Si Si6 0.229819 0.812131 0.577077
Si Si7 0.468064 0.246753 0.507824
Si Si8 0.099555 0.428599 0.980061
O O1 0.438868 0.421650 0.365350
O O2 0.704256 0.462213 0.612699
O O3 0.688264 0.369640 0.555191
O O4 0.735918 0.438400 0.474632
O O5 0.313412 0.804081 0.536881
O O6 0.629039 0.802139 0.765394
O O7 0.545804 0.803025 0.555087
O O8 0.484651 0.879855 0.611653
O O9 0.500000 0.816293 0.250000
O O10 0.713584 0.853590 0.272048
O O11 0.794426 0.774463 0.411799
O O12 0.566698 0.767662 0.153529
O O13 0.171841 0.450222 0.270647
O O14 0.155602 0.415209 0.109064
O O15 0.000000 0.515136 0.250000
O O16 0.038257 0.529348 0.117716
O O17 0.073203 0.781032 0.508777
#
# Coordination Sequence:
#
# PCOD9263735 Si02
#       8
#     8   8   8   8   8   8   8   8
#     4  10  20  36  59  88 115 147 184 230 291 354
#     4  10  19  34  59  91 121 147 182 230 292 365
#     4  12  27  42  60  81 113 158 209 250 281 334
#     4  12  22  38  58  88 116 146 192 246 290 330
#     4  10  21  38  60  83 117 156 189 224 281 350
#     4  10  19  34  59  91 121 147 182 230 292 365
#     4  12  22  42  60  84 116 154 200 234 298 334
#     4  10  20  36  59  88 115 147 184 230 291 354
#
# _framework density 18.523197
#
# number of rings (size 3 to 8) (size 9 to 14) (size 15 to 20)
#    0.000    1.250    5.000    2.250    0.000    0.000 
#    0.000    0.000    0.000    0.000    0.000    0.000 
#    0.000    0.000    0.000    0.000    0.000    0.000 
#
# Total GULP energy -178467.643035 kJ/mol
# GULP energy per Si atom -5577.113845 kJ/mol
# Density = 1.848104 g / cm^3
# Si number density = 18.523197 Si / 1000 Ang^3
#
#
#
# Elastic Constant Matrix: (Units=GPa)
#
#
# Indices 1 2 3 4 5 6 
#
# 1 36.7304 8.4991 10.9223 0.0000 6.3088 0.0000
# 2 8.4991 82.5352 25.6524 0.0000 6.6909 0.0000
# 3 10.9223 25.6524 69.2588 0.0000 8.0170 0.0000
# 4 0.0000 0.0000 0.0000 22.5197 0.0000 -3.2318
# 5 6.3088 6.6909 8.0170 0.0000 24.9861 0.0000
# 6 0.0000 0.0000 0.0000 -3.2318 0.0000 24.2148
#
#
#
# Elastic Compliance Matrix: (Units=1/GPa)
#
#
# Indices 1 2 3 4 5 6 
#
# 1 0.029617 -0.001501 -0.003423 0.000000 -0.005978 0.000000
# 2 -0.001501 0.013877 -0.004691 0.000000 -0.001832 0.000000
# 3 -0.003423 -0.004691 0.017106 0.000000 -0.003368 0.000000
# 4 0.000000 0.000000 0.000000 0.045273 0.000000 0.006042
# 5 -0.005978 -0.001832 -0.003368 0.000000 0.043103 0.000000
# 6 0.000000 0.000000 0.000000 0.006042 0.000000 0.042103
#
#
# Mechanical properties :
#
#
# Convention : Reuss Voigt Hill
#
# Bulk Modulus (GPa) = 24.17218 30.96356 27.56787
# Shear Modulus (GPa) = 22.31150 23.90749 23.10949
#
# Velocity S-wave (km/s) = 3.47438 3.59650 3.53597
# Velocity P-wave (km/s) = 5.40121 5.83085 5.62014
#
# Compressibility (1/GPa) = 0.04136987
#
# Stress axis : x y z
#
# Youngs Moduli (GPa) = 33.76394 72.06078 58.45995
#
# Poissons Ratio (x) = 0.10820 0.20009
# Poissons Ratio (y) = 0.05070 0.27424
# Poissons Ratio (z) = 0.11556 0.33804
#
# Static dielectric constant tensor:
#      x y z
#    x 1.648110 0.000000 0.003690 
#    y 0.000000 1.638910 0.000000 
#    z 0.003690 0.000000 1.659530 
# 
# From -- ./inp_files/148813.got.cif
#   From: 2010.05.17/outbox.cif.g08.bks.cpg/sg15_75_cif.got.tgz:148813.got - 2010.06.03 18:47:42.
