data_PCOD9263774
_publ_section_title
;
Structure prediction by ZEFSAII (Michael W. Deem and Ramdas Pophale) SiO2 
 PCOD9263774
Probable space group: C 2/C
;
_chemical_formula_sum "Si O2"
_cell_formula_units_Z 48
_cell_length_a 12.639685
_cell_length_b 21.562548
_cell_length_c 9.712350
_cell_angle_alpha 90.000000
_cell_angle_beta 128.999527
_cell_angle_gamma 90.000000
_cell_volume 2057.150910
_symmetry_space_group_name_H-M "C 2/C"
_symmetry_group_IT_number 15
_symmetry_cell_setting 'monoclinic'
loop_
_space_group_symop_operation_xyz
x,y,z
-x,y,1/2-z
-x,-y,-z
x,-y,1/2+z
1/2+x,1/2+y,z
1/2-x,1/2+y,1/2-z
1/2-x,1/2-y,-z
1/2+x,1/2-y,1/2+z
loop_
_atom_site_type_symbol
_atom_site_label
_atom_site_fract_x
_atom_site_fract_y
_atom_site_fract_z
Si Si1 0.384996 0.557384 0.759612
Si Si2 0.762290 0.706461 0.646188
Si Si3 0.109888 0.924678 0.660524
Si Si4 0.964085 0.208865 0.368523
Si Si5 0.107014 0.560581 0.220745
Si Si6 0.885749 0.415402 0.330690
O O1 0.500000 0.581233 0.750000
O O2 0.362559 0.483346 0.719479
O O3 0.235878 0.585411 0.654246
O O4 0.464248 0.563234 0.970004
O O5 0.750000 0.750000 0.500000
O O6 0.850522 0.744786 0.830181
O O7 0.604888 0.699544 0.562474
O O8 0.838509 0.640466 0.693637
O O9 0.100985 0.857494 0.718448
O O10 0.234782 0.921271 0.654538
O O11 0.000000 0.238006 0.250000
O O12 0.115334 0.485264 0.228785
O O13 0.000000 0.578983 0.250000
O O14 0.033385 0.587321 0.022973
#
# Coordination Sequence:
#
# PCOD9263774 Si02
#       6
#     8   8   8   8   8   8
#     4  10  19  34  60  86 115 159 197 253 311 370
#     4  10  22  39  61  88 122 164 205 259 315 368
#     4  10  20  35  57  86 120 150 202 254 302 373
#     4  10  21  38  58  88 117 155 200 255 312 368
#     4  10  22  38  60  92 127 169 204 257 323 379
#     4  10  21  40  59  91 130 162 210 262 314 378
#
# _framework density 23.333243
#
# number of rings (size 3 to 8) (size 9 to 14) (size 15 to 20)
#    0.000    2.000    1.667    1.500    2.333    2.000 
#   15.000    0.000    0.000    6.000    0.000    0.000 
#    0.000    0.000    0.000    0.000    0.000    0.000 
#
# Total GULP energy -133655.236241 kJ/mol
# GULP energy per Si atom -5568.968177 kJ/mol
# Density = 2.328014 g / cm^3
# Si number density = 23.333243 Si / 1000 Ang^3
#
#
#
# Elastic Constant Matrix: (Units=GPa)
#
#
# Indices 1 2 3 4 5 6 
#
# 1 86.0585 10.4231 9.3740 0.0000 18.4106 0.0000
# 2 10.4231 93.8229 39.3179 0.0000 17.0348 0.0000
# 3 9.3740 39.3179 99.6147 0.0000 43.2705 0.0000
# 4 0.0000 0.0000 0.0000 31.4429 0.0000 9.9942
# 5 18.4106 17.0348 43.2705 0.0000 39.0726 0.0000
# 6 0.0000 0.0000 0.0000 9.9942 0.0000 19.3609
#
#
#
# Elastic Compliance Matrix: (Units=1/GPa)
#
#
# Indices 1 2 3 4 5 6 
#
# 1 0.013431 -0.001159 0.003320 0.000000 -0.009500 0.000000
# 2 -0.001159 0.012871 -0.005339 0.000000 0.000847 0.000000
# 3 0.003320 -0.005339 0.022164 0.000000 -0.023782 0.000000
# 4 0.000000 0.000000 0.000000 0.038046 0.000000 -0.019640
# 5 -0.009500 0.000847 -0.023782 0.000000 0.056037 0.000000
# 6 0.000000 0.000000 0.000000 -0.019640 0.000000 0.061788
#
#
# Mechanical properties :
#
#
# Convention : Reuss Voigt Hill
#
# Bulk Modulus (GPa) = 23.74691 44.19180 33.96936
# Shear Modulus (GPa) = 22.24895 32.66736 27.45815
#
# Velocity S-wave (km/s) = 3.09128 3.74576 3.43415
# Velocity P-wave (km/s) = 4.78965 6.13907 5.50586
#
# Compressibility (1/GPa) = 0.04211074
#
# Stress axis : x y z
#
# Youngs Moduli (GPa) = 74.45415 77.69608 45.11838
#
# Poissons Ratio (x) = 0.09001 -0.14980
# Poissons Ratio (y) = 0.08626 0.24089
# Poissons Ratio (z) = -0.24720 0.41482
#
# Static dielectric constant tensor:
#      x y z
#    x 1.999180 0.000000 0.018740 
#    y 0.000000 1.918070 0.000000 
#    z 0.018740 0.000000 1.989630 
# 
# From -- ./inp_files/89781.got.cif
#   From: 2010.05.17/outbox.cif.g08.bks.cpg/sg15_45_cif.got.tgz:89781.got - 2010.06.03 18:47:42.
