data_PCOD9263644
_publ_section_title
;
Structure prediction by ZEFSAII (Michael W. Deem and Ramdas Pophale) SiO2 
 PCOD9263644
Probable space group: C 2/C
;
_chemical_formula_sum "Si O2"
_cell_formula_units_Z 32
_cell_length_a 14.470389
_cell_length_b 10.857305
_cell_length_c 7.758694
_cell_angle_alpha 90.000000
_cell_angle_beta 97.918915
_cell_angle_gamma 90.000000
_cell_volume 1207.339969
_symmetry_space_group_name_H-M "C 2/C"
_symmetry_group_IT_number 15
_symmetry_cell_setting 'monoclinic'
loop_
_space_group_symop_operation_xyz
x,y,z
-x,y,1/2-z
-x,-y,-z
x,-y,1/2+z
1/2+x,1/2+y,z
1/2-x,1/2+y,1/2-z
1/2-x,1/2-y,-z
1/2+x,1/2-y,1/2+z
loop_
_atom_site_type_symbol
_atom_site_label
_atom_site_fract_x
_atom_site_fract_y
_atom_site_fract_z
Si Si1 0.547592 0.328155 0.075156
Si Si2 0.406034 0.103169 0.645568
Si Si3 0.359354 0.329754 0.861631
Si Si4 0.215710 0.983973 0.969994
O O1 0.500000 0.330661 0.250000
O O2 0.640665 0.407246 0.068393
O O3 0.569059 0.191290 0.009896
O O4 0.466798 0.370247 0.920149
O O5 0.500000 0.046565 0.750000
O O6 0.366924 0.194869 0.784538
O O7 0.321139 0.022629 0.560417
O O8 0.300764 0.409135 0.709191
O O9 0.313598 0.372815 0.028789
#
# Coordination Sequence:
#
# PCOD9263644 Si02
#       4
#     8   8   8   8
#     4  10  19  34  58  89 116 145 188 240 289 337
#     4   9  21  41  60  82 116 155 193 235 283 340
#     4  10  20  34  57  85 115 147 187 234 285 337
#     4  11  20  37  59  86 118 153 188 237 290 340
#
# _framework density 26.504546999999999
#
# number of rings (size 3 to 8) (size 9 to 14) (size 15 to 20)
#    0.000    2.000    0.000    7.500    0.000    3.000 
#    0.000   23.750    0.000    1.500    0.000    0.000 
#    0.000    0.000    0.000    0.000    0.000    0.000 
#
# Total GULP energy -89409.791175 kJ/mol
# GULP energy per Si atom -5588.111948 kJ/mol
# Density = 2.644422 g / cm^3
# Si number density = 26.504547 Si / 1000 Ang^3
#
#
#
# Elastic Constant Matrix: (Units=GPa)
#
#
# Indices 1 2 3 4 5 6 
#
# 1 131.3844 21.5048 59.1565 0.0000 33.7935 0.0000
# 2 21.5048 37.1930 11.9493 0.0000 9.4149 0.0000
# 3 59.1565 11.9493 97.7455 0.0000 8.9954 0.0000
# 4 0.0000 0.0000 0.0000 22.7022 0.0000 -1.4367
# 5 33.7935 9.4149 8.9954 0.0000 65.8537 0.0000
# 6 0.0000 0.0000 0.0000 -1.4367 0.0000 45.0415
#
#
#
# Elastic Compliance Matrix: (Units=1/GPa)
#
#
# Indices 1 2 3 4 5 6 
#
# 1 0.012507 -0.003841 -0.006643 0.000000 -0.004962 0.000000
# 2 -0.003841 0.030024 -0.001146 0.000000 -0.002165 0.000000
# 3 -0.006643 -0.001146 0.014242 0.000000 0.001628 0.000000
# 4 0.000000 0.000000 0.000000 0.044138 0.000000 0.001408
# 5 -0.004962 -0.002165 0.001628 0.000000 0.017818 0.000000
# 6 0.000000 0.000000 0.000000 0.001408 0.000000 0.022247
#
#
# Mechanical properties :
#
#
# Convention : Reuss Voigt Hill
#
# Bulk Modulus (GPa) = 29.84102 50.17156 40.00629
# Shear Modulus (GPa) = 28.50489 38.30030 33.40260
#
# Velocity S-wave (km/s) = 3.28300 3.80550 3.55386
# Velocity P-wave (km/s) = 5.06498 6.18705 5.65392
#
# Compressibility (1/GPa) = 0.03351092
#
# Stress axis : x y z
#
# Youngs Moduli (GPa) = 79.95258 33.30654 70.21664
#
# Poissons Ratio (x) = 0.12794 0.46648
# Poissons Ratio (y) = 0.30713 0.08049
# Poissons Ratio (z) = 0.53116 0.03818
#
# Static dielectric constant tensor:
#      x y z
#    x 2.102420 0.000000 -0.117900 
#    y 0.000000 2.074940 0.000000 
#    z -0.117900 0.000000 2.243320 
# 
# From -- ./inp_files/27959.got.cif
#   From: 2010.05.17/outbox.cif.g08.bks.cpg/sg15_14_cif.got.tgz:27959.got - 2010.06.03 18:47:42.
