data_PCOD9263132
_publ_section_title
;
Structure prediction by ZEFSAII (Michael W. Deem and Ramdas Pophale) SiO2 
 PCOD9263132
Probable space group: C 2/C
;
_chemical_formula_sum "Si O2"
_cell_formula_units_Z 48
_cell_length_a 13.398286
_cell_length_b 21.201704
_cell_length_c 9.480581
_cell_angle_alpha 90.000000
_cell_angle_beta 46.144294
_cell_angle_gamma 90.000000
_cell_volume 1941.970370
_symmetry_space_group_name_H-M "C 2/C"
_symmetry_group_IT_number 15
_symmetry_cell_setting 'monoclinic'
loop_
_space_group_symop_operation_xyz
x,y,z
-x,y,1/2-z
-x,-y,-z
x,-y,1/2+z
1/2+x,1/2+y,z
1/2-x,1/2+y,1/2-z
1/2-x,1/2-y,-z
1/2+x,1/2-y,1/2+z
loop_
_atom_site_type_symbol
_atom_site_label
_atom_site_fract_x
_atom_site_fract_y
_atom_site_fract_z
Si Si1 0.140060 0.465457 0.884374
Si Si2 0.000000 0.725226 0.750000
Si Si3 0.207455 0.915914 0.540686
Si Si4 0.681386 0.591432 0.768517
Si Si5 0.500000 0.529028 0.750000
Si Si6 0.221158 0.195480 0.204358
Si Si7 0.655204 0.849794 0.648456
O O1 0.148432 0.437440 0.034284
O O2 0.248347 0.522903 0.776626
O O3 0.149638 0.412231 0.754916
O O4 0.000000 0.500000 0.000000
O O5 0.100750 0.758477 0.767691
O O6 0.129693 0.698671 0.525934
O O7 0.195597 0.878013 0.407753
O O8 0.156262 0.871787 0.717553
O O9 0.121785 0.979631 0.606144
O O10 0.533231 0.573378 0.849484
O O11 0.760161 0.630565 0.572764
O O12 0.263250 0.197837 0.327260
O O13 0.500000 0.832465 0.750000
#
# Coordination Sequence:
#
# PCOD9263132 Si02
#       7
#     8   4   8   8   4   8   8
#     4  10  19  34  51  83 127 171 210 241 284 339
#     4  10  23  48  76  94 116 156 218 278 355 426
#     4  10  22  35  62  89 121 169 214 260 298 374
#     4  11  22  34  58  89 132 178 211 251 297 359
#     4  10  21  38  54  90 138 180 222 244 295 356
#     4  10  24  44  72  96 122 160 215 277 343 402
#     4  11  23  39  60  93 136 170 212 265 309 381
#
# _framework density 24.717164
#
# number of rings (size 3 to 8) (size 9 to 14) (size 15 to 20)
#    0.000    1.667    1.667    3.000    2.333    4.000 
#    0.000    0.833    0.000    0.000    0.000    0.000 
#    0.000    0.000    0.000    0.000    0.000    0.000 
#
# Total GULP energy -133798.741528 kJ/mol
# GULP energy per Si atom -5574.947564 kJ/mol
# Density = 2.466091 g / cm^3
# Si number density = 24.717164 Si / 1000 Ang^3
#
#
#
# Elastic Constant Matrix: (Units=GPa)
#
#
# Indices 1 2 3 4 5 6 
#
# 1 212.5860 42.1615 75.1252 0.0000 33.3687 0.0000
# 2 42.1615 24.6594 12.3344 0.0000 -6.1911 0.0000
# 3 75.1252 12.3344 113.4143 0.0000 22.5961 0.0000
# 4 0.0000 0.0000 0.0000 13.0029 0.0000 11.0728
# 5 33.3687 -6.1911 22.5961 0.0000 45.7124 0.0000
# 6 0.0000 0.0000 0.0000 11.0728 0.0000 32.8281
#
#
#
# Elastic Compliance Matrix: (Units=1/GPa)
#
#
# Indices 1 2 3 4 5 6 
#
# 1 0.011367 -0.020011 -0.003505 0.000000 -0.009275 0.000000
# 2 -0.020011 0.081731 -0.000831 0.000000 0.026087 0.000000
# 3 -0.003505 -0.000831 0.011916 0.000000 -0.003444 0.000000
# 4 0.000000 0.000000 0.000000 0.107897 0.000000 -0.036393
# 5 -0.009275 0.026087 -0.003444 0.000000 0.033882 0.000000
# 6 0.000000 0.000000 0.000000 -0.036393 0.000000 0.042737
#
#
# Mechanical properties :
#
#
# Convention : Reuss Voigt Hill
#
# Bulk Modulus (GPa) = 17.75581 67.76689 42.76135
# Shear Modulus (GPa) = 14.00568 33.04456 23.52512
#
# Velocity S-wave (km/s) = 2.38300 3.66034 3.08843
# Velocity P-wave (km/s) = 3.84328 6.73354 5.48231
#
# Compressibility (1/GPa) = 0.05631958
#
# Stress axis : x y z
#
# Youngs Moduli (GPa) = 87.97190 12.23524 83.92241
#
# Poissons Ratio (x) = 0.24483 0.29419
# Poissons Ratio (y) = 1.76036 0.06976
# Poissons Ratio (z) = 0.30838 0.01017
#
# Static dielectric constant tensor:
#      x y z
#    x 1.964880 0.000000 0.029160 
#    y 0.000000 2.234360 0.000000 
#    z 0.029160 0.000000 2.030590 
# 
# From -- ./inp_files/33453.got.cif
#   From: 2010.05.17/outbox.cif.g08.bks.cpg/sg15_17_cif.got.tgz:33453.got - 2010.06.03 18:47:42.
