data_PCOD9263560
_publ_section_title
;
Structure prediction by ZEFSAII (Michael W. Deem and Ramdas Pophale) SiO2 
 PCOD9263560
Probable space group: C 2/C
;
_chemical_formula_sum "Si O2"
_cell_formula_units_Z 56
_cell_length_a 32.298735
_cell_length_b 5.301360
_cell_length_c 23.632361
_cell_angle_alpha 90.000000
_cell_angle_beta 137.248134
_cell_angle_gamma 90.000000
_cell_volume 2746.866377
_symmetry_space_group_name_H-M "C 2/C"
_symmetry_group_IT_number 15
_symmetry_cell_setting 'monoclinic'
loop_
_space_group_symop_operation_xyz
x,y,z
-x,y,1/2-z
-x,-y,-z
x,-y,1/2+z
1/2+x,1/2+y,z
1/2-x,1/2+y,1/2-z
1/2-x,1/2-y,-z
1/2+x,1/2-y,1/2+z
loop_
_atom_site_type_symbol
_atom_site_label
_atom_site_fract_x
_atom_site_fract_y
_atom_site_fract_z
Si Si1 0.357040 0.410022 0.769491
Si Si2 0.345580 0.139895 0.539594
Si Si3 0.558630 0.646347 0.732927
Si Si4 0.211772 0.853596 0.695042
Si Si5 0.420853 0.384323 0.117888
Si Si6 0.743447 0.182296 0.611496
Si Si7 0.329289 0.972098 0.146749
O O1 0.418018 0.489471 0.797794
O O2 0.349637 0.363886 0.828519
O O3 0.307153 0.624688 0.706645
O O4 0.331008 0.182748 0.706120
O O5 0.381904 0.872239 0.576575
O O6 0.287957 0.067463 0.443695
O O7 0.327923 0.184209 0.587406
O O8 0.384893 0.375196 0.557466
O O9 0.567590 0.532715 0.804905
O O10 0.486352 0.682251 0.656881
O O11 0.605807 0.879542 0.785337
O O12 0.249904 0.611736 0.757263
O O13 0.202714 0.806248 0.619429
O O14 0.768449 0.356505 0.586374
#
# Coordination Sequence:
#
# PCOD9263560 Si02
#       7
#     8   8   8   8   8   8   8
#     4  10  19  34  58  79 108 138 185 226 268 309
#     4  11  23  35  54  82 116 148 173 210 278 331
#     4   9  20  35  55  80 107 139 187 229 265 302
#     4  10  20  35  54  79 107 141 181 220 265 314
#     4  10  22  36  55  80 109 146 182 221 262 324
#     4  10  22  35  53  82 116 145 172 219 271 336
#     4  10  19  35  54  84 109 143 176 225 270 321
#
# _framework density 20.386869000000001
#
# number of rings (size 3 to 8) (size 9 to 14) (size 15 to 20)
#    0.000    2.000    2.857    0.429    4.000    1.714 
#    0.000    0.000    0.000    1.714    0.000    0.000 
#    0.000    0.000    0.000    0.000    0.000    0.000 
#
# Total GULP energy -155931.431769 kJ/mol
# GULP energy per Si atom -5568.979706 kJ/mol
# Density = 2.034047 g / cm^3
# Si number density = 20.386869 Si / 1000 Ang^3
#
#
#
# Elastic Constant Matrix: (Units=GPa)
#
#
# Indices 1 2 3 4 5 6 
#
# 1 129.9452 14.0941 25.2200 -0.0166 16.3337 -0.0161
# 2 14.0941 71.6793 13.2944 -0.0333 7.0801 -0.0316
# 3 25.2200 13.2944 37.1787 -0.0016 8.2048 -0.0032
# 4 -0.0166 -0.0333 -0.0016 19.2070 -0.0045 -0.3310
# 5 16.3337 7.0801 8.2048 -0.0045 13.0589 0.0034
# 6 -0.0161 -0.0316 -0.0032 -0.3310 0.0034 20.9968
#
#
#
# Elastic Compliance Matrix: (Units=1/GPa)
#
#
# Indices 1 2 3 4 5 6 
#
# 1 0.009755 -0.000165 -0.004511 0.000006 -0.009278 0.000008
# 2 -0.000165 0.015294 -0.004148 0.000025 -0.005480 0.000024
# 3 -0.004511 -0.004148 0.034480 -0.000011 -0.013773 -0.000002
# 4 0.000006 0.000025 -0.000011 0.052078 0.000004 0.000821
# 5 -0.009278 -0.005480 -0.013773 0.000004 0.099805 -0.000034
# 6 0.000008 0.000024 -0.000002 0.000821 -0.000034 0.047639
#
#
# Mechanical properties :
#
#
# Convention : Reuss Voigt Hill
#
# Bulk Modulus (GPa) = 23.87676 38.22446 31.05061
# Shear Modulus (GPa) = 17.20231 23.06554 20.13393
#
# Velocity S-wave (km/s) = 2.90796 3.36727 3.14601
# Velocity P-wave (km/s) = 4.79711 5.82308 5.33481
#
# Compressibility (1/GPa) = 0.04188173
#
# Stress axis : x y z
#
# Youngs Moduli (GPa) = 102.51035 65.38508 29.00267
#
# Poissons Ratio (x) = 0.01079 0.13083
# Poissons Ratio (y) = 0.01692 0.12029
# Poissons Ratio (z) = 0.46241 0.27119
#
# Static dielectric constant tensor:
#      x y z
#    x 1.794360 0.000000 -0.002980 
#    y 0.000000 1.816950 0.000000 
#    z -0.002980 0.000000 1.725290 
# 
# From -- ./inp_files/256614.got.cif
#   From: 2010.05.17/outbox.cif.g08.bks.cpg/sg15_129_cif.got.tgz:256614.got - 2010.06.03 18:47:42.
