data_PCOD9263202
_publ_section_title
;
Structure prediction by ZEFSAII (Michael W. Deem and Ramdas Pophale) SiO2 
 PCOD9263202
Probable space group: C 2/C
;
_chemical_formula_sum "Si O2"
_cell_formula_units_Z 64
_cell_length_a 21.285303
_cell_length_b 28.315381
_cell_length_c 15.835741
_cell_angle_alpha 90.000000
_cell_angle_beta 158.419726
_cell_angle_gamma 90.000000
_cell_volume 3510.407917
_symmetry_space_group_name_H-M "C 2/C"
_symmetry_group_IT_number 15
_symmetry_cell_setting 'monoclinic'
loop_
_space_group_symop_operation_xyz
x,y,z
-x,y,1/2-z
-x,-y,-z
x,-y,1/2+z
1/2+x,1/2+y,z
1/2-x,1/2+y,1/2-z
1/2-x,1/2-y,-z
1/2+x,1/2-y,1/2+z
loop_
_atom_site_type_symbol
_atom_site_label
_atom_site_fract_x
_atom_site_fract_y
_atom_site_fract_z
Si Si1 0.668095 0.956418 0.407098
Si Si2 0.785630 0.317355 0.296488
Si Si3 0.670369 0.316439 0.436851
Si Si4 0.971818 0.612323 0.306716
Si Si5 0.466484 0.480609 0.552080
Si Si6 0.101371 0.247449 0.688121
Si Si7 0.335369 0.608773 0.983966
Si Si8 0.144144 0.527715 0.233330
O O1 0.500000 0.945491 0.250000
O O2 0.701719 0.915217 0.380841
O O3 0.844415 0.969413 0.675179
O O4 0.636580 0.002709 0.313684
O O5 0.636636 0.289263 0.157954
O O6 0.725653 0.344202 0.137996
O O7 0.867357 0.357169 0.460083
O O8 0.933277 0.278563 0.466583
O O9 0.500000 0.343641 0.250000
O O10 0.822095 0.350316 0.600852
O O11 0.745341 0.285104 0.607057
O O12 0.614809 0.281778 0.292093
O O13 0.910763 0.580473 0.309805
O O14 0.000000 0.588569 0.250000
O O15 0.500000 0.500000 0.500000
O O16 0.374554 0.430514 0.459764
O O17 0.333161 0.517567 0.430437
O O18 0.500000 0.615582 0.250000
O O19 0.000000 0.500000 0.000000
#
# Coordination Sequence:
#
# PCOD9263202 Si02
#       8
#     8   8   8   8   8   8   8   8
#     4  10  20  38  63  85 115 162 196 244 309 356
#     4  11  21  39  59  85 116 155 199 244 307 367
#     4  10  19  34  53  82 120 152 186 232 298 365
#     4  11  22  34  56  89 117 154 198 246 289 359
#     4  10  21  39  61  86 119 162 198 247 305 354
#     4  10  20  34  58  80 115 155 187 236 308 362
#     4   9  21  41  62  85 115 155 206 254 296 355
#     4  11  22  37  54  83 125 161 198 242 291 355
#
# _framework density 18.2315
#
# number of rings (size 3 to 8) (size 9 to 14) (size 15 to 20)
#    0.000    1.750    2.500    3.750    0.000    2.000 
#    2.250    3.125    0.000    0.000    0.000    0.000 
#    0.000    0.000    0.000    0.000    0.000    0.000 
#
# Total GULP energy -178145.135877 kJ/mol
# GULP energy per Si atom -5567.035496 kJ/mol
# Density = 1.819000 g / cm^3
# Si number density = 18.231500 Si / 1000 Ang^3
#
#
#
# Elastic Constant Matrix: (Units=GPa)
#
#
# Indices 1 2 3 4 5 6 
#
# 1 99.8698 45.8629 42.4225 0.0000 1.5175 0.0000
# 2 45.8629 76.6117 32.0565 0.0000 -9.2339 0.0000
# 3 42.4225 32.0565 66.2780 -0.0001 1.9839 0.0000
# 4 0.0000 0.0000 -0.0001 30.0633 -0.0001 -12.8500
# 5 1.5175 -9.2339 1.9839 -0.0001 24.1215 0.0000
# 6 0.0000 0.0000 0.0000 -12.8500 0.0000 34.4641
#
#
#
# Elastic Compliance Matrix: (Units=1/GPa)
#
#
# Indices 1 2 3 4 5 6 
#
# 1 0.016311 -0.007310 -0.006807 0.000000 -0.003264 0.000000
# 2 -0.007310 0.020885 -0.005690 0.000000 0.008923 0.000000
# 3 -0.006807 -0.005690 0.022304 0.000000 -0.003584 0.000000
# 4 0.000000 0.000000 0.000000 0.039569 0.000000 0.014754
# 5 -0.003264 0.008923 -0.003584 0.000000 0.045373 0.000000
# 6 0.000000 0.000000 0.000000 0.014754 0.000000 0.034517
#
#
# Mechanical properties :
#
#
# Convention : Reuss Voigt Hill
#
# Bulk Modulus (GPa) = 50.28354 53.71594 51.99974
# Shear Modulus (GPa) = 22.20249 25.89094 24.04672
#
# Velocity S-wave (km/s) = 3.49350 3.77254 3.63570
# Velocity P-wave (km/s) = 6.62670 6.96443 6.79766
#
# Compressibility (1/GPa) = 0.01988722
#
# Stress axis : x y z
#
# Youngs Moduli (GPa) = 61.30896 47.88162 44.83476
#
# Poissons Ratio (x) = 0.34999 0.30519
# Poissons Ratio (y) = 0.44814 0.25510
# Poissons Ratio (z) = 0.41733 0.27244
#
# Static dielectric constant tensor:
#      x y z
#    x 1.663890 0.000000 0.031980 
#    y 0.000000 1.636840 0.000000 
#    z 0.031980 0.000000 1.625010 
# 
# From -- ./inp_files/170113.got.cif
#   From: 2010.05.17/outbox.cif.g08.bks.cpg/sg15_86_cif.got.tgz:170113.got - 2010.06.03 18:47:42.
