data_PCOD9263257
_publ_section_title
;
Structure prediction by ZEFSAII (Michael W. Deem and Ramdas Pophale) SiO2 
 PCOD9263257
Probable space group: C 2/C
;
_chemical_formula_sum "Si O2"
_cell_formula_units_Z 56
_cell_length_a 11.812465
_cell_length_b 18.822953
_cell_length_c 19.622907
_cell_angle_alpha 90.000000
_cell_angle_beta 136.940662
_cell_angle_gamma 90.000000
_cell_volume 2978.905950
_symmetry_space_group_name_H-M "C 2/C"
_symmetry_group_IT_number 15
_symmetry_cell_setting 'monoclinic'
loop_
_space_group_symop_operation_xyz
x,y,z
-x,y,1/2-z
-x,-y,-z
x,-y,1/2+z
1/2+x,1/2+y,z
1/2-x,1/2+y,1/2-z
1/2-x,1/2-y,-z
1/2+x,1/2-y,1/2+z
loop_
_atom_site_type_symbol
_atom_site_label
_atom_site_fract_x
_atom_site_fract_y
_atom_site_fract_z
Si Si1 0.731724 0.949393 0.720366
Si Si2 0.810421 0.083858 0.664138
Si Si3 0.812512 0.984671 0.401494
Si Si4 0.945435 0.635648 0.544735
Si Si5 0.691667 0.685604 0.316737
Si Si6 0.144090 0.525630 0.462012
Si Si7 0.161486 0.339803 0.353127
O O1 0.788167 0.867846 0.737878
O O2 0.539596 0.944753 0.616637
O O3 0.810774 0.007386 0.703307
O O4 0.759807 0.985217 0.805565
O O5 0.646462 0.127323 0.621150
O O6 0.763147 0.066882 0.565413
O O7 0.000000 0.113128 0.750000
O O8 0.796341 0.900050 0.404452
O O9 0.705367 0.022545 0.412322
O O10 0.000000 0.000000 0.500000
O O11 0.834937 0.665810 0.434488
O O12 0.878442 0.555581 0.524161
O O13 0.890280 0.674954 0.591020
O O14 0.500000 0.670466 0.250000
O O15 0.697456 0.771191 0.322861
O O16 0.000000 0.376824 0.250000
#
# Coordination Sequence:
#
# PCOD9263257 Si02
#       7
#     8   8   8   8   8   8   8
#     4  11  20  36  57  86 123 160 208 259 307 370
#     4  11  19  31  56  87 125 159 208 257 301 362
#     4  11  23  36  60  90 121 163 209 260 310 369
#     4  10  19  36  56  87 125 159 198 255 305 365
#     4  11  22  35  61  91 120 158 200 257 319 373
#     4  10  19  34  54  84 123 158 205 257 310 353
#     4  10  22  39  57  89 127 156 196 257 320 367
#
# _framework density 18.798848
#
# number of rings (size 3 to 8) (size 9 to 14) (size 15 to 20)
#    0.000    1.429    2.857    5.571    4.000    0.000 
#    0.000    0.000    0.000    0.857    3.714    2.000 
#    0.000    0.000    0.000    0.000    0.000    0.000 
#
# Total GULP energy -155892.107140 kJ/mol
# GULP energy per Si atom -5567.575255 kJ/mol
# Density = 1.875606 g / cm^3
# Si number density = 18.798848 Si / 1000 Ang^3
#
#
#
# Elastic Constant Matrix: (Units=GPa)
#
#
# Indices 1 2 3 4 5 6 
#
# 1 60.1063 39.1168 25.8528 0.0000 -6.8017 0.0000
# 2 39.1168 65.8481 6.6269 0.0000 5.7625 0.0000
# 3 25.8528 6.6269 92.4212 0.0000 6.5203 0.0000
# 4 0.0000 0.0000 0.0000 25.0052 0.0000 4.3790
# 5 -6.8017 5.7625 6.5203 0.0000 42.2290 0.0000
# 6 0.0000 0.0000 0.0000 4.3790 0.0000 15.4780
#
#
#
# Elastic Compliance Matrix: (Units=1/GPa)
#
#
# Indices 1 2 3 4 5 6 
#
# 1 0.035267 -0.020907 -0.009067 0.000000 0.009933 0.000000
# 2 -0.020907 0.027850 0.004405 0.000000 -0.007848 0.000000
# 3 -0.009067 0.004405 0.013331 0.000000 -0.004120 0.000000
# 4 0.000000 0.000000 0.000000 0.042076 0.000000 -0.011904
# 5 0.009933 -0.007848 -0.004120 0.000000 0.026987 0.000000
# 6 0.000000 0.000000 0.000000 -0.011904 0.000000 0.067976
#
#
# Mechanical properties :
#
#
# Convention : Reuss Voigt Hill
#
# Bulk Modulus (GPa) = 39.50994 40.17428 39.84211
# Shear Modulus (GPa) = 18.31081 26.32772 22.31926
#
# Velocity S-wave (km/s) = 3.12435 3.74638 3.44941
# Velocity P-wave (km/s) = 5.83766 6.33489 6.09135
#
# Compressibility (1/GPa) = 0.02531009
#
# Stress axis : x y z
#
# Youngs Moduli (GPa) = 28.35478 35.90690 75.01243
#
# Poissons Ratio (x) = 0.75071 0.68014
# Poissons Ratio (y) = 0.59282 -0.33044
# Poissons Ratio (z) = 0.25709 -0.15817
#
# Static dielectric constant tensor:
#      x y z
#    x 1.672320 0.000000 0.007000 
#    y 0.000000 1.481880 0.000000 
#    z 0.007000 0.000000 1.658320 
# 
# From -- ./inp_files/240302.got.cif
#   From: 2010.05.17/outbox.cif.g08.bks.cpg/sg15_121_cif.got.tgz:240302.got - 2010.06.03 18:47:42.
