data_PCOD9263776
_publ_section_title
;
Structure prediction by ZEFSAII (Michael W. Deem and Ramdas Pophale) SiO2 
 PCOD9263776
Probable space group: C 2/C
;
_chemical_formula_sum "Si O2"
_cell_formula_units_Z 52
_cell_length_a 14.802948
_cell_length_b 11.480750
_cell_length_c 18.170708
_cell_angle_alpha 90.000000
_cell_angle_beta 120.794335
_cell_angle_gamma 90.000000
_cell_volume 2652.704081
_symmetry_space_group_name_H-M "C 2/C"
_symmetry_group_IT_number 15
_symmetry_cell_setting 'monoclinic'
loop_
_space_group_symop_operation_xyz
x,y,z
-x,y,1/2-z
-x,-y,-z
x,-y,1/2+z
1/2+x,1/2+y,z
1/2-x,1/2+y,1/2-z
1/2-x,1/2-y,-z
1/2+x,1/2-y,1/2+z
loop_
_atom_site_type_symbol
_atom_site_label
_atom_site_fract_x
_atom_site_fract_y
_atom_site_fract_z
Si Si1 0.910869 0.708415 0.077557
Si Si2 0.342680 0.849257 0.821244
Si Si3 0.377628 0.967078 0.441869
Si Si4 0.897061 0.080458 0.460942
Si Si5 0.000000 0.637589 0.750000
Si Si6 0.639221 0.764548 0.182831
Si Si7 0.168453 0.452785 0.840772
O O1 0.865834 0.672667 0.138532
O O2 0.037110 0.693840 0.128918
O O3 0.855627 0.606221 0.005816
O O4 0.892971 0.830636 0.028944
O O5 0.253245 0.756246 0.766179
O O6 0.335469 0.936634 0.748683
O O7 0.322023 0.916419 0.889489
O O8 0.361793 0.875212 0.370391
O O9 0.500000 0.000000 0.500000
O O10 0.891708 0.159148 0.384619
O O11 0.785612 0.014350 0.413675
O O12 0.000000 0.000000 0.500000
O O13 0.057489 0.714552 0.713580
O O14 0.083242 0.550640 0.823730
#
# Coordination Sequence:
#
# PCOD9263776 Si02
#       7
#     8   8   8   8   4   8   8
#     4  10  19  35  62  89 118 152 206 245 296 358
#     4  10  19  34  60  86 120 156 199 242 309 352
#     4   9  17  35  55  84 118 156 194 240 300 365
#     4  10  24  41  59  85 129 159 193 246 321 354
#     4  12  20  38  62  86 120 144 218 244 292 354
#     4  10  22  36  60  88 116 162 197 251 299 363
#     4  11  20  38  64  90 115 160 205 249 287 367
#
# _framework density 19.602640000000001
#
# number of rings (size 3 to 8) (size 9 to 14) (size 15 to 20)
#    0.000    1.846    3.077    1.385    2.154    0.000 
#    2.769    0.769    3.385    0.000    0.000    0.000 
#    0.000    0.000    0.000    0.000    0.000    0.000 
#
# Total GULP energy -144925.324918 kJ/mol
# GULP energy per Si atom -5574.050958 kJ/mol
# Density = 1.955802 g / cm^3
# Si number density = 19.602640 Si / 1000 Ang^3
#
#
#
# Elastic Constant Matrix: (Units=GPa)
#
#
# Indices 1 2 3 4 5 6 
#
# 1 90.3757 27.0860 34.1415 0.0000 23.7765 0.0000
# 2 27.0860 50.1107 39.4838 0.0000 16.9692 0.0000
# 3 34.1415 39.4838 101.0022 0.0000 24.6732 0.0000
# 4 0.0000 0.0000 0.0000 36.6208 0.0000 3.5605
# 5 23.7765 16.9692 24.6732 0.0000 38.1273 0.0000
# 6 0.0000 0.0000 0.0000 3.5605 0.0000 25.8826
#
#
#
# Elastic Compliance Matrix: (Units=1/GPa)
#
#
# Indices 1 2 3 4 5 6 
#
# 1 0.014652 -0.004536 -0.001711 0.000000 -0.006011 0.000000
# 2 -0.004536 0.031703 -0.009626 0.000000 -0.005052 0.000000
# 3 -0.001711 -0.009626 0.015364 0.000000 -0.004591 0.000000
# 4 0.000000 0.000000 0.000000 0.027677 0.000000 -0.003807
# 5 -0.006011 -0.005052 -0.004591 0.000000 0.035196 0.000000
# 6 0.000000 0.000000 0.000000 -0.003807 0.000000 0.039160
#
#
# Mechanical properties :
#
#
# Convention : Reuss Voigt Hill
#
# Bulk Modulus (GPa) = 33.36373 49.21236 41.28804
# Shear Modulus (GPa) = 24.33220 29.51128 26.92174
#
# Velocity S-wave (km/s) = 3.52699 3.88425 3.70993
# Velocity P-wave (km/s) = 5.80027 6.72875 6.28169
#
# Compressibility (1/GPa) = 0.02997267
#
# Stress axis : x y z
#
# Youngs Moduli (GPa) = 68.24887 31.54270 65.08854
#
# Poissons Ratio (x) = 0.14308 0.11138
# Poissons Ratio (y) = 0.30957 0.62654
# Poissons Ratio (z) = 0.11679 0.30363
#
# Static dielectric constant tensor:
#      x y z
#    x 1.681990 0.000000 -0.004390 
#    y 0.000000 1.550580 0.000000 
#    z -0.004390 0.000000 1.701040 
# 
# From -- ./inp_files/204167.got.cif
#   From: 2010.05.17/outbox.cif.g08.bks.cpg/sg15_103_cif.got.tgz:204167.got - 2010.06.03 18:47:42.
