data_PCOD9263280
_publ_section_title
;
Structure prediction by ZEFSAII (Michael W. Deem and Ramdas Pophale) SiO2 
 PCOD9263280
Probable space group: C 2/C
;
_chemical_formula_sum "Si O2"
_cell_formula_units_Z 48
_cell_length_a 8.905564
_cell_length_b 16.813370
_cell_length_c 16.617005
_cell_angle_alpha 90.000000
_cell_angle_beta 119.401654
_cell_angle_gamma 90.000000
_cell_volume 2167.637406
_symmetry_space_group_name_H-M "C 2/C"
_symmetry_group_IT_number 15
_symmetry_cell_setting 'monoclinic'
loop_
_space_group_symop_operation_xyz
x,y,z
-x,y,1/2-z
-x,-y,-z
x,-y,1/2+z
1/2+x,1/2+y,z
1/2-x,1/2+y,1/2-z
1/2-x,1/2-y,-z
1/2+x,1/2-y,1/2+z
loop_
_atom_site_type_symbol
_atom_site_label
_atom_site_fract_x
_atom_site_fract_y
_atom_site_fract_z
Si Si1 0.464806 0.941099 0.837305
Si Si2 0.172065 0.995324 0.366806
Si Si3 0.867950 0.119796 0.829708
Si Si4 0.636460 0.160849 0.614058
Si Si5 0.583431 0.769903 0.861150
Si Si6 0.299873 0.915194 0.045762
O O1 0.500000 0.947006 0.750000
O O2 0.270708 0.958402 0.818809
O O3 0.536605 0.855276 0.883164
O O4 0.576093 0.009782 0.906401
O O5 0.181170 0.059376 0.440793
O O6 0.291634 0.917227 0.412491
O O7 0.985709 0.951395 0.324658
O O8 0.722592 0.144859 0.725658
O O9 0.793640 0.096275 0.895068
O O10 0.986192 0.196527 0.875341
O O11 0.720952 0.240254 0.599575
O O12 0.431683 0.156729 0.562904
O O13 0.500000 0.771583 0.750000
#
# Coordination Sequence:
#
# PCOD9263280 Si02
#       6
#     8   8   8   8   8   8
#     4  10  19  34  55  78 103 136 180 226 264 309
#     4  10  20  34  51  79 111 138 171 221 270 319
#     4  10  19  35  56  75 102 143 180 213 265 329
#     4   9  17  33  55  75 100 140 182 216 258 322
#     4   8  17  33  53  75 102 136 176 222 265 310
#     4  11  20  33  54  82 107 137 177 220 264 321
#
# _framework density 22.143926
#
# number of rings (size 3 to 8) (size 9 to 14) (size 15 to 20)
#    0.000    2.333    0.000    6.500    0.000    0.000 
#    0.000   10.000    0.000   10.000    0.000    0.000 
#    0.000    0.000    0.000    0.000    0.000    0.000 
#
# Total GULP energy -133784.645415 kJ/mol
# GULP energy per Si atom -5574.360226 kJ/mol
# Density = 2.209353 g / cm^3
# Si number density = 22.143926 Si / 1000 Ang^3
#
#
#
# Elastic Constant Matrix: (Units=GPa)
#
#
# Indices 1 2 3 4 5 6 
#
# 1 82.7350 45.6809 -1.8168 0.0000 -3.6012 0.0000
# 2 45.6809 106.9868 4.8843 0.0000 4.7945 0.0000
# 3 -1.8168 4.8843 37.0919 0.0000 -7.4194 0.0000
# 4 0.0000 0.0000 0.0000 17.8397 0.0000 -0.9945
# 5 -3.6012 4.7945 -7.4194 0.0000 15.1698 0.0000
# 6 0.0000 0.0000 0.0000 -0.9945 0.0000 31.8473
#
#
#
# Elastic Compliance Matrix: (Units=1/GPa)
#
#
# Indices 1 2 3 4 5 6 
#
# 1 0.016751 -0.007672 0.003448 0.000000 0.008088 0.000000
# 2 -0.007672 0.013138 -0.003659 0.000000 -0.007763 0.000000
# 3 0.003448 -0.003659 0.031043 0.000000 0.017158 0.000000
# 4 0.000000 0.000000 0.000000 0.056152 0.000000 0.001754
# 5 0.008088 -0.007763 0.017158 0.000000 0.078686 0.000000
# 6 0.000000 0.000000 0.000000 0.001754 0.000000 0.031455
#
#
# Mechanical properties :
#
#
# Convention : Reuss Voigt Hill
#
# Bulk Modulus (GPa) = 22.14013 36.03451 29.08732
# Shear Modulus (GPa) = 19.37660 24.84237 22.10948
#
# Velocity S-wave (km/s) = 2.96130 3.35305 3.16325
# Velocity P-wave (km/s) = 4.65966 5.59453 5.14836
#
# Compressibility (1/GPa) = 0.04516685
#
# Stress axis : x y z
#
# Youngs Moduli (GPa) = 59.69961 76.11728 32.21363
#
# Poissons Ratio (x) = 0.58397 -0.11109
# Poissons Ratio (y) = 0.45801 0.11785
# Poissons Ratio (z) = -0.20587 0.27848
#
# Static dielectric constant tensor:
#      x y z
#    x 1.842310 0.000000 0.016670 
#    y 0.000000 1.811940 0.000000 
#    z 0.016670 0.000000 1.954090 
# 
# From -- ./inp_files/190635.got.cif
#   From: 2010.05.17/outbox.cif.g08.bks.cpg/sg15_96_cif.got.tgz:190635.got - 2010.06.03 18:47:42.
