data_PCOD9263327
_publ_section_title
;
Structure prediction by ZEFSAII (Michael W. Deem and Ramdas Pophale) SiO2 
 PCOD9263327
Probable space group: C 2/C
;
_chemical_formula_sum "Si O2"
_cell_formula_units_Z 60
_cell_length_a 25.352714
_cell_length_b 18.580897
_cell_length_c 7.980336
_cell_angle_alpha 90.000000
_cell_angle_beta 59.401074
_cell_angle_gamma 90.000000
_cell_volume 3235.863052
_symmetry_space_group_name_H-M "C 2/C"
_symmetry_group_IT_number 15
_symmetry_cell_setting 'monoclinic'
loop_
_space_group_symop_operation_xyz
x,y,z
-x,y,1/2-z
-x,-y,-z
x,-y,1/2+z
1/2+x,1/2+y,z
1/2-x,1/2+y,1/2-z
1/2-x,1/2-y,-z
1/2+x,1/2-y,1/2+z
loop_
_atom_site_type_symbol
_atom_site_label
_atom_site_fract_x
_atom_site_fract_y
_atom_site_fract_z
Si Si1 0.393921 0.677657 0.115509
Si Si2 0.789600 0.689241 0.341873
Si Si3 0.148320 0.806358 0.436542
Si Si4 0.290633 0.575290 0.210514
Si Si5 0.500000 0.835001 0.750000
Si Si6 0.480816 0.276815 0.979168
Si Si7 0.368410 0.841161 0.023064
Si Si8 0.247522 0.916359 0.341872
O O1 0.370771 0.682488 0.342812
O O2 0.359452 0.609193 0.091519
O O3 0.467066 0.672962 0.021441
O O4 0.376122 0.756401 0.066519
O O5 0.750000 0.750000 0.500000
O O6 0.822322 0.728329 0.134547
O O7 0.747241 0.626545 0.348713
O O8 0.841227 0.661400 0.381802
O O9 0.087166 0.809615 0.423344
O O10 0.202068 0.862657 0.316271
O O11 0.273129 0.494677 0.188059
O O12 0.267732 0.586069 0.437231
O O13 0.481473 0.788242 0.613469
O O14 0.562964 0.872761 0.591908
O O15 0.500000 0.260370 0.750000
O O16 0.316804 0.887129 0.204185
#
# Coordination Sequence:
#
# PCOD9263327 Si02
#       8
#     8   8   8   8   4   8   8   8
#     4   9  19  35  56  81 115 148 193 238 285 338
#     4  12  20  32  58  86 113 141 191 243 284 339
#     4  10  19  34  55  84 112 151 187 239 288 339
#     4  11  23  38  55  83 114 156 193 235 292 341
#     4  10  20  34  58  88 116 148 194 240 298 346
#     4   9  18  33  54  85 120 148 191 243 292 341
#     4  11  20  35  57  88 113 147 189 241 288 345
#     4  11  23  37  57  80 120 155 192 240 291 345
#
# _framework density 18.542193999999999
#
# number of rings (size 3 to 8) (size 9 to 14) (size 15 to 20)
#    0.000    1.600    4.000    1.600    0.000    2.133 
#    0.000    0.667    0.000    3.200    0.000    0.000 
#    0.000    0.000    0.000    0.000    0.000    0.000 
#
# Total GULP energy -167018.411528 kJ/mol
# GULP energy per Si atom -5567.280384 kJ/mol
# Density = 1.849999 g / cm^3
# Si number density = 18.542194 Si / 1000 Ang^3
#
#
#
# Elastic Constant Matrix: (Units=GPa)
#
#
# Indices 1 2 3 4 5 6 
#
# 1 115.3971 9.6847 20.1867 0.0000 -0.4202 0.0000
# 2 9.6847 36.2574 5.4561 0.0000 13.9814 0.0000
# 3 20.1867 5.4561 38.4985 0.0000 -6.6044 0.0000
# 4 0.0000 0.0000 0.0000 15.8058 0.0000 11.4419
# 5 -0.4202 13.9814 -6.6044 0.0000 29.4690 0.0000
# 6 0.0000 0.0000 0.0000 11.4419 0.0000 20.6115
#
#
#
# Elastic Compliance Matrix: (Units=1/GPa)
#
#
# Indices 1 2 3 4 5 6 
#
# 1 0.009662 -0.001826 -0.004821 0.000000 -0.000076 0.000000
# 2 -0.001826 0.036536 -0.007487 0.000000 -0.019038 0.000000
# 3 -0.004821 -0.007487 0.031367 0.000000 0.010513 0.000000
# 4 0.000000 0.000000 0.000000 0.105774 0.000000 -0.058717
# 5 -0.000076 -0.019038 0.010513 0.000000 0.045321 0.000000
# 6 0.000000 0.000000 0.000000 -0.058717 0.000000 0.081112
#
#
# Mechanical properties :
#
#
# Convention : Reuss Voigt Hill
#
# Bulk Modulus (GPa) = 20.28424 28.97867 24.63145
# Shear Modulus (GPa) = 14.10549 23.49895 18.80222
#
# Velocity S-wave (km/s) = 2.76111 3.56381 3.18783
# Velocity P-wave (km/s) = 4.59655 5.70936 5.18291
#
# Compressibility (1/GPa) = 0.04929936
#
# Stress axis : x y z
#
# Youngs Moduli (GPa) = 103.49853 27.37002 31.88043
#
# Poissons Ratio (x) = 0.04998 0.15368
# Poissons Ratio (y) = 0.18899 0.23867
# Poissons Ratio (z) = 0.49892 0.20491
#
# Static dielectric constant tensor:
#      x y z
#    x 1.689390 0.000000 -0.057800 
#    y 0.000000 1.654920 0.000000 
#    z -0.057800 0.000000 1.733470 
# 
# From -- ./inp_files/62727.got.cif
#   From: 2010.05.17/outbox.cif.g08.bks.cpg/sg15_32_cif.got.tgz:62727.got - 2010.06.03 18:47:42.
