data_PCOD9263934
_publ_section_title
;
Structure prediction by ZEFSAII (Michael W. Deem and Ramdas Pophale) SiO2 
 PCOD9263934
Probable space group: C 2/C
;
_chemical_formula_sum "Si O2"
_cell_formula_units_Z 60
_cell_length_a 17.662815
_cell_length_b 18.560079
_cell_length_c 9.543154
_cell_angle_alpha 90.000000
_cell_angle_beta 109.352076
_cell_angle_gamma 90.000000
_cell_volume 2951.709751
_symmetry_space_group_name_H-M "C 2/C"
_symmetry_group_IT_number 15
_symmetry_cell_setting 'monoclinic'
loop_
_space_group_symop_operation_xyz
x,y,z
-x,y,1/2-z
-x,-y,-z
x,-y,1/2+z
1/2+x,1/2+y,z
1/2-x,1/2+y,1/2-z
1/2-x,1/2-y,-z
1/2+x,1/2-y,1/2+z
loop_
_atom_site_type_symbol
_atom_site_label
_atom_site_fract_x
_atom_site_fract_y
_atom_site_fract_z
Si Si1 0.334080 0.264518 0.972939
Si Si2 0.795955 0.078303 0.336172
Si Si3 0.080078 0.166865 0.742065
Si Si4 0.153335 0.625241 0.716911
Si Si5 0.761601 0.655698 0.435830
Si Si6 0.500000 0.164456 0.750000
Si Si7 0.712159 0.546481 0.854222
Si Si8 0.618288 0.275420 0.976585
O O1 0.334203 0.344279 0.902071
O O2 0.343536 0.200991 0.866535
O O3 0.250000 0.250000 0.000000
O O4 0.400667 0.268695 0.136592
O O5 0.725502 0.103397 0.187235
O O6 0.779446 0.039391 0.473448
O O7 0.832267 0.017849 0.255617
O O8 0.157174 0.116132 0.795786
O O9 0.072765 0.189765 0.577631
O O10 0.000000 0.130014 0.750000
O O11 0.059493 0.616391 0.693216
O O12 0.201582 0.565957 0.658602
O O13 0.199879 0.631104 0.894265
O O14 0.666735 0.669351 0.406699
O O15 0.805852 0.729294 0.420191
O O16 0.559292 0.219131 0.867418
#
# Coordination Sequence:
#
# PCOD9263934 Si02
#       8
#     8   8   8   8   8   4   8   8
#     4  11  19  37  64  94 121 158 208 258 300 360
#     4  11  22  38  63  92 117 163 212 249 308 365
#     4  11  22  36  58  88 125 162 206 255 307 361
#     4  11  20  40  61  92 123 153 205 251 309 358
#     4  10  19  34  64  85 117 156 204 249 299 374
#     4  10  22  32  58  92 126 156 192 260 306 362
#     4  11  24  39  61  86 121 161 203 252 303 377
#     4  10  19  35  57  93 120 155 201 255 313 356
#
# _framework density 20.327200999999999
#
# number of rings (size 3 to 8) (size 9 to 14) (size 15 to 20)
#    0.000    1.333    4.000    4.800    0.000    1.067 
#    0.000    2.667    5.867    7.200    1.733    0.000 
#    0.000    0.000    0.000    0.000    0.000    0.000 
#
# Total GULP energy -167084.592096 kJ/mol
# GULP energy per Si atom -5569.486403 kJ/mol
# Density = 2.028094 g / cm^3
# Si number density = 20.327201 Si / 1000 Ang^3
#
#
#
# Elastic Constant Matrix: (Units=GPa)
#
#
# Indices 1 2 3 4 5 6 
#
# 1 98.3992 -7.1007 4.4031 0.0000 -9.4411 0.0000
# 2 -7.1007 46.1076 6.5223 0.0000 -8.5941 0.0000
# 3 4.4031 6.5223 85.3913 0.0000 -19.6615 0.0000
# 4 0.0000 0.0000 0.0000 33.1191 0.0000 -11.0385
# 5 -9.4411 -8.5941 -19.6615 0.0000 28.5380 0.0000
# 6 0.0000 0.0000 0.0000 -11.0385 0.0000 8.1619
#
#
#
# Elastic Compliance Matrix: (Units=1/GPa)
#
#
# Indices 1 2 3 4 5 6 
#
# 1 0.010758 0.002454 0.000294 0.000000 0.004501 0.000000
# 2 0.002454 0.023541 -0.000125 0.000000 0.007815 0.000000
# 3 0.000294 -0.000125 0.013928 0.000000 0.009656 0.000000
# 4 0.000000 0.000000 0.000000 0.054975 0.000000 0.074351
# 5 0.004501 0.007815 0.009656 0.000000 0.045536 0.000000
# 6 0.000000 0.000000 0.000000 0.074351 0.000000 0.223077
#
#
# Mechanical properties :
#
#
# Convention : Reuss Voigt Hill
#
# Bulk Modulus (GPa) = 18.70075 26.39414 22.54745
# Shear Modulus (GPa) = 13.00749 29.03534 21.02141
#
# Velocity S-wave (km/s) = 2.53238 3.78352 3.21931
# Velocity P-wave (km/s) = 4.21550 5.66564 4.99349
#
# Compressibility (1/GPa) = 0.05347379
#
# Stress axis : x y z
#
# Youngs Moduli (GPa) = 92.94999 42.47958 71.79556
#
# Poissons Ratio (x) = -0.10425 -0.02112
# Poissons Ratio (y) = -0.22812 0.00899
# Poissons Ratio (z) = -0.02734 0.00532
#
# Static dielectric constant tensor:
#      x y z
#    x 1.758010 0.000000 -0.025940 
#    y 0.000000 1.853310 0.000000 
#    z -0.025940 0.000000 1.788110 
# 
# From -- ./inp_files/50288.got.cif
#   From: 2010.05.17/outbox.cif.g08.bks.cpg/sg15_26_cif.got.tgz:50288.got - 2010.06.03 18:47:42.
