data_PCOD9263626
_publ_section_title
;
Structure prediction by ZEFSAII (Michael W. Deem and Ramdas Pophale) SiO2 
 PCOD9263626
Probable space group: C 2/C
;
_chemical_formula_sum "Si O2"
_cell_formula_units_Z 40
_cell_length_a 10.023480
_cell_length_b 9.468299
_cell_length_c 18.710871
_cell_angle_alpha 90.000000
_cell_angle_beta 68.266770
_cell_angle_gamma 90.000000
_cell_volume 1649.536243
_symmetry_space_group_name_H-M "C 2/C"
_symmetry_group_IT_number 15
_symmetry_cell_setting 'monoclinic'
loop_
_space_group_symop_operation_xyz
x,y,z
-x,y,1/2-z
-x,-y,-z
x,-y,1/2+z
1/2+x,1/2+y,z
1/2-x,1/2+y,1/2-z
1/2-x,1/2-y,-z
1/2+x,1/2-y,1/2+z
loop_
_atom_site_type_symbol
_atom_site_label
_atom_site_fract_x
_atom_site_fract_y
_atom_site_fract_z
Si Si1 0.605825 0.150234 0.635045
Si Si2 0.065072 0.617389 0.316613
Si Si3 0.680818 0.698406 0.611225
Si Si4 0.672137 0.757419 0.274200
Si Si5 0.667357 0.479915 0.983230
O O1 0.486665 0.274822 0.662686
O O2 0.654360 0.143268 0.708282
O O3 0.498678 0.021902 0.635371
O O4 0.743424 0.117388 0.560223
O O5 0.234145 0.631779 0.277426
O O6 0.000000 0.616594 0.250000
O O7 0.984473 0.752085 0.366343
O O8 0.727966 0.681196 0.683346
O O9 0.701901 0.562461 0.558013
O O10 0.772447 0.838068 0.568862
O O11 0.500000 0.500000 0.000000
#
# Coordination Sequence:
#
# PCOD9263626 Si02
#       5
#     8   8   8   8   8
#     4  10  20  35  58  85 120 156 186 246 295 334
#     4   9  16  33  57  80 115 149 191 239 287 337
#     4   9  20  35  57  86 115 155 196 237 290 347
#     4  10  19  34  58  87 115 150 198 241 289 346
#     4  10  20  38  60  84 118 157 195 238 289 349
#
# _framework density 24.249241000000001
#
# number of rings (size 3 to 8) (size 9 to 14) (size 15 to 20)
#    0.000    2.400    2.000    1.200    0.000    0.800 
#    0.000    5.000    4.400    0.000    0.000    0.000 
#    0.000    0.000    0.000    0.000    0.000    0.000 
#
# Total GULP energy -111386.203342 kJ/mol
# GULP energy per Si atom -5569.310167 kJ/mol
# Density = 2.419405 g / cm^3
# Si number density = 24.249241 Si / 1000 Ang^3
#
#
#
# Elastic Constant Matrix: (Units=GPa)
#
#
# Indices 1 2 3 4 5 6 
#
# 1 129.7057 37.2766 30.2614 0.0000 -33.1934 0.0000
# 2 37.2766 41.9223 21.9813 0.0000 -7.8503 0.0000
# 3 30.2614 21.9813 44.9812 0.0000 -5.9754 0.0000
# 4 0.0000 0.0000 0.0000 28.7535 0.0000 -8.0677
# 5 -33.1934 -7.8503 -5.9754 0.0000 57.0969 0.0000
# 6 0.0000 0.0000 0.0000 -8.0677 0.0000 29.8915
#
#
#
# Elastic Compliance Matrix: (Units=1/GPa)
#
#
# Indices 1 2 3 4 5 6 
#
# 1 0.012299 -0.007973 -0.003624 0.000000 0.005674 0.000000
# 2 -0.007973 0.037690 -0.013165 0.000000 -0.000831 0.000000
# 3 -0.003624 -0.013165 0.031014 0.000000 -0.000671 0.000000
# 4 0.000000 0.000000 0.000000 0.037628 0.000000 0.010156
# 5 0.005674 -0.000831 -0.000671 0.000000 0.020628 0.000000
# 6 0.000000 0.000000 0.000000 0.010156 0.000000 0.036195
#
#
# Mechanical properties :
#
#
# Convention : Reuss Voigt Hill
#
# Bulk Modulus (GPa) = 31.76719 43.96088 37.86404
# Shear Modulus (GPa) = 21.23394 31.62104 26.42749
#
# Velocity S-wave (km/s) = 2.96235 3.61501 3.30483
# Velocity P-wave (km/s) = 4.98292 5.96595 5.49645
#
# Compressibility (1/GPa) = 0.03147902
#
# Stress axis : x y z
#
# Youngs Moduli (GPa) = 81.30805 26.53194 32.24366
#
# Poissons Ratio (x) = 0.21154 0.11685
# Poissons Ratio (y) = 0.64828 0.42448
# Poissons Ratio (z) = 0.29467 0.34929
#
# Static dielectric constant tensor:
#      x y z
#    x 1.948780 0.000000 -0.076460 
#    y 0.000000 2.128460 0.000000 
#    z -0.076460 0.000000 2.037800 
# 
# From -- ./inp_files/229802.got.cif
#   From: 2010.05.17/outbox.cif.g08.bks.cpg/sg15_115_cif.got.tgz:229802.got - 2010.06.03 18:47:42.
