data_PCOD9263458
_publ_section_title
;
Structure prediction by ZEFSAII (Michael W. Deem and Ramdas Pophale) SiO2 
 PCOD9263458
Probable space group: C 2/C
;
_chemical_formula_sum "Si O2"
_cell_formula_units_Z 64
_cell_length_a 11.847647
_cell_length_b 13.662216
_cell_length_c 21.511488
_cell_angle_alpha 90.000000
_cell_angle_beta 100.442917
_cell_angle_gamma 90.000000
_cell_volume 3424.284172
_symmetry_space_group_name_H-M "C 2/C"
_symmetry_group_IT_number 15
_symmetry_cell_setting 'monoclinic'
loop_
_space_group_symop_operation_xyz
x,y,z
-x,y,1/2-z
-x,-y,-z
x,-y,1/2+z
1/2+x,1/2+y,z
1/2-x,1/2+y,1/2-z
1/2-x,1/2-y,-z
1/2+x,1/2-y,1/2+z
loop_
_atom_site_type_symbol
_atom_site_label
_atom_site_fract_x
_atom_site_fract_y
_atom_site_fract_z
Si Si1 0.519294 0.349607 0.824001
Si Si2 0.935468 0.636722 0.659796
Si Si3 0.360920 0.850652 0.738138
Si Si4 0.257466 0.857409 0.919021
Si Si5 0.364130 0.999338 0.848355
Si Si6 0.746701 0.362364 0.252164
Si Si7 0.279171 0.356462 0.441188
Si Si8 0.676033 0.518157 0.153284
O O1 0.500000 0.375467 0.750000
O O2 0.490745 0.234761 0.827695
O O3 0.649002 0.360687 0.861332
O O4 0.432457 0.412054 0.855740
O O5 0.854472 0.635460 0.713319
O O6 0.854200 0.648031 0.592197
O O7 0.011639 0.542076 0.656024
O O8 0.500000 0.842935 0.750000
O O9 0.339102 0.913307 0.797485
O O10 0.304464 0.744236 0.741884
O O11 0.289565 0.914348 0.679149
O O12 0.339413 0.948493 0.911132
O O13 0.319995 0.750995 0.921420
O O14 0.209812 0.863545 0.984263
O O15 0.281342 0.087970 0.820439
O O16 0.664891 0.438697 0.208022
O O17 0.320999 0.450864 0.407627
#
# Coordination Sequence:
#
# PCOD9263458 Si02
#       8
#     8   8   8   8   8   8   8   8
#     4  11  20  34  56  83 110 141 180 222 272 328
#     4  10  19  34  57  79 108 144 181 223 266 327
#     4  11  21  33  52  81 114 143 175 225 282 329
#     4  10  22  37  57  78 106 143 185 228 265 326
#     4  11  19  32  55  82 106 140 186 228 274 319
#     4  10  20  34  51  79 116 145 176 220 275 330
#     4   9  20  40  55  75 106 144 187 222 270 323
#     4  10  20  34  55  77 106 144 183 224 269 328
#
# _framework density 18.690037
#
# number of rings (size 3 to 8) (size 9 to 14) (size 15 to 20)
#    0.000    1.750    0.000    8.625    0.000    3.500 
#    0.000    0.000    0.000    3.000    0.000    0.000 
#    0.000    0.000    0.000    0.000    0.000    0.000 
#
# Total GULP energy -178306.316096 kJ/mol
# GULP energy per Si atom -5572.072378 kJ/mol
# Density = 1.864750 g / cm^3
# Si number density = 18.690037 Si / 1000 Ang^3
#
#
#
# Elastic Constant Matrix: (Units=GPa)
#
#
# Indices 1 2 3 4 5 6 
#
# 1 71.0636 57.8949 26.0740 0.0000 -11.1370 0.0000
# 2 57.8949 151.4627 32.2474 0.0000 -15.3333 0.0000
# 3 26.0740 32.2474 77.9180 0.0000 1.1937 0.0000
# 4 0.0000 0.0000 0.0000 30.5243 0.0000 -8.5344
# 5 -11.1370 -15.3333 1.1937 0.0000 14.7423 0.0000
# 6 0.0000 0.0000 0.0000 -8.5344 0.0000 41.1258
#
#
#
# Elastic Compliance Matrix: (Units=1/GPa)
#
#
# Indices 1 2 3 4 5 6 
#
# 1 0.023065 -0.006610 -0.005151 0.000000 0.010967 0.000000
# 2 -0.006610 0.010151 -0.002077 0.000000 0.005733 0.000000
# 3 -0.005151 -0.002077 0.015529 0.000000 -0.007309 0.000000
# 4 0.000000 0.000000 0.000000 0.034779 0.000000 0.007217
# 5 0.010967 0.005733 -0.007309 0.000000 0.082673 0.000000
# 6 0.000000 0.000000 0.000000 0.007217 0.000000 0.025813
#
#
# Mechanical properties :
#
#
# Convention : Reuss Voigt Hill
#
# Bulk Modulus (GPa) = 47.45999 59.20854 53.33427
# Shear Modulus (GPa) = 22.05459 29.56033 25.80746
#
# Velocity S-wave (km/s) = 3.43887 3.98126 3.71996
# Velocity P-wave (km/s) = 6.41997 7.27199 6.85923
#
# Compressibility (1/GPa) = 0.02107038
#
# Stress axis : x y z
#
# Youngs Moduli (GPa) = 43.35505 98.50837 64.39377
#
# Poissons Ratio (x) = 0.65109 0.33169
# Poissons Ratio (y) = 0.28656 0.13377
# Poissons Ratio (z) = 0.22332 0.20464
#
# Static dielectric constant tensor:
#      x y z
#    x 1.702350 0.000000 0.013910 
#    y 0.000000 1.698290 0.000000 
#    z 0.013910 0.000000 1.668650 
# 
# From -- ./inp_files/268863.got.cif
#   From: 2010.05.17/outbox.cif.g08.bks.cpg/sg15_135_cif.got.tgz:268863.got - 2010.06.03 18:47:42.
