data_PCOD9263185
_publ_section_title
;
Structure prediction by ZEFSAII (Michael W. Deem and Ramdas Pophale) SiO2 
 PCOD9263185
Probable space group: C 2/C
;
_chemical_formula_sum "Si O2"
_cell_formula_units_Z 48
_cell_length_a 21.555906
_cell_length_b 8.106132
_cell_length_c 15.852173
_cell_angle_alpha 90.000000
_cell_angle_beta 137.813628
_cell_angle_gamma 90.000000
_cell_volume 1860.130726
_symmetry_space_group_name_H-M "C 2/C"
_symmetry_group_IT_number 15
_symmetry_cell_setting 'monoclinic'
loop_
_space_group_symop_operation_xyz
x,y,z
-x,y,1/2-z
-x,-y,-z
x,-y,1/2+z
1/2+x,1/2+y,z
1/2-x,1/2+y,1/2-z
1/2-x,1/2-y,-z
1/2+x,1/2-y,1/2+z
loop_
_atom_site_type_symbol
_atom_site_label
_atom_site_fract_x
_atom_site_fract_y
_atom_site_fract_z
Si Si1 0.000000 0.935517 0.750000
Si Si2 0.841111 0.370423 0.486820
Si Si3 0.722950 0.597402 0.723610
Si Si4 0.676218 0.551463 0.345459
Si Si5 0.563853 0.786375 0.468992
Si Si6 0.874618 0.596948 0.742833
Si Si7 0.000000 0.640842 0.250000
O O1 0.079942 0.022796 0.778159
O O2 0.049655 0.822266 0.870556
O O3 0.787874 0.296324 0.353643
O O4 0.758897 0.439452 0.464598
O O5 0.886286 0.542295 0.501134
O O6 0.926589 0.276017 0.612982
O O7 0.689606 0.464091 0.758506
O O8 0.632405 0.689384 0.599074
O O9 0.790695 0.541106 0.717101
O O10 0.667819 0.746848 0.350812
O O11 0.458523 0.832167 0.386381
O O12 0.930298 0.472111 0.737637
#
# Coordination Sequence:
#
# PCOD9263185 Si02
#       7
#     4   8   8   8   8   8   4
#     4  10  21  32  54  82 111 132 167 220 274 310
#     4   9  19  33  51  82 104 136 173 207 267 309
#     4  10  20  32  52  78 112 138 170 208 260 322
#     4   9  19  33  51  82 104 136 173 207 267 309
#     4  10  19  34  53  80 107 140 167 216 264 309
#     4  10  19  34  53  80 107 140 167 216 264 309
#     4  10  21  32  54  82 111 132 167 220 274 310
#
# _framework density 25.804639000000002
#
# number of rings (size 3 to 8) (size 9 to 14) (size 15 to 20)
#    1.000    1.333    1.667    4.500    2.333    6.667 
#    0.000    0.000    0.000    0.000    0.000   50.167 
#    0.000    0.000    0.000    0.000    0.000    0.000 
#
# Total GULP energy -133856.961627 kJ/mol
# GULP energy per Si atom -5577.373401 kJ/mol
# Density = 2.574591 g / cm^3
# Si number density = 25.804639 Si / 1000 Ang^3
#
#
#
# Elastic Constant Matrix: (Units=GPa)
#
#
# Indices 1 2 3 4 5 6 
#
# 1 113.2219 27.4468 -3.3765 0.0000 27.8981 0.0000
# 2 27.4468 51.4194 26.9576 0.0000 5.3889 0.0000
# 3 -3.3765 26.9576 186.9763 0.0000 12.9622 0.0000
# 4 0.0000 0.0000 0.0000 16.0979 0.0000 -2.9582
# 5 27.8981 5.3889 12.9622 0.0000 41.6406 0.0000
# 6 0.0000 0.0000 0.0000 -2.9582 0.0000 32.6973
#
#
#
# Elastic Compliance Matrix: (Units=1/GPa)
#
#
# Indices 1 2 3 4 5 6 
#
# 1 0.012506 -0.006753 0.001758 0.000000 -0.008052 0.000000
# 2 -0.006753 0.024820 -0.003875 0.000000 0.002518 0.000000
# 3 0.001758 -0.003875 0.006118 0.000000 -0.002580 0.000000
# 4 0.000000 0.000000 0.000000 0.063170 0.000000 0.005715
# 5 -0.008052 0.002518 -0.002580 0.000000 0.029887 0.000000
# 6 0.000000 0.000000 0.000000 0.005715 0.000000 0.031101
#
#
# Mechanical properties :
#
#
# Convention : Reuss Voigt Hill
#
# Bulk Modulus (GPa) = 38.90643 50.40816 44.65730
# Shear Modulus (GPa) = 25.78532 38.12648 31.95590
#
# Velocity S-wave (km/s) = 3.16452 3.84800 3.52288
# Velocity P-wave (km/s) = 5.33501 6.27055 5.82160
#
# Compressibility (1/GPa) = 0.02570269
#
# Stress axis : x y z
#
# Youngs Moduli (GPa) = 79.96441 40.28991 163.46326
#
# Poissons Ratio (x) = 0.27207 -0.28731
# Poissons Ratio (y) = 0.53999 0.63342
# Poissons Ratio (z) = -0.14055 0.15612
#
# Static dielectric constant tensor:
#      x y z
#    x 2.020940 0.000000 0.006970 
#    y 0.000000 2.113700 0.000000 
#    z 0.006970 0.000000 2.104930 
# 
# From -- ./inp_files/218938.got.cif
#   From: 2010.05.17/outbox.cif.g08.bks.cpg/sg15_110_cif.got.tgz:218938.got - 2010.06.03 18:47:42.
