data_PCOD9263578
_publ_section_title
;
Structure prediction by ZEFSAII (Michael W. Deem and Ramdas Pophale) SiO2 
 PCOD9263578
Probable space group: C 2/C
;
_chemical_formula_sum "Si O2"
_cell_formula_units_Z 40
_cell_length_a 9.290746
_cell_length_b 13.992965
_cell_length_c 28.030951
_cell_angle_alpha 90.000000
_cell_angle_beta 147.809186
_cell_angle_gamma 90.000000
_cell_volume 1941.395259
_symmetry_space_group_name_H-M "C 2/C"
_symmetry_group_IT_number 15
_symmetry_cell_setting 'monoclinic'
loop_
_space_group_symop_operation_xyz
x,y,z
-x,y,1/2-z
-x,-y,-z
x,-y,1/2+z
1/2+x,1/2+y,z
1/2-x,1/2+y,1/2-z
1/2-x,1/2-y,-z
1/2+x,1/2-y,1/2+z
loop_
_atom_site_type_symbol
_atom_site_label
_atom_site_fract_x
_atom_site_fract_y
_atom_site_fract_z
Si Si1 0.857908 0.177258 0.391601
Si Si2 0.913794 0.973267 0.176382
Si Si3 0.765541 0.345253 0.754026
Si Si4 0.852252 0.631354 0.756009
Si Si5 0.061523 0.611344 0.921357
O O1 0.796172 0.151840 0.319609
O O2 0.591716 0.154024 0.347861
O O3 0.936430 0.290178 0.409151
O O4 0.120367 0.120501 0.482299
O O5 0.592871 0.971763 0.092236
O O6 0.000000 0.920531 0.250000
O O7 0.050995 0.912047 0.173578
O O8 0.084063 0.070350 0.224088
O O9 0.669360 0.245131 0.748251
O O10 0.000000 0.597552 0.750000
O O11 0.999638 0.603609 0.847257
#
# Coordination Sequence:
#
# PCOD9263578 Si02
#       5
#     8   8   8   8   8
#     4   9  18  34  60  83 109 144 189 225 273 330
#     4  10  20  35  57  80 110 150 184 224 277 328
#     4  10  19  34  58  83 109 145 185 227 276 327
#     4  10  20  35  56  81 110 145 187 226 274 327
#     4   9  18  37  58  82 110 147 183 229 274 325
#
# _framework density 20.603739000000001
#
# number of rings (size 3 to 8) (size 9 to 14) (size 15 to 20)
#    0.000    2.400    2.000    0.600    2.800    0.800 
#    0.000    5.000    4.400    0.000    0.000    0.000 
#    0.000    0.000    0.000    0.000    0.000    0.000 
#
# Total GULP energy -111414.120404 kJ/mol
# GULP energy per Si atom -5570.706020 kJ/mol
# Density = 2.055684 g / cm^3
# Si number density = 20.603739 Si / 1000 Ang^3
#
#
#
# Elastic Constant Matrix: (Units=GPa)
#
#
# Indices 1 2 3 4 5 6 
#
# 1 124.1739 22.7124 29.4649 0.0001 27.7381 0.0000
# 2 22.7124 66.9461 14.7633 0.0000 16.7367 0.0000
# 3 29.4649 14.7633 92.6349 0.0003 28.9849 0.0000
# 4 0.0001 0.0000 0.0003 17.9725 -0.0001 14.0416
# 5 27.7381 16.7367 28.9849 -0.0001 19.0294 0.0000
# 6 0.0000 0.0000 0.0000 14.0416 0.0000 23.3131
#
#
#
# Elastic Compliance Matrix: (Units=1/GPa)
#
#
# Indices 1 2 3 4 5 6 
#
# 1 0.012506 0.001132 0.003548 0.000000 -0.024629 0.000000
# 2 0.001132 0.020162 0.004760 0.000000 -0.026634 0.000000
# 3 0.003548 0.004760 0.022613 -0.000001 -0.043802 0.000000
# 4 0.000000 0.000000 -0.000001 0.105095 0.000002 -0.063300
# 5 -0.024629 -0.026634 -0.043802 0.000002 0.178594 -0.000001
# 6 0.000000 0.000000 0.000000 -0.063300 -0.000001 0.081020
#
#
# Mechanical properties :
#
#
# Convention : Reuss Voigt Hill
#
# Bulk Modulus (GPa) = 13.48400 46.40402 29.94401
# Shear Modulus (GPa) = 11.74175 26.51728 19.12952
#
# Velocity S-wave (km/s) = 2.38982 3.59139 3.05035
# Velocity P-wave (km/s) = 3.76479 6.30622 5.19336
#
# Compressibility (1/GPa) = 0.07416196
#
# Stress axis : x y z
#
# Youngs Moduli (GPa) = 79.96201 49.59821 44.22165
#
# Poissons Ratio (x) = -0.05615 -0.15690
# Poissons Ratio (y) = -0.09053 -0.21050
# Poissons Ratio (z) = -0.28371 -0.23609
#
# Static dielectric constant tensor:
#      x y z
#    x 1.733260 0.000000 0.034270 
#    y 0.000000 1.807620 0.000000 
#    z 0.034270 0.000000 1.799560 
# 
# From -- ./inp_files/133184.got.cif
#   From: 2010.05.17/outbox.cif.g08.bks.cpg/sg15_67_cif.got.tgz:133184.got - 2010.06.03 18:47:42.
