data_PCOD9263109
_publ_section_title
;
Structure prediction by ZEFSAII (Michael W. Deem and Ramdas Pophale) SiO2 
 PCOD9263109
Probable space group: C 2/C
;
_chemical_formula_sum "Si O2"
_cell_formula_units_Z 64
_cell_length_a 29.836618
_cell_length_b 14.553677
_cell_length_c 6.687227
_cell_angle_alpha 90.000000
_cell_angle_beta 115.595298
_cell_angle_gamma 90.000000
_cell_volume 2618.854444
_symmetry_space_group_name_H-M "C 2/C"
_symmetry_group_IT_number 15
_symmetry_cell_setting 'monoclinic'
loop_
_space_group_symop_operation_xyz
x,y,z
-x,y,1/2-z
-x,-y,-z
x,-y,1/2+z
1/2+x,1/2+y,z
1/2-x,1/2+y,1/2-z
1/2-x,1/2-y,-z
1/2+x,1/2-y,1/2+z
loop_
_atom_site_type_symbol
_atom_site_label
_atom_site_fract_x
_atom_site_fract_y
_atom_site_fract_z
Si Si1 0.730066 0.070822 0.658457
Si Si2 0.415811 0.503864 0.899906
Si Si3 0.160360 0.967106 0.005036
Si Si4 0.355646 0.736169 0.868140
Si Si5 0.230660 0.370042 0.706398
Si Si6 0.936759 0.205260 0.456754
Si Si7 0.959476 0.790079 0.465004
Si Si8 0.326112 0.748574 0.345086
O O1 0.780079 0.041924 0.869149
O O2 0.740835 0.116533 0.464370
O O3 0.697007 0.148762 0.701108
O O4 0.709507 0.967913 0.589167
O O5 0.347882 0.488908 0.762639
O O6 0.400430 0.491829 0.120407
O O7 0.447210 0.600074 0.972410
O O8 0.441081 0.404359 0.938269
O O9 0.146430 0.863640 0.041213
O O10 0.314116 0.798096 0.888874
O O11 0.413327 0.763589 0.977509
O O12 0.340414 0.727699 0.604732
O O13 0.280868 0.323225 0.715844
O O14 0.949547 0.226270 0.710118
O O15 0.878818 0.236312 0.333037
O O16 0.982633 0.236574 0.405994
#
# Coordination Sequence:
#
# PCOD9263109 Si02
#       8
#     8   8   8   8   8   8   8   8
#     4  11  21  34  57  81 106 151 184 223 276 325
#     4  11  20  31  49  77 112 141 179 218 264 324
#     4  11  19  32  50  77 110 145 176 213 271 319
#     4   9  18  35  54  73 103 148 180 217 271 330
#     4  11  20  37  56  80 111 141 187 229 270 328
#     4  10  19  34  50  76 106 142 183 233 259 321
#     4   9  19  33  54  74 103 145 187 218 274 326
#     4  10  19  37  56  77 113 143 186 222 271 332
#
# _framework density 24.438167
#
# number of rings (size 3 to 8) (size 9 to 14) (size 15 to 20)
#    0.000    1.750    3.750    2.625    1.750    0.000 
#    2.250    1.250    0.000    0.750    0.000    0.000 
#    0.000    0.000    0.000    0.000    0.000    0.000 
#
# Total GULP energy -178563.177500 kJ/mol
# GULP energy per Si atom -5580.099297 kJ/mol
# Density = 2.438254 g / cm^3
# Si number density = 24.438167 Si / 1000 Ang^3
#
#
#
# Elastic Constant Matrix: (Units=GPa)
#
#
# Indices 1 2 3 4 5 6 
#
# 1 252.2901 73.2109 45.0897 0.0000 13.8664 0.0000
# 2 73.2109 106.4946 16.0038 0.0000 8.8017 0.0000
# 3 45.0897 16.0038 108.9625 0.0000 3.3598 0.0000
# 4 0.0000 0.0000 0.0000 37.1584 0.0000 -6.8648
# 5 13.8664 8.8017 3.3598 0.0000 43.9887 0.0000
# 6 0.0000 0.0000 0.0000 -6.8648 0.0000 33.9018
#
#
#
# Elastic Compliance Matrix: (Units=1/GPa)
#
#
# Indices 1 2 3 4 5 6 
#
# 1 0.005267 -0.003298 -0.001668 0.000000 -0.000873 0.000000
# 2 -0.003298 0.011814 -0.000330 0.000000 -0.001299 0.000000
# 3 -0.001668 -0.000330 0.009921 0.000000 -0.000166 0.000000
# 4 0.000000 0.000000 0.000000 0.027958 0.000000 0.005661
# 5 -0.000873 -0.001299 -0.000166 0.000000 0.023281 0.000000
# 6 0.000000 0.000000 0.000000 0.005661 0.000000 0.030643
#
#
# Mechanical properties :
#
#
# Convention : Reuss Voigt Hill
#
# Bulk Modulus (GPa) = 60.94017 81.81734 71.37876
# Shear Modulus (GPa) = 40.01686 45.23930 42.62808
#
# Velocity S-wave (km/s) = 4.05096 4.30719 4.18104
# Velocity P-wave (km/s) = 6.84624 7.63465 7.25117
#
# Compressibility (1/GPa) = 0.01640954
#
# Stress axis : x y z
#
# Youngs Moduli (GPa) = 189.86831 84.64286 100.79200
#
# Poissons Ratio (x) = 0.27914 0.16814
# Poissons Ratio (y) = 0.62616 0.03331
# Poissons Ratio (z) = 0.31673 0.02797
#
# Static dielectric constant tensor:
#      x y z
#    x 2.138780 0.000000 -0.101910 
#    y 0.000000 1.883120 0.000000 
#    z -0.101910 0.000000 2.172060 
# 
# From -- ./inp_files/69967.got.cif
#   From: 2010.05.17/outbox.cif.g08.bks.cpg/sg15_35_cif.got.tgz:69967.got - 2010.06.03 18:47:42.
