data_PCOD9263941
_publ_section_title
;
Structure prediction by ZEFSAII (Michael W. Deem and Ramdas Pophale) SiO2 
 PCOD9263941
Probable space group: C 2/C
;
_chemical_formula_sum "Si O2"
_cell_formula_units_Z 44
_cell_length_a 15.491734
_cell_length_b 11.517500
_cell_length_c 11.866880
_cell_angle_alpha 90.000000
_cell_angle_beta 117.172842
_cell_angle_gamma 90.000000
_cell_volume 1883.673622
_symmetry_space_group_name_H-M "C 2/C"
_symmetry_group_IT_number 15
_symmetry_cell_setting 'monoclinic'
loop_
_space_group_symop_operation_xyz
x,y,z
-x,y,1/2-z
-x,-y,-z
x,-y,1/2+z
1/2+x,1/2+y,z
1/2-x,1/2+y,1/2-z
1/2-x,1/2-y,-z
1/2+x,1/2-y,1/2+z
loop_
_atom_site_type_symbol
_atom_site_label
_atom_site_fract_x
_atom_site_fract_y
_atom_site_fract_z
Si Si1 0.762840 0.592665 0.961879
Si Si2 0.282781 0.193476 0.205966
Si Si3 0.912020 0.110256 0.351119
Si Si4 0.037098 0.118728 0.881268
Si Si5 0.168456 0.668727 0.016246
Si Si6 0.500000 0.212977 0.750000
O O1 0.766622 0.684208 0.860975
O O2 0.648133 0.585960 0.922472
O O3 0.818120 0.646985 0.104478
O O4 0.796125 0.463834 0.959707
O O5 0.200279 0.098893 0.188266
O O6 0.340205 0.209123 0.357123
O O7 0.961126 0.164496 0.491733
O O8 0.922284 0.202409 0.260643
O O9 0.967918 0.994066 0.351369
O O10 0.000000 0.186812 0.750000
O O11 0.066593 0.658713 0.887010
O O12 0.250000 0.750000 0.000000
#
# Coordination Sequence:
#
# PCOD9263941 Si02
#       6
#     8   8   8   8   8   4
#     4  10  24  44  67 101 134 183 232 279 355 418
#     4  10  23  45  69  94 140 181 227 289 351 415
#     4  10  20  37  58  94 131 165 220 278 336 405
#     4  10  19  34  64  94 129 164 218 289 339 394
#     4  12  25  42  71  97 138 184 228 288 342 414
#     4  12  24  40  60 100 130 178 230 262 340 414
#
# _framework density 23.358611
#
# number of rings (size 3 to 8) (size 9 to 14) (size 15 to 20)
#    0.000    1.455    2.727    2.182    5.091    0.000 
#    0.000    3.636    4.000    0.000    0.000    0.000 
#    0.000    0.000    0.000    0.000    0.000    0.000 
#
# Total GULP energy -122608.174320 kJ/mol
# GULP energy per Si atom -5573.098833 kJ/mol
# Density = 2.330545 g / cm^3
# Si number density = 23.358611 Si / 1000 Ang^3
#
#
#
# Elastic Constant Matrix: (Units=GPa)
#
#
# Indices 1 2 3 4 5 6 
#
# 1 36.9391 9.1573 18.4578 0.0000 12.7865 0.0000
# 2 9.1573 106.7701 36.7232 0.0000 2.4498 0.0000
# 3 18.4578 36.7232 224.7250 0.0000 -0.5999 0.0000
# 4 0.0000 0.0000 0.0000 18.2994 0.0000 -0.7118
# 5 12.7865 2.4498 -0.5999 0.0000 39.4341 0.0000
# 6 0.0000 0.0000 0.0000 -0.7118 0.0000 20.9032
#
#
#
# Elastic Compliance Matrix: (Units=1/GPa)
#
#
# Indices 1 2 3 4 5 6 
#
# 1 0.032295 -0.001705 -0.002402 0.000000 -0.010402 0.000000
# 2 -0.001705 0.010030 -0.001499 0.000000 -0.000093 0.000000
# 3 -0.002402 -0.001499 0.004895 0.000000 0.000946 0.000000
# 4 0.000000 0.000000 0.000000 0.054719 0.000000 0.001863
# 5 -0.010402 -0.000093 0.000946 0.000000 0.028752 0.000000
# 6 0.000000 0.000000 0.000000 0.001863 0.000000 0.047903
#
#
# Mechanical properties :
#
#
# Convention : Reuss Voigt Hill
#
# Bulk Modulus (GPa) = 27.77180 55.23452 41.50316
# Shear Modulus (GPa) = 24.77598 36.00040 30.38819
#
# Velocity S-wave (km/s) = 3.26034 3.93008 3.61077
# Velocity P-wave (km/s) = 5.10766 6.65520 5.93211
#
# Compressibility (1/GPa) = 0.03600775
#
# Stress axis : x y z
#
# Youngs Moduli (GPa) = 30.96437 99.70136 204.30399
#
# Poissons Ratio (x) = 0.17000 0.49068
# Poissons Ratio (y) = 0.05280 0.30630
# Poissons Ratio (z) = 0.07437 0.14948
#
# Static dielectric constant tensor:
#      x y z
#    x 2.042240 0.000000 -0.021710 
#    y 0.000000 1.858750 0.000000 
#    z -0.021710 0.000000 2.020560 
# 
# From -- ./inp_files/104324.got.cif
#   From: 2010.05.17/outbox.cif.g08.bks.cpg/sg15_53_cif.got.tgz:104324.got - 2010.06.03 18:47:42.
