data_PCOD9263797
_publ_section_title
;
Structure prediction by ZEFSAII (Michael W. Deem and Ramdas Pophale) SiO2 
 PCOD9263797
Probable space group: C 2/C
;
_chemical_formula_sum "Si O2"
_cell_formula_units_Z 60
_cell_length_a 8.238393
_cell_length_b 19.461448
_cell_length_c 19.433736
_cell_angle_alpha 90.000000
_cell_angle_beta 117.453068
_cell_angle_gamma 90.000000
_cell_volume 2764.953799
_symmetry_space_group_name_H-M "C 2/C"
_symmetry_group_IT_number 15
_symmetry_cell_setting 'monoclinic'
loop_
_space_group_symop_operation_xyz
x,y,z
-x,y,1/2-z
-x,-y,-z
x,-y,1/2+z
1/2+x,1/2+y,z
1/2-x,1/2+y,1/2-z
1/2-x,1/2-y,-z
1/2+x,1/2-y,1/2+z
loop_
_atom_site_type_symbol
_atom_site_label
_atom_site_fract_x
_atom_site_fract_y
_atom_site_fract_z
Si Si1 0.000000 0.580521 0.250000
Si Si2 0.127306 0.921487 0.648810
Si Si3 0.557786 0.800992 0.029692
Si Si4 0.216508 0.419881 0.549067
Si Si5 0.949517 0.498075 0.099319
Si Si6 0.569587 0.581481 0.660752
Si Si7 0.214498 0.376032 0.176473
Si Si8 0.607860 0.351059 0.499996
O O1 0.799315 0.614344 0.221224
O O2 0.952807 0.537680 0.172284
O O3 0.143538 0.898741 0.572234
O O4 0.913715 0.905587 0.620163
O O5 0.131973 0.002889 0.667773
O O6 0.380591 0.848898 0.990915
O O7 0.527848 0.722014 0.007333
O O8 0.657228 0.809009 0.123102
O O9 0.703908 0.832912 0.003468
O O10 0.216845 0.472745 0.483188
O O11 0.083080 0.457966 0.576440
O O12 0.045767 0.426842 0.137766
O O13 0.712912 0.626520 0.732195
O O14 0.379101 0.588071 0.665427
O O15 0.527929 0.611883 0.578607
#
# Coordination Sequence:
#
# PCOD9263797 Si02
#       8
#     4   8   8   8   8   8   8   8
#     4  12  26  34  56  90 132 154 200 256 330 360
#     4  12  24  37  59  94 125 161 199 269 316 376
#     4   9  20  42  60  86 122 173 214 254 300 387
#     4  10  22  37  65  84 124 162 212 249 318 377
#     4  10  20  37  56  92 118 160 195 256 308 380
#     4  10  19  34  60  91 117 162 205 258 311 376
#     4   9  17  35  60  82 118 161 207 244 311 371
#     4  10  22  38  62  90 127 163 216 258 308 367
#
# _framework density 21.700181000000001
#
# number of rings (size 3 to 8) (size 9 to 14) (size 15 to 20)
#    0.000    1.867    2.667    1.200    5.600    1.067 
#    0.000    5.333    0.000    0.000    0.000    5.600 
#    0.000    0.000    0.000    0.000    0.000    0.000 
#
# Total GULP energy -167299.106428 kJ/mol
# GULP energy per Si atom -5576.636881 kJ/mol
# Density = 2.165079 g / cm^3
# Si number density = 21.700181 Si / 1000 Ang^3
#
#
#
# Elastic Constant Matrix: (Units=GPa)
#
#
# Indices 1 2 3 4 5 6 
#
# 1 57.4055 18.9405 37.3638 0.0000 26.1527 0.0000
# 2 18.9405 31.0998 14.6413 0.0000 1.9989 0.0000
# 3 37.3638 14.6413 64.6774 0.0000 7.2839 0.0000
# 4 0.0000 0.0000 0.0000 8.0391 0.0000 -7.2507
# 5 26.1527 1.9989 7.2839 0.0000 39.3829 0.0000
# 6 0.0000 0.0000 0.0000 -7.2507 0.0000 11.5839
#
#
#
# Elastic Compliance Matrix: (Units=1/GPa)
#
#
# Indices 1 2 3 4 5 6 
#
# 1 0.051213 -0.018956 -0.022032 0.000000 -0.028972 0.000000
# 2 -0.018956 0.043010 0.000043 0.000000 0.010397 0.000000
# 3 -0.022032 0.000043 0.027096 0.000000 0.009617 0.000000
# 4 0.000000 0.000000 0.000000 0.285664 0.000000 0.178806
# 5 -0.028972 0.010397 0.009617 0.000000 0.042324 0.000000
# 6 0.000000 0.000000 0.000000 0.178806 0.000000 0.198248
#
#
# Mechanical properties :
#
#
# Convention : Reuss Voigt Hill
#
# Bulk Modulus (GPa) = 25.36051 32.78600 29.07326
# Shear Modulus (GPa) = 6.73322 17.28364 12.00843
#
# Velocity S-wave (km/s) = 1.76340 2.82525 2.35495
# Velocity P-wave (km/s) = 3.98224 5.07781 4.56302
#
# Compressibility (1/GPa) = 0.03943139
#
# Stress axis : x y z
#
# Youngs Moduli (GPa) = 19.52632 23.25024 36.90568
#
# Poissons Ratio (x) = 0.44072 0.81309
# Poissons Ratio (y) = 0.37013 -0.00159
# Poissons Ratio (z) = 0.43020 -0.00100
#
# Static dielectric constant tensor:
#      x y z
#    x 1.964910 0.000000 -0.021790 
#    y 0.000000 1.754360 0.000000 
#    z -0.021790 0.000000 1.801060 
# 
# From -- ./inp_files/192555.got.cif
#   From: 2010.05.17/outbox.cif.g08.bks.cpg/sg15_97_cif.got.tgz:192555.got - 2010.06.03 18:47:42.
