data_PCOD9263890
_publ_section_title
;
Structure prediction by ZEFSAII (Michael W. Deem and Ramdas Pophale) SiO2 
 PCOD9263890
Probable space group: C 2/C
;
_chemical_formula_sum "Si O2"
_cell_formula_units_Z 60
_cell_length_a 5.577802
_cell_length_b 18.232963
_cell_length_c 31.890280
_cell_angle_alpha 90.000000
_cell_angle_beta 110.052345
_cell_angle_gamma 90.000000
_cell_volume 3046.631135
_symmetry_space_group_name_H-M "C 2/C"
_symmetry_group_IT_number 15
_symmetry_cell_setting 'monoclinic'
loop_
_space_group_symop_operation_xyz
x,y,z
-x,y,1/2-z
-x,-y,-z
x,-y,1/2+z
1/2+x,1/2+y,z
1/2-x,1/2+y,1/2-z
1/2-x,1/2-y,-z
1/2+x,1/2-y,1/2+z
loop_
_atom_site_type_symbol
_atom_site_label
_atom_site_fract_x
_atom_site_fract_y
_atom_site_fract_z
Si Si1 0.160083 0.393997 0.425877
Si Si2 0.195604 0.201926 0.293439
Si Si3 0.988711 0.248059 0.958245
Si Si4 0.609421 0.192325 0.662380
Si Si5 0.377882 0.183079 0.122525
Si Si6 0.837688 0.943640 0.944502
Si Si7 0.500000 0.308648 0.250000
Si Si8 0.089451 0.604087 0.011557
O O1 0.365732 0.331441 0.449939
O O2 0.274686 0.474143 0.426912
O O3 0.987460 0.396941 0.457790
O O4 0.022830 0.364694 0.376323
O O5 0.392020 0.156599 0.333547
O O6 0.343018 0.254547 0.270370
O O7 0.000000 0.161828 0.250000
O O8 0.068464 0.258872 0.318275
O O9 0.025067 0.275134 0.913044
O O10 0.830747 0.313293 0.970519
O O11 0.250000 0.250000 0.000000
O O12 0.732778 0.254778 0.640140
O O13 0.809216 0.153309 0.706023
O O14 0.215834 0.115231 0.095507
O O15 0.629797 0.922414 0.968931
O O16 0.139441 0.938630 0.973180
#
# Coordination Sequence:
#
# PCOD9263890 Si02
#       8
#     8   8   8   8   8   8   4   8
#     4  12  22  38  62  91 122 165 216 258 313 366
#     4   9  17  34  59  89 115 148 199 253 308 372
#     4  11  22  38  62  92 124 164 216 266 304 360
#     4  10  19  34  62  91 117 155 203 261 308 376
#     4  10  20  36  58  87 120 161 200 255 306 367
#     4  11  26  41  61  86 132 171 211 255 310 368
#     4   8  18  34  56  94 120 144 192 258 324 368
#     4  11  24  44  59  86 127 178 212 259 303 367
#
# _framework density 19.693881999999999
#
# number of rings (size 3 to 8) (size 9 to 14) (size 15 to 20)
#    0.000    1.600    1.333    4.400    1.867    2.133 
#    0.000    0.000    1.467    0.000   27.733    0.000 
#    0.000    0.000    0.000    0.000    0.000    0.000 
#
# Total GULP energy -167323.476402 kJ/mol
# GULP energy per Si atom -5577.449213 kJ/mol
# Density = 1.964906 g / cm^3
# Si number density = 19.693882 Si / 1000 Ang^3
#
#
#
# Elastic Constant Matrix: (Units=GPa)
#
#
# Indices 1 2 3 4 5 6 
#
# 1 61.2858 17.8690 40.5993 0.0000 3.9131 0.0000
# 2 17.8690 109.4120 31.0750 0.0000 7.3055 0.0000
# 3 40.5993 31.0750 153.5775 0.0000 17.3817 0.0000
# 4 0.0000 0.0000 0.0000 22.2541 0.0000 14.1526
# 5 3.9131 7.3055 17.3817 0.0000 43.5567 0.0000
# 6 0.0000 0.0000 0.0000 14.1526 0.0000 36.6304
#
#
#
# Elastic Compliance Matrix: (Units=1/GPa)
#
#
# Indices 1 2 3 4 5 6 
#
# 1 0.020152 -0.001905 -0.004999 0.000000 0.000504 0.000000
# 2 -0.001905 0.009910 -0.001396 0.000000 -0.000934 0.000000
# 3 -0.004999 -0.001396 0.008418 0.000000 -0.002676 0.000000
# 4 0.000000 0.000000 0.000000 0.059573 0.000000 -0.023017
# 5 0.000504 -0.000934 -0.002676 0.000000 0.024138 0.000000
# 6 0.000000 0.000000 0.000000 -0.023017 0.000000 0.036193
#
#
# Mechanical properties :
#
#
# Convention : Reuss Voigt Hill
#
# Bulk Modulus (GPa) = 45.70338 55.92912 50.81625
# Shear Modulus (GPa) = 27.43089 36.13705 31.78397
#
# Velocity S-wave (km/s) = 3.73616 4.28826 4.02170
# Velocity P-wave (km/s) = 6.47063 7.27873 6.88654
#
# Compressibility (1/GPa) = 0.02188022
#
# Stress axis : x y z
#
# Youngs Moduli (GPa) = 49.62340 100.91130 118.79074
#
# Poissons Ratio (x) = 0.19224 0.59381
# Poissons Ratio (y) = 0.09454 0.16581
# Poissons Ratio (z) = 0.24806 0.14085
#
# Static dielectric constant tensor:
#      x y z
#    x 1.755210 0.000000 0.108510 
#    y 0.000000 1.678380 0.000000 
#    z 0.108510 0.000000 1.648550 
# 
# From -- ./inp_files/305681.got.cif
#   From: 2010.05.17/outbox.cif.g08.bks.cpg/sg15_153_cif.got.tgz:305681.got - 2010.06.03 18:47:42.
