data_PCOD9263562
_publ_section_title
;
Structure prediction by ZEFSAII (Michael W. Deem and Ramdas Pophale) SiO2 
 PCOD9263562
Probable space group: C 2/C
;
_chemical_formula_sum "Si O2"
_cell_formula_units_Z 40
_cell_length_a 24.895337
_cell_length_b 6.974510
_cell_length_c 16.839531
_cell_angle_alpha 90.000000
_cell_angle_beta 146.998790
_cell_angle_gamma 90.000000
_cell_volume 1592.518881
_symmetry_space_group_name_H-M "C 2/C"
_symmetry_group_IT_number 15
_symmetry_cell_setting 'monoclinic'
loop_
_space_group_symop_operation_xyz
x,y,z
-x,y,1/2-z
-x,-y,-z
x,-y,1/2+z
1/2+x,1/2+y,z
1/2-x,1/2+y,1/2-z
1/2-x,1/2-y,-z
1/2+x,1/2-y,1/2+z
loop_
_atom_site_type_symbol
_atom_site_label
_atom_site_fract_x
_atom_site_fract_y
_atom_site_fract_z
Si Si1 0.754114 0.836077 0.185765
Si Si2 0.493732 0.531590 0.360923
Si Si3 0.774450 0.026019 0.548167
Si Si4 0.291629 0.581554 0.908580
Si Si5 0.984498 0.277797 0.965843
O O1 0.740246 0.996192 0.098756
O O2 0.700557 0.647641 0.091090
O O3 0.869288 0.778289 0.326038
O O4 0.735993 0.867969 0.257017
O O5 0.392525 0.504451 0.188734
O O6 0.592098 0.636927 0.450795
O O7 0.464951 0.659356 0.401455
O O8 0.516860 0.318678 0.423836
O O9 0.750000 0.250000 0.500000
O O10 0.736967 0.901588 0.426071
O O11 0.000000 0.500000 0.000000
#
# Coordination Sequence:
#
# PCOD9263562 Si02
#       5
#     8   8   8   8   8
#     4   9  20  34  54  84 110 148 193 228 294 347
#     4   9  18  33  57  84 107 152 193 226 294 349
#     4   9  18  36  58  80 115 147 187 240 285 343
#     4  10  19  34  58  80 113 148 188 240 285 350
#     4   9  18  33  56  83 115 147 188 239 286 345
#
# _framework density 25.117443000000002
#
# number of rings (size 3 to 8) (size 9 to 14) (size 15 to 20)
#    0.000    2.800    0.000    1.800    2.800    0.000 
#    0.000    1.000   17.600    4.800    0.000    0.000 
#    0.000    0.000    0.000    0.000    0.000    0.000 
#
# Total GULP energy -111384.384016 kJ/mol
# GULP energy per Si atom -5569.219201 kJ/mol
# Density = 2.506027 g / cm^3
# Si number density = 25.117443 Si / 1000 Ang^3
#
#
#
# Elastic Constant Matrix: (Units=GPa)
#
#
# Indices 1 2 3 4 5 6 
#
# 1 91.3303 -3.6081 31.0633 0.0000 -42.9580 0.0000
# 2 -3.6081 68.6226 3.6484 0.0000 -10.4281 0.0000
# 3 31.0633 3.6484 84.3971 0.0000 -15.7216 0.0000
# 4 0.0000 0.0000 0.0000 39.4017 0.0000 -5.2707
# 5 -42.9580 -10.4281 -15.7216 0.0000 59.4512 0.0000
# 6 0.0000 0.0000 0.0000 -5.2707 0.0000 28.1393
#
#
#
# Elastic Compliance Matrix: (Units=1/GPa)
#
#
# Indices 1 2 3 4 5 6 
#
# 1 0.018685 0.003179 -0.004623 0.000000 0.012836 0.000000
# 2 0.003179 0.015515 -0.000953 0.000000 0.004766 0.000000
# 3 -0.004623 -0.000953 0.013609 0.000000 0.000091 0.000000
# 4 0.000000 0.000000 0.000000 0.026032 0.000000 0.004876
# 5 0.012836 0.004766 0.000091 0.000000 0.026956 0.000000
# 6 0.000000 0.000000 0.000000 0.004876 0.000000 0.036451
#
#
# Mechanical properties :
#
#
# Convention : Reuss Voigt Hill
#
# Bulk Modulus (GPa) = 23.24858 34.06189 28.65524
# Shear Modulus (GPa) = 31.97354 39.61486 35.79420
#
# Velocity S-wave (km/s) = 3.57173 3.97569 3.77911
# Velocity P-wave (km/s) = 5.12696 5.88772 5.52046
#
# Compressibility (1/GPa) = 0.04301339
#
# Stress axis : x y z
#
# Youngs Moduli (GPa) = 53.51864 64.45553 73.48306
#
# Poissons Ratio (x) = -0.20490 0.33975
# Poissons Ratio (y) = -0.17013 0.07002
# Poissons Ratio (z) = 0.24744 0.06141
#
# Static dielectric constant tensor:
#      x y z
#    x 2.227260 0.000000 -0.071770 
#    y 0.000000 2.011780 0.000000 
#    z -0.071770 0.000000 2.053100 
# 
# From -- ./inp_files/224300.got.cif
#   From: 2010.05.17/outbox.cif.g08.bks.cpg/sg15_113_cif.got.tgz:224300.got - 2010.06.03 18:47:42.
