data_PCOD9263939
_publ_section_title
;
Structure prediction by ZEFSAII (Michael W. Deem and Ramdas Pophale) SiO2 
 PCOD9263939
Probable space group: C 2/C
;
_chemical_formula_sum "Si O2"
_cell_formula_units_Z 40
_cell_length_a 11.148373
_cell_length_b 15.484136
_cell_length_c 17.290556
_cell_angle_alpha 90.000000
_cell_angle_beta 144.040389
_cell_angle_gamma 90.000000
_cell_volume 1752.687258
_symmetry_space_group_name_H-M "C 2/C"
_symmetry_group_IT_number 15
_symmetry_cell_setting 'monoclinic'
loop_
_space_group_symop_operation_xyz
x,y,z
-x,y,1/2-z
-x,-y,-z
x,-y,1/2+z
1/2+x,1/2+y,z
1/2-x,1/2+y,1/2-z
1/2-x,1/2-y,-z
1/2+x,1/2-y,1/2+z
loop_
_atom_site_type_symbol
_atom_site_label
_atom_site_fract_x
_atom_site_fract_y
_atom_site_fract_z
Si Si1 0.423022 0.903707 0.452154
Si Si2 0.304181 0.288583 0.700106
Si Si3 0.765474 0.104555 0.326388
Si Si4 0.180758 0.409472 0.280436
Si Si5 0.792222 0.350082 0.536569
O O1 0.607542 0.840142 0.568693
O O2 0.372290 0.892408 0.336820
O O3 0.255846 0.891599 0.433250
O O4 0.500000 0.000000 0.500000
O O5 0.500000 0.304890 0.750000
O O6 0.361528 0.329594 0.814241
O O7 0.249745 0.187533 0.663145
O O8 0.820763 0.124780 0.443754
O O9 0.524824 0.123819 0.181603
O O10 0.797493 0.001577 0.335343
O O11 0.000000 0.427148 0.250000
O O12 0.750000 0.250000 0.500000
#
# Coordination Sequence:
#
# PCOD9263939 Si02
#       5
#     8   8   8   8   8
#     4  11  20  40  65  88 125 167 203 252 324 368
#     4  10  23  37  62  96 122 163 214 253 306 380
#     4  10  19  40  60  90 127 162 202 251 317 360
#     4  11  20  38  65  86 122 167 200 253 313 375
#     4  10  19  34  64  93 116 157 210 252 294 371
#
# _framework density 22.822099000000001
#
# number of rings (size 3 to 8) (size 9 to 14) (size 15 to 20)
#    0.000    1.600    6.000    1.200    0.000    3.200 
#    0.000    4.000    0.000    8.400    0.000    0.000 
#    0.000    0.000    0.000    0.000    0.000    0.000 
#
# Total GULP energy -111436.588980 kJ/mol
# GULP energy per Si atom -5571.829449 kJ/mol
# Density = 2.277015 g / cm^3
# Si number density = 22.822099 Si / 1000 Ang^3
#
#
#
# Elastic Constant Matrix: (Units=GPa)
#
#
# Indices 1 2 3 4 5 6 
#
# 1 150.1215 31.0455 44.4250 0.0000 -42.9748 0.0000
# 2 31.0455 182.7874 11.1239 0.0000 -4.4075 0.0000
# 3 44.4250 11.1239 49.8102 0.0000 -29.6887 0.0001
# 4 0.0000 0.0000 0.0000 29.2002 0.0000 -10.1225
# 5 -42.9748 -4.4075 -29.6887 0.0000 37.8450 0.0001
# 6 0.0000 0.0000 0.0001 -10.1225 0.0001 38.1567
#
#
#
# Elastic Compliance Matrix: (Units=1/GPa)
#
#
# Indices 1 2 3 4 5 6 
#
# 1 0.010630 -0.001355 -0.003902 0.000000 0.008852 0.000000
# 2 -0.001355 0.005726 -0.001108 0.000000 -0.001741 0.000000
# 3 -0.003902 -0.001108 0.039604 0.000000 0.026508 0.000000
# 4 0.000000 0.000000 0.000000 0.037715 0.000000 0.010005
# 5 0.008852 -0.001741 0.026508 0.000000 0.057068 0.000000
# 6 0.000000 0.000000 0.000000 0.010005 0.000000 0.028862
#
#
# Mechanical properties :
#
#
# Convention : Reuss Voigt Hill
#
# Bulk Modulus (GPa) = 23.13185 61.76755 42.44970
# Shear Modulus (GPa) = 24.18432 40.78203 32.48318
#
# Velocity S-wave (km/s) = 3.25882 4.23182 3.77679
# Velocity P-wave (km/s) = 4.93129 7.14152 6.13673
#
# Compressibility (1/GPa) = 0.04323043
#
# Stress axis : x y z
#
# Youngs Moduli (GPa) = 94.07115 174.63065 25.25001
#
# Poissons Ratio (x) = 0.23655 0.09853
# Poissons Ratio (y) = 0.12743 0.02798
# Poissons Ratio (z) = 0.36709 0.19353
#
# Static dielectric constant tensor:
#      x y z
#    x 1.879470 0.000000 0.057540 
#    y 0.000000 2.659960 0.000000 
#    z 0.057540 0.000000 1.774380 
# 
# From -- ./inp_files/85634.got.cif
#   From: 2010.05.17/outbox.cif.g08.bks.cpg/sg15_43_cif.got.tgz:85634.got - 2010.06.03 18:47:42.
