data_PCOD9263263
_publ_section_title
;
Structure prediction by ZEFSAII (Michael W. Deem and Ramdas Pophale) SiO2 
 PCOD9263263
Probable space group: C 2/C
;
_chemical_formula_sum "Si O2"
_cell_formula_units_Z 44
_cell_length_a 24.571371
_cell_length_b 12.235120
_cell_length_c 11.267473
_cell_angle_alpha 90.000000
_cell_angle_beta 43.992576
_cell_angle_gamma 90.000000
_cell_volume 2352.757367
_symmetry_space_group_name_H-M "C 2/C"
_symmetry_group_IT_number 15
_symmetry_cell_setting 'monoclinic'
loop_
_space_group_symop_operation_xyz
x,y,z
-x,y,1/2-z
-x,-y,-z
x,-y,1/2+z
1/2+x,1/2+y,z
1/2-x,1/2+y,1/2-z
1/2-x,1/2-y,-z
1/2+x,1/2-y,1/2+z
loop_
_atom_site_type_symbol
_atom_site_label
_atom_site_fract_x
_atom_site_fract_y
_atom_site_fract_z
Si Si1 0.607995 0.092699 0.426204
Si Si2 0.273127 0.909053 0.550985
Si Si3 0.929404 0.347281 0.953008
Si Si4 0.692014 0.151966 0.059164
Si Si5 0.620947 0.730072 0.245061
Si Si6 0.000000 0.750219 0.750000
O O1 0.687535 0.093897 0.380601
O O2 0.628618 0.133177 0.263063
O O3 0.547215 0.172416 0.585861
O O4 0.574800 0.970080 0.487840
O O5 0.333858 0.838797 0.374675
O O6 0.189518 0.852145 0.672834
O O7 0.267820 0.033504 0.516708
O O8 0.851643 0.327751 0.996493
O O9 0.000000 0.338555 0.750000
O O10 0.928862 0.264368 0.062677
O O11 0.750000 0.250000 0.000000
O O12 0.564533 0.688809 0.228178
#
# Coordination Sequence:
#
# PCOD9263263 Si02
#       6
#     8   8   8   8   8   4
#     4  10  19  34  54  86 112 137 185 231 282 329
#     4   9  20  35  56  80 112 148 179 232 276 322
#     4  11  21  33  59  84 116 145 173 240 291 319
#     4  11  22  36  57  85 111 148 188 229 277 332
#     4  10  19  36  55  83 114 143 186 224 277 336
#     4  10  20  32  58  80 112 148 178 232 278 330
#
# _framework density 18.701460000000001
#
# number of rings (size 3 to 8) (size 9 to 14) (size 15 to 20)
#    0.000    1.818    2.727    2.182    0.000    1.455 
#    0.000    0.000    2.000    2.182    0.000    0.000 
#    0.000    0.000    0.000    0.000    0.000    0.000 
#
# Total GULP energy -122836.883390 kJ/mol
# GULP energy per Si atom -5583.494700 kJ/mol
# Density = 1.865890 g / cm^3
# Si number density = 18.701460 Si / 1000 Ang^3
#
#
#
# Elastic Constant Matrix: (Units=GPa)
#
#
# Indices 1 2 3 4 5 6 
#
# 1 85.0173 27.0677 26.0688 0.0000 -4.6121 0.0000
# 2 27.0677 49.7691 5.6761 0.0000 -6.6701 0.0000
# 3 26.0688 5.6761 74.8794 0.0000 8.9975 0.0000
# 4 0.0000 0.0000 0.0000 16.5427 0.0000 -1.0420
# 5 -4.6121 -6.6701 8.9975 0.0000 33.3468 0.0000
# 6 0.0000 0.0000 0.0000 -1.0420 0.0000 21.9834
#
#
#
# Elastic Compliance Matrix: (Units=1/GPa)
#
#
# Indices 1 2 3 4 5 6 
#
# 1 0.015958 -0.007810 -0.005210 0.000000 0.002051 0.000000
# 2 -0.007810 0.024802 0.000385 0.000000 0.003777 0.000000
# 3 -0.005210 0.000385 0.015727 0.000000 -0.004887 0.000000
# 4 0.000000 0.000000 0.000000 0.060631 0.000000 0.002874
# 5 0.002051 0.003777 -0.004887 0.000000 0.032346 0.000000
# 6 0.000000 0.000000 0.000000 0.002874 0.000000 0.045625
#
#
# Mechanical properties :
#
#
# Convention : Reuss Voigt Hill
#
# Bulk Modulus (GPa) = 32.03353 36.36566 34.19959
# Shear Modulus (GPa) = 21.66724 24.43146 23.04935
#
# Velocity S-wave (km/s) = 3.40749 3.61833 3.51449
# Velocity P-wave (km/s) = 5.71379 6.07815 5.89879
#
# Compressibility (1/GPa) = 0.03121729
#
# Stress axis : x y z
#
# Youngs Moduli (GPa) = 62.66643 40.31853 63.58638
#
# Poissons Ratio (x) = 0.31488 0.33128
# Poissons Ratio (y) = 0.48941 -0.02448
# Poissons Ratio (z) = 0.32649 -0.01552
#
# Static dielectric constant tensor:
#      x y z
#    x 1.680900 0.000000 0.000730 
#    y 0.000000 1.604610 0.000000 
#    z 0.000730 0.000000 1.641890 
# 
# From -- ./inp_files/94993.got.cif
#   From: 2010.05.17/outbox.cif.g08.bks.cpg/sg15_48_cif.got.tgz:94993.got - 2010.06.03 18:47:42.
