data_PCOD9263568
_publ_section_title
;
Structure prediction by ZEFSAII (Michael W. Deem and Ramdas Pophale) SiO2 
 PCOD9263568
Probable space group: C 2/C
;
_chemical_formula_sum "Si O2"
_cell_formula_units_Z 56
_cell_length_a 20.874542
_cell_length_b 16.994398
_cell_length_c 12.289020
_cell_angle_alpha 90.000000
_cell_angle_beta 145.119296
_cell_angle_gamma 90.000000
_cell_volume 2493.084656
_symmetry_space_group_name_H-M "C 2/C"
_symmetry_group_IT_number 15
_symmetry_cell_setting 'monoclinic'
loop_
_space_group_symop_operation_xyz
x,y,z
-x,y,1/2-z
-x,-y,-z
x,-y,1/2+z
1/2+x,1/2+y,z
1/2-x,1/2+y,1/2-z
1/2-x,1/2-y,-z
1/2+x,1/2-y,1/2+z
loop_
_atom_site_type_symbol
_atom_site_label
_atom_site_fract_x
_atom_site_fract_y
_atom_site_fract_z
Si Si1 0.881687 0.710763 0.138114
Si Si2 0.957322 0.856829 0.909345
Si Si3 0.115799 0.024221 0.378480
Si Si4 0.783676 0.644847 0.658614
Si Si5 0.528214 0.178784 0.001856
Si Si6 0.280017 0.177370 0.393746
Si Si7 0.326913 0.374243 0.147835
O O1 0.897706 0.687205 0.286646
O O2 0.853365 0.803255 0.100664
O O3 0.000000 0.698141 0.250000
O O4 0.783557 0.659819 0.948593
O O5 0.935224 0.912505 0.777065
O O6 0.840148 0.856588 0.812222
O O7 0.981399 0.766629 0.908628
O O8 0.064758 0.882542 0.126039
O O9 0.196604 0.076034 0.567013
O O10 0.000000 0.981840 0.250000
O O11 0.192774 0.957937 0.432877
O O12 0.735070 0.727998 0.632853
O O13 0.787492 0.653746 0.531294
O O14 0.913925 0.632327 0.868605
O O15 0.611186 0.152495 0.021896
#
# Coordination Sequence:
#
# PCOD9263568 Si02
#       7
#     8   8   8   8   8   8   8
#     4  10  23  41  59  79 103 140 190 233 267 311
#     4   9  20  34  54  82 110 142 179 223 271 315
#     4  11  21  34  55  84 113 139 173 219 275 330
#     4   9  19  32  52  83 117 145 174 216 270 327
#     4  10  19  34  58  81 109 147 184 223 266 317
#     4   9  17  32  54  84 114 143 180 219 266 324
#     4  10  22  39  58  78 105 142 183 225 268 317
#
# _framework density 22.462133999999999
#
# number of rings (size 3 to 8) (size 9 to 14) (size 15 to 20)
#    0.000    2.286    0.000    3.000    0.000   12.571 
#    0.000    3.571    0.000    0.000    0.000    0.000 
#    0.000    0.000    0.000    0.000    0.000    0.000 
#
# Total GULP energy -156343.128750 kJ/mol
# GULP energy per Si atom -5583.683170 kJ/mol
# Density = 2.241101 g / cm^3
# Si number density = 22.462134 Si / 1000 Ang^3
#
#
#
# Elastic Constant Matrix: (Units=GPa)
#
#
# Indices 1 2 3 4 5 6 
#
# 1 50.1338 -11.0800 11.6488 0.0000 19.4349 0.0000
# 2 -11.0800 20.1546 23.7157 0.0000 -1.8746 0.0000
# 3 11.6488 23.7157 127.5732 0.0000 20.0342 0.0000
# 4 0.0000 0.0000 0.0000 15.8380 0.0000 2.9948
# 5 19.4349 -1.8746 20.0342 0.0000 38.9012 0.0000
# 6 0.0000 0.0000 0.0000 2.9948 0.0000 8.9661
#
#
#
# Elastic Compliance Matrix: (Units=1/GPa)
#
#
# Indices 1 2 3 4 5 6 
#
# 1 0.030301 0.021374 -0.004923 0.000000 -0.011573 0.000000
# 2 0.021374 0.082331 -0.017629 0.000000 0.002368 0.000000
# 3 -0.004923 -0.017629 0.012308 0.000000 -0.004729 0.000000
# 4 0.000000 0.000000 0.000000 0.067396 0.000000 -0.022511
# 5 -0.011573 0.002368 -0.004729 0.000000 0.034037 0.000000
# 6 0.000000 0.000000 0.000000 -0.022511 0.000000 0.119050
#
#
# Mechanical properties :
#
#
# Convention : Reuss Voigt Hill
#
# Bulk Modulus (GPa) = 8.15767 27.38118 17.76943
# Shear Modulus (GPa) = 12.86541 24.31285 18.58913
#
# Velocity S-wave (km/s) = 2.39584 3.29354 2.87988
# Velocity P-wave (km/s) = 3.36051 5.16523 4.35733
#
# Compressibility (1/GPa) = 0.12258396
#
# Stress axis : x y z
#
# Youngs Moduli (GPa) = 33.00269 12.14616 81.24877
#
# Poissons Ratio (x) = -0.25961 0.39997
# Poissons Ratio (y) = -0.70540 1.43231
# Poissons Ratio (z) = 0.16246 0.21412
#
# Static dielectric constant tensor:
#      x y z
#    x 1.885440 0.000000 0.017250 
#    y 0.000000 1.796070 0.000000 
#    z 0.017250 0.000000 1.877450 
# 
# From -- ./inp_files/169174.got.cif
#   From: 2010.05.17/outbox.cif.g08.bks.cpg/sg15_85_cif.got.tgz:169174.got - 2010.06.03 18:47:42.
