data_PCOD9263337
_publ_section_title
;
Structure prediction by ZEFSAII (Michael W. Deem and Ramdas Pophale) SiO2 
 PCOD9263337
Probable space group: C 2/C
;
_chemical_formula_sum "Si O2"
_cell_formula_units_Z 40
_cell_length_a 12.378842
_cell_length_b 18.383574
_cell_length_c 8.005108
_cell_angle_alpha 90.000000
_cell_angle_beta 59.207274
_cell_angle_gamma 90.000000
_cell_volume 1564.886752
_symmetry_space_group_name_H-M "C 2/C"
_symmetry_group_IT_number 15
_symmetry_cell_setting 'monoclinic'
loop_
_space_group_symop_operation_xyz
x,y,z
-x,y,1/2-z
-x,-y,-z
x,-y,1/2+z
1/2+x,1/2+y,z
1/2-x,1/2+y,1/2-z
1/2-x,1/2-y,-z
1/2+x,1/2-y,1/2+z
loop_
_atom_site_type_symbol
_atom_site_label
_atom_site_fract_x
_atom_site_fract_y
_atom_site_fract_z
Si Si1 0.089731 0.782091 0.365034
Si Si2 0.500000 0.224556 0.750000
Si Si3 0.912540 0.096238 0.055376
Si Si4 0.332417 0.459045 0.963378
Si Si5 0.000000 0.644678 0.250000
Si Si6 0.828508 0.621633 0.664348
O O1 0.093303 0.771682 0.562919
O O2 0.085059 0.702818 0.285851
O O3 0.208155 0.828770 0.216506
O O4 0.954305 0.824394 0.458102
O O5 0.419272 0.175140 0.693446
O O6 0.826517 0.079401 0.287078
O O7 0.862398 0.045078 0.945889
O O8 0.045846 0.069746 0.029558
O O9 0.216459 0.439979 0.173025
O O10 0.909396 0.599200 0.440565
#
# Coordination Sequence:
#
# PCOD9263337 Si02
#       6
#     8   4   8   8   4   8
#     4  10  19  34  55  85 119 147 187 245 302 348
#     4  10  20  34  56  84 114 152 198 236 292 368
#     4   9  18  32  55  85 112 141 185 238 291 352
#     4   9  18  34  55  82 112 145 186 236 295 341
#     4  10  22  34  54  88 120 154 194 236 296 366
#     4  10  20  36  55  80 117 156 194 241 291 346
#
# _framework density 25.560956999999998
#
# number of rings (size 3 to 8) (size 9 to 14) (size 15 to 20)
#    0.000    2.400    0.000    3.600    0.000    6.400 
#    0.000    4.000    0.000    8.400    0.000    0.000 
#    0.000    0.000    0.000    0.000    0.000    0.000 
#
# Total GULP energy -111783.410923 kJ/mol
# GULP energy per Si atom -5589.170546 kJ/mol
# Density = 2.550278 g / cm^3
# Si number density = 25.560957 Si / 1000 Ang^3
#
#
#
# Elastic Constant Matrix: (Units=GPa)
#
#
# Indices 1 2 3 4 5 6 
#
# 1 60.8210 5.7360 16.7159 0.0000 2.0362 0.0000
# 2 5.7360 58.8663 23.2022 0.0000 -5.8307 0.0000
# 3 16.7159 23.2022 216.2922 0.0000 -3.4872 0.0000
# 4 0.0000 0.0000 0.0000 34.7611 0.0000 3.1245
# 5 2.0362 -5.8307 -3.4872 0.0000 26.2794 0.0000
# 6 0.0000 0.0000 0.0000 3.1245 0.0000 27.9133
#
#
#
# Elastic Compliance Matrix: (Units=1/GPa)
#
#
# Indices 1 2 3 4 5 6 
#
# 1 0.016957 -0.001358 -0.001193 0.000000 -0.001773 0.000000
# 2 -0.001358 0.018211 -0.001786 0.000000 0.003909 0.000000
# 3 -0.001193 -0.001786 0.004913 0.000000 0.000348 0.000000
# 4 0.000000 0.000000 0.000000 0.029060 0.000000 -0.003253
# 5 -0.001773 0.003909 0.000348 0.000000 0.039103 0.000000
# 6 0.000000 0.000000 0.000000 -0.003253 0.000000 0.036189
#
#
# Mechanical properties :
#
#
# Convention : Reuss Voigt Hill
#
# Bulk Modulus (GPa) = 31.83951 47.47639 39.65795
# Shear Modulus (GPa) = 30.56681 37.14580 33.85631
#
# Velocity S-wave (km/s) = 3.46184 3.81625 3.64336
# Velocity P-wave (km/s) = 5.33503 6.16705 5.76606
#
# Compressibility (1/GPa) = 0.03140752
#
# Stress axis : x y z
#
# Youngs Moduli (GPa) = 58.97229 54.91220 203.55116
#
# Poissons Ratio (x) = 0.07455 0.24293
# Poissons Ratio (y) = 0.08006 0.36346
# Poissons Ratio (z) = 0.07038 0.09805
#
# Static dielectric constant tensor:
#      x y z
#    x 2.041860 0.000000 0.048860 
#    y 0.000000 2.073550 0.000000 
#    z 0.048860 0.000000 2.101080 
# 
# From -- ./inp_files/41983.got.cif
#   From: 2010.05.17/outbox.cif.g08.bks.cpg/sg15_21_cif.got.tgz:41983.got - 2010.06.03 18:47:42.
