data_PCOD9263169
_publ_section_title
;
Structure prediction by ZEFSAII (Michael W. Deem and Ramdas Pophale) SiO2 
 PCOD9263169
Probable space group: C 2/C
;
_chemical_formula_sum "Si O2"
_cell_formula_units_Z 56
_cell_length_a 9.819096
_cell_length_b 22.944129
_cell_length_c 10.614269
_cell_angle_alpha 90.000000
_cell_angle_beta 97.932716
_cell_angle_gamma 90.000000
_cell_volume 2368.412356
_symmetry_space_group_name_H-M "C 2/C"
_symmetry_group_IT_number 15
_symmetry_cell_setting 'monoclinic'
loop_
_space_group_symop_operation_xyz
x,y,z
-x,y,1/2-z
-x,-y,-z
x,-y,1/2+z
1/2+x,1/2+y,z
1/2-x,1/2+y,1/2-z
1/2-x,1/2-y,-z
1/2+x,1/2-y,1/2+z
loop_
_atom_site_type_symbol
_atom_site_label
_atom_site_fract_x
_atom_site_fract_y
_atom_site_fract_z
Si Si1 0.663230 0.388748 0.270753
Si Si2 0.560664 0.572001 0.389487
Si Si3 0.718007 0.834269 0.685155
Si Si4 0.996513 0.569544 0.385688
Si Si5 0.911270 0.217517 0.870700
Si Si6 0.854900 0.161428 0.469316
Si Si7 0.225697 0.517763 0.555034
O O1 0.500000 0.402635 0.250000
O O2 0.671570 0.343941 0.155791
O O3 0.701455 0.348839 0.397474
O O4 0.743292 0.448274 0.309807
O O5 0.500000 0.549307 0.250000
O O6 0.664724 0.624251 0.359663
O O7 0.439877 0.602167 0.450974
O O8 0.641578 0.519568 0.465898
O O9 0.575306 0.868456 0.643162
O O10 0.692163 0.770482 0.628141
O O11 0.758935 0.827096 0.837909
O O12 0.888247 0.532525 0.450532
O O13 0.000000 0.540511 0.250000
O O14 0.149730 0.564440 0.457024
O O15 0.000000 0.225385 0.750000
O O16 0.026006 0.209988 0.993445
#
# Coordination Sequence:
#
# PCOD9263169 Si02
#       7
#     8   8   8   8   8   8   8
#     4   9  19  33  51  77 102 129 167 209 254 299
#     4   9  19  34  53  76 101 134 170 206 252 303
#     4  10  19  34  53  73 101 134 172 210 248 302
#     4  10  21  33  50  75 100 135 171 204 253 306
#     4   9  20  33  50  76 100 129 171 211 251 297
#     4   9  19  34  51  74 101 133 171 208 253 299
#     4  10  20  34  51  75 106 131 166 213 250 299
#
# _framework density 23.644532000000002
#
# number of rings (size 3 to 8) (size 9 to 14) (size 15 to 20)
#    0.000    2.857    0.000    1.714    0.000    6.857 
#    0.000    0.000    0.000    2.571    0.000    0.000 
#    0.000    0.000    0.000    0.000    0.000    0.000 
#
# Total GULP energy -156113.234917 kJ/mol
# GULP energy per Si atom -5575.472676 kJ/mol
# Density = 2.359072 g / cm^3
# Si number density = 23.644532 Si / 1000 Ang^3
#
#
#
# Elastic Constant Matrix: (Units=GPa)
#
#
# Indices 1 2 3 4 5 6 
#
# 1 62.5186 27.0876 15.3560 0.0000 24.2126 0.0000
# 2 27.0876 103.2981 31.6893 0.0000 35.5613 0.0000
# 3 15.3560 31.6893 118.9633 0.0000 35.4724 0.0000
# 4 0.0000 0.0000 0.0000 15.6619 0.0000 6.5709
# 5 24.2126 35.5613 35.4724 0.0000 35.3521 0.0000
# 6 0.0000 0.0000 0.0000 6.5709 0.0000 17.1553
#
#
#
# Elastic Compliance Matrix: (Units=1/GPa)
#
#
# Indices 1 2 3 4 5 6 
#
# 1 0.022273 -0.000762 0.002352 0.000000 -0.016848 0.000000
# 2 -0.000762 0.014877 0.000631 0.000000 -0.015076 0.000000
# 3 0.002352 0.000631 0.012277 0.000000 -0.014564 0.000000
# 4 0.000000 0.000000 0.000000 0.076074 0.000000 -0.029138
# 5 -0.016848 -0.015076 -0.014564 0.000000 0.069605 0.000000
# 6 0.000000 0.000000 0.000000 -0.029138 0.000000 0.069452
#
#
# Mechanical properties :
#
#
# Convention : Reuss Voigt Hill
#
# Bulk Modulus (GPa) = 18.56400 48.11620 33.34010
# Shear Modulus (GPa) = 17.98093 27.67701 22.82897
#
# Velocity S-wave (km/s) = 2.76065 3.42504 3.11063
# Velocity P-wave (km/s) = 4.24617 6.00293 5.19928
#
# Compressibility (1/GPa) = 0.05386771
#
# Stress axis : x y z
#
# Youngs Moduli (GPa) = 44.89824 67.21717 81.45279
#
# Poissons Ratio (x) = 0.05122 -0.19154
# Poissons Ratio (y) = 0.03421 -0.05138
# Poissons Ratio (z) = -0.10558 -0.04240
#
# Static dielectric constant tensor:
#      x y z
#    x 1.960600 0.000000 -0.021300 
#    y 0.000000 1.928930 0.000000 
#    z -0.021300 0.000000 1.941400 
# 
# From -- ./inp_files/90934.got.cif
#   From: 2010.05.17/outbox.cif.g08.bks.cpg/sg15_46_cif.got.tgz:90934.got - 2010.06.03 18:47:42.
