data_PCOD9263915
_publ_section_title
;
Structure prediction by ZEFSAII (Michael W. Deem and Ramdas Pophale) SiO2 
 PCOD9263915
Probable space group: C 2/C
;
_chemical_formula_sum "Si O2"
_cell_formula_units_Z 52
_cell_length_a 28.031664
_cell_length_b 9.241280
_cell_length_c 14.598451
_cell_angle_alpha 90.000000
_cell_angle_beta 135.294714
_cell_angle_gamma 90.000000
_cell_volume 2660.280083
_symmetry_space_group_name_H-M "C 2/C"
_symmetry_group_IT_number 15
_symmetry_cell_setting 'monoclinic'
loop_
_space_group_symop_operation_xyz
x,y,z
-x,y,1/2-z
-x,-y,-z
x,-y,1/2+z
1/2+x,1/2+y,z
1/2-x,1/2+y,1/2-z
1/2-x,1/2-y,-z
1/2+x,1/2-y,1/2+z
loop_
_atom_site_type_symbol
_atom_site_label
_atom_site_fract_x
_atom_site_fract_y
_atom_site_fract_z
Si Si1 0.626620 0.266524 0.096914
Si Si2 0.161029 0.201932 0.332356
Si Si3 0.855245 0.975335 0.020702
Si Si4 0.247098 0.727417 0.603687
Si Si5 0.500000 0.481305 0.250000
Si Si6 0.015505 0.140954 0.081442
Si Si7 0.301123 0.096160 0.459382
O O1 0.678556 0.270684 0.251229
O O2 0.651815 0.148814 0.058657
O O3 0.635579 0.415542 0.051462
O O4 0.548373 0.253691 0.019473
O O5 0.227875 0.177406 0.362716
O O6 0.166756 0.348244 0.400482
O O7 0.092436 0.195742 0.179599
O O8 0.161118 0.072882 0.410547
O O9 0.928781 0.901606 0.138370
O O10 0.798086 0.859467 0.921726
O O11 0.250000 0.750000 0.500000
O O12 0.213185 0.571965 0.571310
O O13 0.511214 0.586310 0.179819
O O14 0.000000 0.000000 0.000000
#
# Coordination Sequence:
#
# PCOD9263915 Si02
#       7
#     8   8   8   8   4   8   8
#     4  10  22  37  58  87 116 151 197 245 298 348
#     4   9  18  36  60  85 110 152 196 240 297 342
#     4   9  18  36  57  83 113 145 193 244 286 355
#     4  12  22  34  57  84 115 152 196 242 297 355
#     4   8  18  34  54  84 112 142 194 242 290 328
#     4  10  19  34  63  89 116 151 205 250 285 353
#     4  10  20  36  57  87 118 152 192 246 301 357
#
# _framework density 19.546813
#
# number of rings (size 3 to 8) (size 9 to 14) (size 15 to 20)
#    0.000    2.154    1.538    2.769    2.154    1.231 
#    0.000    1.538    0.000    0.923    0.000    0.000 
#    0.000    0.000    0.000    0.000    0.000    0.000 
#
# Total GULP energy -145029.575579 kJ/mol
# GULP energy per Si atom -5578.060599 kJ/mol
# Density = 1.950232 g / cm^3
# Si number density = 19.546813 Si / 1000 Ang^3
#
#
#
# Elastic Constant Matrix: (Units=GPa)
#
#
# Indices 1 2 3 4 5 6 
#
# 1 38.5579 -7.4203 16.4279 0.0000 21.4085 0.0000
# 2 -7.4203 41.2537 15.7830 0.0000 12.6047 0.0000
# 3 16.4279 15.7830 130.1927 0.0000 35.3053 0.0000
# 4 0.0000 0.0000 0.0000 7.7403 0.0000 -1.1718
# 5 21.4085 12.6047 35.3053 0.0000 40.7134 0.0000
# 6 0.0000 0.0000 0.0000 -1.1718 0.0000 11.1790
#
#
#
# Elastic Compliance Matrix: (Units=1/GPa)
#
#
# Indices 1 2 3 4 5 6 
#
# 1 0.045422 0.017065 0.000143 0.000000 -0.029292 0.000000
# 2 0.017065 0.033355 -0.001259 0.000000 -0.018208 0.000000
# 3 0.000143 -0.001259 0.010107 0.000000 -0.008450 0.000000
# 4 0.000000 0.000000 0.000000 0.131278 0.000000 0.013761
# 5 -0.029292 -0.018208 -0.008450 0.000000 0.052929 0.000000
# 6 0.000000 0.000000 0.000000 0.013761 0.000000 0.090896
#
#
# Mechanical properties :
#
#
# Convention : Reuss Voigt Hill
#
# Bulk Modulus (GPa) = 8.27945 28.84284 18.56115
# Shear Modulus (GPa) = 13.42827 24.27410 18.85119
#
# Velocity S-wave (km/s) = 2.62387 3.52780 3.10887
# Velocity P-wave (km/s) = 3.66395 5.60194 4.73319
#
# Compressibility (1/GPa) = 0.12078096
#
# Stress axis : x y z
#
# Youngs Moduli (GPa) = 22.01591 29.98074 98.94224
#
# Poissons Ratio (x) = -0.51162 -0.01416
# Poissons Ratio (y) = -0.37570 0.12460
# Poissons Ratio (z) = -0.00315 0.03775
#
# Static dielectric constant tensor:
#      x y z
#    x 1.765350 0.000000 0.032140 
#    y 0.000000 1.675160 0.000000 
#    z 0.032140 0.000000 1.726700 
# 
# From -- ./inp_files/181246.got.cif
#   From: 2010.05.17/outbox.cif.g08.bks.cpg/sg15_91_cif.got.tgz:181246.got - 2010.06.03 18:47:42.
