data_PCOD9263865
_publ_section_title
;
Structure prediction by ZEFSAII (Michael W. Deem and Ramdas Pophale) SiO2 
 PCOD9263865
Probable space group: C 2/C
;
_chemical_formula_sum "Si O2"
_cell_formula_units_Z 32
_cell_length_a 8.608403
_cell_length_b 34.111702
_cell_length_c 5.222184
_cell_angle_alpha 90.000000
_cell_angle_beta 92.543172
_cell_angle_gamma 90.000000
_cell_volume 1531.969747
_symmetry_space_group_name_H-M "C 2/C"
_symmetry_group_IT_number 15
_symmetry_cell_setting 'monoclinic'
loop_
_space_group_symop_operation_xyz
x,y,z
-x,y,1/2-z
-x,-y,-z
x,-y,1/2+z
1/2+x,1/2+y,z
1/2-x,1/2+y,1/2-z
1/2-x,1/2-y,-z
1/2+x,1/2-y,1/2+z
loop_
_atom_site_type_symbol
_atom_site_label
_atom_site_fract_x
_atom_site_fract_y
_atom_site_fract_z
Si Si1 0.821096 0.104108 0.227971
Si Si2 0.183350 0.359399 0.219197
Si Si3 0.323297 0.515420 0.429976
Si Si4 0.814274 0.771851 0.254549
O O1 0.723453 0.126582 0.436305
O O2 0.821315 0.058766 0.315266
O O3 0.000000 0.117789 0.250000
O O4 0.757533 0.112138 0.939926
O O5 0.255804 0.316462 0.259986
O O6 0.000000 0.357896 0.250000
O O7 0.500000 0.500000 0.500000
O O8 0.249881 0.511876 0.705338
O O9 0.750000 0.750000 0.500000
O O10 0.000000 0.771004 0.250000
O O11 0.750000 0.750000 0.000000
#
# Coordination Sequence:
#
# PCOD9263865 Si02
#       4
#     8   8   8   8
#     4  12  23  40  70 100 129 170 231 290 328 397
#     4  12  27  45  64  97 143 182 220 272 350 402
#     4  10  19  34  61  99 125 160 222 282 338 390
#     4  12  25  46  73 102 136 177 227 274 332 404
#
# _framework density 20.888138999999999
#
# number of rings (size 3 to 8) (size 9 to 14) (size 15 to 20)
#    0.000    0.500    2.500    8.250    3.500    0.000 
#    0.000    0.000    0.000   15.000    0.000    0.000 
#    0.000    0.000    0.000    0.000    0.000    0.000 
#
# Total GULP energy -89485.275994 kJ/mol
# GULP energy per Si atom -5592.829750 kJ/mol
# Density = 2.084060 g / cm^3
# Si number density = 20.888139 Si / 1000 Ang^3
#
#
#
# Elastic Constant Matrix: (Units=GPa)
#
#
# Indices 1 2 3 4 5 6 
#
# 1 132.0966 2.3779 3.9742 0.0000 4.7715 0.0000
# 2 2.3779 101.6145 6.9856 0.0000 0.7007 0.0000
# 3 3.9742 6.9856 121.4818 0.0000 -8.7046 0.0000
# 4 0.0000 0.0000 0.0000 31.7014 0.0000 -5.3885
# 5 4.7715 0.7007 -8.7046 0.0000 39.8744 0.0000
# 6 0.0000 0.0000 0.0000 -5.3885 0.0000 15.2862
#
#
#
# Elastic Compliance Matrix: (Units=1/GPa)
#
#
# Indices 1 2 3 4 5 6 
#
# 1 0.007618 -0.000150 -0.000311 0.000000 -0.000977 0.000000
# 2 -0.000150 0.009887 -0.000584 0.000000 -0.000283 0.000000
# 3 -0.000311 -0.000584 0.008410 0.000000 0.001883 0.000000
# 4 0.000000 0.000000 0.000000 0.033555 0.000000 0.011828
# 5 -0.000977 -0.000283 0.001883 0.000000 0.025612 0.000000
# 6 0.000000 0.000000 0.000000 0.011828 0.000000 0.069588
#
#
# Mechanical properties :
#
#
# Convention : Reuss Voigt Hill
#
# Bulk Modulus (GPa) = 41.97204 42.42982 42.20093
# Shear Modulus (GPa) = 30.35815 40.16275 35.26045
#
# Velocity S-wave (km/s) = 3.81644 4.38968 4.11306
# Velocity P-wave (km/s) = 6.28949 6.78597 6.54244
#
# Compressibility (1/GPa) = 0.02382538
#
# Stress axis : x y z
#
# Youngs Moduli (GPa) = 131.27587 101.14575 118.90072
#
# Poissons Ratio (x) = 0.01519 0.03692
# Poissons Ratio (y) = 0.01971 0.06943
# Poissons Ratio (z) = 0.04077 0.05906
#
# Static dielectric constant tensor:
#      x y z
#    x 1.784460 0.000000 -0.071560 
#    y 0.000000 1.750860 0.000000 
#    z -0.071560 0.000000 1.784190 
# 
# From -- ./inp_files/2695.got.cif
#   From: 2010.05.17/outbox.cif.g08.bks.cpg/sg15_2_cif.got.tgz:2695.got - 2010.06.03 18:47:42.
