data_PCOD9263880
_publ_section_title
;
Structure prediction by ZEFSAII (Michael W. Deem and Ramdas Pophale) SiO2 
 PCOD9263880
Probable space group: C 2/C
;
_chemical_formula_sum "Si O2"
_cell_formula_units_Z 56
_cell_length_a 11.597079
_cell_length_b 18.630785
_cell_length_c 19.241340
_cell_angle_alpha 90.000000
_cell_angle_beta 140.397850
_cell_angle_gamma 90.000000
_cell_volume 2650.105640
_symmetry_space_group_name_H-M "C 2/C"
_symmetry_group_IT_number 15
_symmetry_cell_setting 'monoclinic'
loop_
_space_group_symop_operation_xyz
x,y,z
-x,y,1/2-z
-x,-y,-z
x,-y,1/2+z
1/2+x,1/2+y,z
1/2-x,1/2+y,1/2-z
1/2-x,1/2-y,-z
1/2+x,1/2-y,1/2+z
loop_
_atom_site_type_symbol
_atom_site_label
_atom_site_fract_x
_atom_site_fract_y
_atom_site_fract_z
Si Si1 0.783563 0.031265 0.816822
Si Si2 0.833656 0.674682 0.803827
Si Si3 0.500000 0.747975 0.250000
Si Si4 0.041662 0.804137 0.342358
Si Si5 0.569344 0.409595 0.969714
Si Si6 0.000000 0.558188 0.250000
Si Si7 0.797666 0.831823 0.937610
Si Si8 0.793509 0.318565 0.971919
O O1 0.752742 0.096695 0.750369
O O2 0.595621 0.989751 0.736693
O O3 0.827100 0.061905 0.914156
O O4 0.940233 0.972056 0.879470
O O5 0.937199 0.701065 0.783279
O O6 0.658888 0.725206 0.732217
O O7 0.990826 0.673615 0.934676
O O8 0.328246 0.698534 0.151267
O O9 0.111647 0.842210 0.444526
O O10 0.187233 0.742391 0.392102
O O11 0.000000 0.844072 0.250000
O O12 0.446162 0.344798 0.945587
O O13 0.706272 0.383102 0.975032
O O14 0.847845 0.607137 0.145031
O O15 0.750000 0.250000 0.000000
#
# Coordination Sequence:
#
# PCOD9263880 Si02
#       8
#     8   8   4   8   8   4   8   8
#     4  10  19  34  62  87 120 157 202 264 282 351
#     4  11  22  39  60  93 121 155 208 243 314 355
#     4  10  23  38  62  94 125 160 186 262 310 378
#     4  11  24  38  61  86 126 162 193 252 303 367
#     4  10  20  37  61  92 120 157 206 250 309 340
#     4  10  19  34  62  92 115 150 208 254 310 330
#     4  10  22  38  58  90 123 156 201 256 295 362
#     4  10  22  35  62  92 126 154 194 256 312 374
#
# _framework density 21.131233000000002
#
# number of rings (size 3 to 8) (size 9 to 14) (size 15 to 20)
#    0.000    1.714    2.143    3.000    4.000    1.143 
#    0.000    0.000    1.571    1.714    0.000    0.000 
#    0.000    0.000    0.000    0.000    0.000    0.000 
#
# Total GULP energy -156174.158282 kJ/mol
# GULP energy per Si atom -5577.648510 kJ/mol
# Density = 2.108314 g / cm^3
# Si number density = 21.131233 Si / 1000 Ang^3
#
#
#
# Elastic Constant Matrix: (Units=GPa)
#
#
# Indices 1 2 3 4 5 6 
#
# 1 55.2753 9.8009 25.6412 0.0000 11.4047 0.0000
# 2 9.8009 56.0157 27.3645 0.0000 2.5516 0.0000
# 3 25.6412 27.3645 139.1919 -0.0001 14.2119 0.0000
# 4 0.0000 0.0000 -0.0001 16.7460 0.0000 4.3341
# 5 11.4047 2.5516 14.2119 0.0000 28.5214 0.0000
# 6 0.0000 0.0000 0.0000 4.3341 0.0000 21.3937
#
#
#
# Elastic Compliance Matrix: (Units=1/GPa)
#
#
# Indices 1 2 3 4 5 6 
#
# 1 0.021170 -0.002023 -0.002799 0.000000 -0.006890 0.000000
# 2 -0.002023 0.019943 -0.003633 0.000000 0.000835 0.000000
# 3 -0.002799 -0.003633 0.008710 0.000000 -0.002896 0.000000
# 4 0.000000 0.000000 0.000000 0.063020 0.000000 -0.012767
# 5 -0.006890 0.000835 -0.002896 0.000000 0.039185 0.000000
# 6 0.000000 0.000000 0.000000 -0.012767 0.000000 0.049329
#
#
# Mechanical properties :
#
#
# Convention : Reuss Voigt Hill
#
# Bulk Modulus (GPa) = 30.38344 41.78843 36.08593
# Shear Modulus (GPa) = 21.81148 25.84398 23.82773
#
# Velocity S-wave (km/s) = 3.21626 3.50097 3.36163
# Velocity P-wave (km/s) = 5.31056 6.01340 5.67288
#
# Compressibility (1/GPa) = 0.03291267
#
# Stress axis : x y z
#
# Youngs Moduli (GPa) = 47.23738 50.14298 114.81265
#
# Poissons Ratio (x) = 0.10144 0.32132
# Poissons Ratio (y) = 0.09556 0.41715
# Poissons Ratio (z) = 0.13220 0.18218
#
# Static dielectric constant tensor:
#      x y z
#    x 1.806430 0.000000 0.020390 
#    y 0.000000 1.802570 0.000000 
#    z 0.020390 0.000000 1.822510 
# 
# From -- ./inp_files/240322.got.cif
#   From: 2010.05.17/outbox.cif.g08.bks.cpg/sg15_121_cif.got.tgz:240322.got - 2010.06.03 18:47:42.
