data_PCOD9263622
_publ_section_title
;
Structure prediction by ZEFSAII (Michael W. Deem and Ramdas Pophale) SiO2 
 PCOD9263622
Probable space group: C 2/C
;
_chemical_formula_sum "Si O2"
_cell_formula_units_Z 64
_cell_length_a 16.596578
_cell_length_b 11.491304
_cell_length_c 17.460238
_cell_angle_alpha 90.000000
_cell_angle_beta 96.728000
_cell_angle_gamma 90.000000
_cell_volume 3307.020725
_symmetry_space_group_name_H-M "C 2/C"
_symmetry_group_IT_number 15
_symmetry_cell_setting 'monoclinic'
loop_
_space_group_symop_operation_xyz
x,y,z
-x,y,1/2-z
-x,-y,-z
x,-y,1/2+z
1/2+x,1/2+y,z
1/2-x,1/2+y,1/2-z
1/2-x,1/2-y,-z
1/2+x,1/2-y,1/2+z
loop_
_atom_site_type_symbol
_atom_site_label
_atom_site_fract_x
_atom_site_fract_y
_atom_site_fract_z
Si Si1 0.398577 0.363808 0.410535
Si Si2 0.420129 0.979439 0.538656
Si Si3 0.760165 0.296232 0.833821
Si Si4 0.934513 0.759284 0.105175
Si Si5 0.338450 0.598008 0.470854
Si Si6 0.783850 0.464776 0.411919
Si Si7 0.340905 0.230591 0.547262
Si Si8 0.767357 0.741853 0.163027
O O1 0.320667 0.311333 0.357414
O O2 0.480292 0.325362 0.376157
O O3 0.384568 0.499522 0.427047
O O4 0.397544 0.299439 0.493982
O O5 0.443512 0.880147 0.601016
O O6 0.357302 0.925047 0.472151
O O7 0.500000 0.000000 0.500000
O O8 0.375014 0.099129 0.557380
O O9 0.798311 0.409984 0.877571
O O10 0.675574 0.275991 0.869056
O O11 0.752016 0.313915 0.743067
O O12 0.861975 0.768236 0.158036
O O13 0.897935 0.815075 0.022561
O O14 0.290496 0.534900 0.535652
O O15 0.273268 0.665792 0.410011
O O16 0.771443 0.369335 0.346016
O O17 0.250000 0.250000 0.500000
#
# Coordination Sequence:
#
# PCOD9263622 Si02
#       8
#     8   8   8   8   8   8   8   8
#     4  11  21  37  61  90 116 155 204 252 297 361
#     4  12  19  34  63  90 114 147 201 262 298 344
#     4  11  23  38  60  90 122 163 202 247 309 370
#     4  11  22  38  59  91 118 155 202 253 309 352
#     4  11  21  39  63  87 117 161 209 251 293 365
#     4  11  19  40  60  86 120 154 208 252 291 358
#     4  10  19  34  58  87 112 152 203 247 285 355
#     4  11  25  36  61  90 126 160 198 254 310 370
#
# _framework density 19.352765999999999
#
# number of rings (size 3 to 8) (size 9 to 14) (size 15 to 20)
#    0.000    1.000    7.500    1.875    1.750    0.500 
#    0.000    0.000    0.000    4.500    0.000    0.000 
#    0.000    0.000    0.000    0.000    0.000    0.000 
#
# Total GULP energy -178302.214842 kJ/mol
# GULP energy per Si atom -5571.944214 kJ/mol
# Density = 1.930872 g / cm^3
# Si number density = 19.352766 Si / 1000 Ang^3
#
#
#
# Elastic Constant Matrix: (Units=GPa)
#
#
# Indices 1 2 3 4 5 6 
#
# 1 55.7682 4.3268 -9.0205 0.0000 -12.5692 0.0000
# 2 4.3268 84.2122 -2.2337 0.0000 -4.9157 0.0000
# 3 -9.0205 -2.2337 57.4442 0.0000 -7.6258 0.0000
# 4 0.0000 0.0000 0.0000 17.5552 0.0000 -1.0707
# 5 -12.5692 -4.9157 -7.6258 0.0000 12.3294 0.0000
# 6 0.0000 0.0000 0.0000 -1.0707 0.0000 20.9830
#
#
#
# Elastic Compliance Matrix: (Units=1/GPa)
#
#
# Indices 1 2 3 4 5 6 
#
# 1 0.026641 0.000771 0.008563 0.000000 0.032762 0.000000
# 2 0.000771 0.012258 0.001472 0.000000 0.006583 0.000000
# 3 0.008563 0.001472 0.021840 0.000000 0.022824 0.000000
# 4 0.000000 0.000000 0.000000 0.057141 0.000000 0.002916
# 5 0.032762 0.006583 0.022824 0.000000 0.131248 0.000000
# 6 0.000000 0.000000 0.000000 0.002916 0.000000 0.047806
#
#
# Mechanical properties :
#
#
# Convention : Reuss Voigt Hill
#
# Bulk Modulus (GPa) = 12.14343 20.39663 16.27003
# Shear Modulus (GPa) = 16.51395 23.79698 20.15547
#
# Velocity S-wave (km/s) = 2.92432 3.51043 3.23069
# Velocity P-wave (km/s) = 4.20602 5.19549 4.72672
#
# Compressibility (1/GPa) = 0.08234904
#
# Stress axis : x y z
#
# Youngs Moduli (GPa) = 37.53674 81.57608 45.78768
#
# Poissons Ratio (x) = -0.06288 -0.39206
# Poissons Ratio (y) = -0.02893 -0.06738
# Poissons Ratio (z) = -0.32141 -0.12005
#
# Static dielectric constant tensor:
#      x y z
#    x 1.680210 0.000000 0.010970 
#    y 0.000000 1.716660 0.000000 
#    z 0.010970 0.000000 1.666530 
# 
# From -- ./inp_files/210334.got.cif
#   From: 2010.05.17/outbox.cif.g08.bks.cpg/sg15_106_cif.got.tgz:210334.got - 2010.06.03 18:47:42.
