data_PCOD9263218
_publ_section_title
;
Structure prediction by ZEFSAII (Michael W. Deem and Ramdas Pophale) SiO2 
 PCOD9263218
Probable space group: C 2/C
;
_chemical_formula_sum "Si O2"
_cell_formula_units_Z 56
_cell_length_a 14.211164
_cell_length_b 21.247053
_cell_length_c 17.117066
_cell_angle_alpha 90.000000
_cell_angle_beta 34.028911
_cell_angle_gamma 90.000000
_cell_volume 2892.304699
_symmetry_space_group_name_H-M "C 2/C"
_symmetry_group_IT_number 15
_symmetry_cell_setting 'monoclinic'
loop_
_space_group_symop_operation_xyz
x,y,z
-x,y,1/2-z
-x,-y,-z
x,-y,1/2+z
1/2+x,1/2+y,z
1/2-x,1/2+y,1/2-z
1/2-x,1/2-y,-z
1/2+x,1/2-y,1/2+z
loop_
_atom_site_type_symbol
_atom_site_label
_atom_site_fract_x
_atom_site_fract_y
_atom_site_fract_z
Si Si1 0.408506 0.925144 0.466392
Si Si2 0.259609 0.552403 0.571790
Si Si3 0.109040 0.453608 0.779270
Si Si4 0.465208 0.306356 0.366934
Si Si5 0.902204 0.667814 0.396881
Si Si6 0.862719 0.028755 0.228910
Si Si7 0.761617 0.892695 0.245516
O O1 0.350840 0.912124 0.417266
O O2 0.560433 0.881746 0.393199
O O3 0.503940 0.992311 0.395637
O O4 0.244483 0.935877 0.631300
O O5 0.167970 0.486296 0.657670
O O6 0.439310 0.538618 0.409671
O O7 0.280602 0.588291 0.640324
O O8 0.284618 0.444169 0.702600
O O9 0.997032 0.392245 0.864328
O O10 0.500000 0.306841 0.250000
O O11 0.290889 0.344420 0.491648
O O12 0.421298 0.235278 0.425993
O O13 0.618324 0.337040 0.308465
O O14 0.000000 0.678245 0.250000
O O15 0.820214 0.954259 0.254586
#
# Coordination Sequence:
#
# PCOD9263218 Si02
#       7
#     8   8   8   8   8   8   8
#     4  10  20  34  53  83 111 146 181 229 278 322
#     4  10  20  35  53  82 110 146 185 221 280 330
#     4  10  19  34  54  76 113 148 176 223 274 334
#     4  10  24  38  55  84 112 148 188 227 266 335
#     4  10  22  38  56  80 115 145 188 220 278 329
#     4  10  21  31  52  83 110 142 187 224 276 331
#     4  10  20  36  53  76 114 146 189 222 272 336
#
# _framework density 19.361722
#
# number of rings (size 3 to 8) (size 9 to 14) (size 15 to 20)
#    0.000    2.286    0.000    6.429   10.000    0.000 
#    0.000    0.000    0.000    0.000    0.000    6.000 
#    0.000    0.000    0.000    0.000    0.000    0.000 
#
# Total GULP energy -155999.368329 kJ/mol
# GULP energy per Si atom -5571.406012 kJ/mol
# Density = 1.931765 g / cm^3
# Si number density = 19.361722 Si / 1000 Ang^3
#
#
#
# Elastic Constant Matrix: (Units=GPa)
#
#
# Indices 1 2 3 4 5 6 
#
# 1 100.1507 30.6602 33.0598 -0.0025 -22.7389 0.0019
# 2 30.6602 56.9733 6.7875 -0.0042 -19.8633 0.0031
# 3 33.0598 6.7875 131.6187 -0.0048 -21.3016 0.0011
# 4 -0.0025 -0.0042 -0.0048 19.2775 0.0023 -12.4991
# 5 -22.7389 -19.8633 -21.3016 0.0023 33.3086 -0.0013
# 6 0.0019 0.0031 0.0011 -12.4991 -0.0013 22.3681
#
#
#
# Elastic Compliance Matrix: (Units=1/GPa)
#
#
# Indices 1 2 3 4 5 6 
#
# 1 0.013428 -0.005400 -0.002378 -0.000001 0.004426 0.000000
# 2 -0.005400 0.024477 0.002075 0.000003 0.012237 0.000000
# 3 -0.002378 0.002075 0.008952 0.000003 0.005339 0.000001
# 4 -0.000001 0.000003 0.000003 0.081347 -0.000001 0.045456
# 5 0.004426 0.012237 0.005339 -0.000001 0.043756 0.000000
# 6 0.000000 0.000000 0.000001 0.045456 0.000000 0.070107
#
#
# Mechanical properties :
#
#
# Convention : Reuss Voigt Hill
#
# Bulk Modulus (GPa) = 28.20829 47.75085 37.97957
# Shear Modulus (GPa) = 18.84731 29.53985 24.19358
#
# Velocity S-wave (km/s) = 3.12337 3.91024 3.53874
# Velocity P-wave (km/s) = 5.25433 6.71585 6.02954
#
# Compressibility (1/GPa) = 0.03545057
#
# Stress axis : x y z
#
# Youngs Moduli (GPa) = 74.47155 40.85424 111.70591
#
# Poissons Ratio (x) = 0.22061 0.26564
# Poissons Ratio (y) = 0.40214 -0.23174
# Poissons Ratio (z) = 0.17710 -0.08475
#
# Static dielectric constant tensor:
#      x y z
#    x 1.740290 0.000000 0.022030 
#    y 0.000000 1.718980 0.000010 
#    z 0.022030 0.000010 1.727270 
# 
# From -- ./inp_files/206923.got.cif
#   From: 2010.05.17/outbox.cif.g08.bks.cpg/sg15_104_cif.got.tgz:206923.got - 2010.06.03 18:47:42.
