data_PCOD9263164
_publ_section_title
;
Structure prediction by ZEFSAII (Michael W. Deem and Ramdas Pophale) SiO2 
 PCOD9263164
Probable space group: C 2/C
;
_chemical_formula_sum "Si O2"
_cell_formula_units_Z 56
_cell_length_a 19.047238
_cell_length_b 33.444175
_cell_length_c 5.330394
_cell_angle_alpha 90.000000
_cell_angle_beta 113.912039
_cell_angle_gamma 90.000000
_cell_volume 3104.117879
_symmetry_space_group_name_H-M "C 2/C"
_symmetry_group_IT_number 15
_symmetry_cell_setting 'monoclinic'
loop_
_space_group_symop_operation_xyz
x,y,z
-x,y,1/2-z
-x,-y,-z
x,-y,1/2+z
1/2+x,1/2+y,z
1/2-x,1/2+y,1/2-z
1/2-x,1/2-y,-z
1/2+x,1/2-y,1/2+z
loop_
_atom_site_type_symbol
_atom_site_label
_atom_site_fract_x
_atom_site_fract_y
_atom_site_fract_z
Si Si1 0.524073 0.612178 0.535192
Si Si2 0.330551 0.338257 0.249116
Si Si3 0.953509 0.280867 0.433332
Si Si4 0.408799 0.981628 0.076288
Si Si5 0.912338 0.611378 0.528415
Si Si6 0.347291 0.849605 0.424258
Si Si7 0.907086 0.189460 0.360283
O O1 0.500000 0.590427 0.750000
O O2 0.612915 0.623515 0.667339
O O3 0.471703 0.653897 0.458202
O O4 0.500000 0.590596 0.250000
O O5 0.241546 0.347742 0.130686
O O6 0.356917 0.315295 0.537649
O O7 0.355494 0.315467 0.032983
O O8 0.876686 0.306278 0.368403
O O9 0.942680 0.233269 0.409379
O O10 0.000000 0.292475 0.250000
O O11 0.000000 0.290435 0.750000
O O12 0.500000 0.989593 0.250000
O O13 0.401638 0.936035 0.977454
O O14 0.376831 0.990659 0.307165
O O15 0.861824 0.624029 0.696349
O O16 0.000000 0.617726 0.750000
O O17 0.892265 0.634089 0.238251
#
# Coordination Sequence:
#
# PCOD9263164 Si02
#       7
#     8   8   8   8   8   8   8
#     4   8  14  27  46  64  82 109 150 197 251 297
#     4  10  20  33  49  71  94 119 161 206 258 305
#     4  12  23  36  52  68  89 124 175 219 254 303
#     4   9  17  31  54  80  97 118 162 211 236 256
#     4  11  22  38  54  71 103 139 168 196 236 291
#     4  12  24  35  49  72 103 136 163 196 250 308
#     4  10  19  34  53  68  86 118 164 220 265 296
#
# _framework density 18.040551000000001
#
# number of rings (size 3 to 8) (size 9 to 14) (size 15 to 20)
#    0.000    1.714    0.000    7.714    0.000    3.429 
#    0.000    0.000    0.000    0.000    0.000    0.000 
#    0.000    0.000    0.000    0.000    0.000  450.000 
#
# Total GULP energy -156064.332550 kJ/mol
# GULP energy per Si atom -5573.726163 kJ/mol
# Density = 1.799949 g / cm^3
# Si number density = 18.040551 Si / 1000 Ang^3
#
#
#
# Elastic Constant Matrix: (Units=GPa)
#
#
# Indices 1 2 3 4 5 6 
#
# 1 106.6302 5.3089 51.4771 0.0000 -9.4635 0.0000
# 2 5.3089 20.9987 9.4984 0.0000 -4.6927 0.0000
# 3 51.4771 9.4984 108.0796 0.0000 -35.5710 0.0000
# 4 0.0000 0.0000 0.0000 18.4766 0.0000 -7.4335
# 5 -9.4635 -4.6927 -35.5710 0.0000 39.9546 0.0000
# 6 0.0000 0.0000 0.0000 -7.4335 0.0000 7.4116
#
#
#
# Elastic Compliance Matrix: (Units=1/GPa)
#
#
# Indices 1 2 3 4 5 6 
#
# 1 0.012491 -0.000746 -0.006985 0.000000 -0.003348 0.000000
# 2 -0.000746 0.049853 -0.003051 0.000000 0.002962 0.000000
# 3 -0.006985 -0.003051 0.017235 0.000000 0.013331 0.000000
# 4 0.000000 0.000000 0.000000 0.090735 0.000000 0.091003
# 5 -0.003348 0.002962 0.013331 0.000000 0.036452 0.000000
# 6 0.000000 0.000000 0.000000 0.091003 0.000000 0.226195
#
#
# Mechanical properties :
#
#
# Convention : Reuss Voigt Hill
#
# Bulk Modulus (GPa) = 17.23740 40.91969 29.07855
# Shear Modulus (GPa) = 10.55156 24.46350 17.50753
#
# Velocity S-wave (km/s) = 2.42105 3.68642 3.11859
# Velocity P-wave (km/s) = 4.17024 6.39147 5.39638
#
# Compressibility (1/GPa) = 0.05801338
#
# Stress axis : x y z
#
# Youngs Moduli (GPa) = 80.06056 20.05906 58.02046
#
# Poissons Ratio (x) = 0.01497 0.40530
# Poissons Ratio (y) = 0.05976 0.17701
# Poissons Ratio (z) = 0.55926 0.06119
#
# Static dielectric constant tensor:
#      x y z
#    x 1.832320 0.000000 0.623040 
#    y 0.000000 1.604140 0.000000 
#    z 0.623040 0.000000 3.759370 
# 
# From -- ./inp_files/11958.got.cif
#   From: 2010.05.17/outbox.cif.g08.bks.cpg/sg15_6_cif.got.tgz:11958.got - 2010.06.03 18:47:42.
