data_PCOD9263444
_publ_section_title
;
Structure prediction by ZEFSAII (Michael W. Deem and Ramdas Pophale) SiO2 
 PCOD9263444
Probable space group: C 2/C
;
_chemical_formula_sum "Si O2"
_cell_formula_units_Z 48
_cell_length_a 21.320222
_cell_length_b 15.754997
_cell_length_c 12.964193
_cell_angle_alpha 90.000000
_cell_angle_beta 36.618683
_cell_angle_gamma 90.000000
_cell_volume 2597.504124
_symmetry_space_group_name_H-M "C 2/C"
_symmetry_group_IT_number 15
_symmetry_cell_setting 'monoclinic'
loop_
_space_group_symop_operation_xyz
x,y,z
-x,y,1/2-z
-x,-y,-z
x,-y,1/2+z
1/2+x,1/2+y,z
1/2-x,1/2+y,1/2-z
1/2-x,1/2-y,-z
1/2+x,1/2-y,1/2+z
loop_
_atom_site_type_symbol
_atom_site_label
_atom_site_fract_x
_atom_site_fract_y
_atom_site_fract_z
Si Si1 0.863030 0.920126 0.255234
Si Si2 0.368019 0.352480 0.033365
Si Si3 0.989307 0.747988 0.141106
Si Si4 0.106239 0.893703 0.730057
Si Si5 0.208095 0.203638 0.279408
Si Si6 0.783099 0.661201 0.399733
O O1 0.834276 0.912131 0.173130
O O2 0.939333 0.839814 0.177411
O O3 0.761997 0.908044 0.462515
O O4 0.916006 0.008686 0.212728
O O5 0.306287 0.264875 0.129709
O O6 0.494457 0.345282 0.876799
O O7 0.348057 0.387083 0.945283
O O8 0.906963 0.674482 0.220982
O O9 0.000000 0.746836 0.250000
O O10 0.102904 0.741540 0.939805
O O11 0.181730 0.855202 0.717264
O O12 0.228783 0.155630 0.360122
O O13 0.750000 0.750000 0.500000
#
# Coordination Sequence:
#
# PCOD9263444 Si02
#       6
#     8   8   8   8   8   8
#     4  11  21  37  57  91 119 140 189 249 291 327
#     4  11  23  39  53  88 117 148 200 228 280 358
#     4  11  19  32  62  91 114 149 188 238 284 331
#     4  11  26  35  60  84 119 154 182 246 292 336
#     4  12  20  37  57  83 118 156 190 229 289 336
#     4  10  19  34  56  92 113 147 193 234 272 346
#
# _framework density 18.479278000000001
#
# number of rings (size 3 to 8) (size 9 to 14) (size 15 to 20)
#    0.000    1.000    8.333    1.000    4.667    0.000 
#    0.000    0.000    0.000    1.000   26.000    0.000 
#    0.000    0.000    0.000    0.000    0.000    0.000 
#
# Total GULP energy -133892.536640 kJ/mol
# GULP energy per Si atom -5578.855693 kJ/mol
# Density = 1.843722 g / cm^3
# Si number density = 18.479278 Si / 1000 Ang^3
#
#
#
# Elastic Constant Matrix: (Units=GPa)
#
#
# Indices 1 2 3 4 5 6 
#
# 1 122.2882 22.0030 56.7728 0.0000 31.7401 0.0000
# 2 22.0030 41.5859 32.9706 0.0000 -3.3046 0.0000
# 3 56.7728 32.9706 95.4770 0.0000 11.1630 0.0000
# 4 0.0000 0.0000 0.0000 7.7068 0.0000 0.6060
# 5 31.7401 -3.3046 11.1630 0.0000 47.0696 0.0000
# 6 0.0000 0.0000 0.0000 0.6060 0.0000 18.0338
#
#
#
# Elastic Compliance Matrix: (Units=1/GPa)
#
#
# Indices 1 2 3 4 5 6 
#
# 1 0.013627 -0.002964 -0.006151 0.000000 -0.007938 0.000000
# 2 -0.002964 0.035032 -0.011166 0.000000 0.007106 0.000000
# 3 -0.006151 -0.011166 0.018096 0.000000 -0.000928 0.000000
# 4 0.000000 0.000000 0.000000 0.130100 0.000000 -0.004372
# 5 -0.007938 0.007106 -0.000928 0.000000 0.027317 0.000000
# 6 0.000000 0.000000 0.000000 -0.004372 0.000000 0.055598
#
#
# Mechanical properties :
#
#
# Convention : Reuss Voigt Hill
#
# Bulk Modulus (GPa) = 38.17861 53.64933 45.91397
# Shear Modulus (GPa) = 15.19468 24.40235 19.79852
#
# Velocity S-wave (km/s) = 2.87061 3.63785 3.27676
# Velocity P-wave (km/s) = 5.62959 6.83670 6.26230
#
# Compressibility (1/GPa) = 0.02619268
#
# Stress axis : x y z
#
# Youngs Moduli (GPa) = 73.38527 28.54513 55.26169
#
# Poissons Ratio (x) = 0.08460 0.33992
# Poissons Ratio (y) = 0.21750 0.61705
# Poissons Ratio (z) = 0.45141 0.31874
#
# Static dielectric constant tensor:
#      x y z
#    x 1.673400 0.000000 -0.000210 
#    y 0.000000 1.608430 0.000000 
#    z -0.000210 0.000000 1.693710 
# 
# From -- ./inp_files/112935.got.cif
#   From: 2010.05.17/outbox.cif.g08.bks.cpg/sg15_57_cif.got.tgz:112935.got - 2010.06.03 18:47:42.
