data_PCOD9263364
_publ_section_title
;
Structure prediction by ZEFSAII (Michael W. Deem and Ramdas Pophale) SiO2 
 PCOD9263364
Probable space group: C 2/C
;
_chemical_formula_sum "Si O2"
_cell_formula_units_Z 64
_cell_length_a 18.873332
_cell_length_b 9.255185
_cell_length_c 23.923152
_cell_angle_alpha 90.000000
_cell_angle_beta 125.470051
_cell_angle_gamma 90.000000
_cell_volume 3403.297788
_symmetry_space_group_name_H-M "C 2/C"
_symmetry_group_IT_number 15
_symmetry_cell_setting 'monoclinic'
loop_
_space_group_symop_operation_xyz
x,y,z
-x,y,1/2-z
-x,-y,-z
x,-y,1/2+z
1/2+x,1/2+y,z
1/2-x,1/2+y,1/2-z
1/2-x,1/2-y,-z
1/2+x,1/2-y,1/2+z
loop_
_atom_site_type_symbol
_atom_site_label
_atom_site_fract_x
_atom_site_fract_y
_atom_site_fract_z
Si Si1 0.636394 0.413262 0.556227
Si Si2 0.949711 0.773363 0.461477
Si Si3 0.820599 0.664303 0.179746
Si Si4 0.136399 0.338988 0.473098
Si Si5 0.304482 0.531319 0.028739
Si Si6 0.435145 0.585147 0.672982
Si Si7 0.445356 0.808377 0.833542
Si Si8 0.441306 0.940819 0.173366
O O1 0.549349 0.319455 0.516510
O O2 0.605538 0.574794 0.561497
O O3 0.717304 0.349311 0.627627
O O4 0.671799 0.418976 0.508566
O O5 0.922781 0.668395 0.499687
O O6 0.937374 0.698054 0.396057
O O7 0.869721 0.796689 0.170744
O O8 0.854833 0.679702 0.258704
O O9 0.861785 0.522806 0.168003
O O10 0.206028 0.468624 0.505272
O O11 0.184734 0.184982 0.496717
O O12 0.089922 0.343958 0.391880
O O13 0.373175 0.518247 0.109818
O O14 0.500000 0.524644 0.750000
O O15 0.500393 0.667172 0.660611
O O16 0.501534 0.937404 0.832090
O O17 0.500000 0.876198 0.250000
#
# Coordination Sequence:
#
# PCOD9263364 Si02
#       8
#     8   8   8   8   8   8   8   8
#     4  10  19  35  58  78 104 152 188 214 272 342
#     4  10  21  35  54  79 114 147 179 225 279 329
#     4   9  18  34  57  82 103 137 193 225 264 324
#     4  10  21  34  52  82 113 140 182 227 275 335
#     4  10  19  34  56  79 106 144 186 228 267 321
#     4   9  18  33  56  84 106 135 186 237 266 310
#     4   9  18  35  55  79 111 141 177 230 271 322
#     4   9  18  34  56  79 107 145 178 225 280 321
#
# _framework density 18.805288999999998
#
# number of rings (size 3 to 8) (size 9 to 14) (size 15 to 20)
#    0.000    2.500    2.500    1.500    0.000    2.500 
#    0.000    5.000    0.000    0.000    0.000    0.000 
#    0.000    0.000    0.000    0.000    0.000    0.000 
#
# Total GULP energy -178203.760825 kJ/mol
# GULP energy per Si atom -5568.867526 kJ/mol
# Density = 1.876249 g / cm^3
# Si number density = 18.805289 Si / 1000 Ang^3
#
#
#
# Elastic Constant Matrix: (Units=GPa)
#
#
# Indices 1 2 3 4 5 6 
#
# 1 107.9115 24.4958 76.7427 0.0000 4.9163 0.0000
# 2 24.4958 12.4080 20.6302 0.0000 1.4009 0.0000
# 3 76.7427 20.6302 141.7638 0.0000 7.0836 0.0000
# 4 0.0000 0.0000 0.0000 24.2135 0.0000 -2.1496
# 5 4.9163 1.4009 7.0836 0.0000 37.0852 0.0000
# 6 0.0000 0.0000 0.0000 -2.1496 0.0000 8.7167
#
#
#
# Elastic Compliance Matrix: (Units=1/GPa)
#
#
# Indices 1 2 3 4 5 6 
#
# 1 0.021064 -0.029835 -0.007045 0.000000 -0.000320 0.000000
# 2 -0.029835 0.148618 -0.005446 0.000000 -0.000619 0.000000
# 3 -0.007045 -0.005446 0.011715 0.000000 -0.001098 0.000000
# 4 0.000000 0.000000 0.000000 0.042224 0.000000 0.010413
# 5 -0.000320 -0.000619 -0.001098 0.000000 0.027240 0.000000
# 6 0.000000 0.000000 0.000000 0.010413 0.000000 0.117290
#
#
# Mechanical properties :
#
#
# Convention : Reuss Voigt Hill
#
# Bulk Modulus (GPa) = 10.33642 56.20229 33.26935
# Shear Modulus (GPa) = 10.30816 23.35071 16.82944
#
# Velocity S-wave (km/s) = 2.34381 3.52761 2.99479
# Velocity P-wave (km/s) = 3.58232 6.82227 5.44869
#
# Compressibility (1/GPa) = 0.09674530
#
# Stress axis : x y z
#
# Youngs Moduli (GPa) = 47.47372 6.72866 85.35909
#
# Poissons Ratio (x) = 0.20075 0.60138
# Poissons Ratio (y) = 1.41639 0.46484
# Poissons Ratio (z) = 0.33446 0.03664
#
# Static dielectric constant tensor:
#      x y z
#    x 1.672040 0.000000 0.007410 
#    y 0.000000 1.675820 0.000000 
#    z 0.007410 0.000000 1.659440 
# 
# From -- ./inp_files/252390.got.cif
#   From: 2010.05.17/outbox.cif.g08.bks.cpg/sg15_127_cif.got.tgz:252390.got - 2010.06.03 18:47:42.
