data_PCOD9263720
_publ_section_title
;
Structure prediction by ZEFSAII (Michael W. Deem and Ramdas Pophale) SiO2 
 PCOD9263720
Probable space group: C 2/C
;
_chemical_formula_sum "Si O2"
_cell_formula_units_Z 60
_cell_length_a 25.153729
_cell_length_b 11.698344
_cell_length_c 18.050443
_cell_angle_alpha 90.000000
_cell_angle_beta 35.284010
_cell_angle_gamma 90.000000
_cell_volume 3068.062821
_symmetry_space_group_name_H-M "C 2/C"
_symmetry_group_IT_number 15
_symmetry_cell_setting 'monoclinic'
loop_
_space_group_symop_operation_xyz
x,y,z
-x,y,1/2-z
-x,-y,-z
x,-y,1/2+z
1/2+x,1/2+y,z
1/2-x,1/2+y,1/2-z
1/2-x,1/2-y,-z
1/2+x,1/2-y,1/2+z
loop_
_atom_site_type_symbol
_atom_site_label
_atom_site_fract_x
_atom_site_fract_y
_atom_site_fract_z
Si Si1 0.181022 0.223728 0.864791
Si Si2 0.277654 0.495539 0.110702
Si Si3 0.500000 0.152216 0.250000
Si Si4 0.338382 0.569843 0.761329
Si Si5 0.288566 0.116853 0.463432
Si Si6 0.093403 0.572796 0.388133
Si Si7 0.020834 0.239914 0.871813
Si Si8 0.865476 0.144774 0.135607
O O1 0.174946 0.129136 0.936408
O O2 0.173616 0.150219 0.797293
O O3 0.117188 0.337267 0.927601
O O4 0.282839 0.273921 0.750867
O O5 0.253814 0.544673 0.057078
O O6 0.182625 0.496316 0.267839
O O7 0.340105 0.583062 0.086770
O O8 0.400036 0.101177 0.340634
O O9 0.530252 0.222601 0.143273
O O10 0.418371 0.630977 0.716184
O O11 0.371523 0.450228 0.691660
O O12 0.250840 0.569958 0.913690
O O13 0.250000 0.250000 0.500000
O O14 0.083141 0.656387 0.329514
O O15 0.000000 0.500000 0.500000
O O16 0.957463 0.211599 0.013597
#
# Coordination Sequence:
#
# PCOD9263720 Si02
#       8
#     8   8   4   8   8   8   8   8
#     4   9  19  36  56  84 116 158 201 245 317 367
#     4  10  20  37  56  86 120 158 197 258 319 371
#     4  12  22  32  60  92 120 162 194 258 342 364
#     4  10  21  36  57  83 119 159 196 260 315 371
#     4  12  21  39  58  89 128 153 208 265 325 391
#     4  10  19  34  59  88 119 157 207 260 308 367
#     4  11  20  34  54  91 118 150 205 257 313 377
#     4  10  20  35  58  83 113 158 203 247 309 384
#
# _framework density 19.556315000000001
#
# number of rings (size 3 to 8) (size 9 to 14) (size 15 to 20)
#    0.000    1.600    2.667    4.400    0.000    2.133 
#    0.000    0.667    0.000    0.000    0.000    0.000 
#    0.000    0.000    0.000    0.000    0.000    0.000 
#
# Total GULP energy -167048.201775 kJ/mol
# GULP energy per Si atom -5568.273392 kJ/mol
# Density = 1.951180 g / cm^3
# Si number density = 19.556315 Si / 1000 Ang^3
#
#
#
# Elastic Constant Matrix: (Units=GPa)
#
#
# Indices 1 2 3 4 5 6 
#
# 1 73.1730 30.0948 14.4534 0.0000 0.1905 0.0000
# 2 30.0948 73.3815 -2.4294 0.0000 6.0274 0.0000
# 3 14.4534 -2.4294 43.0106 0.0000 -1.9192 0.0000
# 4 0.0000 0.0000 0.0000 18.8223 0.0000 -8.6130
# 5 0.1905 6.0274 -1.9192 0.0000 25.5810 0.0000
# 6 0.0000 0.0000 0.0000 -8.6130 0.0000 33.8649
#
#
#
# Elastic Compliance Matrix: (Units=1/GPa)
#
#
# Indices 1 2 3 4 5 6 
#
# 1 0.018129 -0.007748 -0.006476 0.000000 0.001205 0.000000
# 2 -0.007748 0.017226 0.003410 0.000000 -0.003745 0.000000
# 3 -0.006476 0.003410 0.025671 0.000000 0.001171 0.000000
# 4 0.000000 0.000000 0.000000 0.060126 0.000000 0.015292
# 5 0.001205 -0.003745 0.001171 0.000000 0.040053 0.000000
# 6 0.000000 0.000000 0.000000 0.015292 0.000000 0.033418
#
#
# Mechanical properties :
#
#
# Convention : Reuss Voigt Hill
#
# Bulk Modulus (GPa) = 25.38307 30.42251 27.90279
# Shear Modulus (GPa) = 21.79745 25.48340 23.64043
#
# Velocity S-wave (km/s) = 3.34218 3.61373 3.48061
# Velocity P-wave (km/s) = 5.28216 5.74476 5.51831
#
# Compressibility (1/GPa) = 0.03939634
#
# Stress axis : x y z
#
# Youngs Moduli (GPa) = 55.16019 58.05306 38.95423
#
# Poissons Ratio (x) = 0.44981 0.25227
# Poissons Ratio (y) = 0.42740 -0.13282
# Poissons Ratio (z) = 0.35722 -0.19794
#
# Static dielectric constant tensor:
#      x y z
#    x 1.723840 0.000000 -0.019200 
#    y 0.000000 1.653230 0.000000 
#    z -0.019200 0.000000 1.697760 
# 
# From -- ./inp_files/219312.got.cif
#   From: 2010.05.17/outbox.cif.g08.bks.cpg/sg15_110_cif.got.tgz:219312.got - 2010.06.03 18:47:42.
