data_PCOD9263573
_publ_section_title
;
Structure prediction by ZEFSAII (Michael W. Deem and Ramdas Pophale) SiO2 
 PCOD9263573
Probable space group: C 2/C
;
_chemical_formula_sum "Si O2"
_cell_formula_units_Z 64
_cell_length_a 9.250517
_cell_length_b 14.802094
_cell_length_c 27.433198
_cell_angle_alpha 90.000000
_cell_angle_beta 54.089530
_cell_angle_gamma 90.000000
_cell_volume 3042.394218
_symmetry_space_group_name_H-M "C 2/C"
_symmetry_group_IT_number 15
_symmetry_cell_setting 'monoclinic'
loop_
_space_group_symop_operation_xyz
x,y,z
-x,y,1/2-z
-x,-y,-z
x,-y,1/2+z
1/2+x,1/2+y,z
1/2-x,1/2+y,1/2-z
1/2-x,1/2-y,-z
1/2+x,1/2-y,1/2+z
loop_
_atom_site_type_symbol
_atom_site_label
_atom_site_fract_x
_atom_site_fract_y
_atom_site_fract_z
Si Si1 0.930652 0.565561 0.110436
Si Si2 0.977593 0.531417 0.701633
Si Si3 0.659702 0.328276 0.251057
Si Si4 0.362766 0.896582 0.462480
Si Si5 0.361883 0.256162 0.624007
Si Si6 0.952214 0.759102 0.386134
Si Si7 0.319630 0.652043 0.402946
Si Si8 0.803145 0.851669 0.097519
O O1 0.933384 0.533530 0.165584
O O2 0.011624 0.665088 0.094282
O O3 0.734703 0.576510 0.125395
O O4 0.051038 0.494947 0.057085
O O5 0.815454 0.603046 0.735189
O O6 0.000000 0.487225 0.750000
O O7 0.162160 0.583335 0.652262
O O8 0.500000 0.371849 0.250000
O O9 0.745799 0.259756 0.195209
O O10 0.581448 0.279891 0.314277
O O11 0.509209 0.829752 0.410053
O O12 0.312408 0.863041 0.525540
O O13 0.196088 0.886092 0.458338
O O14 0.485776 0.341753 0.611435
O O15 0.239172 0.252914 0.600785
O O16 0.008121 0.838103 0.412875
O O17 0.283324 0.750611 0.386528
#
# Coordination Sequence:
#
# PCOD9263573 Si02
#       8
#     8   8   8   8   8   8   8   8
#     4  10  22  38  54  87 117 149 189 243 299 347
#     4  11  19  35  60  82 116 151 195 237 297 353
#     4  10  19  34  58  82 113 150 188 239 289 352
#     4  10  19  37  62  82 112 153 202 246 289 337
#     4  10  19  36  60  85 115 151 203 242 280 352
#     4  10  21  35  56  83 120 150 187 244 302 347
#     4  10  19  36  60  84 113 155 199 243 288 345
#     4   9  17  32  56  83 109 148 196 234 279 357
#
# _framework density 21.036065000000001
#
# number of rings (size 3 to 8) (size 9 to 14) (size 15 to 20)
#    0.000    2.000    5.000    1.875    0.000    1.500 
#    0.000   11.250    0.000    0.000    0.000    0.000 
#    0.000    0.000    0.000    0.000    0.000    0.000 
#
# Total GULP energy -178364.125509 kJ/mol
# GULP energy per Si atom -5573.878922 kJ/mol
# Density = 2.098819 g / cm^3
# Si number density = 21.036065 Si / 1000 Ang^3
#
#
#
# Elastic Constant Matrix: (Units=GPa)
#
#
# Indices 1 2 3 4 5 6 
#
# 1 123.5515 15.9137 -27.0373 0.0000 22.7790 0.0000
# 2 15.9137 29.4973 -21.4851 0.0000 9.4620 0.0000
# 3 -27.0373 -21.4851 -8.7444 0.0000 35.1991 0.0000
# 4 0.0000 0.0000 0.0000 3.0796 0.0000 3.3979
# 5 22.7790 9.4620 35.1991 0.0000 18.6413 0.0000
# 6 0.0000 0.0000 0.0000 3.3979 0.0000 32.3598
#
#
#
# Elastic Compliance Matrix: (Units=1/GPa)
#
#
# Indices 1 2 3 4 5 6 
#
# 1 0.008075 -0.007312 -0.003696 0.000000 0.000822 0.000000
# 2 -0.007312 0.028703 -0.008208 0.000000 0.009865 0.000000
# 3 -0.003696 -0.008208 -0.005560 0.000000 0.019180 0.000000
# 4 0.000000 0.000000 0.000000 0.367269 0.000000 -0.038565
# 5 0.000822 0.009865 0.019180 0.000000 0.011417 0.000000
# 6 0.000000 0.000000 0.000000 -0.038565 0.000000 0.034952
#
#
# Mechanical properties :
#
#
# Convention : Reuss Voigt Hill
#
# Bulk Modulus (GPa) = -138.65461 8.78744 -64.93358
# Shear Modulus (GPa) = 10.39750 22.61035 16.50393
#
# Velocity S-wave (km/s) = 2.22563 3.28203 2.80403
# Velocity P-wave (km/s) = 7.71047 4.30682 4.52231
#
# Compressibility (1/GPa) = -0.00721217
#
# Stress axis : x y z
#
# Youngs Moduli (GPa) = 123.83322 34.83922 -179.87068
#
# Poissons Ratio (x) = 0.25474 -0.66472
# Poissons Ratio (y) = 0.90546 -1.47640
# Poissons Ratio (z) = 0.45763 0.28596
#
# Static dielectric constant tensor:
#      x y z
#    x 1.904280 0.000000 0.014400 
#    y 0.000000 1.749530 0.000000 
#    z 0.014400 0.000000 1.739110 
# 
# From -- ./inp_files/308003.got.cif
#   From: 2010.05.17/outbox.cif.g08.bks.cpg/sg15_155_cif.got.tgz:308003.got - 2010.06.03 18:47:42.
