data_PCOD9263435
_publ_section_title
;
Structure prediction by ZEFSAII (Michael W. Deem and Ramdas Pophale) SiO2 
 PCOD9263435
Probable space group: C 2/C
;
_chemical_formula_sum "Si O2"
_cell_formula_units_Z 44
_cell_length_a 22.580602
_cell_length_b 18.461207
_cell_length_c 11.311881
_cell_angle_alpha 90.000000
_cell_angle_beta 153.897096
_cell_angle_gamma 90.000000
_cell_volume 2074.760618
_symmetry_space_group_name_H-M "C 2/C"
_symmetry_group_IT_number 15
_symmetry_cell_setting 'monoclinic'
loop_
_space_group_symop_operation_xyz
x,y,z
-x,y,1/2-z
-x,-y,-z
x,-y,1/2+z
1/2+x,1/2+y,z
1/2-x,1/2+y,1/2-z
1/2-x,1/2-y,-z
1/2+x,1/2-y,1/2+z
loop_
_atom_site_type_symbol
_atom_site_label
_atom_site_fract_x
_atom_site_fract_y
_atom_site_fract_z
Si Si1 0.348396 0.033053 0.230805
Si Si2 0.339751 0.977164 0.969280
Si Si3 0.572031 0.297102 0.766451
Si Si4 0.000000 0.242213 0.750000
Si Si5 0.379491 0.202360 0.264703
Si Si6 0.782587 0.824962 0.705551
O O1 0.285109 0.003958 0.240267
O O2 0.354160 0.119612 0.249830
O O3 0.500000 0.000000 0.500000
O O4 0.285622 0.015499 0.990437
O O5 0.312484 0.892650 0.942928
O O6 0.500000 0.990538 0.250000
O O7 0.500000 0.333789 0.750000
O O8 0.462152 0.242043 0.515122
O O9 0.628812 0.339531 0.754193
O O10 0.696600 0.247714 0.031911
O O11 0.966937 0.292239 0.802062
O O12 0.879705 0.191116 0.489682
O O13 0.250000 0.250000 0.000000
#
# Coordination Sequence:
#
# PCOD9263435 Si02
#       6
#     8   8   8   4   8   8
#     4  10  21  35  59  88 123 157 202 256 311 367
#     4  10  20  37  58  87 119 157 197 255 311 371
#     4  10  19  34  56  88 119 157 201 250 306 373
#     4  10  22  34  60  88 118 154 206 246 298 372
#     4  11  22  37  59  89 123 158 199 257 313 367
#     4  10  20  36  58  86 122 161 197 253 313 367
#
# _framework density 21.207265
#
# number of rings (size 3 to 8) (size 9 to 14) (size 15 to 20)
#    0.000    1.818    0.000    6.000    3.818    0.000 
#    3.273    0.000    0.000    9.818    2.364    0.000 
#    0.000    0.000    0.000    0.000    0.000    0.000 
#
# Total GULP energy -122743.238673 kJ/mol
# GULP energy per Si atom -5579.238121 kJ/mol
# Density = 2.115900 g / cm^3
# Si number density = 21.207265 Si / 1000 Ang^3
#
#
#
# Elastic Constant Matrix: (Units=GPa)
#
#
# Indices 1 2 3 4 5 6 
#
# 1 164.3925 6.6830 -5.8171 0.0000 -39.2945 0.0000
# 2 6.6830 34.9171 3.2308 0.0000 -3.5546 0.0000
# 3 -5.8171 3.2308 77.9966 0.0000 -13.1552 0.0000
# 4 0.0000 0.0000 0.0000 16.5082 0.0000 2.1412
# 5 -39.2945 -3.5546 -13.1552 0.0000 32.5027 0.0000
# 6 0.0000 0.0000 0.0000 2.1412 0.0000 13.6922
#
#
#
# Elastic Compliance Matrix: (Units=1/GPa)
#
#
# Indices 1 2 3 4 5 6 
#
# 1 0.009079 -0.000769 0.002733 0.000000 0.011998 0.000000
# 2 -0.000769 0.029064 -0.000947 0.000000 0.001866 0.000000
# 3 0.002733 -0.000947 0.014601 0.000000 0.009109 0.000000
# 4 0.000000 0.000000 0.000000 0.061830 0.000000 -0.009669
# 5 0.011998 0.001866 0.009109 0.000000 0.049163 0.000000
# 6 0.000000 0.000000 0.000000 -0.009669 0.000000 0.074546
#
#
# Mechanical properties :
#
#
# Convention : Reuss Voigt Hill
#
# Bulk Modulus (GPa) = 18.25585 31.72217 24.98901
# Shear Modulus (GPa) = 19.64578 30.75458 25.20018
#
# Velocity S-wave (km/s) = 3.04694 3.81227 3.45088
# Velocity P-wave (km/s) = 4.58317 5.86246 5.26184
#
# Compressibility (1/GPa) = 0.05477697
#
# Stress axis : x y z
#
# Youngs Moduli (GPa) = 110.14708 34.40689 68.49071
#
# Poissons Ratio (x) = 0.02646 -0.18715
# Poissons Ratio (y) = 0.08471 0.06483
# Poissons Ratio (z) = -0.30098 0.03257
#
# Static dielectric constant tensor:
#      x y z
#    x 1.896120 0.000000 -0.014840 
#    y 0.000000 1.725200 0.000000 
#    z -0.014840 0.000000 1.761470 
# 
# From -- ./inp_files/119307.got.cif
#   From: 2010.05.17/outbox.cif.g08.bks.cpg/sg15_60_cif.got.tgz:119307.got - 2010.06.03 18:47:42.
