data_PCOD9263429
_publ_section_title
;
Structure prediction by ZEFSAII (Michael W. Deem and Ramdas Pophale) SiO2 
 PCOD9263429
Probable space group: C 2/C
;
_chemical_formula_sum "Si O2"
_cell_formula_units_Z 36
_cell_length_a 10.216588
_cell_length_b 15.467959
_cell_length_c 14.702939
_cell_angle_alpha 90.000000
_cell_angle_beta 35.746663
_cell_angle_gamma 90.000000
_cell_volume 1357.395430
_symmetry_space_group_name_H-M "C 2/C"
_symmetry_group_IT_number 15
_symmetry_cell_setting 'monoclinic'
loop_
_space_group_symop_operation_xyz
x,y,z
-x,y,1/2-z
-x,-y,-z
x,-y,1/2+z
1/2+x,1/2+y,z
1/2-x,1/2+y,1/2-z
1/2-x,1/2-y,-z
1/2+x,1/2-y,1/2+z
loop_
_atom_site_type_symbol
_atom_site_label
_atom_site_fract_x
_atom_site_fract_y
_atom_site_fract_z
Si Si1 0.823463 0.601007 0.657373
Si Si2 0.098566 0.952349 0.033025
Si Si3 0.000000 0.560268 0.750000
Si Si4 0.885236 0.217208 0.075855
Si Si5 0.739522 0.345616 0.660035
O O1 0.882076 0.610983 0.733112
O O2 0.753328 0.692655 0.651592
O O3 0.062521 0.587255 0.473985
O O4 0.605154 0.541174 0.781223
O O5 0.134772 0.850596 0.993725
O O6 0.334596 0.999732 0.902999
O O7 0.000000 0.000000 0.000000
O O8 0.805532 0.164965 0.208520
O O9 0.136399 0.256949 0.944476
O O10 0.500000 0.357657 0.750000
#
# Coordination Sequence:
#
# PCOD9263429 Si02
#       5
#     8   8   4   8   8
#     4   9  20  36  58  84 113 153 197 237 281 358
#     4  10  21  38  58  84 122 156 188 243 304 349
#     4  10  22  38  62  82 120 162 190 234 310 352
#     4  10  19  34  56  87 115 150 193 244 286 341
#     4  10  20  28  59  87 116 141 204 238 286 327
#
# _framework density 26.521381000000002
#
# number of rings (size 3 to 8) (size 9 to 14) (size 15 to 20)
#    1.333    0.889    2.222    0.667    7.778    0.000 
#    0.000    5.556    0.000    0.000    0.000    0.000 
#    0.000    0.000    0.000    0.000    0.000    0.000 
#
# Total GULP energy -100373.290127 kJ/mol
# GULP energy per Si atom -5576.293896 kJ/mol
# Density = 2.646102 g / cm^3
# Si number density = 26.521381 Si / 1000 Ang^3
#
#
#
# Elastic Constant Matrix: (Units=GPa)
#
#
# Indices 1 2 3 4 5 6 
#
# 1 82.1602 17.1097 31.9763 -0.0019 6.4197 0.0005
# 2 17.1097 118.2949 70.6409 -0.0046 -9.6287 0.0013
# 3 31.9763 70.6409 247.9493 -0.0137 5.6318 0.0055
# 4 -0.0019 -0.0046 -0.0137 71.3762 0.0041 -0.5503
# 5 6.4197 -9.6287 5.6318 0.0041 22.4294 -0.0003
# 6 0.0005 0.0013 0.0055 -0.5503 -0.0003 23.4433
#
#
#
# Elastic Compliance Matrix: (Units=1/GPa)
#
#
# Indices 1 2 3 4 5 6 
#
# 1 0.013279 -0.001560 -0.001173 0.000000 -0.004176 0.000000
# 2 -0.001560 0.010993 -0.003065 0.000000 0.005935 0.000000
# 3 -0.001173 -0.003065 0.005109 0.000001 -0.002263 -0.000001
# 4 0.000000 0.000000 0.000001 0.014013 -0.000003 0.000329
# 5 -0.004176 0.005935 -0.002263 -0.000003 0.048896 0.000001
# 6 0.000000 0.000000 -0.000001 0.000329 0.000001 0.042664
#
#
# Mechanical properties :
#
#
# Convention : Reuss Voigt Hill
#
# Bulk Modulus (GPa) = 56.23122 76.42870 66.32996
# Shear Modulus (GPa) = 32.79152 45.36162 39.07657
#
# Velocity S-wave (km/s) = 3.52009 4.14016 3.84265
# Velocity P-wave (km/s) = 6.14570 7.19270 6.68971
#
# Compressibility (1/GPa) = 0.01778372
#
# Stress axis : x y z
#
# Youngs Moduli (GPa) = 75.30632 90.96903 195.72745
#
# Poissons Ratio (x) = 0.14190 0.22964
# Poissons Ratio (y) = 0.11747 0.60000
# Poissons Ratio (z) = 0.08835 0.27886
#
# Static dielectric constant tensor:
#      x y z
#    x 2.060430 0.000000 -0.030560 
#    y 0.000000 2.196690 0.000000 
#    z -0.030560 0.000000 2.114980 
# 
# From -- ./inp_files/168955.got.cif
#   From: 2010.05.17/outbox.cif.g08.bks.cpg/sg15_85_cif.got.tgz:168955.got - 2010.06.03 18:47:42.
