data_PCOD9263633
_publ_section_title
;
Structure prediction by ZEFSAII (Michael W. Deem and Ramdas Pophale) SiO2 
 PCOD9263633
Probable space group: C 2/C
;
_chemical_formula_sum "Si O2"
_cell_formula_units_Z 48
_cell_length_a 13.175597
_cell_length_b 28.017185
_cell_length_c 7.489876
_cell_angle_alpha 90.000000
_cell_angle_beta 49.720959
_cell_angle_gamma 90.000000
_cell_volume 2109.307123
_symmetry_space_group_name_H-M "C 2/C"
_symmetry_group_IT_number 15
_symmetry_cell_setting 'monoclinic'
loop_
_space_group_symop_operation_xyz
x,y,z
-x,y,1/2-z
-x,-y,-z
x,-y,1/2+z
1/2+x,1/2+y,z
1/2-x,1/2+y,1/2-z
1/2-x,1/2-y,-z
1/2+x,1/2-y,1/2+z
loop_
_atom_site_type_symbol
_atom_site_label
_atom_site_fract_x
_atom_site_fract_y
_atom_site_fract_z
Si Si1 0.847254 0.062071 0.990840
Si Si2 0.228678 0.847531 0.769361
Si Si3 0.295665 0.638317 0.613110
Si Si4 0.340887 0.541534 0.414882
Si Si5 0.005336 0.784960 0.958870
Si Si6 0.491691 0.822990 0.962082
O O1 0.795112 0.116060 0.039445
O O2 0.823438 0.056231 0.230342
O O3 0.000000 0.063141 0.750000
O O4 0.787104 0.012442 0.989961
O O5 0.170100 0.857319 0.637285
O O6 0.386198 0.845277 0.568660
O O7 0.145607 0.799231 0.891669
O O8 0.296209 0.580087 0.617053
O O9 0.404461 0.670130 0.593436
O O10 0.153141 0.662361 0.805004
O O11 0.500000 0.538624 0.250000
O O12 0.000000 0.775884 0.750000
O O13 0.975326 0.733181 0.070617
O O14 0.500000 0.840054 0.750000
#
# Coordination Sequence:
#
# PCOD9263633 Si02
#       6
#     8   8   8   8   8   8
#     4  10  20  34  58  88 117 148 187 236 286 338
#     4  10  22  40  61  85 115 156 196 234 285 343
#     4  10  21  40  62  84 114 154 198 236 281 347
#     4  10  19  34  58  88 116 148 189 234 285 339
#     4  10  21  40  64  85 110 152 200 240 284 343
#     4  12  26  38  55  86 121 154 191 241 295 343
#
# _framework density 22.756288000000001
#
# number of rings (size 3 to 8) (size 9 to 14) (size 15 to 20)
#    0.000    1.667    0.000    7.000    0.000   10.000 
#    0.000    0.833    0.000    0.000    0.000    0.000 
#    0.000    0.000    0.000    0.000    0.000    0.000 
#
# Total GULP energy -133609.899639 kJ/mol
# GULP energy per Si atom -5567.079152 kJ/mol
# Density = 2.270449 g / cm^3
# Si number density = 22.756288 Si / 1000 Ang^3
#
#
#
# Elastic Constant Matrix: (Units=GPa)
#
#
# Indices 1 2 3 4 5 6 
#
# 1 47.1344 -3.4420 11.4877 0.0000 -14.3340 0.0000
# 2 -3.4420 73.8674 31.8799 0.0000 -5.5000 0.0000
# 3 11.4877 31.8799 74.0973 0.0000 -10.6408 0.0000
# 4 0.0000 0.0000 0.0000 30.2094 0.0000 12.6049
# 5 -14.3340 -5.5000 -10.6408 0.0000 38.1937 0.0000
# 6 0.0000 0.0000 0.0000 12.6049 0.0000 11.6562
#
#
#
# Elastic Compliance Matrix: (Units=1/GPa)
#
#
# Indices 1 2 3 4 5 6 
#
# 1 0.025185 0.003646 -0.004209 0.000000 0.008804 0.000000
# 2 0.003646 0.017159 -0.007705 0.000000 0.001693 0.000000
# 3 -0.004209 -0.007705 0.017789 0.000000 0.002267 0.000000
# 4 0.000000 0.000000 0.000000 0.060319 0.000000 -0.065229
# 5 0.008804 0.001693 0.002267 0.000000 0.030362 0.000000
# 6 0.000000 0.000000 0.000000 -0.065229 0.000000 0.156330
#
#
# Mechanical properties :
#
#
# Convention : Reuss Voigt Hill
#
# Bulk Modulus (GPa) = 22.93714 30.55002 26.74358
# Shear Modulus (GPa) = 14.78364 26.35676 20.57020
#
# Velocity S-wave (km/s) = 2.55159 3.40695 3.00981
# Velocity P-wave (km/s) = 4.33384 5.37870 4.88429
#
# Compressibility (1/GPa) = 0.04359741
#
# Stress axis : x y z
#
# Youngs Moduli (GPa) = 39.70547 58.27900 56.21557
#
# Poissons Ratio (x) = -0.21246 0.23660
# Poissons Ratio (y) = -0.14475 0.43312
# Poissons Ratio (z) = 0.16711 0.44902
#
# Static dielectric constant tensor:
#      x y z
#    x 1.864330 0.000000 0.019970 
#    y 0.000000 2.112030 0.000000 
#    z 0.019970 0.000000 1.841990 
# 
# From -- ./inp_files/43841.got.cif
#   From: 2010.05.17/outbox.cif.g08.bks.cpg/sg15_22_cif.got.tgz:43841.got - 2010.06.03 18:47:42.
