data_PCOD9263161
_publ_section_title
;
Structure prediction by ZEFSAII (Michael W. Deem and Ramdas Pophale) SiO2 
 PCOD9263161
Probable space group: C 2/C
;
_chemical_formula_sum "Si O2"
_cell_formula_units_Z 56
_cell_length_a 9.144414
_cell_length_b 29.992912
_cell_length_c 13.911165
_cell_angle_alpha 90.000000
_cell_angle_beta 46.765935
_cell_angle_gamma 90.000000
_cell_volume 2779.740373
_symmetry_space_group_name_H-M "C 2/C"
_symmetry_group_IT_number 15
_symmetry_cell_setting 'monoclinic'
loop_
_space_group_symop_operation_xyz
x,y,z
-x,y,1/2-z
-x,-y,-z
x,-y,1/2+z
1/2+x,1/2+y,z
1/2-x,1/2+y,1/2-z
1/2-x,1/2-y,-z
1/2+x,1/2-y,1/2+z
loop_
_atom_site_type_symbol
_atom_site_label
_atom_site_fract_x
_atom_site_fract_y
_atom_site_fract_z
Si Si1 0.228752 0.004923 0.607541
Si Si2 0.720334 0.669248 0.701518
Si Si3 0.557534 0.422797 0.612117
Si Si4 0.233996 0.736237 0.119947
Si Si5 0.502920 0.650196 0.510231
Si Si6 0.838476 0.603051 0.491243
Si Si7 0.138206 0.543709 0.274644
O O1 0.228115 0.960648 0.541268
O O2 0.361890 0.991874 0.639588
O O3 0.000000 0.006790 0.750000
O O4 0.266442 0.053182 0.548405
O O5 0.500000 0.668249 0.750000
O O6 0.791643 0.719599 0.653526
O O7 0.672726 0.658045 0.832634
O O8 0.845001 0.633697 0.582946
O O9 0.500000 0.412909 0.750000
O O10 0.582259 0.378738 0.538963
O O11 0.368760 0.447853 0.647674
O O12 0.000000 0.724949 0.250000
O O13 0.250000 0.750000 0.000000
O O14 0.386904 0.695951 0.068729
O O15 0.681792 0.624470 0.487512
O O16 0.052727 0.591830 0.348149
O O17 0.000000 0.529422 0.250000
#
# Coordination Sequence:
#
# PCOD9263161 Si02
#       7
#     8   8   8   8   8   8   8
#     4   9  20  37  52  74 116 152 185 230 276 334
#     4   9  19  33  48  85 116 141 181 232 284 348
#     4   9  21  38  55  80 112 151 190 229 276 342
#     4  11  19  33  52  86 118 141 179 245 295 332
#     4  11  20  33  58  81 112 148 190 225 286 346
#     4  11  19  32  56  80 113 144 184 235 280 325
#     4  10  19  34  52  84 108 140 198 232 272 327
#
# _framework density 20.145766999999999
#
# number of rings (size 3 to 8) (size 9 to 14) (size 15 to 20)
#    0.000    2.286    5.714    1.714    2.000    0.571 
#    2.571    0.000    0.000    0.857    0.000    0.000 
#    0.000    0.000    0.000    0.000    0.000    0.000 
#
# Total GULP energy -156111.273862 kJ/mol
# GULP energy per Si atom -5575.402638 kJ/mol
# Density = 2.009991 g / cm^3
# Si number density = 20.145767 Si / 1000 Ang^3
#
#
#
# Elastic Constant Matrix: (Units=GPa)
#
#
# Indices 1 2 3 4 5 6 
#
# 1 87.1203 43.1063 24.8413 0.0000 13.0418 0.0000
# 2 43.1063 144.1479 34.5573 0.0000 17.9151 0.0000
# 3 24.8413 34.5573 55.6023 0.0000 11.6150 0.0000
# 4 0.0000 0.0000 0.0000 39.1026 0.0000 2.6252
# 5 13.0418 17.9151 11.6150 0.0000 21.4597 0.0000
# 6 0.0000 0.0000 0.0000 2.6252 0.0000 22.1581
#
#
#
# Elastic Compliance Matrix: (Units=1/GPa)
#
#
# Indices 1 2 3 4 5 6 
#
# 1 0.014674 -0.002925 -0.003817 0.000000 -0.004410 0.000000
# 2 -0.002925 0.009155 -0.003560 0.000000 -0.003938 0.000000
# 3 -0.003817 -0.003560 0.023449 0.000000 -0.007400 0.000000
# 4 0.000000 0.000000 0.000000 0.025779 0.000000 -0.003054
# 5 -0.004410 -0.003938 -0.007400 0.000000 0.056572 0.000000
# 6 0.000000 0.000000 0.000000 -0.003054 0.000000 0.045492
#
#
# Mechanical properties :
#
#
# Convention : Reuss Voigt Hill
#
# Bulk Modulus (GPa) = 37.49053 54.65335 46.07194
# Shear Modulus (GPa) = 24.43598 28.83512 26.63555
#
# Velocity S-wave (km/s) = 3.48653 3.78739 3.64007
# Velocity P-wave (km/s) = 5.90406 6.80541 6.37070
#
# Compressibility (1/GPa) = 0.02667340
#
# Stress axis : x y z
#
# Youngs Moduli (GPa) = 68.14688 109.22941 42.64642
#
# Poissons Ratio (x) = 0.31950 0.16277
# Poissons Ratio (y) = 0.19934 0.15184
# Poissons Ratio (z) = 0.26010 0.38891
#
# Static dielectric constant tensor:
#      x y z
#    x 1.726810 0.000000 -0.025760 
#    y 0.000000 1.722970 0.000000 
#    z -0.025760 0.000000 1.859460 
# 
# From -- ./inp_files/139463.got.cif
#   From: 2010.05.17/outbox.cif.g08.bks.cpg/sg15_70_cif.got.tgz:139463.got - 2010.06.03 18:47:42.
