data_PCOD9263078
_publ_section_title
;
Structure prediction by ZEFSAII (Michael W. Deem and Ramdas Pophale) SiO2 
 PCOD9263078
Probable space group: C 2/C
;
_chemical_formula_sum "Si O2"
_cell_formula_units_Z 36
_cell_length_a 7.803973
_cell_length_b 14.380539
_cell_length_c 17.669743
_cell_angle_alpha 90.000000
_cell_angle_beta 129.831235
_cell_angle_gamma 90.000000
_cell_volume 1522.808551
_symmetry_space_group_name_H-M "C 2/C"
_symmetry_group_IT_number 15
_symmetry_cell_setting 'monoclinic'
loop_
_space_group_symop_operation_xyz
x,y,z
-x,y,1/2-z
-x,-y,-z
x,-y,1/2+z
1/2+x,1/2+y,z
1/2-x,1/2+y,1/2-z
1/2-x,1/2-y,-z
1/2+x,1/2-y,1/2+z
loop_
_atom_site_type_symbol
_atom_site_label
_atom_site_fract_x
_atom_site_fract_y
_atom_site_fract_z
Si Si1 0.000000 0.507331 0.750000
Si Si2 0.917074 0.360567 0.503332
Si Si3 0.785611 0.132728 0.230571
Si Si4 0.277332 0.041825 0.535659
Si Si5 0.001563 0.208016 0.072716
O O1 0.840746 0.441394 0.754240
O O2 0.856817 0.556899 0.644302
O O3 0.114673 0.336853 0.617854
O O4 0.028037 0.415901 0.463550
O O5 0.849196 0.263219 0.445715
O O6 0.763442 0.435153 0.502888
O O7 0.000000 0.089756 0.250000
O O8 0.880485 0.211961 0.312704
O O9 0.053861 0.100086 0.457994
O O10 0.750000 0.250000 0.000000
#
# Coordination Sequence:
#
# PCOD9263078 Si02
#       5
#     4   8   8   8   8
#     4  10  24  36  58  92 122 158 206 264 318 382
#     4   9  19  36  59  88 123 162 206 266 315 382
#     4  11  20  39  60  83 125 162 201 266 322 377
#     4   9  18  35  56  87 121 155 207 258 311 382
#     4  10  19  33  63  89 112 171 209 249 331 384
#
# _framework density 23.640529999999998
#
# number of rings (size 3 to 8) (size 9 to 14) (size 15 to 20)
#    0.000    2.222    4.444    0.000    0.000    4.444 
#    0.000    4.444    0.000   13.333    2.889    0.000 
#    0.000    0.000    0.000    0.000    0.000    0.000 
#
# Total GULP energy -100480.969775 kJ/mol
# GULP energy per Si atom -5582.276099 kJ/mol
# Density = 2.358672 g / cm^3
# Si number density = 23.640530 Si / 1000 Ang^3
#
#
#
# Elastic Constant Matrix: (Units=GPa)
#
#
# Indices 1 2 3 4 5 6 
#
# 1 94.3796 18.2234 11.8675 0.0000 -20.8753 0.0000
# 2 18.2234 93.4112 17.8010 0.0000 -5.7833 0.0000
# 3 11.8675 17.8010 149.0637 0.0000 -36.9002 0.0000
# 4 0.0000 0.0000 0.0000 49.9672 0.0000 -9.9264
# 5 -20.8753 -5.7833 -36.9002 0.0000 32.0010 0.0000
# 6 0.0000 0.0000 0.0000 -9.9264 0.0000 34.0774
#
#
#
# Elastic Compliance Matrix: (Units=1/GPa)
#
#
# Indices 1 2 3 4 5 6 
#
# 1 0.013046 -0.002250 0.001730 0.000000 0.010098 0.000000
# 2 -0.002250 0.011353 -0.001444 0.000000 -0.001081 0.000000
# 3 0.001730 -0.001444 0.009738 0.000000 0.012096 0.000000
# 4 0.000000 0.000000 0.000000 0.021242 0.000000 0.006188
# 5 0.010098 -0.001081 0.012096 0.000000 0.051589 0.000000
# 6 0.000000 0.000000 0.000000 0.006188 0.000000 0.031147
#
#
# Mechanical properties :
#
#
# Convention : Reuss Voigt Hill
#
# Bulk Modulus (GPa) = 33.10364 48.07092 40.58728
# Shear Modulus (GPa) = 32.87054 42.47329 37.67191
#
# Velocity S-wave (km/s) = 3.73289 4.24327 3.99624
# Velocity P-wave (km/s) = 5.71075 6.66223 6.20476
#
# Compressibility (1/GPa) = 0.03020816
#
# Stress axis : x y z
#
# Youngs Moduli (GPa) = 76.65194 88.08628 102.69513
#
# Poissons Ratio (x) = 0.19815 -0.17765
# Poissons Ratio (y) = 0.17243 0.14832
# Poissons Ratio (z) = -0.13260 0.12722
#
# Static dielectric constant tensor:
#      x y z
#    x 2.342270 0.000000 0.598530 
#    y 0.000000 2.067720 0.000000 
#    z 0.598530 0.000000 2.840110 
# 
# From -- ./inp_files/188582.got.cif
#   From: 2010.05.17/outbox.cif.g08.bks.cpg/sg15_95_cif.got.tgz:188582.got - 2010.06.03 18:47:42.
