data_PCOD9263062
_publ_section_title
;
Structure prediction by ZEFSAII (Michael W. Deem and Ramdas Pophale) SiO2 
 PCOD9263062
Probable space group: C 2/C
;
_chemical_formula_sum "Si O2"
_cell_formula_units_Z 56
_cell_length_a 11.176761
_cell_length_b 14.984896
_cell_length_c 14.455349
_cell_angle_alpha 90.000000
_cell_angle_beta 62.087678
_cell_angle_gamma 90.000000
_cell_volume 2139.370098
_symmetry_space_group_name_H-M "C 2/C"
_symmetry_group_IT_number 15
_symmetry_cell_setting 'monoclinic'
loop_
_space_group_symop_operation_xyz
x,y,z
-x,y,1/2-z
-x,-y,-z
x,-y,1/2+z
1/2+x,1/2+y,z
1/2-x,1/2+y,1/2-z
1/2-x,1/2-y,-z
1/2+x,1/2-y,1/2+z
loop_
_atom_site_type_symbol
_atom_site_label
_atom_site_fract_x
_atom_site_fract_y
_atom_site_fract_z
Si Si1 0.419276 0.883726 0.648488
Si Si2 0.282613 0.682466 0.570307
Si Si3 0.045086 0.566284 0.626731
Si Si4 0.215076 0.341060 0.301996
Si Si5 0.349709 0.461638 0.764574
Si Si6 0.327116 0.181911 0.379766
Si Si7 0.063752 0.902538 0.962820
O O1 0.277420 0.904310 0.647137
O O2 0.539560 0.810730 0.604887
O O3 0.371001 0.875186 0.772895
O O4 0.508017 0.971857 0.599011
O O5 0.250000 0.750000 0.500000
O O6 0.199694 0.593488 0.572969
O O7 0.232949 0.702718 0.693169
O O8 0.439801 0.663427 0.519021
O O9 0.000000 0.563044 0.750000
O O10 0.943532 0.640134 0.621865
O O11 0.286366 0.439113 0.271785
O O12 0.279586 0.275291 0.353217
O O13 0.500000 0.475314 0.750000
O O14 0.388904 0.406087 0.659701
O O15 0.197908 0.129541 0.468044
O O16 0.000000 0.000000 0.000000
#
# Coordination Sequence:
#
# PCOD9263062 Si02
#       7
#     8   8   8   8   8   8   8
#     4   9  18  34  60  86 111 161 209 256 308 373
#     4  11  22  35  60  93 133 170 212 265 328 376
#     4   9  16  34  57  83 113 163 215 242 295 383
#     4  10  21  36  59  92 126 167 214 268 321 373
#     4  10  22  39  65  93 121 164 224 264 314 396
#     4  10  19  33  61  91 121 160 217 255 307 388
#     4  11  21  38  63  94 129 173 213 263 334 387
#
# _framework density 26.175927999999999
#
# number of rings (size 3 to 8) (size 9 to 14) (size 15 to 20)
#    0.000    2.000    2.857    1.714    2.000    2.286 
#    0.000    0.714    0.000   37.714    0.000    0.000 
#    0.000    0.000    0.000    0.000    0.000    0.000 
#
# Total GULP energy -156363.726391 kJ/mol
# GULP energy per Si atom -5584.418800 kJ/mol
# Density = 2.611635 g / cm^3
# Si number density = 26.175928 Si / 1000 Ang^3
#
#
#
# Elastic Constant Matrix: (Units=GPa)
#
#
# Indices 1 2 3 4 5 6 
#
# 1 191.6366 60.6014 47.5695 0.0000 -45.3831 0.0000
# 2 60.6014 115.4434 28.5084 0.0000 -2.1882 0.0000
# 3 47.5695 28.5084 54.8196 0.0000 1.1490 0.0000
# 4 0.0000 0.0000 0.0000 27.4274 0.0000 -1.3255
# 5 -45.3831 -2.1882 1.1490 0.0000 49.0873 0.0000
# 6 0.0000 0.0000 0.0000 -1.3255 0.0000 -12.7602
#
#
#
# Elastic Compliance Matrix: (Units=1/GPa)
#
#
# Indices 1 2 3 4 5 6 
#
# 1 0.010469 -0.003463 -0.007487 0.000000 0.009700 0.000000
# 2 -0.003463 0.011100 -0.002712 0.000000 -0.002643 0.000000
# 3 -0.007487 -0.002712 0.026309 0.000000 -0.007658 0.000000
# 4 0.000000 0.000000 0.000000 0.036278 0.000000 -0.003768
# 5 0.009700 -0.002643 -0.007658 0.000000 0.029401 0.000000
# 6 0.000000 0.000000 0.000000 -0.003768 0.000000 -0.077977
#
#
# Mechanical properties :
#
#
# Convention : Reuss Voigt Hill
#
# Bulk Modulus (GPa) = 48.65137 70.58425 59.61781
# Shear Modulus (GPa) = 71.68126 27.76560 49.72343
#
# Velocity S-wave (km/s) = 5.23869 3.26042 4.36315
# Velocity P-wave (km/s) = 7.43091 6.41854 6.94320
#
# Compressibility (1/GPa) = 0.02055440
#
# Stress axis : x y z
#
# Youngs Moduli (GPa) = 95.52273 90.09284 38.00970
#
# Poissons Ratio (x) = 0.31198 0.28457
# Poissons Ratio (y) = 0.33078 0.10308
# Poissons Ratio (z) = 0.71515 0.24433
#
# Static dielectric constant tensor:
#      x y z
#    x 2.147160 0.000000 0.013470 
#    y 0.000000 2.077150 0.000000 
#    z 0.013470 0.000000 2.067140 
# 
# From -- ./inp_files/198204.got.cif
#   From: 2010.05.17/outbox.cif.g08.bks.cpg/sg15_100_cif.got.tgz:198204.got - 2010.06.03 18:47:42.
