data_PCOD9263027
_publ_section_title
;
Structure prediction by ZEFSAII (Michael W. Deem and Ramdas Pophale) SiO2 
 PCOD9263027
Probable space group: C 2/C
;
_chemical_formula_sum "Si O2"
_cell_formula_units_Z 56
_cell_length_a 9.010625
_cell_length_b 13.481700
_cell_length_c 20.645257
_cell_angle_alpha 90.000000
_cell_angle_beta 58.978441
_cell_angle_gamma 90.000000
_cell_volume 2149.251469
_symmetry_space_group_name_H-M "C 2/C"
_symmetry_group_IT_number 15
_symmetry_cell_setting 'monoclinic'
loop_
_space_group_symop_operation_xyz
x,y,z
-x,y,1/2-z
-x,-y,-z
x,-y,1/2+z
1/2+x,1/2+y,z
1/2-x,1/2+y,1/2-z
1/2-x,1/2-y,-z
1/2+x,1/2-y,1/2+z
loop_
_atom_site_type_symbol
_atom_site_label
_atom_site_fract_x
_atom_site_fract_y
_atom_site_fract_z
Si Si1 0.751743 0.144951 0.440513
Si Si2 0.890877 0.170069 0.197580
Si Si3 0.500000 0.515945 0.250000
Si Si4 0.605094 0.153422 0.163714
Si Si5 0.038987 0.131174 0.626372
Si Si6 0.000000 0.355757 0.250000
Si Si7 0.744236 0.619899 0.916941
Si Si8 0.644543 0.142326 0.016400
O O1 0.782343 0.264336 0.426120
O O2 0.764365 0.088193 0.506486
O O3 0.554546 0.138088 0.460509
O O4 0.926356 0.118845 0.362879
O O5 0.787576 0.178024 0.155220
O O6 0.889567 0.276551 0.232442
O O7 0.839793 0.090884 0.264269
O O8 0.521906 0.437417 0.302998
O O9 0.500000 0.115958 0.250000
O O10 0.520522 0.255526 0.156096
O O11 0.643746 0.096698 0.088633
O O12 0.237774 0.101377 0.567516
O O13 0.933541 0.115771 0.583480
O O14 0.115278 0.409712 0.169920
O O15 0.750000 0.250000 0.000000
#
# Coordination Sequence:
#
# PCOD9263027 Si02
#       8
#     8   8   4   8   8   4   8   8
#     4  10  20  36  62  94 133 165 216 268 325 384
#     4  10  23  40  63  90 128 181 211 263 325 401
#     4  11  26  44  66  90 141 172 214 261 342 396
#     4  11  21  37  69  99 124 163 227 269 319 384
#     4  11  22  39  63  96 130 170 212 273 325 379
#     4   9  20  30  60  92 125 156 216 265 316 368
#     4  10  19  33  59  96 128 159 211 273 324 368
#     4  10  21  35  60 101 132 160 213 278 327 372
#
# _framework density 26.055581
#
# number of rings (size 3 to 8) (size 9 to 14) (size 15 to 20)
#    0.000    1.714    3.571    1.714   14.000    0.000 
#    0.000    3.571    4.714    0.000    0.000    0.000 
#    0.000    0.000    0.000    0.000    0.000    0.000 
#
# Total GULP energy -155940.849717 kJ/mol
# GULP energy per Si atom -5569.316061 kJ/mol
# Density = 2.599628 g / cm^3
# Si number density = 26.055581 Si / 1000 Ang^3
#
#
#
# Elastic Constant Matrix: (Units=GPa)
#
#
# Indices 1 2 3 4 5 6 
#
# 1 105.4016 -5.7914 48.0415 0.0000 19.3726 0.0000
# 2 -5.7914 53.6533 -0.4161 0.0000 9.6991 0.0000
# 3 48.0415 -0.4161 136.3313 0.0000 14.9453 0.0000
# 4 0.0000 0.0000 0.0000 29.4682 0.0000 9.3859
# 5 19.3726 9.6991 14.9453 0.0000 48.9278 0.0000
# 6 0.0000 0.0000 0.0000 9.3859 0.0000 -19.1675
#
#
#
# Elastic Compliance Matrix: (Units=1/GPa)
#
#
# Indices 1 2 3 4 5 6 
#
# 1 0.012070 0.001999 -0.003807 0.000000 -0.004012 0.000000
# 2 0.001999 0.019694 -0.000134 0.000000 -0.004655 0.000000
# 3 -0.003807 -0.000134 0.008803 0.000000 -0.001155 0.000000
# 4 0.000000 0.000000 0.000000 0.029356 0.000000 0.014375
# 5 -0.004012 -0.004655 -0.001155 0.000000 0.023302 0.000000
# 6 0.000000 0.000000 0.000000 0.014375 0.000000 -0.045132
#
#
# Mechanical properties :
#
#
# Convention : Reuss Voigt Hill
#
# Bulk Modulus (GPa) = 27.26134 42.11715 34.68924
# Shear Modulus (GPa) = 77.87372 28.74916 53.31144
#
# Velocity S-wave (km/s) = 5.47288 3.32532 4.52825
# Velocity P-wave (km/s) = 7.10085 5.56265 6.37829
#
# Compressibility (1/GPa) = 0.03668198
#
# Stress axis : x y z
#
# Youngs Moduli (GPa) = 82.84863 50.77617 113.59820
#
# Poissons Ratio (x) = -0.10148 0.43252
# Poissons Ratio (y) = -0.16559 0.01522
# Poissons Ratio (z) = 0.31544 0.00680
#
# Static dielectric constant tensor:
#      x y z
#    x 2.098460 0.000000 0.067500 
#    y 0.000000 2.200010 0.000000 
#    z 0.067500 0.000000 3.204840 
# 
# From -- ./inp_files/232636.got.cif
#   From: 2010.05.17/outbox.cif.g08.bks.cpg/sg15_117_cif.got.tgz:232636.got - 2010.06.03 18:47:42.
