data_PCOD9263360
_publ_section_title
;
Structure prediction by ZEFSAII (Michael W. Deem and Ramdas Pophale) SiO2 
 PCOD9263360
Probable space group: C 2/C
;
_chemical_formula_sum "Si O2"
_cell_formula_units_Z 56
_cell_length_a 12.810895
_cell_length_b 29.847740
_cell_length_c 9.256070
_cell_angle_alpha 90.000000
_cell_angle_beta 54.794559
_cell_angle_gamma 90.000000
_cell_volume 2891.928376
_symmetry_space_group_name_H-M "C 2/C"
_symmetry_group_IT_number 15
_symmetry_cell_setting 'monoclinic'
loop_
_space_group_symop_operation_xyz
x,y,z
-x,y,1/2-z
-x,-y,-z
x,-y,1/2+z
1/2+x,1/2+y,z
1/2-x,1/2+y,1/2-z
1/2-x,1/2-y,-z
1/2+x,1/2-y,1/2+z
loop_
_atom_site_type_symbol
_atom_site_label
_atom_site_fract_x
_atom_site_fract_y
_atom_site_fract_z
Si Si1 0.481931 0.953683 0.932102
Si Si2 0.154122 0.942427 0.631071
Si Si3 0.217607 0.902623 0.108833
Si Si4 0.705683 0.883299 0.781777
Si Si5 0.145350 0.193171 0.688115
Si Si6 0.632909 0.521661 0.845321
Si Si7 0.136102 0.709380 0.226056
O O1 0.500000 0.964400 0.750000
O O2 0.586405 0.916533 0.888535
O O3 0.347112 0.927960 0.051151
O O4 0.500000 0.000000 0.000000
O O5 0.204236 0.896315 0.657126
O O6 0.196594 0.958513 0.438857
O O7 0.000000 0.941056 0.750000
O O8 0.198253 0.981034 0.707938
O O9 0.193848 0.854867 0.204158
O O10 0.114906 0.937874 0.248346
O O11 0.226842 0.894089 0.928412
O O12 0.655732 0.832432 0.816068
O O13 0.141996 0.239687 0.780077
O O14 0.245697 0.203614 0.479429
O O15 0.000000 0.186307 0.750000
O O16 0.500000 0.500000 0.000000
O O17 0.000000 0.704589 0.250000
#
# Coordination Sequence:
#
# PCOD9263360 Si02
#       7
#     8   8   8   8   8   8   8
#     4  10  21  35  53  77 106 142 185 226 270 326
#     4  10  21  34  49  72 103 140 179 218 265 321
#     4  10  20  35  55  81 111 141 179 228 276 325
#     4  10  19  34  56  78 105 142 180 225 275 324
#     4   9  18  30  52  85 114 140 177 229 282 331
#     4  10  21  35  50  71 104 140 176 218 267 323
#     4   9  17  33  55  82 112 143 181 226 279 336
#
# _framework density 19.364241
#
# number of rings (size 3 to 8) (size 9 to 14) (size 15 to 20)
#    0.000    2.286    0.000    3.857    0.000   10.857 
#    0.000    0.000    0.000    0.857    0.000    1.000 
#    0.000    0.000    0.000    0.000    0.000    0.000 
#
# Total GULP energy -156007.470571 kJ/mol
# GULP energy per Si atom -5571.695378 kJ/mol
# Density = 1.932017 g / cm^3
# Si number density = 19.364241 Si / 1000 Ang^3
#
#
#
# Elastic Constant Matrix: (Units=GPa)
#
#
# Indices 1 2 3 4 5 6 
#
# 1 92.5175 55.2691 38.5252 0.0000 -3.2758 0.0000
# 2 55.2691 203.5438 32.3444 0.0000 -4.1639 0.0000
# 3 38.5252 32.3444 59.4329 0.0000 -8.9876 0.0000
# 4 0.0000 0.0000 0.0000 24.4034 0.0000 4.7840
# 5 -3.2758 -4.1639 -8.9876 0.0000 17.0994 0.0000
# 6 0.0000 0.0000 0.0000 4.7840 0.0000 24.5191
#
#
#
# Elastic Compliance Matrix: (Units=1/GPa)
#
#
# Indices 1 2 3 4 5 6 
#
# 1 0.016435 -0.003022 -0.009390 0.000000 -0.002523 0.000000
# 2 -0.003022 0.005935 -0.001238 0.000000 0.000215 0.000000
# 3 -0.009390 -0.001238 0.025278 0.000000 0.011186 0.000000
# 4 0.000000 0.000000 0.000000 0.042608 0.000000 -0.008313
# 5 -0.002523 0.000215 0.011186 0.000000 0.063930 0.000000
# 6 0.000000 0.000000 0.000000 -0.008313 0.000000 0.042406
#
#
# Mechanical properties :
#
#
# Convention : Reuss Voigt Hill
#
# Bulk Modulus (GPa) = 49.14837 67.53019 58.33928
# Shear Modulus (GPa) = 21.67551 28.49477 25.08514
#
# Velocity S-wave (km/s) = 3.34931 3.84019 3.60312
# Velocity P-wave (km/s) = 6.35557 7.39000 6.89222
#
# Compressibility (1/GPa) = 0.02034655
#
# Stress axis : x y z
#
# Youngs Moduli (GPa) = 60.84569 168.49987 39.56010
#
# Poissons Ratio (x) = 0.50923 0.37148
# Poissons Ratio (y) = 0.18388 0.04898
# Poissons Ratio (z) = 0.57136 0.20864
#
# Static dielectric constant tensor:
#      x y z
#    x 1.512200 0.000000 0.128450 
#    y 0.000000 1.726130 0.000000 
#    z 0.128450 0.000000 1.607860 
# 
# From -- ./inp_files/35584.got.cif
#   From: 2010.05.17/outbox.cif.g08.bks.cpg/sg15_18_cif.got.tgz:35584.got - 2010.06.03 18:47:42.
