data_PCOD9263054
_publ_section_title
;
Structure prediction by ZEFSAII (Michael W. Deem and Ramdas Pophale) SiO2 
 PCOD9263054
Probable space group: C 2/C
;
_chemical_formula_sum "Si O2"
_cell_formula_units_Z 48
_cell_length_a 27.910009
_cell_length_b 16.242866
_cell_length_c 9.986745
_cell_angle_alpha 90.000000
_cell_angle_beta 153.806392
_cell_angle_gamma 90.000000
_cell_volume 1998.409961
_symmetry_space_group_name_H-M "C 2/C"
_symmetry_group_IT_number 15
_symmetry_cell_setting 'monoclinic'
loop_
_space_group_symop_operation_xyz
x,y,z
-x,y,1/2-z
-x,-y,-z
x,-y,1/2+z
1/2+x,1/2+y,z
1/2-x,1/2+y,1/2-z
1/2-x,1/2-y,-z
1/2+x,1/2-y,1/2+z
loop_
_atom_site_type_symbol
_atom_site_label
_atom_site_fract_x
_atom_site_fract_y
_atom_site_fract_z
Si Si1 0.215150 0.322635 0.264922
Si Si2 0.018494 0.094434 0.513238
Si Si3 0.173033 0.100272 0.680099
Si Si4 0.995267 0.380120 0.088736
Si Si5 0.559167 0.258351 0.547604
Si Si6 0.826871 0.530122 0.629153
O O1 0.234694 0.346527 0.160402
O O2 0.322178 0.273299 0.580073
O O3 0.106274 0.272715 0.024416
O O4 0.198238 0.405962 0.313283
O O5 0.995803 0.153457 0.579240
O O6 0.131423 0.116790 0.724657
O O7 0.926143 0.110207 0.170115
O O8 0.000000 0.000000 0.500000
O O9 0.216363 0.007153 0.795140
O O10 0.996274 0.307649 0.981678
O O11 0.104765 0.427108 0.316757
O O12 0.000000 0.344917 0.250000
O O13 0.902043 0.451275 0.858180
#
# Coordination Sequence:
#
# PCOD9263054 Si02
#       6
#     8   8   8   8   8   8
#     4   9  18  34  59  80 112 158 189 234 293 358
#     4  10  21  36  60  84 115 156 198 243 293 355
#     4  10  19  33  61  83 112 152 192 240 293 347
#     4  10  21  34  60  86 115 155 197 243 294 354
#     4   9  19  35  56  81 114 151 194 239 297 347
#     4  10  20  37  56  89 117 150 197 245 291 352
#
# _framework density 24.019096000000001
#
# number of rings (size 3 to 8) (size 9 to 14) (size 15 to 20)
#    0.000    2.333    0.000    3.000    4.667    0.000 
#    0.000    0.833   29.333    0.000    0.000    0.000 
#    0.000    0.000    0.000    0.000    0.000    0.000 
#
# Total GULP energy -133973.112179 kJ/mol
# GULP energy per Si atom -5582.213007 kJ/mol
# Density = 2.396443 g / cm^3
# Si number density = 24.019096 Si / 1000 Ang^3
#
#
#
# Elastic Constant Matrix: (Units=GPa)
#
#
# Indices 1 2 3 4 5 6 
#
# 1 194.1316 75.9463 35.3163 0.0000 22.2084 0.0000
# 2 75.9463 119.3508 10.6930 0.0000 15.2491 0.0000
# 3 35.3163 10.6930 41.1111 0.0000 19.4769 0.0000
# 4 0.0000 0.0000 0.0000 41.5590 0.0000 3.4480
# 5 22.2084 15.2491 19.4769 0.0000 29.3010 0.0000
# 6 0.0000 0.0000 0.0000 3.4480 0.0000 29.2618
#
#
#
# Elastic Compliance Matrix: (Units=1/GPa)
#
#
# Indices 1 2 3 4 5 6 
#
# 1 0.007965 -0.004574 -0.005722 0.000000 0.000147 0.000000
# 2 -0.004574 0.011604 0.003109 0.000000 -0.004638 0.000000
# 3 -0.005722 0.003109 0.039620 0.000000 -0.023617 0.000000
# 4 0.000000 0.000000 0.000000 0.024300 0.000000 -0.002863
# 5 0.000147 -0.004638 -0.023617 0.000000 0.052129 0.000000
# 6 0.000000 0.000000 0.000000 -0.002863 0.000000 0.034512
#
#
# Mechanical properties :
#
#
# Convention : Reuss Voigt Hill
#
# Bulk Modulus (GPa) = 22.31471 66.50052 44.40761
# Shear Modulus (GPa) = 25.06989 35.53358 30.30173
#
# Velocity S-wave (km/s) = 3.23421 3.85045 3.55571
# Velocity P-wave (km/s) = 4.82260 6.89309 5.94862
#
# Compressibility (1/GPa) = 0.04481349
#
# Stress axis : x y z
#
# Youngs Moduli (GPa) = 125.55242 86.18045 25.23958
#
# Poissons Ratio (x) = 0.39422 0.14443
# Poissons Ratio (y) = 0.57433 -0.07847
# Poissons Ratio (z) = 0.71843 -0.26793
#
# Static dielectric constant tensor:
#      x y z
#    x 1.964880 0.000000 -0.020700 
#    y 0.000000 1.917710 0.000000 
#    z -0.020700 0.000000 2.020770 
# 
# From -- ./inp_files/126907.got.cif
#   From: 2010.05.17/outbox.cif.g08.bks.cpg/sg15_64_cif.got.tgz:126907.got - 2010.06.03 18:47:42.
