data_PCOD9263459
_publ_section_title
;
Structure prediction by ZEFSAII (Michael W. Deem and Ramdas Pophale) SiO2 
 PCOD9263459
Probable space group: C 2/C
;
_chemical_formula_sum "Si O2"
_cell_formula_units_Z 64
_cell_length_a 19.967448
_cell_length_b 8.394611
_cell_length_c 23.262849
_cell_angle_alpha 90.000000
_cell_angle_beta 65.436738
_cell_angle_gamma 90.000000
_cell_volume 3546.419447
_symmetry_space_group_name_H-M "C 2/C"
_symmetry_group_IT_number 15
_symmetry_cell_setting 'monoclinic'
loop_
_space_group_symop_operation_xyz
x,y,z
-x,y,1/2-z
-x,-y,-z
x,-y,1/2+z
1/2+x,1/2+y,z
1/2-x,1/2+y,1/2-z
1/2-x,1/2-y,-z
1/2+x,1/2-y,1/2+z
loop_
_atom_site_type_symbol
_atom_site_label
_atom_site_fract_x
_atom_site_fract_y
_atom_site_fract_z
Si Si1 0.930835 0.149925 0.818159
Si Si2 0.457844 0.225856 0.426742
Si Si3 0.860116 0.220851 0.067700
Si Si4 0.228096 0.836813 0.177003
Si Si5 0.101746 0.936765 0.365072
Si Si6 0.549516 0.934152 0.374815
Si Si7 0.311315 0.130090 0.205515
Si Si8 0.992025 0.855546 0.684795
O O1 0.934587 0.274138 0.868289
O O2 0.856239 0.151594 0.810311
O O3 0.000000 0.168616 0.750000
O O4 0.941622 0.980331 0.846392
O O5 0.392945 0.269728 0.492769
O O6 0.525619 0.349380 0.409185
O O7 0.493371 0.054347 0.424333
O O8 0.777398 0.281346 0.105872
O O9 0.907376 0.339011 0.091468
O O10 0.871440 0.050562 0.093800
O O11 0.231044 0.695237 0.223415
O O12 0.259951 0.003999 0.190112
O O13 0.160668 0.797095 0.332198
O O14 0.078111 0.044907 0.317431
O O15 0.508825 0.806837 0.349501
O O16 0.611322 0.032506 0.316197
O O17 0.000000 0.822517 0.750000
#
# Coordination Sequence:
#
# PCOD9263459 Si02
#       8
#     8   8   8   8   8   8   8   8
#     4  10  21  37  55  74 103 141 178 220 269 323
#     4  10  19  34  57  79 109 144 178 221 266 318
#     4  10  20  34  54  81 110 142 179 224 268 317
#     4  11  22  35  54  80 109 140 176 218 271 318
#     4   9  18  35  56  81 105 140 183 218 265 314
#     4   9  19  33  54  82 106 136 180 223 263 310
#     4  10  20  35  55  78 107 136 171 222 266 310
#     4   9  17  31  54  79 107 134 170 219 265 313
#
# _framework density 18.046371000000001
#
# number of rings (size 3 to 8) (size 9 to 14) (size 15 to 20)
#    0.000    2.250    0.000    4.500    0.000    6.000 
#    0.000    1.875    0.000    1.500    0.000    0.000 
#    0.000    0.000    0.000    0.000    0.000    0.000 
#
# Total GULP energy -178195.853312 kJ/mol
# GULP energy per Si atom -5568.620416 kJ/mol
# Density = 1.800530 g / cm^3
# Si number density = 18.046371 Si / 1000 Ang^3
#
#
#
# Elastic Constant Matrix: (Units=GPa)
#
#
# Indices 1 2 3 4 5 6 
#
# 1 79.4822 19.4474 26.1475 0.0000 -9.7192 0.0001
# 2 19.4474 78.0923 23.1359 0.0002 -0.0837 0.0001
# 3 26.1475 23.1359 105.5292 -0.0001 -17.1160 0.0000
# 4 0.0000 0.0002 -0.0001 14.4677 0.0000 2.5132
# 5 -9.7192 -0.0837 -17.1160 0.0000 22.8268 0.0001
# 6 0.0001 0.0001 0.0000 2.5132 0.0001 13.9056
#
#
#
# Elastic Compliance Matrix: (Units=1/GPa)
#
#
# Indices 1 2 3 4 5 6 
#
# 1 0.014596 -0.002969 -0.002231 0.000000 0.004531 0.000000
# 2 -0.002969 0.014426 -0.002987 0.000000 -0.003451 0.000000
# 3 -0.002231 -0.002987 0.011985 0.000000 0.008026 0.000000
# 4 0.000000 0.000000 0.000000 0.071360 0.000000 -0.012897
# 5 0.004531 -0.003451 0.008026 0.000000 0.051743 0.000000
# 6 0.000000 0.000000 0.000000 -0.012897 0.000000 0.074244
#
#
# Mechanical properties :
#
#
# Convention : Reuss Voigt Hill
#
# Bulk Modulus (GPa) = 40.59403 44.50724 42.55064
# Shear Modulus (GPa) = 19.01586 23.19821 21.10704
#
# Velocity S-wave (km/s) = 3.24963 3.58925 3.42365
# Velocity P-wave (km/s) = 6.05171 6.47249 6.26564
#
# Compressibility (1/GPa) = 0.02463416
#
# Stress axis : x y z
#
# Youngs Moduli (GPa) = 68.51294 69.31971 83.43546
#
# Poissons Ratio (x) = 0.20582 0.18611
# Poissons Ratio (y) = 0.20342 0.24920
# Poissons Ratio (z) = 0.15283 0.20704
#
# Static dielectric constant tensor:
#      x y z
#    x 1.623420 0.000000 0.000660 
#    y 0.000000 1.641430 0.000000 
#    z 0.000660 0.000000 1.644510 
# 
# From -- ./inp_files/279362.got.cif
#   From: 2010.05.17/outbox.cif.g08.bks.cpg/sg15_140_cif.got.tgz:279362.got - 2010.06.03 18:47:42.
