data_PCOD9263040
_publ_section_title
;
Structure prediction by ZEFSAII (Michael W. Deem and Ramdas Pophale) SiO2 
 PCOD9263040
Probable space group: C 2/C
;
_chemical_formula_sum "Si O2"
_cell_formula_units_Z 48
_cell_length_a 7.615809
_cell_length_b 20.387533
_cell_length_c 16.678966
_cell_angle_alpha 90.000000
_cell_angle_beta 127.924897
_cell_angle_gamma 90.000000
_cell_volume 2042.801419
_symmetry_space_group_name_H-M "C 2/C"
_symmetry_group_IT_number 15
_symmetry_cell_setting 'monoclinic'
loop_
_space_group_symop_operation_xyz
x,y,z
-x,y,1/2-z
-x,-y,-z
x,-y,1/2+z
1/2+x,1/2+y,z
1/2-x,1/2+y,1/2-z
1/2-x,1/2-y,-z
1/2+x,1/2-y,1/2+z
loop_
_atom_site_type_symbol
_atom_site_label
_atom_site_fract_x
_atom_site_fract_y
_atom_site_fract_z
Si Si1 0.529082 0.291931 0.537455
Si Si2 0.801283 0.559519 0.760808
Si Si3 0.449576 0.923127 0.831937
Si Si4 0.398216 0.197121 0.810002
Si Si5 0.450083 0.429870 0.026005
Si Si6 0.539642 0.215579 0.144436
O O1 0.471267 0.248910 0.598857
O O2 0.454078 0.366489 0.496909
O O3 0.484810 0.245260 0.449967
O O4 0.797588 0.298440 0.612339
O O5 0.862872 0.623224 0.830463
O O6 0.575256 0.570934 0.646749
O O7 0.000000 0.555602 0.750000
O O8 0.811213 0.489480 0.806665
O O9 0.500000 0.920635 0.750000
O O10 0.335458 0.854079 0.820361
O O11 0.681714 0.925694 0.946686
O O12 0.500000 0.193284 0.750000
O O13 0.161484 0.229139 0.727952
O O14 0.500000 0.500000 0.000000
#
# Coordination Sequence:
#
# PCOD9263040 Si02
#       6
#     8   8   8   8   8   8
#     4  10  22  38  64  91 116 160 203 253 300 362
#     4  10  20  35  54  88 122 156 203 251 299 363
#     4  10  19  33  60  87 116 160 207 252 293 359
#     4  11  23  39  59  88 128 158 196 255 310 361
#     4  11  18  34  60  89 116 157 208 246 296 364
#     4  10  20  39  60  90 118 150 209 249 303 358
#
# _framework density 23.497143000000001
#
# number of rings (size 3 to 8) (size 9 to 14) (size 15 to 20)
#    0.000    1.667    5.000    2.500    0.000    0.667 
#    0.000    0.833    0.000    6.000    0.000    0.000 
#    0.000    0.000    0.000    0.000    0.000    0.000 
#
# Total GULP energy -133975.815654 kJ/mol
# GULP energy per Si atom -5582.325652 kJ/mol
# Density = 2.344366 g / cm^3
# Si number density = 23.497143 Si / 1000 Ang^3
#
#
#
# Elastic Constant Matrix: (Units=GPa)
#
#
# Indices 1 2 3 4 5 6 
#
# 1 26.9139 10.6770 7.9324 0.0000 1.6471 0.0000
# 2 10.6770 252.3602 27.8719 0.0000 -14.9136 0.0000
# 3 7.9324 27.8719 85.2244 0.0000 12.0281 0.0000
# 4 0.0000 0.0000 0.0000 38.7550 0.0000 -3.9027
# 5 1.6471 -14.9136 12.0281 0.0000 26.6962 0.0000
# 6 0.0000 0.0000 0.0000 -3.9027 0.0000 7.6367
#
#
#
# Elastic Compliance Matrix: (Units=1/GPa)
#
#
# Indices 1 2 3 4 5 6 
#
# 1 0.038684 -0.001432 -0.002864 0.000000 -0.001896 0.000000
# 2 -0.001432 0.004419 -0.001786 0.000000 0.003362 0.000000
# 3 -0.002864 -0.001786 0.013563 0.000000 -0.006932 0.000000
# 4 0.000000 0.000000 0.000000 0.027203 0.000000 0.013902
# 5 -0.001896 0.003362 -0.006932 0.000000 0.042577 0.000000
# 6 0.000000 0.000000 0.000000 0.013902 0.000000 0.138051
#
#
# Mechanical properties :
#
#
# Convention : Reuss Voigt Hill
#
# Bulk Modulus (GPa) = 22.47211 50.82901 36.65056
# Shear Modulus (GPa) = 17.15282 35.81872 26.48577
#
# Velocity S-wave (km/s) = 2.70477 3.90857 3.36101
# Velocity P-wave (km/s) = 4.39761 6.48446 5.54018
#
# Compressibility (1/GPa) = 0.04449961
#
# Stress axis : x y z
#
# Youngs Moduli (GPa) = 25.85044 226.28657 73.73030
#
# Poissons Ratio (x) = 0.32412 0.21120
# Poissons Ratio (y) = 0.03703 0.13171
# Poissons Ratio (z) = 0.07405 0.40425
#
# Static dielectric constant tensor:
#      x y z
#    x 1.978480 0.000000 0.020310 
#    y 0.000000 1.955910 0.000000 
#    z 0.020310 0.000000 1.954350 
# 
# From -- ./inp_files/192293.got.cif
#   From: 2010.05.17/outbox.cif.g08.bks.cpg/sg15_97_cif.got.tgz:192293.got - 2010.06.03 18:47:42.
