data_PCOD9263669
_publ_section_title
;
Structure prediction by ZEFSAII (Michael W. Deem and Ramdas Pophale) SiO2 
 PCOD9263669
Probable space group: C 2/C
;
_chemical_formula_sum "Si O2"
_cell_formula_units_Z 64
_cell_length_a 14.290365
_cell_length_b 26.255947
_cell_length_c 8.919745
_cell_angle_alpha 90.000000
_cell_angle_beta 95.279461
_cell_angle_gamma 90.000000
_cell_volume 3332.553584
_symmetry_space_group_name_H-M "C 2/C"
_symmetry_group_IT_number 15
_symmetry_cell_setting 'monoclinic'
loop_
_space_group_symop_operation_xyz
x,y,z
-x,y,1/2-z
-x,-y,-z
x,-y,1/2+z
1/2+x,1/2+y,z
1/2-x,1/2+y,1/2-z
1/2-x,1/2-y,-z
1/2+x,1/2-y,1/2+z
loop_
_atom_site_type_symbol
_atom_site_label
_atom_site_fract_x
_atom_site_fract_y
_atom_site_fract_z
Si Si1 0.930550 0.061455 0.420708
Si Si2 0.901657 0.163319 0.811596
Si Si3 0.258485 0.807790 0.445307
Si Si4 0.673268 0.346554 0.718956
Si Si5 0.765779 0.095287 0.975251
Si Si6 0.129850 0.012019 0.377662
Si Si7 0.859213 0.759452 0.563672
Si Si8 0.395540 0.845526 0.210714
O O1 0.909192 0.117965 0.361384
O O2 0.873525 0.024347 0.297853
O O3 0.038011 0.044475 0.419513
O O4 0.891322 0.045426 0.576506
O O5 0.830690 0.182694 0.674490
O O6 0.850693 0.116162 0.884433
O O7 0.000000 0.151485 0.750000
O O8 0.907242 0.207541 0.939661
O O9 0.250000 0.750000 0.500000
O O10 0.245941 0.839719 0.595025
O O11 0.346096 0.824805 0.355947
O O12 0.638835 0.293466 0.784700
O O13 0.720933 0.374286 0.866845
O O14 0.672741 0.113274 0.876705
O O15 0.781679 0.037390 0.027873
O O16 0.750000 0.750000 0.500000
O O17 0.900542 0.704324 0.604482
O O18 0.500000 0.865056 0.250000
#
# Coordination Sequence:
#
# PCOD9263669 Si02
#       8
#     8   8   8   8   8   8   8   8
#     4   9  19  33  54  85 112 149 180 217 278 354
#     4  10  22  32  50  76 101 142 188 219 279 330
#     4  11  21  35  49  79 107 136 188 238 266 326
#     4  10  19  34  59  78 112 146 185 227 281 338
#     4   9  20  39  55  73 114 150 183 229 283 334
#     4   9  18  35  53  81 118 145 180 223 279 335
#     4  11  18  39  53  70 114 151 183 235 283 330
#     4  11  23  38  54  76 106 156 197 228 284 329
#
# _framework density 19.204492999999999
#
# number of rings (size 3 to 8) (size 9 to 14) (size 15 to 20)
#    0.000    2.000    5.000    0.000    3.500    2.000 
#    9.000    0.625    0.000    0.000    0.000    7.875 
#    0.000    0.000    0.000    0.000    0.000    0.000 
#
# Total GULP energy -178552.447622 kJ/mol
# GULP energy per Si atom -5579.763988 kJ/mol
# Density = 1.916078 g / cm^3
# Si number density = 19.204493 Si / 1000 Ang^3
#
#
#
# Elastic Constant Matrix: (Units=GPa)
#
#
# Indices 1 2 3 4 5 6 
#
# 1 97.8531 13.7956 34.2124 0.0000 2.1085 0.0000
# 2 13.7956 40.5023 19.1239 0.0000 12.4869 0.0000
# 3 34.2124 19.1239 90.7591 0.0000 -7.0696 0.0000
# 4 0.0000 0.0000 0.0000 25.6739 0.0000 4.0444
# 5 2.1085 12.4869 -7.0696 0.0000 21.3216 0.0000
# 6 0.0000 0.0000 0.0000 4.0444 0.0000 11.1252
#
#
#
# Elastic Compliance Matrix: (Units=1/GPa)
#
#
# Indices 1 2 3 4 5 6 
#
# 1 0.011985 -0.001494 -0.004339 0.000000 -0.001749 0.000000
# 2 -0.001494 0.037130 -0.009180 0.000000 -0.024641 0.000000
# 3 -0.004339 -0.009180 0.015439 0.000000 0.010924 0.000000
# 4 0.000000 0.000000 0.000000 0.041316 0.000000 -0.015020
# 5 -0.001749 -0.024641 0.010924 0.000000 0.065127 0.000000
# 6 0.000000 0.000000 0.000000 -0.015020 0.000000 0.095346
#
#
# Mechanical properties :
#
#
# Convention : Reuss Voigt Hill
#
# Bulk Modulus (GPa) = 28.96224 40.37537 34.66881
# Shear Modulus (GPa) = 16.24014 22.42298 19.33156
#
# Velocity S-wave (km/s) = 2.91115 3.42071 3.17616
# Velocity P-wave (km/s) = 5.13940 6.05568 5.61626
#
# Compressibility (1/GPa) = 0.03452771
#
# Stress axis : x y z
#
# Youngs Moduli (GPa) = 83.43869 26.93218 64.77057
#
# Poissons Ratio (x) = 0.04024 0.28105
# Poissons Ratio (y) = 0.12468 0.59459
# Poissons Ratio (z) = 0.36205 0.24723
#
# Static dielectric constant tensor:
#      x y z
#    x 1.661680 0.000000 -0.011910 
#    y 0.000000 1.717050 0.000000 
#    z -0.011910 0.000000 1.726240 
# 
# From -- ./inp_files/44300.got.cif
#   From: 2010.05.17/outbox.cif.g08.bks.cpg/sg15_23_cif.got.tgz:44300.got - 2010.06.03 18:47:42.
