data_PCOD9263441
_publ_section_title
;
Structure prediction by ZEFSAII (Michael W. Deem and Ramdas Pophale) SiO2 
 PCOD9263441
Probable space group: C 2/C
;
_chemical_formula_sum "Si O2"
_cell_formula_units_Z 44
_cell_length_a 11.822939
_cell_length_b 42.802659
_cell_length_c 5.256233
_cell_angle_alpha 90.000000
_cell_angle_beta 120.282923
_cell_angle_gamma 90.000000
_cell_volume 2296.974778
_symmetry_space_group_name_H-M "C 2/C"
_symmetry_group_IT_number 15
_symmetry_cell_setting 'monoclinic'
loop_
_space_group_symop_operation_xyz
x,y,z
-x,y,1/2-z
-x,-y,-z
x,-y,1/2+z
1/2+x,1/2+y,z
1/2-x,1/2+y,1/2-z
1/2-x,1/2-y,-z
1/2+x,1/2-y,1/2+z
loop_
_atom_site_type_symbol
_atom_site_label
_atom_site_fract_x
_atom_site_fract_y
_atom_site_fract_z
Si Si1 0.842685 0.680397 0.564215
Si Si2 0.840674 0.280232 0.563747
Si Si3 0.340287 0.891689 0.088535
Si Si4 0.855188 0.986618 0.289756
Si Si5 0.500000 0.978912 0.750000
Si Si6 0.232294 0.428779 0.994039
O O1 0.809274 0.696745 0.261774
O O2 0.798767 0.644554 0.526526
O O3 0.000000 0.678650 0.750000
O O4 0.806418 0.702059 0.762395
O O5 0.750000 0.250000 0.500000
O O6 0.000000 0.273852 0.750000
O O7 0.500000 0.893975 0.250000
O O8 0.296386 0.905235 0.309118
O O9 0.277739 0.911268 0.785513
O O10 0.792964 0.991746 0.497885
O O11 0.855132 0.950935 0.198632
O O12 0.000000 0.000000 0.500000
O O13 0.378746 0.955291 0.620710
O O14 0.500000 0.000000 0.500000
#
# Coordination Sequence:
#
# PCOD9263441 Si02
#       6
#     8   8   8   8   4   8
#     4   9  19  33  54  81 119 150 188 227 271 324
#     4  10  19  34  56  90 119 156 192 233 277 329
#     4  11  20  35  52  81 115 149 177 221 276 343
#     4  10  21  38  56  75  95 130 180 230 284 318
#     4  12  22  32  46  72 114 134 162 214 284 348
#     4  12  21  34  53  79 107 140 180 221 284 343
#
# _framework density 19.155631
#
# number of rings (size 3 to 8) (size 9 to 14) (size 15 to 20)
#    0.000    1.455    1.818    4.909    0.000    2.909 
#    0.000    0.000    0.000    0.000   47.273    0.000 
#    0.000    0.000    0.000    0.000    0.000    0.000 
#
# Total GULP energy -122760.619443 kJ/mol
# GULP energy per Si atom -5580.028156 kJ/mol
# Density = 1.911203 g / cm^3
# Si number density = 19.155631 Si / 1000 Ang^3
#
#
#
# Elastic Constant Matrix: (Units=GPa)
#
#
# Indices 1 2 3 4 5 6 
#
# 1 47.8607 37.0740 32.1147 0.0000 -4.1368 0.0000
# 2 37.0740 142.3091 44.1751 0.0000 -8.5399 0.0000
# 3 32.1147 44.1751 106.3622 0.0000 -35.9031 0.0000
# 4 0.0000 0.0000 0.0000 29.4522 0.0000 -9.0514
# 5 -4.1368 -8.5399 -35.9031 0.0000 35.9436 0.0000
# 6 0.0000 0.0000 0.0000 -9.0514 0.0000 28.3802
#
#
#
# Elastic Compliance Matrix: (Units=1/GPa)
#
#
# Indices 1 2 3 4 5 6 
#
# 1 0.030922 -0.005550 -0.009467 0.000000 -0.007217 0.000000
# 2 -0.005550 0.009176 -0.002436 0.000000 -0.000892 0.000000
# 3 -0.009467 -0.002436 0.019174 0.000000 0.017484 0.000000
# 4 0.000000 0.000000 0.000000 0.037643 0.000000 0.012006
# 5 -0.007217 -0.000892 0.017484 0.000000 0.044243 0.000000
# 6 0.000000 0.000000 0.000000 0.012006 0.000000 0.039065
#
#
# Mechanical properties :
#
#
# Convention : Reuss Voigt Hill
#
# Bulk Modulus (GPa) = 41.04369 58.13994 49.59182
# Shear Modulus (GPa) = 22.39629 30.96641 26.68135
#
# Velocity S-wave (km/s) = 3.42303 4.02502 3.73617
# Velocity P-wave (km/s) = 6.09063 7.21237 6.67511
#
# Compressibility (1/GPa) = 0.02436428
#
# Stress axis : x y z
#
# Youngs Moduli (GPa) = 32.33943 108.98543 52.15369
#
# Poissons Ratio (x) = 0.60486 0.49376
# Poissons Ratio (y) = 0.17948 0.12706
# Poissons Ratio (z) = 0.30617 0.26552
#
# Static dielectric constant tensor:
#      x y z
#    x 1.684300 0.000000 0.056250 
#    y 0.000000 1.660680 0.000000 
#    z 0.056250 0.000000 1.777820 
# 
# From -- ./inp_files/8872.got.cif
#   From: 2010.05.17/outbox.cif.g08.bks.cpg/sg15_5_cif.got.tgz:8872.got - 2010.06.03 18:47:42.
