data_PCOD9263270
_publ_section_title
;
Structure prediction by ZEFSAII (Michael W. Deem and Ramdas Pophale) SiO2 
 PCOD9263270
Probable space group: C 2/C
;
_chemical_formula_sum "Si O2"
_cell_formula_units_Z 48
_cell_length_a 20.658141
_cell_length_b 25.228188
_cell_length_c 5.069470
_cell_angle_alpha 90.000000
_cell_angle_beta 57.274357
_cell_angle_gamma 90.000000
_cell_volume 2222.668492
_symmetry_space_group_name_H-M "C 2/C"
_symmetry_group_IT_number 15
_symmetry_cell_setting 'monoclinic'
loop_
_space_group_symop_operation_xyz
x,y,z
-x,y,1/2-z
-x,-y,-z
x,-y,1/2+z
1/2+x,1/2+y,z
1/2-x,1/2+y,1/2-z
1/2-x,1/2-y,-z
1/2+x,1/2-y,1/2+z
loop_
_atom_site_type_symbol
_atom_site_label
_atom_site_fract_x
_atom_site_fract_y
_atom_site_fract_z
Si Si1 0.827126 0.780985 0.216470
Si Si2 0.346847 0.168342 0.139114
Si Si3 0.676137 0.350089 0.806162
Si Si4 0.907580 0.963290 0.459139
Si Si5 0.917179 0.364302 0.989141
Si Si6 0.912848 0.479728 0.747909
O O1 0.750000 0.750000 0.500000
O O2 0.862603 0.811362 0.388850
O O3 0.868085 0.728658 0.016622
O O4 0.820284 0.821952 0.988404
O O5 0.403282 0.134761 0.829583
O O6 0.263228 0.149210 0.228189
O O7 0.356416 0.164256 0.432099
O O8 0.637245 0.407921 0.896590
O O9 0.000000 0.952442 0.250000
O O10 0.889904 0.005960 0.727029
O O11 0.915381 0.422805 0.871177
O O12 0.000000 0.340216 0.750000
O O13 0.873825 0.483106 0.551191
O O14 0.000000 0.500000 0.500000
#
# Coordination Sequence:
#
# PCOD9263270 Si02
#       6
#     8   8   8   8   8   8
#     4  10  20  39  65  89 122 165 208 249 310 380
#     4  11  23  38  59  91 118 159 213 258 311 352
#     4  11  21  41  69  91 122 164 206 255 300 387
#     4  10  22  42  68  97 133 167 197 246 327 404
#     4  12  23  37  56  79 120 162 202 259 316 352
#     4  10  19  34  55  69  94 145 215 241 274 352
#
# _framework density 21.595663999999999
#
# number of rings (size 3 to 8) (size 9 to 14) (size 15 to 20)
#    0.000    1.333    1.667    7.500    2.333    0.000 
#    0.000   10.000    0.000    0.000    0.000    0.000 
#    0.000    0.000    0.000    0.000    0.000    0.000 
#
# Total GULP energy -133709.301465 kJ/mol
# GULP energy per Si atom -5571.220894 kJ/mol
# Density = 2.154651 g / cm^3
# Si number density = 21.595664 Si / 1000 Ang^3
#
#
#
# Elastic Constant Matrix: (Units=GPa)
#
#
# Indices 1 2 3 4 5 6 
#
# 1 45.4815 28.3441 28.2580 0.0000 21.1279 0.0000
# 2 28.3441 140.2953 41.1740 0.0000 1.6435 0.0000
# 3 28.2580 41.1740 92.6083 0.0000 34.8980 0.0000
# 4 0.0000 0.0000 0.0000 36.6646 0.0000 17.9286
# 5 21.1279 1.6435 34.8980 0.0000 37.0817 0.0000
# 6 0.0000 0.0000 0.0000 17.9286 0.0000 20.7394
#
#
#
# Elastic Compliance Matrix: (Units=1/GPa)
#
#
# Indices 1 2 3 4 5 6 
#
# 1 0.035615 -0.006831 -0.000461 0.000000 -0.019555 0.000000
# 2 -0.006831 0.010086 -0.005730 0.000000 0.008838 0.000000
# 3 -0.000461 -0.005730 0.020596 0.000000 -0.018867 0.000000
# 4 0.000000 0.000000 0.000000 0.047246 0.000000 -0.040843
# 5 -0.019555 0.008838 -0.018867 0.000000 0.055473 0.000000
# 6 0.000000 0.000000 0.000000 -0.040843 0.000000 0.083525
#
#
# Mechanical properties :
#
#
# Convention : Reuss Voigt Hill
#
# Bulk Modulus (GPa) = 24.84342 52.65970 38.75156
# Shear Modulus (GPa) = 17.12310 30.93774 24.03042
#
# Velocity S-wave (km/s) = 2.81889 3.78906 3.33940
# Velocity P-wave (km/s) = 4.70359 6.60151 5.73166
#
# Compressibility (1/GPa) = 0.04025210
#
# Stress axis : x y z
#
# Youngs Moduli (GPa) = 28.07837 99.14618 48.55258
#
# Poissons Ratio (x) = 0.67725 0.02239
# Poissons Ratio (y) = 0.19180 0.27823
# Poissons Ratio (z) = 0.01295 0.56815
#
# Static dielectric constant tensor:
#      x y z
#    x 2.026650 0.000000 0.012750 
#    y 0.000000 1.906630 0.000000 
#    z 0.012750 0.000000 1.888830 
# 
# From -- ./inp_files/13812.got.cif
#   From: 2010.05.17/outbox.cif.g08.bks.cpg/sg15_7_cif.got.tgz:13812.got - 2010.06.03 18:47:42.
