data_PCOD9263791
_publ_section_title
;
Structure prediction by ZEFSAII (Michael W. Deem and Ramdas Pophale) SiO2 
 PCOD9263791
Probable space group: C 2/C
;
_chemical_formula_sum "Si O2"
_cell_formula_units_Z 64
_cell_length_a 25.966434
_cell_length_b 8.784926
_cell_length_c 14.312515
_cell_angle_alpha 90.000000
_cell_angle_beta 53.242628
_cell_angle_gamma 90.000000
_cell_volume 2615.741067
_symmetry_space_group_name_H-M "C 2/C"
_symmetry_group_IT_number 15
_symmetry_cell_setting 'monoclinic'
loop_
_space_group_symop_operation_xyz
x,y,z
-x,y,1/2-z
-x,-y,-z
x,-y,1/2+z
1/2+x,1/2+y,z
1/2-x,1/2+y,1/2-z
1/2-x,1/2-y,-z
1/2+x,1/2-y,1/2+z
loop_
_atom_site_type_symbol
_atom_site_label
_atom_site_fract_x
_atom_site_fract_y
_atom_site_fract_z
Si Si1 0.512699 0.072105 0.887847
Si Si2 0.732398 0.590430 0.469965
Si Si3 0.735399 0.237312 0.249990
Si Si4 0.810314 0.955057 0.798937
Si Si5 0.571212 0.450715 0.958187
Si Si6 0.866089 0.535366 0.857530
Si Si7 0.611035 0.248254 0.491895
Si Si8 0.554112 0.790644 0.632520
O O1 0.584422 0.090785 0.774955
O O2 0.482785 0.942817 0.855859
O O3 0.464352 0.210781 0.936062
O O4 0.500000 0.000000 0.000000
O O5 0.750000 0.750000 0.500000
O O6 0.725158 0.641229 0.370351
O O7 0.688462 0.501474 0.593055
O O8 0.795463 0.486797 0.398420
O O9 0.727888 0.406200 0.213747
O O10 0.660386 0.196116 0.355888
O O11 0.772322 0.195974 0.305989
O O12 0.882061 0.944085 0.681438
O O13 0.607283 0.571167 0.987810
O O14 0.500000 0.500000 0.000000
O O15 0.569602 0.298376 0.021532
O O16 0.887916 0.365287 0.871440
O O17 0.867916 0.656755 0.939497
O O18 0.500000 0.699233 0.750000
#
# Coordination Sequence:
#
# PCOD9263791 Si02
#       8
#     8   8   8   8   8   8   8   8
#     4  10  19  34  60  89 120 161 213 263 309 372
#     4  10  21  37  66  95 122 168 216 262 315 387
#     4  10  21  40  67  92 128 169 212 265 326 373
#     4  10  23  41  65  93 128 166 219 267 316 391
#     4  11  24  41  61  91 129 169 209 260 329 388
#     4  10  20  38  62  94 125 161 221 261 316 383
#     4  10  20  37  62  90 129 163 206 266 322 374
#     4   9  21  36  59  88 120 163 209 257 309 383
#
# _framework density 24.467251999999998
#
# number of rings (size 3 to 8) (size 9 to 14) (size 15 to 20)
#    0.000    2.000    1.250    2.625    3.500    6.000 
#    0.000    1.875    2.750    0.000    0.000    0.000 
#    0.000    0.000    0.000    0.000    0.000    0.000 
#
# Total GULP energy -178508.799212 kJ/mol
# GULP energy per Si atom -5578.399975 kJ/mol
# Density = 2.441156 g / cm^3
# Si number density = 24.467252 Si / 1000 Ang^3
#
#
#
# Elastic Constant Matrix: (Units=GPa)
#
#
# Indices 1 2 3 4 5 6 
#
# 1 42.3371 29.9573 32.9678 0.0000 -11.8855 0.0000
# 2 29.9573 94.3948 47.2096 0.0000 -0.1175 0.0000
# 3 32.9678 47.2096 179.5561 0.0000 -12.1270 0.0000
# 4 0.0000 0.0000 0.0000 37.9260 0.0000 10.2704
# 5 -11.8855 -0.1175 -12.1270 0.0000 45.8869 0.0000
# 6 0.0000 0.0000 0.0000 10.2704 0.0000 29.4551
#
#
#
# Elastic Compliance Matrix: (Units=1/GPa)
#
#
# Indices 1 2 3 4 5 6 
#
# 1 0.035307 -0.009476 -0.003436 0.000000 0.008213 0.000000
# 2 -0.009476 0.014772 -0.002349 0.000000 -0.003037 0.000000
# 3 -0.003436 -0.002349 0.006880 0.000000 0.000922 0.000000
# 4 0.000000 0.000000 0.000000 0.029116 0.000000 -0.010152
# 5 0.008213 -0.003037 0.000922 0.000000 0.024156 0.000000
# 6 0.000000 0.000000 0.000000 -0.010152 0.000000 0.037490
#
#
# Mechanical properties :
#
#
# Convention : Reuss Voigt Hill
#
# Bulk Modulus (GPa) = 37.82778 59.61749 48.72263
# Shear Modulus (GPa) = 26.72987 36.39714 31.56351
#
# Velocity S-wave (km/s) = 3.30885 3.86111 3.59560
# Velocity P-wave (km/s) = 5.48563 6.65557 6.09872
#
# Compressibility (1/GPa) = 0.02643560
#
# Stress axis : x y z
#
# Youngs Moduli (GPa) = 28.32334 67.69419 145.34467
#
# Poissons Ratio (x) = 0.64148 0.49946
# Poissons Ratio (y) = 0.26839 0.34145
# Poissons Ratio (z) = 0.09733 0.15903
#
# Static dielectric constant tensor:
#      x y z
#    x 1.259010 0.000000 -0.573890 
#    y 0.000000 1.973430 0.000000 
#    z -0.573890 0.000000 1.607490 
# 
# From -- ./inp_files/181118.got.cif
#   From: 2010.05.17/outbox.cif.g08.bks.cpg/sg15_91_cif.got.tgz:181118.got - 2010.06.03 18:47:42.
