data_PCOD9263799
_publ_section_title
;
Structure prediction by ZEFSAII (Michael W. Deem and Ramdas Pophale) SiO2 
 PCOD9263799
Probable space group: C 2/C
;
_chemical_formula_sum "Si O2"
_cell_formula_units_Z 64
_cell_length_a 27.529937
_cell_length_b 21.202636
_cell_length_c 17.571634
_cell_angle_alpha 90.000000
_cell_angle_beta 18.984632
_cell_angle_gamma 90.000000
_cell_volume 3336.650281
_symmetry_space_group_name_H-M "C 2/C"
_symmetry_group_IT_number 15
_symmetry_cell_setting 'monoclinic'
loop_
_space_group_symop_operation_xyz
x,y,z
-x,y,1/2-z
-x,-y,-z
x,-y,1/2+z
1/2+x,1/2+y,z
1/2-x,1/2+y,1/2-z
1/2-x,1/2-y,-z
1/2+x,1/2-y,1/2+z
loop_
_atom_site_type_symbol
_atom_site_label
_atom_site_fract_x
_atom_site_fract_y
_atom_site_fract_z
Si Si1 0.330874 0.018000 0.005625
Si Si2 0.864157 0.166906 0.789173
Si Si3 0.856747 0.482795 0.296308
Si Si4 0.386281 0.566592 0.044329
Si Si5 0.698406 0.877563 0.385624
Si Si6 0.390600 0.096962 0.140645
Si Si7 0.370046 0.567433 0.493179
Si Si8 0.943978 0.306750 0.673487
O O1 0.210317 0.053959 0.235930
O O2 0.343705 0.947586 0.021889
O O3 0.500000 0.044148 0.750000
O O4 0.284379 0.015388 0.986122
O O5 0.788506 0.155716 0.819411
O O6 0.957283 0.231680 0.652184
O O7 0.969535 0.108535 0.654148
O O8 0.725993 0.176714 0.051039
O O9 0.891008 0.552661 0.215237
O O10 0.756949 0.452520 0.378284
O O11 0.008807 0.442290 0.067772
O O12 0.273482 0.600185 0.151935
O O13 0.422880 0.498183 0.954143
O O14 0.556364 0.838348 0.567134
O O15 0.802975 0.889232 0.157727
O O16 0.461352 0.161631 0.064703
O O17 0.500000 0.596362 0.250000
#
# Coordination Sequence:
#
# PCOD9263799 Si02
#       8
#     8   8   8   8   8   8   8   8
#     4  11  20  35  63  91 123 158 190 239 303 371
#     4  11  26  40  62  89 119 159 202 258 296 346
#     4  10  19  34  60  91 119 156 198 238 300 363
#     4  10  24  37  56  95 125 149 195 251 306 347
#     4  11  23  42  62  88 123 162 203 244 301 371
#     4  10  19  37  60  87 119 155 197 245 292 360
#     4  10  23  37  60  92 124 159 190 247 314 365
#     4  11  24  43  63  84 116 167 209 240 297 361
#
# _framework density 19.180914000000001
#
# number of rings (size 3 to 8) (size 9 to 14) (size 15 to 20)
#    0.000    1.500    2.500    2.625    8.750    1.000 
#    0.000    0.000    0.000    3.750    0.000    0.000 
#    0.000    0.000    0.000    0.000    0.000    0.000 
#
# Total GULP energy -178798.205217 kJ/mol
# GULP energy per Si atom -5587.443913 kJ/mol
# Density = 1.913726 g / cm^3
# Si number density = 19.180914 Si / 1000 Ang^3
#
#
#
# Elastic Constant Matrix: (Units=GPa)
#
#
# Indices 1 2 3 4 5 6 
#
# 1 92.1308 17.4999 22.8883 0.0005 3.8986 -0.0004
# 2 17.4999 60.3486 16.4405 0.0043 -10.2281 -0.0012
# 3 22.8883 16.4405 64.3820 0.0044 0.8989 -0.0013
# 4 0.0005 0.0043 0.0044 24.4282 0.0004 -0.6471
# 5 3.8986 -10.2281 0.8989 0.0004 42.2045 -0.0007
# 6 -0.0004 -0.0012 -0.0013 -0.6471 -0.0007 18.8099
#
#
#
# Elastic Compliance Matrix: (Units=1/GPa)
#
#
# Indices 1 2 3 4 5 6 
#
# 1 0.012383 -0.002900 -0.003637 0.000001 -0.001769 0.000000
# 2 -0.002900 0.019350 -0.003981 -0.000003 0.005042 0.000001
# 3 -0.003637 -0.003981 0.017856 -0.000002 -0.001009 0.000001
# 4 0.000001 -0.000003 -0.000002 0.040974 -0.000001 0.001409
# 5 -0.001769 0.005042 -0.001009 -0.000001 0.025101 0.000001
# 6 0.000000 0.000001 0.000001 0.001409 0.000001 0.053212
#
#
# Mechanical properties :
#
#
# Convention : Reuss Voigt Hill
#
# Bulk Modulus (GPa) = 35.02137 36.72433 35.87285
# Shear Modulus (GPa) = 25.07143 27.75735 26.41439
#
# Velocity S-wave (km/s) = 3.61931 3.80825 3.71498
# Velocity P-wave (km/s) = 5.98030 6.20684 6.09462
#
# Compressibility (1/GPa) = 0.02855400
#
# Stress axis : x y z
#
# Youngs Moduli (GPa) = 80.75310 51.67870 56.00374
#
# Poissons Ratio (x) = 0.14987 0.20370
# Poissons Ratio (y) = 0.23418 0.22294
# Poissons Ratio (z) = 0.29371 0.20572
#
# Static dielectric constant tensor:
#      x y z
#    x 1.690090 0.000000 -0.025590 
#    y 0.000000 1.660550 0.000000 
#    z -0.025590 0.000000 1.711620 
# 
# From -- ./inp_files/124248.got.cif
#   From: 2010.05.17/outbox.cif.g08.bks.cpg/sg15_63_cif.got.tgz:124248.got - 2010.06.03 18:47:42.
