data_PCOD9263492
_publ_section_title
;
Structure prediction by ZEFSAII (Michael W. Deem and Ramdas Pophale) SiO2 
 PCOD9263492
Probable space group: C 2/C
;
_chemical_formula_sum "Si O2"
_cell_formula_units_Z 40
_cell_length_a 26.718720
_cell_length_b 7.691208
_cell_length_c 7.765493
_cell_angle_alpha 90.000000
_cell_angle_beta 111.195412
_cell_angle_gamma 90.000000
_cell_volume 1487.851190
_symmetry_space_group_name_H-M "C 2/C"
_symmetry_group_IT_number 15
_symmetry_cell_setting 'monoclinic'
loop_
_space_group_symop_operation_xyz
x,y,z
-x,y,1/2-z
-x,-y,-z
x,-y,1/2+z
1/2+x,1/2+y,z
1/2-x,1/2+y,1/2-z
1/2-x,1/2-y,-z
1/2+x,1/2-y,1/2+z
loop_
_atom_site_type_symbol
_atom_site_label
_atom_site_fract_x
_atom_site_fract_y
_atom_site_fract_z
Si Si1 0.313478 0.590774 0.996918
Si Si2 0.016947 0.302718 0.968450
Si Si3 0.883182 0.604703 0.070592
Si Si4 0.218933 0.746499 0.683127
Si Si5 0.413310 0.739258 0.980267
O O1 0.277767 0.694744 0.814031
O O2 0.286695 0.401935 0.958910
O O3 0.374538 0.594337 0.009222
O O4 0.306572 0.678643 0.171899
O O5 0.975788 0.192520 0.032804
O O6 0.000000 0.276891 0.750000
O O7 0.000000 0.500000 0.000000
O O8 0.080833 0.294336 0.028062
O O9 0.821364 0.600404 0.937114
O O10 0.906178 0.409342 0.091945
O O11 0.891893 0.694640 0.266244
#
# Coordination Sequence:
#
# PCOD9263492 Si02
#       5
#     8   8   8   8   8
#     4  11  24  40  58  81 109 142 181 225 274 326
#     4   8  16  30  51  80 111 144 180 220 264 314
#     4  10  19  34  57  84 114 146 183 224 268 319
#     4  11  24  40  58  81 109 142 181 225 274 326
#     4  10  19  34  57  84 114 146 183 224 268 319
#
# _framework density 26.884409000000002
#
# number of rings (size 3 to 8) (size 9 to 14) (size 15 to 20)
#    0.000    2.000    0.000    3.600    0.000    8.000 
#    0.000    1.000    0.000    0.000    0.000    0.000 
#    0.000    0.000    0.000    0.000    0.000    0.000 
#
# Total GULP energy -111978.262663 kJ/mol
# GULP energy per Si atom -5598.913133 kJ/mol
# Density = 2.682322 g / cm^3
# Si number density = 26.884409 Si / 1000 Ang^3
#
#
#
# Elastic Constant Matrix: (Units=GPa)
#
#
# Indices 1 2 3 4 5 6 
#
# 1 114.7769 3.5462 8.7931 0.0000 -8.3618 0.0000
# 2 3.5462 50.0481 -6.4047 0.0000 -0.5279 0.0000
# 3 8.7931 -6.4047 138.9007 0.0000 -14.7716 0.0000
# 4 0.0000 0.0000 0.0000 23.4040 0.0000 5.2203
# 5 -8.3618 -0.5279 -14.7716 0.0000 30.7439 0.0000
# 6 0.0000 0.0000 0.0000 5.2203 0.0000 33.3448
#
#
#
# Elastic Compliance Matrix: (Units=1/GPa)
#
#
# Indices 1 2 3 4 5 6 
#
# 1 0.008924 -0.000654 -0.000356 0.000000 0.002245 0.000000
# 2 -0.000654 0.020168 0.001043 0.000000 0.000669 0.000000
# 3 -0.000356 0.001043 0.007653 0.000000 0.003598 0.000000
# 4 0.000000 0.000000 0.000000 0.044274 0.000000 -0.006931
# 5 0.002245 0.000669 0.003598 0.000000 0.034877 0.000000
# 6 0.000000 0.000000 0.000000 -0.006931 0.000000 0.031075
#
#
# Mechanical properties :
#
#
# Convention : Reuss Voigt Hill
#
# Bulk Modulus (GPa) = 27.16824 35.06611 31.11718
# Shear Modulus (GPa) = 31.41192 37.35128 34.38160
#
# Velocity S-wave (km/s) = 3.42190 3.73141 3.58001
# Velocity P-wave (km/s) = 5.07347 5.62461 5.35613
#
# Compressibility (1/GPa) = 0.03680768
#
# Stress axis : x y z
#
# Youngs Moduli (GPa) = 112.06250 49.58448 130.67390
#
# Poissons Ratio (x) = 0.03244 0.04657
# Poissons Ratio (y) = 0.07331 -0.13623
# Poissons Ratio (z) = 0.03994 -0.05169
#
# Static dielectric constant tensor:
#      x y z
#    x 2.113590 0.000000 -0.008950 
#    y 0.000000 2.109670 0.000000 
#    z -0.008950 0.000000 2.052210 
# 
# From -- ./inp_files/59937.got.cif
#   From: 2010.05.17/outbox.cif.g08.bks.cpg/sg15_30_cif.got.tgz:59937.got - 2010.06.03 18:47:42.
