data_PCOD9263113
_publ_section_title
;
Structure prediction by ZEFSAII (Michael W. Deem and Ramdas Pophale) SiO2 
 PCOD9263113
Probable space group: C 2/C
;
_chemical_formula_sum "Si O2"
_cell_formula_units_Z 64
_cell_length_a 13.616699
_cell_length_b 28.277475
_cell_length_c 15.736821
_cell_angle_alpha 90.000000
_cell_angle_beta 147.631818
_cell_angle_gamma 90.000000
_cell_volume 3243.946108
_symmetry_space_group_name_H-M "C 2/C"
_symmetry_group_IT_number 15
_symmetry_cell_setting 'monoclinic'
loop_
_space_group_symop_operation_xyz
x,y,z
-x,y,1/2-z
-x,-y,-z
x,-y,1/2+z
1/2+x,1/2+y,z
1/2-x,1/2+y,1/2-z
1/2-x,1/2-y,-z
1/2+x,1/2-y,1/2+z
loop_
_atom_site_type_symbol
_atom_site_label
_atom_site_fract_x
_atom_site_fract_y
_atom_site_fract_z
Si Si1 0.867080 0.360689 0.830235
Si Si2 0.177417 0.726296 0.317655
Si Si3 0.133746 0.981882 0.188960
Si Si4 0.475306 0.680815 0.831536
Si Si5 0.495254 0.978115 0.347755
Si Si6 0.316451 0.074497 0.968091
Si Si7 0.178339 0.922684 0.822830
Si Si8 0.632005 0.407864 0.512665
O O1 0.854170 0.307716 0.786205
O O2 0.748386 0.376512 0.824331
O O3 0.776547 0.389458 0.685942
O O4 0.071234 0.381798 0.988435
O O5 0.349667 0.708866 0.499722
O O6 0.000000 0.722815 0.250000
O O7 0.184829 0.780193 0.289942
O O8 0.300037 0.969115 0.248272
O O9 0.169302 0.949458 0.299032
O O10 0.945571 0.959105 0.019058
O O11 0.131689 0.035033 0.222157
O O12 0.500000 0.667757 0.750000
O O13 0.477045 0.633044 0.888113
O O14 0.500000 0.975972 0.250000
O O15 0.651418 0.943694 0.499143
O O16 0.546476 0.030832 0.415460
O O17 0.233362 0.088751 0.997012
O O18 0.000000 0.914890 0.750000
#
# Coordination Sequence:
#
# PCOD9263113 Si02
#       8
#     8   8   8   8   8   8   8   8
#     4  11  21  36  53  80 109 148 187 220 272 331
#     4  10  20  33  54  80 113 143 175 219 272 335
#     4  11  21  37  53  81 111 147 190 225 272 322
#     4  10  19  34  50  81 112 144 178 215 273 330
#     4  11  22  37  55  77 108 148 190 230 273 321
#     4  11  19  37  52  76 112 150 187 216 271 324
#     4  11  23  39  55  76 110 147 189 233 272 317
#     4  11  23  32  57  84 112 149 181 229 266 331
#
# _framework density 19.729057000000001
#
# number of rings (size 3 to 8) (size 9 to 14) (size 15 to 20)
#    0.000    1.250    2.500    7.500    1.750    1.500 
#    0.000    0.000    0.000    0.000    0.000    4.375 
#    0.000    0.000    0.000    0.000    0.000    0.000 
#
# Total GULP energy -178826.450537 kJ/mol
# GULP energy per Si atom -5588.326579 kJ/mol
# Density = 1.968415 g / cm^3
# Si number density = 19.729057 Si / 1000 Ang^3
#
#
#
# Elastic Constant Matrix: (Units=GPa)
#
#
# Indices 1 2 3 4 5 6 
#
# 1 85.4417 -1.2128 -9.2569 0.0000 19.8830 0.0001
# 2 -1.2128 69.3106 -0.3761 0.0000 4.3919 0.0000
# 3 -9.2569 -0.3761 46.2598 0.0000 -3.1623 0.0000
# 4 0.0000 0.0000 0.0000 24.1734 0.0000 -6.3438
# 5 19.8830 4.3919 -3.1623 0.0000 26.0257 0.0001
# 6 0.0001 0.0000 0.0000 -6.3438 0.0001 15.4856
#
#
#
# Elastic Compliance Matrix: (Units=1/GPa)
#
#
# Indices 1 2 3 4 5 6 
#
# 1 0.014507 0.000962 0.002160 0.000000 -0.010983 0.000000
# 2 0.000962 0.014648 0.000093 0.000000 -0.003195 0.000000
# 3 0.002160 0.000093 0.022120 0.000000 0.001022 0.000000
# 4 0.000000 0.000000 0.000000 0.046351 0.000000 0.018988
# 5 -0.010983 -0.003195 0.001022 0.000000 0.047478 0.000000
# 6 0.000000 0.000000 0.000000 0.018988 0.000000 0.072355
#
#
# Mechanical properties :
#
#
# Convention : Reuss Voigt Hill
#
# Bulk Modulus (GPa) = 17.32975 19.92451 18.62713
# Shear Modulus (GPa) = 21.71424 27.26080 24.48752
#
# Velocity S-wave (km/s) = 3.32116 3.72123 3.52688
# Velocity P-wave (km/s) = 4.84869 5.34644 5.10364
#
# Compressibility (1/GPa) = 0.05770424
#
# Stress axis : x y z
#
# Youngs Moduli (GPa) = 68.93015 68.27054 45.20818
#
# Poissons Ratio (x) = -0.06564 -0.09765
# Poissons Ratio (y) = -0.06628 -0.00421
# Poissons Ratio (z) = -0.14889 -0.00635
#
# Static dielectric constant tensor:
#      x y z
#    x 1.661980 0.000000 -0.003190 
#    y 0.000000 1.737760 0.000000 
#    z -0.003190 0.000000 1.795790 
# 
# From -- ./inp_files/149200.got.cif
#   From: 2010.05.17/outbox.cif.g08.bks.cpg/sg15_75_cif.got.tgz:149200.got - 2010.06.03 18:47:42.
