data_PCOD9263310
_publ_section_title
;
Structure prediction by ZEFSAII (Michael W. Deem and Ramdas Pophale) SiO2 
 PCOD9263310
Probable space group: C 2/C
;
_chemical_formula_sum "Si O2"
_cell_formula_units_Z 56
_cell_length_a 26.557676
_cell_length_b 6.165759
_cell_length_c 28.584848
_cell_angle_alpha 90.000000
_cell_angle_beta 45.482184
_cell_angle_gamma 90.000000
_cell_volume 3337.504095
_symmetry_space_group_name_H-M "C 2/C"
_symmetry_group_IT_number 15
_symmetry_cell_setting 'monoclinic'
loop_
_space_group_symop_operation_xyz
x,y,z
-x,y,1/2-z
-x,-y,-z
x,-y,1/2+z
1/2+x,1/2+y,z
1/2-x,1/2+y,1/2-z
1/2-x,1/2-y,-z
1/2+x,1/2-y,1/2+z
loop_
_atom_site_type_symbol
_atom_site_label
_atom_site_fract_x
_atom_site_fract_y
_atom_site_fract_z
Si Si1 0.029087 0.369225 0.936084
Si Si2 0.621823 0.505840 0.410479
Si Si3 0.168002 0.383035 0.315446
Si Si4 0.747312 0.154394 0.426963
Si Si5 0.745109 0.298532 0.679946
Si Si6 0.198036 0.052845 0.520452
Si Si7 0.615701 0.810631 0.506943
O O1 0.098975 0.470320 0.867607
O O2 0.964562 0.387455 0.942182
O O3 0.053769 0.133781 0.939149
O O4 0.000000 0.500000 0.000000
O O5 0.646462 0.654768 0.351719
O O6 0.683404 0.332310 0.378686
O O7 0.618690 0.664092 0.457524
O O8 0.229661 0.494272 0.306333
O O9 0.195719 0.345095 0.245275
O O10 0.783130 0.150061 0.352956
O O11 0.724796 0.388842 0.462338
O O12 0.801768 0.074675 0.431200
O O13 0.677172 0.996542 0.467990
O O14 0.250000 0.250000 0.500000
O O15 0.129796 0.161734 0.542636
#
# Coordination Sequence:
#
# PCOD9263310 Si02
#       7
#     8   8   8   8   8   8   8
#     4  11  23  33  49  81 115 146 183 215 273 345
#     4  11  20  33  53  79 113 147 173 218 277 328
#     4  11  22  33  50  81 112 146 182 213 271 345
#     4  10  19  34  55  82 106 137 183 231 278 329
#     4  11  20  34  53  77 114 143 178 224 271 329
#     4   9  20  33  52  83 105 133 185 229 286 321
#     4  11  19  33  55  77 112 145 173 231 282 321
#
# _framework density 16.779005999999999
#
# number of rings (size 3 to 8) (size 9 to 14) (size 15 to 20)
#    0.000    1.429    5.714    1.286    0.000    0.000 
#    0.000    0.000    0.000    0.000    0.000   24.000 
#    0.000    0.000    0.000    0.000    0.000    0.000 
#
# Total GULP energy -155875.254903 kJ/mol
# GULP energy per Si atom -5566.973389 kJ/mol
# Density = 1.674082 g / cm^3
# Si number density = 16.779006 Si / 1000 Ang^3
#
#
#
# Elastic Constant Matrix: (Units=GPa)
#
#
# Indices 1 2 3 4 5 6 
#
# 1 105.3446 22.1672 42.1048 -0.0131 15.4168 0.0290
# 2 22.1672 69.4028 21.3124 -0.0155 5.5512 -0.0219
# 3 42.1048 21.3124 89.1779 0.0186 18.6605 -0.0127
# 4 -0.0131 -0.0155 0.0186 29.0153 0.0191 0.9072
# 5 15.4168 5.5512 18.6605 0.0191 23.9817 0.0217
# 6 0.0290 -0.0219 -0.0127 0.9072 0.0217 34.7786
#
#
#
# Elastic Compliance Matrix: (Units=1/GPa)
#
#
# Indices 1 2 3 4 5 6 
#
# 1 0.012324 -0.002253 -0.004457 0.000010 -0.003933 -0.000011
# 2 -0.002253 0.015976 -0.002728 0.000009 -0.000127 0.000011
# 3 -0.004457 -0.002728 0.015813 -0.000008 -0.008807 0.000013
# 4 0.000010 0.000009 -0.000008 0.034493 -0.000029 -0.000900
# 5 -0.003933 -0.000127 -0.008807 -0.000029 0.051109 -0.000031
# 6 -0.000011 0.000011 0.000013 -0.000900 -0.000031 0.028777
#
#
# Mechanical properties :
#
#
# Convention : Reuss Voigt Hill
#
# Bulk Modulus (GPa) = 39.62457 48.34379 43.98418
# Shear Modulus (GPa) = 26.91359 29.44451 28.17905
#
# Velocity S-wave (km/s) = 4.00935 4.19363 4.10252
# Velocity P-wave (km/s) = 6.71565 7.23349 6.97937
#
# Compressibility (1/GPa) = 0.02523686
#
# Stress axis : x y z
#
# Youngs Moduli (GPa) = 81.14393 62.59368 63.23957
#
# Poissons Ratio (x) = 0.14102 0.28188
# Poissons Ratio (y) = 0.18281 0.17250
# Poissons Ratio (z) = 0.36168 0.17074
#
# Static dielectric constant tensor:
#      x y z
#    x 1.586950 -0.000060 0.002470 
#    y -0.000060 1.650260 -0.000020 
#    z 0.002470 -0.000020 1.565980 
# 
# From -- ./inp_files/282844.got.cif
#   From: 2010.05.17/outbox.cif.g08.bks.cpg/sg15_142_cif.got.tgz:282844.got - 2010.06.03 18:47:42.
