data_PCOD9263391
_publ_section_title
;
Structure prediction by ZEFSAII (Michael W. Deem and Ramdas Pophale) SiO2 
 PCOD9263391
Probable space group: C 2/C
;
_chemical_formula_sum "Si O2"
_cell_formula_units_Z 56
_cell_length_a 12.483131
_cell_length_b 16.845995
_cell_length_c 19.531378
_cell_angle_alpha 90.000000
_cell_angle_beta 46.774259
_cell_angle_gamma 90.000000
_cell_volume 2992.806322
_symmetry_space_group_name_H-M "C 2/C"
_symmetry_group_IT_number 15
_symmetry_cell_setting 'monoclinic'
loop_
_space_group_symop_operation_xyz
x,y,z
-x,y,1/2-z
-x,-y,-z
x,-y,1/2+z
1/2+x,1/2+y,z
1/2-x,1/2+y,1/2-z
1/2-x,1/2-y,-z
1/2+x,1/2-y,1/2+z
loop_
_atom_site_type_symbol
_atom_site_label
_atom_site_fract_x
_atom_site_fract_y
_atom_site_fract_z
Si Si1 0.869857 0.661799 0.255989
Si Si2 0.163605 0.533338 0.922175
Si Si3 0.623532 0.783579 0.399806
Si Si4 0.264017 0.504897 0.234185
Si Si5 0.120539 0.341114 0.255601
Si Si6 0.552362 0.726991 0.894134
Si Si7 0.050603 0.079186 0.646815
O O1 0.773846 0.734385 0.327159
O O2 0.767790 0.585805 0.290139
O O3 0.935768 0.692549 0.155303
O O4 0.000000 0.641922 0.250000
O O5 0.154669 0.626571 0.908526
O O6 0.229228 0.485354 0.829603
O O7 0.290440 0.536773 0.924239
O O8 0.000000 0.500000 0.000000
O O9 0.565412 0.795331 0.347941
O O10 0.522873 0.742563 0.500396
O O11 0.158173 0.433282 0.255517
O O12 0.430259 0.474302 0.160855
O O13 0.280961 0.304236 0.169244
O O14 0.000000 0.334408 0.250000
O O15 0.463377 0.663544 0.885890
O O16 0.000000 0.087803 0.750000
#
# Coordination Sequence:
#
# PCOD9263391 Si02
#       7
#     8   8   8   8   8   8   8
#     4  11  21  35  57  84 112 143 184 231 276 322
#     4  10  19  34  56  83 110 142 186 228 269 323
#     4  10  22  36  55  85 111 139 186 232 278 329
#     4   9  19  35  54  77 107 145 185 222 271 329
#     4   9  19  38  57  75 109 150 184 223 272 331
#     4  10  20  36  56  82 113 144 181 230 282 325
#     4   9  18  36  57  77 111 151 181 223 277 328
#
# _framework density 18.711535000000001
#
# number of rings (size 3 to 8) (size 9 to 14) (size 15 to 20)
#    0.000    2.286    0.000    5.143    0.000    4.000 
#    0.000   17.143    0.000    0.000    0.000    0.000 
#    0.000    0.000    0.000    0.000    0.000    0.000 
#
# Total GULP energy -156066.882244 kJ/mol
# GULP energy per Si atom -5573.817223 kJ/mol
# Density = 1.866895 g / cm^3
# Si number density = 18.711535 Si / 1000 Ang^3
#
#
#
# Elastic Constant Matrix: (Units=GPa)
#
#
# Indices 1 2 3 4 5 6 
#
# 1 145.1669 42.4768 31.8576 0.0000 1.0876 0.0000
# 2 42.4768 88.1833 17.4661 0.0000 -0.4345 0.0000
# 3 31.8576 17.4661 80.6888 0.0000 -0.8055 0.0000
# 4 0.0000 0.0000 0.0000 11.9849 0.0000 -3.6329
# 5 1.0876 -0.4345 -0.8055 0.0000 13.1306 0.0000
# 6 0.0000 0.0000 0.0000 -3.6329 0.0000 13.2476
#
#
#
# Elastic Compliance Matrix: (Units=1/GPa)
#
#
# Indices 1 2 3 4 5 6 
#
# 1 0.008517 -0.003593 -0.002595 0.000000 -0.000984 0.000000
# 2 -0.003593 0.013365 -0.001468 0.000000 0.000650 0.000000
# 3 -0.002595 -0.001468 0.013745 0.000000 0.001010 0.000000
# 4 0.000000 0.000000 0.000000 0.091003 0.000000 0.024956
# 5 -0.000984 0.000650 0.001010 0.000000 0.076323 0.000000
# 6 0.000000 0.000000 0.000000 0.024956 0.000000 0.082329
#
#
# Mechanical properties :
#
#
# Convention : Reuss Voigt Hill
#
# Bulk Modulus (GPa) = 49.22314 55.29333 52.25823
# Shear Modulus (GPa) = 16.26725 22.48851 19.37788
#
# Velocity S-wave (km/s) = 2.95171 3.47054 3.22158
# Velocity P-wave (km/s) = 6.16281 6.75826 6.46739
#
# Compressibility (1/GPa) = 0.02031565
#
# Stress axis : x y z
#
# Youngs Moduli (GPa) = 117.41438 74.82328 72.75112
#
# Poissons Ratio (x) = 0.26887 0.18876
# Poissons Ratio (y) = 0.42192 0.10678
# Poissons Ratio (z) = 0.30464 0.10982
#
# Static dielectric constant tensor:
#      x y z
#    x 1.663880 0.000000 -0.000130 
#    y 0.000000 1.650300 0.000000 
#    z -0.000130 0.000000 1.678520 
# 
# From -- ./inp_files/199425.got.cif
#   From: 2010.05.17/outbox.cif.g08.bks.cpg/sg15_100_cif.got.tgz:199425.got - 2010.06.03 18:47:42.
