data_PCOD9263991
_publ_section_title
;
Structure prediction by ZEFSAII (Michael W. Deem and Ramdas Pophale) SiO2 
 PCOD9263991
Probable space group: C 2/C
;
_chemical_formula_sum "Si O2"
_cell_formula_units_Z 56
_cell_length_a 20.880006
_cell_length_b 7.764424
_cell_length_c 18.324833
_cell_angle_alpha 90.000000
_cell_angle_beta 133.035908
_cell_angle_gamma 90.000000
_cell_volume 2171.467743
_symmetry_space_group_name_H-M "C 2/C"
_symmetry_group_IT_number 15
_symmetry_cell_setting 'monoclinic'
loop_
_space_group_symop_operation_xyz
x,y,z
-x,y,1/2-z
-x,-y,-z
x,-y,1/2+z
1/2+x,1/2+y,z
1/2-x,1/2+y,1/2-z
1/2-x,1/2-y,-z
1/2+x,1/2-y,1/2+z
loop_
_atom_site_type_symbol
_atom_site_label
_atom_site_fract_x
_atom_site_fract_y
_atom_site_fract_z
Si Si1 0.537796 0.190412 0.936075
Si Si2 0.924580 0.077905 0.549987
Si Si3 0.176491 0.477571 0.434906
Si Si4 0.399605 0.116918 0.924805
Si Si5 0.852986 0.126459 0.640337
Si Si6 0.748504 0.047728 0.850633
Si Si7 0.197815 0.796468 0.251182
O O1 0.435501 0.152734 0.871434
O O2 0.596737 0.116806 0.915159
O O3 0.539403 0.394682 0.946082
O O4 0.577436 0.072852 0.031270
O O5 0.945252 0.248288 0.518956
O O6 0.926549 0.076132 0.639079
O O7 0.821363 0.057348 0.452396
O O8 0.154324 0.668915 0.386513
O O9 0.262594 0.521528 0.551109
O O10 0.198225 0.366801 0.378927
O O11 0.296925 0.149094 0.848884
O O12 0.865018 0.116650 0.737342
O O13 0.695066 0.905474 0.764390
O O14 0.802194 0.155269 0.833174
#
# Coordination Sequence:
#
# PCOD9263991 Si02
#       7
#     8   8   8   8   8   8   8
#     4  11  20  32  59  77 103 145 178 210 262 321
#     4  10  20  35  54  85 107 135 178 225 271 312
#     4   9  16  33  50  79 102 139 178 213 272 310
#     4  10  21  36  50  79 113 136 173 224 256 312
#     4   9  16  32  54  71 112 133 164 237 268 298
#     4   9  21  31  54  77 110 138 171 226 271 324
#     4  10  19  35  52  77 109 141 171 221 281 306
#
# _framework density 25.789009
#
# number of rings (size 3 to 8) (size 9 to 14) (size 15 to 20)
#    0.000    2.286    2.857    2.143    2.000    3.429 
#    0.000    0.714    0.000    0.000    0.000    3.000 
#    0.000    0.000    0.000    0.000    0.000    0.000 
#
# Total GULP energy -156048.800674 kJ/mol
# GULP energy per Si atom -5573.171453 kJ/mol
# Density = 2.573031 g / cm^3
# Si number density = 25.789009 Si / 1000 Ang^3
#
#
#
# Elastic Constant Matrix: (Units=GPa)
#
#
# Indices 1 2 3 4 5 6 
#
# 1 174.8543 46.3578 43.2014 0.0000 -54.1300 0.0000
# 2 46.3578 128.1280 29.9927 0.0000 -10.0294 0.0000
# 3 43.2014 29.9927 64.5470 0.0000 -31.5232 0.0000
# 4 0.0000 0.0000 0.0000 24.1556 0.0000 -2.3225
# 5 -54.1300 -10.0294 -31.5232 0.0000 38.6273 0.0000
# 6 0.0000 0.0000 0.0000 -2.3225 0.0000 35.3221
#
#
#
# Elastic Compliance Matrix: (Units=1/GPa)
#
#
# Indices 1 2 3 4 5 6 
#
# 1 0.011180 -0.003242 0.002102 0.000000 0.016540 0.000000
# 2 -0.003242 0.009768 -0.005569 0.000000 -0.006552 0.000000
# 3 0.002102 -0.005569 0.028940 0.000000 0.025117 0.000000
# 4 0.000000 0.000000 0.000000 0.041662 0.000000 0.002739
# 5 0.016540 -0.006552 0.025117 0.000000 0.067863 0.000000
# 6 0.000000 0.000000 0.000000 0.002739 0.000000 0.028491
#
#
# Mechanical properties :
#
#
# Convention : Reuss Voigt Hill
#
# Bulk Modulus (GPa) = 27.42019 67.40369 47.41194
# Shear Modulus (GPa) = 23.42158 36.15282 29.78720
#
# Velocity S-wave (km/s) = 3.01691 3.74822 3.40227
# Velocity P-wave (km/s) = 4.77401 6.70265 5.81879
#
# Compressibility (1/GPa) = 0.03646947
#
# Stress axis : x y z
#
# Youngs Moduli (GPa) = 89.44850 102.37049 34.55432
#
# Poissons Ratio (x) = 0.33190 -0.07262
# Poissons Ratio (y) = 0.29001 0.19242
# Poissons Ratio (z) = -0.18798 0.57007
#
# Static dielectric constant tensor:
#      x y z
#    x 2.177230 0.000000 -0.037980 
#    y 0.000000 2.042290 0.000000 
#    z -0.037980 0.000000 2.128030 
# 
# From -- ./inp_files/214033.got.cif
#   From: 2010.05.17/outbox.cif.g08.bks.cpg/sg15_108_cif.got.tgz:214033.got - 2010.06.03 18:47:42.
