data_PCOD9263684
_publ_section_title
;
Structure prediction by ZEFSAII (Michael W. Deem and Ramdas Pophale) SiO2 
 PCOD9263684
Probable space group: C 2/C
;
_chemical_formula_sum "Si O2"
_cell_formula_units_Z 48
_cell_length_a 32.048803
_cell_length_b 7.198194
_cell_length_c 16.715979
_cell_angle_alpha 90.000000
_cell_angle_beta 30.938558
_cell_angle_gamma 90.000000
_cell_volume 1982.578897
_symmetry_space_group_name_H-M "C 2/C"
_symmetry_group_IT_number 15
_symmetry_cell_setting 'monoclinic'
loop_
_space_group_symop_operation_xyz
x,y,z
-x,y,1/2-z
-x,-y,-z
x,-y,1/2+z
1/2+x,1/2+y,z
1/2-x,1/2+y,1/2-z
1/2-x,1/2-y,-z
1/2+x,1/2-y,1/2+z
loop_
_atom_site_type_symbol
_atom_site_label
_atom_site_fract_x
_atom_site_fract_y
_atom_site_fract_z
Si Si1 0.589684 0.843199 0.127212
Si Si2 0.961617 0.249157 0.734784
Si Si3 0.638179 0.243360 0.880977
Si Si4 0.710526 0.842804 0.782136
Si Si5 0.841897 0.286030 0.323632
Si Si6 0.665031 0.774184 0.684350
O O1 0.500000 0.791153 0.250000
O O2 0.607798 0.743491 0.180392
O O3 0.583630 0.067254 0.154451
O O4 0.657000 0.802693 0.949440
O O5 0.901791 0.177638 0.763337
O O6 0.000000 0.146086 0.750000
O O7 0.045377 0.299332 0.552635
O O8 0.693656 0.347403 0.854844
O O9 0.641202 0.320203 0.786102
O O10 0.687377 0.052150 0.799647
O O11 0.682221 0.730228 0.749823
O O12 0.750000 0.250000 0.500000
O O13 0.857000 0.505756 0.282986
O O14 0.750000 0.750000 0.500000
#
# Coordination Sequence:
#
# PCOD9263684 Si02
#       6
#     8   8   8   8   8   8
#     4  10  19  34  59  84 116 150 198 237 288 344
#     4  10  19  36  60  83 115 154 196 240 288 349
#     4  11  22  37  61  88 119 154 202 241 299 354
#     4  11  22  36  61  90 117 156 196 245 298 350
#     4  10  21  36  57  85 116 154 191 239 294 349
#     4  10  23  36  60  86 119 152 200 243 295 350
#
# _framework density 24.210892000000001
#
# number of rings (size 3 to 8) (size 9 to 14) (size 15 to 20)
#    0.000    1.667    5.000    1.000    4.667    2.000 
#    0.000    0.000    3.667    2.000    0.000    0.000 
#    0.000    0.000    0.000    0.000    0.000    0.000 
#
# Total GULP energy -133905.481773 kJ/mol
# GULP energy per Si atom -5579.395074 kJ/mol
# Density = 2.415579 g / cm^3
# Si number density = 24.210892 Si / 1000 Ang^3
#
#
#
# Elastic Constant Matrix: (Units=GPa)
#
#
# Indices 1 2 3 4 5 6 
#
# 1 255.4828 14.5332 62.6065 -0.0001 0.4439 0.0000
# 2 14.5332 52.6202 5.5353 -0.0007 10.4936 0.0000
# 3 62.6065 5.5353 100.0548 -0.0004 2.5612 0.0000
# 4 -0.0001 -0.0007 -0.0004 17.8698 0.0000 -0.8903
# 5 0.4439 10.4936 2.5612 0.0000 52.9369 0.0000
# 6 0.0000 0.0000 0.0000 -0.8903 0.0000 15.8388
#
#
#
# Elastic Compliance Matrix: (Units=1/GPa)
#
#
# Indices 1 2 3 4 5 6 
#
# 1 0.004678 -0.001051 -0.002877 0.000000 0.000308 0.000000
# 2 -0.001051 0.020122 -0.000354 0.000001 -0.003963 0.000000
# 3 -0.002877 -0.000354 0.011827 0.000000 -0.000478 0.000000
# 4 0.000000 0.000001 0.000000 0.056117 0.000000 0.003155
# 5 0.000308 -0.003963 -0.000478 0.000000 0.019696 0.000000
# 6 0.000000 0.000000 0.000000 0.003155 0.000000 0.063314
#
#
# Mechanical properties :
#
#
# Convention : Reuss Voigt Hill
#
# Bulk Modulus (GPa) = 35.63479 63.72311 49.67895
# Shear Modulus (GPa) = 25.81668 39.02795 32.42231
#
# Velocity S-wave (km/s) = 3.26901 4.01933 3.66343
# Velocity P-wave (km/s) = 5.38507 6.92222 6.20146
#
# Compressibility (1/GPa) = 0.02806246
#
# Stress axis : x y z
#
# Youngs Moduli (GPa) = 213.74544 49.69709 84.55480
#
# Poissons Ratio (x) = 0.05223 0.24328
# Poissons Ratio (y) = 0.22464 0.02994
# Poissons Ratio (z) = 0.61498 0.01760
#
# Static dielectric constant tensor:
#      x y z
#    x 2.058150 0.000000 0.074450 
#    y 0.000000 2.067410 0.000000 
#    z 0.074450 0.000000 1.826300 
# 
# From -- ./inp_files/152208.got.cif
#   From: 2010.05.17/outbox.cif.g08.bks.cpg/sg15_77_cif.got.tgz:152208.got - 2010.06.03 18:47:42.
