data_PCOD9263255
_publ_section_title
;
Structure prediction by ZEFSAII (Michael W. Deem and Ramdas Pophale) SiO2 
 PCOD9263255
Probable space group: C 2/C
;
_chemical_formula_sum "Si O2"
_cell_formula_units_Z 56
_cell_length_a 25.107437
_cell_length_b 8.010136
_cell_length_c 19.045529
_cell_angle_alpha 90.000000
_cell_angle_beta 133.592794
_cell_angle_gamma 90.000000
_cell_volume 2774.143773
_symmetry_space_group_name_H-M "C 2/C"
_symmetry_group_IT_number 15
_symmetry_cell_setting 'monoclinic'
loop_
_space_group_symop_operation_xyz
x,y,z
-x,y,1/2-z
-x,-y,-z
x,-y,1/2+z
1/2+x,1/2+y,z
1/2-x,1/2+y,1/2-z
1/2-x,1/2-y,-z
1/2+x,1/2-y,1/2+z
loop_
_atom_site_type_symbol
_atom_site_label
_atom_site_fract_x
_atom_site_fract_y
_atom_site_fract_z
Si Si1 0.700542 0.002544 0.657425
Si Si2 0.677053 0.101033 0.858122
Si Si3 0.250939 0.679183 0.341671
Si Si4 0.077297 0.596569 0.642818
Si Si5 0.466047 0.271628 0.440842
Si Si6 0.335313 0.781667 0.998709
Si Si7 0.594745 0.508142 0.007105
O O1 0.756326 0.122534 0.667581
O O2 0.645244 0.118038 0.651230
O O3 0.733803 0.887324 0.747829
O O4 0.655217 0.902723 0.558598
O O5 0.608589 0.149192 0.746406
O O6 0.751599 0.210067 0.914176
O O7 0.700181 0.918004 0.850967
O O8 0.658728 0.123066 0.922716
O O9 0.334019 0.624506 0.433627
O O10 0.060042 0.397031 0.621620
O O11 0.011976 0.702320 0.549921
O O12 0.407414 0.398953 0.422107
O O13 0.521520 0.381086 0.444034
O O14 0.391549 0.628597 0.041082
#
# Coordination Sequence:
#
# PCOD9263255 Si02
#       7
#     8   8   8   8   8   8   8
#     4  11  19  33  56  83 110 141 187 242 292 338
#     4   9  21  37  56  82 113 150 188 232 297 351
#     4  10  20  32  56  84 109 143 188 242 292 336
#     4  10  19  35  55  86 109 146 191 244 279 343
#     4  10  20  32  57  83 111 144 192 236 283 329
#     4  10  20  37  57  80 117 152 183 235 297 352
#     4  10  19  34  54  84 111 144 187 234 284 340
#
# _framework density 20.186408
#
# number of rings (size 3 to 8) (size 9 to 14) (size 15 to 20)
#    0.000    2.000    2.857    2.571    2.000    0.571 
#    0.000    0.714    0.000    1.714    0.000    0.000 
#    0.000    0.000    0.000    0.000    0.000    0.000 
#
# Total GULP energy -156107.987865 kJ/mol
# GULP energy per Si atom -5575.285281 kJ/mol
# Density = 2.014046 g / cm^3
# Si number density = 20.186408 Si / 1000 Ang^3
#
#
#
# Elastic Constant Matrix: (Units=GPa)
#
#
# Indices 1 2 3 4 5 6 
#
# 1 55.9841 13.6245 15.6496 0.0000 -9.4738 0.0000
# 2 13.6245 79.6560 16.0766 0.0000 -9.9593 0.0000
# 3 15.6496 16.0766 71.1374 0.0000 -14.2164 0.0000
# 4 0.0000 0.0000 0.0000 15.7866 0.0000 11.6881
# 5 -9.4738 -9.9593 -14.2164 0.0000 27.6956 0.0000
# 6 0.0000 0.0000 0.0000 11.6881 0.0000 28.6956
#
#
#
# Elastic Compliance Matrix: (Units=1/GPa)
#
#
# Indices 1 2 3 4 5 6 
#
# 1 0.020009 -0.002256 -0.002993 0.000000 0.004497 0.000000
# 2 -0.002256 0.013733 -0.001977 0.000000 0.003152 0.000000
# 3 -0.002993 -0.001977 0.016510 0.000000 0.006739 0.000000
# 4 0.000000 0.000000 0.000000 0.090696 0.000000 -0.036942
# 5 0.004497 0.003152 0.006739 0.000000 0.042238 0.000000
# 6 0.000000 0.000000 0.000000 -0.036942 0.000000 0.049895
#
#
# Mechanical properties :
#
#
# Convention : Reuss Voigt Hill
#
# Bulk Modulus (GPa) = 27.93457 33.05322 30.49390
# Shear Modulus (GPa) = 19.27028 25.19736 22.23382
#
# Velocity S-wave (km/s) = 3.09304 3.53687 3.32237
# Velocity P-wave (km/s) = 5.15986 5.75229 5.46411
#
# Compressibility (1/GPa) = 0.03579794
#
# Stress axis : x y z
#
# Youngs Moduli (GPa) = 49.97770 72.81727 60.57110
#
# Poissons Ratio (x) = 0.16428 0.18131
# Poissons Ratio (y) = 0.11275 0.11978
# Poissons Ratio (z) = 0.14960 0.14399
#
# Static dielectric constant tensor:
#      x y z
#    x 1.736890 0.000000 0.042800 
#    y 0.000000 1.776450 0.000000 
#    z 0.042800 0.000000 1.722510 
# 
# From -- ./inp_files/218639.got.cif
#   From: 2010.05.17/outbox.cif.g08.bks.cpg/sg15_110_cif.got.tgz:218639.got - 2010.06.03 18:47:42.
