data_PCOD9263215
_publ_section_title
;
Structure prediction by ZEFSAII (Michael W. Deem and Ramdas Pophale) SiO2 
 PCOD9263215
Probable space group: C 2/C
;
_chemical_formula_sum "Si O2"
_cell_formula_units_Z 48
_cell_length_a 16.051075
_cell_length_b 11.981828
_cell_length_c 12.554557
_cell_angle_alpha 90.000000
_cell_angle_beta 79.621656
_cell_angle_gamma 90.000000
_cell_volume 2375.005480
_symmetry_space_group_name_H-M "C 2/C"
_symmetry_group_IT_number 15
_symmetry_cell_setting 'monoclinic'
loop_
_space_group_symop_operation_xyz
x,y,z
-x,y,1/2-z
-x,-y,-z
x,-y,1/2+z
1/2+x,1/2+y,z
1/2-x,1/2+y,1/2-z
1/2-x,1/2-y,-z
1/2+x,1/2-y,1/2+z
loop_
_atom_site_type_symbol
_atom_site_label
_atom_site_fract_x
_atom_site_fract_y
_atom_site_fract_z
Si Si1 0.946536 0.384094 0.005868
Si Si2 0.376614 0.099117 0.741707
Si Si3 0.303632 0.860381 0.472376
Si Si4 0.785497 0.793885 0.319935
Si Si5 0.753008 0.403956 0.964383
Si Si6 0.905061 0.351361 0.664538
O O1 0.851836 0.392501 0.980100
O O2 0.004512 0.320730 0.907142
O O3 0.932499 0.349534 0.132534
O O4 0.000000 0.500000 0.000000
O O5 0.374488 0.143428 0.862790
O O6 0.280911 0.128718 0.726488
O O7 0.400688 0.967119 0.733400
O O8 0.250000 0.750000 0.500000
O O9 0.345680 0.879735 0.577100
O O10 0.244511 0.964741 0.454343
O O11 0.741809 0.676148 0.366189
O O12 0.802878 0.855597 0.427011
O O13 0.864649 0.752108 0.235119
#
# Coordination Sequence:
#
# PCOD9263215 Si02
#       6
#     8   8   8   8   8   8
#     4   9  18  34  51  78 116 134 169 227 277 322
#     4  10  20  34  50  78 113 138 168 225 270 315
#     4  12  21  31  53  82 108 144 181 214 272 323
#     4  10  19  34  54  75 114 142 176 221 264 324
#     4  10  20  35  54  82 108 145 180 213 281 319
#     4  11  20  34  53  83 110 135 181 217 276 327
#
# _framework density 20.210478999999999
#
# number of rings (size 3 to 8) (size 9 to 14) (size 15 to 20)
#    0.000    1.667    8.333    0.000    0.000    1.333 
#    0.000    0.000    0.000    0.000    0.000   53.667 
#    0.000    0.000    0.000    0.000    0.000    0.000 
#
# Total GULP energy -133733.251836 kJ/mol
# GULP energy per Si atom -5572.218826 kJ/mol
# Density = 2.016448 g / cm^3
# Si number density = 20.210479 Si / 1000 Ang^3
#
#
#
# Elastic Constant Matrix: (Units=GPa)
#
#
# Indices 1 2 3 4 5 6 
#
# 1 43.5400 20.2788 28.0041 0.0000 -17.5610 0.0000
# 2 20.2788 87.2259 35.1995 0.0000 -18.9362 0.0000
# 3 28.0041 35.1995 163.4592 0.0000 -39.2821 0.0000
# 4 0.0000 0.0000 0.0000 40.0320 0.0000 -6.0342
# 5 -17.5610 -18.9362 -39.2821 0.0000 39.3327 0.0000
# 6 0.0000 0.0000 0.0000 -6.0342 0.0000 17.9777
#
#
#
# Elastic Compliance Matrix: (Units=1/GPa)
#
#
# Indices 1 2 3 4 5 6 
#
# 1 0.029958 -0.004121 -0.001983 0.000000 0.009410 0.000000
# 2 -0.004121 0.013729 -0.001453 0.000000 0.003319 0.000000
# 3 -0.001983 -0.001453 0.008407 0.000000 0.006811 0.000000
# 4 0.000000 0.000000 0.000000 0.026311 0.000000 0.008831
# 5 0.009410 0.003319 0.006811 0.000000 0.038026 0.000000
# 6 0.000000 0.000000 0.000000 0.008831 0.000000 0.058589
#
#
# Mechanical properties :
#
#
# Convention : Reuss Voigt Hill
#
# Bulk Modulus (GPa) = 27.04218 51.24331 39.14275
# Shear Modulus (GPa) = 24.69585 33.51800 29.10693
#
# Velocity S-wave (km/s) = 3.49941 4.07682 3.79910
# Velocity P-wave (km/s) = 5.45318 6.89714 6.21722
#
# Compressibility (1/GPa) = 0.03697926
#
# Stress axis : x y z
#
# Youngs Moduli (GPa) = 33.37985 72.83620 118.94382
#
# Poissons Ratio (x) = 0.30019 0.23592
# Poissons Ratio (y) = 0.13757 0.17281
# Poissons Ratio (z) = 0.06621 0.10582
#
# Static dielectric constant tensor:
#      x y z
#    x 1.759060 0.000000 0.002780 
#    y 0.000000 1.764950 0.000000 
#    z 0.002780 0.000000 1.841350 
# 
# From -- ./inp_files/160298.got.cif
#   From: 2010.05.17/outbox.cif.g08.bks.cpg/sg15_81_cif.got.tgz:160298.got - 2010.06.03 18:47:42.
