data_PCOD9263741
_publ_section_title
;
Structure prediction by ZEFSAII (Michael W. Deem and Ramdas Pophale) SiO2 
 PCOD9263741
Probable space group: C 2/C
;
_chemical_formula_sum "Si O2"
_cell_formula_units_Z 64
_cell_length_a 17.299395
_cell_length_b 28.681241
_cell_length_c 8.411036
_cell_angle_alpha 90.000000
_cell_angle_beta 141.533843
_cell_angle_gamma 90.000000
_cell_volume 2596.003182
_symmetry_space_group_name_H-M "C 2/C"
_symmetry_group_IT_number 15
_symmetry_cell_setting 'monoclinic'
loop_
_space_group_symop_operation_xyz
x,y,z
-x,y,1/2-z
-x,-y,-z
x,-y,1/2+z
1/2+x,1/2+y,z
1/2-x,1/2+y,1/2-z
1/2-x,1/2-y,-z
1/2+x,1/2-y,1/2+z
loop_
_atom_site_type_symbol
_atom_site_label
_atom_site_fract_x
_atom_site_fract_y
_atom_site_fract_z
Si Si1 0.418095 0.532528 0.759683
Si Si2 0.386288 0.634453 0.689692
Si Si3 0.572729 0.265966 0.130293
Si Si4 0.267964 0.953742 0.077714
Si Si5 0.650976 0.861244 0.170175
Si Si6 0.376784 0.882566 0.747999
Si Si7 0.690565 0.242584 0.665244
Si Si8 0.383375 0.025877 0.446752
O O1 0.500000 0.550813 0.750000
O O2 0.377770 0.583114 0.761632
O O3 0.328161 0.494412 0.535832
O O4 0.500000 0.500000 0.000000
O O5 0.500000 0.640769 0.750000
O O6 0.397742 0.678705 0.822217
O O7 0.250974 0.638309 0.387387
O O8 0.626920 0.245122 0.385491
O O9 0.664456 0.244001 0.142050
O O10 0.421888 0.263061 0.904362
O O11 0.262761 0.899830 0.108038
O O12 0.379037 0.974456 0.366247
O O13 0.279167 0.961425 0.908439
O O14 0.698599 0.809284 0.248344
O O15 0.510672 0.863244 0.016080
O O16 0.634654 0.874927 0.958655
O O17 0.375505 0.936510 0.795528
O O18 0.500000 0.031793 0.750000
#
# Coordination Sequence:
#
# PCOD9263741 Si02
#       8
#     8   8   8   8   8   8   8   8
#     4  11  26  43  63  92 131 176 228 276 330 404
#     4  11  22  38  62  92 130 174 224 278 345 397
#     4  10  19  34  59  92 136 171 218 291 352 403
#     4  12  25  41  64  90 135 178 225 281 337 413
#     4  11  24  38  64  94 133 174 215 283 353 400
#     4  11  22  39  60  91 131 168 222 276 332 410
#     4  10  20  34  56  94 136 165 219 281 359 397
#     4  12  24  40  58  93 128 176 224 268 339 400
#
# _framework density 24.653283999999999
#
# number of rings (size 3 to 8) (size 9 to 14) (size 15 to 20)
#    0.000    1.000    5.000    3.375    7.000    0.000 
#    0.000    0.000    0.000    0.000    0.000    3.500 
#    7.500    0.000    0.000    0.000    0.000    0.000 
#
# Total GULP energy -178284.889485 kJ/mol
# GULP energy per Si atom -5571.402796 kJ/mol
# Density = 2.459717 g / cm^3
# Si number density = 24.653284 Si / 1000 Ang^3
#
#
#
# Elastic Constant Matrix: (Units=GPa)
#
#
# Indices 1 2 3 4 5 6 
#
# 1 103.5751 14.2430 28.0020 0.0000 46.2107 0.0000
# 2 14.2430 143.8423 27.5346 0.0000 9.3292 0.0000
# 3 28.0020 27.5346 43.0145 0.0000 10.5346 0.0000
# 4 0.0000 0.0000 0.0000 252.8202 0.0000 5.0111
# 5 46.2107 9.3292 10.5346 0.0000 43.6325 0.0000
# 6 0.0000 0.0000 0.0000 5.0111 0.0000 23.2798
#
#
#
# Elastic Compliance Matrix: (Units=1/GPa)
#
#
# Indices 1 2 3 4 5 6 
#
# 1 0.021132 0.001033 -0.009441 0.000000 -0.020322 0.000000
# 2 0.001033 0.007984 -0.005417 0.000000 -0.001493 0.000000
# 3 -0.009441 -0.005417 0.032023 0.000000 0.003425 0.000000
# 4 0.000000 0.000000 0.000000 0.003972 0.000000 -0.000855
# 5 -0.020322 -0.001493 0.003425 0.000000 0.043934 0.000000
# 6 0.000000 0.000000 0.000000 -0.000855 0.000000 0.043140
#
#
# Mechanical properties :
#
#
# Convention : Reuss Voigt Hill
#
# Bulk Modulus (GPa) = 29.86161 47.77676 38.81919
# Shear Modulus (GPa) = 26.17841 78.65666 52.41753
#
# Velocity S-wave (km/s) = 3.26216 5.65459 4.61606
# Velocity P-wave (km/s) = 5.13107 7.87744 6.64763
#
# Compressibility (1/GPa) = 0.03348781
#
# Stress axis : x y z
#
# Youngs Moduli (GPa) = 47.32156 125.25704 31.22796
#
# Poissons Ratio (x) = -0.12936 0.29482
# Poissons Ratio (y) = -0.04887 0.16917
# Poissons Ratio (z) = 0.44675 0.67854
#
# Static dielectric constant tensor:
#      x y z
#    x 2.140510 0.000000 0.207810 
#    y 0.000000 1.962690 0.000000 
#    z 0.207810 0.000000 2.168920 
# 
# From -- ./inp_files/52859.got.cif
#   From: 2010.05.17/outbox.cif.g08.bks.cpg/sg15_27_cif.got.tgz:52859.got - 2010.06.03 18:47:42.
