data_PCOD9263232
_publ_section_title
;
Structure prediction by ZEFSAII (Michael W. Deem and Ramdas Pophale) SiO2 
 PCOD9263232
Probable space group: C 2/C
;
_chemical_formula_sum "Si O2"
_cell_formula_units_Z 60
_cell_length_a 20.715637
_cell_length_b 20.841223
_cell_length_c 13.797392
_cell_angle_alpha 90.000000
_cell_angle_beta 144.996197
_cell_angle_gamma 90.000000
_cell_volume 3417.047081
_symmetry_space_group_name_H-M "C 2/C"
_symmetry_group_IT_number 15
_symmetry_cell_setting 'monoclinic'
loop_
_space_group_symop_operation_xyz
x,y,z
-x,y,1/2-z
-x,-y,-z
x,-y,1/2+z
1/2+x,1/2+y,z
1/2-x,1/2+y,1/2-z
1/2-x,1/2-y,-z
1/2+x,1/2-y,1/2+z
loop_
_atom_site_type_symbol
_atom_site_label
_atom_site_fract_x
_atom_site_fract_y
_atom_site_fract_z
Si Si1 0.421405 0.177181 0.344537
Si Si2 0.800220 0.992176 0.953577
Si Si3 0.000000 0.616322 0.250000
Si Si4 0.661810 0.348056 0.474008
Si Si5 0.411365 0.049773 0.435630
Si Si6 0.965795 0.182291 0.876461
Si Si7 0.405191 0.447229 0.406415
Si Si8 0.191095 0.511850 0.513647
O O1 0.493654 0.158600 0.338344
O O2 0.444527 0.122210 0.451990
O O3 0.449086 0.249482 0.406464
O O4 0.290579 0.169579 0.153239
O O5 0.872472 0.041060 0.978613
O O6 0.702094 0.966548 0.762420
O O7 0.859283 0.925157 0.055472
O O8 0.743204 0.018238 0.980852
O O9 0.109697 0.570755 0.384915
O O10 0.622491 0.321531 0.321929
O O11 0.584554 0.322814 0.466524
O O12 0.500000 0.000000 0.500000
O O13 0.384293 0.034742 0.513353
O O14 0.947505 0.122394 0.925257
O O15 0.500000 0.500000 0.500000
O O16 0.294383 0.462699 0.205869
#
# Coordination Sequence:
#
# PCOD9263232 Si02
#       8
#     8   8   4   8   8   8   8   8
#     4  11  22  34  52  82 114 142 177 224 281 340
#     4  10  19  34  54  81 110 141 184 230 266 322
#     4  12  18  34  58  86 112 144 174 226 294 338
#     4  10  19  35  52  78 113 142 176 219 285 334
#     4  10  19  34  54  80 112 143 182 221 276 327
#     4  11  21  34  53  77 113 147 178 222 275 338
#     4  11  22  34  55  78 113 152 192 221 268 327
#     4  11  20  34  58  81 114 143 183 236 272 322
#
# _framework density 17.559021000000001
#
# number of rings (size 3 to 8) (size 9 to 14) (size 15 to 20)
#    0.000    1.333    6.667    1.200    0.000    1.600 
#    0.000    0.000    0.000    0.800    0.000    3.733 
#    0.000    0.000    0.000    0.000    0.000    0.000 
#
# Total GULP energy -167404.664390 kJ/mol
# GULP energy per Si atom -5580.155480 kJ/mol
# Density = 1.751906 g / cm^3
# Si number density = 17.559021 Si / 1000 Ang^3
#
#
#
# Elastic Constant Matrix: (Units=GPa)
#
#
# Indices 1 2 3 4 5 6 
#
# 1 140.6834 68.4550 2.0454 0.0000 -7.2429 0.0000
# 2 68.4550 146.1972 8.6648 0.0000 -2.9395 0.0000
# 3 2.0454 8.6648 22.9963 0.0000 9.6536 0.0000
# 4 0.0000 0.0000 0.0000 18.8321 0.0000 -8.0239
# 5 -7.2429 -2.9395 9.6536 0.0000 24.5684 0.0000
# 6 0.0000 0.0000 0.0000 -8.0239 0.0000 22.6212
#
#
#
# Elastic Compliance Matrix: (Units=1/GPa)
#
#
# Indices 1 2 3 4 5 6 
#
# 1 0.009327 -0.004311 -0.000171 0.000000 0.002301 0.000000
# 2 -0.004311 0.009093 -0.003552 0.000000 0.001213 0.000000
# 3 -0.000171 -0.003552 0.053935 0.000000 -0.021668 0.000000
# 4 0.000000 0.000000 0.000000 0.062555 0.000000 0.022188
# 5 0.002301 0.001213 -0.021668 0.000000 0.050040 0.000000
# 6 0.000000 0.000000 0.000000 0.022188 0.000000 0.052077
#
#
# Mechanical properties :
#
#
# Convention : Reuss Voigt Hill
#
# Bulk Modulus (GPa) = 17.76610 52.02303 34.89457
# Shear Modulus (GPa) = 18.39202 28.58513 23.48858
#
# Velocity S-wave (km/s) = 3.23993 4.03916 3.66142
# Velocity P-wave (km/s) = 4.91285 7.17251 6.14740
#
# Compressibility (1/GPa) = 0.05628696
#
# Stress axis : x y z
#
# Youngs Moduli (GPa) = 107.21974 109.96984 18.54084
#
# Poissons Ratio (x) = 0.47404 0.00318
# Poissons Ratio (y) = 0.46219 0.06586
# Poissons Ratio (z) = 0.01837 0.39062
#
# Static dielectric constant tensor:
#      x y z
#    x 1.635640 0.000000 0.024420 
#    y 0.000000 1.635600 0.000000 
#    z 0.024420 0.000000 1.635430 
# 
# From -- ./inp_files/168889.got.cif
#   From: 2010.05.17/outbox.cif.g08.bks.cpg/sg15_85_cif.got.tgz:168889.got - 2010.06.03 18:47:42.
