data_PCOD9263200
_publ_section_title
;
Structure prediction by ZEFSAII (Michael W. Deem and Ramdas Pophale) SiO2 
 PCOD9263200
Probable space group: C 2/C
;
_chemical_formula_sum "Si O2"
_cell_formula_units_Z 56
_cell_length_a 13.749950
_cell_length_b 6.917986
_cell_length_c 24.142718
_cell_angle_alpha 90.000000
_cell_angle_beta 76.999642
_cell_angle_gamma 90.000000
_cell_volume 2237.640251
_symmetry_space_group_name_H-M "C 2/C"
_symmetry_group_IT_number 15
_symmetry_cell_setting 'monoclinic'
loop_
_space_group_symop_operation_xyz
x,y,z
-x,y,1/2-z
-x,-y,-z
x,-y,1/2+z
1/2+x,1/2+y,z
1/2-x,1/2+y,1/2-z
1/2-x,1/2-y,-z
1/2+x,1/2-y,1/2+z
loop_
_atom_site_type_symbol
_atom_site_label
_atom_site_fract_x
_atom_site_fract_y
_atom_site_fract_z
Si Si1 0.500560 0.224652 0.981154
Si Si2 0.635541 0.488163 0.178034
Si Si3 0.852938 0.175366 0.585968
Si Si4 0.902776 0.110532 0.700759
Si Si5 0.964564 0.537026 0.695167
Si Si6 0.332850 0.137703 0.614958
Si Si7 0.862477 0.643786 0.896996
O O1 0.609619 0.253287 0.940380
O O2 0.421033 0.232328 0.941414
O O3 0.454515 0.344276 0.037762
O O4 0.500000 0.000000 0.000000
O O5 0.652561 0.490379 0.241588
O O6 0.519685 0.441763 0.184563
O O7 0.715564 0.343684 0.140175
O O8 0.650313 0.694541 0.148455
O O9 0.858726 0.085025 0.645961
O O10 0.846062 0.409108 0.597150
O O11 0.750718 0.099936 0.571467
O O12 0.906437 0.339241 0.714432
O O13 0.893125 0.663115 0.665003
O O14 0.000000 0.616571 0.750000
O O15 0.060281 0.498305 0.642775
#
# Coordination Sequence:
#
# PCOD9263200 Si02
#       7
#     8   8   8   8   8   8   8
#     4   9  17  36  61  86 116 148 193 246 286 338
#     4  10  20  38  53  81 121 151 189 237 300 339
#     4   9  18  35  59  84 112 151 195 231 285 344
#     4  10  21  38  55  79 120 160 182 236 293 351
#     4  10  19  34  53  82 111 144 196 230 281 349
#     4   8  18  33  55  81 111 150 187 237 286 338
#     4  10  21  34  59  90 111 147 195 245 285 341
#
# _framework density 25.026364000000001
#
# number of rings (size 3 to 8) (size 9 to 14) (size 15 to 20)
#    0.000    2.571    1.429    1.286    4.000    0.000 
#    0.000    4.286    0.000    0.000    0.000    0.000 
#    0.000    0.000    0.000    0.000    0.000    0.000 
#
# Total GULP energy -156510.830872 kJ/mol
# GULP energy per Si atom -5589.672531 kJ/mol
# Density = 2.496940 g / cm^3
# Si number density = 25.026364 Si / 1000 Ang^3
#
#
#
# Elastic Constant Matrix: (Units=GPa)
#
#
# Indices 1 2 3 4 5 6 
#
# 1 105.5057 2.1122 28.9508 0.0000 -27.0636 0.0000
# 2 2.1122 65.7862 14.9141 0.0000 -6.0912 0.0000
# 3 28.9508 14.9141 105.4966 0.0000 -14.1632 0.0000
# 4 0.0000 0.0000 0.0000 30.4569 0.0000 -5.3214
# 5 -27.0636 -6.0912 -14.1632 0.0000 30.7475 0.0000
# 6 0.0000 0.0000 0.0000 -5.3214 0.0000 29.0033
#
#
#
# Elastic Compliance Matrix: (Units=1/GPa)
#
#
# Indices 1 2 3 4 5 6 
#
# 1 0.012739 0.001063 -0.002252 0.000000 0.010386 0.000000
# 2 0.001063 0.015937 -0.002127 0.000000 0.003113 0.000000
# 3 -0.002252 -0.002127 0.010739 0.000000 0.002543 0.000000
# 4 0.000000 0.000000 0.000000 0.033921 0.000000 0.006224
# 5 0.010386 0.003113 0.002543 0.000000 0.043453 0.000000
# 6 0.000000 0.000000 0.000000 0.006224 0.000000 0.035621
#
#
# Mechanical properties :
#
#
# Convention : Reuss Voigt Hill
#
# Bulk Modulus (GPa) = 30.50268 40.97143 35.73706
# Shear Modulus (GPa) = 29.41726 33.42896 31.42311
#
# Velocity S-wave (km/s) = 3.43220 3.65876 3.54729
# Velocity P-wave (km/s) = 5.28407 5.85282 5.57570
#
# Compressibility (1/GPa) = 0.03278400
#
# Stress axis : x y z
#
# Youngs Moduli (GPa) = 78.49960 62.74693 93.11809
#
# Poissons Ratio (x) = -0.06671 0.20968
# Poissons Ratio (y) = -0.08346 0.19805
# Poissons Ratio (z) = 0.17677 0.13345
#
# Static dielectric constant tensor:
#      x y z
#    x 1.973170 0.000000 -0.046020 
#    y 0.000000 1.957740 0.000000 
#    z -0.046020 0.000000 1.970840 
# 
# From -- ./inp_files/272661.got.cif
#   From: 2010.05.17/outbox.cif.g08.bks.cpg/sg15_137_cif.got.tgz:272661.got - 2010.06.03 18:47:42.
