data_PCOD9263563
_publ_section_title
;
Structure prediction by ZEFSAII (Michael W. Deem and Ramdas Pophale) SiO2 
 PCOD9263563
Probable space group: C 2/C
;
_chemical_formula_sum "Si O2"
_cell_formula_units_Z 60
_cell_length_a 28.739108
_cell_length_b 17.008441
_cell_length_c 8.319266
_cell_angle_alpha 90.000000
_cell_angle_beta 144.717080
_cell_angle_gamma 90.000000
_cell_volume 2348.879536
_symmetry_space_group_name_H-M "C 2/C"
_symmetry_group_IT_number 15
_symmetry_cell_setting 'monoclinic'
loop_
_space_group_symop_operation_xyz
x,y,z
-x,y,1/2-z
-x,-y,-z
x,-y,1/2+z
1/2+x,1/2+y,z
1/2-x,1/2+y,1/2-z
1/2-x,1/2-y,-z
1/2+x,1/2-y,1/2+z
loop_
_atom_site_type_symbol
_atom_site_label
_atom_site_fract_x
_atom_site_fract_y
_atom_site_fract_z
Si Si1 0.123590 0.881438 0.323454
Si Si2 0.533101 0.318845 0.526977
Si Si3 0.745929 0.919403 0.010178
Si Si4 0.620336 0.103067 0.559661
Si Si5 0.360480 0.200649 0.172899
Si Si6 0.640346 0.039558 0.924683
Si Si7 0.792307 0.837526 0.606665
Si Si8 0.000000 0.711853 0.750000
O O1 0.163973 0.934163 0.298776
O O2 0.137036 0.792641 0.294933
O O3 0.171841 0.873148 0.626853
O O4 0.029154 0.888198 0.095685
O O5 0.627999 0.334295 0.777297
O O6 0.524407 0.260417 0.657191
O O7 0.500000 0.298766 0.250000
O O8 0.726010 0.837455 0.042686
O O9 0.697567 0.915251 0.706699
O O10 0.699086 0.982515 0.985237
O O11 0.605361 0.177606 0.406026
O O12 0.591445 0.024845 0.387905
O O13 0.595095 0.096369 0.672932
O O14 0.718388 0.107697 0.845616
O O15 0.423865 0.163332 0.475458
O O16 0.750000 0.750000 0.500000
#
# Coordination Sequence:
#
# PCOD9263563 Si02
#       8
#     8   8   8   8   8   8   8   4
#     4  10  19  35  55  88 121 153 189 240 307 362
#     4   9  22  38  54  83 132 167 185 237 310 366
#     4  10  19  34  58  80 113 151 199 247 284 354
#     4  10  19  35  56  81 110 148 196 243 282 350
#     4  10  21  34  56  88 118 146 194 244 309 361
#     4   9  20  34  53  81 111 149 197 248 290 326
#     4  11  20  33  61  91 119 152 198 243 302 361
#     4  10  22  38  54  84 128 160 188 240 310 388
#
# _framework density 25.544094999999999
#
# number of rings (size 3 to 8) (size 9 to 14) (size 15 to 20)
#    0.000    2.133    2.667    0.400    1.867    4.267 
#    0.000    0.000    0.000   17.600    0.000    0.000 
#    0.000    0.000    0.000    0.000    0.000    0.000 
#
# Total GULP energy -167153.500214 kJ/mol
# GULP energy per Si atom -5571.783340 kJ/mol
# Density = 2.548596 g / cm^3
# Si number density = 25.544095 Si / 1000 Ang^3
#
#
#
# Elastic Constant Matrix: (Units=GPa)
#
#
# Indices 1 2 3 4 5 6 
#
# 1 101.5726 9.8447 27.7333 0.0000 8.4580 0.0000
# 2 9.8447 19.2321 -7.7797 0.0000 -5.1351 0.0000
# 3 27.7333 -7.7797 99.9026 0.0000 2.3436 0.0000
# 4 0.0000 0.0000 0.0000 16.0896 0.0000 -9.8886
# 5 8.4580 -5.1351 2.3436 0.0000 45.1255 0.0000
# 6 0.0000 0.0000 0.0000 -9.8886 0.0000 44.6295
#
#
#
# Elastic Compliance Matrix: (Units=1/GPa)
#
#
# Indices 1 2 3 4 5 6 
#
# 1 0.011994 -0.008532 -0.003923 0.000000 -0.003015 0.000000
# 2 -0.008532 0.061372 0.006955 0.000000 0.008222 0.000000
# 3 -0.003923 0.006955 0.011619 0.000000 0.000923 0.000000
# 4 0.000000 0.000000 0.000000 0.071950 0.000000 0.015942
# 5 -0.003015 0.008222 0.000923 0.000000 0.023613 0.000000
# 6 0.000000 0.000000 0.000000 0.015942 0.000000 0.025939
#
#
# Mechanical properties :
#
#
# Convention : Reuss Voigt Hill
#
# Bulk Modulus (GPa) = 13.51630 31.14487 22.33058
# Shear Modulus (GPa) = 20.64831 33.89618 27.27225
#
# Velocity S-wave (km/s) = 2.84622 3.64671 3.27104
# Velocity P-wave (km/s) = 4.01299 5.47269 4.79867
#
# Compressibility (1/GPa) = 0.07398476
#
# Stress axis : x y z
#
# Youngs Moduli (GPa) = 83.37190 16.29396 86.06720
#
# Poissons Ratio (x) = 0.13902 0.33767
# Poissons Ratio (y) = 0.71133 -0.59859
# Poissons Ratio (z) = 0.32710 -0.11332
#
# Static dielectric constant tensor:
#      x y z
#    x 2.129540 0.000000 -0.013750 
#    y 0.000000 2.091800 0.000000 
#    z -0.013750 0.000000 2.134070 
# 
# From -- ./inp_files/70962.got.cif
#   From: 2010.05.17/outbox.cif.g08.bks.cpg/sg15_36_cif.got.tgz:70962.got - 2010.06.03 18:47:42.
