data_PCOD9263307
_publ_section_title
;
Structure prediction by ZEFSAII (Michael W. Deem and Ramdas Pophale) SiO2 
 PCOD9263307
Probable space group: C 2/C
;
_chemical_formula_sum "Si O2"
_cell_formula_units_Z 64
_cell_length_a 28.639998
_cell_length_b 20.006793
_cell_length_c 13.633093
_cell_angle_alpha 90.000000
_cell_angle_beta 156.421078
_cell_angle_gamma 90.000000
_cell_volume 3124.767894
_symmetry_space_group_name_H-M "C 2/C"
_symmetry_group_IT_number 15
_symmetry_cell_setting 'monoclinic'
loop_
_space_group_symop_operation_xyz
x,y,z
-x,y,1/2-z
-x,-y,-z
x,-y,1/2+z
1/2+x,1/2+y,z
1/2-x,1/2+y,1/2-z
1/2-x,1/2-y,-z
1/2+x,1/2-y,1/2+z
loop_
_atom_site_type_symbol
_atom_site_label
_atom_site_fract_x
_atom_site_fract_y
_atom_site_fract_z
Si Si1 0.297650 0.408295 0.519049
Si Si2 0.428746 0.873180 0.325999
Si Si3 0.378684 0.392649 0.469910
Si Si4 0.694274 0.114737 0.293703
Si Si5 0.685491 0.526017 0.814536
Si Si6 0.126048 0.538361 0.964379
Si Si7 0.603632 0.261065 0.809818
Si Si8 0.168339 0.752487 0.153355
O O1 0.158204 0.411631 0.269629
O O2 0.319253 0.427040 0.448267
O O3 0.348528 0.458195 0.697314
O O4 0.353067 0.334287 0.636865
O O5 0.566814 0.881625 0.600985
O O6 0.403119 0.900771 0.167055
O O7 0.383737 0.797067 0.245057
O O8 0.407160 0.441142 0.436289
O O9 0.300396 0.331170 0.279024
O O10 0.500000 0.366645 0.750000
O O11 0.778060 0.077833 0.530891
O O12 0.726085 0.190687 0.321496
O O13 0.680261 0.070953 0.167067
O O14 0.791511 0.508797 0.942754
O O15 0.000000 0.507937 0.750000
O O16 0.465659 0.253970 0.567382
O O17 0.668169 0.242023 0.035752
#
# Coordination Sequence:
#
# PCOD9263307 Si02
#       8
#     8   8   8   8   8   8   8   8
#     4  10  20  34  53  82 109 137 183 224 259 326
#     4   9  17  29  56  85 107 139 178 220 268 310
#     4  11  22  40  57  73 103 142 187 233 269 317
#     4  10  19  34  55  81 114 141 176 220 267 333
#     4  11  24  34  51  84 112 144 178 217 281 332
#     4   9  18  33  54  78 116 150 171 209 266 335
#     4   9  14  30  54  84 101 134 181 230 250 302
#     4   9  16  32  59  76 100 136 185 220 265 307
#
# _framework density 20.481521000000001
#
# number of rings (size 3 to 8) (size 9 to 14) (size 15 to 20)
#    0.000    2.250    3.750    1.125    0.000    6.500 
#    0.000    0.000    0.000    0.000    0.000    0.000 
#    0.000    0.000    0.000    0.000    0.000    0.000 
#
# Total GULP energy -178202.146665 kJ/mol
# GULP energy per Si atom -5568.817083 kJ/mol
# Density = 2.043490 g / cm^3
# Si number density = 20.481521 Si / 1000 Ang^3
#
#
#
# Elastic Constant Matrix: (Units=GPa)
#
#
# Indices 1 2 3 4 5 6 
#
# 1 98.7219 22.5744 17.2334 0.0000 -7.5865 0.0000
# 2 22.5744 77.3863 17.5818 0.0000 -9.3333 0.0000
# 3 17.2334 17.5818 25.7368 0.0000 -12.3697 0.0000
# 4 0.0000 0.0000 0.0000 13.2401 0.0000 -0.6100
# 5 -7.5865 -9.3333 -12.3697 0.0000 20.1414 0.0000
# 6 0.0000 0.0000 0.0000 -0.6100 0.0000 26.9604
#
#
#
# Elastic Compliance Matrix: (Units=1/GPa)
#
#
# Indices 1 2 3 4 5 6 
#
# 1 0.011717 -0.001945 -0.006851 0.000000 -0.000696 0.000000
# 2 -0.001945 0.015632 -0.008863 0.000000 0.001068 0.000000
# 3 -0.006851 -0.008863 0.065665 0.000000 0.033640 0.000000
# 4 0.000000 0.000000 0.000000 0.075607 0.000000 0.001711
# 5 -0.000696 0.001068 0.033640 0.000000 0.070541 0.000000
# 6 0.000000 0.000000 0.000000 0.001711 0.000000 0.037130
#
#
# Mechanical properties :
#
#
# Convention : Reuss Voigt Hill
#
# Bulk Modulus (GPa) = 17.33246 35.18046 26.25646
# Shear Modulus (GPa) = 15.11290 21.69875 18.40583
#
# Velocity S-wave (km/s) = 2.71934 3.25842 3.00101
# Velocity P-wave (km/s) = 4.28259 5.60093 4.98553
#
# Compressibility (1/GPa) = 0.05769522
#
# Stress axis : x y z
#
# Youngs Moduli (GPa) = 85.34772 63.97104 15.22878
#
# Poissons Ratio (x) = 0.12444 0.10433
# Poissons Ratio (y) = 0.16603 0.13497
# Poissons Ratio (z) = 0.58472 0.56698
#
# Static dielectric constant tensor:
#      x y z
#    x 1.756020 0.000000 0.028900 
#    y 0.000000 1.827660 0.000000 
#    z 0.028900 0.000000 1.729030 
# 
# From -- ./inp_files/124278.got.cif
#   From: 2010.05.17/outbox.cif.g08.bks.cpg/sg15_63_cif.got.tgz:124278.got - 2010.06.03 18:47:42.
