data_PCOD9263937
_publ_section_title
;
Structure prediction by ZEFSAII (Michael W. Deem and Ramdas Pophale) SiO2 
 PCOD9263937
Probable space group: C 2/C
;
_chemical_formula_sum "Si O2"
_cell_formula_units_Z 48
_cell_length_a 10.249447
_cell_length_b 17.237702
_cell_length_c 18.917666
_cell_angle_alpha 90.000000
_cell_angle_beta 133.493296
_cell_angle_gamma 90.000000
_cell_volume 2424.698699
_symmetry_space_group_name_H-M "C 2/C"
_symmetry_group_IT_number 15
_symmetry_cell_setting 'monoclinic'
loop_
_space_group_symop_operation_xyz
x,y,z
-x,y,1/2-z
-x,-y,-z
x,-y,1/2+z
1/2+x,1/2+y,z
1/2-x,1/2+y,1/2-z
1/2-x,1/2-y,-z
1/2+x,1/2-y,1/2+z
loop_
_atom_site_type_symbol
_atom_site_label
_atom_site_fract_x
_atom_site_fract_y
_atom_site_fract_z
Si Si1 0.304885 0.525566 0.958249
Si Si2 0.500000 0.777466 0.750000
Si Si3 0.599820 0.683038 0.437459
Si Si4 0.498284 0.260401 0.454703
Si Si5 0.319331 0.139056 0.046381
Si Si6 0.686295 0.227160 0.737163
Si Si7 0.500000 0.902033 0.250000
O O1 0.218728 0.450559 0.962391
O O2 0.169691 0.551216 0.844876
O O3 0.500000 0.500000 0.000000
O O4 0.329504 0.596966 0.022178
O O5 0.589173 0.829134 0.846411
O O6 0.338284 0.731441 0.731197
O O7 0.750000 0.750000 0.500000
O O8 0.484124 0.702295 0.463531
O O9 0.456788 0.703163 0.323896
O O10 0.553328 0.171378 0.467773
O O11 0.634333 0.314564 0.461597
O O12 0.300812 0.266683 0.351173
O O13 0.571229 0.149975 0.710250
#
# Coordination Sequence:
#
# PCOD9263937 Si02
#       7
#     8   4   8   8   8   8   4
#     4  12  22  38  61  97 125 161 212 271 307 374
#     4  10  19  34  64  90 125 158 216 261 308 380
#     4  12  22  38  62  89 125 169 209 254 316 378
#     4  10  20  38  60  89 122 164 205 258 307 375
#     4  10  20  36  59  92 123 157 206 262 313 361
#     4  11  20  37  59  94 120 169 214 255 310 386
#     4  12  23  38  66  92 131 164 212 265 324 376
#
# _framework density 19.796274
#
# number of rings (size 3 to 8) (size 9 to 14) (size 15 to 20)
#    0.000    1.000    6.667    0.500    0.000    1.333 
#    0.000    0.833    0.000    0.000    4.333    0.000 
#    0.000    0.000    0.000    0.000    0.000    0.000 
#
# Total GULP energy -133605.651496 kJ/mol
# GULP energy per Si atom -5566.902146 kJ/mol
# Density = 1.975122 g / cm^3
# Si number density = 19.796274 Si / 1000 Ang^3
#
#
#
# Elastic Constant Matrix: (Units=GPa)
#
#
# Indices 1 2 3 4 5 6 
#
# 1 49.3248 23.6115 -7.8952 0.0000 14.8482 0.0000
# 2 23.6115 145.6823 34.4839 0.0000 9.2352 0.0000
# 3 -7.8952 34.4839 124.3276 0.0000 23.2060 0.0000
# 4 0.0000 0.0000 0.0000 33.4224 0.0000 6.2096
# 5 14.8482 9.2352 23.2060 0.0000 30.4989 0.0000
# 6 0.0000 0.0000 0.0000 6.2096 0.0000 30.9855
#
#
#
# Elastic Compliance Matrix: (Units=1/GPa)
#
#
# Indices 1 2 3 4 5 6 
#
# 1 0.029085 -0.005151 0.006559 0.000000 -0.017591 0.000000
# 2 -0.005151 0.008275 -0.003057 0.000000 0.002328 0.000000
# 3 0.006559 -0.003057 0.011342 0.000000 -0.010897 0.000000
# 4 0.000000 0.000000 0.000000 0.031077 0.000000 -0.006228
# 5 -0.017591 0.002328 -0.010897 0.000000 0.048938 0.000000
# 6 0.000000 0.000000 0.000000 -0.006228 0.000000 0.033521
#
#
# Mechanical properties :
#
#
# Convention : Reuss Voigt Hill
#
# Bulk Modulus (GPa) = 22.02484 46.63724 34.33104
# Shear Modulus (GPa) = 27.67455 36.92366 32.29910
#
# Velocity S-wave (km/s) = 3.74300 4.32346 4.04366
# Velocity P-wave (km/s) = 5.46168 6.96655 6.25950
#
# Compressibility (1/GPa) = 0.04540328
#
# Stress axis : x y z
#
# Youngs Moduli (GPa) = 34.38215 120.84341 88.17048
#
# Poissons Ratio (x) = 0.62251 -0.57832
# Poissons Ratio (y) = 0.17712 0.26953
# Poissons Ratio (z) = -0.22552 0.36941
#
# Static dielectric constant tensor:
#      x y z
#    x 1.607440 0.000000 0.095900 
#    y 0.000000 1.635850 0.000000 
#    z 0.095900 0.000000 1.696690 
# 
# From -- ./inp_files/143477.got.cif
#   From: 2010.05.17/outbox.cif.g08.bks.cpg/sg15_72_cif.got.tgz:143477.got - 2010.06.03 18:47:42.
