data_PCOD9263472
_publ_section_title
;
Structure prediction by ZEFSAII (Michael W. Deem and Ramdas Pophale) SiO2 
 PCOD9263472
Probable space group: C 2/C
;
_chemical_formula_sum "Si O2"
_cell_formula_units_Z 48
_cell_length_a 14.131074
_cell_length_b 12.446330
_cell_length_c 15.526904
_cell_angle_alpha 90.000000
_cell_angle_beta 122.740735
_cell_angle_gamma 90.000000
_cell_volume 2297.008782
_symmetry_space_group_name_H-M "C 2/C"
_symmetry_group_IT_number 15
_symmetry_cell_setting 'monoclinic'
loop_
_space_group_symop_operation_xyz
x,y,z
-x,y,1/2-z
-x,-y,-z
x,-y,1/2+z
1/2+x,1/2+y,z
1/2-x,1/2+y,1/2-z
1/2-x,1/2-y,-z
1/2+x,1/2-y,1/2+z
loop_
_atom_site_type_symbol
_atom_site_label
_atom_site_fract_x
_atom_site_fract_y
_atom_site_fract_z
Si Si1 0.316151 0.867240 0.433471
Si Si2 0.981245 0.314792 0.838849
Si Si3 0.587425 0.351250 0.863823
Si Si4 0.734163 0.098133 0.169533
Si Si5 0.594751 0.659215 0.105660
Si Si6 0.415045 0.598508 0.591278
O O1 0.417406 0.859248 0.551976
O O2 0.340280 0.770246 0.380071
O O3 0.198782 0.852228 0.425143
O O4 0.306934 0.982085 0.382890
O O5 0.988894 0.184919 0.842314
O O6 0.000000 0.351966 0.750000
O O7 0.866760 0.348877 0.827925
O O8 0.500000 0.307025 0.750000
O O9 0.712329 0.338402 0.886634
O O10 0.532356 0.313256 0.926090
O O11 0.574683 0.480447 0.865955
O O12 0.838649 0.094417 0.288000
O O13 0.594986 0.594982 0.016770
#
# Coordination Sequence:
#
# PCOD9263472 Si02
#       6
#     8   8   8   8   8   8
#     4  10  21  37  56  81 113 144 178 226 274 316
#     4  11  20  34  58  86 110 140 180 225 270 324
#     4   9  19  34  53  76 108 145 180 222 271 319
#     4  10  21  36  55  79 110 145 180 220 271 326
#     4  10  19  35  56  80 107 143 184 228 269 317
#     4  10  19  34  57  82 106 139 186 231 268 314
#
# _framework density 20.896742
#
# number of rings (size 3 to 8) (size 9 to 14) (size 15 to 20)
#    0.000    2.000    0.000    5.500    0.000    2.667 
#    0.000    5.833    0.000   14.000    0.000    0.000 
#    0.000    0.000    0.000    0.000    0.000    0.000 
#
# Total GULP energy -133895.817371 kJ/mol
# GULP energy per Si atom -5578.992390 kJ/mol
# Density = 2.084918 g / cm^3
# Si number density = 20.896742 Si / 1000 Ang^3
#
#
#
# Elastic Constant Matrix: (Units=GPa)
#
#
# Indices 1 2 3 4 5 6 
#
# 1 177.2329 30.6968 18.1511 0.0000 -24.0043 0.0000
# 2 30.6968 26.0625 10.5899 0.0000 -2.5067 0.0000
# 3 18.1511 10.5899 72.8535 0.0000 -10.4660 0.0000
# 4 0.0000 0.0000 0.0000 13.9931 0.0000 1.2471
# 5 -24.0043 -2.5067 -10.4660 0.0000 31.2110 0.0000
# 6 0.0000 0.0000 0.0000 1.2471 0.0000 27.3838
#
#
#
# Elastic Compliance Matrix: (Units=1/GPa)
#
#
# Indices 1 2 3 4 5 6 
#
# 1 0.007889 -0.008810 0.000089 0.000000 0.005390 0.000000
# 2 -0.008810 0.050670 -0.005841 0.000000 -0.004664 0.000000
# 3 0.000089 -0.005841 0.015229 0.000000 0.004706 0.000000
# 4 0.000000 0.000000 0.000000 0.071755 0.000000 -0.003268
# 5 0.005390 -0.004664 0.004706 0.000000 0.037389 0.000000
# 6 0.000000 0.000000 0.000000 -0.003268 0.000000 0.036667
#
#
# Mechanical properties :
#
#
# Convention : Reuss Voigt Hill
#
# Bulk Modulus (GPa) = 22.38824 43.89160 33.13992
# Shear Modulus (GPa) = 18.96750 28.96499 23.96625
#
# Velocity S-wave (km/s) = 3.01604 3.72708 3.39025
# Velocity P-wave (km/s) = 4.78180 6.29056 5.58734
#
# Compressibility (1/GPa) = 0.04466630
#
# Stress axis : x y z
#
# Youngs Moduli (GPa) = 126.75939 19.73554 65.66416
#
# Poissons Ratio (x) = 0.17386 -0.00587
# Poissons Ratio (y) = 1.11670 0.38351
# Poissons Ratio (z) = -0.01133 0.11527
#
# Static dielectric constant tensor:
#      x y z
#    x 1.803540 0.000000 -0.009620 
#    y 0.000000 1.736010 0.000000 
#    z -0.009620 0.000000 1.783660 
# 
# From -- ./inp_files/143760.got.cif
#   From: 2010.05.17/outbox.cif.g08.bks.cpg/sg15_72_cif.got.tgz:143760.got - 2010.06.03 18:47:42.
