data_PCOD9263942
_publ_section_title
;
Structure prediction by ZEFSAII (Michael W. Deem and Ramdas Pophale) SiO2 
 PCOD9263942
Probable space group: C 2/C
;
_chemical_formula_sum "Si O2"
_cell_formula_units_Z 64
_cell_length_a 14.141506
_cell_length_b 12.354942
_cell_length_c 27.915216
_cell_angle_alpha 90.000000
_cell_angle_beta 41.058851
_cell_angle_gamma 90.000000
_cell_volume 3203.560354
_symmetry_space_group_name_H-M "C 2/C"
_symmetry_group_IT_number 15
_symmetry_cell_setting 'monoclinic'
loop_
_space_group_symop_operation_xyz
x,y,z
-x,y,1/2-z
-x,-y,-z
x,-y,1/2+z
1/2+x,1/2+y,z
1/2-x,1/2+y,1/2-z
1/2-x,1/2-y,-z
1/2+x,1/2-y,1/2+z
loop_
_atom_site_type_symbol
_atom_site_label
_atom_site_fract_x
_atom_site_fract_y
_atom_site_fract_z
Si Si1 0.379403 0.473594 0.978498
Si Si2 0.338221 0.498874 0.298231
Si Si3 0.257470 0.717692 0.375196
Si Si4 0.466267 0.325979 0.499578
Si Si5 0.881061 0.593677 0.760944
Si Si6 0.349206 0.216683 0.629630
Si Si7 0.352149 0.427823 0.684635
Si Si8 0.402677 0.844864 0.404392
O O1 0.447574 0.405757 0.996868
O O2 0.483536 0.446036 0.894693
O O3 0.397665 0.598766 0.985397
O O4 0.216053 0.434041 0.037458
O O5 0.500000 0.466766 0.250000
O O6 0.289026 0.593394 0.352909
O O7 0.238703 0.393369 0.335045
O O8 0.336866 0.554192 0.246498
O O9 0.333785 0.796637 0.306560
O O10 0.322404 0.756875 0.401456
O O11 0.088663 0.744016 0.435554
O O12 0.348327 0.267507 0.577221
O O13 0.744688 0.517782 0.805005
O O14 0.000000 0.539860 0.750000
O O15 0.965608 0.614843 0.679432
O O16 0.303602 0.309697 0.684740
O O17 0.517064 0.196577 0.579208
#
# Coordination Sequence:
#
# PCOD9263942 Si02
#       8
#     8   8   8   8   8   8   8   8
#     4   9  19  36  64  93 121 155 208 263 305 359
#     4  12  26  42  60  89 129 169 207 252 316 375
#     4  10  20  38  67  85 120 163 211 251 305 374
#     4   9  19  36  62  91 124 160 202 254 316 362
#     4  10  19  34  64  95 114 155 210 260 307 356
#     4  11  24  38  59  94 124 160 208 257 307 368
#     4  11  22  40  67  88 125 162 212 256 309 369
#     4  10  20  38  60  95 121 153 210 257 308 360
#
# _framework density 19.977772999999999
#
# number of rings (size 3 to 8) (size 9 to 14) (size 15 to 20)
#    0.000    1.750    2.500    2.625    5.250    6.500 
#    0.000    0.000    0.000    1.500    0.000    0.000 
#    0.000    0.000    0.000    0.000    0.000    0.000 
#
# Total GULP energy -178720.230432 kJ/mol
# GULP energy per Si atom -5585.007201 kJ/mol
# Density = 1.993230 g / cm^3
# Si number density = 19.977773 Si / 1000 Ang^3
#
#
#
# Elastic Constant Matrix: (Units=GPa)
#
#
# Indices 1 2 3 4 5 6 
#
# 1 56.3876 54.4811 15.9690 0.0000 -7.4924 0.0000
# 2 54.4811 129.4535 44.9850 0.0000 -16.9652 0.0000
# 3 15.9690 44.9850 71.3102 0.0000 -11.7479 0.0000
# 4 0.0000 0.0000 0.0000 17.3598 0.0000 -0.9970
# 5 -7.4924 -16.9652 -11.7479 0.0000 13.1082 0.0000
# 6 0.0000 0.0000 0.0000 -0.9970 0.0000 25.8545
#
#
#
# Elastic Compliance Matrix: (Units=1/GPa)
#
#
# Indices 1 2 3 4 5 6 
#
# 1 0.030068 -0.013026 0.001805 0.000000 0.001944 0.000000
# 2 -0.013026 0.016407 -0.006056 0.000000 0.008362 0.000000
# 3 0.001805 -0.006056 0.019145 0.000000 0.010352 0.000000
# 4 0.000000 0.000000 0.000000 0.057732 0.000000 0.002226
# 5 0.001944 0.008362 0.010352 0.000000 0.097500 0.000000
# 6 0.000000 0.000000 0.000000 0.002226 0.000000 0.038764
#
#
# Mechanical properties :
#
#
# Convention : Reuss Voigt Hill
#
# Bulk Modulus (GPa) = 32.19098 54.22463 43.20781
# Shear Modulus (GPa) = 16.41904 20.71225 18.56565
#
# Velocity S-wave (km/s) = 2.86993 3.22338 3.05177
# Velocity P-wave (km/s) = 5.20868 6.40741 5.83889
#
# Compressibility (1/GPa) = 0.03106460
#
# Stress axis : x y z
#
# Youngs Moduli (GPa) = 33.25833 60.94901 52.23408
#
# Poissons Ratio (x) = 0.79395 -0.09426
# Poissons Ratio (y) = 0.43324 0.31631
# Poissons Ratio (z) = -0.06002 0.36908
#
# Static dielectric constant tensor:
#      x y z
#    x 1.718370 0.000000 0.026040 
#    y 0.000000 1.701100 0.000000 
#    z 0.026040 0.000000 1.733450 
# 
# From -- ./inp_files/296096.got.cif
#   From: 2010.05.17/outbox.cif.g08.bks.cpg/sg15_149_cif.got.tgz:296096.got - 2010.06.03 18:47:42.
