data_PCOD9263333
_publ_section_title
;
Structure prediction by ZEFSAII (Michael W. Deem and Ramdas Pophale) SiO2 
 PCOD9263333
Probable space group: C 2/C
;
_chemical_formula_sum "Si O2"
_cell_formula_units_Z 60
_cell_length_a 16.502657
_cell_length_b 22.138476
_cell_length_c 13.045755
_cell_angle_alpha 90.000000
_cell_angle_beta 146.201285
_cell_angle_gamma 90.000000
_cell_volume 2651.318483
_symmetry_space_group_name_H-M "C 2/C"
_symmetry_group_IT_number 15
_symmetry_cell_setting 'monoclinic'
loop_
_space_group_symop_operation_xyz
x,y,z
-x,y,1/2-z
-x,-y,-z
x,-y,1/2+z
1/2+x,1/2+y,z
1/2-x,1/2+y,1/2-z
1/2-x,1/2-y,-z
1/2+x,1/2-y,1/2+z
loop_
_atom_site_type_symbol
_atom_site_label
_atom_site_fract_x
_atom_site_fract_y
_atom_site_fract_z
Si Si1 0.189273 0.623315 0.475756
Si Si2 0.669321 0.854751 0.719719
Si Si3 0.815843 0.747189 0.952420
Si Si4 0.353217 0.525081 0.401049
Si Si5 0.500000 0.663775 0.750000
Si Si6 0.357339 0.994665 0.988004
Si Si7 0.446857 0.111385 0.806320
Si Si8 0.840291 0.931258 0.558663
O O1 0.161069 0.676340 0.529123
O O2 0.364124 0.624898 0.642981
O O3 0.139180 0.558925 0.458006
O O4 0.871073 0.636117 0.202240
O O5 0.721231 0.784992 0.773237
O O6 0.803167 0.904045 0.847421
O O7 0.544998 0.865186 0.504062
O O8 0.750000 0.750000 0.000000
O O9 0.955821 0.789992 0.112931
O O10 0.500000 0.500000 0.500000
O O11 0.215077 0.496594 0.197743
O O12 0.361326 0.494034 0.519805
O O13 0.245142 0.949868 0.928413
O O14 0.508384 0.959757 0.147302
O O15 0.500000 0.135567 0.750000
O O16 0.271629 0.111876 0.620880
O O17 0.000000 0.905914 0.750000
#
# Coordination Sequence:
#
# PCOD9263333 Si02
#       8
#     8   8   8   8   4   8   8   8
#     4  10  19  34  55  84 118 163 203 245 310 362
#     4   9  18  34  55  76 116 162 200 256 302 358
#     4   8  17  32  50  80 105 153 201 236 293 359
#     4  11  21  31  52  84 111 156 209 236 309 373
#     4   8  16  28  50  72 110 148 192 244 288 340
#     4  10  21  35  54  83 121 159 201 247 302 378
#     4   9  21  39  52  84 119 161 206 249 304 373
#     4  11  21  37  54  76 120 158 198 259 302 363
#
# _framework density 22.63025
#
# number of rings (size 3 to 8) (size 9 to 14) (size 15 to 20)
#    0.000    2.667    2.667    0.000    4.667    2.133 
#    6.000    2.667    0.000    0.000    0.000    0.933 
#    0.000   43.200    0.000    0.000    1.067    0.000 
#
# Total GULP energy -167281.559061 kJ/mol
# GULP energy per Si atom -5576.051969 kJ/mol
# Density = 2.257874 g / cm^3
# Si number density = 22.630250 Si / 1000 Ang^3
#
#
#
# Elastic Constant Matrix: (Units=GPa)
#
#
# Indices 1 2 3 4 5 6 
#
# 1 70.0956 25.1454 32.8796 0.0000 -2.3568 0.0000
# 2 25.1454 90.4985 52.5886 0.0000 -3.9244 0.0000
# 3 32.8796 52.5886 178.5120 0.0000 1.6438 0.0000
# 4 0.0000 0.0000 0.0000 26.2275 0.0000 -7.3614
# 5 -2.3568 -3.9244 1.6438 0.0000 43.1515 0.0000
# 6 0.0000 0.0000 0.0000 -7.3614 0.0000 24.3293
#
#
#
# Elastic Compliance Matrix: (Units=1/GPa)
#
#
# Indices 1 2 3 4 5 6 
#
# 1 0.016452 -0.003351 -0.002049 0.000000 0.000672 0.000000
# 2 -0.003351 0.014096 -0.003547 0.000000 0.001234 0.000000
# 3 -0.002049 -0.003547 0.007031 0.000000 -0.000702 0.000000
# 4 0.000000 0.000000 0.000000 0.041666 0.000000 0.012607
# 5 0.000672 0.001234 -0.000702 0.000000 0.023350 0.000000
# 6 0.000000 0.000000 0.000000 0.012607 0.000000 0.044917
#
#
# Mechanical properties :
#
#
# Convention : Reuss Voigt Hill
#
# Bulk Modulus (GPa) = 50.80250 62.25925 56.53087
# Shear Modulus (GPa) = 29.07523 33.97447 31.52485
#
# Velocity S-wave (km/s) = 3.58829 3.87885 3.73639
# Velocity P-wave (km/s) = 6.29805 6.90158 6.60671
#
# Compressibility (1/GPa) = 0.01968407
#
# Stress axis : x y z
#
# Youngs Moduli (GPa) = 60.78185 70.94455 142.23638
#
# Poissons Ratio (x) = 0.23777 0.29147
# Poissons Ratio (y) = 0.20371 0.50445
# Poissons Ratio (z) = 0.12455 0.25161
#
# Static dielectric constant tensor:
#      x y z
#    x 1.929830 0.000000 0.036310 
#    y 0.000000 1.877040 0.000000 
#    z 0.036310 0.000000 1.947220 
# 
# From -- ./inp_files/164117.got.cif
#   From: 2010.05.17/outbox.cif.g08.bks.cpg/sg15_83_cif.got.tgz:164117.got - 2010.06.03 18:47:42.
