data_PCOD9263905
_publ_section_title
;
Structure prediction by ZEFSAII (Michael W. Deem and Ramdas Pophale) SiO2 
 PCOD9263905
Probable space group: C 2/C
;
_chemical_formula_sum "Si O2"
_cell_formula_units_Z 52
_cell_length_a 22.924493
_cell_length_b 9.356381
_cell_length_c 14.166225
_cell_angle_alpha 90.000000
_cell_angle_beta 43.593555
_cell_angle_gamma 90.000000
_cell_volume 2095.173673
_symmetry_space_group_name_H-M "C 2/C"
_symmetry_group_IT_number 15
_symmetry_cell_setting 'monoclinic'
loop_
_space_group_symop_operation_xyz
x,y,z
-x,y,1/2-z
-x,-y,-z
x,-y,1/2+z
1/2+x,1/2+y,z
1/2-x,1/2+y,1/2-z
1/2-x,1/2-y,-z
1/2+x,1/2-y,1/2+z
loop_
_atom_site_type_symbol
_atom_site_label
_atom_site_fract_x
_atom_site_fract_y
_atom_site_fract_z
Si Si1 0.000000 0.758578 0.750000
Si Si2 0.623895 0.146355 0.160195
Si Si3 0.178371 0.241078 0.004881
Si Si4 0.046792 0.007277 0.346134
Si Si5 0.534947 0.204837 0.071875
Si Si6 0.299499 0.573602 0.010302
Si Si7 0.680474 0.667843 0.297226
O O1 0.089249 0.679770 0.625148
O O2 0.018573 0.857009 0.819010
O O3 0.583502 0.137825 0.103910
O O4 0.555033 0.125146 0.323637
O O5 0.704430 0.051106 0.087022
O O6 0.661863 0.309003 0.105842
O O7 0.232487 0.274162 0.848253
O O8 0.151929 0.074463 0.042082
O O9 0.250000 0.250000 0.000000
O O10 0.002704 0.862888 0.355866
O O11 0.142644 0.044712 0.271857
O O12 0.000000 0.000000 0.500000
O O13 0.600905 0.223092 0.908993
O O14 0.300309 0.624626 0.117542
#
# Coordination Sequence:
#
# PCOD9263905 Si02
#       7
#     4   8   8   8   8   8   8
#     4  12  22  40  68  90 134 186 224 286 346 408
#     4   9  18  36  64  98 130 171 223 278 339 405
#     4  12  25  45  65  95 140 176 232 281 353 417
#     4  10  19  34  62  97 129 168 230 286 332 391
#     4   9  17  34  63  97 126 167 226 276 332 403
#     4  10  22  40  64 100 136 177 222 287 347 408
#     4  10  22  39  59  98 137 173 226 289 331 412
#
# _framework density 24.818946
#
# number of rings (size 3 to 8) (size 9 to 14) (size 15 to 20)
#    0.000    1.846    1.538    4.615    0.000    3.692 
#    5.538    2.308    0.000    0.000    0.000    0.000 
#    0.000    0.000    0.000    0.000    0.000    0.000 
#
# Total GULP energy -144866.671138 kJ/mol
# GULP energy per Si atom -5571.795044 kJ/mol
# Density = 2.476246 g / cm^3
# Si number density = 24.818946 Si / 1000 Ang^3
#
#
#
# Elastic Constant Matrix: (Units=GPa)
#
#
# Indices 1 2 3 4 5 6 
#
# 1 118.4770 17.7247 54.3628 -0.0001 -13.2638 0.0000
# 2 17.7247 66.1562 14.6225 -0.0003 -5.8924 0.0002
# 3 54.3628 14.6225 188.5767 0.0000 -32.1211 0.0000
# 4 -0.0001 -0.0003 0.0000 11.7225 0.0001 1.7866
# 5 -13.2638 -5.8924 -32.1211 0.0001 55.4204 0.0000
# 6 0.0000 0.0002 0.0000 1.7866 0.0000 23.1080
#
#
#
# Elastic Compliance Matrix: (Units=1/GPa)
#
#
# Indices 1 2 3 4 5 6 
#
# 1 0.010022 -0.002047 -0.002617 0.000000 0.000664 0.000000
# 2 -0.002047 0.015853 -0.000483 0.000000 0.000915 0.000000
# 3 -0.002617 -0.000483 0.006634 0.000000 0.003167 0.000000
# 4 0.000000 0.000000 0.000000 0.086323 0.000000 -0.006674
# 5 0.000664 0.000915 0.003167 0.000000 0.020136 0.000000
# 6 0.000000 0.000000 0.000000 -0.006674 0.000000 0.043791
#
#
# Mechanical properties :
#
#
# Convention : Reuss Voigt Hill
#
# Bulk Modulus (GPa) = 45.01792 60.73665 52.87729
# Shear Modulus (GPa) = 24.94269 37.15018 31.04643
#
# Velocity S-wave (km/s) = 3.17359 3.87311 3.54067
# Velocity P-wave (km/s) = 5.62199 6.67280 6.16981
#
# Compressibility (1/GPa) = 0.02221338
#
# Stress axis : x y z
#
# Youngs Moduli (GPa) = 99.78017 63.08108 150.73007
#
# Poissons Ratio (x) = 0.12916 0.39450
# Poissons Ratio (y) = 0.20430 0.07281
# Poissons Ratio (z) = 0.26115 0.03047
#
# Static dielectric constant tensor:
#      x y z
#    x 1.954460 0.000000 -0.043690 
#    y 0.000000 2.201400 0.000000 
#    z -0.043690 0.000000 2.065510 
# 
# From -- ./inp_files/173125.got.cif
#   From: 2010.05.17/outbox.cif.g08.bks.cpg/sg15_87_cif.got.tgz:173125.got - 2010.06.03 18:47:42.
