data_PCOD9263418
_publ_section_title
;
Structure prediction by ZEFSAII (Michael W. Deem and Ramdas Pophale) SiO2 
 PCOD9263418
Probable space group: C 2/C
;
_chemical_formula_sum "Si O2"
_cell_formula_units_Z 64
_cell_length_a 9.003463
_cell_length_b 21.231728
_cell_length_c 33.483719
_cell_angle_alpha 90.000000
_cell_angle_beta 155.068463
_cell_angle_gamma 90.000000
_cell_volume 2698.126227
_symmetry_space_group_name_H-M "C 2/C"
_symmetry_group_IT_number 15
_symmetry_cell_setting 'monoclinic'
loop_
_space_group_symop_operation_xyz
x,y,z
-x,y,1/2-z
-x,-y,-z
x,-y,1/2+z
1/2+x,1/2+y,z
1/2-x,1/2+y,1/2-z
1/2-x,1/2-y,-z
1/2+x,1/2-y,1/2+z
loop_
_atom_site_type_symbol
_atom_site_label
_atom_site_fract_x
_atom_site_fract_y
_atom_site_fract_z
Si Si1 0.429750 0.765615 0.977540
Si Si2 0.195106 0.550595 0.340170
Si Si3 0.820288 0.288221 0.866861
Si Si4 0.122126 0.351145 0.321857
Si Si5 0.904271 0.386201 0.015732
Si Si6 0.449820 0.084679 0.109171
Si Si7 0.633719 0.128516 0.909392
Si Si8 0.749423 0.562778 0.976708
O O1 0.490142 0.814029 0.027272
O O2 0.799477 0.738959 0.052611
O O3 0.281562 0.805879 0.903960
O O4 0.199697 0.703813 0.929958
O O5 0.480717 0.607184 0.411168
O O6 0.983548 0.554473 0.330936
O O7 0.444975 0.489374 0.402568
O O8 0.000000 0.551996 0.250000
O O9 0.584111 0.224504 0.809373
O O10 0.835746 0.350413 0.843734
O O11 0.960156 0.377172 0.323464
O O12 0.530072 0.371294 0.426091
O O13 0.000000 0.378455 0.250000
O O14 0.039838 0.398927 0.093360
O O15 0.056401 0.430399 0.018179
O O16 0.485225 0.052712 0.073870
O O17 0.024550 0.097212 0.004921
#
# Coordination Sequence:
#
# PCOD9263418 Si02
#       8
#     8   8   8   8   8   8   8   8
#     4   9  14  29  56  83 111 142 187 236 280 336
#     4  11  25  41  54  83 123 154 188 245 312 347
#     4   9  15  31  55  86 112 141 196 243 278 348
#     4  10  19  34  56  85 121 160 188 234 306 351
#     4  11  19  35  60  85 108 146 200 244 277 341
#     4   9  18  37  62  81 109 153 202 237 278 357
#     4   8  18  30  54  87 114 146 187 232 287 356
#     4  11  20  38  65  84 104 154 214 246 270 343
#
# _framework density 23.720165999999999
#
# number of rings (size 3 to 8) (size 9 to 14) (size 15 to 20)
#    0.000    2.250    2.500    3.000    0.000    0.000 
#    4.500    1.250    0.000    1.500    0.000    0.000 
#    0.000    0.000    0.000    0.000    0.000    0.000 
#
# Total GULP energy -178195.686181 kJ/mol
# GULP energy per Si atom -5568.615193 kJ/mol
# Density = 2.366618 g / cm^3
# Si number density = 23.720166 Si / 1000 Ang^3
#
#
#
# Elastic Constant Matrix: (Units=GPa)
#
#
# Indices 1 2 3 4 5 6 
#
# 1 161.6052 25.1293 54.2599 -0.0106 -67.7297 0.0008
# 2 25.1293 62.9645 9.9920 -0.0027 -15.5953 0.0018
# 3 54.2599 9.9920 86.8987 -0.0110 -47.3582 -0.0018
# 4 -0.0106 -0.0027 -0.0110 -2.9282 -0.0068 -9.8932
# 5 -67.7297 -15.5953 -47.3582 -0.0068 48.5968 -0.0022
# 6 0.0008 0.0018 -0.0018 -9.8932 -0.0022 11.8821
#
#
#
# Elastic Compliance Matrix: (Units=1/GPa)
#
#
# Indices 1 2 3 4 5 6 
#
# 1 0.015683 -0.000518 0.004454 -0.000039 0.026031 -0.000028
# 2 -0.000518 0.017471 0.002083 -0.000009 0.006914 -0.000009
# 3 0.004454 0.002083 0.026091 -0.000058 0.032301 -0.000039
# 4 -0.000039 -0.000009 -0.000058 -0.089562 -0.000130 -0.074570
# 5 0.026031 0.006914 0.032301 -0.000130 0.090554 -0.000089
# 6 -0.000028 -0.000009 -0.000039 -0.074570 -0.000089 0.022072
#
#
# Mechanical properties :
#
#
# Convention : Reuss Voigt Hill
#
# Bulk Modulus (GPa) = 14.02907 54.47009 34.24958
# Shear Modulus (GPa) = 53.17263 26.31596 39.74429
#
# Velocity S-wave (km/s) = 4.73976 3.33443 4.09779
# Velocity P-wave (km/s) = 5.99007 6.15126 6.07120
#
# Compressibility (1/GPa) = 0.07128058
#
# Stress axis : x y z
#
# Youngs Moduli (GPa) = 63.76296 57.23851 38.32755
#
# Poissons Ratio (x) = 0.02967 -0.17070
# Poissons Ratio (y) = 0.03305 -0.07982
# Poissons Ratio (z) = -0.28398 -0.11921
#
# Static dielectric constant tensor:
#      x y z
#    x 2.042770 0.000090 0.000200 
#    y 0.000090 1.958190 0.000090 
#    z 0.000200 0.000090 2.054970 
# 
# From -- ./inp_files/309139.got.cif
#   From: 2010.05.17/outbox.cif.g08.bks.cpg/sg15_155_cif.got.tgz:309139.got - 2010.06.03 18:47:42.
