data_PCOD9263636
_publ_section_title
;
Structure prediction by ZEFSAII (Michael W. Deem and Ramdas Pophale) SiO2 
 PCOD9263636
Probable space group: C 2/C
;
_chemical_formula_sum "Si O2"
_cell_formula_units_Z 60
_cell_length_a 17.504132
_cell_length_b 12.396004
_cell_length_c 21.545908
_cell_angle_alpha 90.000000
_cell_angle_beta 138.347353
_cell_angle_gamma 90.000000
_cell_volume 3107.105198
_symmetry_space_group_name_H-M "C 2/C"
_symmetry_group_IT_number 15
_symmetry_cell_setting 'monoclinic'
loop_
_space_group_symop_operation_xyz
x,y,z
-x,y,1/2-z
-x,-y,-z
x,-y,1/2+z
1/2+x,1/2+y,z
1/2-x,1/2+y,1/2-z
1/2-x,1/2-y,-z
1/2+x,1/2-y,1/2+z
loop_
_atom_site_type_symbol
_atom_site_label
_atom_site_fract_x
_atom_site_fract_y
_atom_site_fract_z
Si Si1 0.094736 0.625863 0.755429
Si Si2 0.041110 0.169709 0.152775
Si Si3 0.795316 0.917315 0.056057
Si Si4 0.000000 0.028857 0.250000
Si Si5 0.348409 0.375524 0.904148
Si Si6 0.081705 0.628195 0.239895
Si Si7 0.183884 0.916822 0.037797
Si Si8 0.086397 0.729818 0.454941
O O1 0.078006 0.709497 0.690449
O O2 0.082047 0.500752 0.729375
O O3 0.216490 0.639208 0.863290
O O4 0.000000 0.649039 0.750000
O O5 0.124519 0.120040 0.151717
O O6 0.036550 0.101502 0.213481
O O7 0.913922 0.160506 0.046955
O O8 0.857012 0.823809 0.053216
O O9 0.890348 0.958706 0.162086
O O10 0.679152 0.866860 0.012452
O O11 0.767369 0.014501 0.991128
O O12 0.214419 0.344133 0.833778
O O13 0.367636 0.490458 0.948634
O O14 0.424942 0.285757 0.985222
O O15 0.000000 0.649480 0.250000
O O16 0.027308 0.689482 0.148616
#
# Coordination Sequence:
#
# PCOD9263636 Si02
#       8
#     8   8   8   4   8   8   8   8
#     4  10  20  38  60  85 113 157 201 233 282 344
#     4  11  22  41  58  84 115 154 203 239 281 343
#     4   9  18  34  58  90 112 145 187 237 290 342
#     4  10  22  38  58  84 112 148 202 246 276 328
#     4  10  22  38  59  87 118 155 188 234 299 350
#     4  10  20  37  63  86 118 156 189 235 288 351
#     4   9  20  39  61  80 115 154 191 237 293 347
#     4  10  19  34  58  88 121 142 185 234 294 352
#
# _framework density 19.310578
#
# number of rings (size 3 to 8) (size 9 to 14) (size 15 to 20)
#    0.000    2.133    0.667    4.400    2.800    1.600 
#    7.200    0.667    0.000    0.000    0.000    0.000 
#    0.000    0.000    0.000    0.000    0.000    0.000 
#
# Total GULP energy -167507.188883 kJ/mol
# GULP energy per Si atom -5583.572963 kJ/mol
# Density = 1.926663 g / cm^3
# Si number density = 19.310578 Si / 1000 Ang^3
#
#
#
# Elastic Constant Matrix: (Units=GPa)
#
#
# Indices 1 2 3 4 5 6 
#
# 1 50.6576 7.3034 29.6392 0.0000 -16.8997 0.0000
# 2 7.3034 51.6913 55.4024 0.0000 -4.9769 0.0000
# 3 29.6392 55.4024 131.0298 0.0000 -3.7579 0.0000
# 4 0.0000 0.0000 0.0000 33.9560 0.0000 -10.0086
# 5 -16.8997 -4.9769 -3.7579 0.0000 24.3544 0.0000
# 6 0.0000 0.0000 0.0000 -10.0086 0.0000 -8.7723
#
#
#
# Elastic Compliance Matrix: (Units=1/GPa)
#
#
# Indices 1 2 3 4 5 6 
#
# 1 0.031928 0.008583 -0.010211 0.000000 0.022333 0.000000
# 2 0.008583 0.038288 -0.017814 0.000000 0.011031 0.000000
# 3 -0.010211 -0.017814 0.017242 0.000000 -0.008065 0.000000
# 4 0.000000 0.000000 0.000000 0.022039 0.000000 -0.025144
# 5 0.022333 0.011031 -0.008065 0.000000 0.057567 0.000000
# 6 0.000000 0.000000 0.000000 -0.025144 0.000000 -0.085307
#
#
# Mechanical properties :
#
#
# Convention : Reuss Voigt Hill
#
# Bulk Modulus (GPa) = 20.58698 46.45207 33.51953
# Shear Modulus (GPa) = 36.54119 19.30987 27.92553
#
# Velocity S-wave (km/s) = 4.35476 3.16565 3.80692
# Velocity P-wave (km/s) = 5.99745 6.12121 6.05965
#
# Compressibility (1/GPa) = 0.04857439
#
# Stress axis : x y z
#
# Youngs Moduli (GPa) = 31.32092 26.11770 57.99634
#
# Poissons Ratio (x) = -0.22417 0.59218
# Poissons Ratio (y) = -0.26883 1.03316
# Poissons Ratio (z) = 0.31981 0.46527
#
# Static dielectric constant tensor:
#      x y z
#    x 1.679420 0.000000 -0.001840 
#    y 0.000000 1.680940 0.000000 
#    z -0.001840 0.000000 1.670490 
# 
# From -- ./inp_files/167286.got.cif
#   From: 2010.05.17/outbox.cif.g08.bks.cpg/sg15_84_cif.got.tgz:167286.got - 2010.06.03 18:47:42.
