data_PCOD9263407
_publ_section_title
;
Structure prediction by ZEFSAII (Michael W. Deem and Ramdas Pophale) SiO2 
 PCOD9263407
Probable space group: C 2/C
;
_chemical_formula_sum "Si O2"
_cell_formula_units_Z 56
_cell_length_a 9.142171
_cell_length_b 21.830611
_cell_length_c 16.530107
_cell_angle_alpha 90.000000
_cell_angle_beta 124.068357
_cell_angle_gamma 90.000000
_cell_volume 2732.846079
_symmetry_space_group_name_H-M "C 2/C"
_symmetry_group_IT_number 15
_symmetry_cell_setting 'monoclinic'
loop_
_space_group_symop_operation_xyz
x,y,z
-x,y,1/2-z
-x,-y,-z
x,-y,1/2+z
1/2+x,1/2+y,z
1/2-x,1/2+y,1/2-z
1/2-x,1/2-y,-z
1/2+x,1/2-y,1/2+z
loop_
_atom_site_type_symbol
_atom_site_label
_atom_site_fract_x
_atom_site_fract_y
_atom_site_fract_z
Si Si1 0.295694 0.943577 0.686721
Si Si2 0.828454 0.302038 0.741669
Si Si3 0.097044 0.093279 0.974147
Si Si4 0.003302 0.205184 0.443772
Si Si5 0.190696 0.323441 0.573329
Si Si6 0.840253 0.952388 0.262457
Si Si7 0.423571 0.068230 0.954744
O O1 0.500000 0.966580 0.750000
O O2 0.310130 0.871448 0.703790
O O3 0.172926 0.950384 0.569411
O O4 0.199459 0.977176 0.729644
O O5 0.662306 0.267076 0.654992
O O6 0.818560 0.310583 0.834016
O O7 0.000000 0.276113 0.750000
O O8 0.263135 0.089285 0.964225
O O9 0.919123 0.076004 0.869747
O O10 0.057511 0.158527 0.004556
O O11 0.107145 0.261808 0.511764
O O12 0.120269 0.170678 0.412099
O O13 0.077777 0.383004 0.515974
O O14 0.664391 0.929440 0.162043
O O15 0.000000 0.946397 0.250000
O O16 0.500000 0.000000 0.000000
#
# Coordination Sequence:
#
# PCOD9263407 Si02
#       7
#     8   8   8   8   8   8   8
#     4  10  19  34  56  84 116 154 200 245 298 362
#     4  10  21  38  62  90 118 157 205 253 303 364
#     4  10  22  39  58  87 121 157 209 254 304 371
#     4  10  24  41  62  91 121 162 204 250 309 368
#     4  11  23  42  63  88 125 159 201 256 307 365
#     4  10  22  36  54  83 120 158 197 249 305 361
#     4  11  23  40  61  89 122 160 205 256 311 365
#
# _framework density 20.491458999999999
#
# number of rings (size 3 to 8) (size 9 to 14) (size 15 to 20)
#    0.000    1.714    0.000    5.143    0.000   12.571 
#    0.000    2.857    0.000    0.000    0.000    0.000 
#    0.000    0.000    0.000    0.000    0.000    0.000 
#
# Total GULP energy -156001.241305 kJ/mol
# GULP energy per Si atom -5571.472904 kJ/mol
# Density = 2.044482 g / cm^3
# Si number density = 20.491459 Si / 1000 Ang^3
#
#
#
# Elastic Constant Matrix: (Units=GPa)
#
#
# Indices 1 2 3 4 5 6 
#
# 1 77.5441 21.1288 38.1176 0.0000 4.3024 0.0000
# 2 21.1288 36.9060 8.0301 0.0000 -0.3891 0.0000
# 3 38.1176 8.0301 146.0886 0.0000 5.8646 0.0000
# 4 0.0000 0.0000 0.0000 10.2940 0.0000 -2.2063
# 5 4.3024 -0.3891 5.8646 0.0000 28.3415 0.0000
# 6 0.0000 0.0000 0.0000 -2.2063 0.0000 27.1112
#
#
#
# Elastic Compliance Matrix: (Units=1/GPa)
#
#
# Indices 1 2 3 4 5 6 
#
# 1 0.017448 -0.009146 -0.003972 0.000000 -0.001953 0.000000
# 2 -0.009146 0.032231 0.000546 0.000000 0.001718 0.000000
# 3 -0.003972 0.000546 0.007892 0.000000 -0.001023 0.000000
# 4 0.000000 0.000000 0.000000 0.098869 0.000000 0.008046
# 5 -0.001953 0.001718 -0.001023 0.000000 0.035816 0.000000
# 6 0.000000 0.000000 0.000000 0.008046 0.000000 0.037540
#
#
# Mechanical properties :
#
#
# Convention : Reuss Voigt Hill
#
# Bulk Modulus (GPa) = 30.83666 43.89908 37.36787
# Shear Modulus (GPa) = 18.81473 26.03348 22.42410
#
# Velocity S-wave (km/s) = 3.03343 3.56821 3.31163
# Velocity P-wave (km/s) = 5.22973 6.20047 5.73567
#
# Compressibility (1/GPa) = 0.03242893
#
# Stress axis : x y z
#
# Youngs Moduli (GPa) = 57.31165 31.02579 126.70274
#
# Poissons Ratio (x) = 0.28375 0.50321
# Poissons Ratio (y) = 0.52416 -0.06914
# Poissons Ratio (z) = 0.22762 -0.01693
#
# Static dielectric constant tensor:
#      x y z
#    x 1.826380 0.000000 0.035350 
#    y 0.000000 1.695600 0.000000 
#    z 0.035350 0.000000 1.794320 
# 
# From -- ./inp_files/137979.got.cif
#   From: 2010.05.17/outbox.cif.g08.bks.cpg/sg15_69_cif.got.tgz:137979.got - 2010.06.03 18:47:42.
