data_PCOD9263123
_publ_section_title
;
Structure prediction by ZEFSAII (Michael W. Deem and Ramdas Pophale) SiO2 
 PCOD9263123
Probable space group: C 2/C
;
_chemical_formula_sum "Si O2"
_cell_formula_units_Z 28
_cell_length_a 20.811347
_cell_length_b 8.003882
_cell_length_c 21.887261
_cell_angle_alpha 90.000000
_cell_angle_beta 17.212042
_cell_angle_gamma 90.000000
_cell_volume 1078.822983
_symmetry_space_group_name_H-M "C 2/C"
_symmetry_group_IT_number 15
_symmetry_cell_setting 'monoclinic'
loop_
_space_group_symop_operation_xyz
x,y,z
-x,y,1/2-z
-x,-y,-z
x,-y,1/2+z
1/2+x,1/2+y,z
1/2-x,1/2+y,1/2-z
1/2-x,1/2-y,-z
1/2+x,1/2-y,1/2+z
loop_
_atom_site_type_symbol
_atom_site_label
_atom_site_fract_x
_atom_site_fract_y
_atom_site_fract_z
Si Si1 0.500000 0.589740 0.250000
Si Si2 0.345930 0.009611 0.082130
Si Si3 0.541841 0.910276 0.644110
Si Si4 0.392824 0.626596 0.479573
O O1 0.458973 0.680956 0.350564
O O2 0.275675 0.493436 0.444464
O O3 0.407082 0.871846 0.974505
O O4 0.377093 0.201504 0.030205
O O5 0.087532 0.011013 0.328016
O O6 0.500000 0.000000 0.000000
O O7 0.500000 0.825665 0.750000
O O8 0.321977 0.016204 0.833184
#
# Coordination Sequence:
#
# PCOD9263123 Si02
#       4
#     4   8   8   8
#     4   8  18  30  54  78 104 134 150 204 278 316
#     4  11  22  33  49  76 105 139 173 200 249 308
#     4   9  18  33  52  77 107 135 155 207 267 308
#     4  10  19  34  51  76 111 131 163 209 255 306
#
# _framework density 25.954211999999998
#
# number of rings (size 3 to 8) (size 9 to 14) (size 15 to 20)
#    0.000    2.286    2.857    0.000    2.000    4.571 
#    0.000    0.000    0.000    0.000    0.000    2.000 
#    0.000    0.000    0.000    0.000    0.000    0.000 
#
# Total GULP energy -77973.874495 kJ/mol
# GULP energy per Si atom -5569.562464 kJ/mol
# Density = 2.589514 g / cm^3
# Si number density = 25.954212 Si / 1000 Ang^3
#
#
#
# Elastic Constant Matrix: (Units=GPa)
#
#
# Indices 1 2 3 4 5 6 
#
# 1 168.9160 37.9204 46.0960 -0.0042 -56.4485 0.0002
# 2 37.9204 92.9961 60.8021 -0.0089 -19.1523 0.0012
# 3 46.0960 60.8021 198.3494 -0.0194 -38.3828 -0.0010
# 4 -0.0042 -0.0089 -0.0194 -0.7271 0.0026 -14.4024
# 5 -56.4485 -19.1523 -38.3828 0.0026 46.5932 0.0012
# 6 0.0002 0.0012 -0.0010 -14.4024 0.0012 11.0772
#
#
#
# Elastic Compliance Matrix: (Units=1/GPa)
#
#
# Indices 1 2 3 4 5 6 
#
# 1 0.010255 -0.002084 0.000588 0.000001 0.012052 0.000000
# 2 -0.002084 0.014129 -0.003820 -0.000001 0.000136 -0.000003
# 3 0.000588 -0.003820 0.007031 -0.000005 0.004933 -0.000006
# 4 0.000001 -0.000001 -0.000005 -0.051406 0.000001 -0.066838
# 5 0.012052 0.000136 0.004933 0.000001 0.040183 -0.000003
# 6 0.000000 -0.000003 -0.000006 -0.066838 -0.000003 0.003374
#
#
# Mechanical properties :
#
#
# Convention : Reuss Voigt Hill
#
# Bulk Modulus (GPa) = 48.12035 83.32206 65.72120
# Shear Modulus (GPa) = 121.57824 32.41819 76.99821
#
# Velocity S-wave (km/s) = 6.85165 3.53803 5.45265
# Velocity P-wave (km/s) = 9.00967 6.99023 8.06342
#
# Compressibility (1/GPa) = 0.02078123
#
# Stress axis : x y z
#
# Youngs Moduli (GPa) = 97.51395 70.77803 142.23069
#
# Poissons Ratio (x) = 0.14749 -0.08358
# Poissons Ratio (y) = 0.20320 0.54339
# Poissons Ratio (z) = -0.05730 0.27040
#
# Static dielectric constant tensor:
#      x y z
#    x 2.075080 0.000000 0.074270 
#    y 0.000000 2.156820 0.000010 
#    z 0.074270 0.000010 2.126030 
# 
# From -- ./inp_files/214947.got.cif
#   From: 2010.05.17/outbox.cif.g08.bks.cpg/sg15_108_cif.got.tgz:214947.got - 2010.06.03 18:47:42.
