data_PCOD9263657
_publ_section_title
;
Structure prediction by ZEFSAII (Michael W. Deem and Ramdas Pophale) SiO2 
 PCOD9263657
Probable space group: C 2/C
;
_chemical_formula_sum "Si O2"
_cell_formula_units_Z 48
_cell_length_a 17.197160
_cell_length_b 23.869885
_cell_length_c 5.209680
_cell_angle_alpha 90.000000
_cell_angle_beta 92.959987
_cell_angle_gamma 90.000000
_cell_volume 2135.690430
_symmetry_space_group_name_H-M "C 2/C"
_symmetry_group_IT_number 15
_symmetry_cell_setting 'monoclinic'
loop_
_space_group_symop_operation_xyz
x,y,z
-x,y,1/2-z
-x,-y,-z
x,-y,1/2+z
1/2+x,1/2+y,z
1/2-x,1/2+y,1/2-z
1/2-x,1/2-y,-z
1/2+x,1/2-y,1/2+z
loop_
_atom_site_type_symbol
_atom_site_label
_atom_site_fract_x
_atom_site_fract_y
_atom_site_fract_z
Si Si1 0.584888 0.842296 0.850891
Si Si2 0.233134 0.093044 0.246389
Si Si3 0.408350 0.664701 0.270804
Si Si4 0.875399 0.531589 0.298560
Si Si5 0.656425 0.271567 0.236710
Si Si6 0.203596 0.656730 0.745667
O O1 0.500000 0.824163 0.750000
O O2 0.594582 0.906127 0.758861
O O3 0.639919 0.794119 0.741529
O O4 0.612679 0.840368 0.154708
O O5 0.141737 0.106751 0.240245
O O6 0.280494 0.035221 0.266135
O O7 0.269830 0.124367 0.498982
O O8 0.261509 0.121171 0.986623
O O9 0.500000 0.656177 0.250000
O O10 0.385341 0.698455 0.526363
O O11 0.378628 0.700818 0.024178
O O12 0.900802 0.510219 0.579060
O O13 0.748297 0.285750 0.254916
#
# Coordination Sequence:
#
# PCOD9263657 Si02
#       6
#     8   8   8   8   8   8
#     4  11  23  39  60  87 117 149 192 242 287 330
#     4   9  19  37  61  83 108 149 192 231 279 342
#     4  10  19  34  58  91 125 150 177 220 280 347
#     4  11  24  43  61  77 105 150 202 248 289 330
#     4  10  21  36  57  86 123 159 184 214 271 351
#     4   9  19  37  58  84 116 150 186 222 274 347
#
# _framework density 22.475168
#
# number of rings (size 3 to 8) (size 9 to 14) (size 15 to 20)
#    0.000    2.000    0.000    4.000    0.000    4.667 
#    0.000   21.667    0.000    1.000    0.000    0.000 
#    0.000    0.000    0.000    0.000    0.000    0.000 
#
# Total GULP energy -134047.509958 kJ/mol
# GULP energy per Si atom -5585.312915 kJ/mol
# Density = 2.242401 g / cm^3
# Si number density = 22.475168 Si / 1000 Ang^3
#
#
#
# Elastic Constant Matrix: (Units=GPa)
#
#
# Indices 1 2 3 4 5 6 
#
# 1 118.4557 6.5896 34.6411 0.0000 24.6724 0.0000
# 2 6.5896 52.5884 13.4858 0.0000 -0.7896 0.0000
# 3 34.6411 13.4858 146.2026 0.0000 -1.9442 0.0000
# 4 0.0000 0.0000 0.0000 32.1701 0.0000 -2.8018
# 5 24.6724 -0.7896 -1.9442 0.0000 28.1771 0.0000
# 6 0.0000 0.0000 0.0000 -2.8018 0.0000 27.0863
#
#
#
# Elastic Compliance Matrix: (Units=1/GPa)
#
#
# Indices 1 2 3 4 5 6 
#
# 1 0.011428 -0.000877 -0.002763 0.000000 -0.010221 0.000000
# 2 -0.000877 0.019549 -0.001579 0.000000 0.001207 0.000000
# 3 -0.002763 -0.001579 0.007679 0.000000 0.002905 0.000000
# 4 0.000000 0.000000 0.000000 0.031367 0.000000 0.003245
# 5 -0.010221 0.001207 0.002905 0.000000 0.044674 0.000000
# 6 0.000000 0.000000 0.000000 0.003245 0.000000 0.037255
#
#
# Mechanical properties :
#
#
# Convention : Reuss Voigt Hill
#
# Bulk Modulus (GPa) = 35.43961 47.40887 41.42424
# Shear Modulus (GPa) = 29.10450 34.98872 32.04661
#
# Velocity S-wave (km/s) = 3.60246 3.94988 3.78016
# Velocity P-wave (km/s) = 5.75380 6.47624 6.12568
#
# Compressibility (1/GPa) = 0.02821702
#
# Stress axis : x y z
#
# Youngs Moduli (GPa) = 87.50711 51.15449 130.23006
#
# Poissons Ratio (x) = 0.04486 0.35979
# Poissons Ratio (y) = 0.07674 0.20568
# Poissons Ratio (z) = 0.24176 0.08079
#
# Static dielectric constant tensor:
#      x y z
#    x 1.915870 0.000000 -0.016670 
#    y 0.000000 1.843580 0.000000 
#    z -0.016670 0.000000 1.897600 
# 
# From -- ./inp_files/10782.got.cif
#   From: 2010.05.17/outbox.cif.g08.bks.cpg/sg15_6_cif.got.tgz:10782.got - 2010.06.03 18:47:42.
