data_PCOD9263397
_publ_section_title
;
Structure prediction by ZEFSAII (Michael W. Deem and Ramdas Pophale) SiO2 
 PCOD9263397
Probable space group: C 2/C
;
_chemical_formula_sum "Si O2"
_cell_formula_units_Z 64
_cell_length_a 14.487127
_cell_length_b 11.112435
_cell_length_c 26.971952
_cell_angle_alpha 90.000000
_cell_angle_beta 135.135107
_cell_angle_gamma 90.000000
_cell_volume 3063.108421
_symmetry_space_group_name_H-M "C 2/C"
_symmetry_group_IT_number 15
_symmetry_cell_setting 'monoclinic'
loop_
_space_group_symop_operation_xyz
x,y,z
-x,y,1/2-z
-x,-y,-z
x,-y,1/2+z
1/2+x,1/2+y,z
1/2-x,1/2+y,1/2-z
1/2-x,1/2-y,-z
1/2+x,1/2-y,1/2+z
loop_
_atom_site_type_symbol
_atom_site_label
_atom_site_fract_x
_atom_site_fract_y
_atom_site_fract_z
Si Si1 0.726157 0.755752 0.313241
Si Si2 0.798574 0.992578 0.210724
Si Si3 0.705538 0.986802 0.786410
Si Si4 0.411468 0.751631 0.786631
Si Si5 0.583037 0.805445 0.525088
Si Si6 0.670369 0.044002 0.559714
Si Si7 0.586882 0.403012 0.561306
Si Si8 0.298688 0.237057 0.074423
O O1 0.649790 0.628094 0.281426
O O2 0.654329 0.884822 0.286629
O O3 0.813677 0.757554 0.296488
O O4 0.825102 0.750262 0.397738
O O5 0.725280 0.001020 0.235261
O O6 0.894507 0.877801 0.253026
O O7 0.692448 0.970686 0.126937
O O8 0.631420 0.860779 0.765504
O O9 0.844654 0.963092 0.865788
O O10 0.449357 0.792111 0.638907
O O11 0.460539 0.880352 0.501693
O O12 0.512225 0.706569 0.464945
O O13 0.663805 0.914381 0.531743
O O14 0.789097 0.126405 0.589882
O O15 0.500000 0.500000 0.500000
O O16 0.700720 0.347716 0.568881
O O17 0.250000 0.250000 0.000000
#
# Coordination Sequence:
#
# PCOD9263397 Si02
#       8
#     8   8   8   8   8   8   8   8
#     4   9  17  33  55  86 114 156 197 250 306 358
#     4   9  19  33  55  83 117 153 204 252 296 358
#     4  10  20  33  57  88 119 156 200 254 309 360
#     4  10  19  34  56  83 121 152 204 253 300 366
#     4   9  16  31  55  81 112 144 196 247 284 353
#     4   9  18  32  54  83 112 152 198 244 298 351
#     4  11  21  35  60  88 116 158 201 248 308 370
#     4  11  24  38  60  90 123 162 201 252 318 367
#
# _framework density 20.893809000000001
#
# number of rings (size 3 to 8) (size 9 to 14) (size 15 to 20)
#    0.000    2.250    1.250    3.000    1.750    3.000 
#    0.000    0.000    2.750    2.250    0.000    0.000 
#    0.000    0.000    0.000    0.000    0.000    0.000 
#
# Total GULP energy -178192.980509 kJ/mol
# GULP energy per Si atom -5568.530641 kJ/mol
# Density = 2.084625 g / cm^3
# Si number density = 20.893809 Si / 1000 Ang^3
#
#
#
# Elastic Constant Matrix: (Units=GPa)
#
#
# Indices 1 2 3 4 5 6 
#
# 1 33.1770 7.8830 12.2308 0.0000 4.6979 0.0000
# 2 7.8830 158.8704 29.4448 0.0000 12.4647 0.0000
# 3 12.2308 29.4448 102.2735 0.0000 7.6004 0.0000
# 4 0.0000 0.0000 0.0000 37.2584 0.0000 1.6219
# 5 4.6979 12.4647 7.6004 0.0000 22.7087 0.0000
# 6 0.0000 0.0000 0.0000 1.6219 0.0000 2.3511
#
#
#
# Elastic Compliance Matrix: (Units=1/GPa)
#
#
# Indices 1 2 3 4 5 6 
#
# 1 0.032238 -0.000576 -0.003299 0.000000 -0.005249 0.000000
# 2 -0.000576 0.006877 -0.001681 0.000000 -0.003093 0.000000
# 3 -0.003299 -0.001681 0.010806 0.000000 -0.002011 0.000000
# 4 0.000000 0.000000 0.000000 0.027670 0.000000 -0.019088
# 5 -0.005249 -0.003093 -0.002011 0.000000 0.047493 0.000000
# 6 0.000000 0.000000 0.000000 -0.019088 0.000000 0.438498
#
#
# Mechanical properties :
#
#
# Convention : Reuss Voigt Hill
#
# Bulk Modulus (GPa) = 25.76842 43.71534 34.74188
# Shear Modulus (GPa) = 8.50873 28.78113 18.64493
#
# Velocity S-wave (km/s) = 2.02020 3.71549 2.99049
# Velocity P-wave (km/s) = 4.21917 6.27491 5.34677
#
# Compressibility (1/GPa) = 0.03880719
#
# Stress axis : x y z
#
# Youngs Moduli (GPa) = 31.01946 145.40592 92.54324
#
# Poissons Ratio (x) = 0.08380 0.30533
# Poissons Ratio (y) = 0.01788 0.15559
# Poissons Ratio (z) = 0.10234 0.24446
#
# Static dielectric constant tensor:
#      x y z
#    x 1.752240 0.000000 0.006590 
#    y 0.000000 1.887250 0.000000 
#    z 0.006590 0.000000 1.768710 
# 
# From -- ./inp_files/277096.got.cif
#   From: 2010.05.17/outbox.cif.g08.bks.cpg/sg15_139_cif.got.tgz:277096.got - 2010.06.03 18:47:42.
