data_PCOD9263787
_publ_section_title
;
Structure prediction by ZEFSAII (Michael W. Deem and Ramdas Pophale) SiO2 
 PCOD9263787
Probable space group: C 2/C
;
_chemical_formula_sum "Si O2"
_cell_formula_units_Z 56
_cell_length_a 15.145301
_cell_length_b 9.997989
_cell_length_c 19.799634
_cell_angle_alpha 90.000000
_cell_angle_beta 83.183972
_cell_angle_gamma 90.000000
_cell_volume 2976.921515
_symmetry_space_group_name_H-M "C 2/C"
_symmetry_group_IT_number 15
_symmetry_cell_setting 'monoclinic'
loop_
_space_group_symop_operation_xyz
x,y,z
-x,y,1/2-z
-x,-y,-z
x,-y,1/2+z
1/2+x,1/2+y,z
1/2-x,1/2+y,1/2-z
1/2-x,1/2-y,-z
1/2+x,1/2-y,1/2+z
loop_
_atom_site_type_symbol
_atom_site_label
_atom_site_fract_x
_atom_site_fract_y
_atom_site_fract_z
Si Si1 0.175482 0.084101 0.841117
Si Si2 0.973773 0.021544 0.904827
Si Si3 0.500892 0.267549 0.513648
Si Si4 0.191758 0.308980 0.943608
Si Si5 0.790348 0.652423 0.391760
Si Si6 0.402778 0.334683 0.289932
Si Si7 0.168066 0.607966 0.957846
O O1 0.207526 0.215262 0.877982
O O2 0.161708 0.118689 0.764061
O O3 0.237602 0.961603 0.856420
O O4 0.077234 0.046798 0.878173
O O5 0.918217 0.049027 0.843270
O O6 0.965373 0.873329 0.934019
O O7 0.951282 0.133143 0.964132
O O8 0.587612 0.205125 0.472366
O O9 0.433025 0.155909 0.545604
O O10 0.203080 0.465628 0.929321
O O11 0.250000 0.250000 0.000000
O O12 0.865520 0.711211 0.336126
O O13 0.823576 0.599809 0.461295
O O14 0.726952 0.775354 0.419500
O O15 0.500000 0.304097 0.250000
#
# Coordination Sequence:
#
# PCOD9263787 Si02
#       7
#     8   8   8   8   8   8   8
#     4  10  21  40  59  86 118 159 204 252 302 367
#     4   9  18  35  62  89 108 153 207 245 295 358
#     4  10  19  34  60  88 124 150 195 253 305 362
#     4  11  23  36  58  91 128 158 197 257 317 362
#     4  11  22  38  64  89 119 156 208 252 301 368
#     4  10  22  39  62  86 118 167 211 252 304 378
#     4  11  22  37  61  94 122 154 199 259 315 355
#
# _framework density 18.811378999999999
#
# number of rings (size 3 to 8) (size 9 to 14) (size 15 to 20)
#    0.000    1.714    4.286    0.429    2.000    1.143 
#    0.000    0.000    0.000    0.000    3.714    0.000 
#    0.000    0.000    0.000    0.000    0.000    0.000 
#
# Total GULP energy -156294.119381 kJ/mol
# GULP energy per Si atom -5581.932835 kJ/mol
# Density = 1.876856 g / cm^3
# Si number density = 18.811379 Si / 1000 Ang^3
#
#
#
# Elastic Constant Matrix: (Units=GPa)
#
#
# Indices 1 2 3 4 5 6 
#
# 1 47.0641 27.4714 27.0401 0.0000 8.0762 0.0000
# 2 27.4714 114.6501 47.8147 0.0000 14.4215 0.0000
# 3 27.0401 47.8147 114.3704 0.0000 20.1784 0.0000
# 4 0.0000 0.0000 0.0000 17.6336 0.0000 3.0053
# 5 8.0762 14.4215 20.1784 0.0000 29.6683 0.0000
# 6 0.0000 0.0000 0.0000 3.0053 0.0000 27.0328
#
#
#
# Elastic Compliance Matrix: (Units=1/GPa)
#
#
# Indices 1 2 3 4 5 6 
#
# 1 0.026520 -0.004380 -0.004023 0.000000 -0.002353 0.000000
# 2 -0.004380 0.011443 -0.003383 0.000000 -0.002069 0.000000
# 3 -0.004023 -0.003383 0.012075 0.000000 -0.005473 0.000000
# 4 0.000000 0.000000 0.000000 0.057805 0.000000 -0.006426
# 5 -0.002353 -0.002069 -0.005473 0.000000 0.039074 0.000000
# 6 0.000000 0.000000 0.000000 -0.006426 0.000000 0.037707
#
#
# Mechanical properties :
#
#
# Convention : Reuss Voigt Hill
#
# Bulk Modulus (GPa) = 37.78820 53.41524 45.60172
# Shear Modulus (GPa) = 23.03939 26.45081 24.74510
#
# Velocity S-wave (km/s) = 3.50345 3.75388 3.63082
# Velocity P-wave (km/s) = 6.04128 6.87354 6.47081
#
# Compressibility (1/GPa) = 0.02646328
#
# Stress axis : x y z
#
# Youngs Moduli (GPa) = 37.70738 87.38932 82.81733
#
# Poissons Ratio (x) = 0.38281 0.33321
# Poissons Ratio (y) = 0.16518 0.28020
# Poissons Ratio (z) = 0.15171 0.29567
#
# Static dielectric constant tensor:
#      x y z
#    x 1.660970 0.000000 0.009510 
#    y 0.000000 1.646710 0.000000 
#    z 0.009510 0.000000 1.650210 
# 
# From -- ./inp_files/246980.got.cif
#   From: 2010.05.17/outbox.cif.g08.bks.cpg/sg15_124_cif.got.tgz:246980.got - 2010.06.03 18:47:42.
