data_PCOD9263287
_publ_section_title
;
Structure prediction by ZEFSAII (Michael W. Deem and Ramdas Pophale) SiO2 
 PCOD9263287
Probable space group: C 2/C
;
_chemical_formula_sum "Si O2"
_cell_formula_units_Z 48
_cell_length_a 25.447499
_cell_length_b 11.500440
_cell_length_c 31.324264
_cell_angle_alpha 90.000000
_cell_angle_beta 17.118062
_cell_angle_gamma 90.000000
_cell_volume 2698.311648
_symmetry_space_group_name_H-M "C 2/C"
_symmetry_group_IT_number 15
_symmetry_cell_setting 'monoclinic'
loop_
_space_group_symop_operation_xyz
x,y,z
-x,y,1/2-z
-x,-y,-z
x,-y,1/2+z
1/2+x,1/2+y,z
1/2-x,1/2+y,1/2-z
1/2-x,1/2-y,-z
1/2+x,1/2-y,1/2+z
loop_
_atom_site_type_symbol
_atom_site_label
_atom_site_fract_x
_atom_site_fract_y
_atom_site_fract_z
Si Si1 0.297212 0.242863 0.413324
Si Si2 0.952389 0.900272 0.163412
Si Si3 0.564870 0.179741 0.968986
Si Si4 0.993795 0.561008 0.936254
Si Si5 0.856524 0.998688 0.327961
Si Si6 0.107586 0.074472 0.882797
O O1 0.500000 0.197541 0.250000
O O2 0.250000 0.250000 0.500000
O O3 0.300878 0.371579 0.389861
O O4 0.140719 0.165063 0.514944
O O5 0.781088 0.813521 0.299988
O O6 0.941470 0.975293 0.215234
O O7 0.912943 0.969149 0.150260
O O8 0.497482 0.146233 0.974059
O O9 0.471302 0.296031 0.056453
O O10 0.520547 0.069425 0.033115
O O11 0.184853 0.574328 0.766356
O O12 0.820812 0.573571 0.041337
O O13 0.000000 0.046217 0.250000
O O14 0.000000 0.000000 0.000000
#
# Coordination Sequence:
#
# PCOD9263287 Si02
#       6
#     8   8   8   8   8   8
#     4  11  20  31  52  83 116 155 190 227 289 356
#     4  10  19  36  52  80 116 154 180 237 291 353
#     4   9  20  38  57  79 113 153 188 234 291 351
#     4   9  20  37  58  79 111 152 190 230 292 346
#     4  10  19  34  55  78 111 153 195 223 288 350
#     4  11  24  33  57  88 114 147 193 246 292 337
#
# _framework density 17.788900999999999
#
# number of rings (size 3 to 8) (size 9 to 14) (size 15 to 20)
#    0.000    2.000    3.333    3.000    7.000    0.000 
#    0.000    0.000    0.000    1.000    0.000    0.000 
#    0.000    0.000    0.000    0.000    0.000    0.000 
#
# Total GULP energy -133849.919088 kJ/mol
# GULP energy per Si atom -5577.079962 kJ/mol
# Density = 1.774841 g / cm^3
# Si number density = 17.788901 Si / 1000 Ang^3
#
#
#
# Elastic Constant Matrix: (Units=GPa)
#
#
# Indices 1 2 3 4 5 6 
#
# 1 119.1630 11.0876 57.0340 -0.0051 -16.9820 -0.0012
# 2 11.0876 15.3419 16.0438 -0.0146 -0.0136 -0.0164
# 3 57.0340 16.0438 148.7876 -0.0072 -24.2104 -0.0086
# 4 -0.0051 -0.0146 -0.0072 24.7957 -0.0043 -2.4992
# 5 -16.9820 -0.0136 -24.2104 -0.0043 48.2008 0.0009
# 6 -0.0012 -0.0164 -0.0086 -2.4992 0.0009 14.1005
#
#
#
# Elastic Compliance Matrix: (Units=1/GPa)
#
#
# Indices 1 2 3 4 5 6 
#
# 1 0.010661 -0.004269 -0.003284 -0.000002 0.002105 -0.000006
# 2 -0.004269 0.076006 -0.007406 0.000050 -0.005202 0.000093
# 3 -0.003284 -0.007406 0.009354 -0.000002 0.003539 -0.000004
# 4 -0.000002 0.000050 -0.000002 0.041063 0.000002 0.007278
# 5 0.002105 -0.005202 0.003539 0.000002 0.023265 -0.000005
# 6 -0.000006 0.000093 -0.000004 0.007278 -0.000005 0.072209
#
#
# Mechanical properties :
#
#
# Convention : Reuss Voigt Hill
#
# Bulk Modulus (GPa) = 15.12754 50.18036 32.65395
# Shear Modulus (GPa) = 17.57405 30.69453 24.13429
#
# Velocity S-wave (km/s) = 3.14653 4.15841 3.68734
# Velocity P-wave (km/s) = 4.66082 7.16425 6.04358
#
# Compressibility (1/GPa) = 0.06610459
#
# Stress axis : x y z
#
# Youngs Moduli (GPa) = 93.80230 13.15677 106.90372
#
# Poissons Ratio (x) = 0.05616 0.35103
# Poissons Ratio (y) = 0.40042 0.79173
# Poissons Ratio (z) = 0.30801 0.09744
#
# Static dielectric constant tensor:
#      x y z
#    x 1.665780 -0.000010 -0.004230 
#    y -0.000010 1.581350 0.000010 
#    z -0.004230 0.000010 1.636980 
# 
# From -- ./inp_files/318726.got.cif
#   From: 2010.05.17/outbox.cif.g08.bks.cpg/sg15_160_cif.got.tgz:318726.got - 2010.06.03 18:47:42.
