data_PCOD9263183
_publ_section_title
;
Structure prediction by ZEFSAII (Michael W. Deem and Ramdas Pophale) SiO2 
 PCOD9263183
Probable space group: C 2/C
;
_chemical_formula_sum "Si O2"
_cell_formula_units_Z 64
_cell_length_a 14.377636
_cell_length_b 27.445468
_cell_length_c 13.890811
_cell_angle_alpha 90.000000
_cell_angle_beta 133.841988
_cell_angle_gamma 90.000000
_cell_volume 3953.422655
_symmetry_space_group_name_H-M "C 2/C"
_symmetry_group_IT_number 15
_symmetry_cell_setting 'monoclinic'
loop_
_space_group_symop_operation_xyz
x,y,z
-x,y,1/2-z
-x,-y,-z
x,-y,1/2+z
1/2+x,1/2+y,z
1/2-x,1/2+y,1/2-z
1/2-x,1/2-y,-z
1/2+x,1/2-y,1/2+z
loop_
_atom_site_type_symbol
_atom_site_label
_atom_site_fract_x
_atom_site_fract_y
_atom_site_fract_z
Si Si1 0.058039 0.107820 0.598736
Si Si2 0.389029 0.522836 0.551762
Si Si3 0.502958 0.899759 0.869389
Si Si4 0.997784 0.915561 0.642329
Si Si5 0.756027 0.539953 0.242214
Si Si6 0.907345 0.700692 0.089457
Si Si7 0.898040 0.810067 0.087265
Si Si8 0.244929 0.941398 0.356700
O O1 0.189381 0.103518 0.753465
O O2 0.002129 0.053621 0.581716
O O3 0.070266 0.113054 0.493395
O O4 0.953461 0.146527 0.561549
O O5 0.426641 0.467646 0.598588
O O6 0.278341 0.525834 0.392369
O O7 0.353173 0.547504 0.626424
O O8 0.500000 0.900707 0.750000
O O9 0.378972 0.925630 0.823867
O O10 0.525081 0.843716 0.916655
O O11 0.625072 0.928144 0.996427
O O12 0.140108 0.929132 0.706435
O O13 0.000000 0.893163 0.750000
O O14 0.767473 0.489986 0.310091
O O15 0.906186 0.755603 0.048228
O O16 0.000000 0.704954 0.250000
O O17 0.756190 0.685380 0.000086
O O18 0.000000 0.811428 0.250000
#
# Coordination Sequence:
#
# PCOD9263183 Si02
#       8
#     8   8   8   8   8   8   8   8
#     4  11  20  29  54  79  96 134 175 207 266 308
#     4  11  18  33  49  72 101 136 168 219 253 296
#     4  11  22  34  49  72 107 143 172 202 257 323
#     4  11  20  34  51  72 104 132 172 223 255 296
#     4  11  21  33  49  72 101 143 177 203 257 307
#     4   9  20  34  50  74 113 138 164 214 267 317
#     4  10  19  34  53  79 107 136 172 213 264 320
#     4  12  20  33  52  71 106 138 175 214 250 304
#
# _framework density 16.188504999999999
#
# number of rings (size 3 to 8) (size 9 to 14) (size 15 to 20)
#    0.000    1.250    5.000    3.750    5.250    0.000 
#    0.000    0.000    0.000    0.000    0.000    0.875 
#    3.750    0.000    0.000    0.000    0.000    0.000 
#
# Total GULP energy -178256.514874 kJ/mol
# GULP energy per Si atom -5570.516090 kJ/mol
# Density = 1.615166 g / cm^3
# Si number density = 16.188505 Si / 1000 Ang^3
#
#
#
# Elastic Constant Matrix: (Units=GPa)
#
#
# Indices 1 2 3 4 5 6 
#
# 1 58.9761 19.7051 36.9866 0.0000 -7.3535 0.0000
# 2 19.7051 55.4863 20.4869 0.0000 1.5761 0.0000
# 3 36.9866 20.4869 100.6873 0.0000 -1.3092 0.0000
# 4 0.0000 0.0000 0.0000 16.2063 0.0000 9.3355
# 5 -7.3535 1.5761 -1.3092 0.0000 35.1242 0.0000
# 6 0.0000 0.0000 0.0000 9.3355 0.0000 21.6003
#
#
#
# Elastic Compliance Matrix: (Units=1/GPa)
#
#
# Indices 1 2 3 4 5 6 
#
# 1 0.024406 -0.005975 -0.007683 0.000000 0.005091 0.000000
# 2 -0.005975 0.020986 -0.002105 0.000000 -0.002271 0.000000
# 3 -0.007683 -0.002105 0.013169 0.000000 -0.001023 0.000000
# 4 0.000000 0.000000 0.000000 0.082159 0.000000 -0.035509
# 5 0.005091 -0.002271 -0.001023 0.000000 0.029600 0.000000
# 6 0.000000 0.000000 0.000000 -0.035509 0.000000 0.061642
#
#
# Mechanical properties :
#
#
# Convention : Reuss Voigt Hill
#
# Bulk Modulus (GPa) = 36.98943 41.05633 39.02288
# Shear Modulus (GPa) = 18.34864 23.78423 21.06644
#
# Velocity S-wave (km/s) = 3.37031 3.83718 3.61130
# Velocity P-wave (km/s) = 6.16799 6.71181 6.44564
#
# Compressibility (1/GPa) = 0.02703475
#
# Stress axis : x y z
#
# Youngs Moduli (GPa) = 40.97389 47.65068 75.93550
#
# Poissons Ratio (x) = 0.28472 0.58344
# Poissons Ratio (y) = 0.24482 0.15982
# Poissons Ratio (z) = 0.31481 0.10029
#
# Static dielectric constant tensor:
#      x y z
#    x 1.543370 0.000000 0.010350 
#    y 0.000000 1.562570 0.000000 
#    z 0.010350 0.000000 1.637420 
# 
# From -- ./inp_files/157103.got.cif
#   From: 2010.05.17/outbox.cif.g08.bks.cpg/sg15_79_cif.got.tgz:157103.got - 2010.06.03 18:47:42.
