data_PCOD9263648
_publ_section_title
;
Structure prediction by ZEFSAII (Michael W. Deem and Ramdas Pophale) SiO2 
 PCOD9263648
Probable space group: C 2/C
;
_chemical_formula_sum "Si O2"
_cell_formula_units_Z 40
_cell_length_a 13.430660
_cell_length_b 24.948409
_cell_length_c 8.435678
_cell_angle_alpha 90.000000
_cell_angle_beta 38.252390
_cell_angle_gamma 90.000000
_cell_volume 1750.006825
_symmetry_space_group_name_H-M "C 2/C"
_symmetry_group_IT_number 15
_symmetry_cell_setting 'monoclinic'
loop_
_space_group_symop_operation_xyz
x,y,z
-x,y,1/2-z
-x,-y,-z
x,-y,1/2+z
1/2+x,1/2+y,z
1/2-x,1/2+y,1/2-z
1/2-x,1/2-y,-z
1/2+x,1/2-y,1/2+z
loop_
_atom_site_type_symbol
_atom_site_label
_atom_site_fract_x
_atom_site_fract_y
_atom_site_fract_z
Si Si1 0.822774 0.424511 0.537371
Si Si2 0.176699 0.471200 0.608435
Si Si3 0.606851 0.710298 0.966605
Si Si4 0.192119 0.640494 0.987721
Si Si5 0.700390 0.314798 0.814237
O O1 0.837371 0.453199 0.691972
O O2 0.750505 0.470229 0.512486
O O3 0.725335 0.370410 0.689307
O O4 0.000000 0.409937 0.250000
O O5 0.255732 0.420489 0.421153
O O6 0.000000 0.476099 0.750000
O O7 0.500000 0.695425 0.250000
O O8 0.478168 0.707194 0.985635
O O9 0.749287 0.669761 0.743053
O O10 0.680087 0.768923 0.896132
O O11 0.256542 0.672524 0.058855
O O12 0.000000 0.638764 0.250000
#
# Coordination Sequence:
#
# PCOD9263648 Si02
#       5
#     8   8   8   8   8
#     4  10  19  34  58  89 123 161 205 254 305 366
#     4   9  18  32  57  88 120 160 205 248 304 370
#     4  12  25  41  63  93 127 165 210 260 311 364
#     4  10  22  42  66  92 125 168 208 251 308 375
#     4  11  24  41  62  90 126 168 208 255 310 371
#
# _framework density 22.857054999999999
#
# number of rings (size 3 to 8) (size 9 to 14) (size 15 to 20)
#    0.000    1.600    0.000    6.000    0.000    6.400 
#    0.000    1.000    0.000    0.000    0.000    0.000 
#    0.000    0.000    0.000    0.000    0.000    0.000 
#
# Total GULP energy -111804.010099 kJ/mol
# GULP energy per Si atom -5590.200505 kJ/mol
# Density = 2.280503 g / cm^3
# Si number density = 22.857055 Si / 1000 Ang^3
#
#
#
# Elastic Constant Matrix: (Units=GPa)
#
#
# Indices 1 2 3 4 5 6 
#
# 1 47.9097 11.9861 6.1013 0.0000 -6.7686 0.0000
# 2 11.9861 145.0155 75.7879 0.0000 5.8576 0.0000
# 3 6.1013 75.7879 111.2930 0.0000 9.8284 0.0000
# 4 0.0000 0.0000 0.0000 -6.3989 0.0000 5.5177
# 5 -6.7686 5.8576 9.8284 0.0000 27.6707 0.0000
# 6 0.0000 0.0000 0.0000 5.5177 0.0000 16.6178
#
#
#
# Elastic Compliance Matrix: (Units=1/GPa)
#
#
# Indices 1 2 3 4 5 6 
#
# 1 0.022240 -0.001811 -0.000517 0.000000 0.006007 0.000000
# 2 -0.001811 0.010856 -0.007280 0.000000 -0.000155 0.000000
# 3 -0.000517 -0.007280 0.014295 0.000000 -0.003663 0.000000
# 4 0.000000 0.000000 0.000000 -0.121491 0.000000 0.040340
# 5 0.006007 -0.000155 -0.003663 0.000000 0.038942 0.000000
# 6 0.000000 0.000000 0.000000 0.040340 0.000000 0.046782
#
#
# Mechanical properties :
#
#
# Convention : Reuss Voigt Hill
#
# Bulk Modulus (GPa) = 35.49096 54.66321 45.07708
# Shear Modulus (GPa) = 124.28181 21.60077 72.94129
#
# Velocity S-wave (km/s) = 7.38184 3.07748 5.65519
# Velocity P-wave (km/s) = 9.39236 6.04938 7.89973
#
# Compressibility (1/GPa) = 0.02817619
#
# Stress axis : x y z
#
# Youngs Moduli (GPa) = 44.96386 92.11138 69.95675
#
# Poissons Ratio (x) = 0.16681 0.03614
# Poissons Ratio (y) = 0.08143 0.50928
# Poissons Ratio (z) = 0.02323 0.67057
#
# Static dielectric constant tensor:
#      x y z
#    x 1.910510 0.000000 0.031150 
#    y 0.000000 1.891240 0.000000 
#    z 0.031150 0.000000 1.868340 
# 
# From -- ./inp_files/41960.got.cif
#   From: 2010.05.17/outbox.cif.g08.bks.cpg/sg15_21_cif.got.tgz:41960.got - 2010.06.03 18:47:42.
