data_PCOD9263998
_publ_section_title
;
Structure prediction by ZEFSAII (Michael W. Deem and Ramdas Pophale) SiO2 
 PCOD9263998
Probable space group: C 2/C
;
_chemical_formula_sum "Si O2"
_cell_formula_units_Z 64
_cell_length_a 29.536447
_cell_length_b 14.386515
_cell_length_c 9.194843
_cell_angle_alpha 90.000000
_cell_angle_beta 115.236713
_cell_angle_gamma 90.000000
_cell_volume 3534.212773
_symmetry_space_group_name_H-M "C 2/C"
_symmetry_group_IT_number 15
_symmetry_cell_setting 'monoclinic'
loop_
_space_group_symop_operation_xyz
x,y,z
-x,y,1/2-z
-x,-y,-z
x,-y,1/2+z
1/2+x,1/2+y,z
1/2-x,1/2+y,1/2-z
1/2-x,1/2-y,-z
1/2+x,1/2-y,1/2+z
loop_
_atom_site_type_symbol
_atom_site_label
_atom_site_fract_x
_atom_site_fract_y
_atom_site_fract_z
Si Si1 0.444925 0.901809 0.744933
Si Si2 0.260229 0.121470 0.878637
Si Si3 0.362285 0.221420 0.982920
Si Si4 0.691455 0.389050 0.038424
Si Si5 0.228976 0.411346 0.602218
Si Si6 0.810095 0.098253 0.442953
Si Si7 0.054152 0.595893 0.899035
Si Si8 0.862845 0.288221 0.135692
O O1 0.500000 0.885980 0.750000
O O2 0.406817 0.823523 0.636376
O O3 0.426799 0.998707 0.645988
O O4 0.447388 0.908460 0.925687
O O5 0.309394 0.181532 0.970335
O O6 0.224818 0.161191 0.705016
O O7 0.281387 0.018254 0.868221
O O8 0.219574 0.107877 0.948040
O O9 0.356076 0.331857 0.992164
O O10 0.366695 0.198974 0.815912
O O11 0.733887 0.413073 0.981486
O O12 0.651447 0.318431 0.918856
O O13 0.674027 0.491338 0.066040
O O14 0.265765 0.371587 0.773751
O O15 0.181473 0.352470 0.490303
O O16 0.088766 0.677722 0.885340
O O17 0.000000 0.607187 0.750000
#
# Coordination Sequence:
#
# PCOD9263998 Si02
#       8
#     8   8   8   8   8   8   8   8
#     4  11  24  43  65  88 118 145 182 232 288 340
#     4  10  21  32  53  79 121 150 197 238 283 335
#     4  12  22  36  56  87 114 153 194 240 284 339
#     4  10  20  37  52  79 115 164 193 235 278 336
#     4  10  19  35  52  80 116 158 191 234 285 335
#     4  10  22  34  53  80 120 156 197 239 283 330
#     4  11  24  43  65  89 115 148 182 231 287 342
#     4  12  22  35  60  82 115 153 199 233 285 343
#
# _framework density 18.108701
#
# number of rings (size 3 to 8) (size 9 to 14) (size 15 to 20)
#    0.000    1.250    2.500    5.250    3.500    0.000 
#    0.000    0.000    0.000    0.750    0.000    3.500 
#    0.000    0.000    0.000    0.000    0.000    0.000 
#
# Total GULP energy -178358.760506 kJ/mol
# GULP energy per Si atom -5573.711266 kJ/mol
# Density = 1.806748 g / cm^3
# Si number density = 18.108701 Si / 1000 Ang^3
#
#
#
# Elastic Constant Matrix: (Units=GPa)
#
#
# Indices 1 2 3 4 5 6 
#
# 1 44.5277 21.9693 15.4382 0.0000 1.5885 0.0000
# 2 21.9693 100.1424 21.7671 0.0000 19.9588 0.0000
# 3 15.4382 21.7671 111.4666 0.0000 -2.3047 0.0000
# 4 0.0000 0.0000 0.0000 26.0488 0.0000 3.0352
# 5 1.5885 19.9588 -2.3047 0.0000 23.7288 0.0000
# 6 0.0000 0.0000 0.0000 3.0352 0.0000 27.8628
#
#
#
# Elastic Compliance Matrix: (Units=1/GPa)
#
#
# Indices 1 2 3 4 5 6 
#
# 1 0.026036 -0.005756 -0.002423 0.000000 0.002863 0.000000
# 2 -0.005756 0.014043 -0.002186 0.000000 -0.011639 0.000000
# 3 -0.002423 -0.002186 0.009795 0.000000 0.002952 0.000000
# 4 0.000000 0.000000 0.000000 0.038883 0.000000 -0.004236
# 5 0.002863 -0.011639 0.002952 0.000000 0.052028 0.000000
# 6 0.000000 0.000000 0.000000 -0.004236 0.000000 0.036351
#
#
# Mechanical properties :
#
#
# Convention : Reuss Voigt Hill
#
# Bulk Modulus (GPa) = 34.31124 41.60954 37.96039
# Shear Modulus (GPa) = 24.08716 28.65890 26.37303
#
# Velocity S-wave (km/s) = 3.65107 3.98251 3.82039
# Velocity P-wave (km/s) = 6.06319 6.64641 6.36148
#
# Compressibility (1/GPa) = 0.02914497
#
# Stress axis : x y z
#
# Youngs Moduli (GPa) = 38.40903 71.20834 102.09561
#
# Poissons Ratio (x) = 0.40985 0.24735
# Poissons Ratio (y) = 0.22107 0.22317
# Poissons Ratio (z) = 0.09306 0.15565
#
# Static dielectric constant tensor:
#      x y z
#    x 1.588890 0.000000 0.008360 
#    y 0.000000 1.689380 0.000000 
#    z 0.008360 0.000000 1.592850 
# 
# From -- ./inp_files/66219.got.cif
#   From: 2010.05.17/outbox.cif.g08.bks.cpg/sg15_34_cif.got.tgz:66219.got - 2010.06.03 18:47:42.
