data_PCOD9263943
_publ_section_title
;
Structure prediction by ZEFSAII (Michael W. Deem and Ramdas Pophale) SiO2 
 PCOD9263943
Probable space group: C 2/C
;
_chemical_formula_sum "Si O2"
_cell_formula_units_Z 40
_cell_length_a 15.074202
_cell_length_b 24.013076
_cell_length_c 11.589140
_cell_angle_alpha 90.000000
_cell_angle_beta 151.300496
_cell_angle_gamma 90.000000
_cell_volume 2014.512074
_symmetry_space_group_name_H-M "C 2/C"
_symmetry_group_IT_number 15
_symmetry_cell_setting 'monoclinic'
loop_
_space_group_symop_operation_xyz
x,y,z
-x,y,1/2-z
-x,-y,-z
x,-y,1/2+z
1/2+x,1/2+y,z
1/2-x,1/2+y,1/2-z
1/2-x,1/2-y,-z
1/2+x,1/2-y,1/2+z
loop_
_atom_site_type_symbol
_atom_site_label
_atom_site_fract_x
_atom_site_fract_y
_atom_site_fract_z
Si Si1 0.832785 0.610343 0.127688
Si Si2 0.078748 0.832074 0.144481
Si Si3 0.483364 0.570878 0.367293
Si Si4 0.715980 0.779741 0.838893
Si Si5 0.288516 0.021456 0.272006
O O1 0.912142 0.666801 0.280646
O O2 0.758186 0.568368 0.138258
O O3 0.000000 0.582214 0.250000
O O4 0.691699 0.632445 0.869302
O O5 0.168197 0.773341 0.207283
O O6 0.026545 0.871777 0.981076
O O7 0.897179 0.809642 0.000943
O O8 0.500000 0.576340 0.250000
O O9 0.287185 0.547977 0.194035
O O10 0.646170 0.528422 0.588294
O O11 0.750000 0.750000 0.000000
O O12 0.500000 0.000000 0.500000
#
# Coordination Sequence:
#
# PCOD9263943 Si02
#       5
#     8   8   8   8   8
#     4  11  21  36  67 100 131 163 215 283 341 391
#     4  11  22  41  62  99 132 168 218 280 342 391
#     4  11  27  45  67  93 140 183 225 273 334 405
#     4  10  19  34  64  95 127 158 209 273 335 389
#     4  11  26  44  69  99 131 181 226 277 333 404
#
# _framework density 19.855924999999999
#
# number of rings (size 3 to 8) (size 9 to 14) (size 15 to 20)
#    0.000    1.200    2.000    6.000    8.400    0.000 
#    0.000    1.000    0.000    0.000    0.000    0.000 
#    0.000    0.000    0.000    0.000    0.000    0.000 
#
# Total GULP energy -111560.423045 kJ/mol
# GULP energy per Si atom -5578.021152 kJ/mol
# Density = 1.981073 g / cm^3
# Si number density = 19.855925 Si / 1000 Ang^3
#
#
#
# Elastic Constant Matrix: (Units=GPa)
#
#
# Indices 1 2 3 4 5 6 
#
# 1 155.6208 49.8257 52.6702 0.0000 7.6687 0.0000
# 2 49.8257 104.1960 28.0876 0.0000 -0.3125 0.0000
# 3 52.6702 28.0876 62.3027 0.0000 11.4958 0.0000
# 4 0.0000 0.0000 0.0000 24.2670 0.0000 3.6659
# 5 7.6687 -0.3125 11.4958 0.0000 32.9570 0.0000
# 6 0.0000 0.0000 0.0000 3.6659 0.0000 46.2913
#
#
#
# Elastic Compliance Matrix: (Units=1/GPa)
#
#
# Indices 1 2 3 4 5 6 
#
# 1 0.009647 -0.002740 -0.006949 0.000000 0.000153 0.000000
# 2 -0.002740 0.011821 -0.003368 0.000000 0.001924 0.000000
# 3 -0.006949 -0.003368 0.024744 0.000000 -0.007046 0.000000
# 4 0.000000 0.000000 0.000000 0.041707 0.000000 -0.003303
# 5 0.000153 0.001924 -0.007046 0.000000 0.032783 0.000000
# 6 0.000000 0.000000 0.000000 -0.003303 0.000000 0.021864
#
#
# Mechanical properties :
#
#
# Convention : Reuss Voigt Hill
#
# Bulk Modulus (GPa) = 49.75472 64.80961 57.28217
# Shear Modulus (GPa) = 28.50956 33.47210 30.99083
#
# Velocity S-wave (km/s) = 3.79333 4.11024 3.95496
# Velocity P-wave (km/s) = 6.65568 7.43211 7.05459
#
# Compressibility (1/GPa) = 0.02009859
#
# Stress axis : x y z
#
# Youngs Moduli (GPa) = 103.65484 84.59440 40.41406
#
# Poissons Ratio (x) = 0.23176 0.28084
# Poissons Ratio (y) = 0.28398 0.13612
# Poissons Ratio (z) = 0.72030 0.28494
#
# Static dielectric constant tensor:
#      x y z
#    x 1.742980 0.000000 0.065040 
#    y 0.000000 1.798790 0.000000 
#    z 0.065040 0.000000 1.772950 
# 
# From -- ./inp_files/100577.got.cif
#   From: 2010.05.17/outbox.cif.g08.bks.cpg/sg15_51_cif.got.tgz:100577.got - 2010.06.03 18:47:42.
