data_PCOD9263924
_publ_section_title
;
Structure prediction by ZEFSAII (Michael W. Deem and Ramdas Pophale) SiO2 
 PCOD9263924
Probable space group: C 2/C
;
_chemical_formula_sum "Si O2"
_cell_formula_units_Z 64
_cell_length_a 29.412296
_cell_length_b 16.915688
_cell_length_c 9.347916
_cell_angle_alpha 90.000000
_cell_angle_beta 136.858046
_cell_angle_gamma 90.000000
_cell_volume 3180.297340
_symmetry_space_group_name_H-M "C 2/C"
_symmetry_group_IT_number 15
_symmetry_cell_setting 'monoclinic'
loop_
_space_group_symop_operation_xyz
x,y,z
-x,y,1/2-z
-x,-y,-z
x,-y,1/2+z
1/2+x,1/2+y,z
1/2-x,1/2+y,1/2-z
1/2-x,1/2-y,-z
1/2+x,1/2-y,1/2+z
loop_
_atom_site_type_symbol
_atom_site_label
_atom_site_fract_x
_atom_site_fract_y
_atom_site_fract_z
Si Si1 0.235698 0.367119 0.317569
Si Si2 0.817806 0.588649 0.528391
Si Si3 0.914271 0.059076 0.907486
Si Si4 0.379632 0.673745 0.080919
Si Si5 0.278654 0.448995 0.930966
Si Si6 0.969721 0.116833 0.529131
Si Si7 0.922955 0.663665 0.554406
Si Si8 0.164987 0.593509 0.375830
O O1 0.197165 0.352920 0.375854
O O2 0.300719 0.318292 0.425057
O O3 0.262409 0.457589 0.398606
O O4 0.183575 0.370315 0.069878
O O5 0.747374 0.576924 0.284131
O O6 0.874323 0.619406 0.553197
O O7 0.842832 0.501338 0.631540
O O8 0.852277 0.061998 0.656495
O O9 0.937386 0.969195 0.985522
O O10 0.894267 0.097551 0.013395
O O11 0.973195 0.103323 0.959202
O O12 0.414901 0.666465 0.316102
O O13 0.409845 0.745124 0.059282
O O14 0.230769 0.400868 0.928293
O O15 0.000000 0.146095 0.750000
O O16 0.895818 0.636662 0.338606
O O17 0.000000 0.644681 0.750000
#
# Coordination Sequence:
#
# PCOD9263924 Si02
#       8
#     8   8   8   8   8   8   8   8
#     4  10  19  34  63  92 123 151 199 263 303 351
#     4   9  21  39  64  96 122 149 205 265 316 367
#     4  11  20  36  56  86 125 176 218 248 285 351
#     4  12  24  40  61  88 131 172 205 247 310 362
#     4   9  17  33  60  91 123 161 201 254 303 354
#     4  11  24  34  54  86 126 171 226 251 278 347
#     4  11  25  45  64  86 127 166 198 252 321 385
#     4   9  19  40  65  95 115 151 208 256 315 379
#
# _framework density 20.123904
#
# number of rings (size 3 to 8) (size 9 to 14) (size 15 to 20)
#    0.000    1.750    2.500    3.375    1.750    1.500 
#    0.000    3.125    0.000    0.000    0.000    0.000 
#    0.000    0.000    0.000    0.000    0.000    0.000 
#
# Total GULP energy -178665.348581 kJ/mol
# GULP energy per Si atom -5583.292143 kJ/mol
# Density = 2.007810 g / cm^3
# Si number density = 20.123904 Si / 1000 Ang^3
#
#
#
# Elastic Constant Matrix: (Units=GPa)
#
#
# Indices 1 2 3 4 5 6 
#
# 1 66.4152 6.1650 49.5377 0.0000 -3.7333 0.0000
# 2 6.1650 32.5202 32.2874 0.0000 -2.5268 0.0000
# 3 49.5377 32.2874 139.2202 0.0000 4.5829 0.0000
# 4 0.0000 0.0000 0.0000********** 0.0000**********
# 5 -3.7333 -2.5268 4.5829 0.0000 38.0976 0.0000
# 6 0.0000 0.0000 0.0000********** 0.0000-6631.0408
#
#
#
# Elastic Compliance Matrix: (Units=1/GPa)
#
#
# Indices 1 2 3 4 5 6 
#
# 1 0.021435 0.005062 -0.008916 0.000000 0.003509 0.000000
# 2 0.005062 0.041693 -0.011624 0.000000 0.004659 0.000000
# 3 -0.008916 -0.011624 0.013157 0.000000 -0.003227 0.000000
# 4 0.000000 0.000000 0.000000 0.009538 0.000000 -0.022346
# 5 0.003509 0.004659 -0.003227 0.000000 0.027289 0.000000
# 6 0.000000 0.000000 0.000000 -0.022346 0.000000 0.052205
#
#
# Mechanical properties :
#
#
# Convention : Reuss Voigt Hill
#
# Bulk Modulus (GPa) = 22.06123 46.01509 34.03816
# Shear Modulus (GPa) = 23.65370 -8567.65142 -4271.99886
#
# Velocity S-wave (km/s) = 3.43213 -65.31992 -46.12436
# Velocity P-wave (km/s) = 5.16648 75.27289 53.10045
#
# Compressibility (1/GPa) = 0.04532839
#
# Stress axis : x y z
#
# Youngs Moduli (GPa) = 46.65339 23.98481 76.00251
#
# Poissons Ratio (x) = -0.12140 0.67766
# Poissons Ratio (y) = -0.23614 0.88343
# Poissons Ratio (z) = 0.41598 0.27879
#
# Static dielectric constant tensor:
#      x y z
#    x 1.734070 0.000000 -0.022680 
#    y 0.000000 1.726340 0.000000 
#    z -0.022680 0.000000 1.735610 
# 
# From -- ./inp_files/70611.got.cif
#   From: 2010.05.17/outbox.cif.g08.bks.cpg/sg15_36_cif.got.tgz:70611.got - 2010.06.03 18:47:42.
