data_PCOD9263018
_publ_section_title
;
Structure prediction by ZEFSAII (Michael W. Deem and Ramdas Pophale) SiO2 
 PCOD9263018
Probable space group: C 2/C
;
_chemical_formula_sum "Si O2"
_cell_formula_units_Z 44
_cell_length_a 22.287047
_cell_length_b 17.929393
_cell_length_c 13.534340
_cell_angle_alpha 90.000000
_cell_angle_beta 155.917434
_cell_angle_gamma 90.000000
_cell_volume 2206.842995
_symmetry_space_group_name_H-M "C 2/C"
_symmetry_group_IT_number 15
_symmetry_cell_setting 'monoclinic'
loop_
_space_group_symop_operation_xyz
x,y,z
-x,y,1/2-z
-x,-y,-z
x,-y,1/2+z
1/2+x,1/2+y,z
1/2-x,1/2+y,1/2-z
1/2-x,1/2-y,-z
1/2+x,1/2-y,1/2+z
loop_
_atom_site_type_symbol
_atom_site_label
_atom_site_fract_x
_atom_site_fract_y
_atom_site_fract_z
Si Si1 0.669658 0.817252 0.107814
Si Si2 0.212731 0.859320 0.646579
Si Si3 0.318960 0.831889 0.592300
Si Si4 0.280892 0.066252 0.668956
Si Si5 0.457248 0.043454 0.579850
Si Si6 0.500000 0.467967 0.250000
O O1 0.687992 0.728001 0.125938
O O2 0.747205 0.856084 0.317073
O O3 0.495137 0.828990 0.859355
O O4 0.719451 0.853877 0.078052
O O5 0.266385 0.872363 0.612858
O O6 0.068009 0.911147 0.434053
O O7 0.340735 0.889319 0.908988
O O8 0.250000 0.750000 0.500000
O O9 0.394651 0.070851 0.750433
O O10 0.133079 0.022394 0.420097
O O11 0.372103 0.017450 0.886650
O O12 0.500000 0.012696 0.750000
#
# Coordination Sequence:
#
# PCOD9263018 Si02
#       6
#     8   8   8   8   8   4
#     4  10  19  33  59  93 114 152 201 249 297 355
#     4  10  19  38  58  86 123 154 200 243 305 355
#     4   9  17  30  56  89 119 147 190 253 297 342
#     4  10  22  40  62  86 123 153 210 247 303 365
#     4  10  22  40  61  83 117 167 196 243 308 374
#     4  10  22  40  60  86 124 162 192 262 298 358
#
# _framework density 19.937984
#
# number of rings (size 3 to 8) (size 9 to 14) (size 15 to 20)
#    0.000    2.182    1.818    2.182    2.545    0.000 
#    1.636   12.727    0.000    0.000    0.000    0.000 
#    0.000    0.000    0.000    0.000    0.000    0.000 
#
# Total GULP energy -122654.412583 kJ/mol
# GULP energy per Si atom -5575.200572 kJ/mol
# Density = 1.989260 g / cm^3
# Si number density = 19.937984 Si / 1000 Ang^3
#
#
#
# Elastic Constant Matrix: (Units=GPa)
#
#
# Indices 1 2 3 4 5 6 
#
# 1 68.8313 13.5513 24.0393 0.0000 -0.2029 0.0000
# 2 13.5513 84.3533 40.0454 0.0000 7.0427 0.0000
# 3 24.0393 40.0454 84.3375 0.0000 11.1236 0.0000
# 4 0.0000 0.0000 0.0000 28.6990 0.0000 -6.2568
# 5 -0.2029 7.0427 11.1236 0.0000 15.3819 0.0000
# 6 0.0000 0.0000 0.0000 -6.2568 0.0000 21.0842
#
#
#
# Elastic Compliance Matrix: (Units=1/GPa)
#
#
# Indices 1 2 3 4 5 6 
#
# 1 0.016377 -0.000645 -0.004896 0.000000 0.004052 0.000000
# 2 -0.000645 0.015383 -0.006843 0.000000 -0.002103 0.000000
# 3 -0.004896 -0.006843 0.017794 0.000000 -0.009800 0.000000
# 4 0.000000 0.000000 0.000000 0.037255 0.000000 0.011055
# 5 0.004052 -0.002103 -0.009800 0.000000 0.073115 0.000000
# 6 0.000000 0.000000 0.000000 0.011055 0.000000 0.050710
#
#
# Mechanical properties :
#
#
# Convention : Reuss Voigt Hill
#
# Bulk Modulus (GPa) = 40.34508 43.64380 41.99444
# Shear Modulus (GPa) = 20.52010 23.69209 22.10610
#
# Velocity S-wave (km/s) = 3.21159 3.45090 3.33339
# Velocity P-wave (km/s) = 5.83366 6.14943 5.99363
#
# Compressibility (1/GPa) = 0.02478617
#
# Stress axis : x y z
#
# Youngs Moduli (GPa) = 61.06040 65.00847 56.19730
#
# Poissons Ratio (x) = 0.04192 0.27516
# Poissons Ratio (y) = 0.03937 0.38455
# Poissons Ratio (z) = 0.29898 0.44484
#
# Static dielectric constant tensor:
#      x y z
#    x 1.736870 0.000000 0.003260 
#    y 0.000000 1.756070 0.000000 
#    z 0.003260 0.000000 1.708920 
# 
# From -- ./inp_files/174281.got.cif
#   From: 2010.05.17/outbox.cif.g08.bks.cpg/sg15_88_cif.got.tgz:174281.got - 2010.06.03 18:47:42.
