data_PCOD9263579
_publ_section_title
;
Structure prediction by ZEFSAII (Michael W. Deem and Ramdas Pophale) SiO2 
 PCOD9263579
Probable space group: C 2/C
;
_chemical_formula_sum "Si O2"
_cell_formula_units_Z 60
_cell_length_a 21.181803
_cell_length_b 8.547584
_cell_length_c 19.833530
_cell_angle_alpha 90.000000
_cell_angle_beta 74.674726
_cell_angle_gamma 90.000000
_cell_volume 3463.234913
_symmetry_space_group_name_H-M "C 2/C"
_symmetry_group_IT_number 15
_symmetry_cell_setting 'monoclinic'
loop_
_space_group_symop_operation_xyz
x,y,z
-x,y,1/2-z
-x,-y,-z
x,-y,1/2+z
1/2+x,1/2+y,z
1/2-x,1/2+y,1/2-z
1/2-x,1/2-y,-z
1/2+x,1/2-y,1/2+z
loop_
_atom_site_type_symbol
_atom_site_label
_atom_site_fract_x
_atom_site_fract_y
_atom_site_fract_z
Si Si1 0.273456 0.193255 0.919327
Si Si2 0.176641 0.776555 0.828026
Si Si3 0.090882 0.153573 0.168609
Si Si4 0.379183 0.700196 0.799689
Si Si5 0.268107 0.180575 0.424051
Si Si6 0.000000 0.572710 0.250000
Si Si7 0.784567 0.138924 0.706111
Si Si8 0.960800 0.291926 0.176757
O O1 0.342509 0.277193 0.881629
O O2 0.226075 0.210894 0.866009
O O3 0.278313 0.005540 0.922247
O O4 0.250000 0.250000 0.000000
O O5 0.210604 0.766713 0.890273
O O6 0.215374 0.665586 0.764215
O O7 0.100432 0.733639 0.854484
O O8 0.193386 0.956908 0.802912
O O9 0.072945 0.241554 0.242926
O O10 0.024978 0.187034 0.144047
O O11 0.098664 0.975376 0.189579
O O12 0.332478 0.747362 0.873708
O O13 0.438452 0.818293 0.779223
O O14 0.337889 0.712885 0.741665
O O15 0.250000 0.250000 0.500000
O O16 0.986190 0.464289 0.188324
#
# Coordination Sequence:
#
# PCOD9263579 Si02
#       8
#     8   8   8   8   8   4   8   8
#     4  11  21  37  58  81 115 153 187 228 281 341
#     4  10  20  34  59  82 115 143 184 239 272 330
#     4  10  19  34  58  83 109 148 185 222 286 335
#     4  11  20  35  58  85 113 140 185 241 274 328
#     4  10  22  37  56  84 114 146 187 234 282 326
#     4  10  22  32  54  84 116 148 180 228 282 336
#     4  10  20  33  55  86 109 139 190 229 280 319
#     4  10  19  35  55  83 116 146 181 228 280 340
#
# _framework density 17.324842
#
# number of rings (size 3 to 8) (size 9 to 14) (size 15 to 20)
#    0.000    1.867    2.667    3.200    3.733    1.067 
#    0.000    0.000    2.933    4.000    0.000    0.000 
#    0.000    0.000    0.000    0.000    0.000    0.000 
#
# Total GULP energy -167107.791048 kJ/mol
# GULP energy per Si atom -5570.259702 kJ/mol
# Density = 1.728541 g / cm^3
# Si number density = 17.324842 Si / 1000 Ang^3
#
#
#
# Elastic Constant Matrix: (Units=GPa)
#
#
# Indices 1 2 3 4 5 6 
#
# 1 146.6024 51.0817 40.8844 0.0000 -6.9507 0.0000
# 2 51.0817 66.6165 33.2856 0.0000 -1.5136 0.0000
# 3 40.8844 33.2856 94.3180 0.0000 -0.4969 0.0000
# 4 0.0000 0.0000 0.0000 22.3642 0.0000 -7.8275
# 5 -6.9507 -1.5136 -0.4969 0.0000 10.2007 0.0000
# 6 0.0000 0.0000 0.0000 -7.8275 0.0000 23.9279
#
#
#
# Elastic Compliance Matrix: (Units=1/GPa)
#
#
# Indices 1 2 3 4 5 6 
#
# 1 0.009897 -0.006473 -0.001976 0.000000 0.005687 0.000000
# 2 -0.006473 0.022517 -0.005148 0.000000 -0.001320 0.000000
# 3 -0.001976 -0.005148 0.013268 0.000000 -0.001464 0.000000
# 4 0.000000 0.000000 0.000000 0.050496 0.000000 0.016518
# 5 0.005687 -0.001320 -0.001464 0.000000 0.101641 0.000000
# 6 0.000000 0.000000 0.000000 0.016518 0.000000 0.047196
#
#
# Mechanical properties :
#
#
# Convention : Reuss Voigt Hill
#
# Bulk Modulus (GPa) = 54.08521 62.00447 58.04484
# Shear Modulus (GPa) = 17.96176 23.45091 20.70633
#
# Velocity S-wave (km/s) = 3.22337 3.68312 3.46089
# Velocity P-wave (km/s) = 6.71860 7.34535 7.03896
#
# Compressibility (1/GPa) = 0.01848934
#
# Stress axis : x y z
#
# Youngs Moduli (GPa) = 101.03885 44.41172 75.37026
#
# Poissons Ratio (x) = 0.28746 0.14893
# Poissons Ratio (y) = 0.65399 0.38797
# Poissons Ratio (z) = 0.19965 0.22861
#
# Static dielectric constant tensor:
#      x y z
#    x 1.645840 0.000000 0.037970 
#    y 0.000000 1.666760 0.000000 
#    z 0.037970 0.000000 1.577790 
# 
# From -- ./inp_files/213886.got.cif
#   From: 2010.05.17/outbox.cif.g08.bks.cpg/sg15_107_cif.got.tgz:213886.got - 2010.06.03 18:47:42.
