data_PCOD9263825
_publ_section_title
;
Structure prediction by ZEFSAII (Michael W. Deem and Ramdas Pophale) SiO2 
 PCOD9263825
Probable space group: C 2/C
;
_chemical_formula_sum "Si O2"
_cell_formula_units_Z 48
_cell_length_a 11.976371
_cell_length_b 12.615346
_cell_length_c 20.706697
_cell_angle_alpha 90.000000
_cell_angle_beta 43.342351
_cell_angle_gamma 90.000000
_cell_volume 2147.260522
_symmetry_space_group_name_H-M "C 2/C"
_symmetry_group_IT_number 15
_symmetry_cell_setting 'monoclinic'
loop_
_space_group_symop_operation_xyz
x,y,z
-x,y,1/2-z
-x,-y,-z
x,-y,1/2+z
1/2+x,1/2+y,z
1/2-x,1/2+y,1/2-z
1/2-x,1/2-y,-z
1/2+x,1/2-y,1/2+z
loop_
_atom_site_type_symbol
_atom_site_label
_atom_site_fract_x
_atom_site_fract_y
_atom_site_fract_z
Si Si1 0.185453 0.491243 0.898207
Si Si2 0.255556 0.235259 0.168137
Si Si3 0.665485 0.292157 0.142628
Si Si4 0.190806 0.921150 0.519236
Si Si5 0.542452 0.780205 0.130298
Si Si6 0.410732 0.357740 0.474826
O O1 0.200483 0.389862 0.844757
O O2 0.250611 0.608468 0.855635
O O3 0.298072 0.457860 0.911434
O O4 0.000000 0.500000 0.000000
O O5 0.143356 0.251663 0.152537
O O6 0.412320 0.307317 0.092166
O O7 0.145257 0.273636 0.273673
O O8 0.500000 0.264700 0.250000
O O9 0.631962 0.327312 0.082100
O O10 0.790446 0.196959 0.076931
O O11 0.377198 0.890858 0.423724
O O12 0.091198 0.811742 0.559608
O O13 0.114062 0.016253 0.511958
#
# Coordination Sequence:
#
# PCOD9263825 Si02
#       6
#     8   8   8   8   8   8
#     4  10  19  34  61  85 113 154 201 250 295 356
#     4  10  20  36  60  88 115 152 205 249 297 361
#     4  10  22  38  58  88 126 158 197 247 306 366
#     4   9  20  38  58  81 119 158 196 246 306 355
#     4   9  20  39  59  83 116 158 203 249 293 369
#     4  10  21  39  58  90 124 155 195 255 305 360
#
# _framework density 22.354064999999999
#
# number of rings (size 3 to 8) (size 9 to 14) (size 15 to 20)
#    0.000    2.333    1.667    0.000    7.000    2.000 
#    6.000    0.000    0.000    0.000    0.000    0.000 
#    0.000    0.000    0.000    0.000    0.000    0.000 
#
# Total GULP energy -133932.050617 kJ/mol
# GULP energy per Si atom -5580.502109 kJ/mol
# Density = 2.230319 g / cm^3
# Si number density = 22.354065 Si / 1000 Ang^3
#
#
#
# Elastic Constant Matrix: (Units=GPa)
#
#
# Indices 1 2 3 4 5 6 
#
# 1 51.0727 40.9461 16.3167 0.0000 -7.7374 0.0000
# 2 40.9461 150.4402 86.8797 0.0000 -10.3291 0.0000
# 3 16.3167 86.8797 189.1015 0.0000 -19.2933 0.0000
# 4 0.0000 0.0000 0.0000 23.7408 0.0000 -6.4916
# 5 -7.7374 -10.3291 -19.2933 0.0000 29.3628 0.0000
# 6 0.0000 0.0000 0.0000 -6.4916 0.0000 11.3349
#
#
#
# Elastic Compliance Matrix: (Units=1/GPa)
#
#
# Indices 1 2 3 4 5 6 
#
# 1 0.026053 -0.007814 0.001888 0.000000 0.005357 0.000000
# 2 -0.007814 0.011398 -0.004677 0.000000 -0.001123 0.000000
# 3 0.001888 -0.004677 0.007671 0.000000 0.003893 0.000000
# 4 0.000000 0.000000 0.000000 0.049943 0.000000 0.028602
# 5 0.005357 -0.001123 0.003893 0.000000 0.037631 0.000000
# 6 0.000000 0.000000 0.000000 0.028602 0.000000 0.104604
#
#
# Mechanical properties :
#
#
# Convention : Reuss Voigt Hill
#
# Bulk Modulus (GPa) = 41.81056 75.43327 58.62192
# Shear Modulus (GPa) = 18.76343 29.31915 24.04129
#
# Velocity S-wave (km/s) = 2.90034 3.62550 3.28300
# Velocity P-wave (km/s) = 5.47360 7.16545 6.37589
#
# Compressibility (1/GPa) = 0.02391740
#
# Stress axis : x y z
#
# Youngs Moduli (GPa) = 38.38389 87.73755 130.35997
#
# Poissons Ratio (x) = 0.68555 -0.24618
# Poissons Ratio (y) = 0.29992 0.60967
# Poissons Ratio (z) = -0.07249 0.41033
#
# Static dielectric constant tensor:
#      x y z
#    x 1.893260 0.000000 0.015960 
#    y 0.000000 1.857140 0.000000 
#    z 0.015960 0.000000 1.825880 
# 
# From -- ./inp_files/296038.got.cif
#   From: 2010.05.17/outbox.cif.g08.bks.cpg/sg15_149_cif.got.tgz:296038.got - 2010.06.03 18:47:42.
