data_PCOD9263414
_publ_section_title
;
Structure prediction by ZEFSAII (Michael W. Deem and Ramdas Pophale) SiO2 
 PCOD9263414
Probable space group: C 2/C
;
_chemical_formula_sum "Si O2"
_cell_formula_units_Z 48
_cell_length_a 20.969750
_cell_length_b 9.157575
_cell_length_c 24.056165
_cell_angle_alpha 90.000000
_cell_angle_beta 153.090528
_cell_angle_gamma 90.000000
_cell_volume 2090.728001
_symmetry_space_group_name_H-M "C 2/C"
_symmetry_group_IT_number 15
_symmetry_cell_setting 'monoclinic'
loop_
_space_group_symop_operation_xyz
x,y,z
-x,y,1/2-z
-x,-y,-z
x,-y,1/2+z
1/2+x,1/2+y,z
1/2-x,1/2+y,1/2-z
1/2-x,1/2-y,-z
1/2+x,1/2-y,1/2+z
loop_
_atom_site_type_symbol
_atom_site_label
_atom_site_fract_x
_atom_site_fract_y
_atom_site_fract_z
Si Si1 0.909917 0.274877 0.944904
Si Si2 0.585276 0.403650 0.366592
Si Si3 0.328278 0.339898 0.241632
Si Si4 0.927152 0.428434 0.523523
Si Si5 0.111477 0.568496 0.379236
Si Si6 0.332766 0.372467 0.810258
O O1 0.982076 0.312474 0.941351
O O2 0.002479 0.150440 0.046684
O O3 0.948790 0.414761 0.012563
O O4 0.743214 0.284384 0.800556
O O5 0.500000 0.477654 0.250000
O O6 0.484481 0.368451 0.340306
O O7 0.727756 0.485301 0.494663
O O8 0.624896 0.241100 0.375122
O O9 0.232633 0.386874 0.114781
O O10 0.304720 0.460625 0.271883
O O11 0.253071 0.190911 0.203589
O O12 0.948761 0.439088 0.605422
O O13 0.000000 0.502304 0.250000
#
# Coordination Sequence:
#
# PCOD9263414 Si02
#       6
#     8   8   8   8   8   8
#     4   9  19  35  56  81 112 157 195 237 299 354
#     4  10  19  34  56  85 114 157 202 245 297 350
#     4  10  20  37  61  86 120 159 199 241 297 360
#     4   9  17  35  57  77 117 159 190 233 302 365
#     4  10  20  33  54  89 117 152 198 252 300 340
#     4  10  21  37  57  86 117 157 196 244 297 349
#
# _framework density 22.958511000000001
#
# number of rings (size 3 to 8) (size 9 to 14) (size 15 to 20)
#    0.000    2.333    1.667    2.000    0.000    0.667 
#    6.000    0.000    0.000    2.000    0.000    1.167 
#    0.000    0.000    0.000    0.000    0.000    0.000 
#
# Total GULP energy -133643.270797 kJ/mol
# GULP energy per Si atom -5568.469617 kJ/mol
# Density = 2.290626 g / cm^3
# Si number density = 22.958511 Si / 1000 Ang^3
#
#
#
# Elastic Constant Matrix: (Units=GPa)
#
#
# Indices 1 2 3 4 5 6 
#
# 1 106.1629 21.2869 19.8230 0.0000 -10.9622 0.0000
# 2 21.2869 36.9293 -8.3818 0.0001 -3.6085 0.0001
# 3 19.8230 -8.3818 117.7253 0.0002 -6.2879 0.0003
# 4 0.0000 0.0001 0.0002 16.0846 0.0000 -3.1965
# 5 -10.9622 -3.6085 -6.2879 0.0000 35.6513 0.0000
# 6 0.0000 0.0001 0.0003 -3.1965 0.0000 11.0152
#
#
#
# Elastic Compliance Matrix: (Units=1/GPa)
#
#
# Indices 1 2 3 4 5 6 
#
# 1 0.011483 -0.006903 -0.002295 0.000000 0.002427 0.000000
# 2 -0.006903 0.032030 0.003536 0.000000 0.001743 0.000000
# 3 -0.002295 0.003536 0.009201 0.000000 0.001275 0.000000
# 4 0.000000 0.000000 0.000000 0.065976 0.000000 0.019145
# 5 0.002427 0.001743 0.001275 0.000000 0.029197 0.000000
# 6 0.000000 0.000000 0.000000 0.019145 0.000000 0.096340
#
#
# Mechanical properties :
#
#
# Convention : Reuss Voigt Hill
#
# Bulk Modulus (GPa) = 24.16061 36.25264 30.20663
# Shear Modulus (GPa) = 18.56339 27.75619 23.15979
#
# Velocity S-wave (km/s) = 2.84661 3.48080 3.17955
# Velocity P-wave (km/s) = 4.62068 5.65503 5.16382
#
# Compressibility (1/GPa) = 0.04138969
#
# Stress axis : x y z
#
# Youngs Moduli (GPa) = 87.08694 31.22027 108.68759
#
# Poissons Ratio (x) = 0.21550 0.24947
# Poissons Ratio (y) = 0.60114 -0.38431
# Poissons Ratio (z) = 0.19989 -0.11039
#
# Static dielectric constant tensor:
#      x y z
#    x 1.857470 0.000000 -0.001920 
#    y 0.000000 1.854340 0.000000 
#    z -0.001920 0.000000 2.092710 
# 
# From -- ./inp_files/279918.got.cif
#   From: 2010.05.17/outbox.cif.g08.bks.cpg/sg15_140_cif.got.tgz:279918.got - 2010.06.03 18:47:42.
