data_PCOD9263210
_publ_section_title
;
Structure prediction by ZEFSAII (Michael W. Deem and Ramdas Pophale) SiO2 
 PCOD9263210
Probable space group: C 2/C
;
_chemical_formula_sum "Si O2"
_cell_formula_units_Z 52
_cell_length_a 22.641733
_cell_length_b 5.641939
_cell_length_c 28.388886
_cell_angle_alpha 90.000000
_cell_angle_beta 131.031657
_cell_angle_gamma 90.000000
_cell_volume 2735.631261
_symmetry_space_group_name_H-M "C 2/C"
_symmetry_group_IT_number 15
_symmetry_cell_setting 'monoclinic'
loop_
_space_group_symop_operation_xyz
x,y,z
-x,y,1/2-z
-x,-y,-z
x,-y,1/2+z
1/2+x,1/2+y,z
1/2-x,1/2+y,1/2-z
1/2-x,1/2-y,-z
1/2+x,1/2-y,1/2+z
loop_
_atom_site_type_symbol
_atom_site_label
_atom_site_fract_x
_atom_site_fract_y
_atom_site_fract_z
Si Si1 0.751876 0.305124 0.922151
Si Si2 0.397554 0.256153 0.436353
Si Si3 0.505277 0.769999 0.345222
Si Si4 0.670192 0.025271 0.452448
Si Si5 0.500000 0.055267 0.250000
Si Si6 0.050583 0.254463 0.081090
Si Si7 0.392372 0.400176 0.143210
O O1 0.810386 0.234946 0.911845
O O2 0.729910 0.094099 0.946607
O O3 0.668338 0.418783 0.865165
O O4 0.799700 0.492692 0.979325
O O5 0.412396 0.502480 0.415936
O O6 0.463142 0.252377 0.512330
O O7 0.411125 0.002915 0.416905
O O8 0.588007 0.887845 0.404069
O O9 0.477375 0.908504 0.284526
O O10 0.453803 0.761946 0.364679
O O11 0.530554 0.517118 0.338240
O O12 0.652154 0.285407 0.424471
O O13 0.424349 0.206189 0.195480
#
# Coordination Sequence:
#
# PCOD9263210 Si02
#       7
#     8   8   8   8   4   8   8
#     4  10  19  34  53  90 125 155 196 239 303 380
#     4  10  22  36  57  88 129 168 201 231 296 371
#     4  10  20  37  57  87 118 152 208 252 311 359
#     4   9  19  32  54  87 121 158 186 242 309 368
#     4  10  22  38  58  90 108 150 204 270 318 358
#     4  10  22  37  57  88 125 171 199 242 288 370
#     4  10  21  34  60  86 113 154 195 260 311 361
#
# _framework density 19.008409
#
# number of rings (size 3 to 8) (size 9 to 14) (size 15 to 20)
#    0.000    2.154    1.538    0.923    6.462    1.231 
#    0.000    0.000    0.000    0.000   16.000    0.000 
#    0.000    0.000    0.000    0.000    0.000    0.000 
#
# Total GULP energy -144925.825096 kJ/mol
# GULP energy per Si atom -5574.070196 kJ/mol
# Density = 1.896515 g / cm^3
# Si number density = 19.008409 Si / 1000 Ang^3
#
#
#
# Elastic Constant Matrix: (Units=GPa)
#
#
# Indices 1 2 3 4 5 6 
#
# 1 110.6957 46.1780 30.0371 0.0001 -32.5537 -0.0004
# 2 46.1780 102.4977 35.3069 -0.0025 -20.1018 0.0014
# 3 30.0371 35.3069 80.6739 -0.0006 -25.1765 -0.0008
# 4 0.0001 -0.0025 -0.0006 24.5827 0.0015 9.6430
# 5 -32.5537 -20.1018 -25.1765 0.0015 25.9825 -0.0006
# 6 -0.0004 0.0014 -0.0008 9.6430 -0.0006 11.9426
#
#
#
# Elastic Compliance Matrix: (Units=1/GPa)
#
#
# Indices 1 2 3 4 5 6 
#
# 1 0.015550 -0.004037 0.001552 -0.000003 0.017863 0.000005
# 2 -0.004037 0.013170 -0.003812 0.000003 0.001437 -0.000004
# 3 0.001552 -0.003812 0.018883 -0.000003 0.017292 0.000005
# 4 -0.000003 0.000003 -0.000003 0.059536 -0.000010 -0.048072
# 5 0.017863 0.001437 0.017292 -0.000010 0.078736 0.000013
# 6 0.000005 -0.000004 0.000005 -0.048072 0.000013 0.122549
#
#
# Mechanical properties :
#
#
# Convention : Reuss Voigt Hill
#
# Bulk Modulus (GPa) = 28.56490 57.43456 42.99973
# Shear Modulus (GPa) = 15.02906 24.65791 19.84348
#
# Velocity S-wave (km/s) = 2.81491 3.60559 3.23450
# Velocity P-wave (km/s) = 5.06212 6.90034 6.05143
#
# Compressibility (1/GPa) = 0.03500800
#
# Stress axis : x y z
#
# Youngs Moduli (GPa) = 64.30863 75.92924 52.95870
#
# Poissons Ratio (x) = 0.30652 -0.08218
# Poissons Ratio (y) = 0.25961 0.20189
# Poissons Ratio (z) = -0.09979 0.28946
#
# Static dielectric constant tensor:
#      x y z
#    x 1.647610 0.000000 0.018900 
#    y 0.000000 1.762460 0.000000 
#    z 0.018900 0.000000 1.681680 
# 
# From -- ./inp_files/299778.got.cif
#   From: 2010.05.17/outbox.cif.g08.bks.cpg/sg15_150_cif.got.tgz:299778.got - 2010.06.03 18:47:42.
