data_PCOD9263778
_publ_section_title
;
Structure prediction by ZEFSAII (Michael W. Deem and Ramdas Pophale) SiO2 
 PCOD9263778
Probable space group: C 2/C
;
_chemical_formula_sum "Si O2"
_cell_formula_units_Z 48
_cell_length_a 8.418982
_cell_length_b 27.909588
_cell_length_c 14.109532
_cell_angle_alpha 90.000000
_cell_angle_beta 135.629151
_cell_angle_gamma 90.000000
_cell_volume 2318.403277
_symmetry_space_group_name_H-M "C 2/C"
_symmetry_group_IT_number 15
_symmetry_cell_setting 'monoclinic'
loop_
_space_group_symop_operation_xyz
x,y,z
-x,y,1/2-z
-x,-y,-z
x,-y,1/2+z
1/2+x,1/2+y,z
1/2-x,1/2+y,1/2-z
1/2-x,1/2-y,-z
1/2+x,1/2-y,1/2+z
loop_
_atom_site_type_symbol
_atom_site_label
_atom_site_fract_x
_atom_site_fract_y
_atom_site_fract_z
Si Si1 0.513869 0.299643 0.143782
Si Si2 0.977086 0.945165 0.019903
Si Si3 0.842006 0.894206 0.774022
Si Si4 0.458796 0.948796 0.529464
Si Si5 0.003048 0.306640 0.864009
Si Si6 0.776483 0.107445 0.723765
O O1 0.500000 0.291798 0.250000
O O2 0.550030 0.246487 0.116721
O O3 0.706316 0.340365 0.219416
O O4 0.263679 0.317933 0.005186
O O5 0.954827 0.907406 0.923125
O O6 0.755950 0.943990 0.993072
O O7 0.184306 0.929979 0.175786
O O8 0.000000 0.000000 0.000000
O O9 0.672699 0.938016 0.685108
O O10 0.684715 0.846969 0.698792
O O11 0.000000 0.893224 0.750000
O O12 0.424682 0.909570 0.430510
O O13 0.500000 0.000000 0.500000
O O14 0.000000 0.303773 0.750000
O O15 0.000000 0.106216 0.750000
#
# Coordination Sequence:
#
# PCOD9263778 Si02
#       6
#     8   8   8   8   8   8
#     4   9  17  32  59  88 110 138 187 242 294 351
#     4  11  22  38  60  86 115 149 193 244 297 350
#     4  12  24  38  56  83 121 161 198 236 283 347
#     4  11  22  38  60  85 114 150 194 243 296 351
#     4  10  19  34  60  87 110 144 191 241 292 348
#     4   9  18  34  58  84 109 140 184 239 293 346
#
# _framework density 20.703904999999999
#
# number of rings (size 3 to 8) (size 9 to 14) (size 15 to 20)
#    0.000    1.667    0.000    7.500    0.000    1.333 
#    0.000    2.500    0.000   27.000    0.000    0.000 
#    0.000    0.000    0.000    0.000    0.000    0.000 
#
# Total GULP energy -133746.334136 kJ/mol
# GULP energy per Si atom -5572.763922 kJ/mol
# Density = 2.065678 g / cm^3
# Si number density = 20.703905 Si / 1000 Ang^3
#
#
#
# Elastic Constant Matrix: (Units=GPa)
#
#
# Indices 1 2 3 4 5 6 
#
# 1 65.5850 18.8173 14.3930 0.0000 -10.9322 0.0000
# 2 18.8173 108.5592 -0.2309 0.0000 -7.6670 0.0000
# 3 14.3930 -0.2309 99.5333 0.0000 -22.1204 0.0000
# 4 0.0000 0.0000 0.0000 34.1981 0.0000 -4.8624
# 5 -10.9322 -7.6670 -22.1204 0.0000 17.8217 0.0000
# 6 0.0000 0.0000 0.0000 -4.8624 0.0000 18.9821
#
#
#
# Elastic Compliance Matrix: (Units=1/GPa)
#
#
# Indices 1 2 3 4 5 6 
#
# 1 0.017568 -0.002404 -0.000526 0.000000 0.009089 0.000000
# 2 -0.002404 0.009950 0.001373 0.000000 0.004510 0.000000
# 3 -0.000526 0.001373 0.014066 0.000000 0.017727 0.000000
# 4 0.000000 0.000000 0.000000 0.030347 0.000000 0.007774
# 5 0.009089 0.004510 0.017727 0.000000 0.085630 0.000000
# 6 0.000000 0.000000 0.000000 0.007774 0.000000 0.054672
#
#
# Mechanical properties :
#
#
# Convention : Reuss Voigt Hill
#
# Bulk Modulus (GPa) = 25.99520 37.73737 31.86628
# Shear Modulus (GPa) = 21.91357 30.24692 26.08025
#
# Velocity S-wave (km/s) = 3.25688 3.82636 3.55304
# Velocity P-wave (km/s) = 5.16971 6.14720 5.67953
#
# Compressibility (1/GPa) = 0.03846864
#
# Stress axis : x y z
#
# Youngs Moduli (GPa) = 56.92264 100.50510 71.09489
#
# Poissons Ratio (x) = 0.24165 0.03739
# Poissons Ratio (y) = 0.13686 -0.09761
# Poissons Ratio (z) = 0.02994 -0.13800
#
# Static dielectric constant tensor:
#      x y z
#    x 1.727100 0.000000 0.006220 
#    y 0.000000 1.853570 0.000000 
#    z 0.006220 0.000000 1.735320 
# 
# From -- ./inp_files/139637.got.cif
#   From: 2010.05.17/outbox.cif.g08.bks.cpg/sg15_70_cif.got.tgz:139637.got - 2010.06.03 18:47:42.
