data_PCOD9263328
_publ_section_title
;
Structure prediction by ZEFSAII (Michael W. Deem and Ramdas Pophale) SiO2 
 PCOD9263328
Probable space group: C 2/C
;
_chemical_formula_sum "Si O2"
_cell_formula_units_Z 64
_cell_length_a 9.058399
_cell_length_b 20.143329
_cell_length_c 25.991535
_cell_angle_alpha 90.000000
_cell_angle_beta 43.305565
_cell_angle_gamma 90.000000
_cell_volume 3252.883295
_symmetry_space_group_name_H-M "C 2/C"
_symmetry_group_IT_number 15
_symmetry_cell_setting 'monoclinic'
loop_
_space_group_symop_operation_xyz
x,y,z
-x,y,1/2-z
-x,-y,-z
x,-y,1/2+z
1/2+x,1/2+y,z
1/2-x,1/2+y,1/2-z
1/2-x,1/2-y,-z
1/2+x,1/2-y,1/2+z
loop_
_atom_site_type_symbol
_atom_site_label
_atom_site_fract_x
_atom_site_fract_y
_atom_site_fract_z
Si Si1 0.319529 0.556026 0.420186
Si Si2 0.197050 0.278358 0.734902
Si Si3 0.077091 0.722041 0.377088
Si Si4 0.146026 0.569214 0.355431
Si Si5 0.670819 0.539579 0.491105
Si Si6 0.422842 0.317986 0.497881
Si Si7 0.298724 0.062943 0.268782
Si Si8 0.399864 0.305167 0.937139
O O1 0.226236 0.538673 0.388212
O O2 0.255205 0.505151 0.480166
O O3 0.578634 0.553666 0.354494
O O4 0.270844 0.632749 0.446313
O O5 0.176284 0.250926 0.798320
O O6 0.160629 0.358062 0.748755
O O7 0.424942 0.275440 0.647284
O O8 0.000000 0.252246 0.750000
O O9 0.178449 0.648507 0.356177
O O10 0.818674 0.711537 0.437258
O O11 0.081740 0.768600 0.426399
O O12 0.249853 0.541143 0.277324
O O13 0.894183 0.558127 0.407032
O O14 0.500000 0.500000 0.500000
O O15 0.579024 0.611317 0.530397
O O16 0.480872 0.332576 0.542165
O O17 0.500000 0.035514 0.250000
O O18 0.250000 0.250000 0.000000
#
# Coordination Sequence:
#
# PCOD9263328 Si02
#       8
#     8   8   8   8   8   8   8   8
#     4  11  21  35  55  83 117 148 187 242 290 339
#     4   9  16  31  55  81 110 143 189 237 286 344
#     4   9  18  33  58  84 111 142 188 243 297 340
#     4  10  20  34  56  87 112 142 186 240 298 334
#     4  11  21  36  58  79 112 156 196 230 277 352
#     4  10  19  34  55  84 113 148 193 238 285 354
#     4   9  18  32  57  83 108 143 192 241 282 335
#     4  11  21  33  55  84 118 149 190 242 296 344
#
# _framework density 19.674852000000001
#
# number of rings (size 3 to 8) (size 9 to 14) (size 15 to 20)
#    0.000    2.000    2.500    2.250    3.500    0.000 
#    0.000    1.875    2.750    1.500    0.000    0.000 
#    0.000    0.000    0.000    0.000    0.000    0.000 
#
# Total GULP energy -178256.310111 kJ/mol
# GULP energy per Si atom -5570.509691 kJ/mol
# Density = 1.963007 g / cm^3
# Si number density = 19.674852 Si / 1000 Ang^3
#
#
#
# Elastic Constant Matrix: (Units=GPa)
#
#
# Indices 1 2 3 4 5 6 
#
# 1 71.4336 6.1453 15.0127 0.0000 18.9610 -0.0003
# 2 6.1453 44.3840 37.3994 0.0007 -3.1596 -0.0013
# 3 15.0127 37.3994 104.7418 -0.0003 25.0479 -0.0010
# 4 0.0000 0.0007 -0.0003 14.2977 -0.0010 -1.2617
# 5 18.9610 -3.1596 25.0479 -0.0010 26.7756 0.0005
# 6 -0.0003 -0.0013 -0.0010 -1.2617 0.0005 20.1909
#
#
#
# Elastic Compliance Matrix: (Units=1/GPa)
#
#
# Indices 1 2 3 4 5 6 
#
# 1 0.018531 -0.007522 0.004354 -0.000001 -0.018084 0.000000
# 2 -0.007522 0.044751 -0.022462 -0.000001 0.031621 0.000001
# 3 0.004354 -0.022462 0.023593 0.000000 -0.027805 0.000000
# 4 -0.000001 -0.000001 0.000000 0.070329 0.000003 0.004395
# 5 -0.018084 0.031621 -0.027805 0.000003 0.079895 -0.000001
# 6 0.000000 0.000001 0.000000 0.004395 -0.000001 0.049802
#
#
# Mechanical properties :
#
#
# Convention : Reuss Voigt Hill
#
# Bulk Modulus (GPa) = 28.07877 37.51937 32.79907
# Shear Modulus (GPa) = 14.28436 23.05296 18.66866
#
# Velocity S-wave (km/s) = 2.69740 3.42672 3.08370
# Velocity P-wave (km/s) = 4.89936 5.89641 5.42085
#
# Compressibility (1/GPa) = 0.03561409
#
# Stress axis : x y z
#
# Youngs Moduli (GPa) = 53.96340 22.34600 42.38570
#
# Poissons Ratio (x) = 0.16809 -0.18457
# Poissons Ratio (y) = 0.40593 0.95208
# Poissons Ratio (z) = -0.23498 0.50194
#
# Static dielectric constant tensor:
#      x y z
#    x 1.789360 0.000000 0.023160 
#    y 0.000000 1.724970 -0.000010 
#    z 0.023160 -0.000010 1.743070 
# 
# From -- ./inp_files/266077.got.cif
#   From: 2010.05.17/outbox.cif.g08.bks.cpg/sg15_134_cif.got.tgz:266077.got - 2010.06.03 18:47:42.
