data_PCOD9263471
_publ_section_title
;
Structure prediction by ZEFSAII (Michael W. Deem and Ramdas Pophale) SiO2 
 PCOD9263471
Probable space group: C 2/C
;
_chemical_formula_sum "Si O2"
_cell_formula_units_Z 56
_cell_length_a 26.057331
_cell_length_b 21.812672
_cell_length_c 10.206770
_cell_angle_alpha 90.000000
_cell_angle_beta 149.644298
_cell_angle_gamma 90.000000
_cell_volume 2931.796376
_symmetry_space_group_name_H-M "C 2/C"
_symmetry_group_IT_number 15
_symmetry_cell_setting 'monoclinic'
loop_
_space_group_symop_operation_xyz
x,y,z
-x,y,1/2-z
-x,-y,-z
x,-y,1/2+z
1/2+x,1/2+y,z
1/2-x,1/2+y,1/2-z
1/2-x,1/2-y,-z
1/2+x,1/2-y,1/2+z
loop_
_atom_site_type_symbol
_atom_site_label
_atom_site_fract_x
_atom_site_fract_y
_atom_site_fract_z
Si Si1 0.792733 0.032427 0.278870
Si Si2 0.726600 0.686006 0.021980
Si Si3 0.551179 0.964365 0.230400
Si Si4 0.059329 0.114169 0.019278
Si Si5 0.533033 0.260105 0.185717
Si Si6 0.376988 0.562885 0.756634
Si Si7 0.046510 0.330972 0.476810
O O1 0.830044 0.091100 0.275522
O O2 0.827240 0.039014 0.507949
O O3 0.848785 0.978494 0.319334
O O4 0.671850 0.027214 0.003123
O O5 0.835368 0.658309 0.297895
O O6 0.750000 0.750000 0.000000
O O7 0.642725 0.706502 0.942835
O O8 0.669671 0.630928 0.821896
O O9 0.500000 0.988367 0.250000
O O10 0.515822 0.893435 0.142978
O O11 0.500000 0.000000 0.000000
O O12 0.000000 0.106043 0.750000
O O13 0.043841 0.184982 0.020675
O O14 0.996152 0.073772 0.985160
O O15 0.500000 0.232834 0.250000
O O16 0.539966 0.209903 0.090204
O O17 0.000000 0.296460 0.250000
#
# Coordination Sequence:
#
# PCOD9263471 Si02
#       7
#     8   8   8   8   8   8   8
#     4  11  20  35  54  78 109 141 171 212 264 312
#     4   9  18  36  58  74  99 144 182 207 254 320
#     4  11  23  37  53  74 103 139 177 215 257 311
#     4   8  17  33  55  79 106 138 172 209 259 316
#     4   9  18  34  56  78 100 131 175 217 253 306
#     4  10  19  34  57  82 106 136 175 218 262 314
#     4  10  20  35  52  75 104 137 171 212 261 309
#
# _framework density 19.100916999999999
#
# number of rings (size 3 to 8) (size 9 to 14) (size 15 to 20)
#    0.000    2.286    0.000    4.714    0.000    0.571 
#    0.000   10.000    0.000    0.857    0.000    0.000 
#    0.000    0.000    0.000    0.000    0.000    0.000 
#
# Total GULP energy -155925.672227 kJ/mol
# GULP energy per Si atom -5568.774008 kJ/mol
# Density = 1.905744 g / cm^3
# Si number density = 19.100917 Si / 1000 Ang^3
#
#
#
# Elastic Constant Matrix: (Units=GPa)
#
#
# Indices 1 2 3 4 5 6 
#
# 1 117.8218 39.7374 32.0380 0.0000 6.2723 0.0000
# 2 39.7374 56.5392 -3.9955 0.0000 -11.1761 0.0000
# 3 32.0380 -3.9955 40.5143 0.0000 10.6826 0.0000
# 4 0.0000 0.0000 0.0000 19.1569 0.0000 2.5318
# 5 6.2723 -11.1761 10.6826 0.0000 27.0306 0.0000
# 6 0.0000 0.0000 0.0000 2.5318 0.0000 37.3647
#
#
#
# Elastic Compliance Matrix: (Units=1/GPa)
#
#
# Indices 1 2 3 4 5 6 
#
# 1 0.017143 -0.013866 -0.013802 0.000000 -0.004256 0.000000
# 2 -0.013866 0.030477 0.010939 0.000000 0.011495 0.000000
# 3 -0.013802 0.010939 0.038668 0.000000 -0.007556 0.000000
# 4 0.000000 0.000000 0.000000 0.052672 0.000000 -0.003569
# 5 -0.004256 0.011495 -0.007556 0.000000 0.045722 0.000000
# 6 0.000000 0.000000 0.000000 -0.003569 0.000000 0.027005
#
#
# Mechanical properties :
#
#
# Convention : Reuss Voigt Hill
#
# Bulk Modulus (GPa) = 18.92772 38.93724 28.93248
# Shear Modulus (GPa) = 19.02914 26.51679 22.77297
#
# Velocity S-wave (km/s) = 3.15976 3.72996 3.45664
# Velocity P-wave (km/s) = 4.82109 6.24335 5.57774
#
# Compressibility (1/GPa) = 0.05283255
#
# Stress axis : x y z
#
# Youngs Moduli (GPa) = 58.33167 32.81128 25.86116
#
# Poissons Ratio (x) = 0.45495 0.35693
# Poissons Ratio (y) = 0.80880 -0.28290
# Poissons Ratio (z) = 0.80508 -0.35893
#
# Static dielectric constant tensor:
#      x y z
#    x 1.684970 0.000000 -0.000520 
#    y 0.000000 1.702950 0.000000 
#    z -0.000520 0.000000 1.726200 
# 
# From -- ./inp_files/124188.got.cif
#   From: 2010.05.17/outbox.cif.g08.bks.cpg/sg15_63_cif.got.tgz:124188.got - 2010.06.03 18:47:42.
