data_PCOD9263763
_publ_section_title
;
Structure prediction by ZEFSAII (Michael W. Deem and Ramdas Pophale) SiO2 
 PCOD9263763
Probable space group: C 2/C
;
_chemical_formula_sum "Si O2"
_cell_formula_units_Z 44
_cell_length_a 13.000054
_cell_length_b 8.203928
_cell_length_c 19.684615
_cell_angle_alpha 90.000000
_cell_angle_beta 63.914026
_cell_angle_gamma 90.000000
_cell_volume 1885.539616
_symmetry_space_group_name_H-M "C 2/C"
_symmetry_group_IT_number 15
_symmetry_cell_setting 'monoclinic'
loop_
_space_group_symop_operation_xyz
x,y,z
-x,y,1/2-z
-x,-y,-z
x,-y,1/2+z
1/2+x,1/2+y,z
1/2-x,1/2+y,1/2-z
1/2-x,1/2-y,-z
1/2+x,1/2-y,1/2+z
loop_
_atom_site_type_symbol
_atom_site_label
_atom_site_fract_x
_atom_site_fract_y
_atom_site_fract_z
Si Si1 0.902507 0.074228 0.334618
Si Si2 0.378183 0.301822 0.984871
Si Si3 0.500000 0.990041 0.250000
Si Si4 0.807154 0.761856 0.300785
Si Si5 0.175586 0.246204 0.857950
Si Si6 0.434900 0.104469 0.623326
O O1 0.924446 0.092655 0.408486
O O2 0.804739 0.201249 0.339003
O O3 0.000000 0.080994 0.250000
O O4 0.852318 0.893462 0.340211
O O5 0.464472 0.149688 0.956883
O O6 0.250000 0.250000 0.000000
O O7 0.370568 0.357573 0.065117
O O8 0.384802 0.101941 0.287236
O O9 0.512801 0.893247 0.316068
O O10 0.828364 0.823446 0.216827
O O11 0.670451 0.767939 0.349259
O O12 0.111583 0.421409 0.872989
#
# Coordination Sequence:
#
# PCOD9263763 Si02
#       6
#     8   8   4   8   8   8
#     4  10  19  34  60  83 115 155 195 254 298 362
#     4  10  21  35  60  88 122 156 202 249 312 363
#     4  10  22  38  64  94 120 158 210 266 290 364
#     4  10  20  39  62  89 120 156 212 248 304 366
#     4   9  20  36  57  88 116 156 196 257 298 363
#     4  10  21  36  66  87 117 168 204 247 311 364
#
# _framework density 23.335495999999999
#
# number of rings (size 3 to 8) (size 9 to 14) (size 15 to 20)
#    0.000    2.182    0.909    1.636    6.364    0.000 
#    0.000    0.909    8.000    7.636    0.000    0.000 
#    0.000    0.000    0.000    0.000    0.000    0.000 
#
# Total GULP energy -122893.528870 kJ/mol
# GULP energy per Si atom -5586.069494 kJ/mol
# Density = 2.328238 g / cm^3
# Si number density = 23.335496 Si / 1000 Ang^3
#
#
#
# Elastic Constant Matrix: (Units=GPa)
#
#
# Indices 1 2 3 4 5 6 
#
# 1 106.6034 21.5647 41.8677 0.0000 -14.8212 0.0000
# 2 21.5647 32.8353 4.0641 0.0000 -4.3448 0.0000
# 3 41.8677 4.0641 97.6605 0.0000 -16.3402 0.0000
# 4 0.0000 0.0000 0.0000 13.6689 0.0000 10.2794
# 5 -14.8212 -4.3448 -16.3402 0.0000 32.1110 0.0000
# 6 0.0000 0.0000 0.0000 10.2794 0.0000 25.1678
#
#
#
# Elastic Compliance Matrix: (Units=1/GPa)
#
#
# Indices 1 2 3 4 5 6 
#
# 1 0.013237 -0.007746 -0.004925 0.000000 0.002556 0.000000
# 2 -0.007746 0.035580 0.002238 0.000000 0.002378 0.000000
# 3 -0.004925 0.002238 0.013038 0.000000 0.004664 0.000000
# 4 0.000000 0.000000 0.000000 0.105592 0.000000 -0.043128
# 5 0.002556 0.002378 0.004664 0.000000 0.035017 0.000000
# 6 0.000000 0.000000 0.000000 -0.043128 0.000000 0.057348
#
#
# Mechanical properties :
#
#
# Convention : Reuss Voigt Hill
#
# Bulk Modulus (GPa) = 24.39660 41.34359 32.87009
# Shear Modulus (GPa) = 16.98713 25.49639 21.24176
#
# Velocity S-wave (km/s) = 2.70099 3.30904 3.02035
# Velocity P-wave (km/s) = 4.49494 5.68816 5.12639
#
# Compressibility (1/GPa) = 0.04098933
#
# Stress axis : x y z
#
# Youngs Moduli (GPa) = 75.54634 28.10597 76.69800
#
# Poissons Ratio (x) = 0.21770 0.37772
# Poissons Ratio (y) = 0.58516 -0.17164
# Poissons Ratio (z) = 0.37205 -0.06290
#
# Static dielectric constant tensor:
#      x y z
#    x 1.919760 0.000000 -0.026150 
#    y 0.000000 1.901040 0.000000 
#    z -0.026150 0.000000 1.857420 
# 
# From -- ./inp_files/202938.got.cif
#   From: 2010.05.17/outbox.cif.g08.bks.cpg/sg15_102_cif.got.tgz:202938.got - 2010.06.03 18:47:42.
