data_PCOD9263946
_publ_section_title
;
Structure prediction by ZEFSAII (Michael W. Deem and Ramdas Pophale) SiO2 
 PCOD9263946
Probable space group: C 2/C
;
_chemical_formula_sum "Si O2"
_cell_formula_units_Z 44
_cell_length_a 14.421841
_cell_length_b 8.512936
_cell_length_c 13.795986
_cell_angle_alpha 90.000000
_cell_angle_beta 106.997399
_cell_angle_gamma 90.000000
_cell_volume 1619.776744
_symmetry_space_group_name_H-M "C 2/C"
_symmetry_group_IT_number 15
_symmetry_cell_setting 'monoclinic'
loop_
_space_group_symop_operation_xyz
x,y,z
-x,y,1/2-z
-x,-y,-z
x,-y,1/2+z
1/2+x,1/2+y,z
1/2-x,1/2+y,1/2-z
1/2-x,1/2-y,-z
1/2+x,1/2-y,1/2+z
loop_
_atom_site_type_symbol
_atom_site_label
_atom_site_fract_x
_atom_site_fract_y
_atom_site_fract_z
Si Si1 0.343680 0.886855 0.248331
Si Si2 0.139473 0.261778 0.732500
Si Si3 0.860112 0.576362 0.522147
Si Si4 0.500000 0.667832 0.250000
Si Si5 0.367273 0.428514 0.543015
Si Si6 0.932501 0.243844 0.575411
O O1 0.235976 0.825228 0.229403
O O2 0.364212 0.907926 0.140393
O O3 0.430757 0.769785 0.299834
O O4 0.352569 0.056501 0.297296
O O5 0.135211 0.254876 0.848352
O O6 0.037180 0.214278 0.655766
O O7 0.745945 0.559382 0.467390
O O8 0.885725 0.757091 0.500541
O O9 0.916366 0.413159 0.519108
O O10 0.573236 0.573659 0.338920
O O11 0.399534 0.591649 0.503802
#
# Coordination Sequence:
#
# PCOD9263946 Si02
#       6
#     8   8   8   4   8   8
#     4  10  21  36  58  84 116 148 187 240 279 334
#     4  10  21  34  57  86 114 148 196 230 278 332
#     4   9  20  37  56  86 115 148 185 235 286 332
#     4  10  20  36  62  82 108 150 190 232 286 330
#     4  10  19  34  65  81 110 149 194 227 285 339
#     4  10  20  37  57  84 114 155 187 233 278 335
#
# _framework density 27.164237
#
# number of rings (size 3 to 8) (size 9 to 14) (size 15 to 20)
#    0.000    2.182    0.000    4.909    7.636    0.000 
#    0.000    0.909    4.000    6.545    0.000    0.000 
#    0.000    0.000    0.000    0.000    0.000    0.000 
#
# Total GULP energy -123192.668710 kJ/mol
# GULP energy per Si atom -5599.666760 kJ/mol
# Density = 2.710241 g / cm^3
# Si number density = 27.164237 Si / 1000 Ang^3
#
#
#
# Elastic Constant Matrix: (Units=GPa)
#
#
# Indices 1 2 3 4 5 6 
#
# 1 75.4517 70.0128 18.8806 0.0000 17.2396 0.0000
# 2 70.0128 254.3228 32.3194 0.0000 22.4366 0.0000
# 3 18.8806 32.3194 74.3228 0.0000 27.2023 0.0000
# 4 0.0000 0.0000 0.0000 30.2458 0.0000 5.8857
# 5 17.2396 22.4366 27.2023 0.0000 57.2006 0.0000
# 6 0.0000 0.0000 0.0000 5.8857 0.0000 36.7147
#
#
#
# Elastic Compliance Matrix: (Units=1/GPa)
#
#
# Indices 1 2 3 4 5 6 
#
# 1 0.018683 -0.004672 -0.001604 0.000000 -0.003036 0.000000
# 2 -0.004672 0.005372 -0.001082 0.000000 -0.000185 0.000000
# 3 -0.001604 -0.001082 0.016951 0.000000 -0.007154 0.000000
# 4 0.000000 0.000000 0.000000 0.034127 0.000000 -0.005471
# 5 -0.003036 -0.000185 -0.007154 0.000000 0.021872 0.000000
# 6 0.000000 0.000000 0.000000 -0.005471 0.000000 0.028114
#
#
# Mechanical properties :
#
#
# Convention : Reuss Voigt Hill
#
# Bulk Modulus (GPa) = 38.03410 71.83590 54.93500
# Shear Modulus (GPa) = 33.64810 43.69118 38.66964
#
# Velocity S-wave (km/s) = 3.52332 4.01485 3.77709
# Velocity P-wave (km/s) = 5.53025 6.92780 6.26810
#
# Compressibility (1/GPa) = 0.02629219
#
# Stress axis : x y z
#
# Youngs Moduli (GPa) = 53.52325 186.15559 58.99457
#
# Poissons Ratio (x) = 0.86968 0.09460
# Poissons Ratio (y) = 0.25005 0.06381
# Poissons Ratio (z) = 0.08583 0.20134
#
# Static dielectric constant tensor:
#      x y z
#    x 2.078040 0.000000 -0.062930 
#    y 0.000000 2.234330 0.000000 
#    z -0.062930 0.000000 2.100940 
# 
# From -- ./inp_files/202566.got.cif
#   From: 2010.05.17/outbox.cif.g08.bks.cpg/sg15_102_cif.got.tgz:202566.got - 2010.06.03 18:47:42.
