data_PCOD9263399
_publ_section_title
;
Structure prediction by ZEFSAII (Michael W. Deem and Ramdas Pophale) SiO2 
 PCOD9263399
Probable space group: C 2/C
;
_chemical_formula_sum "Si O2"
_cell_formula_units_Z 52
_cell_length_a 17.308799
_cell_length_b 10.634068
_cell_length_c 12.057045
_cell_angle_alpha 90.000000
_cell_angle_beta 89.642329
_cell_angle_gamma 90.000000
_cell_volume 2219.211976
_symmetry_space_group_name_H-M "C 2/C"
_symmetry_group_IT_number 15
_symmetry_cell_setting 'monoclinic'
loop_
_space_group_symop_operation_xyz
x,y,z
-x,y,1/2-z
-x,-y,-z
x,-y,1/2+z
1/2+x,1/2+y,z
1/2-x,1/2+y,1/2-z
1/2-x,1/2-y,-z
1/2+x,1/2-y,1/2+z
loop_
_atom_site_type_symbol
_atom_site_label
_atom_site_fract_x
_atom_site_fract_y
_atom_site_fract_z
Si Si1 0.819430 0.778368 0.275106
Si Si2 0.000000 0.268792 0.250000
Si Si3 0.722315 0.529872 0.272072
Si Si4 0.591995 0.297242 0.458715
Si Si5 0.958542 0.631478 0.370038
Si Si6 0.951535 0.033089 0.146496
Si Si7 0.632012 0.108268 0.628865
O O1 0.758667 0.666788 0.255160
O O2 0.789722 0.915077 0.316128
O O3 0.858283 0.797196 0.154785
O O4 0.886376 0.724207 0.351869
O O5 0.921692 0.346493 0.267418
O O6 0.990718 0.170786 0.147727
O O7 0.636267 0.557219 0.314311
O O8 0.786832 0.457619 0.346166
O O9 0.521905 0.201978 0.439773
O O10 0.560448 0.439363 0.456122
O O11 0.640958 0.232204 0.554451
O O12 0.921950 0.504009 0.417956
O O13 0.000000 0.607751 0.250000
O O14 0.000000 0.969217 0.250000
#
# Coordination Sequence:
#
# PCOD9263399 Si02
#       7
#     8   4   8   8   8   8   8
#     4   9  19  32  58  79 111 151 194 231 285 343
#     4  10  22  38  54  88 114 152 190 236 288 348
#     4  10  19  36  55  84 111 156 187 239 285 351
#     4  10  19  34  56  84 107 149 190 237 274 346
#     4   9  17  34  55  78 105 145 187 225 278 343
#     4   9  20  37  58  76 114 147 192 225 280 350
#     4  11  21  33  58  83 117 142 188 241 292 328
#
# _framework density 23.431740999999999
#
# number of rings (size 3 to 8) (size 9 to 14) (size 15 to 20)
#    0.462    1.846    0.769    3.692    0.000    3.077 
#    0.000    0.000    3.385    1.846    0.000    0.000 
#    0.000    0.000    0.000    0.000    0.000    0.000 
#
# Total GULP energy -144796.138153 kJ/mol
# GULP energy per Si atom -5569.082237 kJ/mol
# Density = 2.337841 g / cm^3
# Si number density = 23.431741 Si / 1000 Ang^3
#
#
#
# Elastic Constant Matrix: (Units=GPa)
#
#
# Indices 1 2 3 4 5 6 
#
# 1 124.5094 21.4265 -3.5363 0.0000 10.0388 0.0000
# 2 21.4265 88.7745 -17.6168 0.0000 -5.1362 0.0000
# 3 -3.5363 -17.6168 19.3325 0.0000 1.2381 0.0000
# 4 0.0000 0.0000 0.0000 -17.5169 0.0000 12.8396
# 5 10.0388 -5.1362 1.2381 0.0000 12.3751 0.0000
# 6 0.0000 0.0000 0.0000 12.8396 0.0000 45.3453
#
#
#
# Elastic Compliance Matrix: (Units=1/GPa)
#
#
# Indices 1 2 3 4 5 6 
#
# 1 0.009192 -0.002774 -0.000297 0.000000 -0.008578 0.000000
# 2 -0.002774 0.014840 0.012557 0.000000 0.007153 0.000000
# 3 -0.000297 0.012557 0.063170 0.000000 -0.000867 0.000000
# 4 0.000000 0.000000 0.000000 -0.047276 0.000000 0.013386
# 5 -0.008578 0.007153 -0.000867 0.000000 0.090822 0.000000
# 6 0.000000 0.000000 0.000000 0.013386 0.000000 0.018263
#
#
# Mechanical properties :
#
#
# Convention : Reuss Voigt Hill
#
# Bulk Modulus (GPa) = 9.41838 25.90704 17.66271
# Shear Modulus (GPa) = 30.22434 23.53021 26.87728
#
# Velocity S-wave (km/s) = 3.59540 3.17235 3.39048
# Velocity P-wave (km/s) = 4.61130 4.94963 4.78346
#
# Compressibility (1/GPa) = 0.10617539
#
# Stress axis : x y z
#
# Youngs Moduli (GPa) = 108.78958 67.38665 15.83020
#
# Poissons Ratio (x) = 0.18692 0.00470
# Poissons Ratio (y) = 0.30176 -0.19878
# Poissons Ratio (z) = 0.03230 -0.84619
#
# Static dielectric constant tensor:
#      x y z
#    x 1.878910 0.000000 -0.016770 
#    y 0.000000 1.953090 0.000000 
#    z -0.016770 0.000000 1.938330 
# 
# From -- ./inp_files/160360.got.cif
#   From: 2010.05.17/outbox.cif.g08.bks.cpg/sg15_81_cif.got.tgz:160360.got - 2010.06.03 18:47:42.
