data_PCOD9263488
_publ_section_title
;
Structure prediction by ZEFSAII (Michael W. Deem and Ramdas Pophale) SiO2 
 PCOD9263488
Probable space group: C 2/C
;
_chemical_formula_sum "Si O2"
_cell_formula_units_Z 60
_cell_length_a 17.865094
_cell_length_b 9.550672
_cell_length_c 22.385188
_cell_angle_alpha 90.000000
_cell_angle_beta 56.866005
_cell_angle_gamma 90.000000
_cell_volume 3198.380389
_symmetry_space_group_name_H-M "C 2/C"
_symmetry_group_IT_number 15
_symmetry_cell_setting 'monoclinic'
loop_
_space_group_symop_operation_xyz
x,y,z
-x,y,1/2-z
-x,-y,-z
x,-y,1/2+z
1/2+x,1/2+y,z
1/2-x,1/2+y,1/2-z
1/2-x,1/2-y,-z
1/2+x,1/2-y,1/2+z
loop_
_atom_site_type_symbol
_atom_site_label
_atom_site_fract_x
_atom_site_fract_y
_atom_site_fract_z
Si Si1 0.502864 0.302231 0.640075
Si Si2 0.000000 0.983939 0.250000
Si Si3 0.697947 0.599168 0.637901
Si Si4 0.804314 0.610086 0.411402
Si Si5 0.184038 0.526200 0.232604
Si Si6 0.810843 0.269992 0.195794
Si Si7 0.989927 0.484612 0.825078
Si Si8 0.803217 0.892323 0.964969
O O1 0.483235 0.414457 0.700735
O O2 0.414110 0.271570 0.640146
O O3 0.524395 0.150312 0.659079
O O4 0.592254 0.359898 0.570398
O O5 0.908047 0.896925 0.298786
O O6 0.717566 0.727066 0.584097
O O7 0.761828 0.637016 0.665902
O O8 0.709112 0.454217 0.597024
O O9 0.811187 0.555338 0.339895
O O10 0.905609 0.591385 0.390497
O O11 0.735915 0.511830 0.475244
O O12 0.194940 0.363858 0.242517
O O13 0.257810 0.627076 0.227166
O O14 0.087796 0.560344 0.304029
O O15 0.000000 0.458908 0.750000
O O16 0.750000 0.750000 0.000000
#
# Coordination Sequence:
#
# PCOD9263488 Si02
#       8
#     8   4   8   8   8   8   8   8
#     4  10  19  34  57  84 111 148 190 242 277 338
#     4  10  20  34  60  90 112 148 198 244 284 342
#     4  10  23  36  58  85 117 149 184 239 292 341
#     4  10  20  36  57  81 113 143 189 232 282 335
#     4   9  20  32  57  80 114 146 179 231 288 342
#     4  10  20  37  54  85 122 144 183 236 303 343
#     4   9  16  30  55  82 105 136 185 234 277 319
#     4  11  22  38  59  82 108 151 203 235 274 337
#
# _framework density 18.759494
#
# number of rings (size 3 to 8) (size 9 to 14) (size 15 to 20)
#    0.000    2.133    2.000    1.200    4.667    1.067 
#    0.000    3.333    2.933    0.000    0.000    0.000 
#    0.000    0.000    0.000    0.000    0.000    0.000 
#
# Total GULP energy -167105.425774 kJ/mol
# GULP energy per Si atom -5570.180859 kJ/mol
# Density = 1.871680 g / cm^3
# Si number density = 18.759494 Si / 1000 Ang^3
#
#
#
# Elastic Constant Matrix: (Units=GPa)
#
#
# Indices 1 2 3 4 5 6 
#
# 1 82.7701 22.8859 34.5595 0.0000 -27.4534 0.0000
# 2 22.8859 62.7896 41.6230 0.0000 -9.3957 0.0000
# 3 34.5595 41.6230 72.7515 0.0000 -23.5128 0.0000
# 4 0.0000 0.0000 0.0000 35.1917 0.0000 -2.1048
# 5 -27.4534 -9.3957 -23.5128 0.0000 20.7663 0.0000
# 6 0.0000 0.0000 0.0000 -2.1048 0.0000 33.2859
#
#
#
# Elastic Compliance Matrix: (Units=1/GPa)
#
#
# Indices 1 2 3 4 5 6 
#
# 1 0.022491 -0.004847 0.001561 0.000000 0.029308 0.000000
# 2 -0.004847 0.027551 -0.018141 0.000000 -0.014482 0.000000
# 3 0.001561 -0.018141 0.033746 0.000000 0.032065 0.000000
# 4 0.000000 0.000000 0.000000 0.028524 0.000000 0.001804
# 5 0.029308 -0.014482 0.032065 0.000000 0.116654 0.000000
# 6 0.000000 0.000000 0.000000 0.001804 0.000000 0.030157
#
#
# Mechanical properties :
#
#
# Convention : Reuss Voigt Hill
#
# Bulk Modulus (GPa) = 24.42898 46.27198 35.35048
# Shear Modulus (GPa) = 15.84177 25.79832 20.82005
#
# Velocity S-wave (km/s) = 2.90912 3.71241 3.33504
# Velocity P-wave (km/s) = 4.93300 6.56471 5.80646
#
# Compressibility (1/GPa) = 0.04093499
#
# Stress axis : x y z
#
# Youngs Moduli (GPa) = 44.46217 36.29594 29.63328
#
# Poissons Ratio (x) = 0.17593 -0.04627
# Poissons Ratio (y) = 0.21551 0.53757
# Poissons Ratio (z) = -0.06942 0.65844
#
# Static dielectric constant tensor:
#      x y z
#    x 1.718270 0.000000 -0.021200 
#    y 0.000000 1.657830 0.000000 
#    z -0.021200 0.000000 1.655210 
# 
# From -- ./inp_files/298381.got.cif
#   From: 2010.05.17/outbox.cif.g08.bks.cpg/sg15_150_cif.got.tgz:298381.got - 2010.06.03 18:47:42.
