data_PCOD9263966
_publ_section_title
;
Structure prediction by ZEFSAII (Michael W. Deem and Ramdas Pophale) SiO2 
 PCOD9263966
Probable space group: C 2/C
;
_chemical_formula_sum "Si O2"
_cell_formula_units_Z 64
_cell_length_a 24.712293
_cell_length_b 17.668780
_cell_length_c 25.846367
_cell_angle_alpha 90.000000
_cell_angle_beta 21.149019
_cell_angle_gamma 90.000000
_cell_volume 4071.734520
_symmetry_space_group_name_H-M "C 2/C"
_symmetry_group_IT_number 15
_symmetry_cell_setting 'monoclinic'
loop_
_space_group_symop_operation_xyz
x,y,z
-x,y,1/2-z
-x,-y,-z
x,-y,1/2+z
1/2+x,1/2+y,z
1/2-x,1/2+y,1/2-z
1/2-x,1/2-y,-z
1/2+x,1/2-y,1/2+z
loop_
_atom_site_type_symbol
_atom_site_label
_atom_site_fract_x
_atom_site_fract_y
_atom_site_fract_z
Si Si1 0.127736 0.990886 0.323155
Si Si2 0.448834 0.177849 0.057937
Si Si3 0.723127 0.328297 0.590122
Si Si4 0.284372 0.663724 0.715610
Si Si5 0.687374 0.565687 0.909757
Si Si6 0.374479 0.960493 0.688139
Si Si7 0.342114 0.931622 0.564614
Si Si8 0.885495 0.170295 0.429780
O O1 0.127651 0.901093 0.330769
O O2 0.249358 0.019232 0.256692
O O3 0.971249 0.032675 0.468342
O O4 0.196850 0.018885 0.207680
O O5 0.380308 0.260399 0.126203
O O6 0.420859 0.124970 0.133402
O O7 0.623274 0.177876 0.885833
O O8 0.362791 0.136439 0.087223
O O9 0.823300 0.393688 0.525995
O O10 0.813881 0.249829 0.511600
O O11 0.680970 0.343884 0.568183
O O12 0.565649 0.323532 0.762024
O O13 0.260857 0.627651 0.679200
O O14 0.661648 0.606760 0.986974
O O15 0.799867 0.493884 0.806768
O O16 0.518616 0.012970 0.551335
#
# Coordination Sequence:
#
# PCOD9263966 Si02
#       8
#     8   8   8   8   8   8   8   8
#     4  10  19  35  49  71  97 132 170 208 246 297
#     4  11  22  32  47  71 103 133 166 201 244 297
#     4  10  22  36  54  70 106 134 172 215 254 289
#     4  11  22  32  46  72 103 132 167 202 243 299
#     4  11  21  33  54  71  98 135 174 205 247 297
#     4  10  20  35  50  69 101 130 171 207 248 294
#     4  11  18  35  54  68  96 142 169 205 250 297
#     4  10  22  38  49  77 101 135 173 215 251 295
#
# _framework density 15.718118
#
# number of rings (size 3 to 8) (size 9 to 14) (size 15 to 20)
#    0.000    1.500    5.000    3.000    7.000    2.000 
#    0.000    0.000    0.000    0.000    0.000    0.000 
#    0.000    6.000    0.000    0.000    0.000    0.000 
#
# Total GULP energy -178348.225032 kJ/mol
# GULP energy per Si atom -5573.382032 kJ/mol
# Density = 1.568234 g / cm^3
# Si number density = 15.718118 Si / 1000 Ang^3
#
#
#
# Elastic Constant Matrix: (Units=GPa)
#
#
# Indices 1 2 3 4 5 6 
#
# 1 31.9832 21.7605 15.1687 -0.0038 5.4491 0.0028
# 2 21.7605 90.4605 40.8656 0.0270 3.6701 -0.0115
# 3 15.1687 40.8656 98.7775 0.0304 7.7215 -0.0078
# 4 -0.0038 0.0270 0.0304 36.5103 -0.0137 1.7350
# 5 5.4491 3.6701 7.7215 -0.0137 19.5948 0.0027
# 6 0.0028 -0.0115 -0.0078 1.7350 0.0027 23.7353
#
#
#
# Elastic Compliance Matrix: (Units=1/GPa)
#
#
# Indices 1 2 3 4 5 6 
#
# 1 0.039245 -0.008206 -0.001959 0.000009 -0.008605 -0.000009
# 2 -0.008206 0.015314 -0.005189 -0.000008 0.001459 0.000007
# 3 -0.001959 -0.005189 0.012849 -0.000009 -0.003546 0.000003
# 4 0.000009 -0.000008 -0.000009 0.027485 0.000022 -0.002009
# 5 -0.008605 0.001459 -0.003546 0.000022 0.054551 -0.000007
# 6 -0.000009 0.000007 0.000003 -0.002009 -0.000007 0.042278
#
#
# Mechanical properties :
#
#
# Convention : Reuss Voigt Hill
#
# Bulk Modulus (GPa) = 27.24942 41.86789 34.55866
# Shear Modulus (GPa) = 21.30710 25.52984 23.41847
#
# Velocity S-wave (km/s) = 3.68581 4.03455 3.86411
# Velocity P-wave (km/s) = 5.95714 6.95686 6.47632
#
# Compressibility (1/GPa) = 0.03669802
#
# Stress axis : x y z
#
# Youngs Moduli (GPa) = 25.48104 65.30097 77.82891
#
# Poissons Ratio (x) = 0.53589 0.15246
# Poissons Ratio (y) = 0.20911 0.40388
# Poissons Ratio (z) = 0.04991 0.33887
#
# Static dielectric constant tensor:
#      x y z
#    x 1.522890 0.000000 0.021840 
#    y 0.000000 1.524790 0.000010 
#    z 0.021840 0.000010 1.586110 
# 
# From -- ./inp_files/69935.got.cif
#   From: 2010.05.17/outbox.cif.g08.bks.cpg/sg15_35_cif.got.tgz:69935.got - 2010.06.03 18:47:42.
