data_PCOD9263312
_publ_section_title
;
Structure prediction by ZEFSAII (Michael W. Deem and Ramdas Pophale) SiO2 
 PCOD9263312
Probable space group: C 2/C
;
_chemical_formula_sum "Si O2"
_cell_formula_units_Z 64
_cell_length_a 16.163779
_cell_length_b 19.606912
_cell_length_c 19.816884
_cell_angle_alpha 90.000000
_cell_angle_beta 32.223775
_cell_angle_gamma 90.000000
_cell_volume 3348.882389
_symmetry_space_group_name_H-M "C 2/C"
_symmetry_group_IT_number 15
_symmetry_cell_setting 'monoclinic'
loop_
_space_group_symop_operation_xyz
x,y,z
-x,y,1/2-z
-x,-y,-z
x,-y,1/2+z
1/2+x,1/2+y,z
1/2-x,1/2+y,1/2-z
1/2-x,1/2-y,-z
1/2+x,1/2-y,1/2+z
loop_
_atom_site_type_symbol
_atom_site_label
_atom_site_fract_x
_atom_site_fract_y
_atom_site_fract_z
Si Si1 0.597013 0.453936 0.882082
Si Si2 0.826057 0.305265 0.608598
Si Si3 0.068630 0.006627 0.628640
Si Si4 0.496535 0.698056 0.094751
Si Si5 0.837540 0.864448 0.903624
Si Si6 0.231710 0.639089 0.999137
Si Si7 0.179497 0.743336 0.147517
Si Si8 0.883728 0.370783 0.705308
O O1 0.568546 0.490948 0.829891
O O2 0.532304 0.377546 0.914641
O O3 0.768944 0.435392 0.789656
O O4 0.500000 0.500000 0.000000
O O5 0.660665 0.281568 0.755911
O O6 0.944639 0.246756 0.504851
O O7 0.786698 0.344408 0.566396
O O8 0.895319 0.353750 0.618176
O O9 0.163882 0.075278 0.553781
O O10 0.000000 0.012835 0.750000
O O11 0.178393 0.939687 0.554004
O O12 0.632008 0.688391 0.057089
O O13 0.000000 0.866528 0.750000
O O14 0.262284 0.679941 0.907521
O O15 0.262954 0.694492 0.035870
O O16 0.051422 0.618398 0.122009
O O17 0.183179 0.699051 0.213508
O O18 0.000000 0.746474 0.250000
#
# Coordination Sequence:
#
# PCOD9263312 Si02
#       8
#     8   8   8   8   8   8   8   8
#     4  10  21  39  58  81 114 155 197 237 297 360
#     4  10  19  34  55  82 114 145 185 239 302 342
#     4  10  19  36  57  80 107 156 203 231 286 369
#     4   9  19  34  57  83 109 151 192 235 292 349
#     4   8  16  33  55  75 108 148 192 231 282 362
#     4  10  20  34  56  81 112 152 199 242 293 351
#     4   9  19  36  53  79 113 153 192 240 296 365
#     4  10  21  34  56  82 118 147 190 249 312 336
#
# _framework density 19.110854
#
# number of rings (size 3 to 8) (size 9 to 14) (size 15 to 20)
#    0.000    2.500    0.000    3.750    3.500    0.000 
#    4.500    3.750    0.000    3.000    0.000    0.000 
#    0.000    0.000    0.000    0.000    0.000    0.000 
#
# Total GULP energy -178136.625665 kJ/mol
# GULP energy per Si atom -5566.769552 kJ/mol
# Density = 1.906736 g / cm^3
# Si number density = 19.110854 Si / 1000 Ang^3
#
#
#
# Elastic Constant Matrix: (Units=GPa)
#
#
# Indices 1 2 3 4 5 6 
#
# 1 52.7582 1.0695 -0.6389 -0.0004 -4.0836 0.0000
# 2 1.0695 65.0525 30.6382 -0.0007 -17.6936 0.0006
# 3 -0.6389 30.6382 48.1716 -0.0016 0.1722 0.0027
# 4 -0.0004 -0.0007 -0.0016 29.7989 0.0006 -0.6589
# 5 -4.0836 -17.6936 0.1722 0.0006 24.2533 -0.0010
# 6 0.0000 0.0006 0.0027 -0.6589 -0.0010 23.2341
#
#
#
# Elastic Compliance Matrix: (Units=1/GPa)
#
#
# Indices 1 2 3 4 5 6 
#
# 1 0.019234 0.000900 -0.000331 0.000000 0.003897 0.000000
# 2 0.000900 0.030814 -0.019668 -0.000001 0.022771 0.000002
# 3 -0.000331 -0.019668 0.033316 0.000001 -0.014641 -0.000004
# 4 0.000000 -0.000001 0.000001 0.033579 -0.000001 0.000952
# 5 0.003897 0.022771 -0.014641 -0.000001 0.058604 0.000004
# 6 0.000000 0.000002 -0.000004 0.000952 0.000004 0.043067
#
#
# Mechanical properties :
#
#
# Convention : Reuss Voigt Hill
#
# Bulk Modulus (GPa) = 22.14076 25.34667 23.74371
# Shear Modulus (GPa) = 18.39127 24.45149 21.42138
#
# Velocity S-wave (km/s) = 3.10554 3.58083 3.35162
# Velocity P-wave (km/s) = 4.94669 5.51255 5.23727
#
# Compressibility (1/GPa) = 0.04516558
#
# Stress axis : x y z
#
# Youngs Moduli (GPa) = 51.99184 32.45278 30.01536
#
# Poissons Ratio (x) = -0.02920 0.00994
# Poissons Ratio (y) = -0.04678 0.59034
# Poissons Ratio (z) = 0.01721 0.63828
#
# Static dielectric constant tensor:
#      x y z
#    x 1.734120 0.000000 0.012820 
#    y 0.000000 1.688820 0.000000 
#    z 0.012820 0.000000 1.739560 
# 
# From -- ./inp_files/206443.got.cif
#   From: 2010.05.17/outbox.cif.g08.bks.cpg/sg15_104_cif.got.tgz:206443.got - 2010.06.03 18:47:42.
