data_PCOD9263143
_publ_section_title
;
Structure prediction by ZEFSAII (Michael W. Deem and Ramdas Pophale) SiO2 
 PCOD9263143
Probable space group: C 2/C
;
_chemical_formula_sum "Si O2"
_cell_formula_units_Z 40
_cell_length_a 5.177657
_cell_length_b 12.500613
_cell_length_c 26.414505
_cell_angle_alpha 90.000000
_cell_angle_beta 87.081200
_cell_angle_gamma 90.000000
_cell_volume 1707.431498
_symmetry_space_group_name_H-M "C 2/C"
_symmetry_group_IT_number 15
_symmetry_cell_setting 'monoclinic'
loop_
_space_group_symop_operation_xyz
x,y,z
-x,y,1/2-z
-x,-y,-z
x,-y,1/2+z
1/2+x,1/2+y,z
1/2-x,1/2+y,1/2-z
1/2-x,1/2-y,-z
1/2+x,1/2-y,1/2+z
loop_
_atom_site_type_symbol
_atom_site_label
_atom_site_fract_x
_atom_site_fract_y
_atom_site_fract_z
Si Si1 0.306916 0.542183 0.459709
Si Si2 0.500000 0.817212 0.250000
Si Si3 0.970202 0.317994 0.027066
Si Si4 0.039488 0.973227 0.357312
Si Si5 0.538917 0.170627 0.860599
Si Si6 0.000000 0.968145 0.250000
O O1 0.500000 0.500000 0.500000
O O2 0.112383 0.441571 0.458292
O O3 0.455466 0.544209 0.405262
O O4 0.187543 0.650924 0.483262
O O5 0.501246 0.768820 0.192907
O O6 0.750843 0.892625 0.249717
O O7 0.750000 0.250000 0.000000
O O8 0.009352 0.276816 0.084117
O O9 0.833015 0.874588 0.358724
O O10 0.003176 0.027712 0.303197
O O11 0.326882 0.925854 0.360150
#
# Coordination Sequence:
#
# PCOD9263143 Si02
#       6
#     8   4   8   8   8   4
#     4  10  19  34  52  75 112 149 186 242 291 349
#     4   8  14  24  44  68 101 129 174 230 280 322
#     4  10  21  34  51  78 115 149 191 235 295 358
#     4   9  16  28  48  71 107 136 180 232 290 334
#     4   9  16  29  46  73 105 137 178 235 281 342
#     4   8  14  24  42  72  99 129 174 234 274 334
#
# _framework density 23.427002999999999
#
# number of rings (size 3 to 8) (size 9 to 14) (size 15 to 20)
#    0.000    2.800    2.000    0.000    0.000    0.800 
#    0.000    0.000    0.000    0.000    0.000    1.400 
#   24.000    0.000    0.000    0.000    0.000    0.000 
#
# Total GULP energy -111356.000386 kJ/mol
# GULP energy per Si atom -5567.800019 kJ/mol
# Density = 2.337368 g / cm^3
# Si number density = 23.427003 Si / 1000 Ang^3
#
#
#
# Elastic Constant Matrix: (Units=GPa)
#
#
# Indices 1 2 3 4 5 6 
#
# 1 95.0136 8.6864 18.9971 0.0000 5.6799 0.0000
# 2 8.6864 85.1324 35.5686 0.0000 -2.0686 0.0000
# 3 18.9971 35.5686 306.7521 0.0000 2.7872 0.0000
# 4 0.0000 0.0000 0.0000 9.5604 0.0000 -5.0420
# 5 5.6799 -2.0686 2.7872 0.0000 42.2019 0.0000
# 6 0.0000 0.0000 0.0000 -5.0420 0.0000 25.0567
#
#
#
# Elastic Compliance Matrix: (Units=1/GPa)
#
#
# Indices 1 2 3 4 5 6 
#
# 1 0.010805 -0.000908 -0.000551 0.000000 -0.001462 0.000000
# 2 -0.000908 0.012441 -0.001394 0.000000 0.000824 0.000000
# 3 -0.000551 -0.001394 0.003458 0.000000 -0.000223 0.000000
# 4 0.000000 0.000000 0.000000 0.117016 0.000000 0.023547
# 5 -0.001462 0.000824 -0.000223 0.000000 0.023948 0.000000
# 6 0.000000 0.000000 0.000000 0.023547 0.000000 0.044648
#
#
# Mechanical properties :
#
#
# Convention : Reuss Voigt Hill
#
# Bulk Modulus (GPa) = 47.62010 68.15582 57.88796
# Shear Modulus (GPa) = 22.22017 43.60685 32.91351
#
# Velocity S-wave (km/s) = 3.08309 4.31907 3.75232
# Velocity P-wave (km/s) = 5.74848 7.35040 6.59824
#
# Compressibility (1/GPa) = 0.02099953
#
# Stress axis : x y z
#
# Youngs Moduli (GPa) = 92.54684 80.37651 289.20917
#
# Poissons Ratio (x) = 0.07298 0.15924
# Poissons Ratio (y) = 0.08403 0.40312
# Poissons Ratio (z) = 0.05096 0.11203
#
# Static dielectric constant tensor:
#      x y z
#    x 1.932290 0.000000 -0.055030 
#    y 0.000000 2.080950 0.000000 
#    z -0.055030 0.000000 2.028560 
# 
# From -- ./inp_files/260201.got.cif
#   From: 2010.05.17/outbox.cif.g08.bks.cpg/sg15_131_cif.got.tgz:260201.got - 2010.06.03 18:47:42.
