data_PCOD9263692
_publ_section_title
;
Structure prediction by ZEFSAII (Michael W. Deem and Ramdas Pophale) SiO2 
 PCOD9263692
Probable space group: C 2/C
;
_chemical_formula_sum "Si O2"
_cell_formula_units_Z 56
_cell_length_a 7.672417
_cell_length_b 17.057397
_cell_length_c 21.082833
_cell_angle_alpha 90.000000
_cell_angle_beta 121.575554
_cell_angle_gamma 90.000000
_cell_volume 2350.651504
_symmetry_space_group_name_H-M "C 2/C"
_symmetry_group_IT_number 15
_symmetry_cell_setting 'monoclinic'
loop_
_space_group_symop_operation_xyz
x,y,z
-x,y,1/2-z
-x,-y,-z
x,-y,1/2+z
1/2+x,1/2+y,z
1/2-x,1/2+y,1/2-z
1/2-x,1/2-y,-z
1/2+x,1/2-y,1/2+z
loop_
_atom_site_type_symbol
_atom_site_label
_atom_site_fract_x
_atom_site_fract_y
_atom_site_fract_z
Si Si1 0.598647 0.831122 0.206524
Si Si2 0.302624 0.980849 0.569611
Si Si3 0.739016 0.089105 0.302005
Si Si4 0.023226 0.844751 0.338259
Si Si5 0.949212 0.871684 0.464947
Si Si6 0.269361 0.013691 0.817947
Si Si7 0.410703 0.737106 0.405216
O O1 0.500000 0.798890 0.250000
O O2 0.607169 0.924415 0.202948
O O3 0.491189 0.799996 0.123251
O O4 0.840528 0.813298 0.258588
O O5 0.546314 0.977215 0.605755
O O6 0.202590 0.064067 0.533984
O O7 0.253134 0.967048 0.634993
O O8 0.174917 0.913052 0.510861
O O9 0.500000 0.110669 0.250000
O O10 0.863538 0.164386 0.349238
O O11 0.806912 0.049333 0.248701
O O12 0.911956 0.858924 0.383984
O O13 0.122757 0.927489 0.330875
O O14 0.200690 0.781373 0.383996
O O15 0.970949 0.795009 0.512147
#
# Coordination Sequence:
#
# PCOD9263692 Si02
#       7
#     8   8   8   8   8   8   8
#     4  11  22  39  59  83 113 149 193 244 295 350
#     4   9  19  34  56  80 113 152 197 240 285 342
#     4   9  16  32  57  83 111 149 191 238 290 340
#     4  11  22  37  59  85 116 153 197 243 290 351
#     4  10  20  37  56  82 118 160 195 238 292 346
#     4  10  19  34  59  86 110 149 195 242 291 340
#     4  10  21  37  57  84 118 155 195 237 292 348
#
# _framework density 23.823181999999999
#
# number of rings (size 3 to 8) (size 9 to 14) (size 15 to 20)
#    0.000    2.000    0.000    6.000    0.000    0.571 
#    0.000   13.571    0.000    0.000    0.000    0.000 
#    0.000    0.000    0.000    0.000    0.000    0.000 
#
# Total GULP energy -156281.333790 kJ/mol
# GULP energy per Si atom -5581.476207 kJ/mol
# Density = 2.376896 g / cm^3
# Si number density = 23.823182 Si / 1000 Ang^3
#
#
#
# Elastic Constant Matrix: (Units=GPa)
#
#
# Indices 1 2 3 4 5 6 
#
# 1 69.3112 11.7067 4.4016 0.0000 -1.5124 0.0000
# 2 11.7067 55.6414 8.1919 0.0000 -2.9210 0.0000
# 3 4.4016 8.1919 77.4952 0.0000 10.4938 0.0000
# 4 0.0000 0.0000 0.0000 53.5854 0.0000 9.6642
# 5 -1.5124 -2.9210 10.4938 0.0000 32.4995 0.0000
# 6 0.0000 0.0000 0.0000 9.6642 0.0000 24.3129
#
#
#
# Elastic Compliance Matrix: (Units=1/GPa)
#
#
# Indices 1 2 3 4 5 6 
#
# 1 0.014992 -0.003031 -0.000616 0.000000 0.000624 0.000000
# 2 -0.003031 0.019045 -0.002148 0.000000 0.002264 0.000000
# 3 -0.000616 -0.002148 0.013799 0.000000 -0.004677 0.000000
# 4 0.000000 0.000000 0.000000 0.020103 0.000000 -0.007991
# 5 0.000624 0.002264 -0.004677 0.000000 0.032513 0.000000
# 6 0.000000 0.000000 0.000000 -0.007991 0.000000 0.044307
#
#
# Mechanical properties :
#
#
# Convention : Reuss Voigt Hill
#
# Bulk Modulus (GPa) = 27.58754 27.89424 27.74089
# Shear Modulus (GPa) = 29.68593 33.95608 31.82101
#
# Velocity S-wave (km/s) = 3.53384 3.77946 3.65871
# Velocity P-wave (km/s) = 5.31563 5.54798 5.43305
#
# Compressibility (1/GPa) = 0.03624825
#
# Stress axis : x y z
#
# Youngs Moduli (GPa) = 66.70086 52.50729 72.46688
#
# Poissons Ratio (x) = 0.15914 0.04461
# Poissons Ratio (y) = 0.20216 0.15563
# Poissons Ratio (z) = 0.04106 0.11277
#
# Static dielectric constant tensor:
#      x y z
#    x 1.979230 0.000000 0.030530 
#    y 0.000000 1.936160 0.000000 
#    z 0.030530 0.000000 1.954480 
# 
# From -- ./inp_files/232785.got.cif
#   From: 2010.05.17/outbox.cif.g08.bks.cpg/sg15_117_cif.got.tgz:232785.got - 2010.06.03 18:47:42.
