data_PCOD9263849
_publ_section_title
;
Structure prediction by ZEFSAII (Michael W. Deem and Ramdas Pophale) SiO2 
 PCOD9263849
Probable space group: C 2/C
;
_chemical_formula_sum "Si O2"
_cell_formula_units_Z 64
_cell_length_a 9.065149
_cell_length_b 18.474193
_cell_length_c 28.919982
_cell_angle_alpha 90.000000
_cell_angle_beta 142.208631
_cell_angle_gamma 90.000000
_cell_volume 2967.896192
_symmetry_space_group_name_H-M "C 2/C"
_symmetry_group_IT_number 15
_symmetry_cell_setting 'monoclinic'
loop_
_space_group_symop_operation_xyz
x,y,z
-x,y,1/2-z
-x,-y,-z
x,-y,1/2+z
1/2+x,1/2+y,z
1/2-x,1/2+y,1/2-z
1/2-x,1/2-y,-z
1/2+x,1/2-y,1/2+z
loop_
_atom_site_type_symbol
_atom_site_label
_atom_site_fract_x
_atom_site_fract_y
_atom_site_fract_z
Si Si1 0.537625 0.158434 0.853744
Si Si2 0.324604 0.840004 0.469394
Si Si3 0.785557 0.350079 0.003285
Si Si4 0.332212 0.489250 0.026424
Si Si5 0.326615 0.285653 0.845481
Si Si6 0.376244 0.000244 0.628478
Si Si7 0.616155 0.150581 0.209390
Si Si8 0.869182 0.739728 0.376999
O O1 0.323685 0.207045 0.821080
O O2 0.664876 0.206823 0.846226
O O3 0.482887 0.075576 0.828861
O O4 0.722148 0.149824 0.943038
O O5 0.451796 0.833329 0.451513
O O6 0.253047 0.921739 0.464573
O O7 0.520589 0.809212 0.554502
O O8 0.089019 0.790976 0.415533
O O9 0.732089 0.431018 0.972009
O O10 0.580888 0.298747 0.932697
O O11 0.619751 0.489096 0.090263
O O12 0.200081 0.484757 0.943673
O O13 0.307922 0.340810 0.797645
O O14 0.114502 0.305293 0.827741
O O15 0.525644 0.931003 0.681340
O O16 0.696912 0.187851 0.181930
#
# Coordination Sequence:
#
# PCOD9263849 Si02
#       8
#     8   8   8   8   8   8   8   8
#     4  11  23  41  66  98 127 163 213 272 319 368
#     4  11  21  34  57  99 127 159 202 265 327 363
#     4  11  22  37  63  92 132 161 213 263 322 381
#     4  10  19  34  61  92 129 160 200 264 326 372
#     4  11  24  41  63  89 121 178 210 256 316 384
#     4  10  20  38  64  91 123 164 207 264 315 378
#     4  11  24  44  63  86 127 172 219 252 315 396
#     4  11  23  35  63  92 127 161 206 265 320 369
#
# _framework density 21.564094999999998
#
# number of rings (size 3 to 8) (size 9 to 14) (size 15 to 20)
#    0.000    1.250    5.000    1.500    3.500    0.500 
#    0.000    3.750    0.000    6.000    0.000    0.000 
#    0.000    0.000    0.000    0.000    0.000    0.000 
#
# Total GULP energy -178879.574449 kJ/mol
# GULP energy per Si atom -5589.986702 kJ/mol
# Density = 2.151501 g / cm^3
# Si number density = 21.564095 Si / 1000 Ang^3
#
#
#
# Elastic Constant Matrix: (Units=GPa)
#
#
# Indices 1 2 3 4 5 6 
#
# 1 104.2725 47.8108 9.5484 -0.0001 -5.5267 0.0000
# 2 47.8108 174.2639 21.7255 0.0000 2.2351 0.0000
# 3 9.5484 21.7255 42.9607 0.0003 -6.7220 0.0001
# 4 -0.0001 0.0000 0.0003 27.0706 0.0000 1.7484
# 5 -5.5267 2.2351 -6.7220 0.0000 21.2779 0.0000
# 6 0.0000 0.0000 0.0001 1.7484 0.0000 38.0316
#
#
#
# Elastic Compliance Matrix: (Units=1/GPa)
#
#
# Indices 1 2 3 4 5 6 
#
# 1 0.011196 -0.003054 -0.000462 0.000000 0.003083 0.000000
# 2 -0.003054 0.007017 -0.003271 0.000000 -0.002564 0.000000
# 3 -0.000462 -0.003271 0.026372 0.000000 0.008555 0.000000
# 4 0.000000 0.000000 0.000000 0.037050 0.000000 -0.001703
# 5 0.003083 -0.002564 0.008555 0.000000 0.050770 0.000000
# 6 0.000000 0.000000 0.000000 -0.001703 0.000000 0.026372
#
#
# Mechanical properties :
#
#
# Convention : Reuss Voigt Hill
#
# Bulk Modulus (GPa) = 32.24488 53.29626 42.77057
# Shear Modulus (GPa) = 27.36902 33.43685 30.40294
#
# Velocity S-wave (km/s) = 3.56644 3.94201 3.75892
# Velocity P-wave (km/s) = 5.65198 6.74450 6.22226
#
# Compressibility (1/GPa) = 0.03101268
#
# Stress axis : x y z
#
# Youngs Moduli (GPa) = 89.31653 142.51309 37.91844
#
# Poissons Ratio (x) = 0.43520 0.01751
# Poissons Ratio (y) = 0.27275 0.12403
# Poissons Ratio (z) = 0.04124 0.46614
#
# Static dielectric constant tensor:
#      x y z
#    x 1.770820 0.000000 -0.014370 
#    y 0.000000 1.801910 0.000000 
#    z -0.014370 0.000000 1.781480 
# 
# From -- ./inp_files/308788.got.cif
#   From: 2010.05.17/outbox.cif.g08.bks.cpg/sg15_155_cif.got.tgz:308788.got - 2010.06.03 18:47:42.
