data_PCOD9263514
_publ_section_title
;
Structure prediction by ZEFSAII (Michael W. Deem and Ramdas Pophale) SiO2 
 PCOD9263514
Probable space group: C 2/C
;
_chemical_formula_sum "Si O2"
_cell_formula_units_Z 48
_cell_length_a 11.716434
_cell_length_b 16.340507
_cell_length_c 14.221668
_cell_angle_alpha 90.000000
_cell_angle_beta 56.967728
_cell_angle_gamma 90.000000
_cell_volume 2282.674365
_symmetry_space_group_name_H-M "C 2/C"
_symmetry_group_IT_number 15
_symmetry_cell_setting 'monoclinic'
loop_
_space_group_symop_operation_xyz
x,y,z
-x,y,1/2-z
-x,-y,-z
x,-y,1/2+z
1/2+x,1/2+y,z
1/2-x,1/2+y,1/2-z
1/2-x,1/2-y,-z
1/2+x,1/2-y,1/2+z
loop_
_atom_site_type_symbol
_atom_site_label
_atom_site_fract_x
_atom_site_fract_y
_atom_site_fract_z
Si Si1 0.821795 0.775519 0.598061
Si Si2 0.421585 0.152143 0.420681
Si Si3 0.785727 0.597173 0.239386
Si Si4 0.626870 0.363431 0.244853
Si Si5 0.853338 0.959477 0.080955
Si Si6 0.261684 0.997894 0.564850
O O1 0.714638 0.822148 0.576630
O O2 0.935283 0.729948 0.485452
O O3 0.835819 0.841562 0.674617
O O4 0.750055 0.697774 0.676718
O O5 0.567601 0.137751 0.308310
O O6 0.378613 0.064040 0.485094
O O7 0.753866 0.517183 0.315299
O O8 0.793660 0.569518 0.128336
O O9 0.500000 0.321934 0.250000
O O10 0.617115 0.387691 0.357774
O O11 0.652920 0.443161 0.167053
O O12 0.791888 0.953493 0.004527
O O13 0.000000 0.000000 0.000000
#
# Coordination Sequence:
#
# PCOD9263514 Si02
#       6
#     8   8   8   8   8   8
#     4  10  21  35  60  88 118 155 201 252 306 355
#     4  10  20  38  58  89 121 155 204 253 306 351
#     4  11  22  36  60  89 122 158 198 250 308 365
#     4  10  19  34  57  86 115 150 203 254 300 353
#     4  11  22  36  58  86 122 158 204 253 305 360
#     4  10  21  36  57  86 119 159 201 248 303 365
#
# _framework density 21.027967
#
# number of rings (size 3 to 8) (size 9 to 14) (size 15 to 20)
#    0.000    1.667    3.333    2.000    0.000    1.333 
#    0.000    0.833    0.000    2.000    0.000    0.000 
#    0.000    0.000    0.000    0.000    0.000    0.000 
#
# Total GULP energy -133707.083441 kJ/mol
# GULP energy per Si atom -5571.128477 kJ/mol
# Density = 2.098011 g / cm^3
# Si number density = 21.027967 Si / 1000 Ang^3
#
#
#
# Elastic Constant Matrix: (Units=GPa)
#
#
# Indices 1 2 3 4 5 6 
#
# 1 50.8331 19.7595 41.9015 0.0000 10.1091 0.0000
# 2 19.7595 72.2461 35.2062 0.0000 17.5077 0.0000
# 3 41.9015 35.2062 113.8696 0.0000 28.4946 0.0000
# 4 0.0000 0.0000 0.0000 59.1825 0.0000 -2.6401
# 5 10.1091 17.5077 28.4946 0.0000 44.7898 0.0000
# 6 0.0000 0.0000 0.0000 -2.6401 0.0000 20.8815
#
#
#
# Elastic Compliance Matrix: (Units=1/GPa)
#
#
# Indices 1 2 3 4 5 6 
#
# 1 0.028893 -0.003355 -0.009861 0.000000 0.001063 0.000000
# 2 -0.003355 0.017238 -0.003091 0.000000 -0.004015 0.000000
# 3 -0.009861 -0.003091 0.014875 0.000000 -0.006030 0.000000
# 4 0.000000 0.000000 0.000000 0.016993 0.000000 0.002148
# 5 0.001063 -0.004015 -0.006030 0.000000 0.027492 0.000000
# 6 0.000000 0.000000 0.000000 0.002148 0.000000 0.048161
#
#
# Mechanical properties :
#
#
# Convention : Reuss Voigt Hill
#
# Bulk Modulus (GPa) = 35.21907 47.85369 41.53638
# Shear Modulus (GPa) = 25.54561 34.30953 29.92757
#
# Velocity S-wave (km/s) = 3.48924 4.04371 3.77666
# Velocity P-wave (km/s) = 5.74613 6.67897 6.23004
#
# Compressibility (1/GPa) = 0.02839371
#
# Stress axis : x y z
#
# Youngs Moduli (GPa) = 34.61044 58.01108 67.22720
#
# Poissons Ratio (x) = 0.19461 0.66292
# Poissons Ratio (y) = 0.11611 0.20777
# Poissons Ratio (z) = 0.34129 0.17929
#
# Static dielectric constant tensor:
#      x y z
#    x 1.847330 0.000000 0.007340 
#    y 0.000000 1.795470 0.000000 
#    z 0.007340 0.000000 1.829000 
# 
# From -- ./inp_files/87797.got.cif
#   From: 2010.05.17/outbox.cif.g08.bks.cpg/sg15_44_cif.got.tgz:87797.got - 2010.06.03 18:47:42.
