data_PCOD9263719
_publ_section_title
;
Structure prediction by ZEFSAII (Michael W. Deem and Ramdas Pophale) SiO2 
 PCOD9263719
Probable space group: C 2/C
;
_chemical_formula_sum "Si O2"
_cell_formula_units_Z 48
_cell_length_a 19.649245
_cell_length_b 12.415265
_cell_length_c 14.083869
_cell_angle_alpha 90.000000
_cell_angle_beta 135.787956
_cell_angle_gamma 90.000000
_cell_volume 2395.815313
_symmetry_space_group_name_H-M "C 2/C"
_symmetry_group_IT_number 15
_symmetry_cell_setting 'monoclinic'
loop_
_space_group_symop_operation_xyz
x,y,z
-x,y,1/2-z
-x,-y,-z
x,-y,1/2+z
1/2+x,1/2+y,z
1/2-x,1/2+y,1/2-z
1/2-x,1/2-y,-z
1/2+x,1/2-y,1/2+z
loop_
_atom_site_type_symbol
_atom_site_label
_atom_site_fract_x
_atom_site_fract_y
_atom_site_fract_z
Si Si1 0.994302 0.978758 0.852997
Si Si2 0.636085 0.895261 0.655133
Si Si3 0.363915 0.604739 0.382962
Si Si4 0.862245 0.309968 0.512668
Si Si5 0.637755 0.690032 0.788179
Si Si6 0.505697 0.978758 0.364392
O O1 0.933202 0.901945 0.860912
O O2 0.000000 0.942101 0.750000
O O3 0.933689 0.090619 0.792636
O O4 0.096021 0.013002 0.004163
O O5 0.750000 0.913173 0.747438
O O6 0.626529 0.780068 0.696516
O O7 0.566798 0.901945 0.494508
O O8 0.596021 0.986998 0.687879
O O9 0.373471 0.719932 0.443457
O O10 0.750000 0.348072 0.400185
O O11 0.879303 0.250000 0.629303
O O12 0.933689 0.409380 0.574742
O O13 0.500000 0.942101 0.250000
#
# Coordination Sequence:
#
# PCOD9263719 Si02
#       6
#     8   8   8   8   8   8
#     4  11  21  35  59  86 116 158 199 249 290 350
#     4  10  22  35  53  88 122 154 196 244 298 349
#     4  10  22  35  53  88 122 154 196 244 298 349
#     4  10  19  34  59  88 118 152 193 244 292 348
#     4  10  19  34  59  88 118 152 193 244 292 348
#     4  11  21  35  59  86 116 158 199 249 290 350
#
# _framework density 20.034932999999999
#
# number of rings (size 3 to 8) (size 9 to 14) (size 15 to 20)
#    0.000    1.667    3.333    2.000    0.000    1.333 
#    0.000    0.000    0.000   16.000    0.000   32.667 
#    0.000    0.000    0.000    0.000    0.000    0.000 
#
# Total GULP energy -134199.379536 kJ/mol
# GULP energy per Si atom -5591.640814 kJ/mol
# Density = 1.998933 g / cm^3
# Si number density = 20.034933 Si / 1000 Ang^3
#
#
#
# Elastic Constant Matrix: (Units=GPa)
#
#
# Indices 1 2 3 4 5 6 
#
# 1 83.0955 16.1332 41.5287 0.0000 -14.5863 0.0000
# 2 16.1332 31.4403 15.7546 0.0000 -1.9417 0.0000
# 3 41.5287 15.7546 78.4869 0.0000 -9.0470 0.0000
# 4 0.0000 0.0000 0.0000 19.9253 0.0000 1.0472
# 5 -14.5863 -1.9417 -9.0470 0.0000 47.7694 0.0000
# 6 0.0000 0.0000 0.0000 1.0472 0.0000 19.7211
#
#
#
# Elastic Compliance Matrix: (Units=1/GPa)
#
#
# Indices 1 2 3 4 5 6 
#
# 1 0.017565 -0.004827 -0.007902 0.000000 0.003671 0.000000
# 2 -0.004827 0.036690 -0.004916 0.000000 -0.000914 0.000000
# 3 -0.007902 -0.004916 0.018001 0.000000 0.000796 0.000000
# 4 0.000000 0.000000 0.000000 0.050328 0.000000 -0.002672
# 5 0.003671 -0.000914 0.000796 0.000000 0.022168 0.000000
# 6 0.000000 0.000000 0.000000 -0.002672 0.000000 0.050849
#
#
# Mechanical properties :
#
#
# Convention : Reuss Voigt Hill
#
# Bulk Modulus (GPa) = 27.05189 37.76172 32.40680
# Shear Modulus (GPa) = 20.55811 25.45690 23.00751
#
# Velocity S-wave (km/s) = 3.20678 3.56845 3.39244
# Velocity P-wave (km/s) = 5.21947 5.98893 5.61739
#
# Compressibility (1/GPa) = 0.03696600
#
# Stress axis : x y z
#
# Youngs Moduli (GPa) = 56.93143 27.25521 55.55364
#
# Poissons Ratio (x) = 0.13156 0.43898
# Poissons Ratio (y) = 0.27480 0.27311
# Poissons Ratio (z) = 0.44987 0.13399
#
# Static dielectric constant tensor:
#      x y z
#    x 1.735190 0.000000 0.004210 
#    y 0.000000 1.689600 0.000000 
#    z 0.004210 0.000000 1.736010 
# 
# From -- ./inp_files/167842.got.cif
#   From: 2010.05.17/outbox.cif.g08.bks.cpg/sg15_84_cif.got.tgz:167842.got - 2010.06.03 18:47:42.
