data_PCOD9263053
_publ_section_title
;
Structure prediction by ZEFSAII (Michael W. Deem and Ramdas Pophale) SiO2 
 PCOD9263053
Probable space group: C 2/C
;
_chemical_formula_sum "Si O2"
_cell_formula_units_Z 40
_cell_length_a 18.379895
_cell_length_b 19.618604
_cell_length_c 9.234896
_cell_angle_alpha 90.000000
_cell_angle_beta 138.675306
_cell_angle_gamma 90.000000
_cell_volume 2198.878009
_symmetry_space_group_name_H-M "C 2/C"
_symmetry_group_IT_number 15
_symmetry_cell_setting 'monoclinic'
loop_
_space_group_symop_operation_xyz
x,y,z
-x,y,1/2-z
-x,-y,-z
x,-y,1/2+z
1/2+x,1/2+y,z
1/2-x,1/2+y,1/2-z
1/2-x,1/2-y,-z
1/2+x,1/2-y,1/2+z
loop_
_atom_site_type_symbol
_atom_site_label
_atom_site_fract_x
_atom_site_fract_y
_atom_site_fract_z
Si Si1 0.761709 0.163304 0.910325
Si Si2 0.937938 0.240268 0.309363
Si Si3 0.837657 0.742440 0.258409
Si Si4 0.885543 0.584812 0.397449
Si Si5 0.358808 0.043069 0.679852
O O1 0.652099 0.201463 0.802367
O O2 0.795893 0.205611 0.820032
O O3 0.726394 0.085668 0.849966
O O4 0.862818 0.174011 0.172451
O O5 0.000000 0.254017 0.250000
O O6 0.033404 0.237564 0.571362
O O7 0.848826 0.662783 0.320456
O O8 0.750000 0.750000 0.000000
O O9 0.839686 0.557399 0.481989
O O10 0.852687 0.535439 0.216460
O O11 0.018013 0.572733 0.605372
#
# Coordination Sequence:
#
# PCOD9263053 Si02
#       5
#     8   8   8   8   8
#     4  10  19  33  61  79 108 157 191 237 290 350
#     4   9  17  33  54  81 108 141 196 231 284 342
#     4  11  23  35  55  88 122 147 196 249 291 341
#     4  10  21  36  56  86 120 150 187 246 290 358
#     4  10  20  36  60  83 117 152 193 234 304 350
#
# _framework density 18.191096000000002
#
# number of rings (size 3 to 8) (size 9 to 14) (size 15 to 20)
#    0.000    2.000    2.000    3.600    5.600    0.800 
#    0.000    0.000    0.000    1.200   10.400    0.000 
#    0.000    0.000    0.000    0.000    0.000    0.000 
#
# Total GULP energy -111355.836070 kJ/mol
# GULP energy per Si atom -5567.791803 kJ/mol
# Density = 1.814969 g / cm^3
# Si number density = 18.191096 Si / 1000 Ang^3
#
#
#
# Elastic Constant Matrix: (Units=GPa)
#
#
# Indices 1 2 3 4 5 6 
#
# 1 49.7415 25.1308 27.7423 0.0000 10.3717 0.0000
# 2 25.1308 78.6798 16.3243 0.0000 -4.3802 0.0000
# 3 27.7423 16.3243 114.1658 0.0000 9.5225 0.0000
# 4 0.0000 0.0000 0.0000 28.3194 0.0000 2.1754
# 5 10.3717 -4.3802 9.5225 0.0000 22.6008 0.0000
# 6 0.0000 0.0000 0.0000 2.1754 0.0000 23.5970
#
#
#
# Elastic Compliance Matrix: (Units=1/GPa)
#
#
# Indices 1 2 3 4 5 6 
#
# 1 0.030509 -0.009493 -0.004907 0.000000 -0.013773 0.000000
# 2 -0.009493 0.016317 -0.000677 0.000000 0.007804 0.000000
# 3 -0.004907 -0.000677 0.010231 0.000000 -0.002190 0.000000
# 4 0.000000 0.000000 0.000000 0.035563 0.000000 -0.003279
# 5 -0.013773 0.007804 -0.002190 0.000000 0.053002 0.000000
# 6 0.000000 0.000000 0.000000 -0.003279 0.000000 0.042681
#
#
# Mechanical properties :
#
#
# Convention : Reuss Voigt Hill
#
# Bulk Modulus (GPa) = 37.17303 42.33131 39.75217
# Shear Modulus (GPa) = 21.98514 26.46275 24.22395
#
# Velocity S-wave (km/s) = 3.48021 3.81820 3.65312
# Velocity P-wave (km/s) = 6.05213 6.53904 6.30029
#
# Compressibility (1/GPa) = 0.02690123
#
# Stress axis : x y z
#
# Youngs Moduli (GPa) = 32.77707 61.28595 97.74033
#
# Poissons Ratio (x) = 0.58181 0.47966
# Poissons Ratio (y) = 0.31116 0.06619
# Poissons Ratio (z) = 0.16085 0.04150
#
# Static dielectric constant tensor:
#      x y z
#    x 1.652790 0.000000 -0.012360 
#    y 0.000000 1.646850 0.000000 
#    z -0.012360 0.000000 1.686490 
# 
# From -- ./inp_files/30519.got.cif
#   From: 2010.05.17/outbox.cif.g08.bks.cpg/sg15_16_cif.got.tgz:30519.got - 2010.06.03 18:47:42.
