data_PCOD9263857
_publ_section_title
;
Structure prediction by ZEFSAII (Michael W. Deem and Ramdas Pophale) SiO2 
 PCOD9263857
Probable space group: C 2/C
;
_chemical_formula_sum "Si O2"
_cell_formula_units_Z 52
_cell_length_a 8.342741
_cell_length_b 11.992940
_cell_length_c 29.362222
_cell_angle_alpha 90.000000
_cell_angle_beta 122.604077
_cell_angle_gamma 90.000000
_cell_volume 2474.850364
_symmetry_space_group_name_H-M "C 2/C"
_symmetry_group_IT_number 15
_symmetry_cell_setting 'monoclinic'
loop_
_space_group_symop_operation_xyz
x,y,z
-x,y,1/2-z
-x,-y,-z
x,-y,1/2+z
1/2+x,1/2+y,z
1/2-x,1/2+y,1/2-z
1/2-x,1/2-y,-z
1/2+x,1/2-y,1/2+z
loop_
_atom_site_type_symbol
_atom_site_label
_atom_site_fract_x
_atom_site_fract_y
_atom_site_fract_z
Si Si1 0.500000 0.176486 0.250000
Si Si2 0.459775 0.230665 0.948815
Si Si3 0.095386 0.277394 0.167294
Si Si4 0.848671 0.366738 0.560387
Si Si5 0.230189 0.941960 0.976104
Si Si6 0.540026 0.979733 0.669340
Si Si7 0.726412 0.401860 0.874870
O O1 0.311186 0.247525 0.211824
O O2 0.456720 0.099312 0.286949
O O3 0.423670 0.208041 0.890180
O O4 0.271292 0.257943 0.947653
O O5 0.579009 0.347222 0.968578
O O6 0.574113 0.126651 0.986113
O O7 0.027978 0.391654 0.179812
O O8 0.950461 0.179230 0.158279
O O9 0.749471 0.449259 0.509685
O O10 0.868315 0.438202 0.610521
O O11 0.070515 0.339674 0.584782
O O12 0.195789 0.967145 0.917544
O O13 0.722699 0.967088 0.663465
#
# Coordination Sequence:
#
# PCOD9263857 Si02
#       7
#     4   8   8   8   8   8   8
#     4  12  26  44  68  88 114 164 214 258 318 364
#     4  10  19  35  62  92 127 169 201 242 305 366
#     4  11  22  44  66  88 126 159 203 265 309 360
#     4  10  19  38  58  90 128 159 203 245 292 372
#     4  10  19  34  61  94 128 169 197 242 305 364
#     4  10  24  43  63  91 121 156 208 258 309 363
#     4   9  22  39  62  94 129 157 203 252 299 377
#
# _framework density 21.011372000000001
#
# number of rings (size 3 to 8) (size 9 to 14) (size 15 to 20)
#    0.923    0.923    3.077    0.923    0.000    3.692 
#    0.000    4.615    0.000    0.000    0.000    0.000 
#    0.000    0.000    0.000    0.000    0.000    0.000 
#
# Total GULP energy -145135.165236 kJ/mol
# GULP energy per Si atom -5582.121740 kJ/mol
# Density = 2.096355 g / cm^3
# Si number density = 21.011372 Si / 1000 Ang^3
#
#
#
# Elastic Constant Matrix: (Units=GPa)
#
#
# Indices 1 2 3 4 5 6 
#
# 1 33.1489 4.6833 5.7682 0.0000 3.3412 0.0000
# 2 4.6833 69.0777 28.8342 0.0000 8.2504 0.0000
# 3 5.7682 28.8342 75.7935 0.0000 -0.2670 0.0000
# 4 0.0000 0.0000 0.0000 -2.6105 0.0000 -21.6778
# 5 3.3412 8.2504 -0.2670 0.0000 29.9212 0.0000
# 6 0.0000 0.0000 0.0000 -21.6778 0.0000 10.3433
#
#
#
# Elastic Compliance Matrix: (Units=1/GPa)
#
#
# Indices 1 2 3 4 5 6 
#
# 1 0.030970 -0.000861 -0.002041 0.000000 -0.003239 0.000000
# 2 -0.000861 0.017952 -0.006781 0.000000 -0.004915 0.000000
# 3 -0.002041 -0.006781 0.015937 0.000000 0.002240 0.000000
# 4 0.000000 0.000000 0.000000 -0.020815 0.000000 -0.043624
# 5 -0.003239 -0.004915 0.002240 0.000000 0.035158 0.000000
# 6 0.000000 0.000000 0.000000 -0.043624 0.000000 0.005253
#
#
# Mechanical properties :
#
#
# Convention : Reuss Voigt Hill
#
# Bulk Modulus (GPa) = 21.98143 28.51018 25.24580
# Shear Modulus (GPa) = 42.02140 16.77977 29.40059
#
# Velocity S-wave (km/s) = 4.47692 2.82902 3.74474
# Velocity P-wave (km/s) = 6.09984 4.92641 5.54426
#
# Compressibility (1/GPa) = 0.04549295
#
# Stress axis : x y z
#
# Youngs Moduli (GPa) = 32.28913 55.70257 62.74774
#
# Poissons Ratio (x) = 0.04796 0.12806
# Poissons Ratio (y) = 0.02780 0.42552
# Poissons Ratio (z) = 0.06590 0.37775
#
# Static dielectric constant tensor:
#      x y z
#    x 1.801200 0.000000 -0.009670 
#    y 0.000000 1.719580 0.000000 
#    z -0.009670 0.000000 1.779930 
# 
# From -- ./inp_files/307300.got.cif
#   From: 2010.05.17/outbox.cif.g08.bks.cpg/sg15_154_cif.got.tgz:307300.got - 2010.06.03 18:47:42.
