data_PCOD9263697
_publ_section_title
;
Structure prediction by ZEFSAII (Michael W. Deem and Ramdas Pophale) SiO2 
 PCOD9263697
Probable space group: C 2/C
;
_chemical_formula_sum "Si O2"
_cell_formula_units_Z 64
_cell_length_a 20.577377
_cell_length_b 8.267612
_cell_length_c 25.698982
_cell_angle_alpha 90.000000
_cell_angle_beta 50.626378
_cell_angle_gamma 90.000000
_cell_volume 3379.714074
_symmetry_space_group_name_H-M "C 2/C"
_symmetry_group_IT_number 15
_symmetry_cell_setting 'monoclinic'
loop_
_space_group_symop_operation_xyz
x,y,z
-x,y,1/2-z
-x,-y,-z
x,-y,1/2+z
1/2+x,1/2+y,z
1/2-x,1/2+y,1/2-z
1/2-x,1/2-y,-z
1/2+x,1/2-y,1/2+z
loop_
_atom_site_type_symbol
_atom_site_label
_atom_site_fract_x
_atom_site_fract_y
_atom_site_fract_z
Si Si1 0.743691 0.446395 0.874742
Si Si2 0.651913 0.118891 0.935499
Si Si3 0.763361 0.722700 0.781415
Si Si4 0.327843 0.437098 0.838933
Si Si5 0.692866 0.162812 0.570508
Si Si6 0.434939 0.086842 0.410168
Si Si7 0.375581 0.019127 0.160604
Si Si8 0.911013 0.261973 0.815096
O O1 0.677724 0.301299 0.906922
O O2 0.733496 0.579934 0.835420
O O3 0.747511 0.540778 0.927441
O O4 0.836270 0.364937 0.826925
O O5 0.740082 0.024015 0.900245
O O6 0.612804 0.023157 0.906500
O O7 0.597244 0.125380 0.015463
O O8 0.813421 0.855324 0.790306
O O9 0.683683 0.823327 0.801264
O O10 0.823629 0.632586 0.710319
O O11 0.343581 0.291734 0.870369
O O12 0.395786 0.577531 0.806577
O O13 0.750000 0.250000 0.500000
O O14 0.617658 0.068089 0.581782
O O15 0.533894 0.050835 0.360736
O O16 0.410988 0.217414 0.377731
O O17 0.000000 0.323359 0.750000
#
# Coordination Sequence:
#
# PCOD9263697 Si02
#       8
#     8   8   8   8   8   8   8   8
#     4   9  20  36  60  82 109 153 194 235 292 347
#     4  10  20  38  58  85 116 156 196 239 284 348
#     4  10  21  40  61  81 110 154 198 240 279 347
#     4   9  20  36  61  88 113 152 195 234 292 350
#     4  10  19  34  59  86 118 148 184 234 295 351
#     4  11  23  36  59  87 122 151 190 243 293 348
#     4  11  23  39  61  83 115 158 198 236 288 339
#     4  10  21  36  57  87 118 148 190 244 293 345
#
# _framework density 18.936513000000001
#
# number of rings (size 3 to 8) (size 9 to 14) (size 15 to 20)
#    0.000    2.000    1.250    1.875    1.750    4.500 
#    0.000    3.125    0.000    0.000    0.000    0.000 
#    0.000    0.000    0.000    0.000    0.000    0.000 
#
# Total GULP energy -178585.318811 kJ/mol
# GULP energy per Si atom -5580.791213 kJ/mol
# Density = 1.889341 g / cm^3
# Si number density = 18.936513 Si / 1000 Ang^3
#
#
#
# Elastic Constant Matrix: (Units=GPa)
#
#
# Indices 1 2 3 4 5 6 
#
# 1 75.9321 32.1679 22.9900 0.0001 -1.6613 0.0009
# 2 32.1679 90.7949 13.8426 0.0002 -0.8544 0.0007
# 3 22.9900 13.8426 67.2206 0.0001 5.1573 -0.0001
# 4 0.0001 0.0002 0.0001 22.5214 -0.0001 0.1829
# 5 -1.6613 -0.8544 5.1573 -0.0001 17.0972 0.0000
# 6 0.0009 0.0007 -0.0001 0.1829 0.0000 18.2409
#
#
#
# Elastic Compliance Matrix: (Units=1/GPa)
#
#
# Indices 1 2 3 4 5 6 
#
# 1 0.016940 -0.005222 -0.004939 0.000000 0.002875 -0.000001
# 2 -0.005222 0.013009 -0.000925 0.000000 0.000422 0.000000
# 3 -0.004939 -0.000925 0.017194 0.000000 -0.005713 0.000000
# 4 0.000000 0.000000 0.000000 0.044406 0.000000 -0.000445
# 5 0.002875 0.000422 -0.005713 0.000000 0.060513 0.000000
# 6 -0.000001 0.000000 0.000000 -0.000445 0.000000 0.054826
#
#
# Mechanical properties :
#
#
# Convention : Reuss Voigt Hill
#
# Bulk Modulus (GPa) = 40.04588 41.32760 40.68674
# Shear Modulus (GPa) = 21.06289 22.56836 21.81563
#
# Velocity S-wave (km/s) = 3.33872 3.45598 3.39785
# Velocity P-wave (km/s) = 6.00467 6.14790 6.07671
#
# Compressibility (1/GPa) = 0.02497136
#
# Stress axis : x y z
#
# Youngs Moduli (GPa) = 59.03182 76.87059 58.15847
#
# Poissons Ratio (x) = 0.40139 0.28724
# Poissons Ratio (y) = 0.30824 0.05382
# Poissons Ratio (z) = 0.29155 0.07114
#
# Static dielectric constant tensor:
#      x y z
#    x 1.649490 0.000000 0.030050 
#    y 0.000000 1.655430 0.000000 
#    z 0.030050 0.000000 1.662760 
# 
# From -- ./inp_files/279558.got.cif
#   From: 2010.05.17/outbox.cif.g08.bks.cpg/sg15_140_cif.got.tgz:279558.got - 2010.06.03 18:47:42.
