data_PCOD9263194
_publ_section_title
;
Structure prediction by ZEFSAII (Michael W. Deem and Ramdas Pophale) SiO2 
 PCOD9263194
Probable space group: C 2/C
;
_chemical_formula_sum "Si O2"
_cell_formula_units_Z 40
_cell_length_a 10.355513
_cell_length_b 20.393015
_cell_length_c 9.513908
_cell_angle_alpha 90.000000
_cell_angle_beta 85.220961
_cell_angle_gamma 90.000000
_cell_volume 2002.163352
_symmetry_space_group_name_H-M "C 2/C"
_symmetry_group_IT_number 15
_symmetry_cell_setting 'monoclinic'
loop_
_space_group_symop_operation_xyz
x,y,z
-x,y,1/2-z
-x,-y,-z
x,-y,1/2+z
1/2+x,1/2+y,z
1/2-x,1/2+y,1/2-z
1/2-x,1/2-y,-z
1/2+x,1/2-y,1/2+z
loop_
_atom_site_type_symbol
_atom_site_label
_atom_site_fract_x
_atom_site_fract_y
_atom_site_fract_z
Si Si1 0.874280 0.737545 0.362428
Si Si2 0.421933 0.093050 0.401270
Si Si3 0.612354 0.047794 0.626294
Si Si4 0.459910 0.717065 0.408592
Si Si5 0.261209 0.823509 0.358574
O O1 0.847678 0.662385 0.411608
O O2 0.780157 0.779690 0.271626
O O3 0.000000 0.733441 0.250000
O O4 0.919416 0.775644 0.497685
O O5 0.500000 0.095330 0.250000
O O6 0.535791 0.080341 0.503522
O O7 0.339536 0.025492 0.413596
O O8 0.500000 0.040091 0.750000
O O9 0.714318 0.100501 0.672900
O O10 0.500000 0.692353 0.250000
O O11 0.394783 0.788802 0.393773
O O12 0.344999 0.681344 0.506500
#
# Coordination Sequence:
#
# PCOD9263194 Si02
#       5
#     8   8   8   8   8
#     4   9  18  33  51  80 114 140 176 222 271 325
#     4   9  18  32  53  77 118 135 167 229 277 319
#     4  10  19  34  53  81 114 142 173 222 278 333
#     4  10  20  34  50  78 114 142 182 227 264 321
#     4  10  20  33  54  78 112 151 176 220 282 323
#
# _framework density 19.978390000000001
#
# number of rings (size 3 to 8) (size 9 to 14) (size 15 to 20)
#    0.000    2.400    2.000    0.600    2.800    0.800 
#    0.000    0.000    0.000    0.000    0.000   11.200 
#    0.000    0.000    0.000    0.000    0.000    0.000 
#
# Total GULP energy -111396.367711 kJ/mol
# GULP energy per Si atom -5569.818386 kJ/mol
# Density = 1.993292 g / cm^3
# Si number density = 19.978390 Si / 1000 Ang^3
#
#
#
# Elastic Constant Matrix: (Units=GPa)
#
#
# Indices 1 2 3 4 5 6 
#
# 1 36.3933 36.1644 24.2866 0.0000 -4.3478 0.0000
# 2 36.1644 108.2259 8.3531 0.0000 8.8510 0.0000
# 3 24.2866 8.3531 122.7370 0.0000 1.9362 0.0000
# 4 0.0000 0.0000 0.0000 12.2514 0.0000 10.3444
# 5 -4.3478 8.8510 1.9362 0.0000 34.7297 0.0000
# 6 0.0000 0.0000 0.0000 10.3444 0.0000 22.8717
#
#
#
# Elastic Compliance Matrix: (Units=1/GPa)
#
#
# Indices 1 2 3 4 5 6 
#
# 1 0.053028 -0.017950 -0.009456 0.000000 0.011740 0.000000
# 2 -0.017950 0.015558 0.002593 0.000000 -0.006357 0.000000
# 3 -0.009456 0.002593 0.009880 0.000000 -0.002396 0.000000
# 4 0.000000 0.000000 0.000000 0.132051 0.000000 -0.059724
# 5 0.011740 -0.006357 -0.002396 0.000000 0.032017 0.000000
# 6 0.000000 0.000000 0.000000 -0.059724 0.000000 0.070734
#
#
# Mechanical properties :
#
#
# Convention : Reuss Voigt Hill
#
# Bulk Modulus (GPa) = 34.67479 44.99605 39.83542
# Shear Modulus (GPa) = 13.42258 27.20737 20.31498
#
# Velocity S-wave (km/s) = 2.59483 3.69432 3.19226
# Velocity P-wave (km/s) = 5.13530 6.38502 5.79396
#
# Compressibility (1/GPa) = 0.02883940
#
# Stress axis : x y z
#
# Youngs Moduli (GPa) = 18.85806 64.27677 101.21469
#
# Poissons Ratio (x) = 1.15376 0.95713
# Poissons Ratio (y) = 0.33850 -0.26248
# Poissons Ratio (z) = 0.17833 -0.16669
#
# Static dielectric constant tensor:
#      x y z
#    x 1.735270 0.000000 -0.015280 
#    y 0.000000 1.764750 0.000000 
#    z -0.015280 0.000000 1.757460 
# 
# From -- ./inp_files/30374.got.cif
#   From: 2010.05.17/outbox.cif.g08.bks.cpg/sg15_16_cif.got.tgz:30374.got - 2010.06.03 18:47:42.
