data_PCOD9263975
_publ_section_title
;
Structure prediction by ZEFSAII (Michael W. Deem and Ramdas Pophale) SiO2 
 PCOD9263975
Probable space group: C 2/C
;
_chemical_formula_sum "Si O2"
_cell_formula_units_Z 56
_cell_length_a 26.438258
_cell_length_b 7.386316
_cell_length_c 11.598282
_cell_angle_alpha 90.000000
_cell_angle_beta 116.008180
_cell_angle_gamma 90.000000
_cell_volume 2035.561951
_symmetry_space_group_name_H-M "C 2/C"
_symmetry_group_IT_number 15
_symmetry_cell_setting 'monoclinic'
loop_
_space_group_symop_operation_xyz
x,y,z
-x,y,1/2-z
-x,-y,-z
x,-y,1/2+z
1/2+x,1/2+y,z
1/2-x,1/2+y,1/2-z
1/2-x,1/2-y,-z
1/2+x,1/2-y,1/2+z
loop_
_atom_site_type_symbol
_atom_site_label
_atom_site_fract_x
_atom_site_fract_y
_atom_site_fract_z
Si Si1 0.705478 0.417075 0.457161
Si Si2 0.000000 0.291546 0.250000
Si Si3 0.343890 0.777813 0.390028
Si Si4 0.119927 0.730352 0.237890
Si Si5 0.000000 0.217228 0.750000
Si Si6 0.027810 0.289664 0.033859
Si Si7 0.192942 0.634912 0.872171
Si Si8 0.114003 0.358813 0.471343
O O1 0.750000 0.250000 0.500000
O O2 0.668484 0.380590 0.534047
O O3 0.663599 0.390516 0.308657
O O4 0.749395 0.576364 0.512549
O O5 0.012025 0.198183 0.140643
O O6 0.055380 0.398988 0.345622
O O7 0.404969 0.787397 0.392746
O O8 0.298021 0.779249 0.244039
O O9 0.347882 0.966053 0.464396
O O10 0.155587 0.546852 0.299821
O O11 0.066205 0.745844 0.268494
O O12 0.102955 0.727614 0.085574
O O13 0.982142 0.194415 0.597318
O O14 0.000000 0.500000 0.000000
O O15 0.151103 0.745008 0.914803
#
# Coordination Sequence:
#
# PCOD9263975 Si02
#       8
#     8   4   8   8   4   8   8   8
#     4  10  19  35  51  69 101 145 184 226 253 302
#     4  12  21  26  42  76 108 146 173 195 250 342
#     4  11  19  30  48  71 100 143 179 216 259 302
#     4  10  20  29  47  71 105 142 176 212 253 314
#     4  12  19  28  42  74 108 146 171 203 250 344
#     4  12  20  25  42  70 110 142 175 194 249 336
#     4  10  20  33  49  70  98 146 187 221 256 304
#     4  11  19  29  44  72 103 143 179 205 251 320
#
# _framework density 27.510833000000002
#
# number of rings (size 3 to 8) (size 9 to 14) (size 15 to 20)
#    0.000    1.143    8.571    1.286    0.000    0.000 
#    0.000    0.000    0.000    9.429    0.000    0.000 
#    0.000    4.571    4.857    0.143    0.000    1.714 
#
# Total GULP energy -156016.860743 kJ/mol
# GULP energy per Si atom -5572.030741 kJ/mol
# Density = 2.744822 g / cm^3
# Si number density = 27.510833 Si / 1000 Ang^3
#
#
#
# Elastic Constant Matrix: (Units=GPa)
#
#
# Indices 1 2 3 4 5 6 
#
# 1 141.9605 30.1027 76.2896 0.0000 3.9894 0.0000
# 2 30.1027 105.1387 39.0897 0.0000 3.4776 0.0000
# 3 76.2896 39.0897 270.5526 0.0000 -22.1198 0.0000
# 4 0.0000 0.0000 0.0000 5.8127 0.0000 0.4901
# 5 3.9894 3.4776 -22.1198 0.0000 66.2865 0.0000
# 6 0.0000 0.0000 0.0000 0.4901 0.0000 9.8827
#
#
#
# Elastic Compliance Matrix: (Units=1/GPa)
#
#
# Indices 1 2 3 4 5 6 
#
# 1 0.008655 -0.001579 -0.002311 0.000000 -0.001209 0.000000
# 2 -0.001579 0.010409 -0.001126 0.000000 -0.000827 0.000000
# 3 -0.002311 -0.001126 0.004654 0.000000 0.001751 0.000000
# 4 0.000000 0.000000 0.000000 0.172758 0.000000 -0.008567
# 5 -0.001209 -0.000827 0.001751 0.000000 0.015787 0.000000
# 6 0.000000 0.000000 0.000000 -0.008567 0.000000 0.101611
#
#
# Mechanical properties :
#
#
# Convention : Reuss Voigt Hill
#
# Bulk Modulus (GPa) = 73.07080 89.84620 81.45850
# Shear Modulus (GPa) = 15.22214 41.20771 28.21493
#
# Velocity S-wave (km/s) = 2.35482 3.87443 3.20596
# Velocity P-wave (km/s) = 5.83198 7.26253 6.58621
#
# Compressibility (1/GPa) = 0.01368536
#
# Stress axis : x y z
#
# Youngs Moduli (GPa) = 115.53933 96.06699 214.87867
#
# Poissons Ratio (x) = 0.15166 0.49665
# Poissons Ratio (y) = 0.18241 0.24204
# Poissons Ratio (z) = 0.26705 0.10821
#
# Static dielectric constant tensor:
#      x y z
#    x 2.210660 0.000000 -0.077530 
#    y 0.000000 2.523330 0.000000 
#    z -0.077530 0.000000 2.241540 
# 
# From -- ./inp_files/122495.got.cif
#   From: 2010.05.17/outbox.cif.g08.bks.cpg/sg15_62_cif.got.tgz:122495.got - 2010.06.03 18:47:42.
