data_PCOD9263782
_publ_section_title
;
Structure prediction by ZEFSAII (Michael W. Deem and Ramdas Pophale) SiO2 
 PCOD9263782
Probable space group: C 2/C
;
_chemical_formula_sum "Si O2"
_cell_formula_units_Z 56
_cell_length_a 7.130719
_cell_length_b 21.635786
_cell_length_c 18.624247
_cell_angle_alpha 90.000000
_cell_angle_beta 124.913532
_cell_angle_gamma 90.000000
_cell_volume 2356.174398
_symmetry_space_group_name_H-M "C 2/C"
_symmetry_group_IT_number 15
_symmetry_cell_setting 'monoclinic'
loop_
_space_group_symop_operation_xyz
x,y,z
-x,y,1/2-z
-x,-y,-z
x,-y,1/2+z
1/2+x,1/2+y,z
1/2-x,1/2+y,1/2-z
1/2-x,1/2-y,-z
1/2+x,1/2-y,1/2+z
loop_
_atom_site_type_symbol
_atom_site_label
_atom_site_fract_x
_atom_site_fract_y
_atom_site_fract_z
Si Si1 0.632538 0.816937 0.972990
Si Si2 0.679585 0.442140 0.956061
Si Si3 0.767342 0.746558 0.659502
Si Si4 0.198776 0.126109 0.734272
Si Si5 0.188281 0.985278 0.726412
Si Si6 0.411322 0.834095 0.075265
Si Si7 0.926395 0.553929 0.082823
O O1 0.403659 0.802704 0.877375
O O2 0.709936 0.881524 0.956013
O O3 0.750000 0.750000 0.000000
O O4 0.576359 0.827757 0.043874
O O5 0.434928 0.448909 0.864739
O O6 0.874626 0.442560 0.935664
O O7 0.713530 0.379267 0.006651
O O8 0.758025 0.498618 0.023722
O O9 0.670402 0.683580 0.674118
O O10 0.000000 0.762367 0.750000
O O11 0.821135 0.728943 0.589437
O O12 0.437408 0.136265 0.828023
O O13 0.000000 0.129706 0.750000
O O14 0.202503 0.056944 0.705288
O O15 0.425027 0.961187 0.813223
O O16 0.000000 0.984844 0.750000
#
# Coordination Sequence:
#
# PCOD9263782 Si02
#       7
#     8   8   8   8   8   8   8
#     4  11  23  36  60  86 121 161 207 251 298 361
#     4   9  17  30  55  86 112 153 196 248 305 352
#     4  10  23  39  57  86 116 165 202 242 303 372
#     4  10  19  34  60  87 115 146 202 255 299 361
#     4   9  17  29  55  87 117 149 195 258 311 357
#     4  10  20  38  58  83 120 156 201 253 299 366
#     4   9  18  32  52  87 120 146 197 250 301 357
#
# _framework density 23.767340000000001
#
# number of rings (size 3 to 8) (size 9 to 14) (size 15 to 20)
#    0.000    2.286    1.429    1.286    8.000    2.857 
#    0.000    0.714    0.000    0.000    0.000    0.000 
#    0.000    0.000    0.000    0.000    0.000    0.000 
#
# Total GULP energy -156551.048470 kJ/mol
# GULP energy per Si atom -5591.108874 kJ/mol
# Density = 2.371324 g / cm^3
# Si number density = 23.767340 Si / 1000 Ang^3
#
#
#
# Elastic Constant Matrix: (Units=GPa)
#
#
# Indices 1 2 3 4 5 6 
#
# 1 56.0351 -2.7076 11.7893 0.0000 4.9561 0.0000
# 2 -2.7076 63.0167 28.4122 0.0000 -2.9854 0.0000
# 3 11.7893 28.4122 124.9570 0.0000 -0.3989 0.0000
# 4 0.0000 0.0000 0.0000 41.0989 0.0000 2.7329
# 5 4.9561 -2.9854 -0.3989 0.0000 30.9134 0.0000
# 6 0.0000 0.0000 0.0000 2.7329 0.0000 7.6092
#
#
#
# Elastic Compliance Matrix: (Units=1/GPa)
#
#
# Indices 1 2 3 4 5 6 
#
# 1 0.018627 0.001628 -0.002137 0.000000 -0.002857 0.000000
# 2 0.001628 0.017909 -0.004221 0.000000 0.001414 0.000000
# 3 -0.002137 -0.004221 0.009164 0.000000 0.000053 0.000000
# 4 0.000000 0.000000 0.000000 0.024927 0.000000 -0.008953
# 5 -0.002857 0.001414 0.000053 0.000000 0.032944 0.000000
# 6 0.000000 0.000000 0.000000 -0.008953 0.000000 0.134636
#
#
# Mechanical properties :
#
#
# Convention : Reuss Voigt Hill
#
# Bulk Modulus (GPa) = 27.59304 35.44407 31.51855
# Shear Modulus (GPa) = 19.24956 29.69195 24.47076
#
# Velocity S-wave (km/s) = 2.84899 3.53834 3.21221
# Velocity P-wave (km/s) = 4.73890 5.62481 5.20075
#
# Compressibility (1/GPa) = 0.03624103
#
# Stress axis : x y z
#
# Youngs Moduli (GPa) = 53.68597 55.83793 109.11889
#
# Poissons Ratio (x) = -0.09093 0.23316
# Poissons Ratio (y) = -0.08742 0.46061
# Poissons Ratio (z) = 0.11471 0.23570
#
# Static dielectric constant tensor:
#      x y z
#    x 2.019260 0.000000 0.022560 
#    y 0.000000 1.859580 0.000000 
#    z 0.022560 0.000000 1.875810 
# 
# From -- ./inp_files/233931.got.cif
#   From: 2010.05.17/outbox.cif.g08.bks.cpg/sg15_117_cif.got.tgz:233931.got - 2010.06.03 18:47:42.
