data_PCOD9263265
_publ_section_title
;
Structure prediction by ZEFSAII (Michael W. Deem and Ramdas Pophale) SiO2 
 PCOD9263265
Probable space group: C 2/C
;
_chemical_formula_sum "Si O2"
_cell_formula_units_Z 52
_cell_length_a 8.928988
_cell_length_b 16.233115
_cell_length_c 22.587522
_cell_angle_alpha 90.000000
_cell_angle_beta 49.328470
_cell_angle_gamma 90.000000
_cell_volume 2483.158164
_symmetry_space_group_name_H-M "C 2/C"
_symmetry_group_IT_number 15
_symmetry_cell_setting 'monoclinic'
loop_
_space_group_symop_operation_xyz
x,y,z
-x,y,1/2-z
-x,-y,-z
x,-y,1/2+z
1/2+x,1/2+y,z
1/2-x,1/2+y,1/2-z
1/2-x,1/2-y,-z
1/2+x,1/2-y,1/2+z
loop_
_atom_site_type_symbol
_atom_site_label
_atom_site_fract_x
_atom_site_fract_y
_atom_site_fract_z
Si Si1 0.815707 0.090435 0.151192
Si Si2 0.082058 0.905292 0.359764
Si Si3 0.471011 0.245382 0.051043
Si Si4 0.476031 0.845559 0.671901
Si Si5 0.940747 0.248052 0.391782
Si Si6 0.500000 0.820340 0.250000
Si Si7 0.275125 0.312697 0.378512
O O1 0.694047 0.115858 0.242744
O O2 0.662491 0.095081 0.135810
O O3 0.976701 0.161877 0.105711
O O4 0.907092 0.000640 0.128907
O O5 0.023139 0.838506 0.425358
O O6 0.305875 0.875593 0.288890
O O7 0.915427 0.890188 0.352784
O O8 0.428866 0.182302 0.116917
O O9 0.295765 0.246659 0.047875
O O10 0.664245 0.215592 0.967178
O O11 0.567547 0.760142 0.673989
O O12 0.975042 0.262616 0.312977
O O13 0.092935 0.314926 0.380365
#
# Coordination Sequence:
#
# PCOD9263265 Si02
#       7
#     8   8   8   8   8   4   8
#     4  10  19  34  54  86 114 143 185 240 306 341
#     4  10  20  35  58  85 114 145 193 244 281 347
#     4  10  20  38  59  82 111 156 201 233 276 348
#     4   9  18  33  57  80 112 150 187 235 288 348
#     4  10  20  35  56  81 114 149 188 244 297 344
#     4  10  20  36  56  82 110 146 190 238 290 340
#     4  10  20  37  59  83 111 157 200 230 280 356
#
# _framework density 20.941072999999999
#
# number of rings (size 3 to 8) (size 9 to 14) (size 15 to 20)
#    0.000    2.154    0.000    6.000    0.000    1.846 
#    0.000   15.385    0.000    1.846    0.000    0.000 
#    0.000    0.000    0.000    0.000    0.000    0.000 
#
# Total GULP energy -144816.290584 kJ/mol
# GULP energy per Si atom -5569.857330 kJ/mol
# Density = 2.089341 g / cm^3
# Si number density = 20.941073 Si / 1000 Ang^3
#
#
#
# Elastic Constant Matrix: (Units=GPa)
#
#
# Indices 1 2 3 4 5 6 
#
# 1 164.9330 56.1676 34.2449 0.0002 -8.5865 -0.0001
# 2 56.1676 105.2704 14.3346 0.0001 -9.8662 0.0000
# 3 34.2449 14.3346 70.4859 0.0001 -1.1249 0.0001
# 4 0.0002 0.0001 0.0001 3.4038 -0.0001 0.4989
# 5 -8.5865 -9.8662 -1.1249 -0.0001 33.1954 0.0000
# 6 -0.0001 0.0000 0.0001 0.4989 0.0000 34.2428
#
#
#
# Elastic Compliance Matrix: (Units=1/GPa)
#
#
# Indices 1 2 3 4 5 6 
#
# 1 0.008046 -0.003788 -0.003125 0.000000 0.000850 0.000000
# 2 -0.003788 0.011828 -0.000525 0.000000 0.002518 0.000000
# 3 -0.003125 -0.000525 0.015806 0.000000 -0.000429 0.000000
# 4 0.000000 0.000000 0.000000 0.294421 0.000001 -0.004290
# 5 0.000850 0.002518 -0.000429 0.000001 0.031078 0.000000
# 6 0.000000 0.000000 0.000000 -0.004290 0.000000 0.029266
#
#
# Mechanical properties :
#
#
# Convention : Reuss Voigt Hill
#
# Bulk Modulus (GPa) = 48.06908 61.13151 54.60029
# Shear Modulus (GPa) = 12.12843 29.89789 21.01316
#
# Velocity S-wave (km/s) = 2.40920 3.78261 3.17115
# Velocity P-wave (km/s) = 5.54466 6.95220 6.28794
#
# Compressibility (1/GPa) = 0.02080339
#
# Stress axis : x y z
#
# Youngs Moduli (GPa) = 124.28314 84.54624 63.26908
#
# Poissons Ratio (x) = 0.32025 0.19773
# Poissons Ratio (y) = 0.47077 0.03321
# Poissons Ratio (z) = 0.38842 0.04438
#
# Static dielectric constant tensor:
#      x y z
#    x 1.897980 0.000000 -0.003670 
#    y 0.000000 1.744820 0.000000 
#    z -0.003670 0.000000 1.894720 
# 
# From -- ./inp_files/264188.got.cif
#   From: 2010.05.17/outbox.cif.g08.bks.cpg/sg15_133_cif.got.tgz:264188.got - 2010.06.03 18:47:42.
