data_PCOD9263997
_publ_section_title
;
Structure prediction by ZEFSAII (Michael W. Deem and Ramdas Pophale) SiO2 
 PCOD9263997
Probable space group: C 2/C
;
_chemical_formula_sum "Si O2"
_cell_formula_units_Z 40
_cell_length_a 20.909602
_cell_length_b 7.169699
_cell_length_c 17.489741
_cell_angle_alpha 90.000000
_cell_angle_beta 142.055754
_cell_angle_gamma 90.000000
_cell_volume 1612.243335
_symmetry_space_group_name_H-M "C 2/C"
_symmetry_group_IT_number 15
_symmetry_cell_setting 'monoclinic'
loop_
_space_group_symop_operation_xyz
x,y,z
-x,y,1/2-z
-x,-y,-z
x,-y,1/2+z
1/2+x,1/2+y,z
1/2-x,1/2+y,1/2-z
1/2-x,1/2-y,-z
1/2+x,1/2-y,1/2+z
loop_
_atom_site_type_symbol
_atom_site_label
_atom_site_fract_x
_atom_site_fract_y
_atom_site_fract_z
Si Si1 0.007521 0.503341 0.916287
Si Si2 0.717670 0.135848 0.799174
Si Si3 0.686467 0.265210 0.593708
Si Si4 0.659444 0.497596 0.835573
Si Si5 0.944028 0.141078 0.123295
O O1 0.064503 0.693400 0.944443
O O2 0.887960 0.523296 0.778855
O O3 0.080438 0.330006 0.965021
O O4 0.000000 0.500000 0.000000
O O5 0.811046 0.988951 0.897985
O O6 0.709862 0.195942 0.702949
O O7 0.713695 0.320159 0.846683
O O8 0.775984 0.177095 0.625675
O O9 0.646106 0.460849 0.913395
O O10 0.540587 0.493329 0.692133
O O11 0.000000 0.245641 0.250000
#
# Coordination Sequence:
#
# PCOD9263997 Si02
#       5
#     8   8   8   8   8
#     4   9  19  34  55  84 109 145 186 223 273 327
#     4  10  19  35  52  80 114 141 178 231 272 318
#     4  11  19  32  58  80 107 147 190 219 274 331
#     4   8  17  34  54  76 105 147 178 218 275 318
#     4   7  16  35  56  73 112 149 171 228 276 308
#
# _framework density 24.810151999999999
#
# number of rings (size 3 to 8) (size 9 to 14) (size 15 to 20)
#    1.200    1.600    2.000    0.000    0.000    0.800 
#    0.000   14.000    0.000    0.000    0.000    0.000 
#    0.000    0.000    0.000    0.000    0.000    0.000 
#
# Total GULP energy -111599.204133 kJ/mol
# GULP energy per Si atom -5579.960207 kJ/mol
# Density = 2.475368 g / cm^3
# Si number density = 24.810152 Si / 1000 Ang^3
#
#
#
# Elastic Constant Matrix: (Units=GPa)
#
#
# Indices 1 2 3 4 5 6 
#
# 1 129.1003 43.4249 14.2898 0.0000 7.3156 0.0000
# 2 43.4249 151.1170 20.8154 0.0000 0.4139 0.0000
# 3 14.2898 20.8154 30.6918 0.0000 7.4216 0.0000
# 4 0.0000 0.0000 0.0000 41.4275 0.0000 4.4238
# 5 7.3156 0.4139 7.4216 0.0000 22.0460 0.0000
# 6 0.0000 0.0000 0.0000 4.4238 0.0000 22.3643
#
#
#
# Elastic Compliance Matrix: (Units=1/GPa)
#
#
# Indices 1 2 3 4 5 6 
#
# 1 0.008858 -0.002255 -0.002062 0.000000 -0.002203 0.000000
# 2 -0.002255 0.007930 -0.004870 0.000000 0.002239 0.000000
# 3 -0.002062 -0.004870 0.039905 0.000000 -0.012658 0.000000
# 4 0.000000 0.000000 0.000000 0.024659 0.000000 -0.004878
# 5 -0.002203 0.002239 -0.012658 0.000000 0.050310 0.000000
# 6 0.000000 0.000000 0.000000 -0.004878 0.000000 0.045679
#
#
# Mechanical properties :
#
#
# Convention : Reuss Voigt Hill
#
# Bulk Modulus (GPa) = 26.09618 51.99659 39.04638
# Shear Modulus (GPa) = 23.98220 32.65949 28.32084
#
# Velocity S-wave (km/s) = 3.11244 3.63213 3.38228
# Velocity P-wave (km/s) = 4.84330 6.21233 5.57004
#
# Compressibility (1/GPa) = 0.03831979
#
# Stress axis : x y z
#
# Youngs Moduli (GPa) = 112.89799 126.10207 25.05925
#
# Poissons Ratio (x) = 0.28439 0.05167
# Poissons Ratio (y) = 0.25462 0.12203
# Poissons Ratio (z) = 0.23277 0.61406
#
# Static dielectric constant tensor:
#      x y z
#    x 1.921720 0.000000 0.010910 
#    y 0.000000 1.935240 0.000000 
#    z 0.010910 0.000000 2.904990 
# 
# From -- ./inp_files/251720.got.cif
#   From: 2010.05.17/outbox.cif.g08.bks.cpg/sg15_126_cif.got.tgz:251720.got - 2010.06.03 18:47:42.
