data_PCOD9263968
_publ_section_title
;
Structure prediction by ZEFSAII (Michael W. Deem and Ramdas Pophale) SiO2 
 PCOD9263968
Probable space group: C 2/C
;
_chemical_formula_sum "Si O2"
_cell_formula_units_Z 64
_cell_length_a 25.968305
_cell_length_b 26.311787
_cell_length_c 21.314821
_cell_angle_alpha 90.000000
_cell_angle_beta 16.606755
_cell_angle_gamma 90.000000
_cell_volume 4162.362612
_symmetry_space_group_name_H-M "C 2/C"
_symmetry_group_IT_number 15
_symmetry_cell_setting 'monoclinic'
loop_
_space_group_symop_operation_xyz
x,y,z
-x,y,1/2-z
-x,-y,-z
x,-y,1/2+z
1/2+x,1/2+y,z
1/2-x,1/2+y,1/2-z
1/2-x,1/2-y,-z
1/2+x,1/2-y,1/2+z
loop_
_atom_site_type_symbol
_atom_site_label
_atom_site_fract_x
_atom_site_fract_y
_atom_site_fract_z
Si Si1 0.107888 0.235192 0.467077
Si Si2 0.688596 0.565784 0.788405
Si Si3 0.663531 0.553135 0.603048
Si Si4 0.713758 0.840976 0.493308
Si Si5 0.362574 0.320791 0.180664
Si Si6 0.789984 0.315048 0.867769
Si Si7 0.565307 0.481028 0.024253
Si Si8 0.885670 0.566645 0.230523
O O1 0.267567 0.272571 0.261105
O O2 0.149554 0.201167 0.478969
O O3 0.061792 0.196752 0.465196
O O4 0.949129 0.274562 0.670496
O O5 0.663133 0.626274 0.823077
O O6 0.629433 0.532838 0.917281
O O7 0.902903 0.556767 0.527084
O O8 0.554872 0.548199 0.887922
O O9 0.500000 0.572876 0.750000
O O10 0.732238 0.600244 0.563422
O O11 0.818690 0.539100 0.372842
O O12 0.569075 0.513440 0.759438
O O13 0.500000 0.836030 0.750000
O O14 0.775153 0.824246 0.353171
O O15 0.781114 0.813547 0.478045
O O16 0.857637 0.372809 0.776186
O O17 0.742919 0.451134 0.843427
#
# Coordination Sequence:
#
# PCOD9263968 Si02
#       8
#     8   8   8   8   8   8   8   8
#     4  10  21  31  42  60  87 118 162 200 233 258
#     4  11  20  34  50  69  94 122 163 195 241 279
#     4   9  19  31  47  68  89 119 158 195 239 281
#     4  11  19  28  41  59  84 121 155 196 232 263
#     4  11  20  32  43  60  87 118 156 198 229 269
#     4  10  20  30  42  61  84 120 159 197 237 257
#     4  10  21  32  50  72  89 121 160 201 237 287
#     4  10  19  35  50  69  92 125 160 197 239 284
#
# _framework density 15.375883
#
# number of rings (size 3 to 8) (size 9 to 14) (size 15 to 20)
#    0.000    1.750    3.750    1.875    3.500    3.000 
#    0.000    0.000    0.000    0.000    0.000    0.000 
#    0.000    0.000    0.000   10.125    2.250    2.250 
#
# Total GULP energy -178278.722074 kJ/mol
# GULP energy per Si atom -5571.210065 kJ/mol
# Density = 1.534089 g / cm^3
# Si number density = 15.375883 Si / 1000 Ang^3
#
#
#
# Elastic Constant Matrix: (Units=GPa)
#
#
# Indices 1 2 3 4 5 6 
#
# 1 58.9745 30.6753 30.4057 -0.0404 -10.1810 -0.0039
# 2 30.6753 66.6714 36.3290 0.0254 4.3359 0.0078
# 3 30.4057 36.3290 63.0633 -0.0375 -6.0900 -0.0399
# 4 -0.0404 0.0254 -0.0375 15.9742 0.0420 -2.7400
# 5 -10.1810 4.3359 -6.0900 0.0420 18.5316 0.0243
# 6 -0.0039 0.0078 -0.0399 -2.7400 0.0243 29.1007
#
#
#
# Elastic Compliance Matrix: (Units=1/GPa)
#
#
# Indices 1 2 3 4 5 6 
#
# 1 0.028498 -0.010996 -0.005831 0.000031 0.016313 -0.000012
# 2 -0.010996 0.027876 -0.012362 -0.000060 -0.016626 -0.000018
# 3 -0.005831 -0.012362 0.026604 0.000052 0.008432 0.000037
# 4 0.000031 -0.000060 0.000052 0.063629 -0.000104 0.005991
# 5 0.016313 -0.016626 0.008432 -0.000104 0.069585 -0.000050
# 6 -0.000012 -0.000018 0.000037 0.005991 -0.000050 0.034928
#
#
# Mechanical properties :
#
#
# Convention : Reuss Voigt Hill
#
# Bulk Modulus (GPa) = 40.64949 42.61437 41.63193
# Shear Modulus (GPa) = 15.73824 18.80791 17.27307
#
# Velocity S-wave (km/s) = 3.20279 3.50123 3.35533
# Velocity P-wave (km/s) = 6.33812 6.64230 6.49199
#
# Compressibility (1/GPa) = 0.02460055
#
# Stress axis : x y z
#
# Youngs Moduli (GPa) = 35.08992 35.87375 37.58805
#
# Poissons Ratio (x) = 0.39446 0.21916
# Poissons Ratio (y) = 0.38584 0.46468
# Poissons Ratio (z) = 0.20459 0.44348
#
# Static dielectric constant tensor:
#      x y z
#    x 1.571400 -0.000060 -0.062780 
#    y -0.000060 1.511650 0.000050 
#    z -0.062780 0.000050 1.552090 
# 
# From -- ./inp_files/67623.got.cif
#   From: 2010.05.17/outbox.cif.g08.bks.cpg/sg15_34_cif.got.tgz:67623.got - 2010.06.03 18:47:42.
