data_PCOD9263386
_publ_section_title
;
Structure prediction by ZEFSAII (Michael W. Deem and Ramdas Pophale) SiO2 
 PCOD9263386
Probable space group: C 2/C
;
_chemical_formula_sum "Si O2"
_cell_formula_units_Z 28
_cell_length_a 8.609593
_cell_length_b 12.979914
_cell_length_c 15.576301
_cell_angle_alpha 90.000000
_cell_angle_beta 34.317077
_cell_angle_gamma 90.000000
_cell_volume 981.346679
_symmetry_space_group_name_H-M "C 2/C"
_symmetry_group_IT_number 15
_symmetry_cell_setting 'monoclinic'
loop_
_space_group_symop_operation_xyz
x,y,z
-x,y,1/2-z
-x,-y,-z
x,-y,1/2+z
1/2+x,1/2+y,z
1/2-x,1/2+y,1/2-z
1/2-x,1/2-y,-z
1/2+x,1/2-y,1/2+z
loop_
_atom_site_type_symbol
_atom_site_label
_atom_site_fract_x
_atom_site_fract_y
_atom_site_fract_z
Si Si1 0.822179 0.235088 0.750890
Si Si2 0.500000 0.996533 0.750000
Si Si3 0.234265 0.507057 0.321549
Si Si4 0.306450 0.303600 0.080024
O O1 0.804938 0.110156 0.763857
O O2 0.952114 0.246670 0.597521
O O3 0.000000 0.270325 0.750000
O O4 0.506896 0.270650 0.912906
O O5 0.377304 0.946704 0.718173
O O6 0.255262 0.073284 0.896476
O O7 0.500000 0.550918 0.250000
O O8 0.000000 0.500000 0.500000
O O9 0.000000 0.272275 0.250000
#
# Coordination Sequence:
#
# PCOD9263386 Si02
#       4
#     8   4   8   8
#     4  10  19  34  56  82 116 142 183 233 287 340
#     4   8  20  38  62  82 120 142 188 242 288 328
#     4  10  22  39  58  81 114 157 192 233 280 335
#     4   9  18  32  55  83 110 142 176 228 290 333
#
# _framework density 28.532222000000001
#
# number of rings (size 3 to 8) (size 9 to 14) (size 15 to 20)
#    0.857    1.714    0.000    1.714    0.000    2.286 
#    0.000    0.000    3.143    0.000    0.000    0.000 
#    0.000    0.000    0.000    0.000    0.000    0.000 
#
# Total GULP energy -78135.127338 kJ/mol
# GULP energy per Si atom -5581.080524 kJ/mol
# Density = 2.846728 g / cm^3
# Si number density = 28.532222 Si / 1000 Ang^3
#
#
#
# Elastic Constant Matrix: (Units=GPa)
#
#
# Indices 1 2 3 4 5 6 
#
# 1 224.1956 14.8106 89.2959 -0.0035 11.9721 0.0020
# 2 14.8106 58.1232 15.1581 -0.0088 -0.3921 0.0030
# 3 89.2959 15.1581 153.4034 -0.0235 22.8739 0.0091
# 4 -0.0035 -0.0088 -0.0235 26.5515 0.0057 -5.1051
# 5 11.9721 -0.3921 22.8739 0.0057 70.5201 -0.0026
# 6 0.0020 0.0030 0.0091 -5.1051 -0.0026 38.3041
#
#
#
# Elastic Compliance Matrix: (Units=1/GPa)
#
#
# Indices 1 2 3 4 5 6 
#
# 1 0.005829 -0.000612 -0.003346 -0.000002 0.000092 0.000000
# 2 -0.000612 0.017757 -0.001501 0.000004 0.000690 0.000000
# 3 -0.003346 -0.001501 0.008965 0.000007 -0.002348 -0.000001
# 4 -0.000002 0.000004 0.000007 0.038653 -0.000005 0.005152
# 5 0.000092 0.000690 -0.002348 -0.000005 0.014930 0.000001
# 6 0.000000 0.000000 -0.000001 0.005152 0.000001 0.026793
#
#
# Mechanical properties :
#
#
# Convention : Reuss Voigt Hill
#
# Bulk Modulus (GPa) = 46.22784 74.91682 60.57233
# Shear Modulus (GPa) = 38.15142 48.17231 43.16186
#
# Velocity S-wave (km/s) = 3.66065 4.11341 3.89362
# Velocity P-wave (km/s) = 5.83989 6.99100 6.44121
#
# Compressibility (1/GPa) = 0.02163198
#
# Stress axis : x y z
#
# Youngs Moduli (GPa) = 171.56666 56.31602 111.54450
#
# Poissons Ratio (x) = 0.03446 0.37325
# Poissons Ratio (y) = 0.10499 0.16745
# Poissons Ratio (z) = 0.57409 0.08454
#
# Static dielectric constant tensor:
#      x y z
#    x 2.634700 0.000000 -0.155330 
#    y 0.000000 2.337780 0.000000 
#    z -0.155330 0.000000 2.010580 
# 
# From -- ./inp_files/21903.got.cif
#   From: 2010.05.17/outbox.cif.g08.bks.cpg/sg15_11_cif.got.tgz:21903.got - 2010.06.03 18:47:42.
