data_PCOD9263851
_publ_section_title
;
Structure prediction by ZEFSAII (Michael W. Deem and Ramdas Pophale) SiO2 
 PCOD9263851
Probable space group: C 2/C
;
_chemical_formula_sum "Si O2"
_cell_formula_units_Z 44
_cell_length_a 10.107036
_cell_length_b 12.769188
_cell_length_c 21.022550
_cell_angle_alpha 90.000000
_cell_angle_beta 143.333409
_cell_angle_gamma 90.000000
_cell_volume 1620.173045
_symmetry_space_group_name_H-M "C 2/C"
_symmetry_group_IT_number 15
_symmetry_cell_setting 'monoclinic'
loop_
_space_group_symop_operation_xyz
x,y,z
-x,y,1/2-z
-x,-y,-z
x,-y,1/2+z
1/2+x,1/2+y,z
1/2-x,1/2+y,1/2-z
1/2-x,1/2-y,-z
1/2+x,1/2-y,1/2+z
loop_
_atom_site_type_symbol
_atom_site_label
_atom_site_fract_x
_atom_site_fract_y
_atom_site_fract_z
Si Si1 0.380506 0.170445 0.792674
Si Si2 0.174082 0.735800 0.075577
Si Si3 0.480042 0.462716 0.378913
Si Si4 0.586165 0.037854 0.965334
Si Si5 0.767560 0.163622 0.354881
Si Si6 0.500000 0.575876 0.250000
O O1 0.622577 0.184137 0.856490
O O2 0.401885 0.064805 0.843145
O O3 0.330325 0.266170 0.818459
O O4 0.156098 0.144130 0.668268
O O5 0.286018 0.654756 0.170253
O O6 0.184230 0.653097 0.019114
O O7 0.925507 0.782353 0.970403
O O8 0.737408 0.459897 0.496935
O O9 0.358077 0.548139 0.375074
O O10 0.513334 0.505870 0.318719
O O11 0.500000 0.000000 0.000000
O O12 0.500000 0.164976 0.250000
#
# Coordination Sequence:
#
# PCOD9263851 Si02
#       6
#     8   8   8   8   8   4
#     4  11  20  38  65  88 124 166 207 253 313 365
#     4  10  20  41  63  91 127 165 205 254 326 367
#     4  11  22  39  59  97 125 156 210 257 309 370
#     4  10  19  34  61  93 125 154 198 266 315 360
#     4  11  23  42  62  90 128 169 206 249 311 394
#     4  10  20  38  66  92 126 156 208 276 310 352
#
# _framework density 27.157592000000001
#
# number of rings (size 3 to 8) (size 9 to 14) (size 15 to 20)
#    0.000    1.455    5.455    3.273    6.364    0.000 
#    1.636    3.636    0.000    0.000    0.000    0.000 
#    0.000    0.000    0.000    0.000    0.000    0.000 
#
# Total GULP energy -122839.672473 kJ/mol
# GULP energy per Si atom -5583.621476 kJ/mol
# Density = 2.709578 g / cm^3
# Si number density = 27.157592 Si / 1000 Ang^3
#
#
#
# Elastic Constant Matrix: (Units=GPa)
#
#
# Indices 1 2 3 4 5 6 
#
# 1 92.0472 4.6999 30.6351 0.0000 20.8450 0.0000
# 2 4.6999 58.8884 1.2496 0.0000 21.7189 0.0000
# 3 30.6351 1.2496 159.4206 0.0000 29.7133 0.0000
# 4 0.0000 0.0000 0.0000 60.2636 0.0000 13.2975
# 5 20.8450 21.7189 29.7133 0.0000 62.7533 0.0000
# 6 0.0000 0.0000 0.0000 13.2975 0.0000 24.6343
#
#
#
# Elastic Compliance Matrix: (Units=1/GPa)
#
#
# Indices 1 2 3 4 5 6 
#
# 1 0.012176 0.000293 -0.001721 0.000000 -0.003331 0.000000
# 2 0.000293 0.019688 0.001182 0.000000 -0.007471 0.000000
# 3 -0.001721 0.001182 0.007199 0.000000 -0.003246 0.000000
# 4 0.000000 0.000000 0.000000 0.018837 0.000000 -0.010168
# 5 -0.003331 -0.007471 -0.003246 0.000000 0.021165 0.000000
# 6 0.000000 0.000000 0.000000 -0.010168 0.000000 0.046083
#
#
# Mechanical properties :
#
#
# Convention : Reuss Voigt Hill
#
# Bulk Modulus (GPa) = 25.92595 42.61392 34.26994
# Shear Modulus (GPa) = 36.10160 47.78169 41.94165
#
# Velocity S-wave (km/s) = 3.64996 4.19910 3.93412
# Velocity P-wave (km/s) = 5.22783 6.26381 5.76912
#
# Compressibility (1/GPa) = 0.03857139
#
# Stress axis : x y z
#
# Youngs Moduli (GPa) = 82.12707 50.79171 138.90364
#
# Poissons Ratio (x) = -0.01490 0.23909
# Poissons Ratio (y) = -0.02409 -0.16416
# Poissons Ratio (z) = 0.14136 -0.06003
#
# Static dielectric constant tensor:
#      x y z
#    x 2.140130 0.000000 -0.115790 
#    y 0.000000 2.147960 0.000000 
#    z -0.115790 0.000000 2.450250 
# 
# From -- ./inp_files/142209.got.cif
#   From: 2010.05.17/outbox.cif.g08.bks.cpg/sg15_72_cif.got.tgz:142209.got - 2010.06.03 18:47:42.
