data_PCOD9263765
_publ_section_title
;
Structure prediction by ZEFSAII (Michael W. Deem and Ramdas Pophale) SiO2 
 PCOD9263765
Probable space group: C 2/C
;
_chemical_formula_sum "Si O2"
_cell_formula_units_Z 48
_cell_length_a 22.925841
_cell_length_b 10.729751
_cell_length_c 13.532635
_cell_angle_alpha 90.000000
_cell_angle_beta 146.951089
_cell_angle_gamma 90.000000
_cell_volume 1815.417040
_symmetry_space_group_name_H-M "C 2/C"
_symmetry_group_IT_number 15
_symmetry_cell_setting 'monoclinic'
loop_
_space_group_symop_operation_xyz
x,y,z
-x,y,1/2-z
-x,-y,-z
x,-y,1/2+z
1/2+x,1/2+y,z
1/2-x,1/2+y,1/2-z
1/2-x,1/2-y,-z
1/2+x,1/2-y,1/2+z
loop_
_atom_site_type_symbol
_atom_site_label
_atom_site_fract_x
_atom_site_fract_y
_atom_site_fract_z
Si Si1 0.635355 0.293431 0.768829
Si Si2 0.770647 0.307404 0.685203
Si Si3 0.000000 0.423838 0.750000
Si Si4 0.967472 0.803571 0.067685
Si Si5 0.851064 0.220153 0.995512
Si Si6 0.500000 0.502781 0.250000
Si Si7 0.230148 0.452836 0.016735
O O1 0.538495 0.308601 0.557028
O O2 0.604169 0.243119 0.831769
O O3 0.724669 0.206344 0.844245
O O4 0.695187 0.426314 0.865232
O O5 0.652335 0.328851 0.562122
O O6 0.787075 0.406385 0.620807
O O7 0.769189 0.169979 0.632547
O O8 0.847218 0.300138 0.890086
O O9 0.996899 0.330060 0.651858
O O10 0.885272 0.486262 0.598499
O O11 0.039473 0.907561 0.221804
O O12 0.912616 0.089592 0.073379
#
# Coordination Sequence:
#
# PCOD9263765 Si02
#       7
#     8   8   4   8   8   4   8
#     4  10  21  38  58  80 115 160 193 227 287 354
#     4   9  19  37  57  81 112 152 193 232 285 353
#     4   9  20  35  56  92 124 145 186 247 288 324
#     4   9  19  36  58  84 117 150 189 240 285 332
#     4  10  22  36  54  82 118 150 191 240 286 339
#     4  11  20  33  58  88 114 147 194 241 282 326
#     4  10  19  34  60  84 111 152 196 235 286 344
#
# _framework density 26.440207000000001
#
# number of rings (size 3 to 8) (size 9 to 14) (size 15 to 20)
#    0.000    2.333    0.000    2.000    0.000    5.333 
#    0.000    0.000    0.000   21.000    0.000    0.000 
#    0.000    0.000    0.000    0.000    0.000    0.000 
#
# Total GULP energy -134207.800419 kJ/mol
# GULP energy per Si atom -5591.991684 kJ/mol
# Density = 2.638003 g / cm^3
# Si number density = 26.440207 Si / 1000 Ang^3
#
#
#
# Elastic Constant Matrix: (Units=GPa)
#
#
# Indices 1 2 3 4 5 6 
#
# 1 130.8349 38.2711 62.7783 0.0000 -15.8388 0.0000
# 2 38.2711 140.0105 51.7050 0.0000 -11.7440 0.0000
# 3 62.7783 51.7050 150.1483 0.0000 -57.0518 0.0000
# 4 0.0000 0.0000 0.0000 -4.6004 0.0000 1.0447
# 5 -15.8388 -11.7440 -57.0518 0.0000 67.4429 0.0000
# 6 0.0000 0.0000 0.0000 1.0447 0.0000 3.7014
#
#
#
# Elastic Compliance Matrix: (Units=1/GPa)
#
#
# Indices 1 2 3 4 5 6 
#
# 1 0.009876 -0.001248 -0.004275 0.000000 -0.001514 0.000000
# 2 -0.001248 0.008433 -0.002852 0.000000 -0.001238 0.000000
# 3 -0.004275 -0.002852 0.013056 0.000000 0.009544 0.000000
# 4 0.000000 0.000000 0.000000 -0.204276 0.000000 0.057659
# 5 -0.001514 -0.001238 0.009544 0.000000 0.022330 0.000000
# 6 0.000000 0.000000 0.000000 0.057659 0.000000 0.253895
#
#
# Mechanical properties :
#
#
# Convention : Reuss Voigt Hill
#
# Bulk Modulus (GPa) = 68.42428 80.72248 74.57338
# Shear Modulus (GPa) = 40.02067 31.19140 35.60603
#
# Velocity S-wave (km/s) = 3.89476 3.43840 3.67367
# Velocity P-wave (km/s) = 6.79416 6.80881 6.80149
#
# Compressibility (1/GPa) = 0.01461469
#
# Stress axis : x y z
#
# Youngs Moduli (GPa) = 101.25379 118.58143 76.59246
#
# Poissons Ratio (x) = 0.14798 0.32743
# Poissons Ratio (y) = 0.12635 0.21848
# Poissons Ratio (z) = 0.43285 0.33825
#
# Static dielectric constant tensor:
#      x y z
#    x 2.151380 0.000000 0.023370 
#    y 0.000000 2.062860 0.000000 
#    z 0.023370 0.000000 2.120710 
# 
# From -- ./inp_files/177919.got.cif
#   From: 2010.05.17/outbox.cif.g08.bks.cpg/sg15_89_cif.got.tgz:177919.got - 2010.06.03 18:47:42.
