data_PCOD9263960
_publ_section_title
;
Structure prediction by ZEFSAII (Michael W. Deem and Ramdas Pophale) SiO2 
 PCOD9263960
Probable space group: C 2/C
;
_chemical_formula_sum "Si O2"
_cell_formula_units_Z 44
_cell_length_a 13.390909
_cell_length_b 11.688137
_cell_length_c 14.349835
_cell_angle_alpha 90.000000
_cell_angle_beta 124.154541
_cell_angle_gamma 90.000000
_cell_volume 1858.591952
_symmetry_space_group_name_H-M "C 2/C"
_symmetry_group_IT_number 15
_symmetry_cell_setting 'monoclinic'
loop_
_space_group_symop_operation_xyz
x,y,z
-x,y,1/2-z
-x,-y,-z
x,-y,1/2+z
1/2+x,1/2+y,z
1/2-x,1/2+y,1/2-z
1/2-x,1/2-y,-z
1/2+x,1/2-y,1/2+z
loop_
_atom_site_type_symbol
_atom_site_label
_atom_site_fract_x
_atom_site_fract_y
_atom_site_fract_z
Si Si1 0.644996 0.472696 0.173624
Si Si2 0.500000 0.862518 0.250000
Si Si3 0.553570 0.878672 0.484945
Si Si4 0.804092 0.826735 0.660065
Si Si5 0.188013 0.384895 0.091755
Si Si6 0.362273 0.519766 0.541241
O O1 0.675758 0.594837 0.238292
O O2 0.722310 0.381954 0.274064
O O3 0.676775 0.487204 0.082746
O O4 0.502968 0.447080 0.111441
O O5 0.529123 0.917054 0.365128
O O6 0.613384 0.782168 0.290815
O O7 0.667738 0.796059 0.560058
O O8 0.435148 0.814437 0.463664
O O9 0.615931 0.992478 0.561739
O O10 0.852694 0.910145 0.603675
O O11 0.270569 0.609028 0.543360
#
# Coordination Sequence:
#
# PCOD9263960 Si02
#       6
#     8   4   8   8   8   8
#     4   9  16  29  54  77 105 140 174 217 266 293
#     4  12  20  34  56  72 110 144 170 218 272 328
#     4   9  21  32  49  74 106 139 169 216 269 308
#     4  10  19  35  47  80 112 132 176 222 256 324
#     4   9  18  34  47  76 111 129 176 226 252 313
#     4   9  16  29  53  79 104 137 174 218 263 298
#
# _framework density 23.673836999999999
#
# number of rings (size 3 to 8) (size 9 to 14) (size 15 to 20)
#    0.000    2.909    1.818    2.182    5.091    0.000 
#    0.000    0.000    0.000    1.091    0.000    0.000 
#    0.000    0.000    0.000    0.000    0.000    0.000 
#
# Total GULP energy -122715.868545 kJ/mol
# GULP energy per Si atom -5577.994025 kJ/mol
# Density = 2.361995 g / cm^3
# Si number density = 23.673837 Si / 1000 Ang^3
#
#
#
# Elastic Constant Matrix: (Units=GPa)
#
#
# Indices 1 2 3 4 5 6 
#
# 1 156.5886 -0.9401 64.0413 0.0000 10.4246 0.0000
# 2 -0.9401 20.5550 11.9854 0.0000 -6.1498 0.0000
# 3 64.0413 11.9854 136.5275 0.0000 -5.7969 0.0000
# 4 0.0000 0.0000 0.0000 13.8851 0.0000 -2.7060
# 5 10.4246 -6.1498 -5.7969 0.0000 54.1648 0.0000
# 6 0.0000 0.0000 0.0000 -2.7060 0.0000 9.2488
#
#
#
# Elastic Compliance Matrix: (Units=1/GPa)
#
#
# Indices 1 2 3 4 5 6 
#
# 1 0.008202 0.002249 -0.004120 0.000000 -0.001764 0.000000
# 2 0.002249 0.053491 -0.005537 0.000000 0.005048 0.000000
# 3 -0.004120 -0.005537 0.009795 0.000000 0.001212 0.000000
# 4 0.000000 0.000000 0.000000 0.076375 0.000000 0.022345
# 5 -0.001764 0.005048 0.001212 0.000000 0.019505 0.000000
# 6 0.000000 0.000000 0.000000 0.022345 0.000000 0.114660
#
#
# Mechanical properties :
#
#
# Convention : Reuss Voigt Hill
#
# Bulk Modulus (GPa) = 17.64478 51.53825 34.59151
# Shear Modulus (GPa) = 15.83622 31.36536 23.60079
#
# Velocity S-wave (km/s) = 2.58918 3.64386 3.16082
# Velocity P-wave (km/s) = 4.05067 6.28657 5.28814
#
# Compressibility (1/GPa) = 0.05667400
#
# Stress axis : x y z
#
# Youngs Moduli (GPa) = 121.92189 18.69461 102.09805
#
# Poissons Ratio (x) = -0.04205 0.42061
# Poissons Ratio (y) = -0.27426 0.56529
# Poissons Ratio (z) = 0.50228 0.10351
#
# Static dielectric constant tensor:
#      x y z
#    x 2.199200 0.000000 0.088800 
#    y 0.000000 2.084070 0.000000 
#    z 0.088800 0.000000 1.903620 
# 
# From -- ./inp_files/153651.got.cif
#   From: 2010.05.17/outbox.cif.g08.bks.cpg/sg15_77_cif.got.tgz:153651.got - 2010.06.03 18:47:42.
