data_PCOD9263102
_publ_section_title
;
Structure prediction by ZEFSAII (Michael W. Deem and Ramdas Pophale) SiO2 
 PCOD9263102
Probable space group: C 2/C
;
_chemical_formula_sum "Si O2"
_cell_formula_units_Z 64
_cell_length_a 25.333347
_cell_length_b 25.230719
_cell_length_c 18.648965
_cell_angle_alpha 90.000000
_cell_angle_beta 161.091523
_cell_angle_gamma 90.000000
_cell_volume 3862.770105
_symmetry_space_group_name_H-M "C 2/C"
_symmetry_group_IT_number 15
_symmetry_cell_setting 'monoclinic'
loop_
_space_group_symop_operation_xyz
x,y,z
-x,y,1/2-z
-x,-y,-z
x,-y,1/2+z
1/2+x,1/2+y,z
1/2-x,1/2+y,1/2-z
1/2-x,1/2-y,-z
1/2+x,1/2-y,1/2+z
loop_
_atom_site_type_symbol
_atom_site_label
_atom_site_fract_x
_atom_site_fract_y
_atom_site_fract_z
Si Si1 0.469803 0.916750 0.905170
Si Si2 0.073021 0.307331 0.728730
Si Si3 0.960438 0.022681 0.779976
Si Si4 0.181460 0.043217 0.658374
Si Si5 0.407199 0.003366 0.702168
Si Si6 0.236680 0.797682 0.379537
Si Si7 0.992943 0.107923 0.534386
Si Si8 0.660940 0.934539 0.604128
O O1 0.423983 0.859981 0.814930
O O2 0.392939 0.929703 0.882724
O O3 0.422316 0.961094 0.785905
O O4 0.663396 0.922020 0.161736
O O5 0.153208 0.258637 0.788977
O O6 0.888084 0.295718 0.518331
O O7 0.180347 0.315589 0.938625
O O8 0.000000 0.039555 0.750000
O O9 0.977078 0.072037 0.855846
O O10 0.783776 0.995617 0.559091
O O11 0.090966 0.979428 0.973198
O O12 0.066910 0.075575 0.563336
O O13 0.244620 0.990783 0.781356
O O14 0.500000 0.984136 0.750000
O O15 0.502539 0.056341 0.850995
O O16 0.096900 0.838869 0.177110
O O17 0.798557 0.110090 0.270380
#
# Coordination Sequence:
#
# PCOD9263102 Si02
#       8
#     8   8   8   8   8   8   8   8
#     4  11  20  34  52  72 104 144 173 204 254 303
#     4  10  22  37  53  75 102 133 171 216 251 288
#     4  11  20  31  48  75 105 136 173 209 246 298
#     4  10  19  34  49  70 102 138 176 209 245 298
#     4  11  20  31  50  74 104 141 174 207 243 302
#     4  10  22  37  53  75 102 132 173 216 249 289
#     4  11  20  35  52  72 102 145 174 202 250 305
#     4  10  21  32  48  74 106 135 173 212 249 295
#
# _framework density 16.56842
#
# number of rings (size 3 to 8) (size 9 to 14) (size 15 to 20)
#    0.000    1.500    1.250    8.250    3.500    0.000 
#    2.250    0.000    0.000    0.000    0.000    0.000 
#    0.000   20.000    0.000    0.000    0.000    0.000 
#
# Total GULP energy -178539.891534 kJ/mol
# GULP energy per Si atom -5579.371610 kJ/mol
# Density = 1.653071 g / cm^3
# Si number density = 16.568420 Si / 1000 Ang^3
#
#
#
# Elastic Constant Matrix: (Units=GPa)
#
#
# Indices 1 2 3 4 5 6 
#
# 1 47.6058 -1.7902 -11.9251 0.0000 9.8789 0.0000
# 2 -1.7902 47.7799 11.8569 0.0000 -2.0614 0.0000
# 3 -11.9251 11.8569 69.6245 -0.0001 5.5253 0.0000
# 4 0.0000 0.0000 -0.0001 27.0218 0.0000 -0.1339
# 5 9.8789 -2.0614 5.5253 0.0000 20.4164 0.0000
# 6 0.0000 0.0000 0.0000 -0.1339 0.0000 14.8167
#
#
#
# Elastic Compliance Matrix: (Units=1/GPa)
#
#
# Indices 1 2 3 4 5 6 
#
# 1 0.025239 -0.001040 0.005598 0.000000 -0.013833 0.000000
# 2 -0.001040 0.022113 -0.004252 0.000000 0.003887 0.000000
# 3 0.005598 -0.004252 0.016652 0.000000 -0.007645 0.000000
# 4 0.000000 0.000000 0.000000 0.037009 0.000000 0.000334
# 5 -0.013833 0.003887 -0.007645 0.000000 0.058135 0.000000
# 6 0.000000 0.000000 0.000000 0.000334 0.000000 0.067494
#
#
# Mechanical properties :
#
#
# Convention : Reuss Voigt Hill
#
# Bulk Modulus (GPa) = 15.47622 17.92149 16.69885
# Shear Modulus (GPa) = 20.19621 23.57556 21.88588
#
# Velocity S-wave (km/s) = 3.49515 3.77626 3.63842
# Velocity P-wave (km/s) = 5.06450 5.46385 5.26796
#
# Compressibility (1/GPa) = 0.06461525
#
# Stress axis : x y z
#
# Youngs Moduli (GPa) = 39.62057 45.22169 60.05145
#
# Poissons Ratio (x) = 0.04704 -0.33616
# Poissons Ratio (y) = 0.04122 0.25537
# Poissons Ratio (z) = -0.22179 0.19230
#
# Static dielectric constant tensor:
#      x y z
#    x 1.570460 0.000000 0.007720 
#    y 0.000000 1.528690 0.000000 
#    z 0.007720 0.000000 1.623290 
# 
# From -- ./inp_files/51255.got.cif
#   From: 2010.05.17/outbox.cif.g08.bks.cpg/sg15_26_cif.got.tgz:51255.got - 2010.06.03 18:47:42.
