data_PCOD9263523
_publ_section_title
;
Structure prediction by ZEFSAII (Michael W. Deem and Ramdas Pophale) SiO2 
 PCOD9263523
Probable space group: C 2/C
;
_chemical_formula_sum "Si O2"
_cell_formula_units_Z 52
_cell_length_a 12.225477
_cell_length_b 22.237327
_cell_length_c 14.178767
_cell_angle_alpha 90.000000
_cell_angle_beta 43.644535
_cell_angle_gamma 90.000000
_cell_volume 2660.422604
_symmetry_space_group_name_H-M "C 2/C"
_symmetry_group_IT_number 15
_symmetry_cell_setting 'monoclinic'
loop_
_space_group_symop_operation_xyz
x,y,z
-x,y,1/2-z
-x,-y,-z
x,-y,1/2+z
1/2+x,1/2+y,z
1/2-x,1/2+y,1/2-z
1/2-x,1/2-y,-z
1/2+x,1/2-y,1/2+z
loop_
_atom_site_type_symbol
_atom_site_label
_atom_site_fract_x
_atom_site_fract_y
_atom_site_fract_z
Si Si1 0.310383 0.794994 0.381822
Si Si2 0.970493 0.232664 0.561188
Si Si3 0.868079 0.579023 0.912864
Si Si4 0.728415 0.647834 0.353833
Si Si5 0.000000 0.261115 0.750000
Si Si6 0.659211 0.055294 0.084308
Si Si7 0.020553 0.372262 0.958791
O O1 0.500000 0.790885 0.250000
O O2 0.250000 0.750000 0.500000
O O3 0.270678 0.862775 0.440417
O O4 0.212721 0.777551 0.349598
O O5 0.069957 0.185027 0.439829
O O6 0.008338 0.224513 0.648172
O O7 0.017531 0.301426 0.508453
O O8 0.793156 0.513006 0.967142
O O9 0.000000 0.572770 0.750000
O O10 0.950066 0.597299 0.959755
O O11 0.714390 0.591968 0.433220
O O12 0.816585 0.627799 0.203814
O O13 0.850942 0.694527 0.327759
O O14 0.500000 0.055890 0.250000
O O15 0.607474 0.091942 0.023590
#
# Coordination Sequence:
#
# PCOD9263523 Si02
#       7
#     8   8   8   8   4   8   8
#     4  11  25  41  59  89 122 162 202 251 307 366
#     4  11  22  36  61  90 121 155 200 252 305 362
#     4  10  21  36  56  84 118 161 205 245 291 362
#     4  10  19  35  58  92 119 155 194 259 303 355
#     4  10  20  34  58  90 126 148 202 240 318 352
#     4   9  17  35  57  86 121 152 204 246 296 361
#     4  10  19  34  57  87 118 158 205 242 301 353
#
# _framework density 19.545767000000001
#
# number of rings (size 3 to 8) (size 9 to 14) (size 15 to 20)
#    0.000    1.846    5.385    0.923    4.308    0.000 
#    0.000    0.769    0.000    0.000    2.000    0.000 
#    0.000    0.000    0.000    0.000    0.000    0.000 
#
# Total GULP energy -145057.463781 kJ/mol
# GULP energy per Si atom -5579.133222 kJ/mol
# Density = 1.950128 g / cm^3
# Si number density = 19.545767 Si / 1000 Ang^3
#
#
#
# Elastic Constant Matrix: (Units=GPa)
#
#
# Indices 1 2 3 4 5 6 
#
# 1 69.0032 22.5132 40.1704 0.0001 14.8736 0.0000
# 2 22.5132 147.8076 28.0170 0.0000 3.9233 0.0000
# 3 40.1704 28.0170 62.5012 0.0001 14.2530 -0.0001
# 4 0.0001 0.0000 0.0001 12.7377 -0.0001 -2.4249
# 5 14.8736 3.9233 14.2530 -0.0001 36.8674 0.0000
# 6 0.0000 0.0000 -0.0001 -2.4249 0.0000 12.7362
#
#
#
# Elastic Compliance Matrix: (Units=1/GPa)
#
#
# Indices 1 2 3 4 5 6 
#
# 1 0.023790 -0.000868 -0.013965 0.000000 -0.004107 0.000000
# 2 -0.000868 0.007435 -0.002933 0.000000 0.000693 0.000000
# 3 -0.013965 -0.002933 0.027345 0.000000 -0.004626 0.000000
# 4 0.000000 0.000000 0.000000 0.081460 0.000000 0.015510
# 5 -0.004107 0.000693 -0.004626 0.000000 0.030495 0.000000
# 6 0.000000 0.000000 0.000000 0.015510 0.000000 0.081469
#
#
# Mechanical properties :
#
#
# Convention : Reuss Voigt Hill
#
# Bulk Modulus (GPa) = 43.40529 51.19036 47.29782
# Shear Modulus (GPa) = 16.93735 25.04235 20.98985
#
# Velocity S-wave (km/s) = 2.94691 3.58329 3.28057
# Velocity P-wave (km/s) = 5.81672 6.58535 6.21293
#
# Compressibility (1/GPa) = 0.02303867
#
# Stress axis : x y z
#
# Youngs Moduli (GPa) = 42.03460 134.49308 36.56996
#
# Poissons Ratio (x) = 0.11668 0.51069
# Poissons Ratio (y) = 0.03647 0.10727
# Poissons Ratio (z) = 0.58700 0.39452
#
# Static dielectric constant tensor:
#      x y z
#    x 2.045130 0.000000 -0.772460 
#    y 0.000000 1.713580 0.000000 
#    z -0.772460 0.000000 3.466320 
# 
# From -- ./inp_files/147064.got.cif
#   From: 2010.05.17/outbox.cif.g08.bks.cpg/sg15_74_cif.got.tgz:147064.got - 2010.06.03 18:47:42.
