data_PCOD9263877
_publ_section_title
;
Structure prediction by ZEFSAII (Michael W. Deem and Ramdas Pophale) SiO2 
 PCOD9263877
Probable space group: C 2/C
;
_chemical_formula_sum "Si O2"
_cell_formula_units_Z 52
_cell_length_a 11.321078
_cell_length_b 18.656186
_cell_length_c 20.937189
_cell_angle_alpha 90.000000
_cell_angle_beta 139.482166
_cell_angle_gamma 90.000000
_cell_volume 2872.973763
_symmetry_space_group_name_H-M "C 2/C"
_symmetry_group_IT_number 15
_symmetry_cell_setting 'monoclinic'
loop_
_space_group_symop_operation_xyz
x,y,z
-x,y,1/2-z
-x,-y,-z
x,-y,1/2+z
1/2+x,1/2+y,z
1/2-x,1/2+y,1/2-z
1/2-x,1/2-y,-z
1/2+x,1/2-y,1/2+z
loop_
_atom_site_type_symbol
_atom_site_label
_atom_site_fract_x
_atom_site_fract_y
_atom_site_fract_z
Si Si1 0.729962 0.814355 0.440744
Si Si2 0.942426 0.079747 0.451437
Si Si3 0.500000 0.270946 0.750000
Si Si4 0.565676 0.081854 0.348613
Si Si5 0.201959 0.991907 0.348357
Si Si6 0.793480 0.882059 0.752287
Si Si7 0.072479 0.551794 0.945751
O O1 0.750000 0.750000 0.500000
O O2 0.645395 0.778662 0.343886
O O3 0.608818 0.873458 0.426999
O O4 0.900902 0.861072 0.487099
O O5 0.774094 0.104378 0.426579
O O6 0.873513 0.082227 0.349450
O O7 0.000000 0.000000 0.500000
O O8 0.410087 0.318741 0.769296
O O9 0.500000 0.065548 0.250000
O O10 0.416803 0.135449 0.317430
O O11 0.556906 0.009950 0.386431
O O12 0.206965 0.058367 0.302270
O O13 0.257979 0.026670 0.439673
O O14 0.000000 0.960155 0.250000
O O15 0.381502 0.945271 0.405692
#
# Coordination Sequence:
#
# PCOD9263877 Si02
#       7
#     8   8   4   8   8   8   8
#     4  12  24  39  60  88 127 160 206 252 310 387
#     4  11  21  38  64  91 119 159 210 263 309 358
#     4  12  24  38  62  88 128 174 194 250 320 386
#     4   9  20  36  62  88 116 151 204 264 301 354
#     4  10  19  34  62  86 120 161 201 261 312 361
#     4  10  20  38  59  87 121 162 205 241 315 372
#     4  10  21  36  57  93 120 154 211 259 306 367
#
# _framework density 18.099712
#
# number of rings (size 3 to 8) (size 9 to 14) (size 15 to 20)
#    0.000    1.538    3.846    1.846    1.077    1.231 
#    0.000    0.769    3.385    0.000    0.000    0.000 
#    0.000    0.000    0.000    0.000    0.000    0.000 
#
# Total GULP energy -144746.146172 kJ/mol
# GULP energy per Si atom -5567.159468 kJ/mol
# Density = 1.805852 g / cm^3
# Si number density = 18.099712 Si / 1000 Ang^3
#
#
#
# Elastic Constant Matrix: (Units=GPa)
#
#
# Indices 1 2 3 4 5 6 
#
# 1 102.2286 38.4265 33.9376 0.0000 24.5539 0.0000
# 2 38.4265 75.2424 30.4045 0.0000 11.0445 0.0000
# 3 33.9376 30.4045 79.5485 0.0000 15.9758 0.0000
# 4 0.0000 0.0000 0.0000 29.7201 0.0000 -1.7624
# 5 24.5539 11.0445 15.9758 0.0000 38.6140 0.0000
# 6 0.0000 0.0000 0.0000 -1.7624 0.0000 29.0587
#
#
#
# Elastic Compliance Matrix: (Units=1/GPa)
#
#
# Indices 1 2 3 4 5 6 
#
# 1 0.014190 -0.005182 -0.002791 0.000000 -0.006387 0.000000
# 2 -0.005182 0.017782 -0.004609 0.000000 0.000116 0.000000
# 3 -0.002791 -0.004609 0.016253 0.000000 -0.003631 0.000000
# 4 0.000000 0.000000 0.000000 0.033769 0.000000 0.002048
# 5 -0.006387 0.000116 -0.003631 0.000000 0.031428 0.000000
# 6 0.000000 0.000000 0.000000 0.002048 0.000000 0.034537
#
#
# Mechanical properties :
#
#
# Convention : Reuss Voigt Hill
#
# Bulk Modulus (GPa) = 43.36236 51.39518 47.37877
# Shear Modulus (GPa) = 27.65345 29.76196 28.70770
#
# Velocity S-wave (km/s) = 3.91300 4.05944 3.98689
# Velocity P-wave (km/s) = 6.66520 7.10136 6.88673
#
# Compressibility (1/GPa) = 0.02306148
#
# Stress axis : x y z
#
# Youngs Moduli (GPa) = 70.47118 56.23585 61.52891
#
# Poissons Ratio (x) = 0.29140 0.17171
# Poissons Ratio (y) = 0.36517 0.28360
# Poissons Ratio (z) = 0.19667 0.25920
#
# Static dielectric constant tensor:
#      x y z
#    x 1.685850 0.000000 0.066860 
#    y 0.000000 1.578650 0.000000 
#    z 0.066860 0.000000 1.670570 
# 
# From -- ./inp_files/270006.got.cif
#   From: 2010.05.17/outbox.cif.g08.bks.cpg/sg15_136_cif.got.tgz:270006.got - 2010.06.03 18:47:42.
