data_PCOD9263073
_publ_section_title
;
Structure prediction by ZEFSAII (Michael W. Deem and Ramdas Pophale) SiO2 
 PCOD9263073
Probable space group: C 2/C
;
_chemical_formula_sum "Si O2"
_cell_formula_units_Z 40
_cell_length_a 26.674826
_cell_length_b 9.214962
_cell_length_c 20.505412
_cell_angle_alpha 90.000000
_cell_angle_beta 156.074411
_cell_angle_gamma 90.000000
_cell_volume 2044.127133
_symmetry_space_group_name_H-M "C 2/C"
_symmetry_group_IT_number 15
_symmetry_cell_setting 'monoclinic'
loop_
_space_group_symop_operation_xyz
x,y,z
-x,y,1/2-z
-x,-y,-z
x,-y,1/2+z
1/2+x,1/2+y,z
1/2-x,1/2+y,1/2-z
1/2-x,1/2-y,-z
1/2+x,1/2-y,1/2+z
loop_
_atom_site_type_symbol
_atom_site_label
_atom_site_fract_x
_atom_site_fract_y
_atom_site_fract_z
Si Si1 0.592821 0.529272 0.921799
Si Si2 0.275739 0.294942 0.117930
Si Si3 0.597199 0.075363 0.307690
Si Si4 0.421208 0.530042 0.341981
Si Si5 0.802133 0.694438 0.631802
O O1 0.500000 0.530338 0.750000
O O2 0.511517 0.505181 0.888862
O O3 0.673148 0.677589 0.015985
O O4 0.691126 0.398224 0.031463
O O5 0.395009 0.204342 0.235209
O O6 0.312991 0.409824 0.215772
O O7 0.226527 0.394204 0.999490
O O8 0.500000 0.083229 0.250000
O O9 0.595572 0.924034 0.268538
O O10 0.500000 0.500000 0.500000
O O11 0.357739 0.682875 0.245402
O O12 0.750000 0.750000 0.500000
#
# Coordination Sequence:
#
# PCOD9263073 Si02
#       5
#     8   8   8   8   8
#     4  11  22  41  68  92 127 167 213 274 318 379
#     4  10  20  38  58  89 126 164 211 255 322 390
#     4  10  19  33  62  93 118 154 208 268 312 368
#     4  12  26  42  61  93 135 172 209 268 331 381
#     4  11  22  39  63  97 121 159 222 263 311 385
#
# _framework density 19.568256000000002
#
# number of rings (size 3 to 8) (size 9 to 14) (size 15 to 20)
#    0.000    1.200    4.000    4.200    2.800    1.600 
#    0.000    4.000    0.000    0.000    0.000    0.000 
#    0.000    0.000    0.000    0.000    0.000    0.000 
#
# Total GULP energy -111536.286222 kJ/mol
# GULP energy per Si atom -5576.814311 kJ/mol
# Density = 1.952372 g / cm^3
# Si number density = 19.568256 Si / 1000 Ang^3
#
#
#
# Elastic Constant Matrix: (Units=GPa)
#
#
# Indices 1 2 3 4 5 6 
#
# 1 88.5975 39.7724 36.1191 0.0000 11.9320 0.0000
# 2 39.7724 167.0871 81.8350 0.0000 -2.9955 0.0000
# 3 36.1191 81.8350 97.2203 0.0000 -15.0943 0.0000
# 4 0.0000 0.0000 0.0000 32.2884 0.0000 6.8245
# 5 11.9320 -2.9955 -15.0943 0.0000 41.2172 0.0000
# 6 0.0000 0.0000 0.0000 6.8245 0.0000 15.9524
#
#
#
# Elastic Compliance Matrix: (Units=1/GPa)
#
#
# Indices 1 2 3 4 5 6 
#
# 1 0.014924 -0.000777 -0.005906 0.000000 -0.006540 0.000000
# 2 -0.000777 0.010481 -0.008886 0.000000 -0.002267 0.000000
# 3 -0.005906 -0.008886 0.021338 0.000000 0.008878 0.000000
# 4 0.000000 0.000000 0.000000 0.034050 0.000000 -0.014567
# 5 -0.006540 -0.002267 0.008878 0.000000 0.029241 0.000000
# 6 0.000000 0.000000 0.000000 -0.014567 0.000000 0.068918
#
#
# Mechanical properties :
#
#
# Convention : Reuss Voigt Hill
#
# Bulk Modulus (GPa) = 64.07817 74.26200 69.17008
# Shear Modulus (GPa) = 23.22421 30.90351 27.06386
#
# Velocity S-wave (km/s) = 3.44878 3.97831 3.72297
# Velocity P-wave (km/s) = 6.97681 7.68994 7.34204
#
# Compressibility (1/GPa) = 0.01560594
#
# Stress axis : x y z
#
# Youngs Moduli (GPa) = 67.00492 95.40739 46.86449
#
# Poissons Ratio (x) = 0.07416 0.27677
# Poissons Ratio (y) = 0.05208 0.41643
# Poissons Ratio (z) = 0.39571 0.84778
#
# Static dielectric constant tensor:
#      x y z
#    x 1.712370 0.000000 0.020660 
#    y 0.000000 1.760690 0.000000 
#    z 0.020660 0.000000 1.743230 
# 
# From -- ./inp_files/102782.got.cif
#   From: 2010.05.17/outbox.cif.g08.bks.cpg/sg15_52_cif.got.tgz:102782.got - 2010.06.03 18:47:42.
