data_PCOD9263627
_publ_section_title
;
Structure prediction by ZEFSAII (Michael W. Deem and Ramdas Pophale) SiO2 
 PCOD9263627
Probable space group: C 2/C
;
_chemical_formula_sum "Si O2"
_cell_formula_units_Z 56
_cell_length_a 20.067113
_cell_length_b 8.571593
_cell_length_c 17.246751
_cell_angle_alpha 90.000000
_cell_angle_beta 53.752566
_cell_angle_gamma 90.000000
_cell_volume 2392.448138
_symmetry_space_group_name_H-M "C 2/C"
_symmetry_group_IT_number 15
_symmetry_cell_setting 'monoclinic'
loop_
_space_group_symop_operation_xyz
x,y,z
-x,y,1/2-z
-x,-y,-z
x,-y,1/2+z
1/2+x,1/2+y,z
1/2-x,1/2+y,1/2-z
1/2-x,1/2-y,-z
1/2+x,1/2-y,1/2+z
loop_
_atom_site_type_symbol
_atom_site_label
_atom_site_fract_x
_atom_site_fract_y
_atom_site_fract_z
Si Si1 0.656809 0.154751 0.020982
Si Si2 0.914963 0.155532 0.783084
Si Si3 0.228629 0.977066 0.941938
Si Si4 0.025039 0.376768 0.900257
Si Si5 0.336221 0.907756 0.224043
Si Si6 0.917432 0.104494 0.542964
Si Si7 0.808816 0.043309 0.253599
O O1 0.621622 0.242186 0.122575
O O2 0.720572 0.028699 0.012031
O O3 0.573485 0.107526 0.034867
O O4 0.702745 0.295964 0.945282
O O5 0.851220 0.027064 0.799348
O O6 0.000000 0.075938 0.750000
O O7 0.942473 0.268087 0.693572
O O8 0.294609 0.030826 0.832220
O O9 0.141292 0.070967 0.991704
O O10 0.070748 0.537985 0.851821
O O11 0.055481 0.279469 0.954301
O O12 0.285464 0.993703 0.190755
O O13 0.322360 0.724791 0.233440
O O14 0.855163 0.045321 0.652131
O O15 0.000000 0.000000 0.500000
#
# Coordination Sequence:
#
# PCOD9263627 Si02
#       7
#     8   8   8   8   8   8   8
#     4  10  19  34  58  87 115 155 192 233 301 360
#     4   9  18  35  56  83 113 153 191 232 287 358
#     4  10  20  32  58  88 116 150 190 244 292 356
#     4  10  19  36  61  83 112 155 199 241 289 353
#     4  11  21  38  59  88 113 151 200 250 289 347
#     4  10  19  36  60  84 115 151 196 244 295 347
#     4  10  22  36  60  85 115 151 198 244 293 346
#
# _framework density 23.406986
#
# number of rings (size 3 to 8) (size 9 to 14) (size 15 to 20)
#    0.000    2.000    2.857    2.571    2.000    0.000 
#    2.571    1.429    0.000    3.429    0.000    0.000 
#    0.000    0.000    0.000    0.000    0.000    0.000 
#
# Total GULP energy -156439.445384 kJ/mol
# GULP energy per Si atom -5587.123049 kJ/mol
# Density = 2.335371 g / cm^3
# Si number density = 23.406986 Si / 1000 Ang^3
#
#
#
# Elastic Constant Matrix: (Units=GPa)
#
#
# Indices 1 2 3 4 5 6 
#
# 1 145.8618 59.3855 25.4110 0.0000 -18.7023 0.0001
# 2 59.3855 101.3476 23.4870 0.0000 2.1296 0.0001
# 3 25.4110 23.4870 60.2738 0.0000 -13.2522 0.0000
# 4 0.0000 0.0000 0.0000 28.3781 0.0000 2.0051
# 5 -18.7023 2.1296 -13.2522 0.0000 34.6392 0.0000
# 6 0.0001 0.0001 0.0000 2.0051 0.0000 31.0661
#
#
#
# Elastic Compliance Matrix: (Units=1/GPa)
#
#
# Indices 1 2 3 4 5 6 
#
# 1 0.010073 -0.005842 -0.000759 0.000000 0.005507 0.000000
# 2 -0.005842 0.014436 -0.004423 0.000000 -0.005734 0.000000
# 3 -0.000759 -0.004423 0.020313 0.000000 0.007633 0.000000
# 4 0.000000 0.000000 0.000000 0.035400 0.000000 -0.002285
# 5 0.005507 -0.005734 0.007633 0.000000 0.035115 0.000000
# 6 0.000000 0.000000 0.000000 -0.002285 0.000000 0.032337
#
#
# Mechanical properties :
#
#
# Convention : Reuss Voigt Hill
#
# Bulk Modulus (GPa) = 43.91191 58.22779 51.06985
# Shear Modulus (GPa) = 28.19884 32.09667 30.14776
#
# Velocity S-wave (km/s) = 3.47467 3.70705 3.59274
# Velocity P-wave (km/s) = 5.90751 6.57672 6.25107
#
# Compressibility (1/GPa) = 0.02277287
#
# Stress axis : x y z
#
# Youngs Moduli (GPa) = 99.27881 69.27311 49.22991
#
# Poissons Ratio (x) = 0.40469 0.03738
# Poissons Ratio (y) = 0.57998 0.21774
# Poissons Ratio (z) = 0.07538 0.30639
#
# Static dielectric constant tensor:
#      x y z
#    x 2.013150 0.000000 0.036260 
#    y 0.000000 1.841960 0.000000 
#    z 0.036260 0.000000 1.916010 
# 
# From -- ./inp_files/251508.got.cif
#   From: 2010.05.17/outbox.cif.g08.bks.cpg/sg15_126_cif.got.tgz:251508.got - 2010.06.03 18:47:42.
