data_PCOD9263384
_publ_section_title
;
Structure prediction by ZEFSAII (Michael W. Deem and Ramdas Pophale) SiO2 
 PCOD9263384
Probable space group: C 2/C
;
_chemical_formula_sum "Si O2"
_cell_formula_units_Z 64
_cell_length_a 11.847411
_cell_length_b 24.402050
_cell_length_c 12.207169
_cell_angle_alpha 90.000000
_cell_angle_beta 108.367338
_cell_angle_gamma 90.000000
_cell_volume 3349.318672
_symmetry_space_group_name_H-M "C 2/C"
_symmetry_group_IT_number 15
_symmetry_cell_setting 'monoclinic'
loop_
_space_group_symop_operation_xyz
x,y,z
-x,y,1/2-z
-x,-y,-z
x,-y,1/2+z
1/2+x,1/2+y,z
1/2-x,1/2+y,1/2-z
1/2-x,1/2-y,-z
1/2+x,1/2-y,1/2+z
loop_
_atom_site_type_symbol
_atom_site_label
_atom_site_fract_x
_atom_site_fract_y
_atom_site_fract_z
Si Si1 0.943456 0.686557 0.854676
Si Si2 0.260578 0.966845 0.606760
Si Si3 0.873851 0.198118 0.277968
Si Si4 0.537781 0.585459 0.133887
Si Si5 0.693761 0.194374 0.027572
Si Si6 0.117444 0.545255 0.143245
Si Si7 0.772801 0.919586 0.494280
Si Si8 0.885397 0.575243 0.943979
O O1 0.864133 0.741626 0.826699
O O2 0.000000 0.679050 0.750000
O O3 0.880627 0.630914 0.874552
O O4 0.052272 0.698142 0.972512
O O5 0.131427 0.958008 0.618504
O O6 0.353855 0.943832 0.722824
O O7 0.279289 0.936726 0.496860
O O8 0.279927 0.031608 0.594147
O O9 0.898157 0.144727 0.358513
O O10 0.762651 0.186581 0.163787
O O11 0.000000 0.201593 0.250000
O O12 0.500000 0.579047 0.250000
O O13 0.414275 0.581982 0.032202
O O14 0.726443 0.141603 0.963733
O O15 0.750000 0.250000 0.000000
O O16 0.228829 0.563686 0.102846
O O17 0.005029 0.574570 0.054606
O O18 0.102499 0.479832 0.124302
#
# Coordination Sequence:
#
# PCOD9263384 Si02
#       8
#     8   8   8   8   8   8   8   8
#     4  11  22  35  58  88 117 149 190 244 293 337
#     4  11  23  36  57  83 116 157 190 236 291 341
#     4  10  19  34  56  82 112 147 191 243 280 338
#     4  11  19  38  60  78 112 150 200 240 285 338
#     4  12  19  33  56  87 116 144 194 239 291 337
#     4  10  20  37  53  77 119 156 182 231 282 347
#     4  11  21  35  57  87 109 148 196 239 281 346
#     4  10  23  35  53  85 120 148 192 226 291 357
#
# _framework density 19.108363000000001
#
# number of rings (size 3 to 8) (size 9 to 14) (size 15 to 20)
#    0.000    1.250    7.500    0.750    1.750    0.000 
#    0.000    0.625    0.000    0.000    0.000    0.000 
#    0.000    0.000    0.000    0.000    0.000    0.000 
#
# Total GULP energy -178444.106519 kJ/mol
# GULP energy per Si atom -5576.378329 kJ/mol
# Density = 1.906487 g / cm^3
# Si number density = 19.108363 Si / 1000 Ang^3
#
#
#
# Elastic Constant Matrix: (Units=GPa)
#
#
# Indices 1 2 3 4 5 6 
#
# 1 49.8709 13.5887 14.6799 0.0000 4.5796 0.0000
# 2 13.5887 132.7500 14.5018 0.0000 -14.1752 0.0000
# 3 14.6799 14.5018 53.6043 0.0000 5.5117 0.0000
# 4 0.0000 0.0000 0.0000 22.5697 0.0000 1.1032
# 5 4.5796 -14.1752 5.5117 0.0000 27.7716 0.0000
# 6 0.0000 0.0000 0.0000 1.1032 0.0000 22.2766
#
#
#
# Elastic Compliance Matrix: (Units=1/GPa)
#
#
# Indices 1 2 3 4 5 6 
#
# 1 0.022511 -0.002139 -0.005198 0.000000 -0.003772 0.000000
# 2 -0.002139 0.008550 -0.002258 0.000000 0.005165 0.000000
# 3 -0.005198 -0.002258 0.021152 0.000000 -0.004493 0.000000
# 4 0.000000 0.000000 0.000000 0.044415 0.000000 -0.002200
# 5 -0.003772 0.005165 -0.004493 0.000000 0.040158 0.000000
# 6 0.000000 0.000000 0.000000 -0.002200 0.000000 0.044999
#
#
# Mechanical properties :
#
#
# Convention : Reuss Voigt Hill
#
# Bulk Modulus (GPa) = 30.28331 35.75179 33.01755
# Shear Modulus (GPa) = 23.58668 27.42058 25.50363
#
# Velocity S-wave (km/s) = 3.51716 3.79225 3.65730
# Velocity P-wave (km/s) = 5.69004 6.15837 5.92883
#
# Compressibility (1/GPa) = 0.03302149
#
# Stress axis : x y z
#
# Youngs Moduli (GPa) = 44.42225 116.95644 47.27740
#
# Poissons Ratio (x) = 0.25020 0.24576
# Poissons Ratio (y) = 0.09503 0.10677
# Poissons Ratio (z) = 0.23092 0.26413
#
# Static dielectric constant tensor:
#      x y z
#    x 1.688370 0.000000 0.020970 
#    y 0.000000 1.696500 0.000000 
#    z 0.020970 0.000000 1.690660 
# 
# From -- ./inp_files/91300.got.cif
#   From: 2010.05.17/outbox.cif.g08.bks.cpg/sg15_46_cif.got.tgz:91300.got - 2010.06.03 18:47:42.
