data_PCOD9263873
_publ_section_title
;
Structure prediction by ZEFSAII (Michael W. Deem and Ramdas Pophale) SiO2 
 PCOD9263873
Probable space group: C 2/C
;
_chemical_formula_sum "Si O2"
_cell_formula_units_Z 60
_cell_length_a 25.335561
_cell_length_b 17.194698
_cell_length_c 8.802374
_cell_angle_alpha 90.000000
_cell_angle_beta 54.935639
_cell_angle_gamma 90.000000
_cell_volume 3138.682680
_symmetry_space_group_name_H-M "C 2/C"
_symmetry_group_IT_number 15
_symmetry_cell_setting 'monoclinic'
loop_
_space_group_symop_operation_xyz
x,y,z
-x,y,1/2-z
-x,-y,-z
x,-y,1/2+z
1/2+x,1/2+y,z
1/2-x,1/2+y,1/2-z
1/2-x,1/2-y,-z
1/2+x,1/2-y,1/2+z
loop_
_atom_site_type_symbol
_atom_site_label
_atom_site_fract_x
_atom_site_fract_y
_atom_site_fract_z
Si Si1 0.299482 0.408670 0.732419
Si Si2 0.035777 0.432861 0.534641
Si Si3 0.680485 0.070927 0.846868
Si Si4 0.760557 0.044027 0.995447
Si Si5 0.000000 0.997563 0.250000
Si Si6 0.548834 0.220167 0.806965
Si Si7 0.436830 0.610011 0.114937
Si Si8 0.305855 0.188509 0.934283
O O1 0.302054 0.406620 0.545667
O O2 0.362091 0.370679 0.702972
O O3 0.302336 0.493184 0.809267
O O4 0.230181 0.373438 0.896417
O O5 0.107892 0.459228 0.460286
O O6 0.039663 0.353634 0.432005
O O7 0.000000 0.417504 0.750000
O O8 0.000000 0.500000 0.500000
O O9 0.682640 0.149784 0.748434
O O10 0.723707 0.012426 0.674736
O O11 0.708530 0.081691 0.968787
O O12 0.964377 0.941058 0.429289
O O13 0.951787 0.055136 0.236508
O O14 0.500000 0.210155 0.750000
O O15 0.534126 0.304239 0.906179
O O16 0.624090 0.216870 0.628043
O O17 0.250000 0.250000 0.000000
#
# Coordination Sequence:
#
# PCOD9263873 Si02
#       8
#     8   8   8   8   4   8   8   8
#     4  10  19  34  62  84 119 153 199 252 300 366
#     4  11  23  38  62  89 122 164 208 248 301 365
#     4   9  19  34  57  81 119 149 196 247 297 354
#     4   9  18  33  54  88 112 145 191 250 305 347
#     4  10  24  38  66  90 122 164 206 258 310 378
#     4  11  24  41  62  90 128 165 206 255 312 371
#     4  11  21  41  61  91 123 160 211 252 313 367
#     4  10  20  38  58  82 115 164 196 244 304 357
#
# _framework density 19.116299000000001
#
# number of rings (size 3 to 8) (size 9 to 14) (size 15 to 20)
#    0.000    1.867    2.000    2.000    0.933    5.333 
#    0.000    2.000    0.000    0.000    0.000    0.000 
#    0.000    0.000    0.000    0.000    0.000    0.000 
#
# Total GULP energy -167100.534798 kJ/mol
# GULP energy per Si atom -5570.017827 kJ/mol
# Density = 1.907279 g / cm^3
# Si number density = 19.116299 Si / 1000 Ang^3
#
#
#
# Elastic Constant Matrix: (Units=GPa)
#
#
# Indices 1 2 3 4 5 6 
#
# 1 143.7251 27.0941 41.6355 0.0000 17.6233 0.0000
# 2 27.0941 74.2115 16.6465 0.0000 8.3925 0.0000
# 3 41.6355 16.6465 59.1044 0.0000 12.3649 0.0000
# 4 0.0000 0.0000 0.0000 15.1480 0.0000 -3.8377
# 5 17.6233 8.3925 12.3649 0.0000 35.5149 0.0000
# 6 0.0000 0.0000 0.0000 -3.8377 0.0000 26.6295
#
#
#
# Elastic Compliance Matrix: (Units=1/GPa)
#
#
# Indices 1 2 3 4 5 6 
#
# 1 0.009164 -0.001870 -0.005468 0.000000 -0.002202 0.000000
# 2 -0.001870 0.014918 -0.002525 0.000000 -0.001718 0.000000
# 3 -0.005468 -0.002525 0.022423 0.000000 -0.004497 0.000000
# 4 0.000000 0.000000 0.000000 0.068517 0.000000 0.009874
# 5 -0.002202 -0.001718 -0.004497 0.000000 0.031221 0.000000
# 6 0.000000 0.000000 0.000000 0.009874 0.000000 0.038975
#
#
# Mechanical properties :
#
#
# Convention : Reuss Voigt Hill
#
# Bulk Modulus (GPa) = 37.34240 49.75479 43.54859
# Shear Modulus (GPa) = 23.37839 28.23615 25.80727
#
# Velocity S-wave (km/s) = 3.50087 3.84744 3.67824
# Velocity P-wave (km/s) = 5.99318 6.76912 6.39293
#
# Compressibility (1/GPa) = 0.02677921
#
# Stress axis : x y z
#
# Youngs Moduli (GPa) = 109.11779 67.03101 44.59661
#
# Poissons Ratio (x) = 0.12536 0.24387
# Poissons Ratio (y) = 0.20408 0.11260
# Poissons Ratio (z) = 0.59670 0.16924
#
# Static dielectric constant tensor:
#      x y z
#    x 2.066210 0.000000 -0.113900 
#    y 0.000000 1.718930 0.000000 
#    z -0.113900 0.000000 1.699940 
# 
# From -- ./inp_files/56560.got.cif
#   From: 2010.05.17/outbox.cif.g08.bks.cpg/sg15_29_cif.got.tgz:56560.got - 2010.06.03 18:47:42.
