data_PCOD9263395
_publ_section_title
;
Structure prediction by ZEFSAII (Michael W. Deem and Ramdas Pophale) SiO2 
 PCOD9263395
Probable space group: C 2/C
;
_chemical_formula_sum "Si O2"
_cell_formula_units_Z 52
_cell_length_a 16.373750
_cell_length_b 10.341346
_cell_length_c 14.572917
_cell_angle_alpha 90.000000
_cell_angle_beta 73.943945
_cell_angle_gamma 90.000000
_cell_volume 2371.326160
_symmetry_space_group_name_H-M "C 2/C"
_symmetry_group_IT_number 15
_symmetry_cell_setting 'monoclinic'
loop_
_space_group_symop_operation_xyz
x,y,z
-x,y,1/2-z
-x,-y,-z
x,-y,1/2+z
1/2+x,1/2+y,z
1/2-x,1/2+y,1/2-z
1/2-x,1/2-y,-z
1/2+x,1/2-y,1/2+z
loop_
_atom_site_type_symbol
_atom_site_label
_atom_site_fract_x
_atom_site_fract_y
_atom_site_fract_z
Si Si1 0.158343 0.207013 0.993754
Si Si2 0.831315 0.917025 0.525483
Si Si3 0.586850 0.201068 0.690826
Si Si4 0.598861 0.541276 0.305233
Si Si5 0.500000 0.689816 0.750000
Si Si6 0.171532 0.702593 0.128741
Si Si7 0.765267 0.154353 0.720367
O O1 0.093936 0.285598 0.078357
O O2 0.250000 0.250000 0.000000
O O3 0.171917 0.209764 0.879510
O O4 0.145539 0.056335 0.021477
O O5 0.893101 0.904368 0.594203
O O6 0.837904 0.800140 0.453675
O O7 0.729203 0.917943 0.579467
O O8 0.500000 0.135776 0.750000
O O9 0.585869 0.344414 0.737540
O O10 0.671917 0.142358 0.708147
O O11 0.536002 0.417902 0.311848
O O12 0.692127 0.479171 0.261584
O O13 0.422793 0.784155 0.801341
O O14 0.231431 0.759629 0.190405
#
# Coordination Sequence:
#
# PCOD9263395 Si02
#       7
#     8   8   8   8   4   8   8
#     4   9  19  35  57  79 111 152 191 228 285 348
#     4  10  20  35  57  82 115 160 189 232 293 361
#     4  11  20  35  58  88 113 139 191 249 284 333
#     4  10  19  34  56  83 116 149 190 235 293 338
#     4  10  20  34  54  86 120 146 190 248 286 332
#     4  10  20  36  54  84 118 151 192 237 293 350
#     4   9  19  36  54  77 114 155 182 222 291 350
#
# _framework density 21.928659
#
# number of rings (size 3 to 8) (size 9 to 14) (size 15 to 20)
#    0.000    2.154    2.308    1.846    0.000    0.615 
#    5.538    0.000   15.231    0.000    0.000   29.077 
#    0.000    0.000    0.000    0.000    0.000    0.000 
#
# Total GULP energy -144750.858509 kJ/mol
# GULP energy per Si atom -5567.340712 kJ/mol
# Density = 2.187875 g / cm^3
# Si number density = 21.928659 Si / 1000 Ang^3
#
#
#
# Elastic Constant Matrix: (Units=GPa)
#
#
# Indices 1 2 3 4 5 6 
#
# 1 105.0508 5.2733 40.4027 0.0000 -7.0680 0.0000
# 2 5.2733 9.4388 -2.1429 0.0000 2.4296 0.0000
# 3 40.4027 -2.1429 82.3556 0.0000 5.8966 0.0000
# 4 0.0000 0.0000 0.0000 23.3006 0.0000 6.6380
# 5 -7.0680 2.4296 5.8966 0.0000 33.5290 0.0000
# 6 0.0000 0.0000 0.0000 6.6380 0.0000 9.3335
#
#
#
# Elastic Compliance Matrix: (Units=1/GPa)
#
#
# Indices 1 2 3 4 5 6 
#
# 1 0.013031 -0.010079 -0.006992 0.000000 0.004707 0.000000
# 2 -0.010079 0.116710 0.008851 0.000000 -0.012138 0.000000
# 3 -0.006992 0.008851 0.016158 0.000000 -0.004957 0.000000
# 4 0.000000 0.000000 0.000000 0.053822 0.000000 -0.038278
# 5 0.004707 -0.012138 -0.004957 0.000000 0.032568 0.000000
# 6 0.000000 0.000000 0.000000 -0.038278 0.000000 0.134364
#
#
# Mechanical properties :
#
#
# Convention : Reuss Voigt Hill
#
# Bulk Modulus (GPa) = 7.72453 31.54572 19.63512
# Shear Modulus (GPa) = 11.73027 23.45344 17.59185
#
# Velocity S-wave (km/s) = 2.31536 3.27392 2.83544
# Velocity P-wave (km/s) = 3.26773 5.35801 4.43770
#
# Compressibility (1/GPa) = 0.12945778
#
# Stress axis : x y z
#
# Youngs Moduli (GPa) = 76.73974 8.56822 61.88905
#
# Poissons Ratio (x) = 0.08636 0.43274
# Poissons Ratio (y) = 0.77348 -0.54776
# Poissons Ratio (z) = 0.53658 -0.07583
#
# Static dielectric constant tensor:
#      x y z
#    x 1.997820 0.000000 -0.128610 
#    y 0.000000 1.809740 0.000000 
#    z -0.128610 0.000000 1.955530 
# 
# From -- ./inp_files/160797.got.cif
#   From: 2010.05.17/outbox.cif.g08.bks.cpg/sg15_81_cif.got.tgz:160797.got - 2010.06.03 18:47:42.
