data_PCOD9263856
_publ_section_title
;
Structure prediction by ZEFSAII (Michael W. Deem and Ramdas Pophale) SiO2 
 PCOD9263856
Probable space group: C 2/C
;
_chemical_formula_sum "Si O2"
_cell_formula_units_Z 56
_cell_length_a 9.691525
_cell_length_b 11.485056
_cell_length_c 22.241193
_cell_angle_alpha 90.000000
_cell_angle_beta 94.972284
_cell_angle_gamma 90.000000
_cell_volume 2466.299819
_symmetry_space_group_name_H-M "C 2/C"
_symmetry_group_IT_number 15
_symmetry_cell_setting 'monoclinic'
loop_
_space_group_symop_operation_xyz
x,y,z
-x,y,1/2-z
-x,-y,-z
x,-y,1/2+z
1/2+x,1/2+y,z
1/2-x,1/2+y,1/2-z
1/2-x,1/2-y,-z
1/2+x,1/2-y,1/2+z
loop_
_atom_site_type_symbol
_atom_site_label
_atom_site_fract_x
_atom_site_fract_y
_atom_site_fract_z
Si Si1 0.592705 0.528184 0.802101
Si Si2 0.943057 0.510415 0.066234
Si Si3 0.585167 0.964845 0.195053
Si Si4 0.503526 0.708339 0.152634
Si Si5 0.239464 0.278545 0.429419
Si Si6 0.339426 0.380379 0.948242
Si Si7 0.985079 0.882975 0.076788
O O1 0.500000 0.595967 0.750000
O O2 0.751464 0.515821 0.788095
O O3 0.499292 0.411362 0.810523
O O4 0.595625 0.593415 0.865797
O O5 0.851592 0.395296 0.075573
O O6 0.824111 0.607184 0.062300
O O7 0.044160 0.516647 0.127563
O O8 0.000000 0.500000 0.000000
O O9 0.500000 0.010491 0.250000
O O10 0.541321 0.827214 0.187902
O O11 0.351559 0.698012 0.116167
O O12 0.606042 0.706645 0.099714
O O13 0.250000 0.250000 0.500000
O O14 0.394014 0.289371 0.411620
O O15 0.424270 0.500371 0.935956
O O16 0.388140 0.354855 0.017191
#
# Coordination Sequence:
#
# PCOD9263856 Si02
#       7
#     8   8   8   8   8   8   8
#     4  11  25  43  70  90 126 181 224 265 340 401
#     4  10  22  38  62  92 133 170 215 276 337 393
#     4  11  26  45  66  97 137 171 223 283 339 402
#     4  10  22  41  67  93 128 170 221 273 332 405
#     4  10  19  34  61  94 127 165 207 271 339 385
#     4   9  17  34  63  90 125 166 212 263 331 394
#     4   9  18  34  60  93 126 162 216 266 321 400
#
# _framework density 22.706078999999999
#
# number of rings (size 3 to 8) (size 9 to 14) (size 15 to 20)
#    0.000    2.000    1.429    1.286   12.000    0.000 
#    2.571    2.143    0.000    0.000    0.000    0.000 
#    0.000    0.000    0.000    0.000    0.000    0.000 
#
# Total GULP energy -156292.252126 kJ/mol
# GULP energy per Si atom -5581.866147 kJ/mol
# Density = 2.265440 g / cm^3
# Si number density = 22.706079 Si / 1000 Ang^3
#
#
#
# Elastic Constant Matrix: (Units=GPa)
#
#
# Indices 1 2 3 4 5 6 
#
# 1 146.5862 -0.7196 57.7925 0.0000 1.1682 0.0000
# 2 -0.7196 35.2592 8.9267 0.0000 0.6872 0.0000
# 3 57.7925 8.9267 150.9131 0.0000 -7.8187 0.0000
# 4 0.0000 0.0000 0.0000 19.4666 0.0000 2.0154
# 5 1.1682 0.6872 -7.8187 0.0000 40.5749 0.0000
# 6 0.0000 0.0000 0.0000 2.0154 0.0000 27.8435
#
#
#
# Elastic Compliance Matrix: (Units=1/GPa)
#
#
# Indices 1 2 3 4 5 6 
#
# 1 0.008097 0.000993 -0.003205 0.000000 -0.000867 0.000000
# 2 0.000993 0.028942 -0.002141 0.000000 -0.000931 0.000000
# 3 -0.003205 -0.002141 0.008067 0.000000 0.001683 0.000000
# 4 0.000000 0.000000 0.000000 0.051758 0.000000 -0.003746
# 5 -0.000867 -0.000931 0.001683 0.000000 0.025011 0.000000
# 6 0.000000 0.000000 0.000000 -0.003746 0.000000 0.036186
#
#
# Mechanical properties :
#
#
# Convention : Reuss Voigt Hill
#
# Bulk Modulus (GPa) = 27.47042 51.63975 39.55509
# Shear Modulus (GPa) = 27.94876 35.36092 31.65484
#
# Velocity S-wave (km/s) = 3.51221 3.95059 3.73783
# Velocity P-wave (km/s) = 5.34528 6.60315 6.00723
#
# Compressibility (1/GPa) = 0.03640279
#
# Stress axis : x y z
#
# Youngs Moduli (GPa) = 123.50082 34.55216 123.95685
#
# Poissons Ratio (x) = -0.03433 0.39722
# Poissons Ratio (y) = -0.12269 0.26535
# Poissons Ratio (z) = 0.39576 0.07396
#
# Static dielectric constant tensor:
#      x y z
#    x 1.666940 0.000000 -0.030030 
#    y 0.000000 1.931330 0.000000 
#    z -0.030030 0.000000 1.878030 
# 
# From -- ./inp_files/231601.got.cif
#   From: 2010.05.17/outbox.cif.g08.bks.cpg/sg15_116_cif.got.tgz:231601.got - 2010.06.03 18:47:42.
