data_PCOD9263067
_publ_section_title
;
Structure prediction by ZEFSAII (Michael W. Deem and Ramdas Pophale) SiO2 
 PCOD9263067
Probable space group: C 2/C
;
_chemical_formula_sum "Si O2"
_cell_formula_units_Z 44
_cell_length_a 11.203483
_cell_length_b 29.897197
_cell_length_c 5.735211
_cell_angle_alpha 90.000000
_cell_angle_beta 89.880103
_cell_angle_gamma 90.000000
_cell_volume 1921.020423
_symmetry_space_group_name_H-M "C 2/C"
_symmetry_group_IT_number 15
_symmetry_cell_setting 'monoclinic'
loop_
_space_group_symop_operation_xyz
x,y,z
-x,y,1/2-z
-x,-y,-z
x,-y,1/2+z
1/2+x,1/2+y,z
1/2-x,1/2+y,1/2-z
1/2-x,1/2-y,-z
1/2+x,1/2-y,1/2+z
loop_
_atom_site_type_symbol
_atom_site_label
_atom_site_fract_x
_atom_site_fract_y
_atom_site_fract_z
Si Si1 0.708793 0.905858 0.839578
Si Si2 0.702329 0.178825 0.581373
Si Si3 0.879814 0.149277 0.985872
Si Si4 0.000000 0.473465 0.750000
Si Si5 0.546767 0.566292 0.996197
Si Si6 0.344319 0.735272 0.194702
O O1 0.787016 0.879031 0.647480
O O2 0.616399 0.941691 0.747182
O O3 0.643310 0.865838 0.979571
O O4 0.810476 0.930721 0.993073
O O5 0.800440 0.160527 0.761822
O O6 0.621159 0.217745 0.690650
O O7 0.774030 0.205458 0.382530
O O8 0.991769 0.116415 0.984488
O O9 0.924343 0.198432 0.065501
O O10 0.000000 0.500000 0.500000
O O11 0.500000 0.546349 0.750000
O O12 0.500000 0.549256 0.250000
O O13 0.250000 0.750000 0.000000
#
# Coordination Sequence:
#
# PCOD9263067 Si02
#       6
#     8   8   8   4   8   8
#     4  10  22  41  69  98 131 175 230 283 354 428
#     4   9  15  29  58  88 133 183 230 277 323 397
#     4   9  17  31  60  98 138 180 226 276 336 415
#     4  12  32  54  80 104 130 174 236 308 366 438
#     4  10  19  33  62 102 135 172 220 271 336 417
#     4   8  15  26  47  90 140 186 227 273 317 381
#
# _framework density 22.904492000000001
#
# number of rings (size 3 to 8) (size 9 to 14) (size 15 to 20)
#    0.000    2.545    1.818    0.000    2.545    0.000 
#    0.000    0.000    0.000  101.455    0.000    0.000 
#    0.000    0.000    0.000    0.000    0.000    0.000 
#
# Total GULP energy -122533.490415 kJ/mol
# GULP energy per Si atom -5569.704110 kJ/mol
# Density = 2.285236 g / cm^3
# Si number density = 22.904492 Si / 1000 Ang^3
#
#
#
# Elastic Constant Matrix: (Units=GPa)
#
#
# Indices 1 2 3 4 5 6 
#
# 1 95.4815 54.4848 28.7991 0.0000 14.6146 0.0000
# 2 54.4848 158.3420 49.5062 0.0000 17.9284 0.0000
# 3 28.7991 49.5062 148.8517 0.0000 21.0635 0.0000
# 4 0.0000 0.0000 0.0000 -53.7794 0.0000 50.0583
# 5 14.6146 17.9284 21.0635 0.0000 27.0042 0.0000
# 6 0.0000 0.0000 0.0000 50.0583 0.0000 3.7445
#
#
#
# Elastic Compliance Matrix: (Units=1/GPa)
#
#
# Indices 1 2 3 4 5 6 
#
# 1 0.013599 -0.003985 -0.000718 0.000000 -0.004154 0.000000
# 2 -0.003985 0.008472 -0.001749 0.000000 -0.002104 0.000000
# 3 -0.000718 -0.001749 0.008115 0.000000 -0.004780 0.000000
# 4 0.000000 0.000000 0.000000 -0.001383 0.000000 0.018491
# 5 -0.004154 -0.002104 -0.004780 0.000000 0.044405 0.000000
# 6 0.000000 0.000000 0.000000 0.018491 0.000000 0.019865
#
#
# Mechanical properties :
#
#
# Convention : Reuss Voigt Hill
#
# Bulk Modulus (GPa) = 57.86050 74.25062 66.05556
# Shear Modulus (GPa) = 44.74789 13.38621 29.06705
#
# Velocity S-wave (km/s) = 4.42483 2.42013 3.56624
# Velocity P-wave (km/s) = 7.17091 6.34801 6.77197
#
# Compressibility (1/GPa) = 0.01728295
#
# Stress axis : x y z
#
# Youngs Moduli (GPa) = 73.53239 118.04233 123.22704
#
# Poissons Ratio (x) = 0.47035 0.08848
# Poissons Ratio (y) = 0.29300 0.21551
# Poissons Ratio (z) = 0.05280 0.20645
#
# Static dielectric constant tensor:
#      x y z
#    x 2.883060 0.000000 -0.456140 
#    y 0.000000 1.888460 0.000000 
#    z -0.456140 0.000000 2.168410 
# 
# From -- ./inp_files/5883.got.cif
#   From: 2010.05.17/outbox.cif.g08.bks.cpg/sg15_3_cif.got.tgz:5883.got - 2010.06.03 18:47:42.
