data_PCOD9263813
_publ_section_title
;
Structure prediction by ZEFSAII (Michael W. Deem and Ramdas Pophale) SiO2 
 PCOD9263813
Probable space group: C 2/C
;
_chemical_formula_sum "Si O2"
_cell_formula_units_Z 40
_cell_length_a 21.487649
_cell_length_b 11.845238
_cell_length_c 14.672778
_cell_angle_alpha 90.000000
_cell_angle_beta 26.436190
_cell_angle_gamma 90.000000
_cell_volume 1662.650728
_symmetry_space_group_name_H-M "C 2/C"
_symmetry_group_IT_number 15
_symmetry_cell_setting 'monoclinic'
loop_
_space_group_symop_operation_xyz
x,y,z
-x,y,1/2-z
-x,-y,-z
x,-y,1/2+z
1/2+x,1/2+y,z
1/2-x,1/2+y,1/2-z
1/2-x,1/2-y,-z
1/2+x,1/2-y,1/2+z
loop_
_atom_site_type_symbol
_atom_site_label
_atom_site_fract_x
_atom_site_fract_y
_atom_site_fract_z
Si Si1 0.500000 0.848869 0.250000
Si Si2 0.500000 0.226025 0.250000
Si Si3 0.967086 0.688926 0.589231
Si Si4 0.713271 0.969927 0.693896
Si Si5 0.277636 0.040023 0.536280
Si Si6 0.016408 0.110645 0.563229
O O1 0.530295 0.788902 0.305647
O O2 0.368482 0.930984 0.441738
O O3 0.370014 0.146476 0.446764
O O4 0.534706 0.303089 0.289965
O O5 0.853063 0.594312 0.711142
O O6 0.941707 0.804611 0.571157
O O7 0.109800 0.625968 0.369831
O O8 0.725875 0.953424 0.568927
O O9 0.859541 0.957673 0.552603
O O10 0.122271 0.041098 0.778362
#
# Coordination Sequence:
#
# PCOD9263813 Si02
#       6
#     4   4   8   8   8   8
#     4   9  22  42  64  84 133 184 214 255 312 396
#     4  11  18  28  56  98 131 148 192 269 338 376
#     4  10  22  40  61  92 129 179 215 254 331 389
#     4  10  20  37  59  95 133 165 209 272 326 383
#     4  10  19  34  60  96 129 161 210 272 325 369
#     4  12  20  34  65 101 129 158 214 277 327 381
#
# _framework density 24.057967999999999
#
# number of rings (size 3 to 8) (size 9 to 14) (size 15 to 20)
#    0.000    1.600    4.000    1.800    2.800    0.000 
#    0.000    2.000    0.000    0.000    5.200    0.000 
#    0.000    0.000    0.000    0.000    0.000    0.000 
#
# Total GULP energy -112096.235335 kJ/mol
# GULP energy per Si atom -5604.811767 kJ/mol
# Density = 2.400321 g / cm^3
# Si number density = 24.057968 Si / 1000 Ang^3
#
#
#
# Elastic Constant Matrix: (Units=GPa)
#
#
# Indices 1 2 3 4 5 6 
#
# 1 86.9892 34.8266 16.0544 0.0000 0.3454 0.0000
# 2 34.8266 64.0442 27.3282 0.0000 3.2631 0.0000
# 3 16.0544 27.3282 68.7290 0.0000 -34.0968 0.0000
# 4 0.0000 0.0000 0.0000 -31.4271 0.0000 -34.3698
# 5 0.3454 3.2631 -34.0968 0.0000 57.4702 0.0000
# 6 0.0000 0.0000 0.0000 -34.3698 0.0000 -7.6936
#
#
#
# Elastic Compliance Matrix: (Units=1/GPa)
#
#
# Indices 1 2 3 4 5 6 
#
# 1 0.014703 -0.007955 -0.000129 0.000000 0.000287 0.000000
# 2 -0.007955 0.025948 -0.012990 0.000000 -0.009133 0.000000
# 3 -0.000129 -0.012990 0.028500 0.000000 0.017647 0.000000
# 4 0.000000 0.000000 0.000000 0.008189 0.000000 -0.036583
# 5 0.000287 -0.009133 0.017647 0.000000 0.028387 0.000000
# 6 0.000000 0.000000 0.000000 -0.036583 0.000000 0.033451
#
#
# Mechanical properties :
#
#
# Convention : Reuss Voigt Hill
#
# Bulk Modulus (GPa) = 37.03277 41.79786 39.41532
# Shear Modulus (GPa) = 26.27032 13.10677 19.68854
#
# Velocity S-wave (km/s) = 3.30807 2.33663 2.86384
# Velocity P-wave (km/s) = 5.47883 4.96903 5.23015
#
# Compressibility (1/GPa) = 0.02700311
#
# Stress axis : x y z
#
# Youngs Moduli (GPa) = 68.01248 38.53816 35.08742
#
# Poissons Ratio (x) = 0.30657 0.00454
# Poissons Ratio (y) = 0.54103 0.45579
# Poissons Ratio (z) = 0.00880 0.50062
#
# Static dielectric constant tensor:
#      x y z
#    x 1.865490 0.000000 0.006970 
#    y 0.000000 1.873640 0.000000 
#    z 0.006970 0.000000 1.945250 
# 
# From -- ./inp_files/173101.got.cif
#   From: 2010.05.17/outbox.cif.g08.bks.cpg/sg15_87_cif.got.tgz:173101.got - 2010.06.03 18:47:42.
