data_PCOD9263801
_publ_section_title
;
Structure prediction by ZEFSAII (Michael W. Deem and Ramdas Pophale) SiO2 
 PCOD9263801
Probable space group: C 2/C
;
_chemical_formula_sum "Si O2"
_cell_formula_units_Z 60
_cell_length_a 10.041546
_cell_length_b 25.022416
_cell_length_c 19.250363
_cell_angle_alpha 90.000000
_cell_angle_beta 142.774452
_cell_angle_gamma 90.000000
_cell_volume 2926.114118
_symmetry_space_group_name_H-M "C 2/C"
_symmetry_group_IT_number 15
_symmetry_cell_setting 'monoclinic'
loop_
_space_group_symop_operation_xyz
x,y,z
-x,y,1/2-z
-x,-y,-z
x,-y,1/2+z
1/2+x,1/2+y,z
1/2-x,1/2+y,1/2-z
1/2-x,1/2-y,-z
1/2+x,1/2-y,1/2+z
loop_
_atom_site_type_symbol
_atom_site_label
_atom_site_fract_x
_atom_site_fract_y
_atom_site_fract_z
Si Si1 0.215156 0.419662 0.298955
Si Si2 0.364785 0.292280 0.496701
Si Si3 0.120074 0.630087 0.411010
Si Si4 0.011046 0.905893 0.544130
Si Si5 0.217491 0.277238 0.759966
Si Si6 0.994374 0.837488 0.166930
Si Si7 0.000000 0.252492 0.250000
Si Si8 0.864465 0.533221 0.266548
O O1 0.370029 0.437438 0.428144
O O2 0.336827 0.374633 0.305788
O O3 0.160909 0.470801 0.228796
O O4 0.000000 0.400311 0.250000
O O5 0.250000 0.250000 0.500000
O O6 0.375222 0.355409 0.517484
O O7 0.621562 0.274932 0.605992
O O8 0.208697 0.285743 0.365353
O O9 0.296519 0.619903 0.423402
O O10 0.257410 0.652672 0.532970
O O11 0.939469 0.672099 0.310028
O O12 0.997817 0.573256 0.371560
O O13 0.127765 0.941104 0.650579
O O14 0.075948 0.223560 0.696099
O O15 0.388450 0.280303 0.766261
O O16 0.000000 0.852466 0.250000
O O17 0.000000 0.533714 0.250000
#
# Coordination Sequence:
#
# PCOD9263801 Si02
#       8
#     8   8   8   8   8   8   4   8
#     4  10  22  39  63  91 120 158 209 259 312 359
#     4  10  22  34  55  84 124 159 195 245 302 367
#     4  10  21  39  61  90 121 160 204 259 312 367
#     4  10  19  34  60  91 125 153 202 262 309 356
#     4  11  23  38  61  87 122 165 207 246 312 370
#     4  11  26  39  62  89 127 162 208 251 310 378
#     4  10  22  38  54  82 130 160 200 250 292 356
#     4   9  18  36  63  91 116 152 205 263 310 358
#
# _framework density 20.505011
#
# number of rings (size 3 to 8) (size 9 to 14) (size 15 to 20)
#    0.000    1.867    1.333    2.400    9.333    1.067 
#    0.000    0.667    1.467    0.000    0.000    0.000 
#    0.000    0.000    0.000    0.000    0.000    0.000 
#
# Total GULP energy -167303.472233 kJ/mol
# GULP energy per Si atom -5576.782408 kJ/mol
# Density = 2.045834 g / cm^3
# Si number density = 20.505011 Si / 1000 Ang^3
#
#
#
# Elastic Constant Matrix: (Units=GPa)
#
#
# Indices 1 2 3 4 5 6 
#
# 1 54.7176 7.4423 25.7323 -0.0024 6.3064 -0.0006
# 2 7.4423 101.9940 38.0974 0.0005 7.7758 0.0003
# 3 25.7323 38.0974 138.4889 -0.0108 12.7713 -0.0044
# 4 -0.0024 0.0005 -0.0108 33.4723 -0.0033 3.9116
# 5 6.3064 7.7758 12.7713 -0.0033 23.8364 -0.0009
# 6 -0.0006 0.0003 -0.0044 3.9116 -0.0009 17.9789
#
#
#
# Elastic Compliance Matrix: (Units=1/GPa)
#
#
# Indices 1 2 3 4 5 6 
#
# 1 0.020304 0.000084 -0.003469 0.000000 -0.003540 0.000000
# 2 0.000084 0.011024 -0.002856 -0.000001 -0.002088 -0.000001
# 3 -0.003469 -0.002856 0.008921 0.000002 -0.002930 0.000001
# 4 0.000000 -0.000001 0.000002 0.030655 0.000003 -0.006670
# 5 -0.003540 -0.002088 -0.002930 0.000003 0.045141 0.000001
# 6 0.000000 -0.000001 0.000001 -0.006670 0.000001 0.057072
#
#
# Mechanical properties :
#
#
# Convention : Reuss Voigt Hill
#
# Bulk Modulus (GPa) = 36.01303 48.63827 42.32565
# Shear Modulus (GPa) = 25.66020 29.98609 27.82315
#
# Velocity S-wave (km/s) = 3.54137 3.82825 3.68760
# Velocity P-wave (km/s) = 5.85857 6.58122 6.23038
#
# Compressibility (1/GPa) = 0.02776773
#
# Stress axis : x y z
#
# Youngs Moduli (GPa) = 49.25196 90.70899 112.09185
#
# Poissons Ratio (x) = -0.00764 0.38888
# Poissons Ratio (y) = -0.00415 0.32011
# Poissons Ratio (z) = 0.17087 0.25904
#
# Static dielectric constant tensor:
#      x y z
#    x 1.737940 0.000000 -0.001550 
#    y 0.000000 1.759130 0.000000 
#    z -0.001550 0.000000 1.819740 
# 
# From -- ./inp_files/240868.got.cif
#   From: 2010.05.17/outbox.cif.g08.bks.cpg/sg15_121_cif.got.tgz:240868.got - 2010.06.03 18:47:42.
