data_PCOD9263479
_publ_section_title
;
Structure prediction by ZEFSAII (Michael W. Deem and Ramdas Pophale) SiO2 
 PCOD9263479
Probable space group: C 2/C
;
_chemical_formula_sum "Si O2"
_cell_formula_units_Z 52
_cell_length_a 11.486275
_cell_length_b 26.016464
_cell_length_c 9.011142
_cell_angle_alpha 90.000000
_cell_angle_beta 93.821152
_cell_angle_gamma 90.000000
_cell_volume 2686.833612
_symmetry_space_group_name_H-M "C 2/C"
_symmetry_group_IT_number 15
_symmetry_cell_setting 'monoclinic'
loop_
_space_group_symop_operation_xyz
x,y,z
-x,y,1/2-z
-x,-y,-z
x,-y,1/2+z
1/2+x,1/2+y,z
1/2-x,1/2+y,1/2-z
1/2-x,1/2-y,-z
1/2+x,1/2-y,1/2+z
loop_
_atom_site_type_symbol
_atom_site_label
_atom_site_fract_x
_atom_site_fract_y
_atom_site_fract_z
Si Si1 0.364081 0.111531 0.707692
Si Si2 0.684662 0.104609 0.456010
Si Si3 0.500000 0.828966 0.750000
Si Si4 0.810949 0.303094 0.963815
Si Si5 0.733982 0.995321 0.387439
Si Si6 0.108151 0.984502 0.851136
Si Si7 0.374036 0.630579 0.232198
O O1 0.500000 0.102504 0.750000
O O2 0.347907 0.162812 0.609126
O O3 0.316045 0.062046 0.611913
O O4 0.308163 0.115635 0.867819
O O5 0.584565 0.136454 0.361617
O O6 0.806125 0.117245 0.379706
O O7 0.658354 0.043903 0.430555
O O8 0.418738 0.797798 0.857897
O O9 0.715421 0.336794 0.869830
O O10 0.750000 0.250000 0.000000
O O11 0.858274 0.002236 0.483266
O O12 0.770340 0.003712 0.221208
O O13 0.098760 0.923165 0.847848
O O14 0.000000 0.007050 0.750000
O O15 0.500000 0.657243 0.250000
#
# Coordination Sequence:
#
# PCOD9263479 Si02
#       7
#     8   8   4   8   8   8   8
#     4  12  24  40  62  96 131 163 216 267 314 383
#     4  10  22  39  64  94 132 171 207 256 320 385
#     4  10  22  46  68  92 126 166 210 264 322 384
#     4  11  24  45  68  90 124 161 211 270 321 372
#     4  11  21  35  56  96 129 168 209 246 311 389
#     4  10  19  34  57  82 126 168 207 246 301 364
#     4   9  20  41  62  86 122 165 208 254 310 373
#
# _framework density 19.353636999999999
#
# number of rings (size 3 to 8) (size 9 to 14) (size 15 to 20)
#    0.000    1.538    4.615    0.462    1.077    1.231 
#    2.769    1.538    0.000    0.000    0.000    0.000 
#    0.000    0.000    0.000    0.000    0.000    0.000 
#
# Total GULP energy -144861.443920 kJ/mol
# GULP energy per Si atom -5571.593997 kJ/mol
# Density = 1.930959 g / cm^3
# Si number density = 19.353637 Si / 1000 Ang^3
#
#
#
# Elastic Constant Matrix: (Units=GPa)
#
#
# Indices 1 2 3 4 5 6 
#
# 1 87.2570 24.6940 35.1860 0.0000 5.2873 0.0000
# 2 24.6940 89.6957 32.0938 0.0000 -5.0330 0.0000
# 3 35.1860 32.0938 103.8301 0.0000 -13.1643 0.0000
# 4 0.0000 0.0000 0.0000 18.4122 0.0000 -6.2681
# 5 5.2873 -5.0330 -13.1643 0.0000 32.4748 0.0000
# 6 0.0000 0.0000 0.0000 -6.2681 0.0000 15.7746
#
#
#
# Elastic Compliance Matrix: (Units=1/GPa)
#
#
# Indices 1 2 3 4 5 6 
#
# 1 0.014338 -0.002539 -0.004659 0.000000 -0.004617 0.000000
# 2 -0.002539 0.012990 -0.003001 0.000000 0.001210 0.000000
# 3 -0.004659 -0.003001 0.012835 0.000000 0.005496 0.000000
# 4 0.000000 0.000000 0.000000 0.062808 0.000000 0.024957
# 5 -0.004617 0.001210 0.005496 0.000000 0.033960 0.000000
# 6 0.000000 0.000000 0.000000 0.024957 0.000000 0.073310
#
#
# Mechanical properties :
#
#
# Convention : Reuss Voigt Hill
#
# Bulk Modulus (GPa) = 50.60074 51.63673 51.11873
# Shear Modulus (GPa) = 21.07688 25.91957 23.49822
#
# Velocity S-wave (km/s) = 3.30364 3.66356 3.48825
# Velocity P-wave (km/s) = 6.38390 6.68088 6.53408
#
# Compressibility (1/GPa) = 0.01976256
#
# Stress axis : x y z
#
# Youngs Moduli (GPa) = 69.74703 76.98459 77.91494
#
# Poissons Ratio (x) = 0.19548 0.36302
# Poissons Ratio (y) = 0.17710 0.23384
# Poissons Ratio (z) = 0.32496 0.23105
#
# Static dielectric constant tensor:
#      x y z
#    x 1.737640 0.000000 0.001080 
#    y 0.000000 1.657070 0.000000 
#    z 0.001080 0.000000 1.701750 
# 
# From -- ./inp_files/33653.got.cif
#   From: 2010.05.17/outbox.cif.g08.bks.cpg/sg15_17_cif.got.tgz:33653.got - 2010.06.03 18:47:42.
