data_PCOD9263230
_publ_section_title
;
Structure prediction by ZEFSAII (Michael W. Deem and Ramdas Pophale) SiO2 
 PCOD9263230
Probable space group: C 2/C
;
_chemical_formula_sum "Si O2"
_cell_formula_units_Z 52
_cell_length_a 8.661449
_cell_length_b 16.522831
_cell_length_c 13.649753
_cell_angle_alpha 90.000000
_cell_angle_beta 95.537271
_cell_angle_gamma 90.000000
_cell_volume 1944.323335
_symmetry_space_group_name_H-M "C 2/C"
_symmetry_group_IT_number 15
_symmetry_cell_setting 'monoclinic'
loop_
_space_group_symop_operation_xyz
x,y,z
-x,y,1/2-z
-x,-y,-z
x,-y,1/2+z
1/2+x,1/2+y,z
1/2-x,1/2+y,1/2-z
1/2-x,1/2-y,-z
1/2+x,1/2-y,1/2+z
loop_
_atom_site_type_symbol
_atom_site_label
_atom_site_fract_x
_atom_site_fract_y
_atom_site_fract_z
Si Si1 0.942677 0.739588 0.087033
Si Si2 0.774686 0.797612 0.602102
Si Si3 0.621317 0.514649 0.405920
Si Si4 0.907389 0.421496 0.457867
Si Si5 0.887665 0.209680 0.372859
Si Si6 0.500000 0.947993 0.250000
Si Si7 0.312645 0.471510 0.815515
O O1 0.781382 0.753307 0.135341
O O2 0.113433 0.729094 0.146287
O O3 0.936378 0.653268 0.029816
O O4 0.929093 0.798363 0.992041
O O5 0.750000 0.750000 0.500000
O O6 0.808133 0.893282 0.581551
O O7 0.939162 0.767297 0.654776
O O8 0.732743 0.449801 0.458875
O O9 0.645600 0.501612 0.290883
O O10 0.437670 0.495100 0.401421
O O11 0.000000 0.500000 0.500000
O O12 0.940909 0.403233 0.344861
O O13 0.843430 0.123874 0.323139
O O14 0.364944 0.002881 0.193475
#
# Coordination Sequence:
#
# PCOD9263230 Si02
#       7
#     8   8   8   8   8   4   8
#     4  10  19  34  54  79 112 142 181 233 277 338
#     4   9  17  32  51  77 109 138 179 230 268 330
#     4   9  18  33  53  79 108 141 188 228 280 333
#     4  11  20  35  57  83 116 153 187 232 293 342
#     4   9  19  34  55  79 105 143 191 225 284 329
#     4  10  22  36  56  84 112 146 194 232 292 350
#     4   9  18  34  54  78 103 142 185 240 270 328
#
# _framework density 26.744523999999998
#
# number of rings (size 3 to 8) (size 9 to 14) (size 15 to 20)
#    0.000    2.462    1.538    0.923    2.154    0.000 
#    2.769    6.923    0.000    3.692    0.000    0.000 
#    0.000    0.000    0.000    0.000    0.000    0.000 
#
# Total GULP energy -144965.358365 kJ/mol
# GULP energy per Si atom -5575.590706 kJ/mol
# Density = 2.668365 g / cm^3
# Si number density = 26.744524 Si / 1000 Ang^3
#
#
#
# Elastic Constant Matrix: (Units=GPa)
#
#
# Indices 1 2 3 4 5 6 
#
# 1 262.5389 34.5955 43.4977 0.0000 26.9550 0.0000
# 2 34.5955 78.9285 18.0625 0.0000 17.6691 0.0000
# 3 43.4977 18.0625 92.9259 0.0000 21.8052 0.0000
# 4 0.0000 0.0000 0.0000 23.8365 0.0000 7.6934
# 5 26.9550 17.6691 21.8052 0.0000 39.8535 0.0000
# 6 0.0000 0.0000 0.0000 7.6934 0.0000 39.7620
#
#
#
# Elastic Compliance Matrix: (Units=1/GPa)
#
#
# Indices 1 2 3 4 5 6 
#
# 1 0.004375 -0.001225 -0.001426 0.000000 -0.001636 0.000000
# 2 -0.001225 0.014583 -0.001077 0.000000 -0.005048 0.000000
# 3 -0.001426 -0.001077 0.012964 0.000000 -0.005651 0.000000
# 4 0.000000 0.000000 0.000000 0.044747 0.000000 -0.008658
# 5 -0.001636 -0.005048 -0.005651 0.000000 0.031528 0.000000
# 6 0.000000 0.000000 0.000000 -0.008658 0.000000 0.026825
#
#
# Mechanical properties :
#
#
# Convention : Reuss Voigt Hill
#
# Bulk Modulus (GPa) = 40.87196 69.63385 55.25291
# Shear Modulus (GPa) = 33.19349 43.23957 38.21653
#
# Velocity S-wave (km/s) = 3.52679 4.02526 3.78424
# Velocity P-wave (km/s) = 5.64800 6.90629 6.30860
#
# Compressibility (1/GPa) = 0.02446665
#
# Stress axis : x y z
#
# Youngs Moduli (GPa) = 228.59615 68.57284 77.13632
#
# Poissons Ratio (x) = 0.08400 0.10998
# Poissons Ratio (y) = 0.28003 0.08305
# Poissons Ratio (z) = 0.32593 0.07383
#
# Static dielectric constant tensor:
#      x y z
#    x 2.288060 0.000000 -0.071860 
#    y 0.000000 2.324260 0.000000 
#    z -0.071860 0.000000 2.170060 
# 
# From -- ./inp_files/136146.got.cif
#   From: 2010.05.17/outbox.cif.g08.bks.cpg/sg15_69_cif.got.tgz:136146.got - 2010.06.03 18:47:42.
