data_PCOD9263885
_publ_section_title
;
Structure prediction by ZEFSAII (Michael W. Deem and Ramdas Pophale) SiO2 
 PCOD9263885
Probable space group: C 2/C
;
_chemical_formula_sum "Si O2"
_cell_formula_units_Z 56
_cell_length_a 21.754348
_cell_length_b 14.216420
_cell_length_c 11.884318
_cell_angle_alpha 90.000000
_cell_angle_beta 39.541036
_cell_angle_gamma 90.000000
_cell_volume 2339.904659
_symmetry_space_group_name_H-M "C 2/C"
_symmetry_group_IT_number 15
_symmetry_cell_setting 'monoclinic'
loop_
_space_group_symop_operation_xyz
x,y,z
-x,y,1/2-z
-x,-y,-z
x,-y,1/2+z
1/2+x,1/2+y,z
1/2-x,1/2+y,1/2-z
1/2-x,1/2-y,-z
1/2+x,1/2-y,1/2+z
loop_
_atom_site_type_symbol
_atom_site_label
_atom_site_fract_x
_atom_site_fract_y
_atom_site_fract_z
Si Si1 0.849591 0.000398 0.717023
Si Si2 0.016037 0.120452 0.097113
Si Si3 0.526469 0.845987 0.838422
Si Si4 0.784871 0.669637 0.097917
Si Si5 0.398612 0.797244 0.216008
Si Si6 0.718925 0.183688 0.151665
Si Si7 0.407804 0.636320 0.825071
O O1 0.849545 0.072218 0.821421
O O2 0.882625 0.070447 0.572349
O O3 0.937867 0.931861 0.627304
O O4 0.756912 0.936454 0.831907
O O5 0.986907 0.227046 0.115274
O O6 0.000000 0.108037 0.250000
O O7 0.500000 0.878416 0.750000
O O8 0.632110 0.880989 0.728390
O O9 0.549946 0.732405 0.789217
O O10 0.442056 0.857737 0.050035
O O11 0.696027 0.738092 0.188475
O O12 0.818411 0.710187 0.171398
O O13 0.863140 0.664363 0.886975
O O14 0.750000 0.250000 0.000000
O O15 0.827648 0.153699 0.031645
O O16 0.500000 0.589177 0.750000
#
# Coordination Sequence:
#
# PCOD9263885 Si02
#       7
#     8   8   8   8   8   8   8
#     4  10  21  35  52  85 123 167 203 253 332 396
#     4  10  21  31  53  84 119 164 209 252 323 397
#     4  10  20  37  62  93 119 166 218 281 320 381
#     4  10  22  36  55  88 130 167 210 264 330 404
#     4  10  20  37  57  85 128 166 211 268 325 386
#     4  10  22  35  59  90 122 165 221 272 325 391
#     4  10  19  34  62  89 126 159 205 269 329 396
#
# _framework density 23.932599
#
# number of rings (size 3 to 8) (size 9 to 14) (size 15 to 20)
#    0.000    2.000    1.429    3.000    8.000    0.000 
#    0.000    1.429    0.000    0.857    0.000    0.000 
#    0.000    0.000    0.000    0.000    0.000    0.000 
#
# Total GULP energy -155911.380911 kJ/mol
# GULP energy per Si atom -5568.263604 kJ/mol
# Density = 2.387813 g / cm^3
# Si number density = 23.932599 Si / 1000 Ang^3
#
#
#
# Elastic Constant Matrix: (Units=GPa)
#
#
# Indices 1 2 3 4 5 6 
#
# 1 102.4613 7.9304 71.3966 0.0000 10.2974 0.0000
# 2 7.9304 26.0742 10.6608 0.0000 2.4628 0.0000
# 3 71.3966 10.6608 201.3029 0.0000 19.7160 0.0000
# 4 0.0000 0.0000 0.0000 -17.1844 0.0000 12.5005
# 5 10.2974 2.4628 19.7160 0.0000 50.9664 0.0000
# 6 0.0000 0.0000 0.0000 12.5005 0.0000 11.7315
#
#
#
# Elastic Compliance Matrix: (Units=1/GPa)
#
#
# Indices 1 2 3 4 5 6 
#
# 1 0.013111 -0.002087 -0.004459 0.000000 -0.000823 0.000000
# 2 -0.002087 0.039596 -0.001258 0.000000 -0.001005 0.000000
# 3 -0.004459 -0.001258 0.006778 0.000000 -0.001660 0.000000
# 4 0.000000 0.000000 0.000000 -0.032782 0.000000 0.034931
# 5 -0.000823 -0.001005 -0.001660 0.000000 0.020478 0.000000
# 6 0.000000 0.000000 0.000000 0.034931 0.000000 0.048020
#
#
# Mechanical properties :
#
#
# Convention : Reuss Voigt Hill
#
# Bulk Modulus (GPa) = 22.79086 56.64602 39.71844
# Shear Modulus (GPa) = 39.86108 25.09273 32.47691
#
# Velocity S-wave (km/s) = 4.08555 3.24153 3.68777
# Velocity P-wave (km/s) = 5.63908 6.14251 5.89617
#
# Compressibility (1/GPa) = 0.04387724
#
# Stress axis : x y z
#
# Youngs Moduli (GPa) = 76.27095 25.25494 147.52739
#
# Poissons Ratio (x) = 0.05270 0.65783
# Poissons Ratio (y) = 0.15917 0.18565
# Poissons Ratio (z) = 0.34009 0.03178
#
# Static dielectric constant tensor:
#      x y z
#    x 1.989000 0.000000 0.023930 
#    y 0.000000 2.022370 0.000000 
#    z 0.023930 0.000000 2.022500 
# 
# From -- ./inp_files/119200.got.cif
#   From: 2010.05.17/outbox.cif.g08.bks.cpg/sg15_60_cif.got.tgz:119200.got - 2010.06.03 18:47:42.
