data_PCOD9263834
_publ_section_title
;
Structure prediction by ZEFSAII (Michael W. Deem and Ramdas Pophale) SiO2 
 PCOD9263834
Probable space group: C 2/C
;
_chemical_formula_sum "Si O2"
_cell_formula_units_Z 56
_cell_length_a 15.662865
_cell_length_b 7.932545
_cell_length_c 23.634439
_cell_angle_alpha 90.000000
_cell_angle_beta 63.366970
_cell_angle_gamma 90.000000
_cell_volume 2624.919706
_symmetry_space_group_name_H-M "C 2/C"
_symmetry_group_IT_number 15
_symmetry_cell_setting 'monoclinic'
loop_
_space_group_symop_operation_xyz
x,y,z
-x,y,1/2-z
-x,-y,-z
x,-y,1/2+z
1/2+x,1/2+y,z
1/2-x,1/2+y,1/2-z
1/2-x,1/2-y,-z
1/2+x,1/2-y,1/2+z
loop_
_atom_site_type_symbol
_atom_site_label
_atom_site_fract_x
_atom_site_fract_y
_atom_site_fract_z
Si Si1 0.192498 0.915993 0.038075
Si Si2 0.684675 0.772416 0.203393
Si Si3 0.726132 0.825209 0.372603
Si Si4 0.904383 0.941034 0.253927
Si Si5 0.637384 0.038707 0.312110
Si Si6 0.031191 0.844463 0.380852
Si Si7 0.813490 0.943835 0.077827
O O1 0.241499 0.941702 0.084299
O O2 0.080325 0.878988 0.080567
O O3 0.250000 0.750000 0.000000
O O4 0.194770 0.052882 0.987377
O O5 0.607481 0.627722 0.217598
O O6 0.770692 0.663549 0.207398
O O7 0.649166 0.924899 0.253278
O O8 0.728287 0.844842 0.133330
O O9 0.698624 0.639196 0.399866
O O10 0.815844 0.832170 0.302774
O O11 0.641712 0.911202 0.363419
O O12 0.000000 0.862015 0.250000
O O13 0.916332 0.956785 0.182953
O O14 0.548230 0.159604 0.348906
O O15 0.089399 0.872636 0.421933
#
# Coordination Sequence:
#
# PCOD9263834 Si02
#       7
#     8   8   8   8   8   8   8
#     4  10  22  39  58  81 117 159 193 229 283 342
#     4  10  19  35  56  88 115 144 186 234 291 338
#     4  10  19  38  61  85 119 151 187 234 293 335
#     4  11  21  36  58  87 118 146 184 241 292 342
#     4  10  19  34  61  88 112 146 191 238 283 342
#     4  11  21  38  62  86 112 150 198 235 281 341
#     4  10  20  37  62  83 112 156 194 230 275 347
#
# _framework density 21.333985999999999
#
# number of rings (size 3 to 8) (size 9 to 14) (size 15 to 20)
#    0.000    1.714    1.429    6.429    0.000    0.000 
#    5.143    9.286    0.000    0.000    0.000    0.000 
#    0.000    0.000    0.000    0.000    0.000    0.000 
#
# Total GULP energy -156236.776165 kJ/mol
# GULP energy per Si atom -5579.884863 kJ/mol
# Density = 2.128543 g / cm^3
# Si number density = 21.333986 Si / 1000 Ang^3
#
#
#
# Elastic Constant Matrix: (Units=GPa)
#
#
# Indices 1 2 3 4 5 6 
#
# 1 21.6802 -11.5281 7.6427 0.0000 1.8479 0.0000
# 2 -11.5281 74.3468 8.9968 0.0000 -10.6873 0.0000
# 3 7.6427 8.9968 84.1133 0.0000 1.7398 0.0000
# 4 0.0000 0.0000 0.0000 20.5827 0.0000 3.3749
# 5 1.8479 -10.6873 1.7398 0.0000 21.6417 0.0000
# 6 0.0000 0.0000 0.0000 3.3749 0.0000 15.2468
#
#
#
# Elastic Compliance Matrix: (Units=1/GPa)
#
#
# Indices 1 2 3 4 5 6 
#
# 1 0.052888 0.008952 -0.005771 0.000000 0.000369 0.000000
# 2 0.008952 0.016240 -0.002705 0.000000 0.007473 0.000000
# 3 -0.005771 -0.002705 0.012741 0.000000 -0.001867 0.000000
# 4 0.000000 0.000000 0.000000 0.050414 0.000000 -0.011159
# 5 0.000369 0.007473 -0.001867 0.000000 0.050016 0.000000
# 6 0.000000 0.000000 0.000000 -0.011159 0.000000 0.068057
#
#
# Mechanical properties :
#
#
# Convention : Reuss Voigt Hill
#
# Bulk Modulus (GPa) = 12.07410 21.15145 16.61278
# Shear Modulus (GPa) = 18.04981 23.16286 20.60634
#
# Velocity S-wave (km/s) = 2.91186 3.29861 3.11125
# Velocity P-wave (km/s) = 4.12033 4.94406 4.55087
#
# Compressibility (1/GPa) = 0.08282191
#
# Stress axis : x y z
#
# Youngs Moduli (GPa) = 18.90788 61.57583 78.48672
#
# Poissons Ratio (x) = -0.55123 0.45292
# Poissons Ratio (y) = -0.16926 0.21231
# Poissons Ratio (z) = 0.10911 0.16656
#
# Static dielectric constant tensor:
#      x y z
#    x 1.790220 0.000000 0.032090 
#    y 0.000000 1.814580 0.000000 
#    z 0.032090 0.000000 1.822510 
# 
# From -- ./inp_files/276244.got.cif
#   From: 2010.05.17/outbox.cif.g08.bks.cpg/sg15_139_cif.got.tgz:276244.got - 2010.06.03 18:47:42.
