data_PCOD9263785
_publ_section_title
;
Structure prediction by ZEFSAII (Michael W. Deem and Ramdas Pophale) SiO2 
 PCOD9263785
Probable space group: C 2/C
;
_chemical_formula_sum "Si O2"
_cell_formula_units_Z 48
_cell_length_a 14.739676
_cell_length_b 8.448344
_cell_length_c 16.553903
_cell_angle_alpha 90.000000
_cell_angle_beta 86.479193
_cell_angle_gamma 90.000000
_cell_volume 2057.498154
_symmetry_space_group_name_H-M "C 2/C"
_symmetry_group_IT_number 15
_symmetry_cell_setting 'monoclinic'
loop_
_space_group_symop_operation_xyz
x,y,z
-x,y,1/2-z
-x,-y,-z
x,-y,1/2+z
1/2+x,1/2+y,z
1/2-x,1/2+y,1/2-z
1/2-x,1/2-y,-z
1/2+x,1/2-y,1/2+z
loop_
_atom_site_type_symbol
_atom_site_label
_atom_site_fract_x
_atom_site_fract_y
_atom_site_fract_z
Si Si1 0.467954 0.937724 0.668917
Si Si2 0.900984 0.027147 0.466152
Si Si3 0.387846 0.776143 0.324606
Si Si4 0.088512 0.687058 0.031747
Si Si5 0.253788 0.999331 0.902533
Si Si6 0.139414 0.714211 0.848272
O O1 0.500000 0.849351 0.750000
O O2 0.496178 0.850214 0.585105
O O3 0.538009 0.085873 0.668844
O O4 0.369605 0.024176 0.672062
O O5 0.898320 0.149035 0.393827
O O6 0.874276 0.852686 0.436381
O O7 0.828638 0.065813 0.539784
O O8 0.000000 0.000000 0.500000
O O9 0.395955 0.711085 0.233549
O O10 0.291863 0.867523 0.340865
O O11 0.162177 0.551307 0.044702
O O12 0.085080 0.712919 0.936208
O O13 0.221525 0.833677 0.864459
#
# Coordination Sequence:
#
# PCOD9263785 Si02
#       6
#     8   8   8   8   8   8
#     4   9  19  38  60  85 116 156 202 250 299 354
#     4  11  22  39  60  87 117 154 199 251 306 358
#     4  10  21  37  60  88 122 155 198 255 304 356
#     4  10  21  39  60  84 116 158 202 243 298 366
#     4  10  22  39  59  86 120 162 202 241 298 364
#     4  10  19  34  60  88 117 157 200 248 303 358
#
# _framework density 23.329302999999999
#
# number of rings (size 3 to 8) (size 9 to 14) (size 15 to 20)
#    0.000    2.000    0.000    5.000    0.000    4.000 
#    0.000   12.500    0.000    0.000    0.000    0.000 
#    0.000    0.000    0.000    0.000    0.000    0.000 
#
# Total GULP energy -133662.728947 kJ/mol
# GULP energy per Si atom -5569.280373 kJ/mol
# Density = 2.327620 g / cm^3
# Si number density = 23.329303 Si / 1000 Ang^3
#
#
#
# Elastic Constant Matrix: (Units=GPa)
#
#
# Indices 1 2 3 4 5 6 
#
# 1 71.6214 10.4721 59.0050 0.0000 -3.0190 0.0000
# 2 10.4721 42.2096 48.1939 0.0000 -1.2742 0.0000
# 3 59.0050 48.1939 143.8767 0.0000 -3.2800 0.0000
# 4 0.0000 0.0000 0.0000 23.9586 0.0000 -5.1745
# 5 -3.0190 -1.2742 -3.2800 0.0000 27.8034 0.0000
# 6 0.0000 0.0000 0.0000 -5.1745 0.0000 36.3448
#
#
#
# Elastic Compliance Matrix: (Units=1/GPa)
#
#
# Indices 1 2 3 4 5 6 
#
# 1 0.022727 0.008112 -0.012005 0.000000 0.001423 0.000000
# 2 0.008112 0.041261 -0.017130 0.000000 0.000751 0.000000
# 3 -0.012005 -0.017130 0.017612 0.000000 -0.000011 0.000000
# 4 0.000000 0.000000 0.000000 0.043063 0.000000 0.006131
# 5 0.001423 0.000751 -0.000011 0.000000 0.036154 0.000000
# 6 0.000000 0.000000 0.000000 0.006131 0.000000 0.028387
#
#
# Mechanical properties :
#
#
# Convention : Reuss Voigt Hill
#
# Bulk Modulus (GPa) = 25.28377 54.78329 40.03353
# Shear Modulus (GPa) = 20.45538 26.95715 23.70626
#
# Velocity S-wave (km/s) = 2.96431 3.40296 3.19118
# Velocity P-wave (km/s) = 4.75158 6.24290 5.54758
#
# Compressibility (1/GPa) = 0.03955107
#
# Stress axis : x y z
#
# Youngs Moduli (GPa) = 44.00147 24.23617 56.78075
#
# Poissons Ratio (x) = -0.19659 0.68165
# Poissons Ratio (y) = -0.35692 0.97268
# Poissons Ratio (z) = 0.52824 0.41518
#
# Static dielectric constant tensor:
#      x y z
#    x 1.986810 0.000000 -0.010720 
#    y 0.000000 1.927620 0.000000 
#    z -0.010720 0.000000 1.948660 
# 
# From -- ./inp_files/208543.got.cif
#   From: 2010.05.17/outbox.cif.g08.bks.cpg/sg15_105_cif.got.tgz:208543.got - 2010.06.03 18:47:42.
