data_PCOD9263756
_publ_section_title
;
Structure prediction by ZEFSAII (Michael W. Deem and Ramdas Pophale) SiO2 
 PCOD9263756
Probable space group: C 2/C
;
_chemical_formula_sum "Si O2"
_cell_formula_units_Z 32
_cell_length_a 19.262969
_cell_length_b 5.473012
_cell_length_c 15.515400
_cell_angle_alpha 90.000000
_cell_angle_beta 130.910749
_cell_angle_gamma 90.000000
_cell_volume 1236.174052
_symmetry_space_group_name_H-M "C 2/C"
_symmetry_group_IT_number 15
_symmetry_cell_setting 'monoclinic'
loop_
_space_group_symop_operation_xyz
x,y,z
-x,y,1/2-z
-x,-y,-z
x,-y,1/2+z
1/2+x,1/2+y,z
1/2-x,1/2+y,1/2-z
1/2-x,1/2-y,-z
1/2+x,1/2-y,1/2+z
loop_
_atom_site_type_symbol
_atom_site_label
_atom_site_fract_x
_atom_site_fract_y
_atom_site_fract_z
Si Si1 0.863442 0.375367 0.061025
Si Si2 0.199169 0.296092 0.687029
Si Si3 0.007941 0.363055 0.595388
Si Si4 0.101838 0.871280 0.374239
O O1 0.840598 0.624847 0.092745
O O2 0.973390 0.428721 0.134021
O O3 0.849888 0.125994 0.100404
O O4 0.824317 0.344174 0.932971
O O5 0.242517 0.550225 0.755274
O O6 0.108723 0.255634 0.673441
O O7 0.000000 0.500000 0.500000
O O8 0.929693 0.160041 0.550246
O O9 0.000000 0.867374 0.250000
#
# Coordination Sequence:
#
# PCOD9263756 Si02
#       4
#     8   8   8   8
#     4   9  20  35  56  79 110 137 188 220 266 316
#     4  11  22  33  55  83 114 142 175 227 281 319
#     4   8  20  35  57  81 108 136 190 228 267 308
#     4  10  19  34  60  82 106 141 184 230 266 314
#
# _framework density 25.886323999999998
#
# number of rings (size 3 to 8) (size 9 to 14) (size 15 to 20)
#    1.500    1.000    0.000    2.250    3.500    2.000 
#    0.000    0.000    0.000    9.000    0.000    0.000 
#    0.000    0.000    0.000    0.000    0.000    0.000 
#
# Total GULP energy -89173.492592 kJ/mol
# GULP energy per Si atom -5573.343287 kJ/mol
# Density = 2.582741 g / cm^3
# Si number density = 25.886324 Si / 1000 Ang^3
#
#
#
# Elastic Constant Matrix: (Units=GPa)
#
#
# Indices 1 2 3 4 5 6 
#
# 1 85.2496 2.1947 -10.7373 0.0000 8.9665 0.0000
# 2 2.1947 223.5156 59.3872 0.0000 7.5089 0.0000
# 3 -10.7373 59.3872 94.4875 0.0000 -14.4992 0.0000
# 4 0.0000 0.0000 0.0000 37.8333 0.0000 6.1238
# 5 8.9665 7.5089 -14.4992 0.0000 28.5100 0.0000
# 6 0.0000 0.0000 0.0000 6.1238 0.0000 31.1595
#
#
#
# Elastic Compliance Matrix: (Units=1/GPa)
#
#
# Indices 1 2 3 4 5 6 
#
# 1 0.012212 -0.000300 0.001084 0.000000 -0.003211 0.000000
# 2 -0.000300 0.005700 -0.004157 0.000000 -0.003521 0.000000
# 3 0.001084 -0.004157 0.014572 0.000000 0.008165 0.000000
# 4 0.000000 0.000000 0.000000 0.027300 0.000000 -0.005365
# 5 -0.003211 -0.003521 0.008165 0.000000 0.041165 0.000000
# 6 0.000000 0.000000 0.000000 -0.005365 0.000000 0.033147
#
#
# Mechanical properties :
#
#
# Convention : Reuss Voigt Hill
#
# Bulk Modulus (GPa) = 38.85348 56.10464 47.47906
# Shear Modulus (GPa) = 33.46244 42.99444 38.22844
#
# Velocity S-wave (km/s) = 3.59927 4.07983 3.84706
# Velocity P-wave (km/s) = 5.68462 6.62675 6.17368
#
# Compressibility (1/GPa) = 0.02573772
#
# Stress axis : x y z
#
# Youngs Moduli (GPa) = 81.88562 175.45137 68.62497
#
# Poissons Ratio (x) = 0.05263 -0.07436
# Poissons Ratio (y) = 0.02456 0.28525
# Poissons Ratio (z) = -0.08873 0.72929
#
# Static dielectric constant tensor:
#      x y z
#    x 2.057070 0.000000 -0.009600 
#    y 0.000000 2.122470 0.000000 
#    z -0.009600 0.000000 2.178750 
# 
# From -- ./inp_files/165152.got.cif
#   From: 2010.05.17/outbox.cif.g08.bks.cpg/sg15_83_cif.got.tgz:165152.got - 2010.06.03 18:47:42.
