data_PCOD9263295
_publ_section_title
;
Structure prediction by ZEFSAII (Michael W. Deem and Ramdas Pophale) SiO2 
 PCOD9263295
Probable space group: C 2/C
;
_chemical_formula_sum "Si O2"
_cell_formula_units_Z 48
_cell_length_a 9.960477
_cell_length_b 26.240181
_cell_length_c 16.705484
_cell_angle_alpha 90.000000
_cell_angle_beta 27.211021
_cell_angle_gamma 90.000000
_cell_volume 1996.538946
_symmetry_space_group_name_H-M "C 2/C"
_symmetry_group_IT_number 15
_symmetry_cell_setting 'monoclinic'
loop_
_space_group_symop_operation_xyz
x,y,z
-x,y,1/2-z
-x,-y,-z
x,-y,1/2+z
1/2+x,1/2+y,z
1/2-x,1/2+y,1/2-z
1/2-x,1/2-y,-z
1/2+x,1/2-y,1/2+z
loop_
_atom_site_type_symbol
_atom_site_label
_atom_site_fract_x
_atom_site_fract_y
_atom_site_fract_z
Si Si1 0.639459 0.532059 0.996777
Si Si2 0.295771 0.204530 0.041098
Si Si3 0.911827 0.147037 0.483209
Si Si4 0.538664 0.853778 0.554757
Si Si5 0.296316 0.293903 0.541413
Si Si6 0.953451 0.531250 0.103127
O O1 0.666095 0.590011 0.949375
O O2 0.389413 0.537297 0.196635
O O3 0.500000 0.500000 0.000000
O O4 0.897790 0.499459 0.901536
O O5 0.527916 0.187846 0.987706
O O6 0.000000 0.205315 0.250000
O O7 0.312648 0.158848 0.968763
O O8 0.250000 0.250000 0.000000
O O9 0.229887 0.149579 0.268895
O O10 0.944352 0.191856 0.533601
O O11 0.786184 0.842036 0.488347
O O12 0.571534 0.912661 0.518853
O O13 0.250000 0.250000 0.500000
O O14 0.000000 0.290554 0.750000
O O15 0.000000 0.500000 0.000000
#
# Coordination Sequence:
#
# PCOD9263295 Si02
#       6
#     8   8   8   8   8   8
#     4  11  22  39  62  88 119 159 202 248 299 359
#     4  10  19  34  55  80 109 146 189 234 286 350
#     4   9  19  35  56  80 111 151 191 230 288 361
#     4   9  19  35  56  80 111 151 191 230 288 361
#     4  10  19  34  55  80 109 146 189 234 286 350
#     4  11  22  39  62  88 119 159 202 248 299 359
#
# _framework density 24.041602999999999
#
# number of rings (size 3 to 8) (size 9 to 14) (size 15 to 20)
#    0.000    2.000    0.000    4.000    0.000    5.333 
#    0.000    6.667    0.000    2.000    0.000    0.000 
#    0.000    0.000    0.000    0.000    0.000    0.000 
#
# Total GULP energy -133603.059610 kJ/mol
# GULP energy per Si atom -5566.794150 kJ/mol
# Density = 2.398688 g / cm^3
# Si number density = 24.041603 Si / 1000 Ang^3
#
#
#
# Elastic Constant Matrix: (Units=GPa)
#
#
# Indices 1 2 3 4 5 6 
#
# 1 160.4554 34.4280 22.4227 0.0001 22.5746 -0.0002
# 2 34.4280 121.3557 22.5377 -0.0017 33.6946 0.0002
# 3 22.4227 22.5377 49.4355 0.0043 8.3112 -0.0010
# 4 0.0001 -0.0017 0.0043 25.6699 -0.0021 17.2874
# 5 22.5746 33.6946 8.3112 -0.0021 28.3080 0.0004
# 6 -0.0002 0.0002 -0.0010 17.2874 0.0004 51.6929
#
#
#
# Elastic Compliance Matrix: (Units=1/GPa)
#
#
# Indices 1 2 3 4 5 6 
#
# 1 0.007299 -0.000310 -0.002370 0.000000 -0.004756 0.000000
# 2 -0.000310 0.012859 -0.003356 0.000000 -0.014073 0.000000
# 3 -0.002370 -0.003356 0.022978 -0.000006 -0.000862 0.000002
# 4 0.000000 0.000000 -0.000006 0.050280 0.000005 -0.016815
# 5 -0.004756 -0.014073 -0.000862 0.000005 0.056122 -0.000002
# 6 0.000000 0.000000 0.000002 -0.016815 -0.000002 0.024968
#
#
# Mechanical properties :
#
#
# Convention : Reuss Voigt Hill
#
# Bulk Modulus (GPa) = 32.19069 54.44707 43.31888
# Shear Modulus (GPa) = 25.38937 37.92471 31.65704
#
# Velocity S-wave (km/s) = 3.25323 3.97604 3.63266
# Velocity P-wave (km/s) = 5.24691 6.61624 5.97096
#
# Compressibility (1/GPa) = 0.03106488
#
# Stress axis : x y z
#
# Youngs Moduli (GPa) = 137.00395 77.76747 43.51973
#
# Poissons Ratio (x) = 0.02412 0.10313
# Poissons Ratio (y) = 0.04249 0.14604
# Poissons Ratio (z) = 0.32466 0.26096
#
# Static dielectric constant tensor:
#      x y z
#    x 1.890610 0.000010 -0.004670 
#    y 0.000010 1.888640 0.000000 
#    z -0.004670 0.000000 1.963010 
# 
# From -- ./inp_files/80492.got.cif
#   From: 2010.05.17/outbox.cif.g08.bks.cpg/sg15_41_cif.got.tgz:80492.got - 2010.06.03 18:47:42.
