data_PCOD9263819
_publ_section_title
;
Structure prediction by ZEFSAII (Michael W. Deem and Ramdas Pophale) SiO2 
 PCOD9263819
Probable space group: C 2/C
;
_chemical_formula_sum "Si O2"
_cell_formula_units_Z 28
_cell_length_a 22.351674
_cell_length_b 8.829740
_cell_length_c 11.708881
_cell_angle_alpha 90.000000
_cell_angle_beta 28.006020
_cell_angle_gamma 90.000000
_cell_volume 1085.096747
_symmetry_space_group_name_H-M "C 2/C"
_symmetry_group_IT_number 15
_symmetry_cell_setting 'monoclinic'
loop_
_space_group_symop_operation_xyz
x,y,z
-x,y,1/2-z
-x,-y,-z
x,-y,1/2+z
1/2+x,1/2+y,z
1/2-x,1/2+y,1/2-z
1/2-x,1/2-y,-z
1/2+x,1/2-y,1/2+z
loop_
_atom_site_type_symbol
_atom_site_label
_atom_site_fract_x
_atom_site_fract_y
_atom_site_fract_z
Si Si1 0.866956 0.773070 0.584568
Si Si2 0.390479 0.176972 0.845801
Si Si3 0.000000 0.044737 0.250000
Si Si4 0.136225 0.645240 0.150541
O O1 0.746310 0.788718 0.867579
O O2 0.846919 0.655700 0.515037
O O3 0.002201 0.722814 0.409048
O O4 0.893236 0.933976 0.479207
O O5 0.500000 0.119466 0.750000
O O6 0.448390 0.346535 0.735713
O O7 0.366551 0.029917 0.808059
O O8 0.250000 0.750000 0.000000
#
# Coordination Sequence:
#
# PCOD9263819 Si02
#       4
#     8   8   4   8
#     4  10  19  38  59  79 116 151 184 238 282 332
#     4  10  19  34  61  80 109 155 187 224 287 339
#     4   8  18  30  58  80 100 144 190 220 276 330
#     4  10  21  38  60  86 115 150 190 234 287 336
#
# _framework density 25.80415
#
# number of rings (size 3 to 8) (size 9 to 14) (size 15 to 20)
#    0.857    1.714    2.857    1.714    0.000    1.143 
#    0.000    7.143    0.000    0.000    0.000    0.000 
#    0.000    0.000    0.000    0.000    0.000    0.000 
#
# Total GULP energy -78147.403364 kJ/mol
# GULP energy per Si atom -5581.957383 kJ/mol
# Density = 2.574542 g / cm^3
# Si number density = 25.804150 Si / 1000 Ang^3
#
#
#
# Elastic Constant Matrix: (Units=GPa)
#
#
# Indices 1 2 3 4 5 6 
#
# 1 43.6906 25.4358 36.3286 0.0000 -7.4164 0.0000
# 2 25.4358 172.4484 31.6532 0.0000 -1.3717 0.0000
# 3 36.3286 31.6532 139.5809 0.0000 -19.6755 0.0000
# 4 0.0000 0.0000 0.0000 27.8280 0.0000 9.8908
# 5 -7.4164 -1.3717 -19.6755 0.0000 39.4509 0.0000
# 6 0.0000 0.0000 0.0000 9.8908 0.0000 25.4426
#
#
#
# Elastic Compliance Matrix: (Units=1/GPa)
#
#
# Indices 1 2 3 4 5 6 
#
# 1 0.030999 -0.003267 -0.007015 0.000000 0.002215 0.000000
# 2 -0.003267 0.006405 -0.000707 0.000000 -0.000744 0.000000
# 3 -0.007015 -0.000707 0.009639 0.000000 0.003464 0.000000
# 4 0.000000 0.000000 0.000000 0.041696 0.000000 -0.016209
# 5 0.002215 -0.000744 0.003464 0.000000 0.027466 0.000000
# 6 0.000000 0.000000 0.000000 -0.016209 0.000000 0.045606
#
#
# Mechanical properties :
#
#
# Convention : Reuss Voigt Hill
#
# Bulk Modulus (GPa) = 39.89716 60.28389 50.09053
# Shear Modulus (GPa) = 26.02225 36.03113 31.02669
#
# Velocity S-wave (km/s) = 3.17906 3.74080 3.47131
# Velocity P-wave (km/s) = 5.38241 6.48621 5.95992
#
# Compressibility (1/GPa) = 0.02506444
#
# Stress axis : x y z
#
# Youngs Moduli (GPa) = 32.25886 156.13850 103.74890
#
# Poissons Ratio (x) = 0.51012 0.72779
# Poissons Ratio (y) = 0.10539 0.07334
# Poissons Ratio (z) = 0.22629 0.11038
#
# Static dielectric constant tensor:
#      x y z
#    x 1.889080 0.000000 -0.016270 
#    y 0.000000 1.993920 0.000000 
#    z -0.016270 0.000000 1.944480 
# 
# From -- ./inp_files/121280.got.cif
#   From: 2010.05.17/outbox.cif.g08.bks.cpg/sg15_61_cif.got.tgz:121280.got - 2010.06.03 18:47:42.
