data_PCOD9263952
_publ_section_title
;
Structure prediction by ZEFSAII (Michael W. Deem and Ramdas Pophale) SiO2 
 PCOD9263952
Probable space group: C 2/C
;
_chemical_formula_sum "Si O2"
_cell_formula_units_Z 52
_cell_length_a 13.088586
_cell_length_b 24.616327
_cell_length_c 9.562741
_cell_angle_alpha 90.000000
_cell_angle_beta 124.508260
_cell_angle_gamma 90.000000
_cell_volume 2538.920222
_symmetry_space_group_name_H-M "C 2/C"
_symmetry_group_IT_number 15
_symmetry_cell_setting 'monoclinic'
loop_
_space_group_symop_operation_xyz
x,y,z
-x,y,1/2-z
-x,-y,-z
x,-y,1/2+z
1/2+x,1/2+y,z
1/2-x,1/2+y,1/2-z
1/2-x,1/2-y,-z
1/2+x,1/2-y,1/2+z
loop_
_atom_site_type_symbol
_atom_site_label
_atom_site_fract_x
_atom_site_fract_y
_atom_site_fract_z
Si Si1 0.739508 0.091447 0.323610
Si Si2 0.280246 0.715138 0.843940
Si Si3 0.625639 0.326717 0.378021
Si Si4 0.853507 0.877844 0.611247
Si Si5 0.500000 0.132817 0.250000
Si Si6 0.094936 0.006054 0.450471
Si Si7 0.464796 0.227379 0.998258
O O1 0.786729 0.141272 0.453288
O O2 0.786236 0.105460 0.203814
O O3 0.595317 0.093906 0.243120
O O4 0.799999 0.037822 0.436342
O O5 0.313102 0.687059 0.720903
O O6 0.136214 0.730488 0.705794
O O7 0.296546 0.672747 0.982992
O O8 0.392854 0.759519 0.938236
O O9 0.500000 0.359784 0.250000
O O10 0.580657 0.274423 0.430215
O O11 0.000000 0.865888 0.750000
O O12 0.851901 0.933170 0.519757
O O13 0.539460 0.173654 0.407962
O O14 0.000000 0.997129 0.250000
O O15 0.000000 0.000000 0.500000
#
# Coordination Sequence:
#
# PCOD9263952 Si02
#       7
#     8   8   8   8   4   8   8
#     4  12  24  42  67 101 137 177 231 284 348 414
#     4  11  22  39  68  96 136 184 230 289 336 408
#     4  10  19  34  66  94 126 174 231 281 323 395
#     4  11  24  44  65 103 139 169 228 300 355 402
#     4  12  24  42  68  98 144 190 226 274 338 428
#     4  11  23  42  73 104 132 168 226 300 352 404
#     4  11  21  40  66 100 137 184 241 277 331 417
#
# _framework density 20.481145999999999
#
# number of rings (size 3 to 8) (size 9 to 14) (size 15 to 20)
#    0.000    0.923    6.923    3.692    2.154    0.000 
#    0.000   10.000    0.000    0.000    0.000    0.000 
#    0.000    0.000    0.000    0.000    0.000    0.000 
#
# Total GULP energy -145041.577737 kJ/mol
# GULP energy per Si atom -5578.522221 kJ/mol
# Density = 2.043453 g / cm^3
# Si number density = 20.481146 Si / 1000 Ang^3
#
#
#
# Elastic Constant Matrix: (Units=GPa)
#
#
# Indices 1 2 3 4 5 6 
#
# 1 93.8547 10.5512 37.9362 0.0000 4.8032 0.0000
# 2 10.5512 40.2405 24.8897 0.0000 7.3578 0.0000
# 3 37.9362 24.8897 101.0392 0.0000 4.5795 0.0000
# 4 0.0000 0.0000 0.0000 122.1544 0.0000 119.8907
# 5 4.8032 7.3578 4.5795 0.0000 37.2105 0.0000
# 6 0.0000 0.0000 0.0000 119.8907 0.0000 182.5415
#
#
#
# Elastic Compliance Matrix: (Units=1/GPa)
#
#
# Indices 1 2 3 4 5 6 
#
# 1 0.012604 -0.000262 -0.004622 0.000000 -0.001006 0.000000
# 2 -0.000262 0.030253 -0.007124 0.000000 -0.005071 0.000000
# 3 -0.004622 -0.007124 0.013371 0.000000 0.000360 0.000000
# 4 0.000000 0.000000 0.000000 0.023035 0.000000 -0.015129
# 5 -0.001006 -0.005071 0.000360 0.000000 0.027963 0.000000
# 6 0.000000 0.000000 0.000000 -0.015129 0.000000 0.015415
#
#
# Mechanical properties :
#
#
# Convention : Reuss Voigt Hill
#
# Bulk Modulus (GPa) = 31.04468 42.43207 36.73837
# Shear Modulus (GPa) = 31.76725 79.16511 55.46618
#
# Velocity S-wave (km/s) = 3.94261 6.22387 5.20964
# Velocity P-wave (km/s) = 5.99301 8.50949 7.35960
#
# Compressibility (1/GPa) = 0.03221164
#
# Stress axis : x y z
#
# Youngs Moduli (GPa) = 79.33997 33.05450 74.78729
#
# Poissons Ratio (x) = 0.00866 0.34568
# Poissons Ratio (y) = 0.02078 0.53280
# Poissons Ratio (z) = 0.36672 0.23549
#
# Static dielectric constant tensor:
#      x y z
#    x 1.814500 0.000000 0.083700 
#    y 0.000000 1.764800 0.000000 
#    z 0.083700 0.000000 1.778340 
# 
# From -- ./inp_files/34453.got.cif
#   From: 2010.05.17/outbox.cif.g08.bks.cpg/sg15_18_cif.got.tgz:34453.got - 2010.06.03 18:47:42.
