data_PCOD9263773
_publ_section_title
;
Structure prediction by ZEFSAII (Michael W. Deem and Ramdas Pophale) SiO2 
 PCOD9263773
Probable space group: C 2/C
;
_chemical_formula_sum "Si O2"
_cell_formula_units_Z 64
_cell_length_a 28.718227
_cell_length_b 18.318643
_cell_length_c 11.189262
_cell_angle_alpha 90.000000
_cell_angle_beta 33.961430
_cell_angle_gamma 90.000000
_cell_volume 3288.366897
_symmetry_space_group_name_H-M "C 2/C"
_symmetry_group_IT_number 15
_symmetry_cell_setting 'monoclinic'
loop_
_space_group_symop_operation_xyz
x,y,z
-x,y,1/2-z
-x,-y,-z
x,-y,1/2+z
1/2+x,1/2+y,z
1/2-x,1/2+y,1/2-z
1/2-x,1/2-y,-z
1/2+x,1/2-y,1/2+z
loop_
_atom_site_type_symbol
_atom_site_label
_atom_site_fract_x
_atom_site_fract_y
_atom_site_fract_z
Si Si1 0.097663 0.281714 0.521186
Si Si2 0.038083 0.263255 0.300197
Si Si3 0.368454 0.217671 0.282485
Si Si4 0.338557 0.619237 0.141654
Si Si5 0.306557 0.820883 0.406278
Si Si6 0.380083 0.506264 0.712626
Si Si7 0.466657 0.593130 0.187374
Si Si8 0.780494 0.868091 0.492280
O O1 0.143068 0.292836 0.551419
O O2 0.110943 0.195939 0.457232
O O3 0.141000 0.330542 0.327047
O O4 0.000000 0.295028 0.750000
O O5 0.124180 0.303546 0.141227
O O6 0.053241 0.177413 0.289444
O O7 0.000000 0.272315 0.250000
O O8 0.965127 0.287518 0.544778
O O9 0.312436 0.161670 0.327475
O O10 0.336331 0.300064 0.324849
O O11 0.259207 0.622689 0.400070
O O12 0.388177 0.549158 0.084104
O O13 0.306830 0.617134 0.073097
O O14 0.250000 0.750000 0.500000
O O15 0.456192 0.564017 0.555427
O O16 0.389710 0.456106 0.809457
O O17 0.300046 0.557795 0.880333
O O18 0.500000 0.584865 0.250000
#
# Coordination Sequence:
#
# PCOD9263773 Si02
#       8
#     8   8   8   8   8   8   8   8
#     4  10  19  34  60  86 115 149 194 242 295 349
#     4  11  20  34  58  85 117 149 194 246 299 345
#     4  10  20  36  58  83 111 155 194 252 286 346
#     4  10  22  36  56  83 120 161 189 238 289 358
#     4  10  20  36  54  87 117 152 197 243 294 345
#     4  11  21  36  54  79 117 160 195 231 285 371
#     4  10  21  33  50  82 117 153 190 234 290 354
#     4  10  21  38  55  82 117 154 203 236 295 341
#
# _framework density 19.462547000000001
#
# number of rings (size 3 to 8) (size 9 to 14) (size 15 to 20)
#    0.000    1.750    2.500    3.000    0.000    2.500 
#    4.500    0.000    0.000    0.750    0.000    0.000 
#    0.000    0.000    0.000    0.000    0.000    0.000 
#
# Total GULP energy -178512.867420 kJ/mol
# GULP energy per Si atom -5578.527107 kJ/mol
# Density = 1.941825 g / cm^3
# Si number density = 19.462547 Si / 1000 Ang^3
#
#
#
# Elastic Constant Matrix: (Units=GPa)
#
#
# Indices 1 2 3 4 5 6 
#
# 1 76.8935 13.3616 -6.3541 0.0000 0.0340 0.0000
# 2 13.3616 41.7037 0.8319 0.0000 -1.8548 0.0000
# 3 -6.3541 0.8319 65.1877 0.0000 -5.4553 0.0000
# 4 0.0000 0.0000 0.0000 24.9723 0.0000 -2.1599
# 5 0.0340 -1.8548 -5.4553 0.0000 31.9344 0.0000
# 6 0.0000 0.0000 0.0000 -2.1599 0.0000 20.7933
#
#
#
# Elastic Compliance Matrix: (Units=1/GPa)
#
#
# Indices 1 2 3 4 5 6 
#
# 1 0.013901 -0.004483 0.001409 0.000000 -0.000034 0.000000
# 2 -0.004483 0.025489 -0.000647 0.000000 0.001375 0.000000
# 3 0.001409 -0.000647 0.015707 0.000000 0.002644 0.000000
# 4 0.000000 0.000000 0.000000 0.040407 0.000000 0.004197
# 5 -0.000034 0.001375 0.002644 0.000000 0.031846 0.000000
# 6 0.000000 0.000000 0.000000 0.004197 0.000000 0.048528
#
#
# Mechanical properties :
#
#
# Convention : Reuss Voigt Hill
#
# Bulk Modulus (GPa) = 20.98443 22.16264 21.57353
# Shear Modulus (GPa) = 25.09967 27.26970 26.18469
#
# Velocity S-wave (km/s) = 3.59505 3.74724 3.67193
# Velocity P-wave (km/s) = 5.29508 5.48948 5.39316
#
# Compressibility (1/GPa) = 0.04765438
#
# Stress axis : x y z
#
# Youngs Moduli (GPa) = 71.93973 39.23237 63.66502
#
# Poissons Ratio (x) = 0.17589 -0.08972
# Poissons Ratio (y) = 0.32253 0.04121
# Poissons Ratio (z) = -0.10138 0.02539
#
# Static dielectric constant tensor:
#      x y z
#    x 1.718580 0.000000 0.031250 
#    y 0.000000 1.663740 0.000000 
#    z 0.031250 0.000000 1.708820 
# 
# From -- ./inp_files/127292.got.cif
#   From: 2010.05.17/outbox.cif.g08.bks.cpg/sg15_64_cif.got.tgz:127292.got - 2010.06.03 18:47:42.
