data_PCOD9263656
_publ_section_title
;
Structure prediction by ZEFSAII (Michael W. Deem and Ramdas Pophale) SiO2 
 PCOD9263656
Probable space group: C 2/C
;
_chemical_formula_sum "Si O2"
_cell_formula_units_Z 52
_cell_length_a 20.841485
_cell_length_b 8.399532
_cell_length_c 15.403087
_cell_angle_alpha 90.000000
_cell_angle_beta 72.627955
_cell_angle_gamma 90.000000
_cell_volume 2573.449389
_symmetry_space_group_name_H-M "C 2/C"
_symmetry_group_IT_number 15
_symmetry_cell_setting 'monoclinic'
loop_
_space_group_symop_operation_xyz
x,y,z
-x,y,1/2-z
-x,-y,-z
x,-y,1/2+z
1/2+x,1/2+y,z
1/2-x,1/2+y,1/2-z
1/2-x,1/2-y,-z
1/2+x,1/2-y,1/2+z
loop_
_atom_site_type_symbol
_atom_site_label
_atom_site_fract_x
_atom_site_fract_y
_atom_site_fract_z
Si Si1 0.777403 0.959445 0.419268
Si Si2 0.854797 0.726445 0.504698
Si Si3 0.000000 0.294829 0.250000
Si Si4 0.787191 0.722282 0.831707
Si Si5 0.596012 0.358153 0.841831
Si Si6 0.152141 0.812331 0.281000
Si Si7 0.384216 0.954658 0.824141
O O1 0.811497 0.877421 0.488378
O O2 0.700204 0.905170 0.445162
O O3 0.813277 0.882676 0.320391
O O4 0.788696 0.146822 0.406858
O O5 0.900777 0.781123 0.564837
O O6 0.890798 0.653925 0.406184
O O7 0.030196 0.188987 0.314745
O O8 0.059888 0.410131 0.196765
O O9 0.839920 0.783683 0.736814
O O10 0.713286 0.722130 0.821049
O O11 0.813146 0.549337 0.850206
O O12 0.606465 0.547529 0.837494
O O13 0.114265 0.655310 0.262288
#
# Coordination Sequence:
#
# PCOD9263656 Si02
#       7
#     8   8   4   8   8   8   8
#     4   9  19  32  54  88 131 146 182 230 309 350
#     4  10  20  36  56  89 124 160 181 251 291 351
#     4  10  24  42  60  80 108 164 206 254 266 362
#     4  10  19  34  58  91 119 155 189 235 289 370
#     4  10  21  38  60  80 118 154 204 232 294 334
#     4  10  19  34  61  87 113 157 190 241 289 367
#     4  10  22  38  59  86 119 151 204 238 302 338
#
# _framework density 20.206340999999998
#
# number of rings (size 3 to 8) (size 9 to 14) (size 15 to 20)
#    0.000    2.154    1.538    1.846    6.462    1.846 
#    0.000    0.000    0.000   15.692    0.000    0.000 
#    0.000    0.000    0.000    0.000    0.000    0.000 
#
# Total GULP energy -145191.832925 kJ/mol
# GULP energy per Si atom -5584.301266 kJ/mol
# Density = 2.016035 g / cm^3
# Si number density = 20.206341 Si / 1000 Ang^3
#
#
#
# Elastic Constant Matrix: (Units=GPa)
#
#
# Indices 1 2 3 4 5 6 
#
# 1 55.1339 19.7488 17.1418 0.0000 30.7217 0.0000
# 2 19.7488 101.3444 30.8513 0.0000 20.9708 0.0000
# 3 17.1418 30.8513 61.3474 0.0000 27.7655 0.0000
# 4 0.0000 0.0000 0.0000 20.5564 0.0000 -0.4099
# 5 30.7217 20.9708 27.7655 0.0000 31.6044 0.0000
# 6 0.0000 0.0000 0.0000 -0.4099 0.0000 11.3598
#
#
#
# Elastic Compliance Matrix: (Units=1/GPa)
#
#
# Indices 1 2 3 4 5 6 
#
# 1 0.044327 -0.001425 0.012292 0.000000 -0.052942 0.000000
# 2 -0.001425 0.012058 -0.004435 0.000000 -0.002720 0.000000
# 3 0.012292 -0.004435 0.031828 0.000000 -0.036968 0.000000
# 4 0.000000 0.000000 0.000000 0.048682 0.000000 0.001756
# 5 -0.052942 -0.002720 -0.036968 0.000000 0.117387 0.000000
# 6 0.000000 0.000000 0.000000 0.001756 0.000000 0.088093
#
#
# Mechanical properties :
#
#
# Convention : Reuss Voigt Hill
#
# Bulk Modulus (GPa) = 9.89340 39.25660 24.57500
# Shear Modulus (GPa) = 13.76648 22.70970 18.23809
#
# Velocity S-wave (km/s) = 2.61299 3.35608 3.00758
# Velocity P-wave (km/s) = 3.74306 5.87263 4.92434
#
# Compressibility (1/GPa) = 0.10107745
#
# Stress axis : x y z
#
# Youngs Moduli (GPa) = 22.55978 82.93381 31.41933
#
# Poissons Ratio (x) = 0.11815 -0.38621
# Poissons Ratio (y) = 0.03214 0.13933
# Poissons Ratio (z) = -0.27731 0.36779
#
# Static dielectric constant tensor:
#      x y z
#    x 1.709840 0.000000 -0.017150 
#    y 0.000000 1.745640 0.000000 
#    z -0.017150 0.000000 1.714330 
# 
# From -- ./inp_files/166319.got.cif
#   From: 2010.05.17/outbox.cif.g08.bks.cpg/sg15_84_cif.got.tgz:166319.got - 2010.06.03 18:47:42.
