data_PCOD9263897
_publ_section_title
;
Structure prediction by ZEFSAII (Michael W. Deem and Ramdas Pophale) SiO2 
 PCOD9263897
Probable space group: C 2/C
;
_chemical_formula_sum "Si O2"
_cell_formula_units_Z 64
_cell_length_a 11.775214
_cell_length_b 16.642995
_cell_length_c 17.411899
_cell_angle_alpha 90.000000
_cell_angle_beta 99.230637
_cell_angle_gamma 90.000000
_cell_volume 3368.106860
_symmetry_space_group_name_H-M "C 2/C"
_symmetry_group_IT_number 15
_symmetry_cell_setting 'monoclinic'
loop_
_space_group_symop_operation_xyz
x,y,z
-x,y,1/2-z
-x,-y,-z
x,-y,1/2+z
1/2+x,1/2+y,z
1/2-x,1/2+y,1/2-z
1/2-x,1/2-y,-z
1/2+x,1/2-y,1/2+z
loop_
_atom_site_type_symbol
_atom_site_label
_atom_site_fract_x
_atom_site_fract_y
_atom_site_fract_z
Si Si1 0.943041 0.594798 0.583813
Si Si2 0.177294 0.118444 0.114878
Si Si3 0.529825 0.527247 0.664265
Si Si4 0.294622 0.583882 0.561361
Si Si5 0.233863 0.608930 0.803147
Si Si6 0.609109 0.051838 0.081840
Si Si7 0.634860 0.060145 0.248690
Si Si8 0.844233 0.700144 0.844374
O O1 0.829234 0.603066 0.622029
O O2 0.922461 0.609508 0.491570
O O3 0.999356 0.505178 0.590831
O O4 0.036464 0.653463 0.630354
O O5 0.085361 0.051864 0.132262
O O6 0.292150 0.101818 0.177159
O O7 0.140453 0.208017 0.131742
O O8 0.198939 0.107580 0.026935
O O9 0.500000 0.511297 0.750000
O O10 0.417583 0.556489 0.607278
O O11 0.631064 0.593817 0.674290
O O12 0.205727 0.510033 0.562176
O O13 0.245433 0.656413 0.607818
O O14 0.181677 0.531519 0.752018
O O15 0.200228 0.684131 0.746898
O O16 0.651576 0.092688 0.164405
O O17 0.500000 0.062048 0.250000
#
# Coordination Sequence:
#
# PCOD9263897 Si02
#       8
#     8   8   8   8   8   8   8   8
#     4  10  20  33  62  89 118 152 196 255 307 364
#     4  11  26  38  59  93 123 163 206 256 312 362
#     4  11  22  41  64  88 120 167 211 253 299 379
#     4  11  21  41  63  87 124 162 209 249 305 373
#     4  11  19  38  63  89 116 157 210 242 306 369
#     4  10  19  34  62  93 116 149 205 256 297 358
#     4  11  19  36  59  89 121 153 200 255 301 355
#     4  11  22  40  60  89 126 161 202 257 312 369
#
# _framework density 19.001771999999999
#
# number of rings (size 3 to 8) (size 9 to 14) (size 15 to 20)
#    0.000    1.250    5.000    3.375    3.500    1.000 
#    2.250    0.000    0.000    2.250    0.000    0.000 
#    0.000    0.000    0.000    0.000    0.000    0.000 
#
# Total GULP energy -178739.873561 kJ/mol
# GULP energy per Si atom -5585.621049 kJ/mol
# Density = 1.895852 g / cm^3
# Si number density = 19.001772 Si / 1000 Ang^3
#
#
#
# Elastic Constant Matrix: (Units=GPa)
#
#
# Indices 1 2 3 4 5 6 
#
# 1 72.6428 -3.0275 16.0439 0.0000 -2.6347 0.0000
# 2 -3.0275 21.4774 3.8986 0.0000 2.4480 0.0000
# 3 16.0439 3.8986 111.9627 0.0000 -8.2093 0.0000
# 4 0.0000 0.0000 0.0000 9.5922 0.0000 1.6353
# 5 -2.6347 2.4480 -8.2093 0.0000 34.7704 0.0000
# 6 0.0000 0.0000 0.0000 1.6353 0.0000 8.3157
#
#
#
# Elastic Compliance Matrix: (Units=1/GPa)
#
#
# Indices 1 2 3 4 5 6 
#
# 1 0.014345 0.002356 -0.002107 0.000000 0.000424 0.000000
# 2 0.002356 0.047729 -0.002272 0.000000 -0.003718 0.000000
# 3 -0.002107 -0.002272 0.009477 0.000000 0.002238 0.000000
# 4 0.000000 0.000000 0.000000 0.107867 0.000000 -0.021212
# 5 0.000424 -0.003718 0.002238 0.000000 0.029582 0.000000
# 6 0.000000 0.000000 0.000000 -0.021212 0.000000 0.124425
#
#
# Mechanical properties :
#
#
# Convention : Reuss Voigt Hill
#
# Bulk Modulus (GPa) = 14.81366 26.65699 20.73532
# Shear Modulus (GPa) = 13.88996 23.14686 18.51841
#
# Velocity S-wave (km/s) = 2.70660 3.49398 3.12518
# Velocity P-wave (km/s) = 4.19290 5.50784 4.89473
#
# Compressibility (1/GPa) = 0.06750527
#
# Stress axis : x y z
#
# Youngs Moduli (GPa) = 69.71168 20.95161 105.52300
#
# Poissons Ratio (x) = -0.04937 0.22229
# Poissons Ratio (y) = -0.16425 0.23977
# Poissons Ratio (z) = 0.14685 0.04761
#
# Static dielectric constant tensor:
#      x y z
#    x 1.657570 0.000000 -0.002230 
#    y 0.000000 1.636570 0.000000 
#    z -0.002230 0.000000 1.699230 
# 
# From -- ./inp_files/199214.got.cif
#   From: 2010.05.17/outbox.cif.g08.bks.cpg/sg15_100_cif.got.tgz:199214.got - 2010.06.03 18:47:42.
