data_PCOD9263089
_publ_section_title
;
Structure prediction by ZEFSAII (Michael W. Deem and Ramdas Pophale) SiO2 
 PCOD9263089
Probable space group: C 2/C
;
_chemical_formula_sum "Si O2"
_cell_formula_units_Z 40
_cell_length_a 8.606340
_cell_length_b 24.378395
_cell_length_c 17.329755
_cell_angle_alpha 90.000000
_cell_angle_beta 148.567256
_cell_angle_gamma 90.000000
_cell_volume 1896.130097
_symmetry_space_group_name_H-M "C 2/C"
_symmetry_group_IT_number 15
_symmetry_cell_setting 'monoclinic'
loop_
_space_group_symop_operation_xyz
x,y,z
-x,y,1/2-z
-x,-y,-z
x,-y,1/2+z
1/2+x,1/2+y,z
1/2-x,1/2+y,1/2-z
1/2-x,1/2-y,-z
1/2+x,1/2-y,1/2+z
loop_
_atom_site_type_symbol
_atom_site_label
_atom_site_fract_x
_atom_site_fract_y
_atom_site_fract_z
Si Si1 0.685982 0.370204 0.147087
Si Si2 0.235897 0.579393 0.085413
Si Si3 0.661121 0.823496 0.138870
Si Si4 0.641454 0.464469 0.396133
Si Si5 0.291702 0.276520 0.930054
O O1 0.788041 0.321922 0.249370
O O2 0.525103 0.420859 0.121279
O O3 0.000000 0.391535 0.250000
O O4 0.450539 0.335509 0.997786
O O5 0.500000 0.601357 0.250000
O O6 0.356768 0.529267 0.084235
O O7 0.057736 0.626068 0.966840
O O8 0.985149 0.553106 0.034962
O O9 0.533925 0.770996 0.041931
O O10 0.000000 0.834157 0.250000
O O11 0.500000 0.461657 0.250000
O O12 0.000000 0.281157 0.750000
O O13 0.250000 0.250000 0.000000
#
# Coordination Sequence:
#
# PCOD9263089 Si02
#       5
#     8   8   8   8   8
#     4  12  24  42  64  96 143 184 215 278 356 416
#     4  10  19  33  70  98 117 163 242 292 322 395
#     4  11  20  43  68  93 134 180 227 278 345 403
#     4  10  19  40  66  92 127 175 231 285 338 402
#     4  11  22  43  72  98 134 180 232 287 336 405
#
# _framework density 21.095599
#
# number of rings (size 3 to 8) (size 9 to 14) (size 15 to 20)
#    0.000    1.200    8.000    0.000    0.000    1.600 
#    7.200    1.000    0.000    1.200    0.000    0.000 
#    0.000    0.000    0.000    0.000    0.000    0.000 
#
# Total GULP energy -111364.869990 kJ/mol
# GULP energy per Si atom -5568.243500 kJ/mol
# Density = 2.104758 g / cm^3
# Si number density = 21.095599 Si / 1000 Ang^3
#
#
#
# Elastic Constant Matrix: (Units=GPa)
#
#
# Indices 1 2 3 4 5 6 
#
# 1 53.6617 28.3143 19.4251 0.0025 13.4910 0.0019
# 2 28.3143 145.8709 41.4854 0.0046 7.6344 0.0006
# 3 19.4251 41.4854 125.7953 -0.0281 7.0562 -0.0153
# 4 0.0025 0.0046 -0.0281 36.1403 -0.0064 2.0867
# 5 13.4910 7.6344 7.0562 -0.0064 24.3476 -0.0037
# 6 0.0019 0.0006 -0.0153 2.0867 -0.0037 14.8457
#
#
#
# Elastic Compliance Matrix: (Units=1/GPa)
#
#
# Indices 1 2 3 4 5 6 
#
# 1 0.024132 -0.003529 -0.001906 -0.000004 -0.011713 -0.000007
# 2 -0.003529 0.008149 -0.002144 -0.000002 0.000022 -0.000002
# 3 -0.001906 -0.002144 0.009000 0.000007 -0.000880 0.000008
# 4 -0.000004 -0.000002 0.000007 0.027896 0.000008 -0.003921
# 5 -0.011713 0.000022 -0.000880 0.000008 0.047810 0.000011
# 6 -0.000007 -0.000002 0.000008 -0.003921 0.000011 0.067911
#
#
# Mechanical properties :
#
#
# Convention : Reuss Voigt Hill
#
# Bulk Modulus (GPa) = 38.27884 55.97526 47.12705
# Shear Modulus (GPa) = 23.95062 30.80692 27.37877
#
# Velocity S-wave (km/s) = 3.37313 3.82560 3.60647
# Velocity P-wave (km/s) = 5.77542 6.79009 6.30320
#
# Compressibility (1/GPa) = 0.02612409
#
# Stress axis : x y z
#
# Youngs Moduli (GPa) = 41.43895 122.71565 111.11123
#
# Poissons Ratio (x) = 0.43309 0.21173
# Poissons Ratio (y) = 0.14625 0.23818
# Poissons Ratio (z) = 0.07896 0.26306
#
# Static dielectric constant tensor:
#      x y z
#    x 1.835980 -0.000020 -0.011360 
#    y -0.000020 1.831490 -0.000010 
#    z -0.011360 -0.000010 1.835290 
# 
# From -- ./inp_files/193797.got.cif
#   From: 2010.05.17/outbox.cif.g08.bks.cpg/sg15_97_cif.got.tgz:193797.got - 2010.06.03 18:47:42.
