data_PCOD9263180
_publ_section_title
;
Structure prediction by ZEFSAII (Michael W. Deem and Ramdas Pophale) SiO2 
 PCOD9263180
Probable space group: C 2/C
;
_chemical_formula_sum "Si O2"
_cell_formula_units_Z 64
_cell_length_a 7.145571
_cell_length_b 19.218490
_cell_length_c 26.282039
_cell_angle_alpha 90.000000
_cell_angle_beta 49.876665
_cell_angle_gamma 90.000000
_cell_volume 2759.834650
_symmetry_space_group_name_H-M "C 2/C"
_symmetry_group_IT_number 15
_symmetry_cell_setting 'monoclinic'
loop_
_space_group_symop_operation_xyz
x,y,z
-x,y,1/2-z
-x,-y,-z
x,-y,1/2+z
1/2+x,1/2+y,z
1/2-x,1/2+y,1/2-z
1/2-x,1/2-y,-z
1/2+x,1/2-y,1/2+z
loop_
_atom_site_type_symbol
_atom_site_label
_atom_site_fract_x
_atom_site_fract_y
_atom_site_fract_z
Si Si1 0.204574 0.317517 0.810365
Si Si2 0.232171 0.462881 0.768228
Si Si3 0.998249 0.972868 0.139725
Si Si4 0.514560 0.803001 0.539017
Si Si5 0.780719 0.169302 0.685695
Si Si6 0.178847 0.071028 0.504347
Si Si7 0.004748 0.540125 0.894085
Si Si8 0.779049 0.826724 0.062135
O O1 0.500000 0.315177 0.750000
O O2 0.120876 0.387276 0.797764
O O3 0.113939 0.321566 0.884620
O O4 0.117934 0.241075 0.808934
O O5 0.500000 0.464682 0.750000
O O6 0.300616 0.475628 0.697956
O O7 0.073367 0.521830 0.823857
O O8 0.018748 0.964120 0.076427
O O9 0.267156 0.986883 0.113015
O O10 0.928125 0.898034 0.175213
O O11 0.621571 0.877586 0.503300
O O12 0.320150 0.754761 0.542567
O O13 0.750000 0.750000 0.500000
O O14 0.500000 0.161107 0.750000
O O15 0.790818 0.174677 0.622288
O O16 0.010490 0.126399 0.503993
O O17 0.294769 0.011217 0.450662
O O18 0.944355 0.621770 0.911639
#
# Coordination Sequence:
#
# PCOD9263180 Si02
#       8
#     8   8   8   8   8   8   8   8
#     4   9  16  30  53  81 106 135 188 233 270 326
#     4   9  18  31  51  80 108 138 183 228 276 331
#     4  10  21  33  51  82 113 144 181 227 283 341
#     4   9  17  32  53  81 110 140 186 236 277 328
#     4   9  17  32  53  79 106 140 179 230 278 328
#     4  10  19  34  53  77 111 146 186 231 278 334
#     4  11  19  33  53  82 110 145 180 230 284 338
#     4   9  19  31  52  81 107 139 185 232 277 331
#
# _framework density 23.189793999999999
#
# number of rings (size 3 to 8) (size 9 to 14) (size 15 to 20)
#    0.000    2.500    1.250    2.250    0.000    0.000 
#    0.000    0.625    0.000    0.000   13.000    7.000 
#    0.000    0.000    0.000    0.000    0.000    0.000 
#
# Total GULP energy -178381.949579 kJ/mol
# GULP energy per Si atom -5574.435924 kJ/mol
# Density = 2.313701 g / cm^3
# Si number density = 23.189794 Si / 1000 Ang^3
#
#
#
# Elastic Constant Matrix: (Units=GPa)
#
#
# Indices 1 2 3 4 5 6 
#
# 1 32.9728 21.4634 17.3987 -0.0002 1.5450 0.0004
# 2 21.4634 116.6034 46.5174 0.0000 4.3025 0.0000
# 3 17.3987 46.5174 130.5633 0.0001 -3.9146 0.0003
# 4 -0.0002 0.0000 0.0001 40.8656 0.0002 -8.7386
# 5 1.5450 4.3025 -3.9146 0.0002 18.3226 -0.0003
# 6 0.0004 0.0000 0.0003 -8.7386 -0.0003 24.8391
#
#
#
# Elastic Compliance Matrix: (Units=1/GPa)
#
#
# Indices 1 2 3 4 5 6 
#
# 1 0.035405 -0.005268 -0.002912 0.000000 -0.002371 -0.000001
# 2 -0.005268 0.010962 -0.003289 0.000000 -0.002833 0.000000
# 3 -0.002912 -0.003289 0.009309 0.000000 0.003007 0.000000
# 4 0.000000 0.000000 0.000000 0.026461 0.000000 0.009309
# 5 -0.002371 -0.002833 0.003007 0.000000 0.056085 0.000001
# 6 -0.000001 0.000000 0.000000 0.009309 0.000001 0.043534
#
#
# Mechanical properties :
#
#
# Convention : Reuss Voigt Hill
#
# Bulk Modulus (GPa) = 30.54481 50.09983 40.32232
# Shear Modulus (GPa) = 23.19043 29.78946 26.48994
#
# Velocity S-wave (km/s) = 3.16575 3.58801 3.38348
# Velocity P-wave (km/s) = 5.15392 6.23027 5.71748
#
# Compressibility (1/GPa) = 0.03273879
#
# Stress axis : x y z
#
# Youngs Moduli (GPa) = 28.24477 91.22270 107.42275
#
# Poissons Ratio (x) = 0.48054 0.31284
# Poissons Ratio (y) = 0.14879 0.35327
# Poissons Ratio (z) = 0.08226 0.29999
#
# Static dielectric constant tensor:
#      x y z
#    x 1.946390 0.000000 -0.031590 
#    y 0.000000 1.912960 0.000000 
#    z -0.031590 0.000000 1.896930 
# 
# From -- ./inp_files/308739.got.cif
#   From: 2010.05.17/outbox.cif.g08.bks.cpg/sg15_155_cif.got.tgz:308739.got - 2010.06.03 18:47:42.
