data_PCOD9263282
_publ_section_title
;
Structure prediction by ZEFSAII (Michael W. Deem and Ramdas Pophale) SiO2 
 PCOD9263282
Probable space group: C 2/C
;
_chemical_formula_sum "Si O2"
_cell_formula_units_Z 40
_cell_length_a 13.695125
_cell_length_b 15.992993
_cell_length_c 18.278745
_cell_angle_alpha 90.000000
_cell_angle_beta 150.093041
_cell_angle_gamma 90.000000
_cell_volume 1996.127705
_symmetry_space_group_name_H-M "C 2/C"
_symmetry_group_IT_number 15
_symmetry_cell_setting 'monoclinic'
loop_
_space_group_symop_operation_xyz
x,y,z
-x,y,1/2-z
-x,-y,-z
x,-y,1/2+z
1/2+x,1/2+y,z
1/2-x,1/2+y,1/2-z
1/2-x,1/2-y,-z
1/2+x,1/2-y,1/2+z
loop_
_atom_site_type_symbol
_atom_site_label
_atom_site_fract_x
_atom_site_fract_y
_atom_site_fract_z
Si Si1 0.893303 0.109452 0.308564
Si Si2 0.556745 0.571495 0.704396
Si Si3 0.948719 0.293408 0.298730
Si Si4 0.520824 0.140280 0.529317
Si Si5 0.514716 0.677404 0.978936
O O1 0.985137 0.194536 0.334771
O O2 0.666710 0.110786 0.137049
O O3 0.908341 0.119789 0.405551
O O4 0.992006 0.024481 0.346155
O O5 0.500000 0.591108 0.750000
O O6 0.460430 0.634012 0.582953
O O7 0.791689 0.581265 0.849286
O O8 0.717993 0.309520 0.160484
O O9 0.000000 0.318326 0.250000
O O10 0.044837 0.340969 0.429636
O O11 0.595033 0.229234 0.544047
#
# Coordination Sequence:
#
# PCOD9263282 Si02
#       5
#     8   8   8   8   8
#     4  10  19  34  55  78 106 132 165 214 263 302
#     4  11  22  35  53  77 104 137 174 212 254 299
#     4   9  18  33  55  81 106 133 166 206 258 315
#     4   9  20  37  54  74 104 139 172 209 253 304
#     4   9  20  37  54  74 104 139 172 209 253 304
#
# _framework density 20.038799999999998
#
# number of rings (size 3 to 8) (size 9 to 14) (size 15 to 20)
#    0.000    2.400    0.000    3.000    0.000    9.600 
#    0.000    1.000    0.000    0.000    0.000    0.000 
#    0.000    0.000    0.000    0.000    0.000    0.000 
#
# Total GULP energy -111647.911669 kJ/mol
# GULP energy per Si atom -5582.395583 kJ/mol
# Density = 1.999319 g / cm^3
# Si number density = 20.038800 Si / 1000 Ang^3
#
#
#
# Elastic Constant Matrix: (Units=GPa)
#
#
# Indices 1 2 3 4 5 6 
#
# 1 102.3454 50.9791 23.6003 0.0009 -46.7260 -0.0008
# 2 50.9791 73.4809 22.8180 0.0017 -25.8717 0.0001
# 3 23.6003 22.8180 77.7639 0.0041 -38.8240 0.0005
# 4 0.0009 0.0017 0.0041 -19.9750 0.0027 10.4012
# 5 -46.7260 -25.8717 -38.8240 0.0027 41.9434 -0.0001
# 6 -0.0008 0.0001 0.0005 10.4012 -0.0001 5.3040
#
#
#
# Elastic Compliance Matrix: (Units=1/GPa)
#
#
# Indices 1 2 3 4 5 6 
#
# 1 0.030373 -0.011425 0.013961 0.000005 0.039711 -0.000006
# 2 -0.011425 0.021692 -0.004782 -0.000001 -0.003774 -0.000001
# 3 0.013961 -0.004782 0.030337 0.000006 0.040684 -0.000011
# 4 0.000005 -0.000001 0.000006 -0.024770 0.000013 0.048574
# 5 0.039711 -0.003774 0.040684 0.000013 0.103410 -0.000020
# 6 -0.000006 -0.000001 -0.000011 0.048574 -0.000020 0.093284
#
#
# Mechanical properties :
#
#
# Convention : Reuss Voigt Hill
#
# Bulk Modulus (GPa) = 12.83559 49.82056 31.32808
# Shear Modulus (GPa) = 17.55688 15.86732 16.71210
#
# Velocity S-wave (km/s) = 2.96318 2.81700 2.89102
# Velocity P-wave (km/s) = 4.25753 5.95791 5.17799
#
# Compressibility (1/GPa) = 0.07790838
#
# Stress axis : x y z
#
# Youngs Moduli (GPa) = 32.92435 46.10094 32.96268
#
# Poissons Ratio (x) = 0.52672 -0.46018
# Poissons Ratio (y) = 0.37617 0.15762
# Poissons Ratio (z) = -0.45964 0.22045
#
# Static dielectric constant tensor:
#      x y z
#    x 1.679430 0.000000 -0.011870 
#    y 0.000000 1.729790 0.000000 
#    z -0.011870 0.000000 1.718370 
# 
# From -- ./inp_files/37968.got.cif
#   From: 2010.05.17/outbox.cif.g08.bks.cpg/sg15_19_cif.got.tgz:37968.got - 2010.06.03 18:47:42.
