data_PCOD9263041
_publ_section_title
;
Structure prediction by ZEFSAII (Michael W. Deem and Ramdas Pophale) SiO2 
 PCOD9263041
Probable space group: C 2/C
;
_chemical_formula_sum "Si O2"
_cell_formula_units_Z 64
_cell_length_a 8.138032
_cell_length_b 23.908355
_cell_length_c 20.060024
_cell_angle_alpha 90.000000
_cell_angle_beta 121.941225
_cell_angle_gamma 90.000000
_cell_volume 3312.066795
_symmetry_space_group_name_H-M "C 2/C"
_symmetry_group_IT_number 15
_symmetry_cell_setting 'monoclinic'
loop_
_space_group_symop_operation_xyz
x,y,z
-x,y,1/2-z
-x,-y,-z
x,-y,1/2+z
1/2+x,1/2+y,z
1/2-x,1/2+y,1/2-z
1/2-x,1/2-y,-z
1/2+x,1/2-y,1/2+z
loop_
_atom_site_type_symbol
_atom_site_label
_atom_site_fract_x
_atom_site_fract_y
_atom_site_fract_z
Si Si1 0.201202 0.768630 0.064829
Si Si2 0.407630 0.848985 0.930316
Si Si3 0.142620 0.145586 0.007305
Si Si4 0.628238 0.443545 0.108081
Si Si5 0.209283 0.933554 0.637377
Si Si6 0.420318 0.874161 0.089401
Si Si7 0.281064 0.566699 0.720745
Si Si8 0.842203 0.557763 0.311745
O O1 0.192649 0.710968 0.102909
O O2 0.353835 0.817531 0.112675
O O3 0.995323 0.800647 0.025344
O O4 0.250000 0.750000 0.000000
O O5 0.322644 0.897631 0.866020
O O6 0.635655 0.842786 0.962266
O O7 0.395535 0.865181 0.005443
O O8 0.056225 0.096619 0.941161
O O9 0.132151 0.118478 0.078911
O O10 0.591077 0.509722 0.097202
O O11 0.778382 0.422939 0.084521
O O12 0.730437 0.433958 0.201471
O O13 0.429556 0.944755 0.658794
O O14 0.227924 0.924757 0.720237
O O15 0.634403 0.890998 0.155568
O O16 0.500000 0.579753 0.750000
O O17 0.229098 0.504072 0.685454
#
# Coordination Sequence:
#
# PCOD9263041 Si02
#       8
#     8   8   8   8   8   8   8   8
#     4   9  20  38  58  80 111 154 194 243 291 336
#     4  10  20  37  59  86 116 147 204 242 285 339
#     4  10  19  33  60  88 109 152 197 244 286 340
#     4  10  19  35  55  82 121 153 185 226 292 356
#     4   9  17  34  57  83 117 152 188 223 295 357
#     4  10  20  36  60  82 114 156 191 236 291 351
#     4  11  21  36  55  84 120 152 187 236 295 351
#     4   9  19  35  55  83 119 155 179 239 295 348
#
# _framework density 19.323283
#
# number of rings (size 3 to 8) (size 9 to 14) (size 15 to 20)
#    0.000    2.250    1.250    1.875    0.000    0.500 
#   15.750    0.000   19.250    0.000    0.000    0.000 
#    0.000    0.000    0.000    0.000    0.000    0.000 
#
# Total GULP energy -178623.905126 kJ/mol
# GULP energy per Si atom -5581.997035 kJ/mol
# Density = 1.927930 g / cm^3
# Si number density = 19.323283 Si / 1000 Ang^3
#
#
#
# Elastic Constant Matrix: (Units=GPa)
#
#
# Indices 1 2 3 4 5 6 
#
# 1 65.8856 35.0691 24.0318 0.0000 -0.5083 0.0000
# 2 35.0691 113.0385 58.1133 0.0000 -4.5462 0.0000
# 3 24.0318 58.1133 73.5560 0.0000 -2.5710 0.0000
# 4 0.0000 0.0000 0.0000 1.0805 0.0000 -4.1096
# 5 -0.5083 -4.5462 -2.5710 0.0000 24.6759 0.0000
# 6 0.0000 0.0000 0.0000 -4.1096 0.0000 22.6515
#
#
#
# Elastic Compliance Matrix: (Units=1/GPa)
#
#
# Indices 1 2 3 4 5 6 
#
# 1 0.018469 -0.004451 -0.002542 0.000000 -0.000705 0.000000
# 2 -0.004451 0.016028 -0.011149 0.000000 0.001700 0.000000
# 3 -0.002542 -0.011149 0.023245 0.000000 0.000315 0.000000
# 4 0.000000 0.000000 0.000000 2.985921 0.000000 0.541728
# 5 -0.000705 0.001700 0.000315 0.000000 0.040857 0.000000
# 6 0.000000 0.000000 0.000000 0.541728 0.000000 0.142432
#
#
# Mechanical properties :
#
#
# Convention : Reuss Voigt Hill
#
# Bulk Modulus (GPa) = 46.60483 54.10093 50.35288
# Shear Modulus (GPa) = 1.52887 18.69932 10.11409
#
# Velocity S-wave (km/s) = 0.89046 3.11418 2.29031
# Velocity P-wave (km/s) = 5.02276 6.40229 5.75402
#
# Compressibility (1/GPa) = 0.02145700
#
# Stress axis : x y z
#
# Youngs Moduli (GPa) = 54.14518 62.39243 43.02029
#
# Poissons Ratio (x) = 0.27773 0.10935
# Poissons Ratio (y) = 0.24102 0.47963
# Poissons Ratio (z) = 0.13763 0.69561
#
# Static dielectric constant tensor:
#      x y z
#    x 1.694320 0.000000 0.000940 
#    y 0.000000 1.667860 0.000000 
#    z 0.000940 0.000000 1.670220 
# 
# From -- ./inp_files/234465.got.cif
#   From: 2010.05.17/outbox.cif.g08.bks.cpg/sg15_118_cif.got.tgz:234465.got - 2010.06.03 18:47:42.
