data_PCOD9263065
_publ_section_title
;
Structure prediction by ZEFSAII (Michael W. Deem and Ramdas Pophale) SiO2 
 PCOD9263065
Probable space group: C 2/C
;
_chemical_formula_sum "Si O2"
_cell_formula_units_Z 52
_cell_length_a 18.373023
_cell_length_b 8.091276
_cell_length_c 24.511155
_cell_angle_alpha 90.000000
_cell_angle_beta 145.467928
_cell_angle_gamma 90.000000
_cell_volume 2065.584378
_symmetry_space_group_name_H-M "C 2/C"
_symmetry_group_IT_number 15
_symmetry_cell_setting 'monoclinic'
loop_
_space_group_symop_operation_xyz
x,y,z
-x,y,1/2-z
-x,-y,-z
x,-y,1/2+z
1/2+x,1/2+y,z
1/2-x,1/2+y,1/2-z
1/2-x,1/2-y,-z
1/2+x,1/2-y,1/2+z
loop_
_atom_site_type_symbol
_atom_site_label
_atom_site_fract_x
_atom_site_fract_y
_atom_site_fract_z
Si Si1 0.791821 0.128557 0.105586
Si Si2 0.911089 0.542261 0.083167
Si Si3 0.437157 0.616435 0.548296
Si Si4 0.367039 0.825660 0.330960
Si Si5 0.082438 0.177513 0.533445
Si Si6 0.138542 0.019484 0.246895
Si Si7 0.500000 0.919395 0.250000
O O1 0.671100 0.175071 0.070001
O O2 0.886309 0.285002 0.166229
O O3 0.857990 0.996841 0.186246
O O4 0.718544 0.066859 0.006441
O O5 0.972305 0.538044 0.181176
O O6 0.877923 0.717659 0.035264
O O7 0.030351 0.463384 0.123358
O O8 0.554226 0.662551 0.579340
O O9 0.363700 0.484816 0.464692
O O10 0.498567 0.523702 0.637490
O O11 0.442850 0.711708 0.420815
O O12 0.244892 0.906557 0.283631
O O13 0.342026 0.707770 0.263489
#
# Coordination Sequence:
#
# PCOD9263065 Si02
#       7
#     8   8   8   8   8   8   4
#     4  11  23  43  68  90 127 182 230 272 328 396
#     4  11  23  43  66  94 129 177 228 278 330 390
#     4  10  21  38  65 101 138 164 208 278 350 401
#     4  10  19  33  61  95 135 169 210 268 335 402
#     4   9  20  39  63  96 135 168 205 272 346 411
#     4  11  20  35  63 103 134 171 208 271 337 410
#     4  12  26  46  68  90 128 186 240 278 314 386
#
# _framework density 25.174474
#
# number of rings (size 3 to 8) (size 9 to 14) (size 15 to 20)
#    0.000    1.538    1.538    4.154    0.000    2.462 
#    5.538    1.538    0.000    0.000    0.000    0.000 
#    0.000    0.000    0.000    0.000    0.000    0.000 
#
# Total GULP energy -145064.077878 kJ/mol
# GULP energy per Si atom -5579.387611 kJ/mol
# Density = 2.511718 g / cm^3
# Si number density = 25.174474 Si / 1000 Ang^3
#
#
#
# Elastic Constant Matrix: (Units=GPa)
#
#
# Indices 1 2 3 4 5 6 
#
# 1 46.0099 14.9578 38.0850 0.0000 0.7055 0.0000
# 2 14.9578 76.7982 21.2479 0.0000 -6.5555 0.0000
# 3 38.0850 21.2479 137.9165 0.0000 -31.5490 0.0000
# 4 0.0000 0.0000 0.0000 25.9167 0.0000 0.7151
# 5 0.7055 -6.5555 -31.5490 0.0000 43.2522 0.0000
# 6 0.0000 0.0000 0.0000 0.7151 0.0000 25.3892
#
#
#
# Elastic Compliance Matrix: (Units=1/GPa)
#
#
# Indices 1 2 3 4 5 6 
#
# 1 0.031452 -0.004083 -0.009981 0.000000 -0.008412 0.000000
# 2 -0.004083 0.014146 -0.000656 0.000000 0.001732 0.000000
# 3 -0.009981 -0.000656 0.012150 0.000000 0.008926 0.000000
# 4 0.000000 0.000000 0.000000 0.038615 0.000000 -0.001088
# 5 -0.008412 0.001732 0.008926 0.000000 0.030031 0.000000
# 6 0.000000 0.000000 0.000000 -0.001088 0.000000 0.039417
#
#
# Mechanical properties :
#
#
# Convention : Reuss Voigt Hill
#
# Bulk Modulus (GPa) = 35.32360 45.47846 40.40103
# Shear Modulus (GPa) = 24.42777 31.34053 27.88415
#
# Velocity S-wave (km/s) = 3.11841 3.53219 3.33173
# Velocity P-wave (km/s) = 5.19884 5.89404 5.55732
#
# Compressibility (1/GPa) = 0.02830968
#
# Stress axis : x y z
#
# Youngs Moduli (GPa) = 31.79423 70.69357 82.30677
#
# Poissons Ratio (x) = 0.28861 0.82148
# Poissons Ratio (y) = 0.12980 0.05397
# Poissons Ratio (z) = 0.31733 0.04635
#
# Static dielectric constant tensor:
#      x y z
#    x 2.013230 0.000000 -0.020480 
#    y 0.000000 2.046720 0.000000 
#    z -0.020480 0.000000 2.057490 
# 
# From -- ./inp_files/279613.got.cif
#   From: 2010.05.17/outbox.cif.g08.bks.cpg/sg15_140_cif.got.tgz:279613.got - 2010.06.03 18:47:42.
