data_PCOD9263661
_publ_section_title
;
Structure prediction by ZEFSAII (Michael W. Deem and Ramdas Pophale) SiO2 
 PCOD9263661
Probable space group: C 2/C
;
_chemical_formula_sum "Si O2"
_cell_formula_units_Z 44
_cell_length_a 28.859877
_cell_length_b 8.187231
_cell_length_c 15.370867
_cell_angle_alpha 90.000000
_cell_angle_beta 38.331010
_cell_angle_gamma 90.000000
_cell_volume 2252.497022
_symmetry_space_group_name_H-M "C 2/C"
_symmetry_group_IT_number 15
_symmetry_cell_setting 'monoclinic'
loop_
_space_group_symop_operation_xyz
x,y,z
-x,y,1/2-z
-x,-y,-z
x,-y,1/2+z
1/2+x,1/2+y,z
1/2-x,1/2+y,1/2-z
1/2-x,1/2-y,-z
1/2+x,1/2-y,1/2+z
loop_
_atom_site_type_symbol
_atom_site_label
_atom_site_fract_x
_atom_site_fract_y
_atom_site_fract_z
Si Si1 0.919599 0.412668 0.612580
Si Si2 0.746774 0.509640 0.055826
Si Si3 0.158043 0.293844 0.227059
Si Si4 0.999922 0.128088 0.079548
Si Si5 0.360586 0.254621 0.377360
Si Si6 0.500000 0.587271 0.750000
O O1 0.862159 0.559561 0.677200
O O2 0.895507 0.334963 0.740846
O O3 0.000000 0.500000 0.500000
O O4 0.933863 0.259981 0.528933
O O5 0.707035 0.635840 0.179609
O O6 0.683354 0.413467 0.093998
O O7 0.797416 0.616913 0.916113
O O8 0.800690 0.366385 0.009343
O O9 0.079229 0.222725 0.308640
O O10 0.007692 0.026136 0.154976
O O11 0.000000 0.000000 0.000000
O O12 0.427004 0.304140 0.342415
#
# Coordination Sequence:
#
# PCOD9263661 Si02
#       6
#     8   8   8   8   8   4
#     4   9  18  33  56  88 115 156 203 246 308 356
#     4   9  17  33  58  88 116 157 208 233 307 377
#     4   9  17  32  60  84 112 164 203 238 305 371
#     4  11  20  36  59  88 123 157 198 259 307 355
#     4  10  19  34  58  92 115 159 200 254 299 367
#     4  12  22  34  60  96 122 152 218 250 308 358
#
# _framework density 19.533877
#
# number of rings (size 3 to 8) (size 9 to 14) (size 15 to 20)
#    0.000    2.182    3.636    0.000    0.000    0.000 
#    0.000    8.182    0.000    8.727    0.000    0.000 
#    0.000    0.000    0.000    0.000    0.000    0.000 
#
# Total GULP energy -122539.867255 kJ/mol
# GULP energy per Si atom -5569.993966 kJ/mol
# Density = 1.948942 g / cm^3
# Si number density = 19.533877 Si / 1000 Ang^3
#
#
#
# Elastic Constant Matrix: (Units=GPa)
#
#
# Indices 1 2 3 4 5 6 
#
# 1 70.9763 41.6986 31.7305 0.0000 -10.7343 0.0000
# 2 41.6986 138.4469 54.7360 -0.0008 -15.7095 0.0002
# 3 31.7305 54.7360 82.7746 -0.0004 -16.8548 0.0001
# 4 0.0000 -0.0008 -0.0004 74.8832 0.0001 -18.8454
# 5 -10.7343 -15.7095 -16.8548 0.0001 27.7823 0.0000
# 6 0.0000 0.0002 0.0001 -18.8454 0.0000 16.4738
#
#
#
# Elastic Compliance Matrix: (Units=1/GPa)
#
#
# Indices 1 2 3 4 5 6 
#
# 1 0.018467 -0.003627 -0.004159 0.000000 0.002561 0.000000
# 2 -0.003627 0.010575 -0.005328 0.000000 0.001345 0.000000
# 3 -0.004159 -0.005328 0.018550 0.000000 0.006634 0.000000
# 4 0.000000 0.000000 0.000000 0.018753 0.000000 0.021453
# 5 0.002561 0.001345 0.006634 0.000000 0.041769 0.000000
# 6 0.000000 0.000000 0.000000 0.021453 0.000000 0.085243
#
#
# Mechanical properties :
#
#
# Convention : Reuss Voigt Hill
#
# Bulk Modulus (GPa) = 46.81192 60.94756 53.87974
# Shear Modulus (GPa) = 22.05501 34.76337 28.40919
#
# Velocity S-wave (km/s) = 3.36380 4.22316 3.81774
# Velocity P-wave (km/s) = 6.25327 7.41949 6.86120
#
# Compressibility (1/GPa) = 0.02136208
#
# Stress axis : x y z
#
# Youngs Moduli (GPa) = 54.15135 94.56547 53.90980
#
# Poissons Ratio (x) = 0.34300 0.22421
# Poissons Ratio (y) = 0.19641 0.28725
# Poissons Ratio (z) = 0.22522 0.50388
#
# Static dielectric constant tensor:
#      x y z
#    x 1.624850 0.000000 -0.032610 
#    y 0.000000 1.742600 0.000000 
#    z -0.032610 0.000000 1.721680 
# 
# From -- ./inp_files/165807.got.cif
#   From: 2010.05.17/outbox.cif.g08.bks.cpg/sg15_83_cif.got.tgz:165807.got - 2010.06.03 18:47:42.
