data_PCOD9263831
_publ_section_title
;
Structure prediction by ZEFSAII (Michael W. Deem and Ramdas Pophale) SiO2 
 PCOD9263831
Probable space group: C 2/C
;
_chemical_formula_sum "Si O2"
_cell_formula_units_Z 56
_cell_length_a 11.901246
_cell_length_b 8.746726
_cell_length_c 30.246935
_cell_angle_alpha 90.000000
_cell_angle_beta 120.871277
_cell_angle_gamma 90.000000
_cell_volume 2702.524836
_symmetry_space_group_name_H-M "C 2/C"
_symmetry_group_IT_number 15
_symmetry_cell_setting 'monoclinic'
loop_
_space_group_symop_operation_xyz
x,y,z
-x,y,1/2-z
-x,-y,-z
x,-y,1/2+z
1/2+x,1/2+y,z
1/2-x,1/2+y,1/2-z
1/2-x,1/2-y,-z
1/2+x,1/2-y,1/2+z
loop_
_atom_site_type_symbol
_atom_site_label
_atom_site_fract_x
_atom_site_fract_y
_atom_site_fract_z
Si Si1 0.523952 0.751366 0.360191
Si Si2 0.893600 0.629468 0.534760
Si Si3 0.846955 0.097090 0.717789
Si Si4 0.113162 0.484166 0.627595
Si Si5 0.737320 0.674584 0.644868
Si Si6 0.134695 0.094116 0.529961
Si Si7 0.263669 0.579847 0.285062
O O1 0.584462 0.743234 0.421459
O O2 0.466405 0.924899 0.350165
O O3 0.632350 0.739825 0.345095
O O4 0.406397 0.637097 0.329614
O O5 0.888460 0.729374 0.489736
O O6 0.758123 0.549014 0.522874
O O7 0.020708 0.523543 0.566994
O O8 0.755174 0.068284 0.656311
O O9 0.826781 0.272235 0.728588
O O10 0.780641 0.983277 0.739580
O O11 0.000000 0.063677 0.750000
O O12 0.134396 0.305163 0.637380
O O13 0.685301 0.589400 0.590533
O O14 0.772868 0.559236 0.690619
O O15 0.000000 0.000000 0.500000
#
# Coordination Sequence:
#
# PCOD9263831 Si02
#       7
#     8   8   8   8   8   8   8
#     4   8  19  39  58  79 119 151 186 244 293 336
#     4   8  18  38  57  80 123 150 188 251 287 338
#     4  11  24  41  62  88 118 153 197 245 296 351
#     4   9  20  40  59  85 119 152 196 245 292 352
#     4  11  21  36  63  86 116 160 195 237 300 345
#     4  10  19  34  61  87 114 158 200 234 294 354
#     4  11  23  38  58  86 115 152 196 241 288 359
#
# _framework density 20.721363
#
# number of rings (size 3 to 8) (size 9 to 14) (size 15 to 20)
#    0.857    1.429    0.000    2.571    0.000    4.000 
#    0.000    2.857    0.000    0.000    0.000    0.000 
#    0.000    0.000    0.000    0.000    0.000    0.000 
#
# Total GULP energy -155919.147067 kJ/mol
# GULP energy per Si atom -5568.540967 kJ/mol
# Density = 2.067420 g / cm^3
# Si number density = 20.721363 Si / 1000 Ang^3
#
#
#
# Elastic Constant Matrix: (Units=GPa)
#
#
# Indices 1 2 3 4 5 6 
#
# 1 67.4540 9.1994 27.3614 0.0000 16.7742 0.0000
# 2 9.1994 50.3476 -13.4120 0.0000 -1.2075 0.0000
# 3 27.3614 -13.4120 36.1055 0.0000 20.0177 0.0000
# 4 0.0000 0.0000 0.0000 23.2429 0.0000 4.2272
# 5 16.7742 -1.2075 20.0177 0.0000 27.2140 0.0000
# 6 0.0000 0.0000 0.0000 4.2272 0.0000 17.2755
#
#
#
# Elastic Compliance Matrix: (Units=1/GPa)
#
#
# Indices 1 2 3 4 5 6 
#
# 1 0.026054 -0.011368 -0.024965 0.000000 0.001800 0.000000
# 2 -0.011368 0.028238 0.024528 0.000000 -0.009782 0.000000
# 3 -0.024965 0.024528 0.078678 0.000000 -0.041397 0.000000
# 4 0.000000 0.000000 0.000000 0.045028 0.000000 -0.011018
# 5 0.001800 -0.009782 -0.041397 0.000000 0.065653 0.000000
# 6 0.000000 0.000000 0.000000 -0.011018 0.000000 0.060581
#
#
# Mechanical properties :
#
#
# Convention : Reuss Voigt Hill
#
# Bulk Modulus (GPa) = 9.14406 22.24496 15.69451
# Shear Modulus (GPa) = 13.72509 22.26370 17.99439
#
# Velocity S-wave (km/s) = 2.57644 3.28141 2.95006
# Velocity P-wave (km/s) = 3.64323 5.01153 4.38113
#
# Compressibility (1/GPa) = 0.10936064
#
# Stress axis : x y z
#
# Youngs Moduli (GPa) = 38.38138 35.41289 12.70998
#
# Poissons Ratio (x) = 0.40257 0.31731
# Poissons Ratio (y) = 0.43631 -0.31175
# Poissons Ratio (z) = 0.95819 -0.86860
#
# Static dielectric constant tensor:
#      x y z
#    x 1.757670 0.000000 0.017510 
#    y 0.000000 1.711820 0.000000 
#    z 0.017510 0.000000 1.856510 
# 
# From -- ./inp_files/310374.got.cif
#   From: 2010.05.17/outbox.cif.g08.bks.cpg/sg15_156_cif.got.tgz:310374.got - 2010.06.03 18:47:42.
