data_PCOD9263853
_publ_section_title
;
Structure prediction by ZEFSAII (Michael W. Deem and Ramdas Pophale) SiO2 
 PCOD9263853
Probable space group: C 2/C
;
_chemical_formula_sum "Si O2"
_cell_formula_units_Z 64
_cell_length_a 27.871100
_cell_length_b 21.931447
_cell_length_c 14.602643
_cell_angle_alpha 90.000000
_cell_angle_beta 19.616832
_cell_angle_gamma 90.000000
_cell_volume 2996.683141
_symmetry_space_group_name_H-M "C 2/C"
_symmetry_group_IT_number 15
_symmetry_cell_setting 'monoclinic'
loop_
_space_group_symop_operation_xyz
x,y,z
-x,y,1/2-z
-x,-y,-z
x,-y,1/2+z
1/2+x,1/2+y,z
1/2-x,1/2+y,1/2-z
1/2-x,1/2-y,-z
1/2+x,1/2-y,1/2+z
loop_
_atom_site_type_symbol
_atom_site_label
_atom_site_fract_x
_atom_site_fract_y
_atom_site_fract_z
Si Si1 0.794722 0.447997 0.063880
Si Si2 0.068102 0.944147 0.320298
Si Si3 0.208278 0.009927 0.396913
Si Si4 0.782702 0.309042 0.111089
Si Si5 0.030409 0.177320 0.411286
Si Si6 0.706580 0.889454 0.141673
Si Si7 0.011132 0.535209 0.883468
Si Si8 0.446787 0.214888 0.491323
O O1 0.718931 0.438809 0.101968
O O2 0.698872 0.485637 0.309707
O O3 0.819635 0.380773 0.057310
O O4 0.930817 0.487016 0.792985
O O5 0.992982 0.880669 0.479164
O O6 0.000000 0.000000 0.500000
O O7 0.091766 0.957765 0.170902
O O8 0.240113 0.947558 0.396703
O O9 0.350576 0.051876 0.144956
O O10 0.617391 0.308770 0.377556
O O11 0.831534 0.276799 0.116944
O O12 0.892871 0.283694 0.837317
O O13 0.069733 0.235586 0.400234
O O14 0.159261 0.154727 0.115603
O O15 0.631570 0.914041 0.183975
O O16 0.584566 0.851790 0.412116
O O17 0.000000 0.500000 0.000000
#
# Coordination Sequence:
#
# PCOD9263853 Si02
#       8
#     8   8   8   8   8   8   8   8
#     4  11  20  36  64  95 124 166 224 276 324 396
#     4  11  22  41  60  92 136 171 214 275 344 406
#     4  11  21  36  63  97 128 171 216 271 332 397
#     4  10  23  40  67  96 122 166 233 284 318 403
#     4  11  24  42  68  92 133 178 220 280 346 396
#     4  11  21  40  64  93 132 170 212 275 341 389
#     4  10  19  34  61  93 131 166 204 267 338 393
#     4  11  23  42  66  93 127 174 227 280 330 397
#
# _framework density 21.356945
#
# number of rings (size 3 to 8) (size 9 to 14) (size 15 to 20)
#    0.000    1.250    5.000    2.625    3.500    1.000 
#    0.000    5.000    2.750    0.000    0.000    0.000 
#    0.000    0.000    0.000    0.000    0.000    0.000 
#
# Total GULP energy -178588.923851 kJ/mol
# GULP energy per Si atom -5580.903870 kJ/mol
# Density = 2.130834 g / cm^3
# Si number density = 21.356945 Si / 1000 Ang^3
#
#
#
# Elastic Constant Matrix: (Units=GPa)
#
#
# Indices 1 2 3 4 5 6 
#
# 1 95.9610 17.1961 27.5551 0.0009 0.7791 -0.0011
# 2 17.1961 33.3208 -3.0906 0.0050 -11.8626 -0.0033
# 3 27.5551 -3.0906 78.3935 0.0045 -11.7388 -0.0025
# 4 0.0009 0.0050 0.0045 31.1134 -0.0012 4.4205
# 5 0.7791 -11.8626 -11.7388 -0.0012 28.7671 0.0011
# 6 -0.0011 -0.0033 -0.0025 4.4205 0.0011 10.9462
#
#
#
# Elastic Compliance Matrix: (Units=1/GPa)
#
#
# Indices 1 2 3 4 5 6 
#
# 1 0.014263 -0.010614 -0.006545 0.000002 -0.007434 -0.000004
# 2 -0.010614 0.044165 0.008779 -0.000009 0.022082 0.000016
# 3 -0.006545 0.008779 0.017011 -0.000004 0.010739 0.000007
# 4 0.000002 -0.000009 -0.000004 0.034097 -0.000004 -0.013770
# 5 -0.007434 0.022082 0.010739 -0.000004 0.048451 0.000005
# 6 -0.000004 0.000016 0.000007 -0.013770 0.000005 0.096917
#
#
# Mechanical properties :
#
#
# Convention : Reuss Voigt Hill
#
# Bulk Modulus (GPa) = 17.04247 32.33297 24.68772
# Shear Modulus (GPa) = 17.16895 25.23299 21.20097
#
# Velocity S-wave (km/s) = 2.83840 3.44101 3.15413
# Velocity P-wave (km/s) = 4.32887 5.56413 4.98491
#
# Compressibility (1/GPa) = 0.05867694
#
# Stress axis : x y z
#
# Youngs Moduli (GPa) = 70.11298 22.64252 58.78613
#
# Poissons Ratio (x) = 0.24033 0.38475
# Poissons Ratio (y) = 0.74420 -0.51606
# Poissons Ratio (z) = 0.45889 -0.19877
#
# Static dielectric constant tensor:
#      x y z
#    x 1.844520 0.000000 -0.040580 
#    y 0.000000 1.752030 0.000000 
#    z -0.040580 0.000000 1.833450 
# 
# From -- ./inp_files/183108.got.cif
#   From: 2010.05.17/outbox.cif.g08.bks.cpg/sg15_92_cif.got.tgz:183108.got - 2010.06.03 18:47:42.
