data_PCOD9263370
_publ_section_title
;
Structure prediction by ZEFSAII (Michael W. Deem and Ramdas Pophale) SiO2 
 PCOD9263370
Probable space group: C 2/C
;
_chemical_formula_sum "Si O2"
_cell_formula_units_Z 48
_cell_length_a 12.183056
_cell_length_b 12.036823
_cell_length_c 17.282902
_cell_angle_alpha 90.000000
_cell_angle_beta 108.040045
_cell_angle_gamma 90.000000
_cell_volume 2409.863066
_symmetry_space_group_name_H-M "C 2/C"
_symmetry_group_IT_number 15
_symmetry_cell_setting 'monoclinic'
loop_
_space_group_symop_operation_xyz
x,y,z
-x,y,1/2-z
-x,-y,-z
x,-y,1/2+z
1/2+x,1/2+y,z
1/2-x,1/2+y,1/2-z
1/2-x,1/2-y,-z
1/2+x,1/2-y,1/2+z
loop_
_atom_site_type_symbol
_atom_site_label
_atom_site_fract_x
_atom_site_fract_y
_atom_site_fract_z
Si Si1 0.875220 0.968915 0.744557
Si Si2 0.895556 0.903011 0.403922
Si Si3 0.763298 0.491663 0.011158
Si Si4 0.325096 0.156933 0.380440
Si Si5 0.860700 0.158165 0.612151
Si Si6 0.441733 0.900845 0.654567
O O1 0.771553 0.889994 0.698264
O O2 0.000000 0.918733 0.750000
O O3 0.869291 0.008343 0.831114
O O4 0.867864 0.079181 0.688969
O O5 0.857366 0.954669 0.476669
O O6 0.823094 0.789541 0.380748
O O7 0.025748 0.864551 0.415028
O O8 0.856611 0.509183 0.098826
O O9 0.800172 0.399114 0.957645
O O10 0.744594 0.608064 0.960828
O O11 0.450458 0.118034 0.379056
O O12 0.869581 0.284998 0.641082
O O13 0.500000 0.925064 0.750000
#
# Coordination Sequence:
#
# PCOD9263370 Si02
#       6
#     8   8   8   8   8   8
#     4   9  18  35  56  77 103 139 182 219 254 302
#     4  10  19  34  56  80 106 142 178 215 261 312
#     4  11  21  34  54  80 108 138 175 215 262 318
#     4  10  21  36  52  77 112 142 168 217 271 308
#     4   9  19  35  56  78 103 137 180 222 255 297
#     4  11  21  36  56  78 105 140 176 216 262 313
#
# _framework density 19.918144000000002
#
# number of rings (size 3 to 8) (size 9 to 14) (size 15 to 20)
#    0.000    2.000    0.000    5.500    0.000    0.000 
#    0.000    2.500    0.000    0.000    0.000    0.000 
#    0.000    0.000    0.000    0.000    0.000    0.000 
#
# Total GULP energy -133949.684698 kJ/mol
# GULP energy per Si atom -5581.236862 kJ/mol
# Density = 1.987281 g / cm^3
# Si number density = 19.918144 Si / 1000 Ang^3
#
#
#
# Elastic Constant Matrix: (Units=GPa)
#
#
# Indices 1 2 3 4 5 6 
#
# 1 37.3700 5.9590 7.2999 0.0000 -11.3735 0.0000
# 2 5.9590 56.1947 6.2807 0.0000 8.8010 0.0000
# 3 7.2999 6.2807 65.1977 0.0000 -3.5051 0.0000
# 4 0.0000 0.0000 0.0000 -7.7551 0.0000 -20.4018
# 5 -11.3735 8.8010 -3.5051 0.0000 37.1135 0.0000
# 6 0.0000 0.0000 0.0000 -20.4018 0.0000 -0.0079
#
#
#
# Elastic Compliance Matrix: (Units=1/GPa)
#
#
# Indices 1 2 3 4 5 6 
#
# 1 0.031158 -0.004659 -0.002480 0.000000 0.010419 0.000000
# 2 -0.004659 0.019448 -0.001685 0.000000 -0.006199 0.000000
# 3 -0.002480 -0.001685 0.015839 0.000000 0.001136 0.000000
# 4 0.000000 0.000000 0.000000 0.000019 0.000000 -0.049022
# 5 0.010419 -0.006199 0.001136 0.000000 0.031714 0.000000
# 6 0.000000 0.000000 0.000000 -0.049022 0.000000 0.018634
#
#
# Mechanical properties :
#
#
# Convention : Reuss Voigt Hill
#
# Bulk Modulus (GPa) = 20.49259 21.98240 21.23749
# Shear Modulus (GPa) = 33.17281 15.15162 24.16221
#
# Velocity S-wave (km/s) = 4.08543 2.76106 3.48670
# Velocity P-wave (km/s) = 5.70658 4.60705 5.18604
#
# Compressibility (1/GPa) = 0.04879812
#
# Stress axis : x y z
#
# Youngs Moduli (GPa) = 32.09486 51.41792 63.13530
#
# Poissons Ratio (x) = 0.23954 0.15655
# Poissons Ratio (y) = 0.14952 0.10639
# Poissons Ratio (z) = 0.07958 0.08665
#
# Static dielectric constant tensor:
#      x y z
#    x 1.708440 0.000000 0.007530 
#    y 0.000000 1.681200 0.000000 
#    z 0.007530 0.000000 1.711230 
# 
# From -- ./inp_files/196042.got.cif
#   From: 2010.05.17/outbox.cif.g08.bks.cpg/sg15_99_cif.got.tgz:196042.got - 2010.06.03 18:47:42.
