data_PCOD9263875
_publ_section_title
;
Structure prediction by ZEFSAII (Michael W. Deem and Ramdas Pophale) SiO2 
 PCOD9263875
Probable space group: C 2/C
;
_chemical_formula_sum "Si O2"
_cell_formula_units_Z 64
_cell_length_a 25.274088
_cell_length_b 10.639195
_cell_length_c 17.829326
_cell_angle_alpha 90.000000
_cell_angle_beta 31.735582
_cell_angle_gamma 90.000000
_cell_volume 2521.766486
_symmetry_space_group_name_H-M "C 2/C"
_symmetry_group_IT_number 15
_symmetry_cell_setting 'monoclinic'
loop_
_space_group_symop_operation_xyz
x,y,z
-x,y,1/2-z
-x,-y,-z
x,-y,1/2+z
1/2+x,1/2+y,z
1/2-x,1/2+y,1/2-z
1/2-x,1/2-y,-z
1/2+x,1/2-y,1/2+z
loop_
_atom_site_type_symbol
_atom_site_label
_atom_site_fract_x
_atom_site_fract_y
_atom_site_fract_z
Si Si1 0.851228 0.747119 0.227321
Si Si2 0.223497 0.187184 0.840834
Si Si3 0.386019 0.633520 0.381614
Si Si4 0.100925 0.425215 0.592307
Si Si5 0.442360 0.888301 0.028616
Si Si6 0.194404 0.965992 0.665023
Si Si7 0.599684 0.549265 0.425817
Si Si8 0.848737 0.853399 0.481864
O O1 0.809524 0.733545 0.192639
O O2 0.839206 0.887539 0.277465
O O3 0.772530 0.658398 0.366257
O O4 0.967155 0.712110 0.085368
O O5 0.339840 0.146915 0.694822
O O6 0.153481 0.067323 0.901065
O O7 0.183796 0.204876 0.973779
O O8 0.500000 0.677523 0.250000
O O9 0.359641 0.627071 0.326377
O O10 0.379352 0.481921 0.405759
O O11 0.092323 0.425837 0.512869
O O12 0.194855 0.510339 0.498838
O O13 0.117489 0.278691 0.594945
O O14 0.000000 0.472587 0.750000
O O15 0.500000 0.000000 0.000000
O O16 0.175736 0.906523 0.768924
O O17 0.500000 0.500000 0.500000
O O18 0.600278 0.641115 0.496828
#
# Coordination Sequence:
#
# PCOD9263875 Si02
#       8
#     8   8   8   8   8   8   8   8
#     4  10  23  38  67  88 126 171 216 270 321 388
#     4  10  22  42  57  96 128 164 228 261 310 412
#     4  11  23  37  64  92 132 163 205 270 334 384
#     4  11  25  38  59  95 133 161 205 264 332 394
#     4  12  24  42  66  93 130 183 221 267 329 398
#     4  10  22  40  58  96 129 163 208 272 327 388
#     4  10  19  34  62  85 120 162 208 257 320 381
#     4  10  21  38  58  92 124 160 211 265 316 396
#
# _framework density 25.379034000000001
#
# number of rings (size 3 to 8) (size 9 to 14) (size 15 to 20)
#    0.000    1.500    3.750    3.375   10.500    1.000 
#    0.000    0.000    0.000    3.750    0.000    0.000 
#    0.000    0.000    0.000    0.000    0.000    0.000 
#
# Total GULP energy -178843.519390 kJ/mol
# GULP energy per Si atom -5588.859981 kJ/mol
# Density = 2.532127 g / cm^3
# Si number density = 25.379034 Si / 1000 Ang^3
#
#
#
# Elastic Constant Matrix: (Units=GPa)
#
#
# Indices 1 2 3 4 5 6 
#
# 1 77.2163 -2.7446 16.9490 0.0000 -10.5444 0.0000
# 2 -2.7446 36.7537 14.8695 0.0000 -11.2477 0.0001
# 3 16.9490 14.8695 137.3440 0.0000 -29.9385 0.0001
# 4 0.0000 0.0000 0.0000 5.9944 0.0000 -5.0926
# 5 -10.5444 -11.2477 -29.9385 0.0000 56.4845 0.0000
# 6 0.0000 0.0001 0.0001 -5.0926 0.0000 32.8279
#
#
#
# Elastic Compliance Matrix: (Units=1/GPa)
#
#
# Indices 1 2 3 4 5 6 
#
# 1 0.013655 0.002290 -0.001445 0.000000 0.002239 0.000000
# 2 0.002290 0.029917 -0.002408 0.000000 0.005108 0.000000
# 3 -0.001445 -0.002408 0.008544 0.000000 0.003779 0.000000
# 4 0.000000 0.000000 0.000000 0.192144 0.000000 0.029807
# 5 0.002239 0.005108 0.003779 0.000000 0.021142 0.000000
# 6 0.000000 0.000000 0.000000 0.029807 0.000000 0.035086
#
#
# Mechanical properties :
#
#
# Convention : Reuss Voigt Hill
#
# Bulk Modulus (GPa) = 20.41285 34.38465 27.39875
# Shear Modulus (GPa) = 15.62775 33.87738 24.75256
#
# Velocity S-wave (km/s) = 2.48417 3.65753 3.12639
# Velocity P-wave (km/s) = 4.03594 5.60487 4.88382
#
# Compressibility (1/GPa) = 0.04898875
#
# Stress axis : x y z
#
# Youngs Moduli (GPa) = 73.23358 33.42628 117.04407
#
# Poissons Ratio (x) = -0.07653 0.16911
# Poissons Ratio (y) = -0.16767 0.28183
# Poissons Ratio (z) = 0.10581 0.08049
#
# Static dielectric constant tensor:
#      x y z
#    x 2.084450 0.000000 0.169950 
#    y 0.000000 2.645090 0.000000 
#    z 0.169950 0.000000 2.410380 
# 
# From -- ./inp_files/219711.got.cif
#   From: 2010.05.17/outbox.cif.g08.bks.cpg/sg15_110_cif.got.tgz:219711.got - 2010.06.03 18:47:42.
