data_PCOD9263524
_publ_section_title
;
Structure prediction by ZEFSAII (Michael W. Deem and Ramdas Pophale) SiO2 
 PCOD9263524
Probable space group: C 2/C
;
_chemical_formula_sum "Si O2"
_cell_formula_units_Z 40
_cell_length_a 15.154450
_cell_length_b 10.091478
_cell_length_c 14.004327
_cell_angle_alpha 90.000000
_cell_angle_beta 124.772339
_cell_angle_gamma 90.000000
_cell_volume 1759.239331
_symmetry_space_group_name_H-M "C 2/C"
_symmetry_group_IT_number 15
_symmetry_cell_setting 'monoclinic'
loop_
_space_group_symop_operation_xyz
x,y,z
-x,y,1/2-z
-x,-y,-z
x,-y,1/2+z
1/2+x,1/2+y,z
1/2-x,1/2+y,1/2-z
1/2-x,1/2-y,-z
1/2+x,1/2-y,1/2+z
loop_
_atom_site_type_symbol
_atom_site_label
_atom_site_fract_x
_atom_site_fract_y
_atom_site_fract_z
Si Si1 0.641574 0.744097 0.299297
Si Si2 0.915407 0.523192 0.314894
Si Si3 0.676901 0.409321 0.993390
Si Si4 0.308646 0.640415 0.372758
Si Si5 0.644633 0.925476 0.013038
O O1 0.604535 0.666403 0.371263
O O2 0.759578 0.800655 0.404364
O O3 0.651791 0.656348 0.211249
O O4 0.583626 0.877867 0.231134
O O5 0.817641 0.604524 0.209836
O O6 0.883023 0.501365 0.405683
O O7 0.034100 0.581620 0.385764
O O8 0.632090 0.520375 0.036468
O O9 0.764568 0.491757 0.985267
O O10 0.321553 0.778418 0.435641
#
# Coordination Sequence:
#
# PCOD9263524 Si02
#       5
#     8   8   8   8   8
#     4   9  19  34  54  83 115 156 192 237 289 335
#     4   9  19  35  59  84 118 153 195 243 286 347
#     4  10  19  34  58  83 114 155 198 231 288 357
#     4  10  19  34  57  87 119 150 190 249 288 332
#     4  10  19  34  58  89 111 153 203 234 289 350
#
# _framework density 22.737099000000001
#
# number of rings (size 3 to 8) (size 9 to 14) (size 15 to 20)
#    0.000    2.400    2.000    0.600    0.000    3.200 
#    0.000    0.000    0.000   22.800    0.000    0.000 
#    0.000    0.000    0.000    0.000    0.000    0.000 
#
# Total GULP energy -111831.748479 kJ/mol
# GULP energy per Si atom -5591.587424 kJ/mol
# Density = 2.268535 g / cm^3
# Si number density = 22.737099 Si / 1000 Ang^3
#
#
#
# Elastic Constant Matrix: (Units=GPa)
#
#
# Indices 1 2 3 4 5 6 
#
# 1 70.5748 24.9549 39.6852 0.0000 -9.3289 0.0000
# 2 24.9549 110.9237 58.7929 0.0000 -4.5135 0.0000
# 3 39.6852 58.7929 132.0380 0.0000 -9.7861 0.0000
# 4 0.0000 0.0000 0.0000 56.7174 0.0000 -8.3059
# 5 -9.3289 -4.5135 -9.7861 0.0000 42.0661 0.0000
# 6 0.0000 0.0000 0.0000 -8.3059 0.0000 21.7183
#
#
#
# Elastic Compliance Matrix: (Units=1/GPa)
#
#
# Indices 1 2 3 4 5 6 
#
# 1 0.017532 -0.001502 -0.004400 0.000000 0.002703 0.000000
# 2 -0.001502 0.011929 -0.004874 0.000000 -0.000187 0.000000
# 3 -0.004400 -0.004874 0.011148 0.000000 0.001095 0.000000
# 4 0.000000 0.000000 0.000000 0.018677 0.000000 0.007143
# 5 0.002703 -0.000187 0.001095 0.000000 0.024606 0.000000
# 6 0.000000 0.000000 0.000000 0.007143 0.000000 0.048776
#
#
# Mechanical properties :
#
#
# Convention : Reuss Voigt Hill
#
# Bulk Modulus (GPa) = 52.47718 62.26695 57.37207
# Shear Modulus (GPa) = 31.13856 36.77391 33.95624
#
# Velocity S-wave (km/s) = 3.70470 4.02600 3.86868
# Velocity P-wave (km/s) = 6.43660 7.00404 6.72631
#
# Compressibility (1/GPa) = 0.01905590
#
# Stress axis : x y z
#
# Youngs Moduli (GPa) = 57.03814 83.83013 89.70601
#
# Poissons Ratio (x) = 0.12591 0.39473
# Poissons Ratio (y) = 0.08567 0.43723
# Poissons Ratio (z) = 0.25098 0.40859
#
# Static dielectric constant tensor:
#      x y z
#    x 1.856130 0.000000 -0.031960 
#    y 0.000000 1.807990 0.000000 
#    z -0.031960 0.000000 1.892410 
# 
# From -- ./inp_files/103358.got.cif
#   From: 2010.05.17/outbox.cif.g08.bks.cpg/sg15_52_cif.got.tgz:103358.got - 2010.06.03 18:47:42.
