data_PCOD9263036
_publ_section_title
;
Structure prediction by ZEFSAII (Michael W. Deem and Ramdas Pophale) SiO2 
 PCOD9263036
Probable space group: C 2/C
;
_chemical_formula_sum "Si O2"
_cell_formula_units_Z 56
_cell_length_a 10.164293
_cell_length_b 31.990400
_cell_length_c 10.481707
_cell_angle_alpha 90.000000
_cell_angle_beta 57.761475
_cell_angle_gamma 90.000000
_cell_volume 2882.798894
_symmetry_space_group_name_H-M "C 2/C"
_symmetry_group_IT_number 15
_symmetry_cell_setting 'monoclinic'
loop_
_space_group_symop_operation_xyz
x,y,z
-x,y,1/2-z
-x,-y,-z
x,-y,1/2+z
1/2+x,1/2+y,z
1/2-x,1/2+y,1/2-z
1/2-x,1/2-y,-z
1/2+x,1/2-y,1/2+z
loop_
_atom_site_type_symbol
_atom_site_label
_atom_site_fract_x
_atom_site_fract_y
_atom_site_fract_z
Si Si1 0.410418 0.720179 0.660234
Si Si2 0.815173 0.349549 0.133191
Si Si3 0.322105 0.933220 0.299500
Si Si4 0.135559 0.153823 0.457418
Si Si5 0.406741 0.815259 0.663032
Si Si6 0.900927 0.998747 0.680718
Si Si7 0.026414 0.911405 0.607021
O O1 0.500000 0.722337 0.750000
O O2 0.265151 0.689038 0.750926
O O3 0.536549 0.696460 0.508958
O O4 0.370735 0.767406 0.644285
O O5 0.815513 0.391957 0.213842
O O6 0.716115 0.352762 0.052874
O O7 0.986380 0.336622 0.997925
O O8 0.500000 0.939619 0.250000
O O9 0.200061 0.926417 0.480255
O O10 0.251368 0.973590 0.262036
O O11 0.259793 0.157923 0.280776
O O12 0.025268 0.115134 0.487204
O O13 0.500000 0.812659 0.750000
O O14 0.000000 0.015206 0.750000
O O15 0.900548 0.948692 0.696885
O O16 0.000000 0.000000 0.500000
O O17 0.000000 0.885447 0.750000
#
# Coordination Sequence:
#
# PCOD9263036 Si02
#       7
#     8   8   8   8   8   8   8
#     4   9  16  30  54  85 114 153 203 250 296 352
#     4  10  20  33  57  89 118 152 202 252 296 353
#     4  11  24  40  63  91 122 156 196 251 303 352
#     4  10  19  33  60  86 114 161 202 242 300 358
#     4   9  18  31  50  85 125 150 191 257 307 339
#     4   9  21  41  67  90 119 160 203 249 295 365
#     4  10  22  41  62  84 118 157 199 236 298 366
#
# _framework density 19.425564999999999
#
# number of rings (size 3 to 8) (size 9 to 14) (size 15 to 20)
#    0.000    2.286    1.429    0.857    6.000    3.429 
#    0.000    8.571    0.000    5.143    0.000    0.000 
#    0.000    0.000    0.000    0.000    0.000    0.000 
#
# Total GULP energy -155891.901768 kJ/mol
# GULP energy per Si atom -5567.567920 kJ/mol
# Density = 1.938135 g / cm^3
# Si number density = 19.425565 Si / 1000 Ang^3
#
#
#
# Elastic Constant Matrix: (Units=GPa)
#
#
# Indices 1 2 3 4 5 6 
#
# 1 87.5477 43.3853 36.7683 0.0000 -15.6847 0.0000
# 2 43.3853 88.1070 27.1412 0.0000 -8.7420 0.0000
# 3 36.7683 27.1412 99.4480 0.0000 -16.4395 0.0000
# 4 0.0000 0.0000 0.0000 16.0050 0.0000 1.7150
# 5 -15.6847 -8.7420 -16.4395 0.0000 27.7292 0.0000
# 6 0.0000 0.0000 0.0000 1.7150 0.0000 12.2404
#
#
#
# Elastic Compliance Matrix: (Units=1/GPa)
#
#
# Indices 1 2 3 4 5 6 
#
# 1 0.017335 -0.006875 -0.003626 0.000000 0.005489 0.000000
# 2 -0.006875 0.015230 -0.001623 0.000000 -0.000049 0.000000
# 3 -0.003626 -0.001623 0.012656 0.000000 0.004941 0.000000
# 4 0.000000 0.000000 0.000000 0.063433 0.000000 -0.008887
# 5 0.005489 -0.000049 0.004941 0.000000 0.042081 0.000000
# 6 0.000000 0.000000 0.000000 -0.008887 0.000000 0.082942
#
#
# Mechanical properties :
#
#
# Convention : Reuss Voigt Hill
#
# Bulk Modulus (GPa) = 47.67758 54.41028 51.04393
# Shear Modulus (GPa) = 18.87400 22.38211 20.62806
#
# Velocity S-wave (km/s) = 3.12044 3.39809 3.26222
# Velocity P-wave (km/s) = 6.13024 6.59291 6.36578
#
# Compressibility (1/GPa) = 0.02097422
#
# Stress axis : x y z
#
# Youngs Moduli (GPa) = 57.68609 65.65942 79.01596
#
# Poissons Ratio (x) = 0.45139 0.28649
# Poissons Ratio (y) = 0.39657 0.12824
# Poissons Ratio (z) = 0.20915 0.10657
#
# Static dielectric constant tensor:
#      x y z
#    x 1.711500 0.000000 0.006210 
#    y 0.000000 1.719360 0.000000 
#    z 0.006210 0.000000 1.687100 
# 
# From -- ./inp_files/91990.got.cif
#   From: 2010.05.17/outbox.cif.g08.bks.cpg/sg15_46_cif.got.tgz:91990.got - 2010.06.03 18:47:42.
