data_PCOD9263175
_publ_section_title
;
Structure prediction by ZEFSAII (Michael W. Deem and Ramdas Pophale) SiO2 
 PCOD9263175
Probable space group: C 2/C
;
_chemical_formula_sum "Si O2"
_cell_formula_units_Z 60
_cell_length_a 19.236827
_cell_length_b 25.732372
_cell_length_c 8.933037
_cell_angle_alpha 90.000000
_cell_angle_beta 138.865397
_cell_angle_gamma 90.000000
_cell_volume 2908.882779
_symmetry_space_group_name_H-M "C 2/C"
_symmetry_group_IT_number 15
_symmetry_cell_setting 'monoclinic'
loop_
_space_group_symop_operation_xyz
x,y,z
-x,y,1/2-z
-x,-y,-z
x,-y,1/2+z
1/2+x,1/2+y,z
1/2-x,1/2+y,1/2-z
1/2-x,1/2-y,-z
1/2+x,1/2-y,1/2+z
loop_
_atom_site_type_symbol
_atom_site_label
_atom_site_fract_x
_atom_site_fract_y
_atom_site_fract_z
Si Si1 0.556265 0.142529 0.194965
Si Si2 0.964572 0.058377 0.913879
Si Si3 0.219619 0.810003 0.430599
Si Si4 0.500000 0.380533 0.750000
Si Si5 0.842607 0.799077 0.497846
Si Si6 0.384950 0.808643 0.219526
Si Si7 0.893085 0.588600 0.521597
Si Si8 0.336578 0.402874 0.946888
O O1 0.500000 0.121820 0.250000
O O2 0.668796 0.163949 0.425219
O O3 0.482249 0.185618 0.992852
O O4 0.578492 0.101357 0.102985
O O5 0.866598 0.063844 0.642883
O O6 0.942167 0.083840 0.036459
O O7 0.062197 0.089263 0.994870
O O8 0.000000 0.000000 0.000000
O O9 0.250000 0.750000 0.500000
O O10 0.149299 0.809329 0.167015
O O11 0.178664 0.844028 0.507514
O O12 0.415510 0.342640 0.689482
O O13 0.723310 0.806092 0.361677
O O14 0.882234 0.742494 0.612208
O O15 0.389011 0.859083 0.118476
O O16 0.768469 0.575499 0.305671
O O17 0.000000 0.559019 0.750000
#
# Coordination Sequence:
#
# PCOD9263175 Si02
#       8
#     8   8   8   4   8   8   8   8
#     4  10  19  34  53  75 110 160 222 246 295 372
#     4  11  24  44  68  93 125 166 220 283 351 385
#     4  11  22  37  55  85 125 167 207 258 319 389
#     4  12  24  36  60  90 114 156 204 276 318 382
#     4  11  22  34  52  78 120 154 211 258 308 365
#     4  10  21  36  50  78 118 174 205 250 301 377
#     4   9  19  35  60  84 122 168 206 248 313 387
#     4  10  21  42  63  93 128 166 219 271 331 408
#
# _framework density 20.626476
#
# number of rings (size 3 to 8) (size 9 to 14) (size 15 to 20)
#    0.000    1.600    2.667    3.200    4.667    1.067 
#    2.400    0.000    0.000    0.800    0.000    2.800 
#    0.000    0.000    0.000    0.000    0.000    0.000 
#
# Total GULP energy -167174.454861 kJ/mol
# GULP energy per Si atom -5572.481829 kJ/mol
# Density = 2.057953 g / cm^3
# Si number density = 20.626476 Si / 1000 Ang^3
#
#
#
# Elastic Constant Matrix: (Units=GPa)
#
#
# Indices 1 2 3 4 5 6 
#
# 1 63.3888 0.0065 -6.8825 0.0000 2.7367 0.0000
# 2 0.0065 59.9841 9.2736 0.0000 1.4901 0.0000
# 3 -6.8825 9.2736 116.9112 0.0000 7.0704 0.0000
# 4 0.0000 0.0000 0.0000 11.6213 0.0000 5.0787
# 5 2.7367 1.4901 7.0704 0.0000 36.2482 0.0000
# 6 0.0000 0.0000 0.0000 5.0787 0.0000 9.4623
#
#
#
# Elastic Compliance Matrix: (Units=1/GPa)
#
#
# Indices 1 2 3 4 5 6 
#
# 1 0.015948 -0.000127 0.001034 0.000000 -0.001400 0.000000
# 2 -0.000127 0.016886 -0.001321 0.000000 -0.000427 0.000000
# 3 0.001034 -0.001321 0.008825 0.000000 -0.001745 0.000000
# 4 0.000000 0.000000 0.000000 0.112417 0.000000 -0.060337
# 5 -0.001400 -0.000427 -0.001745 0.000000 0.028051 0.000000
# 6 0.000000 0.000000 0.000000 -0.060337 0.000000 0.138067
#
#
# Mechanical properties :
#
#
# Convention : Reuss Voigt Hill
#
# Bulk Modulus (GPa) = 24.49143 27.23103 25.86123
# Shear Modulus (GPa) = 14.94175 27.32546 21.13360
#
# Velocity S-wave (km/s) = 2.69438 3.64370 3.20439
# Velocity P-wave (km/s) = 4.64534 5.56171 5.12405
#
# Compressibility (1/GPa) = 0.04083061
#
# Stress axis : x y z
#
# Youngs Moduli (GPa) = 62.70241 59.22086 113.31868
#
# Poissons Ratio (x) = 0.00751 -0.11713
# Poissons Ratio (y) = 0.00795 0.14970
# Poissons Ratio (z) = -0.06481 0.07823
#
# Static dielectric constant tensor:
#      x y z
#    x 1.759510 0.000000 0.003860 
#    y 0.000000 1.773690 0.000000 
#    z 0.003860 0.000000 1.799170 
# 
# From -- ./inp_files/58787.got.cif
#   From: 2010.05.17/outbox.cif.g08.bks.cpg/sg15_30_cif.got.tgz:58787.got - 2010.06.03 18:47:42.
