data_PCOD9263977
_publ_section_title
;
Structure prediction by ZEFSAII (Michael W. Deem and Ramdas Pophale) SiO2 
 PCOD9263977
Probable space group: C 2/C
;
_chemical_formula_sum "Si O2"
_cell_formula_units_Z 60
_cell_length_a 18.691115
_cell_length_b 18.442301
_cell_length_c 19.263962
_cell_angle_alpha 90.000000
_cell_angle_beta 21.958061
_cell_angle_gamma 90.000000
_cell_volume 2483.039937
_symmetry_space_group_name_H-M "C 2/C"
_symmetry_group_IT_number 15
_symmetry_cell_setting 'monoclinic'
loop_
_space_group_symop_operation_xyz
x,y,z
-x,y,1/2-z
-x,-y,-z
x,-y,1/2+z
1/2+x,1/2+y,z
1/2-x,1/2+y,1/2-z
1/2-x,1/2-y,-z
1/2+x,1/2-y,1/2+z
loop_
_atom_site_type_symbol
_atom_site_label
_atom_site_fract_x
_atom_site_fract_y
_atom_site_fract_z
Si Si1 0.000000 0.628059 0.250000
Si Si2 0.394673 0.342991 0.640858
Si Si3 0.862651 0.130944 0.012639
Si Si4 0.171865 0.939637 0.142759
Si Si5 0.693585 0.029777 0.354397
Si Si6 0.809165 0.968500 0.116437
Si Si7 0.021927 0.372423 0.303527
Si Si8 0.649418 0.719635 0.176882
O O1 0.172159 0.662081 0.144635
O O2 0.854520 0.588131 0.434844
O O3 0.409400 0.330844 0.545041
O O4 0.198126 0.386446 0.829265
O O5 0.539221 0.405920 0.536815
O O6 0.404441 0.285052 0.692699
O O7 0.810829 0.046048 0.076504
O O8 0.054219 0.122629 0.792529
O O9 0.244352 0.003227 0.126913
O O10 0.000000 0.969149 0.250000
O O11 0.829849 0.984558 0.179023
O O12 0.500000 0.000000 0.500000
O O13 0.612448 0.927035 0.276044
O O14 0.166913 0.306387 0.153938
O O15 0.000000 0.413023 0.250000
O O16 0.831286 0.331339 0.499773
O O17 0.500000 0.699949 0.250000
#
# Coordination Sequence:
#
# PCOD9263977 Si02
#       8
#     4   8   8   8   8   8   8   8
#     4  10  22  32  54  80 122 156 192 236 286 366
#     4  11  20  36  57  78 111 156 199 247 302 347
#     4  10  20  38  55  82 122 158 201 243 299 360
#     4  10  19  35  51  76 115 158 190 237 291 353
#     4  11  20  34  53  79 114 149 196 245 295 359
#     4  11  20  35  56  79 112 152 199 245 292 351
#     4  11  23  40  58  82 115 155 204 252 295 351
#     4  11  23  41  60  82 115 157 203 255 299 351
#
# _framework density 24.163930000000001
#
# number of rings (size 3 to 8) (size 9 to 14) (size 15 to 20)
#    0.000    1.333    2.667    6.400    0.933    0.533 
#    2.400    0.000    0.000    0.000    0.000    0.000 
#    2.000    4.533    1.067    0.133    0.000    0.000 
#
# Total GULP energy -167168.174328 kJ/mol
# GULP energy per Si atom -5572.272478 kJ/mol
# Density = 2.410893 g / cm^3
# Si number density = 24.163930 Si / 1000 Ang^3
#
#
#
# Elastic Constant Matrix: (Units=GPa)
#
#
# Indices 1 2 3 4 5 6 
#
# 1 162.0766 25.3076 37.0653 0.0125 16.1921 0.0004
# 2 25.3076 17.9795 3.3382 -0.0777 3.0176 0.0296
# 3 37.0653 3.3382 118.7430 0.0208 4.3055 -0.0026
# 4 0.0125 -0.0777 0.0208 16.5811 -0.0049 5.7066
# 5 16.1921 3.0176 4.3055 -0.0049 44.3580 -0.0002
# 6 0.0004 0.0296 -0.0026 5.7066 -0.0002 37.6220
#
#
#
# Elastic Compliance Matrix: (Units=1/GPa)
#
#
# Indices 1 2 3 4 5 6 
#
# 1 0.008706 -0.011460 -0.002317 -0.000064 -0.002174 0.000019
# 2 -0.011460 0.071597 0.001595 0.000381 -0.000842 -0.000114
# 3 -0.002317 0.001595 0.009105 -0.000002 -0.000147 0.000000
# 4 -0.000064 0.000381 -0.000002 0.063634 0.000005 -0.009652
# 5 -0.002174 -0.000842 -0.000147 0.000005 0.023409 0.000000
# 6 0.000019 -0.000114 0.000000 -0.009652 0.000000 0.028044
#
#
# Mechanical properties :
#
#
# Convention : Reuss Voigt Hill
#
# Bulk Modulus (GPa) = 15.37403 47.80235 31.58819
# Shear Modulus (GPa) = 19.95682 35.25142 27.60412
#
# Velocity S-wave (km/s) = 2.87695 3.82363 3.38356
# Velocity P-wave (km/s) = 4.17277 6.27048 5.32593
#
# Compressibility (1/GPa) = 0.06504474
#
# Stress axis : x y z
#
# Youngs Moduli (GPa) = 114.85876 13.96703 109.82776
#
# Poissons Ratio (x) = 0.16007 0.25443
# Poissons Ratio (y) = 1.31631 -0.17517
# Poissons Ratio (z) = 0.26609 -0.02228
#
# Static dielectric constant tensor:
#      x y z
#    x 1.977820 -0.000010 -0.021780 
#    y -0.000010 1.907270 0.000050 
#    z -0.021780 0.000050 2.398490 
# 
# From -- ./inp_files/253503.got.cif
#   From: 2010.05.17/outbox.cif.g08.bks.cpg/sg15_127_cif.got.tgz:253503.got - 2010.06.03 18:47:42.
