data_PCOD9263170
_publ_section_title
;
Structure prediction by ZEFSAII (Michael W. Deem and Ramdas Pophale) SiO2 
 PCOD9263170
Probable space group: C 2/C
;
_chemical_formula_sum "Si O2"
_cell_formula_units_Z 40
_cell_length_a 14.067045
_cell_length_b 30.986659
_cell_length_c 5.209202
_cell_angle_alpha 90.000000
_cell_angle_beta 86.640639
_cell_angle_gamma 90.000000
_cell_volume 2266.741067
_symmetry_space_group_name_H-M "C 2/C"
_symmetry_group_IT_number 15
_symmetry_cell_setting 'monoclinic'
loop_
_space_group_symop_operation_xyz
x,y,z
-x,y,1/2-z
-x,-y,-z
x,-y,1/2+z
1/2+x,1/2+y,z
1/2-x,1/2+y,1/2-z
1/2-x,1/2-y,-z
1/2+x,1/2-y,1/2+z
loop_
_atom_site_type_symbol
_atom_site_label
_atom_site_fract_x
_atom_site_fract_y
_atom_site_fract_z
Si Si1 0.887694 0.303008 0.278708
Si Si2 0.296367 0.653858 0.772533
Si Si3 0.612490 0.253125 0.223001
Si Si4 0.107717 0.982608 0.928493
Si Si5 0.609903 0.615754 0.239717
O O1 0.817062 0.342640 0.239989
O O2 0.867353 0.281501 0.557322
O O3 0.000000 0.313693 0.250000
O O4 0.868488 0.267879 0.057148
O O5 0.332634 0.702931 0.732657
O O6 0.343986 0.624937 0.543491
O O7 0.331706 0.639350 0.045951
O O8 0.500000 0.263068 0.250000
O O9 0.152869 0.987480 0.201712
O O10 0.107470 0.934448 0.821130
O O11 0.000000 0.000000 0.000000
O O12 0.500000 0.631103 0.250000
#
# Coordination Sequence:
#
# PCOD9263170 Si02
#       5
#     8   8   8   8   8
#     4  10  21  37  56  71  99 147 192 226 263 314
#     4  12  23  34  51  81 111 134 182 229 274 304
#     4  10  19  34  53  73 102 145 182 218 272 325
#     4  10  19  34  55  71 103 149 176 187 242 330
#     4  12  23  34  52  80 113 143 165 214 267 317
#
# _framework density 17.646478999999999
#
# number of rings (size 3 to 8) (size 9 to 14) (size 15 to 20)
#    0.000    1.200    2.000    6.600    2.800    1.600 
#    0.000    0.000    0.000    0.000    0.000    0.000 
#    0.000   16.000    0.000    0.000    0.000    0.000 
#
# Total GULP energy -111671.230742 kJ/mol
# GULP energy per Si atom -5583.561537 kJ/mol
# Density = 1.760632 g / cm^3
# Si number density = 17.646479 Si / 1000 Ang^3
#
#
#
# Elastic Constant Matrix: (Units=GPa)
#
#
# Indices 1 2 3 4 5 6 
#
# 1 56.6503 31.6250 12.1605 0.0000 14.4148 0.0000
# 2 31.6250 37.9696 -0.2314 0.0000 0.6756 0.0000
# 3 12.1605 -0.2314 99.7434 0.0000 11.1681 0.0000
# 4 0.0000 0.0000 0.0000 19.0219 0.0000 -0.7516
# 5 14.4148 0.6756 11.1681 0.0000 21.3367 0.0000
# 6 0.0000 0.0000 0.0000 -0.7516 0.0000 9.3020
#
#
#
# Elastic Compliance Matrix: (Units=1/GPa)
#
#
# Indices 1 2 3 4 5 6 
#
# 1 0.047540 -0.039086 -0.002580 0.000000 -0.029529 0.000000
# 2 -0.039086 0.058490 0.002286 0.000000 0.023358 0.000000
# 3 -0.002580 0.002286 0.010791 0.000000 -0.003977 0.000000
# 4 0.000000 0.000000 0.000000 0.052739 0.000000 0.004261
# 5 -0.029529 0.023358 -0.003977 0.000000 0.068160 0.000000
# 6 0.000000 0.000000 0.000000 0.004261 0.000000 0.107848
#
#
# Mechanical properties :
#
#
# Convention : Reuss Voigt Hill
#
# Bulk Modulus (GPa) = 26.27492 31.27461 28.77477
# Shear Modulus (GPa) = 11.44122 19.98606 15.71364
#
# Velocity S-wave (km/s) = 2.54905 3.36903 2.98731
# Velocity P-wave (km/s) = 4.85649 5.73543 5.31416
#
# Compressibility (1/GPa) = 0.03805910
#
# Stress axis : x y z
#
# Youngs Moduli (GPa) = 21.03505 17.09685 92.67023
#
# Poissons Ratio (x) = 0.66825 0.23911
# Poissons Ratio (y) = 0.82218 -0.21181
# Poissons Ratio (z) = 0.05428 -0.03908
#
# Static dielectric constant tensor:
#      x y z
#    x 1.664410 0.000000 0.043900 
#    y 0.000000 1.598390 0.000000 
#    z 0.043900 0.000000 1.679230 
# 
# From -- ./inp_files/7351.got.cif
#   From: 2010.05.17/outbox.cif.g08.bks.cpg/sg15_4_cif.got.tgz:7351.got - 2010.06.03 18:47:42.
