data_PCOD9263309
_publ_section_title
;
Structure prediction by ZEFSAII (Michael W. Deem and Ramdas Pophale) SiO2 
 PCOD9263309
Probable space group: C 2/C
;
_chemical_formula_sum "Si O2"
_cell_formula_units_Z 56
_cell_length_a 9.876367
_cell_length_b 17.525019
_cell_length_c 15.990416
_cell_angle_alpha 90.000000
_cell_angle_beta 100.117165
_cell_angle_gamma 90.000000
_cell_volume 2724.641748
_symmetry_space_group_name_H-M "C 2/C"
_symmetry_group_IT_number 15
_symmetry_cell_setting 'monoclinic'
loop_
_space_group_symop_operation_xyz
x,y,z
-x,y,1/2-z
-x,-y,-z
x,-y,1/2+z
1/2+x,1/2+y,z
1/2-x,1/2+y,1/2-z
1/2-x,1/2-y,-z
1/2+x,1/2-y,1/2+z
loop_
_atom_site_type_symbol
_atom_site_label
_atom_site_fract_x
_atom_site_fract_y
_atom_site_fract_z
Si Si1 0.689947 0.897454 0.661831
Si Si2 0.152444 0.155214 0.670763
Si Si3 0.689163 0.714673 0.212409
Si Si4 0.756370 0.657949 0.508831
Si Si5 0.440935 0.223896 0.115283
Si Si6 0.553511 0.809970 0.078345
Si Si7 0.140352 0.567668 0.708868
O O1 0.798661 0.865129 0.740300
O O2 0.757733 0.885460 0.578794
O O3 0.555918 0.841026 0.647220
O O4 0.640485 0.981616 0.676705
O O5 0.259444 0.222064 0.714025
O O6 0.160116 0.136525 0.573723
O O7 0.218329 0.084075 0.725423
O O8 0.006022 0.197535 0.658115
O O9 0.802687 0.711725 0.151019
O O10 0.555112 0.742838 0.148170
O O11 0.750000 0.750000 0.500000
O O12 0.910667 0.645999 0.556912
O O13 0.418666 0.220097 0.012445
O O14 0.648912 0.873400 0.131728
O O15 0.000000 0.581132 0.750000
#
# Coordination Sequence:
#
# PCOD9263309 Si02
#       7
#     8   8   8   8   8   8   8
#     4  10  21  34  54  79 114 142 180 219 284 322
#     4  10  19  34  56  78 107 146 180 217 279 324
#     4  10  19  34  55  82 104 144 184 233 257 323
#     4  11  18  36  56  82 109 141 179 228 273 328
#     4  10  19  35  57  81 106 142 186 227 273 316
#     4  10  21  32  57  84 110 138 186 228 277 310
#     4  11  21  34  52  84 116 145 178 227 277 335
#
# _framework density 20.553159999999998
#
# number of rings (size 3 to 8) (size 9 to 14) (size 15 to 20)
#    0.000    1.714    5.714    3.000    0.000    2.286 
#    2.571    0.000    0.000    7.714    0.000    0.000 
#    0.000    0.000    0.000    0.000    0.000    0.000 
#
# Total GULP energy -155970.302053 kJ/mol
# GULP energy per Si atom -5570.367930 kJ/mol
# Density = 2.050638 g / cm^3
# Si number density = 20.553160 Si / 1000 Ang^3
#
#
#
# Elastic Constant Matrix: (Units=GPa)
#
#
# Indices 1 2 3 4 5 6 
#
# 1 22.5563 10.5007 26.0775 0.0000 -6.3347 0.0000
# 2 10.5007 64.5634 39.6845 0.0000 9.2428 0.0000
# 3 26.0775 39.6845 134.2717 0.0000 -2.0534 0.0000
# 4 0.0000 0.0000 0.0000 22.8166 0.0000 -1.3848
# 5 -6.3347 9.2428 -2.0534 0.0000 21.6832 0.0000
# 6 0.0000 0.0000 0.0000 -1.3848 0.0000 18.6075
#
#
#
# Elastic Compliance Matrix: (Units=1/GPa)
#
#
# Indices 1 2 3 4 5 6 
#
# 1 0.065616 -0.007455 -0.010213 0.000000 0.021380 0.000000
# 2 -0.007455 0.021528 -0.005096 0.000000 -0.011837 0.000000
# 3 -0.010213 -0.005096 0.010941 0.000000 0.000224 0.000000
# 4 0.000000 0.000000 0.000000 0.044027 0.000000 0.003276
# 5 0.021380 -0.011837 0.000224 0.000000 0.057432 0.000000
# 6 0.000000 0.000000 0.000000 0.003276 0.000000 0.053986
#
#
# Mechanical properties :
#
#
# Convention : Reuss Voigt Hill
#
# Bulk Modulus (GPa) = 19.02714 41.54630 30.28672
# Shear Modulus (GPa) = 15.79404 22.29672 19.04538
#
# Velocity S-wave (km/s) = 2.77510 3.29725 3.04738
# Velocity P-wave (km/s) = 4.42107 5.89523 5.21055
#
# Compressibility (1/GPa) = 0.05255650
#
# Stress axis : x y z
#
# Youngs Moduli (GPa) = 15.24021 46.45136 91.40210
#
# Poissons Ratio (x) = 0.34629 0.93351
# Poissons Ratio (y) = 0.11361 0.46577
# Poissons Ratio (z) = 0.15565 0.23671
#
# Static dielectric constant tensor:
#      x y z
#    x 1.864500 0.000000 0.054820 
#    y 0.000000 1.746150 0.000000 
#    z 0.054820 0.000000 1.855580 
# 
# From -- ./inp_files/145753.got.cif
#   From: 2010.05.17/outbox.cif.g08.bks.cpg/sg15_73_cif.got.tgz:145753.got - 2010.06.03 18:47:42.
