data_PCOD9263715
_publ_section_title
;
Structure prediction by ZEFSAII (Michael W. Deem and Ramdas Pophale) SiO2 
 PCOD9263715
Probable space group: C 2/C
;
_chemical_formula_sum "Si O2"
_cell_formula_units_Z 56
_cell_length_a 15.657864
_cell_length_b 11.660323
_cell_length_c 30.037418
_cell_angle_alpha 90.000000
_cell_angle_beta 28.183366
_cell_angle_gamma 90.000000
_cell_volume 2590.114358
_symmetry_space_group_name_H-M "C 2/C"
_symmetry_group_IT_number 15
_symmetry_cell_setting 'monoclinic'
loop_
_space_group_symop_operation_xyz
x,y,z
-x,y,1/2-z
-x,-y,-z
x,-y,1/2+z
1/2+x,1/2+y,z
1/2-x,1/2+y,1/2-z
1/2-x,1/2-y,-z
1/2+x,1/2-y,1/2+z
loop_
_atom_site_type_symbol
_atom_site_label
_atom_site_fract_x
_atom_site_fract_y
_atom_site_fract_z
Si Si1 0.955676 0.728451 0.632333
Si Si2 0.292899 0.016991 0.080154
Si Si3 0.281413 0.410311 0.027181
Si Si4 0.742685 0.532133 0.699338
Si Si5 0.378018 0.205123 0.152961
Si Si6 0.106908 0.102389 0.585915
Si Si7 0.790874 0.262018 0.361749
O O1 0.846013 0.651567 0.648143
O O2 0.808615 0.762233 0.736550
O O3 0.107177 0.646953 0.583990
O O4 0.048203 0.836944 0.568134
O O5 0.186590 0.000450 0.175444
O O6 0.246508 0.149852 0.089468
O O7 0.239620 0.927680 0.066149
O O8 0.500000 0.000000 0.000000
O O9 0.252667 0.378336 0.091805
O O10 0.317973 0.536262 0.991741
O O11 0.876261 0.432118 0.654483
O O12 0.578918 0.546224 0.808955
O O13 0.542169 0.270791 0.101341
O O14 0.342868 0.245863 0.118600
O O15 0.000000 0.260770 0.250000
#
# Coordination Sequence:
#
# PCOD9263715 Si02
#       7
#     8   8   8   8   8   8   8
#     4  10  19  34  59  88 115 153 196 254 289 353
#     4  11  21  36  56  88 117 155 198 252 302 350
#     4  11  20  34  59  89 115 148 210 241 295 340
#     4  10  20  37  59  86 123 156 197 242 308 359
#     4  10  21  38  57  90 120 158 194 245 307 361
#     4  11  22  36  60  89 122 156 200 250 299 359
#     4  11  21  37  61  86 117 155 203 251 290 359
#
# _framework density 21.620666
#
# number of rings (size 3 to 8) (size 9 to 14) (size 15 to 20)
#    0.000    1.429    2.857    5.571    0.000    0.571 
#    0.000    6.429    0.000    1.714   11.143    0.000 
#    0.000    0.000    0.000    0.000    0.000    0.000 
#
# Total GULP energy -156391.795806 kJ/mol
# GULP energy per Si atom -5585.421279 kJ/mol
# Density = 2.157146 g / cm^3
# Si number density = 21.620666 Si / 1000 Ang^3
#
#
#
# Elastic Constant Matrix: (Units=GPa)
#
#
# Indices 1 2 3 4 5 6 
#
# 1 79.5569 30.2183 16.8326 0.0000 -5.8030 0.0000
# 2 30.2183 50.7005 10.9607 -0.0001 -15.4894 -0.0001
# 3 16.8326 10.9607 90.2615 -0.0007 -14.1602 0.0001
# 4 0.0000 -0.0001 -0.0007 24.7748 0.0001 -1.9624
# 5 -5.8030 -15.4894 -14.1602 0.0001 32.4433 0.0000
# 6 0.0000 -0.0001 0.0001 -1.9624 0.0000 32.4992
#
#
#
# Elastic Compliance Matrix: (Units=1/GPa)
#
#
# Indices 1 2 3 4 5 6 
#
# 1 0.016806 -0.010425 -0.002337 0.000000 -0.002991 0.000000
# 2 -0.010425 0.029671 0.000291 0.000000 0.012428 0.000000
# 3 -0.002337 0.000291 0.012276 0.000000 0.005079 0.000000
# 4 0.000000 0.000000 0.000000 0.040558 0.000000 0.002449
# 5 -0.002991 0.012428 0.005079 0.000000 0.038438 0.000000
# 6 0.000000 0.000000 0.000000 0.002449 0.000000 0.030918
#
#
# Mechanical properties :
#
#
# Convention : Reuss Voigt Hill
#
# Bulk Modulus (GPa) = 29.57715 37.39357 33.48536
# Shear Modulus (GPa) = 24.40450 28.77729 26.59089
#
# Velocity S-wave (km/s) = 3.36334 3.65226 3.51077
# Velocity P-wave (km/s) = 5.36587 5.92606 5.65290
#
# Compressibility (1/GPa) = 0.03380988
#
# Stress axis : x y z
#
# Youngs Moduli (GPa) = 59.50338 33.70268 81.45795
#
# Poissons Ratio (x) = 0.35135 0.19040
# Poissons Ratio (y) = 0.62033 -0.02369
# Poissons Ratio (z) = 0.13908 -0.00980
#
# Static dielectric constant tensor:
#      x y z
#    x 1.803680 0.000000 0.008750 
#    y 0.000000 1.806340 0.000000 
#    z 0.008750 0.000000 1.838430 
# 
# From -- ./inp_files/313733.got.cif
#   From: 2010.05.17/outbox.cif.g08.bks.cpg/sg15_157_cif.got.tgz:313733.got - 2010.06.03 18:47:42.
