data_PCOD9263243
_publ_section_title
;
Structure prediction by ZEFSAII (Michael W. Deem and Ramdas Pophale) SiO2 
 PCOD9263243
Probable space group: C 2/C
;
_chemical_formula_sum "Si O2"
_cell_formula_units_Z 60
_cell_length_a 5.709875
_cell_length_b 26.821819
_cell_length_c 18.590542
_cell_angle_alpha 90.000000
_cell_angle_beta 83.820150
_cell_angle_gamma 90.000000
_cell_volume 2830.582276
_symmetry_space_group_name_H-M "C 2/C"
_symmetry_group_IT_number 15
_symmetry_cell_setting 'monoclinic'
loop_
_space_group_symop_operation_xyz
x,y,z
-x,y,1/2-z
-x,-y,-z
x,-y,1/2+z
1/2+x,1/2+y,z
1/2-x,1/2+y,1/2-z
1/2-x,1/2-y,-z
1/2+x,1/2-y,1/2+z
loop_
_atom_site_type_symbol
_atom_site_label
_atom_site_fract_x
_atom_site_fract_y
_atom_site_fract_z
Si Si1 0.399350 0.043648 0.173131
Si Si2 0.205440 0.776351 0.079262
Si Si3 0.330361 0.056809 0.850959
Si Si4 0.297204 0.260562 0.912979
Si Si5 0.500000 0.483433 0.250000
Si Si6 0.600481 0.120347 0.934305
Si Si7 0.243900 0.126434 0.071736
Si Si8 0.956618 0.942863 0.487137
O O1 0.500000 0.054754 0.250000
O O2 0.382936 0.091981 0.123906
O O3 0.556019 0.997760 0.138646
O O4 0.138896 0.019445 0.190779
O O5 0.449737 0.764144 0.113198
O O6 0.208258 0.836110 0.072578
O O7 0.948723 0.758301 0.113843
O O8 0.250000 0.750000 0.000000
O O9 0.201144 0.049693 0.779761
O O10 0.511580 0.101281 0.860357
O O11 0.128308 0.068007 0.914968
O O12 0.324895 0.319446 0.897897
O O13 0.250000 0.250000 0.000000
O O14 0.399608 0.138097 0.995716
O O15 0.699431 0.070909 0.969243
O O16 0.029685 0.092505 0.050460
O O17 0.000000 0.000000 0.500000
#
# Coordination Sequence:
#
# PCOD9263243 Si02
#       8
#     8   8   8   8   4   8   8   8
#     4  10  22  40  56  81 110 151 201 242 288 352
#     4  10  19  34  54  81 125 154 193 233 290 349
#     4  10  21  35  54  80 113 148 191 236 287 350
#     4  10  19  35  53  85 117 158 190 240 286 353
#     4  10  20  40  58  74 112 154 196 244 282 352
#     4  11  21  32  55  86 120 152 189 239 299 362
#     4  11  21  33  57  82 116 153 196 239 305 354
#     4  11  21  32  50  84 119 149 183 232 298 356
#
# _framework density 21.197053
#
# number of rings (size 3 to 8) (size 9 to 14) (size 15 to 20)
#    0.000    1.600    2.667    4.800    1.867    3.200 
#    0.000    0.000    0.000    0.000    1.733    0.000 
#    0.000    0.000    0.000    0.000    0.000    0.000 
#
# Total GULP energy -167328.369955 kJ/mol
# GULP energy per Si atom -5577.612332 kJ/mol
# Density = 2.114881 g / cm^3
# Si number density = 21.197053 Si / 1000 Ang^3
#
#
#
# Elastic Constant Matrix: (Units=GPa)
#
#
# Indices 1 2 3 4 5 6 
#
# 1 97.8424 26.7256 6.9266 0.0000 14.0988 0.0000
# 2 26.7256 123.0801 29.7418 0.0000 24.7607 0.0000
# 3 6.9266 29.7418 43.9951 0.0000 10.4755 0.0000
# 4 0.0000 0.0000 0.0000 14.8152 0.0000 3.9188
# 5 14.0988 24.7607 10.4755 0.0000 22.6793 0.0000
# 6 0.0000 0.0000 0.0000 3.9188 0.0000 31.6207
#
#
#
# Elastic Compliance Matrix: (Units=1/GPa)
#
#
# Indices 1 2 3 4 5 6 
#
# 1 0.011408 -0.001453 0.000558 0.000000 -0.005764 0.000000
# 2 -0.001453 0.011615 -0.005414 0.000000 -0.009277 0.000000
# 3 0.000558 -0.005414 0.028064 0.000000 -0.007398 0.000000
# 4 0.000000 0.000000 0.000000 0.069786 0.000000 -0.008649
# 5 -0.005764 -0.009277 -0.007398 0.000000 0.061222 0.000000
# 6 0.000000 0.000000 0.000000 -0.008649 0.000000 0.032697
#
#
# Mechanical properties :
#
#
# Convention : Reuss Voigt Hill
#
# Bulk Modulus (GPa) = 25.99445 43.52285 34.75865
# Shear Modulus (GPa) = 20.81322 27.25795 24.03558
#
# Velocity S-wave (km/s) = 3.13692 3.58988 3.37101
# Velocity P-wave (km/s) = 5.04085 6.14492 5.62006
#
# Compressibility (1/GPa) = 0.03846975
#
# Stress axis : x y z
#
# Youngs Moduli (GPa) = 87.65514 86.09675 35.63319
#
# Poissons Ratio (x) = 0.12506 -0.01989
# Poissons Ratio (y) = 0.12732 0.19293
# Poissons Ratio (z) = -0.04894 0.46616
#
# Static dielectric constant tensor:
#      x y z
#    x 1.863140 0.000000 0.017100 
#    y 0.000000 1.758250 0.000000 
#    z 0.017100 0.000000 1.782780 
# 
# From -- ./inp_files/228147.got.cif
#   From: 2010.05.17/outbox.cif.g08.bks.cpg/sg15_115_cif.got.tgz:228147.got - 2010.06.03 18:47:42.
