data_PCOD9263533
_publ_section_title
;
Structure prediction by ZEFSAII (Michael W. Deem and Ramdas Pophale) SiO2 
 PCOD9263533
Probable space group: C 2/C
;
_chemical_formula_sum "Si O2"
_cell_formula_units_Z 44
_cell_length_a 16.054091
_cell_length_b 11.685723
_cell_length_c 9.345875
_cell_angle_alpha 90.000000
_cell_angle_beta 82.820969
_cell_angle_gamma 90.000000
_cell_volume 1739.575212
_symmetry_space_group_name_H-M "C 2/C"
_symmetry_group_IT_number 15
_symmetry_cell_setting 'monoclinic'
loop_
_space_group_symop_operation_xyz
x,y,z
-x,y,1/2-z
-x,-y,-z
x,-y,1/2+z
1/2+x,1/2+y,z
1/2-x,1/2+y,1/2-z
1/2-x,1/2-y,-z
1/2+x,1/2-y,1/2+z
loop_
_atom_site_type_symbol
_atom_site_label
_atom_site_fract_x
_atom_site_fract_y
_atom_site_fract_z
Si Si1 0.608895 0.986242 0.215081
Si Si2 0.281548 0.570396 0.037910
Si Si3 0.539358 0.865168 0.977830
Si Si4 0.360231 0.340002 0.072585
Si Si5 0.000000 0.780531 0.250000
Si Si6 0.791639 0.287532 0.205964
O O1 0.628234 0.867636 0.290499
O O2 0.692999 0.020127 0.112550
O O3 0.596678 0.081899 0.338266
O O4 0.539652 0.957204 0.106654
O O5 0.342286 0.462391 0.008019
O O6 0.311955 0.661109 0.149473
O O7 0.261655 0.643944 0.902859
O O8 0.591595 0.756435 0.028289
O O9 0.470579 0.800497 0.891535
O O10 0.424274 0.349304 0.194984
O O11 0.272046 0.289611 0.147423
#
# Coordination Sequence:
#
# PCOD9263533 Si02
#       6
#     8   8   8   8   4   8
#     4  11  20  35  59  90 116 144 190 241 302 335
#     4  10  19  34  57  88 120 145 181 243 294 344
#     4  10  21  37  59  83 114 153 195 236 283 342
#     4   9  20  37  57  79 114 154 194 230 283 338
#     4   8  20  42  54  80 108 160 206 228 266 344
#     4  10  20  33  58  91 117 142 184 241 299 339
#
# _framework density 25.293531000000002
#
# number of rings (size 3 to 8) (size 9 to 14) (size 15 to 20)
#    1.091    1.091    3.636    0.000    0.000    6.545 
#    0.000    0.909    0.000    0.000    0.000    0.000 
#    0.000    0.000    0.000    0.000    0.000    0.000 
#
# Total GULP energy -122819.084571 kJ/mol
# GULP energy per Si atom -5582.685662 kJ/mol
# Density = 2.523596 g / cm^3
# Si number density = 25.293531 Si / 1000 Ang^3
#
#
#
# Elastic Constant Matrix: (Units=GPa)
#
#
# Indices 1 2 3 4 5 6 
#
# 1 53.2973 9.8165 -6.6041 0.0000 19.1435 0.0000
# 2 9.8165 116.4167 32.9302 0.0000 9.1544 0.0000
# 3 -6.6041 32.9302 83.8067 0.0000 20.3630 0.0000
# 4 0.0000 0.0000 0.0000 34.6707 0.0000 7.5843
# 5 19.1435 9.1544 20.3630 0.0000 28.6350 0.0000
# 6 0.0000 0.0000 0.0000 7.5843 0.0000 26.9108
#
#
#
# Elastic Compliance Matrix: (Units=1/GPa)
#
#
# Indices 1 2 3 4 5 6 
#
# 1 0.029988 -0.003306 0.010005 0.000000 -0.026106 0.000000
# 2 -0.003306 0.010034 -0.004788 0.000000 0.002407 0.000000
# 3 0.010005 -0.004788 0.019167 0.000000 -0.018788 0.000000
# 4 0.000000 0.000000 0.000000 0.030738 0.000000 -0.008663
# 5 -0.026106 0.002407 -0.018788 0.000000 0.064966 0.000000
# 6 0.000000 0.000000 0.000000 -0.008663 0.000000 0.039601
#
#
# Mechanical properties :
#
#
# Convention : Reuss Voigt Hill
#
# Bulk Modulus (GPa) = 15.87003 36.20065 26.03534
# Shear Modulus (GPa) = 23.62104 32.53519 28.07811
#
# Velocity S-wave (km/s) = 3.05925 3.59040 3.33542
# Velocity P-wave (km/s) = 4.33205 5.61527 5.01487
#
# Compressibility (1/GPa) = 0.06301185
#
# Stress axis : x y z
#
# Youngs Moduli (GPa) = 33.34635 99.66475 52.17275
#
# Poissons Ratio (x) = 0.32949 -0.52201
# Poissons Ratio (y) = 0.11024 0.24980
# Poissons Ratio (z) = -0.33364 0.47719
#
# Static dielectric constant tensor:
#      x y z
#    x 2.024220 0.000000 0.047980 
#    y 0.000000 2.011150 0.000000 
#    z 0.047980 0.000000 2.076310 
# 
# From -- ./inp_files/110332.got.cif
#   From: 2010.05.17/outbox.cif.g08.bks.cpg/sg15_56_cif.got.tgz:110332.got - 2010.06.03 18:47:42.
