data_PCOD9263354
_publ_section_title
;
Structure prediction by ZEFSAII (Michael W. Deem and Ramdas Pophale) SiO2 
 PCOD9263354
Probable space group: C 2/C
;
_chemical_formula_sum "Si O2"
_cell_formula_units_Z 44
_cell_length_a 14.375365
_cell_length_b 21.550592
_cell_length_c 11.037517
_cell_angle_alpha 90.000000
_cell_angle_beta 31.288861
_cell_angle_gamma 90.000000
_cell_volume 1775.873811
_symmetry_space_group_name_H-M "C 2/C"
_symmetry_group_IT_number 15
_symmetry_cell_setting 'monoclinic'
loop_
_space_group_symop_operation_xyz
x,y,z
-x,y,1/2-z
-x,-y,-z
x,-y,1/2+z
1/2+x,1/2+y,z
1/2-x,1/2+y,1/2-z
1/2-x,1/2-y,-z
1/2+x,1/2-y,1/2+z
loop_
_atom_site_type_symbol
_atom_site_label
_atom_site_fract_x
_atom_site_fract_y
_atom_site_fract_z
Si Si1 0.000000 0.864931 0.250000
Si Si2 0.500000 0.931980 0.750000
Si Si3 0.000000 0.075237 0.250000
Si Si4 0.784730 0.974450 0.608555
Si Si5 0.538979 0.298166 0.430848
Si Si6 0.091000 0.340842 0.418629
Si Si7 0.775544 0.386057 0.624710
O O1 0.879853 0.911798 0.457651
O O2 0.898941 0.821694 0.269861
O O3 0.632305 0.977266 0.676602
O O4 0.566226 0.887173 0.563298
O O5 0.172303 0.108371 0.113523
O O6 0.917714 0.031414 0.447240
O O7 0.732453 0.954115 0.800754
O O8 0.502850 0.225832 0.458269
O O9 0.354102 0.332514 0.671764
O O10 0.700807 0.323510 0.333276
O O11 0.978673 0.367390 0.429685
#
# Coordination Sequence:
#
# PCOD9263354 Si02
#       7
#     4   4   4   8   8   8   8
#     4   9  17  30  56  86 116 152 179 223 294 356
#     4  10  19  34  55  96 121 148 181 236 296 366
#     4  11  22  44  61  78 111 158 204 243 292 330
#     4   9  19  36  59  83 115 145 188 240 290 342
#     4  11  20  35  58  88 123 157 187 234 290 351
#     4  11  21  35  59  88 126 152 192 232 292 352
#     4  10  23  40  60  86 114 154 196 243 288 344
#
# _framework density 24.776534999999999
#
# number of rings (size 3 to 8) (size 9 to 14) (size 15 to 20)
#    0.000    1.818    3.636    1.091    0.000    1.455 
#    3.273    2.727    0.000    0.000    0.000    0.000 
#    0.000    0.000    0.000    0.000    0.000    0.000 
#
# Total GULP energy -122642.587667 kJ/mol
# GULP energy per Si atom -5574.663076 kJ/mol
# Density = 2.472014 g / cm^3
# Si number density = 24.776535 Si / 1000 Ang^3
#
#
#
# Elastic Constant Matrix: (Units=GPa)
#
#
# Indices 1 2 3 4 5 6 
#
# 1 147.6366 20.0028 19.5994 -0.0097 -39.5608 0.0147
# 2 20.0028 55.3718 9.0809 0.0053 4.2824 0.0184
# 3 19.5994 9.0809 68.8810 -0.0135 -34.8267 0.0284
# 4 -0.0097 0.0053 -0.0135 20.0630 0.0105 -15.1958
# 5 -39.5608 4.2824 -34.8267 0.0105 45.4627 -0.0112
# 6 0.0147 0.0184 0.0284 -15.1958 -0.0112 25.2253
#
#
#
# Elastic Compliance Matrix: (Units=1/GPa)
#
#
# Indices 1 2 3 4 5 6 
#
# 1 0.010369 -0.005425 0.004220 0.000003 0.012767 0.000001
# 2 -0.005425 0.022314 -0.007912 -0.000027 -0.012884 -0.000026
# 3 0.004220 -0.007912 0.027084 -0.000006 0.025165 -0.000019
# 4 0.000003 -0.000027 -0.000006 0.091668 -0.000007 0.055221
# 5 0.012767 -0.012884 0.025165 -0.000007 0.053596 -0.000007
# 6 0.000001 -0.000026 -0.000019 0.055221 -0.000007 0.072908
#
#
# Mechanical properties :
#
#
# Convention : Reuss Voigt Hill
#
# Bulk Modulus (GPa) = 24.07840 41.02839 32.55339
# Shear Modulus (GPa) = 16.12810 33.03061 24.57935
#
# Velocity S-wave (km/s) = 2.55413 3.65518 3.15309
# Velocity P-wave (km/s) = 4.29388 5.86593 5.14036
#
# Compressibility (1/GPa) = 0.04153100
#
# Stress axis : x y z
#
# Youngs Moduli (GPa) = 96.43956 44.81585 36.92267
#
# Poissons Ratio (x) = 0.24313 -0.15580
# Poissons Ratio (y) = 0.52320 0.29214
# Poissons Ratio (z) = -0.40694 0.35459
#
# Static dielectric constant tensor:
#      x y z
#    x 2.067580 0.000000 0.051630 
#    y 0.000000 1.940160 0.000010 
#    z 0.051630 0.000010 2.024910 
# 
# From -- ./inp_files/30805.got.cif
#   From: 2010.05.17/outbox.cif.g08.bks.cpg/sg15_16_cif.got.tgz:30805.got - 2010.06.03 18:47:42.
