data_PCOD9263664
_publ_section_title
;
Structure prediction by ZEFSAII (Michael W. Deem and Ramdas Pophale) SiO2 
 PCOD9263664
Probable space group: C 2/C
;
_chemical_formula_sum "Si O2"
_cell_formula_units_Z 48
_cell_length_a 12.042826
_cell_length_b 26.488673
_cell_length_c 13.037734
_cell_angle_alpha 90.000000
_cell_angle_beta 145.368660
_cell_angle_gamma 90.000000
_cell_volume 2363.544195
_symmetry_space_group_name_H-M "C 2/C"
_symmetry_group_IT_number 15
_symmetry_cell_setting 'monoclinic'
loop_
_space_group_symop_operation_xyz
x,y,z
-x,y,1/2-z
-x,-y,-z
x,-y,1/2+z
1/2+x,1/2+y,z
1/2-x,1/2+y,1/2-z
1/2-x,1/2-y,-z
1/2+x,1/2-y,1/2+z
loop_
_atom_site_type_symbol
_atom_site_label
_atom_site_fract_x
_atom_site_fract_y
_atom_site_fract_z
Si Si1 0.813270 0.037675 0.857368
Si Si2 0.840925 0.782190 0.818588
Si Si3 0.299526 0.352321 0.406313
Si Si4 0.500000 0.215475 0.750000
Si Si5 0.773189 0.914466 0.101999
Si Si6 0.000000 0.520467 0.250000
Si Si7 0.908758 0.681332 0.954707
O O1 0.846332 0.088835 0.949531
O O2 0.769241 0.056536 0.708521
O O3 0.624536 0.011672 0.763443
O O4 0.000000 0.000000 0.000000
O O5 0.815557 0.737289 0.881693
O O6 0.638048 0.808739 0.640182
O O7 0.929378 0.751876 0.787794
O O8 0.004667 0.822342 0.972531
O O9 0.150116 0.344149 0.198470
O O10 0.185453 0.322003 0.409206
O O11 0.674929 0.859296 0.031014
O O12 0.000000 0.908689 0.250000
O O13 0.657388 0.946545 0.930688
#
# Coordination Sequence:
#
# PCOD9263664 Si02
#       7
#     8   8   8   4   8   4   8
#     4  11  24  46  72 101 137 179 234 291 342 413
#     4  11  20  37  60  92 134 179 214 273 342 404
#     4  10  22  36  59  90 136 169 216 273 334 401
#     4  10  19  34  58  94 132 172 213 270 334 414
#     4  11  25  47  72 100 137 177 233 288 347 411
#     4  12  25  48  76  98 136 190 225 294 358 398
#     4  10  22  37  63  92 126 173 218 269 332 408
#
# _framework density 20.308484
#
# number of rings (size 3 to 8) (size 9 to 14) (size 15 to 20)
#    0.000    1.333    5.000    1.500    4.667    0.000 
#    0.000    0.833    0.000    0.000    0.000    0.000 
#    0.000    0.000    0.000    0.000    0.000    0.000 
#
# Total GULP energy -133898.106842 kJ/mol
# GULP energy per Si atom -5579.087785 kJ/mol
# Density = 2.026226 g / cm^3
# Si number density = 20.308484 Si / 1000 Ang^3
#
#
#
# Elastic Constant Matrix: (Units=GPa)
#
#
# Indices 1 2 3 4 5 6 
#
# 1 68.8370 44.0722 37.3737 0.0000 20.7541 0.0000
# 2 44.0722 151.2910 66.4244 0.0000 27.7450 0.0000
# 3 37.3737 66.4244 119.7240 0.0000 29.0386 0.0000
# 4 0.0000 0.0000 0.0000 49.1702 0.0000 -23.4212
# 5 20.7541 27.7450 29.0386 0.0000 29.9314 0.0000
# 6 0.0000 0.0000 0.0000 -23.4212 0.0000 88.8516
#
#
#
# Elastic Compliance Matrix: (Units=1/GPa)
#
#
# Indices 1 2 3 4 5 6 
#
# 1 0.020656 -0.003311 -0.002461 0.000000 -0.008866 0.000000
# 2 -0.003311 0.009745 -0.003582 0.000000 -0.003263 0.000000
# 3 -0.002461 -0.003582 0.012932 0.000000 -0.007520 0.000000
# 4 0.000000 0.000000 0.000000 0.023258 0.000000 0.006131
# 5 -0.008866 -0.003263 -0.007520 0.000000 0.049877 0.000000
# 6 0.000000 0.000000 0.000000 0.006131 0.000000 0.012871
#
#
# Mechanical properties :
#
#
# Convention : Reuss Voigt Hill
#
# Bulk Modulus (GPa) = 40.60739 70.62139 55.61439
# Shear Modulus (GPa) = 31.99914 46.38943 39.19429
#
# Velocity S-wave (km/s) = 3.97376 4.78456 4.39788
# Velocity P-wave (km/s) = 6.41038 8.08532 7.29608
#
# Compressibility (1/GPa) = 0.02462606
#
# Stress axis : x y z
#
# Youngs Moduli (GPa) = 48.41223 102.61443 77.32860
#
# Poissons Ratio (x) = 0.33975 0.19028
# Poissons Ratio (y) = 0.16029 0.27698
# Poissons Ratio (z) = 0.11913 0.36756
#
# Static dielectric constant tensor:
#      x y z
#    x 1.792780 0.000000 -0.026640 
#    y 0.000000 1.753450 0.000000 
#    z -0.026640 0.000000 1.702490 
# 
# From -- ./inp_files/148891.got.cif
#   From: 2010.05.17/outbox.cif.g08.bks.cpg/sg15_75_cif.got.tgz:148891.got - 2010.06.03 18:47:42.
