data_PCOD9263467
_publ_section_title
;
Structure prediction by ZEFSAII (Michael W. Deem and Ramdas Pophale) SiO2 
 PCOD9263467
Probable space group: C 2/C
;
_chemical_formula_sum "Si O2"
_cell_formula_units_Z 48
_cell_length_a 13.897980
_cell_length_b 10.568180
_cell_length_c 17.463176
_cell_angle_alpha 90.000000
_cell_angle_beta 70.318394
_cell_angle_gamma 90.000000
_cell_volume 2415.081260
_symmetry_space_group_name_H-M "C 2/C"
_symmetry_group_IT_number 15
_symmetry_cell_setting 'monoclinic'
loop_
_space_group_symop_operation_xyz
x,y,z
-x,y,1/2-z
-x,-y,-z
x,-y,1/2+z
1/2+x,1/2+y,z
1/2-x,1/2+y,1/2-z
1/2-x,1/2-y,-z
1/2+x,1/2-y,1/2+z
loop_
_atom_site_type_symbol
_atom_site_label
_atom_site_fract_x
_atom_site_fract_y
_atom_site_fract_z
Si Si1 0.760520 0.290568 0.847416
Si Si2 0.051280 0.864816 0.966016
Si Si3 0.275491 0.021872 0.562355
Si Si4 0.837047 0.841748 0.008863
Si Si5 0.662679 0.194139 0.342980
Si Si6 0.570096 0.855531 0.580547
O O1 0.652542 0.361717 0.888037
O O2 0.749572 0.154120 0.891157
O O3 0.788919 0.277981 0.751431
O O4 0.852943 0.355929 0.868768
O O5 0.076806 0.777324 0.032207
O O6 0.951099 0.802196 0.952616
O O7 0.000000 0.000000 0.000000
O O8 0.384318 0.040923 0.490420
O O9 0.196354 0.975665 0.518193
O O10 0.279098 0.914974 0.625861
O O11 0.837972 0.815691 0.099901
O O12 0.750000 0.750000 0.000000
O O13 0.547615 0.140289 0.364733
#
# Coordination Sequence:
#
# PCOD9263467 Si02
#       6
#     8   8   8   8   8   8
#     4  11  22  36  56  90 116 141 191 242 283 329
#     4  10  19  34  57  81 111 150 185 222 275 344
#     4  10  20  38  60  80 111 154 191 228 278 348
#     4   9  19  37  58  79 107 152 191 220 276 346
#     4  10  22  37  57  86 116 145 187 243 287 325
#     4  10  20  36  58  82 110 150 192 223 279 350
#
# _framework density 19.875108000000001
#
# number of rings (size 3 to 8) (size 9 to 14) (size 15 to 20)
#    0.000    2.000    0.000    5.000    0.000    5.333 
#    0.000    5.000    0.000    0.000    0.000    0.000 
#    0.000    0.000    0.000    0.000    0.000    0.000 
#
# Total GULP energy -133775.208345 kJ/mol
# GULP energy per Si atom -5573.967014 kJ/mol
# Density = 1.982987 g / cm^3
# Si number density = 19.875108 Si / 1000 Ang^3
#
#
#
# Elastic Constant Matrix: (Units=GPa)
#
#
# Indices 1 2 3 4 5 6 
#
# 1 143.1890 15.0568 66.5587 0.0000 -3.4993 0.0000
# 2 15.0568 59.9158 20.3869 0.0000 9.5043 0.0000
# 3 66.5587 20.3869 136.4103 0.0000 -1.6418 0.0000
# 4 0.0000 0.0000 0.0000 22.4730 0.0000 5.3162
# 5 -3.4993 9.5043 -1.6418 0.0000 20.5973 0.0000
# 6 0.0000 0.0000 0.0000 5.3162 0.0000 32.2987
#
#
#
# Elastic Compliance Matrix: (Units=1/GPa)
#
#
# Indices 1 2 3 4 5 6 
#
# 1 0.009126 -0.001116 -0.004265 0.000000 0.001725 0.000000
# 2 -0.001116 0.019275 -0.002448 0.000000 -0.009279 0.000000
# 3 -0.004265 -0.002448 0.009792 0.000000 0.001186 0.000000
# 4 0.000000 0.000000 0.000000 0.046301 0.000000 -0.007621
# 5 0.001725 -0.009279 0.001186 0.000000 0.053219 0.000000
# 6 0.000000 0.000000 0.000000 -0.007621 0.000000 0.032215
#
#
# Mechanical properties :
#
#
# Convention : Reuss Voigt Hill
#
# Bulk Modulus (GPa) = 44.37482 60.39109 52.38295
# Shear Modulus (GPa) = 25.89350 30.90797 28.40074
#
# Velocity S-wave (km/s) = 3.61336 3.94777 3.78426
# Velocity P-wave (km/s) = 6.30744 7.15759 6.74592
#
# Compressibility (1/GPa) = 0.02253530
#
# Stress axis : x y z
#
# Youngs Moduli (GPa) = 109.57833 51.87969 102.12286
#
# Poissons Ratio (x) = 0.05788 0.43558
# Poissons Ratio (y) = 0.12226 0.25000
# Poissons Ratio (z) = 0.46738 0.12700
#
# Static dielectric constant tensor:
#      x y z
#    x 1.778180 0.000000 -0.007990 
#    y 0.000000 1.803590 0.000000 
#    z -0.007990 0.000000 1.663070 
# 
# From -- ./inp_files/196522.got.cif
#   From: 2010.05.17/outbox.cif.g08.bks.cpg/sg15_99_cif.got.tgz:196522.got - 2010.06.03 18:47:42.
