data_PCOD9263700
_publ_section_title
;
Structure prediction by ZEFSAII (Michael W. Deem and Ramdas Pophale) SiO2 
 PCOD9263700
Probable space group: C 2/C
;
_chemical_formula_sum "Si O2"
_cell_formula_units_Z 56
_cell_length_a 22.093232
_cell_length_b 19.220881
_cell_length_c 14.349686
_cell_angle_alpha 90.000000
_cell_angle_beta 25.292094
_cell_angle_gamma 90.000000
_cell_volume 2603.393657
_symmetry_space_group_name_H-M "C 2/C"
_symmetry_group_IT_number 15
_symmetry_cell_setting 'monoclinic'
loop_
_space_group_symop_operation_xyz
x,y,z
-x,y,1/2-z
-x,-y,-z
x,-y,1/2+z
1/2+x,1/2+y,z
1/2-x,1/2+y,1/2-z
1/2-x,1/2-y,-z
1/2+x,1/2-y,1/2+z
loop_
_atom_site_type_symbol
_atom_site_label
_atom_site_fract_x
_atom_site_fract_y
_atom_site_fract_z
Si Si1 0.463277 0.763651 0.116616
Si Si2 0.768861 0.543659 0.007986
Si Si3 0.000000 0.355522 0.250000
Si Si4 0.739009 0.210305 0.115297
Si Si5 0.000000 0.286233 0.750000
Si Si6 0.185199 0.390972 0.260224
Si Si7 0.996502 0.113880 0.367943
Si Si8 0.599663 0.091099 0.242514
O O1 0.492226 0.807484 0.170126
O O2 0.349067 0.810493 0.219753
O O3 0.435809 0.684685 0.184986
O O4 0.604731 0.762849 0.858431
O O5 0.792008 0.569759 0.869102
O O6 0.836295 0.467470 0.912077
O O7 0.863202 0.594184 0.940317
O O8 0.601336 0.552945 0.255832
O O9 0.721812 0.126687 0.135490
O O10 0.750000 0.250000 0.000000
O O11 0.884187 0.236714 0.958028
O O12 0.055670 0.340905 0.747061
O O13 0.045085 0.424939 0.501268
O O14 0.328784 0.394230 0.120860
O O15 0.000000 0.119204 0.250000
#
# Coordination Sequence:
#
# PCOD9263700 Si02
#       8
#     8   8   4   8   4   8   8   8
#     4  10  19  34  59  86 122 154 196 254 303 362
#     4  10  21  35  54  84 119 158 196 236 296 376
#     4  10  21  34  56  87 118 158 200 232 310 371
#     4   9  20  37  59  89 108 149 208 250 302 349
#     4  10  19  36  60  83 106 144 200 252 304 343
#     4   9  20  34  56  83 113 158 200 237 295 360
#     4  10  20  33  54  88 122 154 199 247 305 356
#     4  10  19  37  60  78 116 155 193 248 294 363
#
# _framework density 21.510386
#
# number of rings (size 3 to 8) (size 9 to 14) (size 15 to 20)
#    0.000    2.286    0.714    1.714    2.000    1.714 
#    3.857    0.000    0.000    8.571    0.000    0.000 
#    0.000    0.000    0.000    0.000    0.000    0.000 
#
# Total GULP energy -156063.598931 kJ/mol
# GULP energy per Si atom -5573.699962 kJ/mol
# Density = 2.146143 g / cm^3
# Si number density = 21.510386 Si / 1000 Ang^3
#
#
#
# Elastic Constant Matrix: (Units=GPa)
#
#
# Indices 1 2 3 4 5 6 
#
# 1 31.2649 4.1268 25.3641 0.0004 -8.4846 -0.0003
# 2 4.1268 52.6983 45.1575 -0.0001 -14.5699 -0.0001
# 3 25.3641 45.1575 114.2167 0.0003 -24.9910 -0.0007
# 4 0.0004 -0.0001 0.0003 22.5965 -0.0004 -3.3710
# 5 -8.4846 -14.5699 -24.9910 -0.0004 32.3591 0.0004
# 6 -0.0003 -0.0001 -0.0007 -3.3710 0.0004 12.5214
#
#
#
# Elastic Compliance Matrix: (Units=1/GPa)
#
#
# Indices 1 2 3 4 5 6 
#
# 1 0.041488 0.007819 -0.011016 0.000000 0.005892 0.000000
# 2 0.007819 0.030862 -0.012574 0.000000 0.006235 0.000000
# 3 -0.011016 -0.012574 0.017210 0.000000 0.004742 0.000000
# 4 0.000000 0.000000 0.000000 0.046106 0.000000 0.012413
# 5 0.005892 0.006235 0.004742 0.000000 0.038917 0.000000
# 6 0.000000 0.000000 0.000000 0.012413 0.000000 0.083205
#
#
# Mechanical properties :
#
#
# Convention : Reuss Voigt Hill
#
# Bulk Modulus (GPa) = 17.23544 38.60852 27.92198
# Shear Modulus (GPa) = 16.19847 21.73082 18.96464
#
# Velocity S-wave (km/s) = 2.74716 3.18189 2.97248
# Velocity P-wave (km/s) = 4.25353 5.61132 4.97893
#
# Compressibility (1/GPa) = 0.05801998
#
# Stress axis : x y z
#
# Youngs Moduli (GPa) = 24.10329 32.40194 58.10427
#
# Poissons Ratio (x) = -0.25336 0.64006
# Poissons Ratio (y) = -0.18847 0.73061
# Poissons Ratio (z) = 0.26551 0.40743
#
# Static dielectric constant tensor:
#      x y z
#    x 4.018780 0.000000 -0.756770 
#    y 0.000000 1.801590 0.000000 
#    z -0.756770 0.000000 2.130050 
# 
# From -- ./inp_files/222958.got.cif
#   From: 2010.05.17/outbox.cif.g08.bks.cpg/sg15_112_cif.got.tgz:222958.got - 2010.06.03 18:47:42.
