data_PCOD9263105
_publ_section_title
;
Structure prediction by ZEFSAII (Michael W. Deem and Ramdas Pophale) SiO2 
 PCOD9263105
Probable space group: C 2/C
;
_chemical_formula_sum "Si O2"
_cell_formula_units_Z 56
_cell_length_a 17.772951
_cell_length_b 28.510183
_cell_length_c 8.867184
_cell_angle_alpha 90.000000
_cell_angle_beta 135.262071
_cell_angle_gamma 90.000000
_cell_volume 3162.530288
_symmetry_space_group_name_H-M "C 2/C"
_symmetry_group_IT_number 15
_symmetry_cell_setting 'monoclinic'
loop_
_space_group_symop_operation_xyz
x,y,z
-x,y,1/2-z
-x,-y,-z
x,-y,1/2+z
1/2+x,1/2+y,z
1/2-x,1/2+y,1/2-z
1/2-x,1/2-y,-z
1/2+x,1/2-y,1/2+z
loop_
_atom_site_type_symbol
_atom_site_label
_atom_site_fract_x
_atom_site_fract_y
_atom_site_fract_z
Si Si1 0.833826 0.656049 0.325975
Si Si2 0.301761 0.260629 0.813011
Si Si3 0.541193 0.182184 0.459411
Si Si4 0.365112 0.039974 0.882515
Si Si5 0.625718 0.298630 0.908810
Si Si6 0.787955 0.626051 0.603447
Si Si7 0.379326 0.056888 0.250763
O O1 0.737005 0.692367 0.159181
O O2 0.826075 0.640191 0.489786
O O3 0.836971 0.607367 0.241038
O O4 0.942251 0.683512 0.433905
O O5 0.343168 0.275184 0.706185
O O6 0.195587 0.229340 0.632491
O O7 0.398078 0.229026 0.011395
O O8 0.500000 0.157245 0.250000
O O9 0.632481 0.153629 0.672614
O O10 0.301448 0.072909 0.675161
O O11 0.345040 0.986318 0.807846
O O12 0.343835 0.047743 0.028694
O O13 0.491161 0.053927 0.048216
O O14 0.500000 0.296033 0.750000
O O15 0.672101 0.351255 0.964937
#
# Coordination Sequence:
#
# PCOD9263105 Si02
#       7
#     8   8   8   8   8   8   8
#     4  11  20  33  52  74 103 147 177 217 264 305
#     4   9  20  32  49  74 101 138 185 219 264 314
#     4  11  21  33  49  72 106 141 177 220 261 311
#     4  10  19  34  49  83 108 137 174 202 265 323
#     4   9  17  33  52  74 101 136 181 229 259 305
#     4  10  20  32  53  79 105 140 180 212 266 321
#     4  10  20  31  54  75 114 141 164 213 258 322
#
# _framework density 17.707339000000001
#
# number of rings (size 3 to 8) (size 9 to 14) (size 15 to 20)
#    0.000    2.000    1.429    3.857    0.000    1.714 
#    0.000    1.429    0.000    0.000    0.000   10.000 
#    0.000    0.000    0.000    0.000    0.000    0.000 
#
# Total GULP energy -156055.966499 kJ/mol
# GULP energy per Si atom -5573.427375 kJ/mol
# Density = 1.766704 g / cm^3
# Si number density = 17.707339 Si / 1000 Ang^3
#
#
#
# Elastic Constant Matrix: (Units=GPa)
#
#
# Indices 1 2 3 4 5 6 
#
# 1 83.7980 54.6699 42.9784 0.0000 12.0120 0.0000
# 2 54.6699 111.1211 28.7535 0.0000 8.2053 0.0000
# 3 42.9784 28.7535 52.2227 0.0000 3.1501 0.0000
# 4 0.0000 0.0000 0.0000 19.1909 0.0000 -1.6518
# 5 12.0120 8.2053 3.1501 0.0000 25.8280 0.0000
# 6 0.0000 0.0000 0.0000 -1.6518 0.0000 27.0250
#
#
#
# Elastic Compliance Matrix: (Units=1/GPa)
#
#
# Indices 1 2 3 4 5 6 
#
# 1 0.027613 -0.008441 -0.017594 0.000000 -0.008015 0.000000
# 2 -0.008441 0.013257 -0.000338 0.000000 -0.000245 0.000000
# 3 -0.017594 -0.000338 0.033561 0.000000 0.004197 0.000000
# 4 0.000000 0.000000 0.000000 0.052384 0.000000 0.003202
# 5 -0.008015 -0.000245 0.004197 0.000000 0.042011 0.000000
# 6 0.000000 0.000000 0.000000 0.003202 0.000000 0.037198
#
#
# Mechanical properties :
#
#
# Convention : Reuss Voigt Hill
#
# Bulk Modulus (GPa) = 46.11289 55.54951 50.83120
# Shear Modulus (GPa) = 18.79711 22.45812 20.62762
#
# Velocity S-wave (km/s) = 3.26167 3.56518 3.41679
# Velocity P-wave (km/s) = 6.34688 6.95603 6.65842
#
# Compressibility (1/GPa) = 0.02168591
#
# Stress axis : x y z
#
# Youngs Moduli (GPa) = 36.21545 75.42940 29.79620
#
# Poissons Ratio (x) = 0.63667 0.52423
# Poissons Ratio (y) = 0.30568 0.01008
# Poissons Ratio (z) = 0.63717 0.02551
#
# Static dielectric constant tensor:
#      x y z
#    x 1.616780 0.000000 -0.015780 
#    y 0.000000 1.670340 0.000000 
#    z -0.015780 0.000000 1.590040 
# 
# From -- ./inp_files/52350.got.cif
#   From: 2010.05.17/outbox.cif.g08.bks.cpg/sg15_27_cif.got.tgz:52350.got - 2010.06.03 18:47:42.
