data_PCOD9263838
_publ_section_title
;
Structure prediction by ZEFSAII (Michael W. Deem and Ramdas Pophale) SiO2 
 PCOD9263838
Probable space group: C 2/C
;
_chemical_formula_sum "Si O2"
_cell_formula_units_Z 48
_cell_length_a 16.317706
_cell_length_b 8.695648
_cell_length_c 14.283540
_cell_angle_alpha 90.000000
_cell_angle_beta 64.438220
_cell_angle_gamma 90.000000
_cell_volume 1828.359064
_symmetry_space_group_name_H-M "C 2/C"
_symmetry_group_IT_number 15
_symmetry_cell_setting 'monoclinic'
loop_
_space_group_symop_operation_xyz
x,y,z
-x,y,1/2-z
-x,-y,-z
x,-y,1/2+z
1/2+x,1/2+y,z
1/2-x,1/2+y,1/2-z
1/2-x,1/2-y,-z
1/2+x,1/2-y,1/2+z
loop_
_atom_site_type_symbol
_atom_site_label
_atom_site_fract_x
_atom_site_fract_y
_atom_site_fract_z
Si Si1 0.899829 0.868694 0.844479
Si Si2 0.950864 0.575216 0.130341
Si Si3 0.301719 0.894423 0.845791
Si Si4 0.801251 0.066945 0.762518
Si Si5 0.371333 0.080984 0.976209
Si Si6 0.004266 0.106415 0.587589
O O1 0.821193 0.910493 0.810495
O O2 0.859439 0.749725 0.938771
O O3 0.000000 0.827537 0.750000
O O4 0.921759 0.031028 0.883071
O O5 0.903093 0.595990 0.252595
O O6 0.017147 0.714721 0.066953
O O7 0.020534 0.437920 0.098320
O O8 0.873788 0.564226 0.087551
O O9 0.249212 0.019239 0.807779
O O10 0.269169 0.720827 0.834688
O O11 0.311785 0.959742 0.945836
O O12 0.904539 0.104406 0.680710
O O13 0.000000 0.000000 0.500000
#
# Coordination Sequence:
#
# PCOD9263838 Si02
#       6
#     8   8   8   8   8   8
#     4  10  19  34  61  90 114 156 198 242 296 351
#     4  10  22  38  61  91 120 158 198 247 299 353
#     4  11  22  42  58  86 124 161 198 245 301 359
#     4  10  23  39  61  86 121 162 196 243 303 355
#     4  11  21  37  62  91 121 157 199 247 296 352
#     4  10  19  39  61  90 118 149 200 251 293 348
#
# _framework density 26.253049000000001
#
# number of rings (size 3 to 8) (size 9 to 14) (size 15 to 20)
#    0.000    1.667    1.667    3.500    0.000    4.000 
#    3.000    3.333    0.000    0.000    0.000    0.000 
#    0.000    0.000    0.000    0.000    0.000    0.000 
#
# Total GULP energy -134115.836435 kJ/mol
# GULP energy per Si atom -5588.159851 kJ/mol
# Density = 2.619330 g / cm^3
# Si number density = 26.253049 Si / 1000 Ang^3
#
#
#
# Elastic Constant Matrix: (Units=GPa)
#
#
# Indices 1 2 3 4 5 6 
#
# 1 103.9685 24.4634 10.2441 0.0000 24.5310 0.0000
# 2 24.4634 111.7454 29.1979 0.0000 20.0353 0.0000
# 3 10.2441 29.1979 90.0582 0.0000 32.5356 0.0000
# 4 0.0000 0.0000 0.0000 35.1961 0.0000 13.8166
# 5 24.5310 20.0353 32.5356 0.0000 44.5805 0.0000
# 6 0.0000 0.0000 0.0000 13.8166 0.0000 27.1783
#
#
#
# Elastic Compliance Matrix: (Units=1/GPa)
#
#
# Indices 1 2 3 4 5 6 
#
# 1 0.011456 -0.001740 0.001706 0.000000 -0.006767 0.000000
# 2 -0.001740 0.010311 -0.002467 0.000000 -0.001875 0.000000
# 3 0.001706 -0.002467 0.015819 0.000000 -0.011375 0.000000
# 4 0.000000 0.000000 0.000000 0.035496 0.000000 -0.018045
# 5 -0.006767 -0.001875 -0.011375 0.000000 0.035299 0.000000
# 6 0.000000 0.000000 0.000000 -0.018045 0.000000 0.045968
#
#
# Mechanical properties :
#
#
# Convention : Reuss Voigt Hill
#
# Bulk Modulus (GPa) = 30.69153 48.17586 39.43370
# Shear Modulus (GPa) = 29.37472 37.51542 33.44507
#
# Velocity S-wave (km/s) = 3.34864 3.78430 3.57312
# Velocity P-wave (km/s) = 5.16403 6.12250 5.66358
#
# Compressibility (1/GPa) = 0.03258228
#
# Stress axis : x y z
#
# Youngs Moduli (GPa) = 87.28800 96.98472 63.21384
#
# Poissons Ratio (x) = 0.16880 -0.10783
# Poissons Ratio (y) = 0.15192 0.15597
# Poissons Ratio (z) = -0.14889 0.23930
#
# Static dielectric constant tensor:
#      x y z
#    x 2.070870 0.000000 -0.021320 
#    y 0.000000 2.098310 0.000000 
#    z -0.021320 0.000000 2.181520 
# 
# From -- ./inp_files/159721.got.cif
#   From: 2010.05.17/outbox.cif.g08.bks.cpg/sg15_80_cif.got.tgz:159721.got - 2010.06.03 18:47:42.
