data_PCOD9263061
_publ_section_title
;
Structure prediction by ZEFSAII (Michael W. Deem and Ramdas Pophale) SiO2 
 PCOD9263061
Probable space group: C 2/C
;
_chemical_formula_sum "Si O2"
_cell_formula_units_Z 44
_cell_length_a 12.020228
_cell_length_b 7.049342
_cell_length_c 18.748169
_cell_angle_alpha 90.000000
_cell_angle_beta 101.458025
_cell_angle_gamma 90.000000
_cell_volume 1556.960027
_symmetry_space_group_name_H-M "C 2/C"
_symmetry_group_IT_number 15
_symmetry_cell_setting 'monoclinic'
loop_
_space_group_symop_operation_xyz
x,y,z
-x,y,1/2-z
-x,-y,-z
x,-y,1/2+z
1/2+x,1/2+y,z
1/2-x,1/2+y,1/2-z
1/2-x,1/2-y,-z
1/2+x,1/2-y,1/2+z
loop_
_atom_site_type_symbol
_atom_site_label
_atom_site_fract_x
_atom_site_fract_y
_atom_site_fract_z
Si Si1 0.740217 0.129223 0.348949
Si Si2 0.317331 0.977761 0.425806
Si Si3 0.947089 0.708183 0.538565
Si Si4 0.500000 0.557969 0.750000
Si Si5 0.015300 0.076829 0.601747
Si Si6 0.798640 0.236349 0.203207
O O1 0.737161 0.292714 0.408807
O O2 0.741828 0.247626 0.274591
O O3 0.861897 0.026462 0.379204
O O4 0.665604 0.942023 0.323112
O O5 0.340339 0.076496 0.505403
O O6 0.281294 0.134673 0.364346
O O7 0.444107 0.905412 0.420291
O O8 0.988148 0.793892 0.467513
O O9 0.929228 0.897942 0.581439
O O10 0.498798 0.671262 0.676309
O O11 0.601887 0.408937 0.767680
#
# Coordination Sequence:
#
# PCOD9263061 Si02
#       6
#     8   8   8   4   8   8
#     4  10  19  33  63  83 116 157 214 242 297 356
#     4  10  19  33  61  91 114 155 210 252 283 362
#     4   9  18  34  63  90 119 157 212 239 295 370
#     4  10  24  38  60  90 134 152 200 262 328 328
#     4   9  18  37  61  89 119 166 194 250 299 366
#     4  11  20  37  58  90 118 163 200 261 298 368
#
# _framework density 28.260197000000002
#
# number of rings (size 3 to 8) (size 9 to 14) (size 15 to 20)
#    0.000    2.182    3.636    0.000    0.000    0.000 
#    0.000    2.727   12.000    0.000    0.000    0.000 
#    0.000    0.000    0.000    0.000    0.000    0.000 
#
# Total GULP energy -123179.700460 kJ/mol
# GULP energy per Si atom -5599.077294 kJ/mol
# Density = 2.819588 g / cm^3
# Si number density = 28.260197 Si / 1000 Ang^3
#
#
#
# Elastic Constant Matrix: (Units=GPa)
#
#
# Indices 1 2 3 4 5 6 
#
# 1 64.5068 32.5956 32.1783 0.0000 20.3962 0.0000
# 2 32.5956 181.9649 39.8072 0.0000 11.0649 0.0000
# 3 32.1783 39.8072 133.5139 0.0000 2.4204 0.0000
# 4 0.0000 0.0000 0.0000 57.1984 0.0000 5.4479
# 5 20.3962 11.0649 2.4204 0.0000 46.5443 0.0000
# 6 0.0000 0.0000 0.0000 5.4479 0.0000 30.8587
#
#
#
# Elastic Compliance Matrix: (Units=1/GPa)
#
#
# Indices 1 2 3 4 5 6 
#
# 1 0.021622 -0.002396 -0.004339 0.000000 -0.008680 0.000000
# 2 -0.002396 0.006225 -0.001272 0.000000 -0.000364 0.000000
# 3 -0.004339 -0.001272 0.008883 0.000000 0.001742 0.000000
# 4 0.000000 0.000000 0.000000 0.017782 0.000000 -0.003139
# 5 -0.008680 -0.000364 0.001742 0.000000 0.025284 0.000000
# 6 0.000000 0.000000 0.000000 -0.003139 0.000000 0.032960
#
#
# Mechanical properties :
#
#
# Convention : Reuss Voigt Hill
#
# Bulk Modulus (GPa) = 48.27259 65.46088 56.86674
# Shear Modulus (GPa) = 36.85219 45.28058 41.06639
#
# Velocity S-wave (km/s) = 3.61506 4.00718 3.81616
# Velocity P-wave (km/s) = 5.87736 6.68012 6.29156
#
# Compressibility (1/GPa) = 0.02071569
#
# Stress axis : x y z
#
# Youngs Moduli (GPa) = 46.24899 160.63856 112.57008
#
# Poissons Ratio (x) = 0.38490 0.48849
# Poissons Ratio (y) = 0.11082 0.14318
# Poissons Ratio (z) = 0.20069 0.20432
#
# Static dielectric constant tensor:
#      x y z
#    x 2.294840 0.000000 -0.020930 
#    y 0.000000 2.205710 0.000000 
#    z -0.020930 0.000000 2.182230 
# 
# From -- ./inp_files/202720.got.cif
#   From: 2010.05.17/outbox.cif.g08.bks.cpg/sg15_102_cif.got.tgz:202720.got - 2010.06.03 18:47:42.
