data_PCOD9263192
_publ_section_title
;
Structure prediction by ZEFSAII (Michael W. Deem and Ramdas Pophale) SiO2 
 PCOD9263192
Probable space group: C 2/C
;
_chemical_formula_sum "Si O2"
_cell_formula_units_Z 52
_cell_length_a 19.891303
_cell_length_b 5.311272
_cell_length_c 21.221000
_cell_angle_alpha 90.000000
_cell_angle_beta 117.229584
_cell_angle_gamma 90.000000
_cell_volume 1993.505431
_symmetry_space_group_name_H-M "C 2/C"
_symmetry_group_IT_number 15
_symmetry_cell_setting 'monoclinic'
loop_
_space_group_symop_operation_xyz
x,y,z
-x,y,1/2-z
-x,-y,-z
x,-y,1/2+z
1/2+x,1/2+y,z
1/2-x,1/2+y,1/2-z
1/2-x,1/2-y,-z
1/2+x,1/2-y,1/2+z
loop_
_atom_site_type_symbol
_atom_site_label
_atom_site_fract_x
_atom_site_fract_y
_atom_site_fract_z
Si Si1 0.842877 0.072307 0.481823
Si Si2 0.084627 0.570665 0.981940
Si Si3 0.500000 0.201196 0.750000
Si Si4 0.440856 0.908792 0.846892
Si Si5 0.671650 0.909647 0.905907
Si Si6 0.730870 0.941680 0.706752
Si Si7 0.619241 0.588769 0.782446
O O1 0.872633 0.337353 0.467199
O O2 0.756875 0.017093 0.425990
O O3 0.833416 0.156294 0.551831
O O4 0.900090 0.850243 0.486153
O O5 0.132142 0.598312 0.936745
O O6 0.002768 0.458070 0.927797
O O7 0.475202 0.060899 0.802818
O O8 0.568410 0.389624 0.794914
O O9 0.358185 0.986607 0.834877
O O10 0.420287 0.643712 0.802501
O O11 0.624595 0.846129 0.823927
O O12 0.756093 0.151841 0.768939
O O13 0.793987 0.000175 0.682066
#
# Coordination Sequence:
#
# PCOD9263192 Si02
#       7
#     8   8   4   8   8   8   8
#     4   9  20  34  54  80 114 149 188 239 299 328
#     4  10  19  34  53  81 109 150 186 238 286 350
#     4  12  20  34  58  90 114 150 190 254 284 348
#     4  11  23  35  58  86 123 152 193 241 305 349
#     4   9  19  33  55  82 113 148 192 242 285 347
#     4  10  22  42  55  79 122 165 190 226 299 369
#     4  11  22  37  57  90 118 154 197 243 295 353
#
# _framework density 26.084703999999999
#
# number of rings (size 3 to 8) (size 9 to 14) (size 15 to 20)
#    0.923    0.923    1.538    3.692    2.154    0.000 
#    0.000    0.000    0.000    1.846    0.000    0.000 
#    0.000    0.000    0.000    0.000    0.000    0.000 
#
# Total GULP energy -145047.298517 kJ/mol
# GULP energy per Si atom -5578.742251 kJ/mol
# Density = 2.602533 g / cm^3
# Si number density = 26.084704 Si / 1000 Ang^3
#
#
#
# Elastic Constant Matrix: (Units=GPa)
#
#
# Indices 1 2 3 4 5 6 
#
# 1 144.8304 27.7348 37.9897 0.0000 43.7221 -0.0002
# 2 27.7348 89.6715 15.4927 0.0011 7.2676 -0.0016
# 3 37.9897 15.4927 57.6236 -0.0002 12.4093 0.0000
# 4 0.0000 0.0011 -0.0002 19.3343 0.0004 8.0968
# 5 43.7221 7.2676 12.4093 0.0004 39.8587 -0.0002
# 6 -0.0002 -0.0016 0.0000 8.0968 -0.0002 32.5935
#
#
#
# Elastic Compliance Matrix: (Units=1/GPa)
#
#
# Indices 1 2 3 4 5 6 
#
# 1 0.011963 -0.001935 -0.004948 0.000000 -0.011229 0.000000
# 2 -0.001935 0.012065 -0.002092 -0.000001 0.000574 0.000001
# 3 -0.004948 -0.002092 0.021360 0.000000 -0.000840 0.000000
# 4 0.000000 -0.000001 0.000000 0.057727 -0.000001 -0.014340
# 5 -0.011229 0.000574 -0.000840 -0.000001 0.037563 0.000000
# 6 0.000000 0.000001 0.000000 -0.014340 0.000000 0.034243
#
#
# Mechanical properties :
#
#
# Convention : Reuss Voigt Hill
#
# Bulk Modulus (GPa) = 36.44639 50.50666 43.47652
# Shear Modulus (GPa) = 24.75027 32.41786 28.58407
#
# Velocity S-wave (km/s) = 3.08367 3.52915 3.31390
# Velocity P-wave (km/s) = 5.16540 6.00093 5.59877
#
# Compressibility (1/GPa) = 0.02743756
#
# Stress axis : x y z
#
# Youngs Moduli (GPa) = 83.59020 82.88301 46.81697
#
# Poissons Ratio (x) = 0.16038 0.23167
# Poissons Ratio (y) = 0.16175 0.09793
# Poissons Ratio (z) = 0.41364 0.17337
#
# Static dielectric constant tensor:
#      x y z
#    x 2.066990 0.000000 -0.003720 
#    y 0.000000 2.058310 0.000000 
#    z -0.003720 0.000000 2.122300 
# 
# From -- ./inp_files/317030.got.cif
#   From: 2010.05.17/outbox.cif.g08.bks.cpg/sg15_159_cif.got.tgz:317030.got - 2010.06.03 18:47:42.
