data_PCOD9263377
_publ_section_title
;
Structure prediction by ZEFSAII (Michael W. Deem and Ramdas Pophale) SiO2 
 PCOD9263377
Probable space group: C 2/C
;
_chemical_formula_sum "Si O2"
_cell_formula_units_Z 48
_cell_length_a 8.454457
_cell_length_b 13.058060
_cell_length_c 18.153466
_cell_angle_alpha 90.000000
_cell_angle_beta 62.820918
_cell_angle_gamma 90.000000
_cell_volume 1782.832349
_symmetry_space_group_name_H-M "C 2/C"
_symmetry_group_IT_number 15
_symmetry_cell_setting 'monoclinic'
loop_
_space_group_symop_operation_xyz
x,y,z
-x,y,1/2-z
-x,-y,-z
x,-y,1/2+z
1/2+x,1/2+y,z
1/2-x,1/2+y,1/2-z
1/2-x,1/2-y,-z
1/2+x,1/2-y,1/2+z
loop_
_atom_site_type_symbol
_atom_site_label
_atom_site_fract_x
_atom_site_fract_y
_atom_site_fract_z
Si Si1 0.047993 0.956748 0.155781
Si Si2 0.739227 0.169684 0.398313
Si Si3 0.683358 0.997150 0.677573
Si Si4 0.304345 0.773228 0.760369
Si Si5 0.526937 0.213285 0.929355
Si Si6 0.343738 0.583496 0.014213
O O1 0.138315 0.069028 0.134118
O O2 0.000000 0.941194 0.250000
O O3 0.854963 0.937457 0.159516
O O4 0.172315 0.899191 0.069536
O O5 0.698647 0.215273 0.326680
O O6 0.568346 0.147322 0.486255
O O7 0.859765 0.252763 0.414355
O O8 0.500000 0.034410 0.750000
O O9 0.734441 0.890257 0.706429
O O10 0.677353 0.966408 0.592931
O O11 0.500000 0.757374 0.750000
O O12 0.174046 0.697456 0.833362
O O13 0.600512 0.311321 0.959360
O O14 0.500000 0.500000 0.000000
#
# Coordination Sequence:
#
# PCOD9263377 Si02
#       6
#     8   8   8   8   8   8
#     4  11  18  34  61  85 116 158 204 247 295 368
#     4  11  19  33  58  86 112 146 209 243 295 357
#     4   9  17  31  55  79 111 150 197 239 298 359
#     4  10  19  34  56  81 112 156 193 240 301 365
#     4  10  20  34  58  84 116 154 197 254 299 354
#     4   9  17  33  56  81 113 156 192 242 306 351
#
# _framework density 26.923451
#
# number of rings (size 3 to 8) (size 9 to 14) (size 15 to 20)
#    0.000    2.000    6.667    0.500    0.000    0.667 
#    0.000    1.667    7.333    1.000    0.000    0.000 
#    0.000    0.000    0.000    0.000    0.000    0.000 
#
# Total GULP energy -134094.286826 kJ/mol
# GULP energy per Si atom -5587.261951 kJ/mol
# Density = 2.686217 g / cm^3
# Si number density = 26.923451 Si / 1000 Ang^3
#
#
#
# Elastic Constant Matrix: (Units=GPa)
#
#
# Indices 1 2 3 4 5 6 
#
# 1 104.8476 2.8135 100.9400 0.0000 -5.5455 0.0000
# 2 2.8135 75.4855 22.4588 0.0000 -2.5732 0.0000
# 3 100.9400 22.4588 271.5827 0.0000 21.4940 0.0000
# 4 0.0000 0.0000 0.0000 34.0873 0.0000 -8.7628
# 5 -5.5455 -2.5732 21.4940 0.0000 70.1091 0.0000
# 6 0.0000 0.0000 0.0000 -8.7628 0.0000 0.2223
#
#
#
# Elastic Compliance Matrix: (Units=1/GPa)
#
#
# Indices 1 2 3 4 5 6 
#
# 1 0.015602 0.001360 -0.006162 0.000000 0.003173 0.000000
# 2 0.001360 0.013752 -0.001733 0.000000 0.001144 0.000000
# 3 -0.006162 -0.001733 0.006313 0.000000 -0.002486 0.000000
# 4 0.000000 0.000000 0.000000 -0.003213 0.000000 -0.126616
# 5 0.003173 0.001144 -0.002486 0.000000 0.015319 0.000000
# 6 0.000000 0.000000 0.000000 -0.126616 0.000000 -0.492535
#
#
# Mechanical properties :
#
#
# Convention : Reuss Voigt Hill
#
# Bulk Modulus (GPa) = 44.25779 78.26004 61.25891
# Shear Modulus (GPa) = -11.78800 42.59730 15.40465
#
# Velocity S-wave (km/s) = -2.09472 3.98196 2.39459
# Velocity P-wave (km/s) = 3.25939 7.09028 5.51795
#
# Compressibility (1/GPa) = 0.02259489
#
# Stress axis : x y z
#
# Youngs Moduli (GPa) = 64.09579 72.71909 158.41337
#
# Poissons Ratio (x) = -0.09891 0.97619
# Poissons Ratio (y) = -0.08718 0.27457
# Poissons Ratio (z) = 0.39498 0.12604
#
# Static dielectric constant tensor:
#      x y z
#    x 2.154060 0.000000 -0.011260 
#    y 0.000000 2.241320 0.000000 
#    z -0.011260 0.000000 2.258860 
# 
# From -- ./inp_files/191511.got.cif
#   From: 2010.05.17/outbox.cif.g08.bks.cpg/sg15_96_cif.got.tgz:191511.got - 2010.06.03 18:47:42.
