data_PCOD9263923
_publ_section_title
;
Structure prediction by ZEFSAII (Michael W. Deem and Ramdas Pophale) SiO2 
 PCOD9263923
Probable space group: C 2/C
;
_chemical_formula_sum "Si O2"
_cell_formula_units_Z 48
_cell_length_a 31.837065
_cell_length_b 7.825624
_cell_length_c 14.032531
_cell_angle_alpha 90.000000
_cell_angle_beta 148.198783
_cell_angle_gamma 90.000000
_cell_volume 1842.370939
_symmetry_space_group_name_H-M "C 2/C"
_symmetry_group_IT_number 15
_symmetry_cell_setting 'monoclinic'
loop_
_space_group_symop_operation_xyz
x,y,z
-x,y,1/2-z
-x,-y,-z
x,-y,1/2+z
1/2+x,1/2+y,z
1/2-x,1/2+y,1/2-z
1/2-x,1/2-y,-z
1/2+x,1/2-y,1/2+z
loop_
_atom_site_type_symbol
_atom_site_label
_atom_site_fract_x
_atom_site_fract_y
_atom_site_fract_z
Si Si1 0.040537 0.867793 0.453433
Si Si2 0.262158 0.447192 0.493793
Si Si3 0.577063 0.343000 0.750552
Si Si4 0.485657 0.011714 0.357834
Si Si5 0.657694 0.089168 0.130762
Si Si6 0.802125 0.026270 0.781103
O O1 0.062240 0.851227 0.607459
O O2 0.978918 0.711485 0.318549
O O3 0.127956 0.883182 0.574153
O O4 0.994194 0.043621 0.346295
O O5 0.250000 0.250000 0.500000
O O6 0.339675 0.438946 0.575953
O O7 0.190871 0.529795 0.298457
O O8 0.280571 0.539785 0.627558
O O9 0.575219 0.144509 0.776510
O O10 0.566834 0.967047 0.459106
O O11 0.500000 0.000000 0.500000
O O12 0.662530 0.290675 0.126177
O O13 0.721002 0.009808 0.180015
#
# Coordination Sequence:
#
# PCOD9263923 Si02
#       6
#     8   8   8   8   8   8
#     4   9  17  34  59  88 122 163 216 254 320 388
#     4  11  23  41  63  99 132 170 222 276 327 395
#     4   9  18  35  58  89 124 167 210 262 320 389
#     4  10  19  34  63  92 120 173 214 259 326 400
#     4  12  23  41  66  98 131 174 220 275 334 395
#     4  11  23  41  66  95 133 173 217 277 333 394
#
# _framework density 26.053384000000001
#
# number of rings (size 3 to 8) (size 9 to 14) (size 15 to 20)
#    0.000    1.667    1.667    5.500    2.333    0.000 
#    3.000    0.833    0.000    3.000    0.000    0.000 
#    0.000    0.000    0.000    0.000    0.000    0.000 
#
# Total GULP energy -134419.836008 kJ/mol
# GULP energy per Si atom -5600.826500 kJ/mol
# Density = 2.599408 g / cm^3
# Si number density = 26.053384 Si / 1000 Ang^3
#
#
#
# Elastic Constant Matrix: (Units=GPa)
#
#
# Indices 1 2 3 4 5 6 
#
# 1 132.4363 15.9710 18.5105 0.0000 9.8330 0.0000
# 2 15.9710 118.0033 0.6215 0.0000 3.7659 0.0000
# 3 18.5105 0.6215 72.4022 0.0000 2.8184 0.0000
# 4 0.0000 0.0000 0.0000 35.3222 0.0000 7.0789
# 5 9.8330 3.7659 2.8184 0.0000 48.8134 0.0000
# 6 0.0000 0.0000 0.0000 7.0789 0.0000 30.9843
#
#
#
# Elastic Compliance Matrix: (Units=1/GPa)
#
#
# Indices 1 2 3 4 5 6 
#
# 1 0.008061 -0.001035 -0.001996 0.000000 -0.001429 0.000000
# 2 -0.001035 0.008628 0.000209 0.000000 -0.000469 0.000000
# 3 -0.001996 0.000209 0.014338 0.000000 -0.000442 0.000000
# 4 0.000000 0.000000 0.000000 0.029669 0.000000 -0.006778
# 5 -0.001429 -0.000469 -0.000442 0.000000 0.020836 0.000000
# 6 0.000000 0.000000 0.000000 -0.006778 0.000000 0.033823
#
#
# Mechanical properties :
#
#
# Convention : Reuss Voigt Hill
#
# Bulk Modulus (GPa) = 39.39848 43.67198 41.53523
# Shear Modulus (GPa) = 38.62200 42.20656 40.41428
#
# Velocity S-wave (km/s) = 3.85440 4.02929 3.94281
# Velocity P-wave (km/s) = 5.91300 6.20047 6.05844
#
# Compressibility (1/GPa) = 0.02538169
#
# Stress axis : x y z
#
# Youngs Moduli (GPa) = 124.05875 115.89805 69.74702
#
# Poissons Ratio (x) = 0.11994 0.13924
# Poissons Ratio (y) = 0.12838 -0.01456
# Poissons Ratio (z) = 0.24766 -0.02420
#
# Static dielectric constant tensor:
#      x y z
#    x 2.047740 0.000000 -0.064070 
#    y 0.000000 2.063550 0.000000 
#    z -0.064070 0.000000 2.083600 
# 
# From -- ./inp_files/180893.got.cif
#   From: 2010.05.17/outbox.cif.g08.bks.cpg/sg15_91_cif.got.tgz:180893.got - 2010.06.03 18:47:42.
