data_PCOD9263166
_publ_section_title
;
Structure prediction by ZEFSAII (Michael W. Deem and Ramdas Pophale) SiO2 
 PCOD9263166
Probable space group: C 2/C
;
_chemical_formula_sum "Si O2"
_cell_formula_units_Z 64
_cell_length_a 21.723069
_cell_length_b 5.838960
_cell_length_c 26.443942
_cell_angle_alpha 90.000000
_cell_angle_beta 77.225481
_cell_angle_gamma 90.000000
_cell_volume 3271.130354
_symmetry_space_group_name_H-M "C 2/C"
_symmetry_group_IT_number 15
_symmetry_cell_setting 'monoclinic'
loop_
_space_group_symop_operation_xyz
x,y,z
-x,y,1/2-z
-x,-y,-z
x,-y,1/2+z
1/2+x,1/2+y,z
1/2-x,1/2+y,1/2-z
1/2-x,1/2-y,-z
1/2+x,1/2-y,1/2+z
loop_
_atom_site_type_symbol
_atom_site_label
_atom_site_fract_x
_atom_site_fract_y
_atom_site_fract_z
Si Si1 0.347700 0.856896 0.582406
Si Si2 0.036244 0.983001 0.441249
Si Si3 0.771311 0.059922 0.536141
Si Si4 0.420797 0.137930 0.635157
Si Si5 0.573648 0.804487 0.718502
Si Si6 0.154832 0.667270 0.017004
Si Si7 0.426320 0.692487 0.244890
Si Si8 0.542083 0.186568 0.110326
O O1 0.412649 0.717229 0.564357
O O2 0.291127 0.676513 0.584917
O O3 0.358956 0.988429 0.632837
O O4 0.340406 0.022075 0.535299
O O5 0.069596 0.211377 0.416704
O O6 0.000000 0.000000 0.500000
O O7 0.987768 0.920341 0.405220
O O8 0.750000 0.250000 0.500000
O O9 0.832066 0.927290 0.502596
O O10 0.787794 0.610693 0.454747
O O11 0.418145 0.286606 0.686051
O O12 0.483263 0.982859 0.629002
O O13 0.500000 0.807468 0.750000
O O14 0.599489 0.559083 0.734175
O O15 0.575412 0.789502 0.657715
O O16 0.598578 0.057898 0.730397
O O17 0.090436 0.614971 0.057645
O O18 0.500000 0.688989 0.250000
#
# Coordination Sequence:
#
# PCOD9263166 Si02
#       8
#     8   8   8   8   8   8   8   8
#     4  10  20  33  51  78 108 147 186 225 278 339
#     4  11  21  31  47  76 117 150 179 217 270 348
#     4   9  19  37  55  74 107 141 186 240 280 332
#     4  11  21  32  51  77 115 152 186 225 282 348
#     4  10  19  35  51  76 110 153 185 232 273 334
#     4  10  20  36  55  77 112 144 188 234 286 337
#     4  10  19  34  53  72 112 152 187 230 275 331
#     4  11  21  32  52  80 111 154 186 226 284 341
#
# _framework density 19.565100000000001
#
# number of rings (size 3 to 8) (size 9 to 14) (size 15 to 20)
#    0.000    1.750    2.500    4.500    1.750    3.000 
#    0.000    0.000    0.000    0.000    0.000    0.000 
#   15.000    0.000    0.000    0.000    0.000    0.000 
#
# Total GULP energy -178200.315647 kJ/mol
# GULP energy per Si atom -5568.759864 kJ/mol
# Density = 1.952057 g / cm^3
# Si number density = 19.565100 Si / 1000 Ang^3
#
#
#
# Elastic Constant Matrix: (Units=GPa)
#
#
# Indices 1 2 3 4 5 6 
#
# 1 33.6035 3.2558 8.3632 0.0000 17.7587 0.0000
# 2 3.2558 100.4449 24.6496 0.0001 11.8884 0.0000
# 3 8.3632 24.6496 59.7096 0.0000 23.5430 0.0000
# 4 0.0000 0.0001 0.0000 25.1877 0.0000 18.9451
# 5 17.7587 11.8884 23.5430 0.0000 17.0804 0.0000
# 6 0.0000 0.0000 0.0000 18.9451 0.0000 48.0485
#
#
#
# Elastic Compliance Matrix: (Units=1/GPa)
#
#
# Indices 1 2 3 4 5 6 
#
# 1 0.184705 0.008693 0.106559 0.000000 -0.344969 0.000000
# 2 0.008693 0.011562 0.001634 0.000000 -0.019338 0.000000
# 3 0.106559 0.001634 0.099186 0.000000 -0.248643 0.000000
# 4 0.000000 0.000000 0.000000 0.056440 0.000000 -0.022254
# 5 -0.344969 -0.019338 -0.248643 0.000000 0.773398 0.000000
# 6 0.000000 0.000000 0.000000 -0.022254 0.000000 0.029587
#
#
# Mechanical properties :
#
#
# Convention : Reuss Voigt Hill
#
# Bulk Modulus (GPa) = 1.88956 29.58836 15.73896
# Shear Modulus (GPa) = 4.55575 28.56259 16.55917
#
# Velocity S-wave (km/s) = 1.52760 3.82498 2.91239
# Velocity P-wave (km/s) = 2.01973 5.88754 4.40127
#
# Compressibility (1/GPa) = 0.52922493
#
# Stress axis : x y z
#
# Youngs Moduli (GPa) = 5.41403 86.49272 10.08207
#
# Poissons Ratio (x) = -0.75185 -1.07434
# Poissons Ratio (y) = -0.04706 -0.01648
# Poissons Ratio (z) = -0.57692 -0.14134
#
# Static dielectric constant tensor:
#      x y z
#    x 1.711240 0.000000 0.029820 
#    y 0.000000 1.773040 0.000000 
#    z 0.029820 0.000000 1.668330 
# 
# From -- ./inp_files/280965.got.cif
#   From: 2010.05.17/outbox.cif.g08.bks.cpg/sg15_141_cif.got.tgz:280965.got - 2010.06.03 18:47:42.
