data_PCOD9263824
_publ_section_title
;
Structure prediction by ZEFSAII (Michael W. Deem and Ramdas Pophale) SiO2 
 PCOD9263824
Probable space group: C 2/C
;
_chemical_formula_sum "Si O2"
_cell_formula_units_Z 56
_cell_length_a 9.129001
_cell_length_b 13.228835
_cell_length_c 23.331394
_cell_angle_alpha 90.000000
_cell_angle_beta 78.274969
_cell_angle_gamma 90.000000
_cell_volume 2758.847717
_symmetry_space_group_name_H-M "C 2/C"
_symmetry_group_IT_number 15
_symmetry_cell_setting 'monoclinic'
loop_
_space_group_symop_operation_xyz
x,y,z
-x,y,1/2-z
-x,-y,-z
x,-y,1/2+z
1/2+x,1/2+y,z
1/2-x,1/2+y,1/2-z
1/2-x,1/2-y,-z
1/2+x,1/2-y,1/2+z
loop_
_atom_site_type_symbol
_atom_site_label
_atom_site_fract_x
_atom_site_fract_y
_atom_site_fract_z
Si Si1 0.345265 0.064347 0.289542
Si Si2 0.360299 0.161833 0.412521
Si Si3 0.782464 0.125404 0.869533
Si Si4 0.367504 0.399035 0.145706
Si Si5 0.829831 0.975641 0.025849
Si Si6 0.677623 0.269036 0.250578
Si Si7 0.616012 0.947629 0.947056
O O1 0.500000 0.025882 0.250000
O O2 0.381634 0.118463 0.346924
O O3 0.276430 0.153478 0.257324
O O4 0.219926 0.984509 0.312739
O O5 0.289971 0.273473 0.409722
O O6 0.523428 0.145951 0.428123
O O7 0.251384 0.082810 0.453372
O O8 0.752214 0.163991 0.806677
O O9 0.954552 0.088486 0.861015
O O10 0.672694 0.035829 0.898872
O O11 0.321431 0.408609 0.083650
O O12 0.312736 0.302346 0.184896
O O13 0.755297 0.923563 0.976890
O O14 0.000000 0.000000 0.000000
O O15 0.500000 0.272153 0.250000
O O16 0.500000 0.000000 0.000000
#
# Coordination Sequence:
#
# PCOD9263824 Si02
#       7
#     8   8   8   8   8   8   8
#     4   9  18  34  59  85 115 148 188 251 304 362
#     4   9  21  37  62  88 112 159 209 245 301 366
#     4  10  19  37  61  86 116 155 206 254 295 375
#     4  10  19  34  61  84 117 157 193 248 311 354
#     4  10  19  37  58  86 126 160 198 253 309 354
#     4   8  17  33  55  87 103 144 201 235 296 370
#     4  10  21  36  60  87 117 159 209 241 299 359
#
# _framework density 20.29833
#
# number of rings (size 3 to 8) (size 9 to 14) (size 15 to 20)
#    0.000    2.571    1.429    0.857    2.000    2.286 
#    0.000    0.714    9.429    0.000    0.000    0.000 
#    0.000    0.000    0.000    0.000    0.000    0.000 
#
# Total GULP energy -156009.265395 kJ/mol
# GULP energy per Si atom -5571.759478 kJ/mol
# Density = 2.025213 g / cm^3
# Si number density = 20.298330 Si / 1000 Ang^3
#
#
#
# Elastic Constant Matrix: (Units=GPa)
#
#
# Indices 1 2 3 4 5 6 
#
# 1 63.2503 16.3046 19.0848 0.0000 -0.6629 0.0000
# 2 16.3046 42.2577 31.3556 0.0000 5.6475 0.0000
# 3 19.0848 31.3556 70.1054 0.0000 -11.0329 0.0000
# 4 0.0000 0.0000 0.0000 32.6611 0.0000 0.3673
# 5 -0.6629 5.6475 -11.0329 0.0000 22.9512 0.0000
# 6 0.0000 0.0000 0.0000 0.3673 0.0000 16.2579
#
#
#
# Elastic Compliance Matrix: (Units=1/GPa)
#
#
# Indices 1 2 3 4 5 6 
#
# 1 0.017890 -0.005145 -0.002476 0.000000 0.000592 0.000000
# 2 -0.005145 0.045043 -0.022192 0.000000 -0.021900 0.000000
# 3 -0.002476 -0.022192 0.027816 0.000000 0.018761 0.000000
# 4 0.000000 0.000000 0.000000 0.030625 0.000000 -0.000692
# 5 0.000592 -0.021900 0.018761 0.000000 0.057995 0.000000
# 6 0.000000 0.000000 0.000000 -0.000692 0.000000 0.061524
#
#
# Mechanical properties :
#
#
# Convention : Reuss Voigt Hill
#
# Bulk Modulus (GPa) = 32.12961 34.34481 33.23721
# Shear Modulus (GPa) = 16.08272 21.63194 18.85733
#
# Velocity S-wave (km/s) = 2.81787 3.26805 3.05127
# Velocity P-wave (km/s) = 5.14298 5.58542 5.36876
#
# Compressibility (1/GPa) = 0.03112393
#
# Stress axis : x y z
#
# Youngs Moduli (GPa) = 55.89830 22.20116 35.95004
#
# Poissons Ratio (x) = 0.11421 0.08901
# Poissons Ratio (y) = 0.28757 0.79780
# Poissons Ratio (z) = 0.13840 0.49269
#
# Static dielectric constant tensor:
#      x y z
#    x 1.639080 0.000000 -0.008630 
#    y 0.000000 2.137420 0.000000 
#    z -0.008630 0.000000 1.758790 
# 
# From -- ./inp_files/264200.got.cif
#   From: 2010.05.17/outbox.cif.g08.bks.cpg/sg15_133_cif.got.tgz:264200.got - 2010.06.03 18:47:42.
