data_PCOD9263957
_publ_section_title
;
Structure prediction by ZEFSAII (Michael W. Deem and Ramdas Pophale) SiO2 
 PCOD9263957
Probable space group: C 2/C
;
_chemical_formula_sum "Si O2"
_cell_formula_units_Z 64
_cell_length_a 14.364247
_cell_length_b 29.084938
_cell_length_c 8.696891
_cell_angle_alpha 90.000000
_cell_angle_beta 129.939564
_cell_angle_gamma 90.000000
_cell_volume 2785.819525
_symmetry_space_group_name_H-M "C 2/C"
_symmetry_group_IT_number 15
_symmetry_cell_setting 'monoclinic'
loop_
_space_group_symop_operation_xyz
x,y,z
-x,y,1/2-z
-x,-y,-z
x,-y,1/2+z
1/2+x,1/2+y,z
1/2-x,1/2+y,1/2-z
1/2-x,1/2-y,-z
1/2+x,1/2-y,1/2+z
loop_
_atom_site_type_symbol
_atom_site_label
_atom_site_fract_x
_atom_site_fract_y
_atom_site_fract_z
Si Si1 0.907472 0.783972 0.766002
Si Si2 0.768249 0.133570 0.597233
Si Si3 0.822909 0.334557 0.991330
Si Si4 0.946834 0.544593 0.521829
Si Si5 0.866366 0.773923 0.056511
Si Si6 0.978696 0.116078 0.050221
Si Si7 0.712389 0.582022 0.182691
Si Si8 0.040658 0.644569 0.550674
O O1 0.779221 0.799325 0.561220
O O2 0.981150 0.829813 0.899594
O O3 0.000000 0.759265 0.750000
O O4 0.868570 0.760954 0.880436
O O5 0.842398 0.172969 0.582163
O O6 0.754119 0.093245 0.457491
O O7 0.637063 0.151332 0.517051
O O8 0.847936 0.117774 0.829100
O O9 0.748063 0.374869 0.829983
O O10 0.887119 0.351795 0.212137
O O11 0.922502 0.323667 0.963395
O O12 0.800576 0.543511 0.345786
O O13 0.000000 0.546808 0.750000
O O14 0.000000 0.500000 0.500000
O O15 0.989628 0.592437 0.487747
O O16 0.000000 0.760860 0.250000
O O17 0.750000 0.750000 0.000000
O O18 0.067560 0.083447 0.045809
O O19 0.000000 0.101218 0.250000
#
# Coordination Sequence:
#
# PCOD9263957 Si02
#       8
#     8   8   8   8   8   8   8   8
#     4  10  19  37  67  86 120 162 219 260 335 399
#     4  12  21  37  68  98 127 166 226 272 330 404
#     4   9  17  34  55  91 118 158 198 275 317 369
#     4  11  24  40  60  88 135 178 217 268 343 403
#     4  12  26  45  62  92 136 178 214 279 352 409
#     4  10  19  34  67  95 118 153 210 274 332 374
#     4  10  19  36  58  93 125 157 216 273 307 389
#     4  10  20  35  60  92 133 161 215 271 330 384
#
# _framework density 22.973492
#
# number of rings (size 3 to 8) (size 9 to 14) (size 15 to 20)
#    0.000    1.500    6.250    2.625    1.750    2.500 
#    0.000    0.625    2.750    0.750    0.000    0.000 
#    0.000    0.000    0.000    0.000    0.000    0.000 
#
# Total GULP energy -178572.996754 kJ/mol
# GULP energy per Si atom -5580.406149 kJ/mol
# Density = 2.292120 g / cm^3
# Si number density = 22.973492 Si / 1000 Ang^3
#
#
#
# Elastic Constant Matrix: (Units=GPa)
#
#
# Indices 1 2 3 4 5 6 
#
# 1 188.1832 23.8236 19.5108 0.0000 3.0051 0.0000
# 2 23.8236 49.4740 16.6659 0.0000 5.3705 0.0000
# 3 19.5108 16.6659 73.2417 0.0000 6.1779 0.0000
# 4 0.0000 0.0000 0.0000 4.3763 0.0000 -1.2384
# 5 3.0051 5.3705 6.1779 0.0000 43.0189 0.0000
# 6 0.0000 0.0000 0.0000 -1.2384 0.0000 27.2583
#
#
#
# Elastic Compliance Matrix: (Units=1/GPa)
#
#
# Indices 1 2 3 4 5 6 
#
# 1 0.005722 -0.002432 -0.000975 0.000000 0.000044 0.000000
# 2 -0.002432 0.023103 -0.004434 0.000000 -0.002078 0.000000
# 3 -0.000975 -0.004434 0.015052 0.000000 -0.001540 0.000000
# 4 0.000000 0.000000 0.000000 0.231482 0.000000 0.010517
# 5 0.000044 -0.002078 -0.001540 0.000000 0.023723 0.000000
# 6 0.000000 0.000000 0.000000 0.010517 0.000000 0.037164
#
#
# Mechanical properties :
#
#
# Convention : Reuss Voigt Hill
#
# Bulk Modulus (GPa) = 35.46603 47.87771 41.67187
# Shear Modulus (GPa) = 13.83796 31.65727 22.74761
#
# Velocity S-wave (km/s) = 2.45693 3.71616 3.15011
# Velocity P-wave (km/s) = 4.84974 6.26887 5.60441
#
# Compressibility (1/GPa) = 0.02819599
#
# Stress axis : x y z
#
# Youngs Moduli (GPa) = 174.75808 43.28482 66.43691
#
# Poissons Ratio (x) = 0.10526 0.06475
# Poissons Ratio (y) = 0.42499 0.29457
# Poissons Ratio (z) = 0.17033 0.19192
#
# Static dielectric constant tensor:
#      x y z
#    x 1.932200 0.000000 0.001240 
#    y 0.000000 1.902320 0.000000 
#    z 0.001240 0.000000 1.839420 
# 
# From -- ./inp_files/44882.got.cif
#   From: 2010.05.17/outbox.cif.g08.bks.cpg/sg15_23_cif.got.tgz:44882.got - 2010.06.03 18:47:42.
