data_PCOD9263090
_publ_section_title
;
Structure prediction by ZEFSAII (Michael W. Deem and Ramdas Pophale) SiO2 
 PCOD9263090
Probable space group: C 2/C
;
_chemical_formula_sum "Si O2"
_cell_formula_units_Z 48
_cell_length_a 15.556916
_cell_length_b 26.742621
_cell_length_c 16.741265
_cell_angle_alpha 90.000000
_cell_angle_beta 26.392996
_cell_angle_gamma 90.000000
_cell_volume 3096.083063
_symmetry_space_group_name_H-M "C 2/C"
_symmetry_group_IT_number 15
_symmetry_cell_setting 'monoclinic'
loop_
_space_group_symop_operation_xyz
x,y,z
-x,y,1/2-z
-x,-y,-z
x,-y,1/2+z
1/2+x,1/2+y,z
1/2-x,1/2+y,1/2-z
1/2-x,1/2-y,-z
1/2+x,1/2-y,1/2+z
loop_
_atom_site_type_symbol
_atom_site_label
_atom_site_fract_x
_atom_site_fract_y
_atom_site_fract_z
Si Si1 0.925026 0.816188 0.895887
Si Si2 0.209659 0.528818 0.598508
Si Si3 0.684452 0.040857 0.269751
Si Si4 0.500000 0.528953 0.750000
Si Si5 0.755963 0.560538 0.679959
Si Si6 0.000000 0.280775 0.250000
Si Si7 0.945067 0.105841 0.509291
O O1 0.000000 0.840707 0.750000
O O2 0.999797 0.758929 0.823833
O O3 0.693382 0.812305 0.085708
O O4 0.978965 0.843390 0.932431
O O5 0.172599 0.484391 0.692879
O O6 0.329386 0.505637 0.426517
O O7 0.340050 0.570062 0.532404
O O8 0.000000 0.549280 0.750000
O O9 0.477601 0.063295 0.466750
O O10 0.747826 0.994422 0.274308
O O11 0.853064 0.081146 0.133979
O O12 0.601609 0.559548 0.736674
O O13 0.692760 0.601387 0.798360
#
# Coordination Sequence:
#
# PCOD9263090 Si02
#       7
#     8   8   8   4   8   4   8
#     4   9  19  34  54  69  97 126 151 196 246 297
#     4  11  21  30  45  65  93 140 178 199 237 277
#     4  10  19  34  41  62 101 128 165 212 244 263
#     4  12  18  31  50  58  90 142 172 196 241 280
#     4  10  20  31  46  64  94 137 164 207 241 275
#     4   8  18  39  52  72  96 126 152 188 255 308
#     4  11  21  31  46  74  97 120 172 214 232 280
#
# _framework density 15.503461
#
# number of rings (size 3 to 8) (size 9 to 14) (size 15 to 20)
#    0.500    1.333    5.000    1.000    2.333    1.333 
#    0.000    0.000    0.000    0.000    0.000    0.000 
#    0.000    1.333    0.000    0.333    0.000    0.000 
#
# Total GULP energy -133657.823964 kJ/mol
# GULP energy per Si atom -5569.075999 kJ/mol
# Density = 1.546817 g / cm^3
# Si number density = 15.503461 Si / 1000 Ang^3
#
#
#
# Elastic Constant Matrix: (Units=GPa)
#
#
# Indices 1 2 3 4 5 6 
#
# 1 42.3114 1.5169 8.8854 0.0003 2.1588 0.0105
# 2 1.5169 16.0497 8.8190 -0.0069 0.2671 -0.0134
# 3 8.8854 8.8190 95.0038 -0.0781 -3.2234 -0.0383
# 4 0.0003 -0.0069 -0.0781 3.4517 0.0209 3.6737
# 5 2.1588 0.2671 -3.2234 0.0209 26.1466 0.0060
# 6 0.0105 -0.0134 -0.0383 3.6737 0.0060 13.8113
#
#
#
# Elastic Compliance Matrix: (Units=1/GPa)
#
#
# Indices 1 2 3 4 5 6 
#
# 1 0.024259 -0.001018 -0.002251 -0.000020 -0.002270 -0.000019
# 2 -0.001018 0.065751 -0.006054 -0.000069 -0.001334 0.000067
# 3 -0.002251 -0.006054 0.011355 0.000288 0.001647 -0.000050
# 4 -0.000020 -0.000069 0.000288 0.404120 -0.000261 -0.107491
# 5 -0.002270 -0.001334 0.001647 -0.000261 0.038650 0.000058
# 6 -0.000019 0.000067 -0.000050 -0.107491 0.000058 0.100996
#
#
# Mechanical properties :
#
#
# Convention : Reuss Voigt Hill
#
# Bulk Modulus (GPa) = 12.08911 21.31195 16.70053
# Shear Modulus (GPa) = 7.23222 17.62484 12.42853
#
# Velocity S-wave (km/s) = 2.16218 3.37535 2.83443
# Velocity P-wave (km/s) = 3.74806 5.38211 4.63762
#
# Compressibility (1/GPa) = 0.08271910
#
# Stress axis : x y z
#
# Youngs Moduli (GPa) = 41.22114 15.20881 88.07070
#
# Poissons Ratio (x) = 0.01548 0.19829
# Poissons Ratio (y) = 0.04196 0.53315
# Poissons Ratio (z) = 0.09281 0.09207
#
# Static dielectric constant tensor:
#      x y z
#    x 1.517500 -0.000010 0.019800 
#    y -0.000010 1.507530 0.000050 
#    z 0.019800 0.000050 1.547860 
# 
# From -- ./inp_files/157070.got.cif
#   From: 2010.05.17/outbox.cif.g08.bks.cpg/sg15_79_cif.got.tgz:157070.got - 2010.06.03 18:47:42.
