data_PCOD9263267
_publ_section_title
;
Structure prediction by ZEFSAII (Michael W. Deem and Ramdas Pophale) SiO2 
 PCOD9263267
Probable space group: C 2/C
;
_chemical_formula_sum "Si O2"
_cell_formula_units_Z 52
_cell_length_a 14.859779
_cell_length_b 23.240354
_cell_length_c 7.787151
_cell_angle_alpha 90.000000
_cell_angle_beta 45.333944
_cell_angle_gamma 90.000000
_cell_volume 1912.648848
_symmetry_space_group_name_H-M "C 2/C"
_symmetry_group_IT_number 15
_symmetry_cell_setting 'monoclinic'
loop_
_space_group_symop_operation_xyz
x,y,z
-x,y,1/2-z
-x,-y,-z
x,-y,1/2+z
1/2+x,1/2+y,z
1/2-x,1/2+y,1/2-z
1/2-x,1/2-y,-z
1/2+x,1/2-y,1/2+z
loop_
_atom_site_type_symbol
_atom_site_label
_atom_site_fract_x
_atom_site_fract_y
_atom_site_fract_z
Si Si1 0.000000 0.808127 0.750000
Si Si2 0.438895 0.116470 0.019266
Si Si3 0.358650 0.057000 0.585266
Si Si4 0.699885 0.660082 0.715625
Si Si5 0.073707 0.731835 0.979467
Si Si6 0.695210 0.527065 0.111346
Si Si7 0.347666 0.591076 0.028818
O O1 0.934854 0.771844 0.679392
O O2 0.104995 0.842328 0.502645
O O3 0.500000 0.112042 0.750000
O O4 0.497775 0.064851 0.054997
O O5 0.497505 0.174845 0.018877
O O6 0.288978 0.113768 0.220347
O O7 0.310926 0.112558 0.547828
O O8 0.312308 0.998606 0.565160
O O9 0.266241 0.062193 0.872155
O O10 0.783702 0.716804 0.646733
O O11 0.622243 0.641285 0.649097
O O12 0.000000 0.750378 0.250000
O O13 0.603482 0.564951 0.353683
O O14 0.643767 0.468092 0.095572
#
# Coordination Sequence:
#
# PCOD9263267 Si02
#       7
#     4   8   8   8   8   8   8
#     4  12  26  46  66  94 118 162 218 266 312 366
#     4  11  19  32  54  86 128 171 199 242 317 377
#     4   9  19  31  52  80 120 161 195 249 294 362
#     4  10  23  42  64  87 126 159 204 263 308 374
#     4  11  23  43  65  94 126 161 202 254 325 385
#     4   9  18  30  51  84 122 162 205 245 293 365
#     4  10  19  34  54  86 124 167 203 251 308 362
#
# _framework density 27.187427
#
# number of rings (size 3 to 8) (size 9 to 14) (size 15 to 20)
#    0.000    1.846    3.846    0.462    0.000    4.308 
#    2.769    0.000    0.000   14.769    0.000    0.000 
#    0.000    0.000    0.000    0.000    0.000    0.000 
#
# Total GULP energy -145088.088630 kJ/mol
# GULP energy per Si atom -5580.311101 kJ/mol
# Density = 2.712555 g / cm^3
# Si number density = 27.187427 Si / 1000 Ang^3
#
#
#
# Elastic Constant Matrix: (Units=GPa)
#
#
# Indices 1 2 3 4 5 6 
#
# 1 85.0165 34.7742 33.7467 0.0000 10.5520 0.0000
# 2 34.7742 76.7410 29.0964 0.0000 3.1776 0.0000
# 3 33.7467 29.0964 193.8380 0.0000 17.6339 0.0000
# 4 0.0000 0.0000 0.0000 41.5150 0.0000 21.6118
# 5 10.5520 3.1776 17.6339 0.0000 49.6310 0.0000
# 6 0.0000 0.0000 0.0000 21.6118 0.0000 48.5010
#
#
#
# Elastic Compliance Matrix: (Units=1/GPa)
#
#
# Indices 1 2 3 4 5 6 
#
# 1 0.015187 -0.006217 -0.001502 0.000000 -0.002297 0.000000
# 2 -0.006217 0.016364 -0.001446 0.000000 0.000788 0.000000
# 3 -0.001502 -0.001446 0.005787 0.000000 -0.001644 0.000000
# 4 0.000000 0.000000 0.000000 0.031363 0.000000 -0.013975
# 5 -0.002297 0.000788 -0.001644 0.000000 0.021171 0.000000
# 6 0.000000 0.000000 0.000000 -0.013975 0.000000 0.026845
#
#
# Mechanical properties :
#
#
# Convention : Reuss Voigt Hill
#
# Bulk Modulus (GPa) = 52.60863 61.20333 56.90598
# Shear Modulus (GPa) = 35.36539 45.12795 40.24667
#
# Velocity S-wave (km/s) = 3.61057 4.07859 3.85169
# Velocity P-wave (km/s) = 6.06416 6.68882 6.38413
#
# Compressibility (1/GPa) = 0.01900829
#
# Stress axis : x y z
#
# Youngs Moduli (GPa) = 65.84747 61.11156 172.80211
#
# Poissons Ratio (x) = 0.37994 0.25950
# Poissons Ratio (y) = 0.40938 0.24980
# Poissons Ratio (z) = 0.09889 0.08834
#
# Static dielectric constant tensor:
#      x y z
#    x 2.346460 0.000000 0.028540 
#    y 0.000000 2.111140 0.000000 
#    z 0.028540 0.000000 2.098410 
# 
# From -- ./inp_files/58588.got.cif
#   From: 2010.05.17/outbox.cif.g08.bks.cpg/sg15_30_cif.got.tgz:58588.got - 2010.06.03 18:47:42.
