data_PCOD9263970
_publ_section_title
;
Structure prediction by ZEFSAII (Michael W. Deem and Ramdas Pophale) SiO2 
 PCOD9263970
Probable space group: C 2/C
;
_chemical_formula_sum "Si O2"
_cell_formula_units_Z 56
_cell_length_a 27.506433
_cell_length_b 8.950794
_cell_length_c 13.512457
_cell_angle_alpha 90.000000
_cell_angle_beta 116.690922
_cell_angle_gamma 90.000000
_cell_volume 2972.328479
_symmetry_space_group_name_H-M "C 2/C"
_symmetry_group_IT_number 15
_symmetry_cell_setting 'monoclinic'
loop_
_space_group_symop_operation_xyz
x,y,z
-x,y,1/2-z
-x,-y,-z
x,-y,1/2+z
1/2+x,1/2+y,z
1/2-x,1/2+y,1/2-z
1/2-x,1/2-y,-z
1/2+x,1/2-y,1/2+z
loop_
_atom_site_type_symbol
_atom_site_label
_atom_site_fract_x
_atom_site_fract_y
_atom_site_fract_z
Si Si1 0.877944 0.967184 0.578654
Si Si2 0.046960 0.170362 0.991801
Si Si3 0.642728 0.115490 0.605762
Si Si4 0.279107 0.337989 0.940652
Si Si5 0.035082 0.989907 0.686885
Si Si6 0.783295 0.390132 0.152099
Si Si7 0.318049 0.820061 0.963596
O O1 0.906007 0.994444 0.709871
O O2 0.864886 0.799197 0.534929
O O3 0.913724 0.049434 0.526978
O O4 0.820107 0.045982 0.528337
O O5 0.082200 0.321970 0.027665
O O6 0.034791 0.117699 0.092181
O O7 0.991805 0.145268 0.877232
O O8 0.685039 0.224508 0.588975
O O9 0.661683 0.134808 0.736341
O O10 0.656221 0.950148 0.579247
O O11 0.250000 0.250000 0.000000
O O12 0.239086 0.444875 0.842930
O O13 0.000000 0.937508 0.750000
O O14 0.734467 0.271072 0.127238
O O15 0.796593 0.386134 0.047985
#
# Coordination Sequence:
#
# PCOD9263970 Si02
#       7
#     8   8   8   8   8   8   8
#     4   9  19  34  54  79 108 147 183 225 281 332
#     4   9  19  34  58  83 104 135 188 236 277 341
#     4  11  20  34  53  81 115 148 187 236 278 331
#     4  10  19  35  50  77 114 148 189 229 261 327
#     4   9  17  36  61  80 101 139 185 236 287 340
#     4  10  20  34  51  75 113 164 188 220 277 329
#     4  10  20  34  51  78 116 149 193 229 271 339
#
# _framework density 18.840447999999999
#
# number of rings (size 3 to 8) (size 9 to 14) (size 15 to 20)
#    0.000    2.286    1.429    1.714    0.000    0.000 
#   10.286    0.000    0.000   20.571    0.000    0.000 
#    0.000    0.000    0.000    0.000    0.000    0.000 
#
# Total GULP energy -155912.270772 kJ/mol
# GULP energy per Si atom -5568.295385 kJ/mol
# Density = 1.879757 g / cm^3
# Si number density = 18.840448 Si / 1000 Ang^3
#
#
#
# Elastic Constant Matrix: (Units=GPa)
#
#
# Indices 1 2 3 4 5 6 
#
# 1 29.9831 17.3604 24.3845 0.0000 4.1841 0.0000
# 2 17.3604 94.9836 35.0183 0.0000 9.8343 0.0000
# 3 24.3845 35.0183 98.4220 0.0000 8.3910 0.0000
# 4 0.0000 0.0000 0.0000 16.9393 0.0000 -0.6458
# 5 4.1841 9.8343 8.3910 0.0000 33.8651 0.0000
# 6 0.0000 0.0000 0.0000 -0.6458 0.0000 27.4099
#
#
#
# Elastic Compliance Matrix: (Units=1/GPa)
#
#
# Indices 1 2 3 4 5 6 
#
# 1 0.043537 -0.004428 -0.009053 0.000000 -0.001850 0.000000
# 2 -0.004428 0.012779 -0.003249 0.000000 -0.002359 0.000000
# 3 -0.009053 -0.003249 0.013672 0.000000 -0.001326 0.000000
# 4 0.000000 0.000000 0.000000 0.059088 0.000000 0.001392
# 5 -0.001850 -0.002359 -0.001326 0.000000 0.030771 0.000000
# 6 0.000000 0.000000 0.000000 0.001392 0.000000 0.036516
#
#
# Mechanical properties :
#
#
# Convention : Reuss Voigt Hill
#
# Bulk Modulus (GPa) = 27.37587 41.87945 34.62766
# Shear Modulus (GPa) = 20.66121 25.41788 23.03954
#
# Velocity S-wave (km/s) = 3.31515 3.67701 3.50076
# Velocity P-wave (km/s) = 5.40514 6.34854 5.89574
#
# Compressibility (1/GPa) = 0.03652852
#
# Stress axis : x y z
#
# Youngs Moduli (GPa) = 22.96901 78.25070 73.14111
#
# Poissons Ratio (x) = 0.34650 0.66216
# Poissons Ratio (y) = 0.10171 0.23761
# Poissons Ratio (z) = 0.20794 0.25421
#
# Static dielectric constant tensor:
#      x y z
#    x 1.698280 0.000000 0.042780 
#    y 0.000000 1.675900 0.000000 
#    z 0.042780 0.000000 1.694080 
# 
# From -- ./inp_files/125625.got.cif
#   From: 2010.05.17/outbox.cif.g08.bks.cpg/sg15_63_cif.got.tgz:125625.got - 2010.06.03 18:47:42.
