data_PCOD9263028
_publ_section_title
;
Structure prediction by ZEFSAII (Michael W. Deem and Ramdas Pophale) SiO2 
 PCOD9263028
Probable space group: C 2/C
;
_chemical_formula_sum "Si O2"
_cell_formula_units_Z 56
_cell_length_a 5.771982
_cell_length_b 16.431826
_cell_length_c 30.223998
_cell_angle_alpha 90.000000
_cell_angle_beta 119.134694
_cell_angle_gamma 90.000000
_cell_volume 2503.885511
_symmetry_space_group_name_H-M "C 2/C"
_symmetry_group_IT_number 15
_symmetry_cell_setting 'monoclinic'
loop_
_space_group_symop_operation_xyz
x,y,z
-x,y,1/2-z
-x,-y,-z
x,-y,1/2+z
1/2+x,1/2+y,z
1/2-x,1/2+y,1/2-z
1/2-x,1/2-y,-z
1/2+x,1/2-y,1/2+z
loop_
_atom_site_type_symbol
_atom_site_label
_atom_site_fract_x
_atom_site_fract_y
_atom_site_fract_z
Si Si1 0.455206 0.375309 0.055799
Si Si2 0.216222 0.536569 0.238119
Si Si3 0.946710 0.530007 0.626365
Si Si4 0.288159 0.275843 0.554471
Si Si5 0.808498 0.850222 0.273710
Si Si6 0.473389 0.937777 0.538100
Si Si7 0.246084 0.682220 0.622389
O O1 0.615798 0.292461 0.063790
O O2 0.239084 0.355517 0.072654
O O3 0.640130 0.445343 0.093116
O O4 0.320516 0.400895 0.997449
O O5 0.500000 0.574430 0.250000
O O6 0.049971 0.515166 0.178835
O O7 0.295796 0.449603 0.268956
O O8 0.000000 0.578967 0.250000
O O9 0.008812 0.479952 0.588128
O O10 0.097283 0.616729 0.639182
O O11 0.250000 0.250000 0.500000
O O12 0.176683 0.364512 0.551732
O O13 0.583751 0.264558 0.601209
O O14 0.500000 0.824995 0.250000
O O15 0.000000 0.825048 0.250000
O O16 0.960434 0.817368 0.331093
O O17 0.500000 0.000000 0.500000
#
# Coordination Sequence:
#
# PCOD9263028 Si02
#       7
#     8   8   8   8   8   8   8
#     4  11  22  40  63  88 135 175 217 275 338 406
#     4  10  19  34  59  92 134 162 216 285 345 394
#     4  11  22  36  60  99 130 169 226 283 342 413
#     4  11  24  42  62  91 133 178 228 274 339 412
#     4  10  19  33  59  96 132 160 220 282 335 393
#     4  12  23  41  62  94 136 180 223 280 335 418
#     4  11  21  38  64  95 130 175 219 279 344 406
#
# _framework density 22.36524
#
# number of rings (size 3 to 8) (size 9 to 14) (size 15 to 20)
#    0.000    1.143    5.714    3.429    2.000    0.000 
#    0.000    0.000    0.000    0.000    3.714    1.000 
#    0.000    0.000    0.000    0.000    0.000    0.000 
#
# Total GULP energy -156370.408991 kJ/mol
# GULP energy per Si atom -5584.657464 kJ/mol
# Density = 2.231434 g / cm^3
# Si number density = 22.365240 Si / 1000 Ang^3
#
#
#
# Elastic Constant Matrix: (Units=GPa)
#
#
# Indices 1 2 3 4 5 6 
#
# 1 105.1226 16.7616 25.9182 0.0000 12.3113 0.0000
# 2 16.7616 61.9335 24.7258 0.0000 9.2724 0.0000
# 3 25.9182 24.7258 111.0011 0.0000 17.1845 0.0000
# 4 0.0000 0.0000 0.0000 7.9448 0.0000 -7.9555
# 5 12.3113 9.2724 17.1845 0.0000 48.9833 0.0000
# 6 0.0000 0.0000 0.0000 -7.9555 0.0000 9.7306
#
#
#
# Elastic Compliance Matrix: (Units=1/GPa)
#
#
# Indices 1 2 3 4 5 6 
#
# 1 0.010440 -0.001874 -0.001765 0.000000 -0.001650 0.000000
# 2 -0.001874 0.018262 -0.003350 0.000000 -0.001811 0.000000
# 3 -0.001765 -0.003350 0.010575 0.000000 -0.002632 0.000000
# 4 0.000000 0.000000 0.000000 0.694130 0.000000 0.567498
# 5 -0.001650 -0.001811 -0.002632 0.000000 0.022096 0.000000
# 6 0.000000 0.000000 0.000000 0.567498 0.000000 0.566737
#
#
# Mechanical properties :
#
#
# Convention : Reuss Voigt Hill
#
# Bulk Modulus (GPa) = 39.52689 45.87425 42.70057
# Shear Modulus (GPa) = 3.71844 27.37518 15.54681
#
# Velocity S-wave (km/s) = 1.29082 3.50237 2.63940
# Velocity P-wave (km/s) = 4.46468 6.07548 5.33126
#
# Compressibility (1/GPa) = 0.02529923
#
# Stress axis : x y z
#
# Youngs Moduli (GPa) = 95.78696 54.75842 94.56510
#
# Poissons Ratio (x) = 0.10261 0.16689
# Poissons Ratio (y) = 0.17949 0.31680
# Poissons Ratio (z) = 0.16904 0.18344
#
# Static dielectric constant tensor:
#      x y z
#    x 1.938130 0.000000 0.011010 
#    y 0.000000 1.816840 0.000000 
#    z 0.011010 0.000000 1.876180 
# 
# From -- ./inp_files/286121.got.cif
#   From: 2010.05.17/outbox.cif.g08.bks.cpg/sg15_144_cif.got.tgz:286121.got - 2010.06.03 18:47:42.
