data_PCOD9263208
_publ_section_title
;
Structure prediction by ZEFSAII (Michael W. Deem and Ramdas Pophale) SiO2 
 PCOD9263208
Probable space group: C 2/C
;
_chemical_formula_sum "Si O2"
_cell_formula_units_Z 52
_cell_length_a 26.603755
_cell_length_b 5.374332
_cell_length_c 20.929756
_cell_angle_alpha 90.000000
_cell_angle_beta 125.188269
_cell_angle_gamma 90.000000
_cell_volume 2445.644805
_symmetry_space_group_name_H-M "C 2/C"
_symmetry_group_IT_number 15
_symmetry_cell_setting 'monoclinic'
loop_
_space_group_symop_operation_xyz
x,y,z
-x,y,1/2-z
-x,-y,-z
x,-y,1/2+z
1/2+x,1/2+y,z
1/2-x,1/2+y,1/2-z
1/2-x,1/2-y,-z
1/2+x,1/2-y,1/2+z
loop_
_atom_site_type_symbol
_atom_site_label
_atom_site_fract_x
_atom_site_fract_y
_atom_site_fract_z
Si Si1 0.892528 0.895753 0.123268
Si Si2 0.500000 0.048461 0.250000
Si Si3 0.905296 0.739641 0.747779
Si Si4 0.169234 0.991798 0.705133
Si Si5 0.692910 0.992121 0.647097
Si Si6 0.198013 0.518296 0.398095
Si Si7 0.326021 0.295992 0.490503
O O1 0.944365 0.692726 0.174167
O O2 0.826072 0.784818 0.096341
O O3 0.909804 0.100517 0.187131
O O4 0.883065 0.023903 0.048063
O O5 0.532449 0.911972 0.213637
O O6 0.888451 0.920328 0.792949
O O7 0.846419 0.561203 0.692582
O O8 0.232557 0.982368 0.792888
O O9 0.174206 0.764335 0.658215
O O10 0.168267 0.264730 0.673394
O O11 0.670267 0.913114 0.560596
O O12 0.267863 0.470757 0.430619
O O13 0.186252 0.344214 0.451356
#
# Coordination Sequence:
#
# PCOD9263208 Si02
#       7
#     8   4   8   8   8   8   8
#     4  10  21  34  60  86 112 157 192 256 307 357
#     4  10  22  38  58  86 112 148 206 260 314 346
#     4  10  20  37  57  85 117 150 206 251 303 350
#     4  10  22  37  57  86 121 169 200 244 284 363
#     4  10  22  36  57  86 125 166 203 231 295 363
#     4   9  19  32  54  87 119 154 186 245 307 360
#     4  10  19  34  53  88 124 153 195 239 302 368
#
# _framework density 21.262286
#
# number of rings (size 3 to 8) (size 9 to 14) (size 15 to 20)
#    0.000    2.154    1.538    0.923    6.462    1.231 
#    0.000    0.000    0.000    1.846    0.000    0.000 
#    0.000    0.000    0.000    0.000    0.000    0.000 
#
# Total GULP energy -145062.925324 kJ/mol
# GULP energy per Si atom -5579.343282 kJ/mol
# Density = 2.121389 g / cm^3
# Si number density = 21.262286 Si / 1000 Ang^3
#
#
#
# Elastic Constant Matrix: (Units=GPa)
#
#
# Indices 1 2 3 4 5 6 
#
# 1 56.5400 -5.4769 19.1794 0.0027 5.5436 0.0001
# 2 -5.4769 48.3691 9.6084 -0.0015 6.5733 -0.0069
# 3 19.1794 9.6084 33.5453 0.0003 -2.0163 0.0001
# 4 0.0027 -0.0015 0.0003 22.6036 0.0007 -2.0330
# 5 5.5436 6.5733 -2.0163 0.0007 15.4166 0.0016
# 6 0.0001 -0.0069 0.0001 -2.0330 0.0016 19.0022
#
#
#
# Elastic Compliance Matrix: (Units=1/GPa)
#
#
# Indices 1 2 3 4 5 6 
#
# 1 0.026358 0.008792 -0.018529 -0.000001 -0.015650 0.000004
# 2 0.008792 0.026588 -0.013621 0.000002 -0.016280 0.000011
# 3 -0.018529 -0.013621 0.045413 0.000000 0.018410 -0.000007
# 4 -0.000001 0.000002 0.000000 0.044671 -0.000003 0.004779
# 5 -0.015650 -0.016280 0.018410 -0.000003 0.079842 -0.000013
# 6 0.000004 0.000011 -0.000007 0.004779 -0.000013 0.053137
#
#
# Mechanical properties :
#
#
# Convention : Reuss Voigt Hill
#
# Bulk Modulus (GPa) = 19.36388 20.56403 19.96396
# Shear Modulus (GPa) = 14.70855 19.08071 16.89463
#
# Velocity S-wave (km/s) = 2.63300 2.99891 2.82189
# Velocity P-wave (km/s) = 4.28608 4.65659 4.47517
#
# Compressibility (1/GPa) = 0.05164255
#
# Stress axis : x y z
#
# Youngs Moduli (GPa) = 37.93892 37.61086 22.02034
#
# Poissons Ratio (x) = -0.33068 0.40802
# Poissons Ratio (y) = -0.33357 0.29994
# Poissons Ratio (z) = 0.70298 0.51230
#
# Static dielectric constant tensor:
#      x y z
#    x 1.789380 0.000000 0.000120 
#    y 0.000000 1.868450 0.000000 
#    z 0.000120 0.000000 1.780610 
# 
# From -- ./inp_files/254278.got.cif
#   From: 2010.05.17/outbox.cif.g08.bks.cpg/sg15_128_cif.got.tgz:254278.got - 2010.06.03 18:47:42.
