data_PCOD9263722
_publ_section_title
;
Structure prediction by ZEFSAII (Michael W. Deem and Ramdas Pophale) SiO2 
 PCOD9263722
Probable space group: C 2/C
;
_chemical_formula_sum "Si O2"
_cell_formula_units_Z 56
_cell_length_a 21.150998
_cell_length_b 13.037769
_cell_length_c 14.172186
_cell_angle_alpha 90.000000
_cell_angle_beta 134.210685
_cell_angle_gamma 90.000000
_cell_volume 2801.284519
_symmetry_space_group_name_H-M "C 2/C"
_symmetry_group_IT_number 15
_symmetry_cell_setting 'monoclinic'
loop_
_space_group_symop_operation_xyz
x,y,z
-x,y,1/2-z
-x,-y,-z
x,-y,1/2+z
1/2+x,1/2+y,z
1/2-x,1/2+y,1/2-z
1/2-x,1/2-y,-z
1/2+x,1/2-y,1/2+z
loop_
_atom_site_type_symbol
_atom_site_label
_atom_site_fract_x
_atom_site_fract_y
_atom_site_fract_z
Si Si1 0.000000 0.762077 0.250000
Si Si2 0.812603 0.795575 0.482100
Si Si3 0.523501 0.118785 0.445877
Si Si4 0.939187 0.415916 0.319902
Si Si5 0.187912 0.833612 0.382616
Si Si6 0.236085 0.486300 0.898900
Si Si7 0.825722 0.308736 0.798586
Si Si8 0.000000 0.760194 0.750000
O O1 0.039578 0.690278 0.373895
O O2 0.084545 0.823550 0.301553
O O3 0.750000 0.750000 0.500000
O O4 0.811950 0.716553 0.393572
O O5 0.911892 0.813633 0.622874
O O6 0.781264 0.907788 0.417864
O O7 0.587783 0.116928 0.602160
O O8 0.427303 0.156321 0.384758
O O9 0.515410 0.000590 0.407538
O O10 0.863746 0.477322 0.187426
O O11 0.968117 0.315095 0.298858
O O12 0.250000 0.750000 0.500000
O O13 0.223168 0.938878 0.463446
O O14 0.192234 0.795829 0.279286
O O15 0.230855 0.399333 0.811315
#
# Coordination Sequence:
#
# PCOD9263722 Si02
#       8
#     4   8   8   8   8   8   8   4
#     4  10  19  35  62  90 122 160 202 258 316 368
#     4  12  25  42  62  91 128 168 208 256 318 380
#     4   9  18  34  60  94 117 156 212 261 320 362
#     4  10  19  34  59  88 123 160 205 265 312 368
#     4   9  20  39  63  92 125 158 205 261 310 371
#     4  10  22  40  62  94 124 161 212 255 320 372
#     4   9  20  41  65  92 125 163 212 265 308 372
#     4  12  23  41  60  86 130 168 208 258 316 374
#
# _framework density 19.990829000000002
#
# number of rings (size 3 to 8) (size 9 to 14) (size 15 to 20)
#    0.000    2.000    2.857    1.286    0.000    4.000 
#    0.000    0.000    0.000    3.429    0.000    0.000 
#    0.000    0.000    0.000    0.000    0.000    0.000 
#
# Total GULP energy -156042.569815 kJ/mol
# GULP energy per Si atom -5572.948922 kJ/mol
# Density = 1.994533 g / cm^3
# Si number density = 19.990829 Si / 1000 Ang^3
#
#
#
# Elastic Constant Matrix: (Units=GPa)
#
#
# Indices 1 2 3 4 5 6 
#
# 1 67.5506 18.2600 33.1516 0.0000 -9.3252 0.0000
# 2 18.2600 73.2455 25.1968 0.0000 -3.5012 0.0000
# 3 33.1516 25.1968 89.9935 0.0000 -0.4341 0.0000
# 4 0.0000 0.0000 0.0000 59.3291 0.0000 13.8913
# 5 -9.3252 -3.5012 -0.4341 0.0000 25.1777 0.0000
# 6 0.0000 0.0000 0.0000 13.8913 0.0000 33.7303
#
#
#
# Elastic Compliance Matrix: (Units=1/GPa)
#
#
# Indices 1 2 3 4 5 6 
#
# 1 0.019574 -0.002307 -0.006532 0.000000 0.006816 0.000000
# 2 -0.002307 0.015484 -0.003479 0.000000 0.001239 0.000000
# 3 -0.006532 -0.003479 0.014479 0.000000 -0.002653 0.000000
# 4 0.000000 0.000000 0.000000 0.018654 0.000000 -0.007682
# 5 0.006816 0.001239 -0.002653 0.000000 0.042369 0.000000
# 6 0.000000 0.000000 0.000000 -0.007682 0.000000 0.032811
#
#
# Mechanical properties :
#
#
# Convention : Reuss Voigt Hill
#
# Bulk Modulus (GPa) = 40.15914 42.66737 41.41326
# Shear Modulus (GPa) = 28.35956 33.92618 31.14287
#
# Velocity S-wave (km/s) = 3.77055 4.12404 3.95125
# Velocity P-wave (km/s) = 6.25208 6.63828 6.44807
#
# Compressibility (1/GPa) = 0.02490093
#
# Stress axis : x y z
#
# Youngs Moduli (GPa) = 51.08852 64.58274 69.06325
#
# Poissons Ratio (x) = 0.14899 0.45111
# Poissons Ratio (y) = 0.11786 0.24030
# Poissons Ratio (z) = 0.33370 0.22472
#
# Static dielectric constant tensor:
#      x y z
#    x 1.553890 0.000000 0.058820 
#    y 0.000000 1.699960 0.000000 
#    z 0.058820 0.000000 1.760550 
# 
# From -- ./inp_files/173513.got.cif
#   From: 2010.05.17/outbox.cif.g08.bks.cpg/sg15_87_cif.got.tgz:173513.got - 2010.06.03 18:47:42.
