data_PCOD9263256
_publ_section_title
;
Structure prediction by ZEFSAII (Michael W. Deem and Ramdas Pophale) SiO2 
 PCOD9263256
Probable space group: C 2/C
;
_chemical_formula_sum "Si O2"
_cell_formula_units_Z 40
_cell_length_a 21.630190
_cell_length_b 17.929787
_cell_length_c 5.378508
_cell_angle_alpha 90.000000
_cell_angle_beta 110.732958
_cell_angle_gamma 90.000000
_cell_volume 1950.835327
_symmetry_space_group_name_H-M "C 2/C"
_symmetry_group_IT_number 15
_symmetry_cell_setting 'monoclinic'
loop_
_space_group_symop_operation_xyz
x,y,z
-x,y,1/2-z
-x,-y,-z
x,-y,1/2+z
1/2+x,1/2+y,z
1/2-x,1/2+y,1/2-z
1/2-x,1/2-y,-z
1/2+x,1/2-y,1/2+z
loop_
_atom_site_type_symbol
_atom_site_label
_atom_site_fract_x
_atom_site_fract_y
_atom_site_fract_z
Si Si1 0.894510 0.476268 0.535984
Si Si2 0.754000 0.963001 0.735903
Si Si3 0.609012 0.196230 0.347452
Si Si4 0.797736 0.798109 0.741506
Si Si5 0.069305 0.768312 0.780387
O O1 0.928207 0.484060 0.316883
O O2 0.823921 0.517414 0.394161
O O3 0.882509 0.390575 0.587840
O O4 0.764963 0.875078 0.773500
O O5 0.781608 0.994804 0.516081
O O6 0.674897 0.244879 0.500003
O O7 0.562561 0.224799 0.508660
O O8 0.586021 0.214403 0.036682
O O9 0.750000 0.750000 0.500000
O O10 0.864882 0.816001 0.679257
O O11 0.000000 0.806244 0.750000
#
# Coordination Sequence:
#
# PCOD9263256 Si02
#       5
#     8   8   8   8   8
#     4  10  19  34  54  84 121 163 184 241 308 350
#     4  10  22  34  54  84 131 156 187 239 315 353
#     4  10  22  37  66  87 121 159 211 244 302 356
#     4  10  23  37  63  98 117 158 210 252 298 365
#     4  10  23  41  64  88 121 158 207 261 300 349
#
# _framework density 20.504034999999998
#
# number of rings (size 3 to 8) (size 9 to 14) (size 15 to 20)
#    1.200    0.800    0.000    4.200    8.400    0.800 
#    0.000    0.000    0.000   13.200    0.000    0.000 
#    0.000    0.000    0.000    0.000    0.000    0.000 
#
# Total GULP energy -111459.801227 kJ/mol
# GULP energy per Si atom -5572.990061 kJ/mol
# Density = 2.045737 g / cm^3
# Si number density = 20.504035 Si / 1000 Ang^3
#
#
#
# Elastic Constant Matrix: (Units=GPa)
#
#
# Indices 1 2 3 4 5 6 
#
# 1 58.1675 -23.4472 -0.4346 0.0000 3.9093 0.0000
# 2 -23.4472 62.5836 17.5914 0.0000 -2.1684 0.0000
# 3 -0.4346 17.5914 138.5135 0.0000 -31.1941 0.0000
# 4 0.0000 0.0000 0.0000 6.1856 0.0000 -24.3502
# 5 3.9093 -2.1684 -31.1941 0.0000 32.0481 0.0000
# 6 0.0000 0.0000 0.0000 -24.3502 0.0000 -4.4026
#
#
#
# Elastic Compliance Matrix: (Units=1/GPa)
#
#
# Indices 1 2 3 4 5 6 
#
# 1 0.020710 0.008138 -0.001810 0.000000 -0.003738 0.000000
# 2 0.008138 0.019804 -0.003088 0.000000 -0.002659 0.000000
# 3 -0.001810 -0.003088 0.009745 0.000000 0.009497 0.000000
# 4 0.000000 0.000000 0.000000 0.007099 0.000000 -0.039264
# 5 -0.003738 -0.002659 0.009497 0.000000 0.040723 0.000000
# 6 0.000000 0.000000 0.000000 -0.039264 0.000000 -0.009974
#
#
# Mechanical properties :
#
#
# Convention : Reuss Voigt Hill
#
# Bulk Modulus (GPa) = 17.62483 27.40928 22.51706
# Shear Modulus (GPa) = 49.73157 24.46990 37.10073
#
# Velocity S-wave (km/s) = 4.93023 3.45834 4.25836
# Velocity P-wave (km/s) = 6.40500 5.41697 5.93159
#
# Compressibility (1/GPa) = 0.05673812
#
# Stress axis : x y z
#
# Youngs Moduli (GPa) = 48.28578 50.49555 102.61829
#
# Poissons Ratio (x) = -0.41096 0.18578
# Poissons Ratio (y) = -0.39297 0.31692
# Poissons Ratio (z) = 0.08742 0.15595
#
# Static dielectric constant tensor:
#      x y z
#    x 1.785730 0.000000 -0.070950 
#    y 0.000000 1.670100 0.000000 
#    z -0.070950 0.000000 1.779530 
# 
# From -- ./inp_files/12836.got.cif
#   From: 2010.05.17/outbox.cif.g08.bks.cpg/sg15_7_cif.got.tgz:12836.got - 2010.06.03 18:47:42.
