data_PCOD9263745
_publ_section_title
;
Structure prediction by ZEFSAII (Michael W. Deem and Ramdas Pophale) SiO2 
 PCOD9263745
Probable space group: C 2/C
;
_chemical_formula_sum "Si O2"
_cell_formula_units_Z 64
_cell_length_a 9.914165
_cell_length_b 28.228194
_cell_length_c 13.744580
_cell_angle_alpha 90.000000
_cell_angle_beta 138.051212
_cell_angle_gamma 90.000000
_cell_volume 2571.284306
_symmetry_space_group_name_H-M "C 2/C"
_symmetry_group_IT_number 15
_symmetry_cell_setting 'monoclinic'
loop_
_space_group_symop_operation_xyz
x,y,z
-x,y,1/2-z
-x,-y,-z
x,-y,1/2+z
1/2+x,1/2+y,z
1/2-x,1/2+y,1/2-z
1/2-x,1/2-y,-z
1/2+x,1/2-y,1/2+z
loop_
_atom_site_type_symbol
_atom_site_label
_atom_site_fract_x
_atom_site_fract_y
_atom_site_fract_z
Si Si1 0.391613 0.227713 0.949327
Si Si2 0.690573 0.669129 0.999694
Si Si3 0.807537 0.082624 0.971117
Si Si4 0.185642 0.250753 0.290945
Si Si5 0.664764 0.594994 0.729558
Si Si6 0.075442 0.573786 0.039783
Si Si7 0.162557 0.853325 0.698367
Si Si8 0.393685 0.486927 0.792280
O O1 0.347167 0.184737 0.999246
O O2 0.269379 0.220268 0.784062
O O3 0.351440 0.277467 0.982322
O O4 0.621540 0.237141 0.042302
O O5 0.507172 0.635933 0.861616
O O6 0.748026 0.644331 0.133277
O O7 0.649282 0.067726 0.967831
O O8 0.936638 0.126907 0.077055
O O9 0.738067 0.096585 0.826529
O O10 0.983431 0.042358 0.061742
O O11 0.139112 0.199686 0.221046
O O12 0.000000 0.271349 0.250000
O O13 0.570612 0.542409 0.681765
O O14 0.842419 0.589058 0.904815
O O15 0.200985 0.615823 0.157528
O O16 0.159795 0.528992 0.149447
O O17 0.500000 0.469978 0.750000
#
# Coordination Sequence:
#
# PCOD9263745 Si02
#       8
#     8   8   8   8   8   8   8   8
#     4  10  23  44  65  93 133 177 220 285 346 408
#     4   9  22  42  61  87 128 179 223 262 347 410
#     4   9  18  35  60  86 125 171 215 270 350 408
#     4  11  22  41  70  98 126 168 229 281 339 403
#     4  11  20  35  59  93 123 167 228 286 324 406
#     4  10  19  34  59  93 125 164 219 283 350 396
#     4   9  19  37  62  89 121 165 218 273 325 418
#     4   9  19  36  55  82 127 176 215 270 345 411
#
# _framework density 24.890287000000001
#
# number of rings (size 3 to 8) (size 9 to 14) (size 15 to 20)
#    0.000    2.250    0.000    3.375    0.000    5.500 
#    4.500    5.000    0.000    1.500    0.000    0.000 
#    0.000    0.000    0.000    0.000    0.000    0.000 
#
# Total GULP energy -178417.530824 kJ/mol
# GULP energy per Si atom -5575.547838 kJ/mol
# Density = 2.483364 g / cm^3
# Si number density = 24.890287 Si / 1000 Ang^3
#
#
#
# Elastic Constant Matrix: (Units=GPa)
#
#
# Indices 1 2 3 4 5 6 
#
# 1 76.5528 17.1196 27.1807 0.0000 -12.7010 0.0000
# 2 17.1196 82.8222 17.3803 0.0000 0.0446 0.0000
# 3 27.1807 17.3803 123.7032 0.0000 -3.1844 0.0000
# 4 0.0000 0.0000 0.0000 25.8632 0.0000 -1.3861
# 5 -12.7010 0.0446 -3.1844 0.0000 28.7363 0.0000
# 6 0.0000 0.0000 0.0000 -1.3861 0.0000 26.1659
#
#
#
# Elastic Compliance Matrix: (Units=1/GPa)
#
#
# Indices 1 2 3 4 5 6 
#
# 1 0.015802 -0.002656 -0.002927 0.000000 0.006664 0.000000
# 2 -0.002656 0.012888 -0.001262 0.000000 -0.001334 0.000000
# 3 -0.002927 -0.001262 0.008896 0.000000 -0.000306 0.000000
# 4 0.000000 0.000000 0.000000 0.038775 0.000000 0.002054
# 5 0.006664 -0.001334 -0.000306 0.000000 0.037713 0.000000
# 6 0.000000 0.000000 0.000000 0.002054 0.000000 0.038326
#
#
# Mechanical properties :
#
#
# Convention : Reuss Voigt Hill
#
# Bulk Modulus (GPa) = 41.84547 45.15994 43.50271
# Shear Modulus (GPa) = 28.72640 30.91291 29.81966
#
# Velocity S-wave (km/s) = 3.40092 3.52798 3.46503
# Velocity P-wave (km/s) = 5.68068 5.89733 5.79002
#
# Compressibility (1/GPa) = 0.02389745
#
# Stress axis : x y z
#
# Youngs Moduli (GPa) = 63.28415 77.58885 112.40408
#
# Poissons Ratio (x) = 0.20604 0.32905
# Poissons Ratio (y) = 0.16805 0.14182
# Poissons Ratio (z) = 0.18526 0.09789
#
# Static dielectric constant tensor:
#      x y z
#    x 2.060480 0.000000 0.001300 
#    y 0.000000 1.965860 0.000000 
#    z 0.001300 0.000000 2.048920 
# 
# From -- ./inp_files/207591.got.cif
#   From: 2010.05.17/outbox.cif.g08.bks.cpg/sg15_104_cif.got.tgz:207591.got - 2010.06.03 18:47:42.
