data_PCOD9263953
_publ_section_title
;
Structure prediction by ZEFSAII (Michael W. Deem and Ramdas Pophale) SiO2 
 PCOD9263953
Probable space group: C 2/C
;
_chemical_formula_sum "Si O2"
_cell_formula_units_Z 60
_cell_length_a 16.433586
_cell_length_b 10.402668
_cell_length_c 20.615654
_cell_angle_alpha 90.000000
_cell_angle_beta 134.438880
_cell_angle_gamma 90.000000
_cell_volume 2516.349905
_symmetry_space_group_name_H-M "C 2/C"
_symmetry_group_IT_number 15
_symmetry_cell_setting 'monoclinic'
loop_
_space_group_symop_operation_xyz
x,y,z
-x,y,1/2-z
-x,-y,-z
x,-y,1/2+z
1/2+x,1/2+y,z
1/2-x,1/2+y,1/2-z
1/2-x,1/2-y,-z
1/2+x,1/2-y,1/2+z
loop_
_atom_site_type_symbol
_atom_site_label
_atom_site_fract_x
_atom_site_fract_y
_atom_site_fract_z
Si Si1 0.017136 0.220507 0.622858
Si Si2 0.560566 0.807316 0.500921
Si Si3 0.721079 0.874417 0.801592
Si Si4 0.054606 0.411316 0.182845
Si Si5 0.972548 0.057921 0.414440
Si Si6 0.723344 0.379852 0.942409
Si Si7 0.500000 0.308026 0.750000
Si Si8 0.842232 0.404047 0.587739
O O1 0.023782 0.274567 0.552778
O O2 0.130256 0.275497 0.721059
O O3 0.902384 0.281000 0.588921
O O4 0.021464 0.066490 0.626900
O O5 0.476664 0.892851 0.410068
O O6 0.561839 0.672944 0.461348
O O7 0.683898 0.869373 0.563980
O O8 0.849416 0.873699 0.847997
O O9 0.712601 0.867203 0.874529
O O10 0.671422 0.014394 0.756035
O O11 0.054351 0.283398 0.225132
O O12 0.951372 0.498652 0.154228
O O13 0.000000 0.000000 0.500000
O O14 0.600611 0.381871 0.841414
O O15 0.750000 0.250000 0.000000
O O16 0.754739 0.508619 0.998800
#
# Coordination Sequence:
#
# PCOD9263953 Si02
#       8
#     8   8   8   8   8   8   4   8
#     4  10  23  43  68 101 135 185 245 288 359 440
#     4  10  23  42  64  96 147 178 226 298 372 417
#     4  11  22  40  74  95 133 186 243 284 344 436
#     4  10  19  34  66  95 131 170 231 289 352 412
#     4  10  25  41  65  96 138 187 227 287 362 422
#     4  11  22  38  69 104 143 179 240 304 362 424
#     4  12  20  34  66 110 130 182 242 300 356 426
#     4  10  21  42  69 100 135 189 231 294 355 424
#
# _framework density 23.844062000000001
#
# number of rings (size 3 to 8) (size 9 to 14) (size 15 to 20)
#    0.000    1.600    4.000    1.200    9.333    4.800 
#    0.000    2.667    2.933    0.000    0.000    0.933 
#    0.000    0.000    0.000    0.000    0.000    0.000 
#
# Total GULP energy -167839.522164 kJ/mol
# GULP energy per Si atom -5594.650739 kJ/mol
# Density = 2.378979 g / cm^3
# Si number density = 23.844062 Si / 1000 Ang^3
#
#
#
# Elastic Constant Matrix: (Units=GPa)
#
#
# Indices 1 2 3 4 5 6 
#
# 1 110.7859 51.8464 44.5058 0.0000 2.6938 0.0000
# 2 51.8464 104.4626 48.0332 0.0000 8.5962 0.0000
# 3 44.5058 48.0332 128.5866 0.0000 17.6156 0.0000
# 4 0.0000 0.0000 0.0000 34.4526 0.0000 -1.8977
# 5 2.6938 8.5962 17.6156 0.0000 33.3566 0.0000
# 6 0.0000 0.0000 0.0000 -1.8977 0.0000 32.3049
#
#
#
# Elastic Compliance Matrix: (Units=1/GPa)
#
#
# Indices 1 2 3 4 5 6 
#
# 1 0.012428 -0.005099 -0.002630 0.000000 0.001699 0.000000
# 2 -0.005099 0.013667 -0.003142 0.000000 -0.001451 0.000000
# 3 -0.002630 -0.003142 0.010479 0.000000 -0.004512 0.000000
# 4 0.000000 0.000000 0.000000 0.029120 0.000000 0.001711
# 5 0.001699 -0.001451 -0.004512 0.000000 0.032598 0.000000
# 6 0.000000 0.000000 0.000000 0.001711 0.000000 0.031056
#
#
# Mechanical properties :
#
#
# Convention : Reuss Voigt Hill
#
# Bulk Modulus (GPa) = 67.41496 70.28952 68.85224
# Shear Modulus (GPa) = 32.04467 33.31947 32.68207
#
# Velocity S-wave (km/s) = 3.66994 3.74222 3.70626
# Velocity P-wave (km/s) = 6.80386 6.94371 6.87414
#
# Compressibility (1/GPa) = 0.01483350
#
# Stress axis : x y z
#
# Youngs Moduli (GPa) = 80.46603 73.16636 95.43162
#
# Poissons Ratio (x) = 0.37306 0.25094
# Poissons Ratio (y) = 0.41027 0.29984
# Poissons Ratio (z) = 0.21159 0.22988
#
# Static dielectric constant tensor:
#      x y z
#    x 1.945840 0.000000 -0.032340 
#    y 0.000000 1.980330 0.000000 
#    z -0.032340 0.000000 1.909030 
# 
# From -- ./inp_files/248785.got.cif
#   From: 2010.05.17/outbox.cif.g08.bks.cpg/sg15_125_cif.got.tgz:248785.got - 2010.06.03 18:47:42.
