data_PCOD9263304
_publ_section_title
;
Structure prediction by ZEFSAII (Michael W. Deem and Ramdas Pophale) SiO2 
 PCOD9263304
Probable space group: C 2/C
;
_chemical_formula_sum "Si O2"
_cell_formula_units_Z 40
_cell_length_a 12.082499
_cell_length_b 14.147316
_cell_length_c 10.155715
_cell_angle_alpha 90.000000
_cell_angle_beta 87.021753
_cell_angle_gamma 90.000000
_cell_volume 1733.621734
_symmetry_space_group_name_H-M "C 2/C"
_symmetry_group_IT_number 15
_symmetry_cell_setting 'monoclinic'
loop_
_space_group_symop_operation_xyz
x,y,z
-x,y,1/2-z
-x,-y,-z
x,-y,1/2+z
1/2+x,1/2+y,z
1/2-x,1/2+y,1/2-z
1/2-x,1/2-y,-z
1/2+x,1/2-y,1/2+z
loop_
_atom_site_type_symbol
_atom_site_label
_atom_site_fract_x
_atom_site_fract_y
_atom_site_fract_z
Si Si1 0.509525 0.277927 0.898312
Si Si2 0.654732 0.450607 0.655037
Si Si3 0.304684 0.404666 0.565782
Si Si4 0.579556 0.010967 0.120626
Si Si5 0.667598 0.838756 0.992155
O O1 0.500000 0.237886 0.750000
O O2 0.435021 0.374318 0.891643
O O3 0.634659 0.305063 0.922035
O O4 0.451634 0.210455 0.007252
O O5 0.646670 0.462545 0.810974
O O6 0.655816 0.544222 0.569032
O O7 0.775095 0.401743 0.622701
O O8 0.172863 0.410463 0.587250
O O9 0.500000 0.021931 0.250000
O O10 0.652446 0.913153 0.113347
O O11 0.500000 0.000000 0.000000
O O12 0.750000 0.750000 0.000000
#
# Coordination Sequence:
#
# PCOD9263304 Si02
#       5
#     8   8   8   8   8
#     4   9  17  31  54  83 111 140 178 224 270 321
#     4   9  18  32  56  84 112 140 177 221 271 326
#     4  10  19  34  55  81 108 142 182 225 269 323
#     4  11  22  37  57  80 108 145 186 227 273 326
#     4   9  18  34  56  82 109 143 181 219 267 332
#
# _framework density 23.073081999999999
#
# number of rings (size 3 to 8) (size 9 to 14) (size 15 to 20)
#    0.000    2.400    0.000    3.600    0.000    0.000 
#    0.000    1.000    0.000   28.800    0.000    0.000 
#    0.000    0.000    0.000    0.000    0.000    0.000 
#
# Total GULP energy -111504.723987 kJ/mol
# GULP energy per Si atom -5575.236199 kJ/mol
# Density = 2.302057 g / cm^3
# Si number density = 23.073082 Si / 1000 Ang^3
#
#
#
# Elastic Constant Matrix: (Units=GPa)
#
#
# Indices 1 2 3 4 5 6 
#
# 1 147.1802 42.2802 29.9892 0.0000 -21.7659 0.0000
# 2 42.2802 48.3118 0.4791 0.0000 -6.4403 0.0000
# 3 29.9892 0.4791 79.0648 0.0000 -12.8799 0.0000
# 4 0.0000 0.0000 0.0000 14.6351 0.0000 -21.7385
# 5 -21.7659 -6.4403 -12.8799 0.0000 37.5200 0.0000
# 6 0.0000 0.0000 0.0000 -21.7385 0.0000 49.8728
#
#
#
# Elastic Compliance Matrix: (Units=1/GPa)
#
#
# Indices 1 2 3 4 5 6 
#
# 1 0.010482 -0.008682 -0.003363 0.000000 0.003436 0.000000
# 2 -0.008682 0.028393 0.003278 0.000000 0.000962 0.000000
# 3 -0.003363 0.003278 0.014488 0.000000 0.003585 0.000000
# 4 0.000000 0.000000 0.000000 0.193808 0.000000 0.084477
# 5 0.003436 0.000962 0.003585 0.000000 0.030041 0.000000
# 6 0.000000 0.000000 0.000000 0.084477 0.000000 0.056873
#
#
# Mechanical properties :
#
#
# Convention : Reuss Voigt Hill
#
# Bulk Modulus (GPa) = 27.91188 46.67266 37.29227
# Shear Modulus (GPa) = 13.75281 33.85946 23.80614
#
# Velocity S-wave (km/s) = 2.44407 3.83494 3.21560
# Velocity P-wave (km/s) = 4.48197 6.31515 5.47582
#
# Compressibility (1/GPa) = 0.03582703
#
# Stress axis : x y z
#
# Youngs Moduli (GPa) = 95.40300 35.22046 69.02400
#
# Poissons Ratio (x) = 0.30578 0.23216
# Poissons Ratio (y) = 0.82827 -0.22624
# Poissons Ratio (z) = 0.32088 -0.11544
#
# Static dielectric constant tensor:
#      x y z
#    x 1.937750 0.000000 -0.018530 
#    y 0.000000 1.903030 0.000000 
#    z -0.018530 0.000000 1.865800 
# 
# From -- ./inp_files/85497.got.cif
#   From: 2010.05.17/outbox.cif.g08.bks.cpg/sg15_43_cif.got.tgz:85497.got - 2010.06.03 18:47:42.
