data_PCOD9263932
_publ_section_title
;
Structure prediction by ZEFSAII (Michael W. Deem and Ramdas Pophale) SiO2 
 PCOD9263932
Probable space group: C 2/C
;
_chemical_formula_sum "Si O2"
_cell_formula_units_Z 40
_cell_length_a 8.644703
_cell_length_b 16.074880
_cell_length_c 20.996920
_cell_angle_alpha 90.000000
_cell_angle_beta 147.756418
_cell_angle_gamma 90.000000
_cell_volume 1556.696447
_symmetry_space_group_name_H-M "C 2/C"
_symmetry_group_IT_number 15
_symmetry_cell_setting 'monoclinic'
loop_
_space_group_symop_operation_xyz
x,y,z
-x,y,1/2-z
-x,-y,-z
x,-y,1/2+z
1/2+x,1/2+y,z
1/2-x,1/2+y,1/2-z
1/2-x,1/2-y,-z
1/2+x,1/2-y,1/2+z
loop_
_atom_site_type_symbol
_atom_site_label
_atom_site_fract_x
_atom_site_fract_y
_atom_site_fract_z
Si Si1 0.336094 0.200139 0.356245
Si Si2 0.652107 0.606749 0.636182
Si Si3 0.537296 0.788167 0.067328
Si Si4 0.683923 0.881009 0.868982
Si Si5 0.711449 0.456637 0.372400
O O1 0.396377 0.296436 0.360803
O O2 0.473084 0.189196 0.472349
O O3 0.467888 0.139085 0.351103
O O4 0.000000 0.192482 0.250000
O O5 0.479766 0.591735 0.508951
O O6 0.487473 0.558047 0.634367
O O7 0.000000 0.599605 0.750000
O O8 0.730729 0.706384 0.133734
O O9 0.685197 0.876170 0.135900
O O10 0.250000 0.750000 0.000000
O O11 0.500000 0.927762 0.750000
O O12 0.500000 0.504971 0.250000
O O13 0.000000 0.500000 0.500000
#
# Coordination Sequence:
#
# PCOD9263932 Si02
#       5
#     8   8   8   8   8
#     4  10  19  34  64 110 151 175 228 313 371 438
#     4  10  22  44  71 100 141 190 248 309 374 451
#     4  11  22  39  72 111 147 190 249 309 385 447
#     4  11  20  37  66 117 147 177 231 312 381 441
#     4  12  28  51  75 105 153 209 256 308 390 473
#
# _framework density 25.695440000000001
#
# number of rings (size 3 to 8) (size 9 to 14) (size 15 to 20)
#    0.000    1.200    4.000    3.000    8.400    0.800 
#    3.600    1.000    0.000    0.000    0.000    0.000 
#    0.000    0.000    0.000    0.000    0.000    0.000 
#
# Total GULP energy -111769.887817 kJ/mol
# GULP energy per Si atom -5588.494391 kJ/mol
# Density = 2.563696 g / cm^3
# Si number density = 25.695440 Si / 1000 Ang^3
#
#
#
# Elastic Constant Matrix: (Units=GPa)
#
#
# Indices 1 2 3 4 5 6 
#
# 1 144.4816 15.5073 88.4466 0.0003 16.2809 0.0000
# 2 15.5073 87.2579 16.0705 0.0011 -4.9540 0.0004
# 3 88.4466 16.0705 249.9664 0.0079 -5.3742 0.0018
# 4 0.0003 0.0011 0.0079 5.0576 0.0012 9.0748
# 5 16.2809 -4.9540 -5.3742 0.0012 45.2665 0.0005
# 6 0.0000 0.0004 0.0018 9.0748 0.0005 19.8711
#
#
#
# Elastic Compliance Matrix: (Units=1/GPa)
#
#
# Indices 1 2 3 4 5 6 
#
# 1 0.009590 -0.001306 -0.003395 0.000029 -0.003995 -0.000013
# 2 -0.001306 0.011839 -0.000262 -0.000011 0.001734 0.000005
# 3 -0.003395 -0.000262 0.005258 -0.000041 0.001817 0.000018
# 4 0.000029 -0.000011 -0.000041 1.094993 -0.000039 -0.500066
# 5 -0.003995 0.001734 0.001817 -0.000039 0.023934 0.000017
# 6 -0.000013 0.000005 0.000018 -0.500066 0.000017 0.278696
#
#
# Mechanical properties :
#
#
# Convention : Reuss Voigt Hill
#
# Bulk Modulus (GPa) = 59.66185 80.19498 69.92842
# Shear Modulus (GPa) = 3.47265 38.15115 20.81190
#
# Velocity S-wave (km/s) = 1.16379 3.85742 2.84904
# Velocity P-wave (km/s) = 5.00751 7.14962 6.17221
#
# Compressibility (1/GPa) = 0.01676113
#
# Stress axis : x y z
#
# Youngs Moduli (GPa) = 104.27408 84.46637 190.19416
#
# Poissons Ratio (x) = 0.11030 0.64576
# Poissons Ratio (y) = 0.13617 0.04979
# Poissons Ratio (z) = 0.35404 0.02211
#
# Static dielectric constant tensor:
#      x y z
#    x 2.008980 0.000000 -0.062040 
#    y 0.000000 2.222800 0.000000 
#    z -0.062040 0.000000 2.146580 
# 
# From -- ./inp_files/265677.got.cif
#   From: 2010.05.17/outbox.cif.g08.bks.cpg/sg15_133_cif.got.tgz:265677.got - 2010.06.03 18:47:42.
