data_PCOD9263506
_publ_section_title
;
Structure prediction by ZEFSAII (Michael W. Deem and Ramdas Pophale) SiO2 
 PCOD9263506
Probable space group: C 2/C
;
_chemical_formula_sum "Si O2"
_cell_formula_units_Z 60
_cell_length_a 17.102579
_cell_length_b 23.837423
_cell_length_c 10.037830
_cell_angle_alpha 90.000000
_cell_angle_beta 53.306170
_cell_angle_gamma 90.000000
_cell_volume 3281.319049
_symmetry_space_group_name_H-M "C 2/C"
_symmetry_group_IT_number 15
_symmetry_cell_setting 'monoclinic'
loop_
_space_group_symop_operation_xyz
x,y,z
-x,y,1/2-z
-x,-y,-z
x,-y,1/2+z
1/2+x,1/2+y,z
1/2-x,1/2+y,1/2-z
1/2-x,1/2-y,-z
1/2+x,1/2-y,1/2+z
loop_
_atom_site_type_symbol
_atom_site_label
_atom_site_fract_x
_atom_site_fract_y
_atom_site_fract_z
Si Si1 0.260709 0.545549 0.081106
Si Si2 0.782411 0.162602 0.932719
Si Si3 0.133932 0.995480 0.272157
Si Si4 0.437291 0.835682 0.948176
Si Si5 0.500000 0.418554 0.750000
Si Si6 0.429417 0.285461 0.450793
Si Si7 0.967307 0.450317 0.629696
Si Si8 0.437804 0.625081 0.571975
O O1 0.323997 0.515242 0.129669
O O2 0.149842 0.551252 0.242751
O O3 0.297980 0.607233 0.006694
O O4 0.278021 0.514144 0.922601
O O5 0.822214 0.209845 0.993545
O O6 0.851472 0.158977 0.732670
O O7 0.673317 0.158576 0.989670
O O8 0.074288 0.937293 0.352493
O O9 0.065096 0.041888 0.277213
O O10 0.500000 0.831189 0.750000
O O11 0.443567 0.774271 0.008537
O O12 0.481175 0.891815 0.968904
O O13 0.566368 0.382939 0.581916
O O14 0.500000 0.287079 0.250000
O O15 0.464698 0.339422 0.497020
O O16 0.000000 0.459395 0.750000
O O17 0.000000 0.500000 0.500000
#
# Coordination Sequence:
#
# PCOD9263506 Si02
#       8
#     8   8   8   8   4   8   8   8
#     4  11  21  36  54  83 118 155 194 238 284 357
#     4  10  19  34  57  85 118 145 193 241 296 340
#     4  11  23  34  56  84 120 154 196 233 293 353
#     4  10  19  36  57  89 113 149 194 247 286 342
#     4  12  22  36  56  80 120 156 194 240 294 350
#     4   9  19  34  59  84 115 146 192 240 299 341
#     4  11  22  38  59  84 117 153 193 244 289 338
#     4  10  22  35  54  84 114 154 187 241 289 356
#
# _framework density 18.285329999999998
#
# number of rings (size 3 to 8) (size 9 to 14) (size 15 to 20)
#    0.000    1.600    4.000    2.400    6.533    0.000 
#    0.000    0.000    1.467    0.800    0.000    0.000 
#    0.000    0.000    0.000    0.000    0.000    0.000 
#
# Total GULP energy -167069.520553 kJ/mol
# GULP energy per Si atom -5568.984018 kJ/mol
# Density = 1.824371 g / cm^3
# Si number density = 18.285330 Si / 1000 Ang^3
#
#
#
# Elastic Constant Matrix: (Units=GPa)
#
#
# Indices 1 2 3 4 5 6 
#
# 1 77.6089 35.1704 22.1327 0.0000 -9.2332 0.0000
# 2 35.1704 99.5253 25.3767 0.0000 10.5169 0.0000
# 3 22.1327 25.3767 81.4712 0.0000 -1.4868 0.0000
# 4 0.0000 0.0000 0.0000 22.7986 0.0000 -6.6211
# 5 -9.2332 10.5169 -1.4868 0.0000 28.9594 0.0000
# 6 0.0000 0.0000 0.0000 -6.6211 0.0000 40.0452
#
#
#
# Elastic Compliance Matrix: (Units=1/GPa)
#
#
# Indices 1 2 3 4 5 6 
#
# 1 0.017402 -0.006293 -0.002627 0.000000 0.007699 0.000000
# 2 -0.006293 0.013711 -0.002691 0.000000 -0.007124 0.000000
# 3 -0.002627 -0.002691 0.013842 0.000000 0.000850 0.000000
# 4 0.000000 0.000000 0.000000 0.046075 0.000000 0.007618
# 5 0.007699 -0.007124 0.000850 0.000000 0.039617 0.000000
# 6 0.000000 0.000000 0.000000 0.007618 0.000000 0.026231
#
#
# Mechanical properties :
#
#
# Convention : Reuss Voigt Hill
#
# Bulk Modulus (GPa) = 46.01469 47.10722 46.56096
# Shear Modulus (GPa) = 26.68897 30.08899 28.38898
#
# Velocity S-wave (km/s) = 3.82459 4.06091 3.94452
# Velocity P-wave (km/s) = 6.68751 6.91420 6.80180
#
# Compressibility (1/GPa) = 0.02173219
#
# Stress axis : x y z
#
# Youngs Moduli (GPa) = 57.46400 72.93640 72.24620
#
# Poissons Ratio (x) = 0.45902 0.18977
# Poissons Ratio (y) = 0.36164 0.19441
# Poissons Ratio (z) = 0.15094 0.19626
#
# Static dielectric constant tensor:
#      x y z
#    x 1.653820 0.000000 -0.028920 
#    y 0.000000 1.703310 0.000000 
#    z -0.028920 0.000000 1.633810 
# 
# From -- ./inp_files/51525.got.cif
#   From: 2010.05.17/outbox.cif.g08.bks.cpg/sg15_26_cif.got.tgz:51525.got - 2010.06.03 18:47:42.
