data_PCOD9263235
_publ_section_title
;
Structure prediction by ZEFSAII (Michael W. Deem and Ramdas Pophale) SiO2 
 PCOD9263235
Probable space group: C 2/C
;
_chemical_formula_sum "Si O2"
_cell_formula_units_Z 56
_cell_length_a 11.800740
_cell_length_b 19.129671
_cell_length_c 14.547377
_cell_angle_alpha 90.000000
_cell_angle_beta 120.015378
_cell_angle_gamma 90.000000
_cell_volume 2843.575408
_symmetry_space_group_name_H-M "C 2/C"
_symmetry_group_IT_number 15
_symmetry_cell_setting 'monoclinic'
loop_
_space_group_symop_operation_xyz
x,y,z
-x,y,1/2-z
-x,-y,-z
x,-y,1/2+z
1/2+x,1/2+y,z
1/2-x,1/2+y,1/2-z
1/2-x,1/2-y,-z
1/2+x,1/2-y,1/2+z
loop_
_atom_site_type_symbol
_atom_site_label
_atom_site_fract_x
_atom_site_fract_y
_atom_site_fract_z
Si Si1 0.357321 0.803013 0.081766
Si Si2 0.578037 0.597007 0.160698
Si Si3 0.864783 0.249921 0.289192
Si Si4 0.634367 0.553135 0.692452
Si Si5 0.338836 0.407306 0.015778
Si Si6 0.344914 0.315578 0.176074
Si Si7 0.717981 0.558734 0.515589
O O1 0.347807 0.793096 0.188328
O O2 0.501370 0.778270 0.111542
O O3 0.322973 0.881522 0.038152
O O4 0.250000 0.750000 0.000000
O O5 0.611471 0.668697 0.224022
O O6 0.635387 0.526378 0.228037
O O7 0.641159 0.602766 0.084459
O O8 0.423013 0.584323 0.081289
O O9 0.744043 0.259888 0.308361
O O10 0.482866 0.571945 0.611880
O O11 0.683208 0.611616 0.781013
O O12 0.700265 0.556725 0.619382
O O13 0.305899 0.336726 0.056724
O O14 0.256242 0.478006 0.000085
O O15 0.500000 0.299885 0.250000
#
# Coordination Sequence:
#
# PCOD9263235 Si02
#       7
#     8   8   8   8   8   8   8
#     4  11  22  36  54  78 113 148 175 226 272 323
#     4   9  17  32  53  82 107 134 184 226 262 321
#     4  11  23  35  54  83 110 147 184 212 286 336
#     4   8  15  30  53  74 105 139 174 226 262 303
#     4   8  17  29  54  79  98 141 180 219 269 309
#     4  10  19  34  54  81 110 140 181 229 270 323
#     4   9  15  33  54  74 105 140 177 222 270 308
#
# _framework density 19.693515999999999
#
# number of rings (size 3 to 8) (size 9 to 14) (size 15 to 20)
#    0.000    2.571    2.857    1.714    0.000    1.714 
#    5.143    0.714    0.000    3.429    0.000    0.000 
#    0.000    0.000    0.000    0.000    0.000    0.000 
#
# Total GULP energy -156138.398272 kJ/mol
# GULP energy per Si atom -5576.371367 kJ/mol
# Density = 1.964869 g / cm^3
# Si number density = 19.693516 Si / 1000 Ang^3
#
#
#
# Elastic Constant Matrix: (Units=GPa)
#
#
# Indices 1 2 3 4 5 6 
#
# 1 74.4528 17.7262 9.7854 0.0000 3.7068 0.0000
# 2 17.7262 83.0556 2.7021 0.0000 10.3515 0.0000
# 3 9.7854 2.7021 35.6680 0.0000 1.9967 0.0000
# 4 0.0000 0.0000 0.0000 19.5106 0.0000 0.8595
# 5 3.7068 10.3515 1.9967 0.0000 22.1849 0.0000
# 6 0.0000 0.0000 0.0000 0.8595 0.0000 22.4308
#
#
#
# Elastic Compliance Matrix: (Units=1/GPa)
#
#
# Indices 1 2 3 4 5 6 
#
# 1 0.014656 -0.002912 -0.003758 0.000000 -0.000752 0.000000
# 2 -0.002912 0.013377 0.000108 0.000000 -0.005765 0.000000
# 3 -0.003758 0.000108 0.029174 0.000000 -0.002048 0.000000
# 4 0.000000 0.000000 0.000000 0.051341 0.000000 -0.001967
# 5 -0.000752 -0.005765 -0.002048 0.000000 0.048075 0.000000
# 6 0.000000 0.000000 0.000000 -0.001967 0.000000 0.044657
#
#
# Mechanical properties :
#
#
# Convention : Reuss Voigt Hill
#
# Bulk Modulus (GPa) = 22.68468 28.17820 25.43144
# Shear Modulus (GPa) = 21.82478 23.68947 22.75713
#
# Velocity S-wave (km/s) = 3.33261 3.47206 3.40305
# Velocity P-wave (km/s) = 5.13344 5.51480 5.32753
#
# Compressibility (1/GPa) = 0.04408262
#
# Stress axis : x y z
#
# Youngs Moduli (GPa) = 68.23145 74.75754 34.27732
#
# Poissons Ratio (x) = 0.21769 0.12882
# Poissons Ratio (y) = 0.19869 -0.00371
# Poissons Ratio (z) = 0.25642 -0.00809
#
# Static dielectric constant tensor:
#      x y z
#    x 1.708660 0.000000 -0.040050 
#    y 0.000000 1.716290 0.000000 
#    z -0.040050 0.000000 1.736360 
# 
# From -- ./inp_files/119797.got.cif
#   From: 2010.05.17/outbox.cif.g08.bks.cpg/sg15_60_cif.got.tgz:119797.got - 2010.06.03 18:47:42.
