data_PCOD9263597
_publ_section_title
;
Structure prediction by ZEFSAII (Michael W. Deem and Ramdas Pophale) SiO2 
 PCOD9263597
Probable space group: C 2/C
;
_chemical_formula_sum "Si O2"
_cell_formula_units_Z 48
_cell_length_a 8.815525
_cell_length_b 17.805974
_cell_length_c 15.886075
_cell_angle_alpha 90.000000
_cell_angle_beta 60.640088
_cell_angle_gamma 90.000000
_cell_volume 2173.333397
_symmetry_space_group_name_H-M "C 2/C"
_symmetry_group_IT_number 15
_symmetry_cell_setting 'monoclinic'
loop_
_space_group_symop_operation_xyz
x,y,z
-x,y,1/2-z
-x,-y,-z
x,-y,1/2+z
1/2+x,1/2+y,z
1/2-x,1/2+y,1/2-z
1/2-x,1/2-y,-z
1/2+x,1/2-y,1/2+z
loop_
_atom_site_type_symbol
_atom_site_label
_atom_site_fract_x
_atom_site_fract_y
_atom_site_fract_z
Si Si1 0.549890 0.525383 0.579356
Si Si2 0.312599 0.403616 0.844012
Si Si3 0.005979 0.257550 0.993806
Si Si4 0.215405 0.641300 0.060616
Si Si5 0.180765 0.479071 0.721643
Si Si6 0.140387 0.726596 0.639212
O O1 0.500000 0.500000 0.500000
O O2 0.673157 0.459939 0.582514
O O3 0.668771 0.598445 0.540978
O O4 0.358761 0.527392 0.674372
O O5 0.500000 0.412728 0.750000
O O6 0.180177 0.435231 0.810586
O O7 0.317338 0.316552 0.867120
O O8 0.157431 0.201866 0.916594
O O9 0.945563 0.319326 0.942458
O O10 0.064861 0.290486 0.067761
O O11 0.836966 0.208143 0.060616
O O12 0.189404 0.584061 0.145215
O O13 0.000000 0.520853 0.750000
O O14 0.000000 0.709161 0.750000
#
# Coordination Sequence:
#
# PCOD9263597 Si02
#       6
#     8   8   8   8   8   8
#     4   9  18  34  54  77 108 140 173 230 293 333
#     4   9  17  32  57  79 102 140 186 235 283 335
#     4  10  21  35  57  83 112 154 192 222 279 347
#     4  10  20  37  55  79 114 148 184 229 279 341
#     4  10  19  34  58  85 106 141 197 245 285 337
#     4  10  19  36  56  81 111 144 191 240 279 333
#
# _framework density 22.085889000000002
#
# number of rings (size 3 to 8) (size 9 to 14) (size 15 to 20)
#    0.000    2.333    0.000    5.000    0.000    0.000 
#    0.000   19.167    0.000    0.000    0.000    0.000 
#    0.000    0.000    0.000    0.000    0.000    0.000 
#
# Total GULP energy -133702.361848 kJ/mol
# GULP energy per Si atom -5570.931744 kJ/mol
# Density = 2.203562 g / cm^3
# Si number density = 22.085889 Si / 1000 Ang^3
#
#
#
# Elastic Constant Matrix: (Units=GPa)
#
#
# Indices 1 2 3 4 5 6 
#
# 1 132.5020 11.2617 34.2216 0.0000 7.9631 0.0000
# 2 11.2617 32.8604 -2.5313 0.0000 7.9568 0.0000
# 3 34.2216 -2.5313 83.6650 0.0000 5.1036 0.0000
# 4 0.0000 0.0000 0.0000 31.3106 0.0000 -2.9326
# 5 7.9631 7.9568 5.1036 0.0000 30.6511 0.0000
# 6 0.0000 0.0000 0.0000 -2.9326 0.0000 17.4659
#
#
#
# Elastic Compliance Matrix: (Units=1/GPa)
#
#
# Indices 1 2 3 4 5 6 
#
# 1 0.008802 -0.003084 -0.003640 0.000000 -0.000880 0.000000
# 2 -0.003084 0.033744 0.002796 0.000000 -0.008424 0.000000
# 3 -0.003640 0.002796 0.013651 0.000000 -0.002053 0.000000
# 4 0.000000 0.000000 0.000000 0.032448 0.000000 0.005448
# 5 -0.000880 -0.008424 -0.002053 0.000000 0.035383 0.000000
# 6 0.000000 0.000000 0.000000 0.005448 0.000000 0.058169
#
#
# Mechanical properties :
#
#
# Convention : Reuss Voigt Hill
#
# Bulk Modulus (GPa) = 20.68600 37.21458 28.95029
# Shear Modulus (GPa) = 24.25222 29.62388 26.93805
#
# Velocity S-wave (km/s) = 3.31733 3.66635 3.49620
# Velocity P-wave (km/s) = 4.90504 5.89995 5.42535
#
# Compressibility (1/GPa) = 0.04834187
#
# Stress axis : x y z
#
# Youngs Moduli (GPa) = 113.60839 29.63500 73.25393
#
# Poissons Ratio (x) = 0.09139 0.26664
# Poissons Ratio (y) = 0.35036 -0.20483
# Poissons Ratio (z) = 0.41353 -0.08287
#
# Static dielectric constant tensor:
#      x y z
#    x 1.888680 0.000000 -0.070900 
#    y 0.000000 1.778150 0.000000 
#    z -0.070900 0.000000 1.878330 
# 
# From -- ./inp_files/135891.got.cif
#   From: 2010.05.17/outbox.cif.g08.bks.cpg/sg15_68_cif.got.tgz:135891.got - 2010.06.03 18:47:42.
