data_PCOD9263199
_publ_section_title
;
Structure prediction by ZEFSAII (Michael W. Deem and Ramdas Pophale) SiO2 
 PCOD9263199
Probable space group: C 2/C
;
_chemical_formula_sum "Si O2"
_cell_formula_units_Z 56
_cell_length_a 17.466207
_cell_length_b 19.212024
_cell_length_c 14.941400
_cell_angle_alpha 90.000000
_cell_angle_beta 137.363640
_cell_angle_gamma 90.000000
_cell_volume 3396.030941
_symmetry_space_group_name_H-M "C 2/C"
_symmetry_group_IT_number 15
_symmetry_cell_setting 'monoclinic'
loop_
_space_group_symop_operation_xyz
x,y,z
-x,y,1/2-z
-x,-y,-z
x,-y,1/2+z
1/2+x,1/2+y,z
1/2-x,1/2+y,1/2-z
1/2-x,1/2-y,-z
1/2+x,1/2-y,1/2+z
loop_
_atom_site_type_symbol
_atom_site_label
_atom_site_fract_x
_atom_site_fract_y
_atom_site_fract_z
Si Si1 0.692171 0.986640 0.098318
Si Si2 0.464915 0.924013 0.819789
Si Si3 0.382837 0.857678 0.914983
Si Si4 0.304046 0.701054 0.123768
Si Si5 0.065760 0.672457 0.716746
Si Si6 0.131112 0.954493 0.884323
Si Si7 0.221957 0.546541 0.823043
O O1 0.740974 0.957805 0.233345
O O2 0.648653 0.063973 0.083463
O O3 0.787503 0.996481 0.105415
O O4 0.580760 0.946314 0.969491
O O5 0.500000 0.904280 0.750000
O O6 0.406742 0.864323 0.830273
O O7 0.377929 0.989922 0.741829
O O8 0.284094 0.810534 0.871054
O O9 0.493045 0.838907 0.066146
O O10 0.406226 0.746843 0.248293
O O11 0.339963 0.625718 0.117913
O O12 0.250000 0.750000 0.000000
O O13 0.173438 0.622618 0.803728
O O14 0.000000 0.649928 0.750000
O O15 0.000000 0.966880 0.750000
O O16 0.171239 0.965820 0.021053
#
# Coordination Sequence:
#
# PCOD9263199 Si02
#       7
#     8   8   8   8   8   8   8
#     4  10  19  34  53  82 105 136 179 223 274 318
#     4  11  18  32  59  84 101 131 179 236 280 305
#     4  10  20  32  48  82 111 130 178 227 264 318
#     4  11  21  31  49  75 111 149 174 209 265 323
#     4  12  18  28  52  76 108 141 172 212 267 319
#     4  11  23  35  47  75 116 146 177 212 256 331
#     4  11  19  31  55  79 107 139 175 224 272 312
#
# _framework density 16.489837999999999
#
# number of rings (size 3 to 8) (size 9 to 14) (size 15 to 20)
#    0.000    1.143    7.143    2.571    0.000    0.571 
#    0.000    0.000    0.000    0.857    0.000    0.000 
#    0.000    0.000    0.000    0.000    0.000    0.000 
#
# Total GULP energy -156122.829825 kJ/mol
# GULP energy per Si atom -5575.815351 kJ/mol
# Density = 1.645231 g / cm^3
# Si number density = 16.489838 Si / 1000 Ang^3
#
#
#
# Elastic Constant Matrix: (Units=GPa)
#
#
# Indices 1 2 3 4 5 6 
#
# 1 71.2588 18.9835 29.9162 0.0000 -15.3883 0.0000
# 2 18.9835 39.5525 13.2740 0.0000 -6.0763 0.0000
# 3 29.9162 13.2740 109.7684 0.0000 -5.4596 0.0000
# 4 0.0000 0.0000 0.0000 16.1034 0.0000 -6.7672
# 5 -15.3883 -6.0763 -5.4596 0.0000 31.6374 0.0000
# 6 0.0000 0.0000 0.0000 -6.7672 0.0000 16.2722
#
#
#
# Elastic Compliance Matrix: (Units=1/GPa)
#
#
# Indices 1 2 3 4 5 6 
#
# 1 0.019083 -0.006685 -0.004029 0.000000 0.007303 0.000000
# 2 -0.006685 0.029360 -0.001624 0.000000 0.002107 0.000000
# 3 -0.004029 -0.001624 0.010381 0.000000 -0.000480 0.000000
# 4 0.000000 0.000000 0.000000 0.075250 0.000000 0.031294
# 5 0.007303 0.002107 -0.000480 0.000000 0.035482 0.000000
# 6 0.000000 0.000000 0.000000 0.031294 0.000000 0.074469
#
#
# Mechanical properties :
#
#
# Convention : Reuss Voigt Hill
#
# Bulk Modulus (GPa) = 29.28442 38.32523 33.80482
# Shear Modulus (GPa) = 17.85190 23.36300 20.60745
#
# Velocity S-wave (km/s) = 3.29386 3.76814 3.53895
# Velocity P-wave (km/s) = 5.68011 6.49800 6.10277
#
# Compressibility (1/GPa) = 0.03414785
#
# Stress axis : x y z
#
# Youngs Moduli (GPa) = 52.40335 34.05997 96.33283
#
# Poissons Ratio (x) = 0.22769 0.38815
# Poissons Ratio (y) = 0.35031 0.15642
# Poissons Ratio (z) = 0.21114 0.05530
#
# Static dielectric constant tensor:
#      x y z
#    x 1.598290 0.000000 -0.011030 
#    y 0.000000 1.544220 0.000000 
#    z -0.011030 0.000000 1.594260 
# 
# From -- ./inp_files/106340.got.cif
#   From: 2010.05.17/outbox.cif.g08.bks.cpg/sg15_54_cif.got.tgz:106340.got - 2010.06.03 18:47:42.
