data_PCOD9263660
_publ_section_title
;
Structure prediction by ZEFSAII (Michael W. Deem and Ramdas Pophale) SiO2 
 PCOD9263660
Probable space group: C 2/C
;
_chemical_formula_sum "Si O2"
_cell_formula_units_Z 44
_cell_length_a 8.197041
_cell_length_b 19.697357
_cell_length_c 15.444387
_cell_angle_alpha 90.000000
_cell_angle_beta 114.467034
_cell_angle_gamma 90.000000
_cell_volume 2269.720796
_symmetry_space_group_name_H-M "C 2/C"
_symmetry_group_IT_number 15
_symmetry_cell_setting 'monoclinic'
loop_
_space_group_symop_operation_xyz
x,y,z
-x,y,1/2-z
-x,-y,-z
x,-y,1/2+z
1/2+x,1/2+y,z
1/2-x,1/2+y,1/2-z
1/2-x,1/2-y,-z
1/2+x,1/2-y,1/2+z
loop_
_atom_site_type_symbol
_atom_site_label
_atom_site_fract_x
_atom_site_fract_y
_atom_site_fract_z
Si Si1 0.571279 0.078337 0.597965
Si Si2 0.873571 0.684787 0.046651
Si Si3 0.500000 0.157151 0.750000
Si Si4 0.700135 0.481470 0.948828
Si Si5 0.317449 0.724840 0.921171
Si Si6 0.923182 0.105698 0.457617
O O1 0.612327 0.135261 0.533784
O O2 0.585875 0.110787 0.694648
O O3 0.368196 0.052574 0.536323
O O4 0.706805 0.015830 0.613278
O O5 0.766935 0.643375 0.097064
O O6 0.069176 0.716384 0.101269
O O7 0.750000 0.750000 0.000000
O O8 0.650022 0.201830 0.828738
O O9 0.540507 0.427122 0.906743
O O10 0.622994 0.544066 0.987771
O O11 0.250000 0.750000 0.000000
O O12 0.446966 0.660386 0.967591
#
# Coordination Sequence:
#
# PCOD9263660 Si02
#       6
#     8   8   4   8   8   8
#     4  10  19  34  58  92 115 157 203 251 302 363
#     4   9  18  33  56  88 116 160 205 241 309 365
#     4  12  22  34  60  96 122 154 218 254 294 372
#     4   9  17  33  58  88 112 153 200 248 304 364
#     4  11  20  36  59  88 125 161 203 253 307 361
#     4   9  17  32  60  84 113 162 203 241 310 372
#
# _framework density 19.385646000000001
#
# number of rings (size 3 to 8) (size 9 to 14) (size 15 to 20)
#    0.000    2.182    3.636    0.000    0.000    0.000 
#    0.000    8.182    0.000    8.727    0.000    0.000 
#    0.000    0.000    0.000    0.000    0.000    0.000 
#
# Total GULP energy -122526.505963 kJ/mol
# GULP energy per Si atom -5569.386635 kJ/mol
# Density = 1.934152 g / cm^3
# Si number density = 19.385646 Si / 1000 Ang^3
#
#
#
# Elastic Constant Matrix: (Units=GPa)
#
#
# Indices 1 2 3 4 5 6 
#
# 1 149.1891 65.6107 45.2997 0.0000 2.5114 0.0000
# 2 65.6107 97.6782 33.0828 0.0000 1.9243 0.0000
# 3 45.2997 33.0828 68.3939 0.0000 -0.4348 0.0000
# 4 0.0000 0.0000 0.0000 21.2579 0.0000 1.2058
# 5 2.5114 1.9243 -0.4348 0.0000 11.1493 0.0000
# 6 0.0000 0.0000 0.0000 1.2058 0.0000 80.0561
#
#
#
# Elastic Compliance Matrix: (Units=1/GPa)
#
#
# Indices 1 2 3 4 5 6 
#
# 1 0.010465 -0.005558 -0.004253 0.000000 -0.001564 0.000000
# 2 -0.005558 0.015257 -0.003708 0.000000 -0.001526 0.000000
# 3 -0.004253 -0.003708 0.019247 0.000000 0.002349 0.000000
# 4 0.000000 0.000000 0.000000 0.047082 0.000000 -0.000709
# 5 -0.001564 -0.001526 0.002349 0.000000 0.090399 0.000000
# 6 0.000000 0.000000 0.000000 -0.000709 0.000000 0.012502
#
#
# Mechanical properties :
#
#
# Convention : Reuss Voigt Hill
#
# Bulk Modulus (GPa) = 55.77171 67.02752 61.39962
# Shear Modulus (GPa) = 21.93307 33.91052 27.92179
#
# Velocity S-wave (km/s) = 3.36729 4.18695 3.79929
# Velocity P-wave (km/s) = 6.62950 7.61741 7.14056
#
# Compressibility (1/GPa) = 0.01793024
#
# Stress axis : x y z
#
# Youngs Moduli (GPa) = 95.55776 65.54292 51.95719
#
# Poissons Ratio (x) = 0.36430 0.22096
# Poissons Ratio (y) = 0.53112 0.19268
# Poissons Ratio (z) = 0.40638 0.24306
#
# Static dielectric constant tensor:
#      x y z
#    x 1.744640 0.000000 0.001910 
#    y 0.000000 1.724090 0.000000 
#    z 0.001910 0.000000 1.610300 
# 
# From -- ./inp_files/134962.got.cif
#   From: 2010.05.17/outbox.cif.g08.bks.cpg/sg15_68_cif.got.tgz:134962.got - 2010.06.03 18:47:42.
