data_PCOD9263804
_publ_section_title
;
Structure prediction by ZEFSAII (Michael W. Deem and Ramdas Pophale) SiO2 
 PCOD9263804
Probable space group: C 2/C
;
_chemical_formula_sum "Si O2"
_cell_formula_units_Z 64
_cell_length_a 21.482538
_cell_length_b 8.307807
_cell_length_c 19.607922
_cell_angle_alpha 90.000000
_cell_angle_beta 137.542479
_cell_angle_gamma 90.000000
_cell_volume 2362.301128
_symmetry_space_group_name_H-M "C 2/C"
_symmetry_group_IT_number 15
_symmetry_cell_setting 'monoclinic'
loop_
_space_group_symop_operation_xyz
x,y,z
-x,y,1/2-z
-x,-y,-z
x,-y,1/2+z
1/2+x,1/2+y,z
1/2-x,1/2+y,1/2-z
1/2-x,1/2-y,-z
1/2+x,1/2-y,1/2+z
loop_
_atom_site_type_symbol
_atom_site_label
_atom_site_fract_x
_atom_site_fract_y
_atom_site_fract_z
Si Si1 0.185961 0.532081 0.667186
Si Si2 0.756605 0.582857 0.634976
Si Si3 0.398570 0.577641 0.793725
Si Si4 0.530934 0.187636 0.876884
Si Si5 0.423824 0.302812 0.451071
Si Si6 0.355397 0.133980 0.006935
Si Si7 0.663554 0.771291 0.868377
Si Si8 0.120209 0.803084 0.824642
O O1 0.189033 0.579732 0.748628
O O2 0.295422 0.531372 0.737094
O O3 0.134367 0.359588 0.617750
O O4 0.142131 0.650252 0.573628
O O5 0.650905 0.584102 0.572157
O O6 0.784007 0.436747 0.608020
O O7 0.778713 0.748971 0.613599
O O8 0.456517 0.614117 0.908085
O O9 0.396358 0.737807 0.746484
O O10 0.418262 0.445801 0.752472
O O11 0.595104 0.305107 0.882682
O O12 0.441751 0.158470 0.758251
O O13 0.507896 0.251530 0.933656
O O14 0.590778 0.029594 0.936362
O O15 0.244856 0.136902 0.932048
O O16 0.384165 0.238338 0.096627
#
# Coordination Sequence:
#
# PCOD9263804 Si02
#       8
#     8   8   8   8   8   8   8   8
#     4   9  18  33  56  91 119 148 196 259 306 352
#     4  11  20  35  62  88 115 159 203 249 311 363
#     4  10  20  35  59  88 123 155 197 255 308 360
#     4  10  23  41  60  85 124 165 208 245 298 371
#     4  10  20  35  60  89 119 153 202 263 303 357
#     4   9  19  35  58  87 120 151 198 254 297 362
#     4  10  19  34  60  92 118 149 196 260 314 343
#     4  11  23  40  62  85 121 171 206 242 304 376
#
# _framework density 27.092226
#
# number of rings (size 3 to 8) (size 9 to 14) (size 15 to 20)
#    0.000    2.000    3.750    0.000    0.000    4.000 
#    0.000    2.500    8.250    0.000    0.000    0.000 
#    0.000    0.000    0.000    0.000    0.000    0.000 
#
# Total GULP energy -178666.485384 kJ/mol
# GULP energy per Si atom -5583.327668 kJ/mol
# Density = 2.703056 g / cm^3
# Si number density = 27.092226 Si / 1000 Ang^3
#
#
#
# Elastic Constant Matrix: (Units=GPa)
#
#
# Indices 1 2 3 4 5 6 
#
# 1 90.4838 16.3425 36.5580 0.0000 -37.5537 0.0000
# 2 16.3425 58.9027 5.6547 0.0000 -3.1744 0.0000
# 3 36.5580 5.6547 129.2321 0.0000 -39.1099 0.0000
# 4 0.0000 0.0000 0.0000 30.5676 0.0000 -9.1924
# 5 -37.5537 -3.1744 -39.1099 0.0000 51.1112 0.0000
# 6 0.0000 0.0000 0.0000 -9.1924 0.0000 32.5814
#
#
#
# Elastic Compliance Matrix: (Units=1/GPa)
#
#
# Indices 1 2 3 4 5 6 
#
# 1 0.016936 -0.003976 -0.001205 0.000000 0.011275 0.000000
# 2 -0.003976 0.017998 -0.000271 0.000000 -0.002011 0.000000
# 3 -0.001205 -0.000271 0.010174 0.000000 0.006883 0.000000
# 4 0.000000 0.000000 0.000000 0.035747 0.000000 0.010086
# 5 0.011275 -0.002011 0.006883 0.000000 0.032991 0.000000
# 6 0.000000 0.000000 0.000000 0.010086 0.000000 0.033538
#
#
# Mechanical properties :
#
#
# Convention : Reuss Voigt Hill
#
# Bulk Modulus (GPa) = 29.23670 43.96989 36.60329
# Shear Modulus (GPa) = 29.46577 37.52296 33.49436
#
# Velocity S-wave (km/s) = 3.30147 3.72561 3.51993
# Velocity P-wave (km/s) = 5.03467 5.89676 5.48269
#
# Compressibility (1/GPa) = 0.03420359
#
# Stress axis : x y z
#
# Youngs Moduli (GPa) = 59.04618 55.56224 98.29299
#
# Poissons Ratio (x) = 0.22089 0.11843
# Poissons Ratio (y) = 0.23474 0.02668
# Poissons Ratio (z) = 0.07114 0.01508
#
# Static dielectric constant tensor:
#      x y z
#    x 2.099750 0.000000 0.052910 
#    y 0.000000 2.232300 0.000000 
#    z 0.052910 0.000000 2.169590 
# 
# From -- ./inp_files/255074.got.cif
#   From: 2010.05.17/outbox.cif.g08.bks.cpg/sg15_128_cif.got.tgz:255074.got - 2010.06.03 18:47:42.
