data_PCOD9263221
_publ_section_title
;
Structure prediction by ZEFSAII (Michael W. Deem and Ramdas Pophale) SiO2 
 PCOD9263221
Probable space group: C 2/C
;
_chemical_formula_sum "Si O2"
_cell_formula_units_Z 64
_cell_length_a 5.761778
_cell_length_b 22.910981
_cell_length_c 26.185467
_cell_angle_alpha 90.000000
_cell_angle_beta 62.413848
_cell_angle_gamma 90.000000
_cell_volume 3063.718707
_symmetry_space_group_name_H-M "C 2/C"
_symmetry_group_IT_number 15
_symmetry_cell_setting 'monoclinic'
loop_
_space_group_symop_operation_xyz
x,y,z
-x,y,1/2-z
-x,-y,-z
x,-y,1/2+z
1/2+x,1/2+y,z
1/2-x,1/2+y,1/2-z
1/2-x,1/2-y,-z
1/2+x,1/2-y,1/2+z
loop_
_atom_site_type_symbol
_atom_site_label
_atom_site_fract_x
_atom_site_fract_y
_atom_site_fract_z
Si Si1 0.652124 0.905457 0.680922
Si Si2 0.850349 0.140258 0.316652
Si Si3 0.583128 0.766980 0.157739
Si Si4 0.246027 0.131875 0.690959
Si Si5 0.376677 0.704592 0.446315
Si Si6 0.200241 0.319051 0.518107
Si Si7 0.533355 0.360512 0.106377
Si Si8 0.129672 0.456604 0.180797
O O1 0.500000 0.892839 0.750000
O O2 0.447466 0.882384 0.658971
O O3 0.946297 0.880511 0.659562
O O4 0.671378 0.975088 0.672453
O O5 0.843348 0.210560 0.317365
O O6 0.000000 0.119494 0.250000
O O7 0.385847 0.812844 0.203283
O O8 0.491697 0.739540 0.113389
O O9 0.824638 0.808913 0.119873
O O10 0.413568 0.073497 0.667316
O O11 0.000000 0.116934 0.750000
O O12 0.192968 0.154643 0.640235
O O13 0.250000 0.750000 0.500000
O O14 0.602102 0.670512 0.454488
O O15 0.115915 0.674819 0.447796
O O16 0.250000 0.250000 0.500000
O O17 0.296622 0.359590 0.461735
O O18 0.383867 0.419183 0.139628
O O19 0.000000 0.444666 0.250000
#
# Coordination Sequence:
#
# PCOD9263221 Si02
#       8
#     8   8   8   8   8   8   8   8
#     4   9  21  40  60  77 108 150 206 246 270 319
#     4  10  23  38  57  84 112 155 195 235 279 334
#     4  11  24  34  56  84 122 152 192 230 291 355
#     4  11  23  33  53  82 125 157 181 226 292 363
#     4  10  19  36  54  78 110 150 191 235 273 337
#     4  10  19  34  54  77 115 142 192 230 279 337
#     4  11  22  34  54  86 119 152 185 233 295 353
#     4  10  21  37  55  83 112 153 195 241 285 335
#
# _framework density 20.889648000000001
#
# number of rings (size 3 to 8) (size 9 to 14) (size 15 to 20)
#    0.000    1.750    3.750    1.500    7.000    1.000 
#    0.000    0.000    0.000    0.000    0.000    5.250 
#    0.000    0.000    0.000    0.000    0.000    0.000 
#
# Total GULP energy -178276.569690 kJ/mol
# GULP energy per Si atom -5571.142803 kJ/mol
# Density = 2.084210 g / cm^3
# Si number density = 20.889648 Si / 1000 Ang^3
#
#
#
# Elastic Constant Matrix: (Units=GPa)
#
#
# Indices 1 2 3 4 5 6 
#
# 1 156.3869 45.9586 25.8960 0.0000 -2.3699 0.0000
# 2 45.9586 86.8699 5.7858 0.0000 -12.1213 0.0000
# 3 25.8960 5.7858 34.8335 0.0000 -1.1583 0.0000
# 4 0.0000 0.0000 0.0000 16.2901 0.0000 -0.1752
# 5 -2.3699 -12.1213 -1.1583 0.0000 36.8361 0.0000
# 6 0.0000 0.0000 0.0000 -0.1752 0.0000 36.5219
#
#
#
# Elastic Compliance Matrix: (Units=1/GPa)
#
#
# Indices 1 2 3 4 5 6 
#
# 1 0.008590 -0.004310 -0.005705 0.000000 -0.001045 0.000000
# 2 -0.004310 0.014352 0.000969 0.000000 0.004476 0.000000
# 3 -0.005705 0.000969 0.032821 0.000000 0.000984 0.000000
# 4 0.000000 0.000000 0.000000 0.061390 0.000000 0.000294
# 5 -0.001045 0.004476 0.000984 0.000000 0.028584 0.000000
# 6 0.000000 0.000000 0.000000 0.000294 0.000000 0.027382
#
#
# Mechanical properties :
#
#
# Convention : Reuss Voigt Hill
#
# Bulk Modulus (GPa) = 26.54555 48.15237 37.34896
# Shear Modulus (GPa) = 24.53781 31.29293 27.91537
#
# Velocity S-wave (km/s) = 3.43102 3.87461 3.65954
# Velocity P-wave (km/s) = 5.33207 6.56641 5.98117
#
# Compressibility (1/GPa) = 0.03767110
#
# Stress axis : x y z
#
# Youngs Moduli (GPa) = 116.41536 69.67751 30.46857
#
# Poissons Ratio (x) = 0.30034 0.17382
# Poissons Ratio (y) = 0.50180 -0.02954
# Poissons Ratio (z) = 0.66412 -0.06755
#
# Static dielectric constant tensor:
#      x y z
#    x 1.863890 0.000000 0.014710 
#    y 0.000000 1.703690 0.000000 
#    z 0.014710 0.000000 1.792640 
# 
# From -- ./inp_files/305992.got.cif
#   From: 2010.05.17/outbox.cif.g08.bks.cpg/sg15_153_cif.got.tgz:305992.got - 2010.06.03 18:47:42.
