data_PCOD9263580
_publ_section_title
;
Structure prediction by ZEFSAII (Michael W. Deem and Ramdas Pophale) SiO2 
 PCOD9263580
Probable space group: C 2/C
;
_chemical_formula_sum "Si O2"
_cell_formula_units_Z 48
_cell_length_a 9.469994
_cell_length_b 15.614030
_cell_length_c 13.769424
_cell_angle_alpha 90.000000
_cell_angle_beta 122.866509
_cell_angle_gamma 90.000000
_cell_volume 1710.122866
_symmetry_space_group_name_H-M "C 2/C"
_symmetry_group_IT_number 15
_symmetry_cell_setting 'monoclinic'
loop_
_space_group_symop_operation_xyz
x,y,z
-x,y,1/2-z
-x,-y,-z
x,-y,1/2+z
1/2+x,1/2+y,z
1/2-x,1/2+y,1/2-z
1/2-x,1/2-y,-z
1/2+x,1/2-y,1/2+z
loop_
_atom_site_type_symbol
_atom_site_label
_atom_site_fract_x
_atom_site_fract_y
_atom_site_fract_z
Si Si1 0.562696 0.239440 0.385832
Si Si2 0.821950 0.105661 0.807122
Si Si3 0.791423 0.385988 0.015832
Si Si4 0.900896 0.915922 0.855768
Si Si5 0.390981 0.052621 0.111426
Si Si6 0.938300 0.270170 0.337914
O O1 0.500000 0.239195 0.250000
O O2 0.750000 0.250000 0.500000
O O3 0.468230 0.325929 0.382612
O O4 0.530744 0.139817 0.400425
O O5 0.727656 0.105179 0.874624
O O6 0.692997 0.154007 0.689491
O O7 0.868670 0.008981 0.795368
O O8 0.884774 0.475267 0.033887
O O9 0.899036 0.299994 0.038904
O O10 0.598754 0.395162 0.912003
O O11 0.801426 0.932533 0.920484
O O12 0.840585 0.819378 0.811671
O O13 0.500000 0.034221 0.250000
O O14 0.000000 0.268107 0.250000
#
# Coordination Sequence:
#
# PCOD9263580 Si02
#       6
#     8   8   8   8   8   8
#     4  11  22  37  59  91 123 157 201 254 307 362
#     4  10  21  36  57  83 115 151 195 246 300 355
#     4  10  19  35  57  81 109 148 198 249 295 354
#     4  11  20  35  55  80 111 151 196 243 299 364
#     4  10  19  34  58  83 110 149 199 250 295 352
#     4  10  21  35  52  78 111 148 189 242 298 357
#
# _framework density 28.068159000000001
#
# number of rings (size 3 to 8) (size 9 to 14) (size 15 to 20)
#    0.000    1.667    0.000    9.000    0.000    0.667 
#    0.000    0.000    0.000    0.000    0.000   36.167 
#    0.000    0.000    0.000    0.000    0.000    0.000 
#
# Total GULP energy -133780.018005 kJ/mol
# GULP energy per Si atom -5574.167417 kJ/mol
# Density = 2.800427 g / cm^3
# Si number density = 28.068159 Si / 1000 Ang^3
#
#
#
# Elastic Constant Matrix: (Units=GPa)
#
#
# Indices 1 2 3 4 5 6 
#
# 1 86.2333 53.3909 30.9023 0.0000 8.6283 0.0000
# 2 53.3909 269.8818 45.8515 0.0000 35.8070 0.0000
# 3 30.9023 45.8515 104.4224 0.0000 32.2772 0.0000
# 4 0.0000 0.0000 0.0000 50.3506 0.0000 24.0140
# 5 8.6283 35.8070 32.2772 0.0000 47.0815 0.0000
# 6 0.0000 0.0000 0.0000 24.0140 0.0000 43.7939
#
#
#
# Elastic Compliance Matrix: (Units=1/GPa)
#
#
# Indices 1 2 3 4 5 6 
#
# 1 0.014246 -0.002425 -0.003698 0.000000 0.001768 0.000000
# 2 -0.002425 0.004630 -0.000462 0.000000 -0.002760 0.000000
# 3 -0.003698 -0.000462 0.013394 0.000000 -0.008153 0.000000
# 4 0.000000 0.000000 0.000000 0.026894 0.000000 -0.014747
# 5 0.001768 -0.002760 -0.008153 0.000000 0.028604 0.000000
# 6 0.000000 0.000000 0.000000 -0.014747 0.000000 0.030921
#
#
# Mechanical properties :
#
#
# Convention : Reuss Voigt Hill
#
# Bulk Modulus (GPa) = 52.35609 80.09188 66.22399
# Shear Modulus (GPa) = 36.17302 50.27140 43.22221
#
# Velocity S-wave (km/s) = 3.59382 4.23667 3.92842
# Velocity P-wave (km/s) = 5.99286 7.24770 6.64995
#
# Compressibility (1/GPa) = 0.01909997
#
# Stress axis : x y z
#
# Youngs Moduli (GPa) = 70.19586 215.99712 74.66063
#
# Poissons Ratio (x) = 0.52372 0.27608
# Poissons Ratio (y) = 0.17020 0.03452
# Poissons Ratio (z) = 0.25957 0.09985
#
# Static dielectric constant tensor:
#      x y z
#    x 2.265330 0.000000 0.038810 
#    y 0.000000 2.327560 0.000000 
#    z 0.038810 0.000000 2.311140 
# 
# From -- ./inp_files/144372.got.cif
#   From: 2010.05.17/outbox.cif.g08.bks.cpg/sg15_73_cif.got.tgz:144372.got - 2010.06.03 18:47:42.
