data_PCOD9263724
_publ_section_title
;
Structure prediction by ZEFSAII (Michael W. Deem and Ramdas Pophale) SiO2 
 PCOD9263724
Probable space group: C 2/C
;
_chemical_formula_sum "Si O2"
_cell_formula_units_Z 52
_cell_length_a 23.326853
_cell_length_b 7.901942
_cell_length_c 10.145475
_cell_angle_alpha 90.000000
_cell_angle_beta 87.344626
_cell_angle_gamma 90.000000
_cell_volume 1868.081442
_symmetry_space_group_name_H-M "C 2/C"
_symmetry_group_IT_number 15
_symmetry_cell_setting 'monoclinic'
loop_
_space_group_symop_operation_xyz
x,y,z
-x,y,1/2-z
-x,-y,-z
x,-y,1/2+z
1/2+x,1/2+y,z
1/2-x,1/2+y,1/2-z
1/2-x,1/2-y,-z
1/2+x,1/2-y,1/2+z
loop_
_atom_site_type_symbol
_atom_site_label
_atom_site_fract_x
_atom_site_fract_y
_atom_site_fract_z
Si Si1 0.115211 0.075898 0.623769
Si Si2 0.253502 0.035452 0.316022
Si Si3 0.948674 0.336128 0.509770
Si Si4 0.667271 0.762920 0.847169
Si Si5 0.500000 0.356972 0.250000
Si Si6 0.437348 0.787820 0.097023
Si Si7 0.331918 0.237640 0.786107
O O1 0.141871 0.234629 0.700767
O O2 0.092474 0.137727 0.484656
O O3 0.056113 0.038299 0.707724
O O4 0.157345 0.918880 0.644721
O O5 0.203020 0.907112 0.359554
O O6 0.304650 0.917033 0.370189
O O7 0.288519 0.083121 0.176523
O O8 0.216510 0.212081 0.321929
O O9 0.884971 0.270126 0.546383
O O10 0.982020 0.264443 0.633772
O O11 0.938810 0.536058 0.514638
O O12 0.993618 0.271172 0.395274
O O13 0.392918 0.816905 0.220043
#
# Coordination Sequence:
#
# PCOD9263724 Si02
#       7
#     8   8   8   8   4   8   8
#     4   9  19  34  57  80 117 149 187 232 288 338
#     4   9  18  32  57  77 111 159 193 226 287 334
#     4   9  17  32  59  87 113 143 192 240 280 343
#     4   9  16  33  56  81 108 155 189 233 282 335
#     4   8  16  34  56  80 114 152 176 226 296 344
#     4  10  19  34  59  89 112 147 194 233 288 343
#     4  10  19  36  58  82 113 156 191 237 286 338
#
# _framework density 27.836048000000002
#
# number of rings (size 3 to 8) (size 9 to 14) (size 15 to 20)
#    0.000    2.769    1.538    0.000    0.000    0.000 
#    0.000   20.769   13.538    0.000    0.000    0.000 
#    0.000    0.000    0.000    0.000    0.000    0.000 
#
# Total GULP energy -144742.483634 kJ/mol
# GULP energy per Si atom -5567.018601 kJ/mol
# Density = 2.777269 g / cm^3
# Si number density = 27.836048 Si / 1000 Ang^3
#
#
#
# Elastic Constant Matrix: (Units=GPa)
#
#
# Indices 1 2 3 4 5 6 
#
# 1 221.7707 58.7862 63.7630 0.0000 -46.0036 0.0000
# 2 58.7862 146.5412 22.6399 0.0000 0.4444 0.0000
# 3 63.7630 22.6399 66.5117 0.0000 -15.5869 0.0000
# 4 0.0000 0.0000 0.0000 16.6156 0.0000 -0.6775
# 5 -46.0036 0.4444 -15.5869 0.0000 44.3619 0.0000
# 6 0.0000 0.0000 0.0000 -0.6775 0.0000 61.6249
#
#
#
# Elastic Compliance Matrix: (Units=1/GPa)
#
#
# Indices 1 2 3 4 5 6 
#
# 1 0.008033 -0.002414 -0.005363 0.000000 0.006470 0.000000
# 2 -0.002414 0.007970 -0.001095 0.000000 -0.002967 0.000000
# 3 -0.005363 -0.001095 0.020976 0.000000 0.001819 0.000000
# 4 0.000000 0.000000 0.000000 0.060212 0.000000 0.000662
# 5 0.006470 -0.002967 0.001819 0.000000 0.029920 0.000000
# 6 0.000000 0.000000 0.000000 0.000662 0.000000 0.016234
#
#
# Mechanical properties :
#
#
# Convention : Reuss Voigt Hill
#
# Bulk Modulus (GPa) = 51.98583 80.57798 66.28190
# Shear Modulus (GPa) = 29.85067 43.82944 36.84006
#
# Velocity S-wave (km/s) = 3.27827 3.97237 3.64189
# Velocity P-wave (km/s) = 5.74853 7.07459 6.44575
#
# Compressibility (1/GPa) = 0.01923601
#
# Stress axis : x y z
#
# Youngs Moduli (GPa) = 124.48398 125.46496 47.67462
#
# Poissons Ratio (x) = 0.30282 0.25570
# Poissons Ratio (y) = 0.30045 0.05218
# Poissons Ratio (z) = 0.66765 0.13733
#
# Static dielectric constant tensor:
#      x y z
#    x 2.268600 0.000000 0.142460 
#    y 0.000000 2.257060 0.000000 
#    z 0.142460 0.000000 2.186300 
# 
# From -- ./inp_files/171375.got.cif
#   From: 2010.05.17/outbox.cif.g08.bks.cpg/sg15_86_cif.got.tgz:171375.got - 2010.06.03 18:47:42.
