data_PCOD9263278
_publ_section_title
;
Structure prediction by ZEFSAII (Michael W. Deem and Ramdas Pophale) SiO2 
 PCOD9263278
Probable space group: C 2/C
;
_chemical_formula_sum "Si O2"
_cell_formula_units_Z 56
_cell_length_a 25.421613
_cell_length_b 12.616462
_cell_length_c 14.332375
_cell_angle_alpha 90.000000
_cell_angle_beta 140.295120
_cell_angle_gamma 90.000000
_cell_volume 2936.611043
_symmetry_space_group_name_H-M "C 2/C"
_symmetry_group_IT_number 15
_symmetry_cell_setting 'monoclinic'
loop_
_space_group_symop_operation_xyz
x,y,z
-x,y,1/2-z
-x,-y,-z
x,-y,1/2+z
1/2+x,1/2+y,z
1/2-x,1/2+y,1/2-z
1/2-x,1/2-y,-z
1/2+x,1/2-y,1/2+z
loop_
_atom_site_type_symbol
_atom_site_label
_atom_site_fract_x
_atom_site_fract_y
_atom_site_fract_z
Si Si1 0.818556 0.159148 0.605098
Si Si2 0.005257 0.685041 0.651048
Si Si3 0.778445 0.490849 0.390607
Si Si4 0.421118 0.192107 0.358437
Si Si5 0.042505 0.436560 0.904171
Si Si6 0.807431 0.650100 0.598039
Si Si7 0.241811 0.543655 0.342177
O O1 0.750000 0.250000 0.500000
O O2 0.784902 0.080384 0.638695
O O3 0.898238 0.217952 0.752636
O O4 0.814225 0.097316 0.501528
O O5 0.100679 0.687603 0.753929
O O6 0.000000 0.724971 0.750000
O O7 0.946005 0.736753 0.493496
O O8 0.977350 0.561454 0.612898
O O9 0.859838 0.425390 0.471734
O O10 0.809618 0.579516 0.506254
O O11 0.742584 0.536600 0.246172
O O12 0.498210 0.124913 0.426398
O O13 0.342124 0.113456 0.258850
O O14 0.000000 0.401619 0.750000
O O15 0.750000 0.750000 0.500000
O O16 0.775579 0.570701 0.634915
#
# Coordination Sequence:
#
# PCOD9263278 Si02
#       7
#     8   8   8   8   8   8   8
#     4   9  21  35  52  84 121 146 185 229 284 343
#     4  11  19  32  54  81 115 143 178 232 281 332
#     4  11  20  35  57  82 115 152 184 234 287 333
#     4  11  19  34  57  84 115 147 181 233 291 334
#     4  11  17  30  56  82 113 142 179 229 291 325
#     4  11  22  35  52  86 118 147 187 232 282 340
#     4  10  19  34  55  77 114 152 183 231 282 331
#
# _framework density 19.069600999999999
#
# number of rings (size 3 to 8) (size 9 to 14) (size 15 to 20)
#    0.000    1.429    5.714    3.000    0.000    3.429 
#    0.000    1.429    0.000    3.429    0.000   20.000 
#    0.000    0.000    0.000    0.000    0.000    0.000 
#
# Total GULP energy -156268.073400 kJ/mol
# GULP energy per Si atom -5581.002621 kJ/mol
# Density = 1.902620 g / cm^3
# Si number density = 19.069601 Si / 1000 Ang^3
#
#
#
# Elastic Constant Matrix: (Units=GPa)
#
#
# Indices 1 2 3 4 5 6 
#
# 1 40.7259 4.6052 18.5358 0.0000 -20.5821 0.0000
# 2 4.6052 32.3444 23.2625 0.0000 -0.7328 0.0000
# 3 18.5358 23.2625 104.6580 0.0000 -29.5822 0.0000
# 4 0.0000 0.0000 0.0000 18.3497 0.0000 3.8538
# 5 -20.5821 -0.7328 -29.5822 0.0000 34.7319 0.0000
# 6 0.0000 0.0000 0.0000 3.8538 0.0000 7.3815
#
#
#
# Elastic Compliance Matrix: (Units=1/GPa)
#
#
# Indices 1 2 3 4 5 6 
#
# 1 0.035800 -0.005374 0.001078 0.000000 0.022020 0.000000
# 2 -0.005374 0.039447 -0.011170 0.000000 -0.011866 0.000000
# 3 0.001078 -0.011170 0.015753 0.000000 0.013821 0.000000
# 4 0.000000 0.000000 0.000000 0.061208 0.000000 -0.031956
# 5 0.022020 -0.011866 0.013821 0.000000 0.053362 0.000000
# 6 0.000000 0.000000 0.000000 -0.031956 0.000000 0.152156
#
#
# Mechanical properties :
#
#
# Convention : Reuss Voigt Hill
#
# Bulk Modulus (GPa) = 16.64767 30.05947 23.35357
# Shear Modulus (GPa) = 12.23446 20.84763 16.54104
#
# Velocity S-wave (km/s) = 2.53567 3.31000 2.94837
# Velocity P-wave (km/s) = 4.16194 5.51411 4.88503
#
# Compressibility (1/GPa) = 0.06006847
#
# Stress axis : x y z
#
# Youngs Moduli (GPa) = 27.93316 25.35021 63.47842
#
# Poissons Ratio (x) = 0.13622 -0.06843
# Poissons Ratio (y) = 0.15010 0.70908
# Poissons Ratio (z) = -0.03011 0.28317
#
# Static dielectric constant tensor:
#      x y z
#    x 1.691840 0.000000 -0.033890 
#    y 0.000000 1.659820 0.000000 
#    z -0.033890 0.000000 1.696260 
# 
# From -- ./inp_files/177635.got.cif
#   From: 2010.05.17/outbox.cif.g08.bks.cpg/sg15_89_cif.got.tgz:177635.got - 2010.06.03 18:47:42.
