data_PCOD9263396
_publ_section_title
;
Structure prediction by ZEFSAII (Michael W. Deem and Ramdas Pophale) SiO2 
 PCOD9263396
Probable space group: C 2/C
;
_chemical_formula_sum "Si O2"
_cell_formula_units_Z 32
_cell_length_a 11.855883
_cell_length_b 8.090518
_cell_length_c 15.961756
_cell_angle_alpha 90.000000
_cell_angle_beta 122.542267
_cell_angle_gamma 90.000000
_cell_volume 1290.671806
_symmetry_space_group_name_H-M "C 2/C"
_symmetry_group_IT_number 15
_symmetry_cell_setting 'monoclinic'
loop_
_space_group_symop_operation_xyz
x,y,z
-x,y,1/2-z
-x,-y,-z
x,-y,1/2+z
1/2+x,1/2+y,z
1/2-x,1/2+y,1/2-z
1/2-x,1/2-y,-z
1/2+x,1/2-y,1/2+z
loop_
_atom_site_type_symbol
_atom_site_label
_atom_site_fract_x
_atom_site_fract_y
_atom_site_fract_z
Si Si1 0.989244 0.678041 0.955754
Si Si2 0.620830 0.674207 0.358378
Si Si3 0.039636 0.874756 0.139401
Si Si4 0.244242 0.831052 0.737867
O O1 0.852593 0.702702 0.849079
O O2 0.107590 0.717639 0.936477
O O3 0.000000 0.500000 0.000000
O O4 0.989838 0.810473 0.030670
O O5 0.500000 0.735220 0.250000
O O6 0.575397 0.488386 0.365775
O O7 0.737249 0.675481 0.337163
O O8 0.102966 0.721092 0.216273
O O9 0.167617 0.999842 0.183010
#
# Coordination Sequence:
#
# PCOD9263396 Si02
#       4
#     8   8   8   8
#     4  10  19  34  56  83 116 152 191 238 289 346
#     4   8  18  36  55  78 115 149 186 240 285 335
#     4  10  19  35  59  81 112 153 191 236 292 344
#     4  10  20  37  58  83 116 153 192 241 295 342
#
# _framework density 24.793292000000001
#
# number of rings (size 3 to 8) (size 9 to 14) (size 15 to 20)
#    0.000    3.000    0.000    4.500    0.000    1.000 
#    0.000   21.250    0.000   34.500    0.000    0.000 
#    0.000    0.000    0.000    0.000    0.000    0.000 
#
# Total GULP energy -89271.761495 kJ/mol
# GULP energy per Si atom -5579.485093 kJ/mol
# Density = 2.473686 g / cm^3
# Si number density = 24.793292 Si / 1000 Ang^3
#
#
#
# Elastic Constant Matrix: (Units=GPa)
#
#
# Indices 1 2 3 4 5 6 
#
# 1 97.1831 39.4979 45.6940 0.0000 -18.5569 0.0000
# 2 39.4979 96.3162 54.8169 0.0000 -32.6055 0.0000
# 3 45.6940 54.8169 164.7650 0.0000 -30.5322 0.0000
# 4 0.0000 0.0000 0.0000 60.4571 0.0000 4.0345
# 5 -18.5569 -32.6055 -30.5322 0.0000 37.0725 0.0000
# 6 0.0000 0.0000 0.0000 4.0345 0.0000 16.7202
#
#
#
# Elastic Compliance Matrix: (Units=1/GPa)
#
#
# Indices 1 2 3 4 5 6 
#
# 1 0.013061 -0.003597 -0.002124 0.000000 0.001624 0.000000
# 2 -0.003597 0.017110 -0.002643 0.000000 0.011070 0.000000
# 3 -0.002124 -0.002643 0.008154 0.000000 0.003328 0.000000
# 4 0.000000 0.000000 0.000000 0.016811 0.000000 -0.004056
# 5 0.001624 0.011070 0.003328 0.000000 0.040264 0.000000
# 6 0.000000 0.000000 0.000000 -0.004056 0.000000 0.060787
#
#
# Mechanical properties :
#
#
# Convention : Reuss Voigt Hill
#
# Bulk Modulus (GPa) = 46.30621 70.92018 58.61320
# Shear Modulus (GPa) = 27.75996 37.40033 32.58014
#
# Velocity S-wave (km/s) = 3.34976 3.88814 3.62894
# Velocity P-wave (km/s) = 5.80333 6.98738 6.42270
#
# Compressibility (1/GPa) = 0.02159537
#
# Stress axis : x y z
#
# Youngs Moduli (GPa) = 76.56475 58.44666 122.63215
#
# Poissons Ratio (x) = 0.21024 0.26052
# Poissons Ratio (y) = 0.27541 0.32415
# Poissons Ratio (z) = 0.16265 0.15449
#
# Static dielectric constant tensor:
#      x y z
#    x 2.065200 0.000000 0.031440 
#    y 0.000000 2.084340 0.000000 
#    z 0.031440 0.000000 1.957870 
# 
# From -- ./inp_files/140823.got.cif
#   From: 2010.05.17/outbox.cif.g08.bks.cpg/sg15_71_cif.got.tgz:140823.got - 2010.06.03 18:47:42.
