data_PCOD9263016
_publ_section_title
;
Structure prediction by ZEFSAII (Michael W. Deem and Ramdas Pophale) SiO2 
 PCOD9263016
Probable space group: C 2/C
;
_chemical_formula_sum "Si O2"
_cell_formula_units_Z 52
_cell_length_a 10.596076
_cell_length_b 14.297156
_cell_length_c 14.483637
_cell_angle_alpha 90.000000
_cell_angle_beta 73.278494
_cell_angle_gamma 90.000000
_cell_volume 2101.398631
_symmetry_space_group_name_H-M "C 2/C"
_symmetry_group_IT_number 15
_symmetry_cell_setting 'monoclinic'
loop_
_space_group_symop_operation_xyz
x,y,z
-x,y,1/2-z
-x,-y,-z
x,-y,1/2+z
1/2+x,1/2+y,z
1/2-x,1/2+y,1/2-z
1/2-x,1/2-y,-z
1/2+x,1/2-y,1/2+z
loop_
_atom_site_type_symbol
_atom_site_label
_atom_site_fract_x
_atom_site_fract_y
_atom_site_fract_z
Si Si1 0.248522 0.015702 0.696651
Si Si2 0.067497 0.072451 0.364555
Si Si3 0.833389 0.061191 0.966205
Si Si4 0.500000 0.922634 0.250000
Si Si5 0.183044 0.226340 0.739276
Si Si6 0.951400 0.735810 0.411847
Si Si7 0.522341 0.221805 0.888921
O O1 0.273535 0.020401 0.581674
O O2 0.383313 0.020457 0.725627
O O3 0.168760 0.113567 0.730651
O O4 0.150496 0.935889 0.753382
O O5 0.174206 0.050592 0.423036
O O6 0.986626 0.168531 0.398951
O O7 0.962971 0.991230 0.402292
O O8 0.866772 0.170388 0.949759
O O9 0.553375 0.853084 0.157327
O O10 0.120693 0.288645 0.669269
O O11 0.337985 0.233231 0.693223
O O12 0.102459 0.250392 0.847795
O O13 0.955474 0.687833 0.510697
#
# Coordination Sequence:
#
# PCOD9263016 Si02
#       7
#     8   8   8   4   8   8   8
#     4  10  19  37  57  75 117 160 188 229 284 366
#     4  10  19  33  59  92 111 138 193 255 294 327
#     4   9  18  32  59  89 110 141 191 244 299 337
#     4  10  24  40  52  80 120 168 196 216 294 366
#     4   9  17  32  55  83 109 151 192 224 296 356
#     4   9  16  32  57  81 109 147 191 239 282 349
#     4  10  21  34  52  84 119 144 188 248 284 331
#
# _framework density 24.745424
#
# number of rings (size 3 to 8) (size 9 to 14) (size 15 to 20)
#    0.000    2.462    1.538    0.923    2.154    1.231 
#    0.000    6.923    0.000    0.000    0.000    0.000 
#    0.000    0.000    0.000    0.000    0.000    0.000 
#
# Total GULP energy -144835.507706 kJ/mol
# GULP energy per Si atom -5570.596450 kJ/mol
# Density = 2.468910 g / cm^3
# Si number density = 24.745424 Si / 1000 Ang^3
#
#
#
# Elastic Constant Matrix: (Units=GPa)
#
#
# Indices 1 2 3 4 5 6 
#
# 1 68.3617 -7.8878 23.6717 0.0000 14.2250 0.0000
# 2 -7.8878 36.7283 -1.7826 0.0000 -1.0595 0.0000
# 3 23.6717 -1.7826 88.9593 0.0000 24.9125 0.0000
# 4 0.0000 0.0000 0.0000 17.8743 0.0000 -0.7855
# 5 14.2250 -1.0595 24.9125 0.0000 31.3217 0.0000
# 6 0.0000 0.0000 0.0000 -0.7855 0.0000 21.1622
#
#
#
# Elastic Compliance Matrix: (Units=1/GPa)
#
#
# Indices 1 2 3 4 5 6 
#
# 1 0.017163 0.003387 -0.003021 0.000000 -0.005277 0.000000
# 2 0.003387 0.027931 -0.000226 0.000000 -0.000414 0.000000
# 3 -0.003021 -0.000226 0.014999 0.000000 -0.010566 0.000000
# 4 0.000000 0.000000 0.000000 0.056038 0.000000 0.002080
# 5 -0.005277 -0.000414 -0.010566 0.000000 0.042713 0.000000
# 6 0.000000 0.000000 0.000000 0.002080 0.000000 0.047331
#
#
# Mechanical properties :
#
#
# Convention : Reuss Voigt Hill
#
# Bulk Modulus (GPa) = 16.56340 24.67244 20.61792
# Shear Modulus (GPa) = 22.12191 26.07486 24.09838
#
# Velocity S-wave (km/s) = 2.99319 3.24963 3.12405
# Velocity P-wave (km/s) = 4.31899 4.90635 4.62201
#
# Compressibility (1/GPa) = 0.06037407
#
# Stress axis : x y z
#
# Youngs Moduli (GPa) = 58.26431 35.80194 66.66957
#
# Poissons Ratio (x) = -0.12126 0.20143
# Poissons Ratio (y) = -0.19735 0.01505
# Poissons Ratio (z) = 0.17604 0.00808
#
# Static dielectric constant tensor:
#      x y z
#    x 2.030050 0.000000 0.115070 
#    y 0.000000 2.081750 0.000000 
#    z 0.115070 0.000000 2.020960 
# 
# From -- ./inp_files/145066.got.cif
#   From: 2010.05.17/outbox.cif.g08.bks.cpg/sg15_73_cif.got.tgz:145066.got - 2010.06.03 18:47:42.
