data_PCOD9263340
_publ_section_title
;
Structure prediction by ZEFSAII (Michael W. Deem and Ramdas Pophale) SiO2 
 PCOD9263340
Probable space group: C 2/C
;
_chemical_formula_sum "Si O2"
_cell_formula_units_Z 60
_cell_length_a 9.070642
_cell_length_b 19.684410
_cell_length_c 16.564000
_cell_angle_alpha 90.000000
_cell_angle_beta 87.758255
_cell_angle_gamma 90.000000
_cell_volume 2955.242679
_symmetry_space_group_name_H-M "C 2/C"
_symmetry_group_IT_number 15
_symmetry_cell_setting 'monoclinic'
loop_
_space_group_symop_operation_xyz
x,y,z
-x,y,1/2-z
-x,-y,-z
x,-y,1/2+z
1/2+x,1/2+y,z
1/2-x,1/2+y,1/2-z
1/2-x,1/2-y,-z
1/2+x,1/2-y,1/2+z
loop_
_atom_site_type_symbol
_atom_site_label
_atom_site_fract_x
_atom_site_fract_y
_atom_site_fract_z
Si Si1 0.000000 0.586763 0.250000
Si Si2 0.565684 0.223315 0.071220
Si Si3 0.595126 0.807615 0.178284
Si Si4 0.407232 0.302960 0.580336
Si Si5 0.427746 0.412872 0.840217
Si Si6 0.309850 0.804501 0.701454
Si Si7 0.342832 0.011986 0.104852
Si Si8 0.041484 0.602563 0.540508
O O1 0.133701 0.640503 0.234303
O O2 0.053464 0.543976 0.325843
O O3 0.736014 0.216470 0.090615
O O4 0.447176 0.219584 0.144743
O O5 0.546919 0.288027 0.012935
O O6 0.527056 0.159634 0.015136
O O7 0.500000 0.842254 0.250000
O O8 0.494735 0.750588 0.135358
O O9 0.721952 0.764137 0.219336
O O10 0.636807 0.860463 0.107765
O O11 0.447501 0.379415 0.605987
O O12 0.500000 0.419267 0.750000
O O13 0.302566 0.353432 0.844276
O O14 0.328148 0.477521 0.866679
O O15 0.408533 0.938135 0.085947
O O16 0.369736 0.053056 0.020883
#
# Coordination Sequence:
#
# PCOD9263340 Si02
#       8
#     4   8   8   8   8   8   8   8
#     4  10  20  34  58  88 114 146 204 242 292 344
#     4  10  19  34  55  86 117 159 191 248 298 364
#     4  10  22  35  55  88 124 157 190 250 307 363
#     4   9  20  32  55  82 123 151 188 244 316 352
#     4  10  20  34  55  86 116 149 196 254 297 350
#     4  10  20  32  59  88 119 153 201 245 301 357
#     4  10  22  37  60  86 112 159 207 255 283 352
#     4  10  21  39  58  82 118 152 210 246 293 355
#
# _framework density 20.302900000000001
#
# number of rings (size 3 to 8) (size 9 to 14) (size 15 to 20)
#    0.000    2.133    2.667    1.600    8.400    1.600 
#    0.000    0.667    0.000    4.800    0.000    0.000 
#    0.000    0.000    0.000    0.000    0.000    0.000 
#
# Total GULP energy -167013.452991 kJ/mol
# GULP energy per Si atom -5567.115100 kJ/mol
# Density = 2.025669 g / cm^3
# Si number density = 20.302900 Si / 1000 Ang^3
#
#
#
# Elastic Constant Matrix: (Units=GPa)
#
#
# Indices 1 2 3 4 5 6 
#
# 1 56.6093 -13.0340 4.0603 0.0000 -11.5691 0.0000
# 2 -13.0340 20.1727 -12.0273 0.0000 -3.8033 0.0000
# 3 4.0603 -12.0273 38.9536 0.0000 -12.0380 0.0000
# 4 0.0000 0.0000 0.0000 18.0755 0.0000 -10.3080
# 5 -11.5691 -3.8033 -12.0380 0.0000 32.3996 0.0000
# 6 0.0000 0.0000 0.0000 -10.3080 0.0000 19.0401
#
#
#
# Elastic Compliance Matrix: (Units=1/GPa)
#
#
# Indices 1 2 3 4 5 6 
#
# 1 0.026320 0.026316 0.010439 0.000000 0.016366 0.000000
# 2 0.026316 0.095337 0.037344 0.000000 0.034463 0.000000
# 3 0.010439 0.037344 0.043630 0.000000 0.024322 0.000000
# 4 0.000000 0.000000 0.000000 0.080032 0.000000 0.043328
# 5 0.016366 0.034463 0.024322 0.000000 0.049791 0.000000
# 6 0.000000 0.000000 0.000000 0.043328 0.000000 0.075978
#
#
# Mechanical properties :
#
#
# Convention : Reuss Voigt Hill
#
# Bulk Modulus (GPa) = 3.18994 8.19261 5.69128
# Shear Modulus (GPa) = 15.27249 23.01880 19.14565
#
# Velocity S-wave (km/s) = 2.74566 3.37080 3.07416
# Velocity P-wave (km/s) = 3.40971 4.38106 3.92555
#
# Compressibility (1/GPa) = 0.31348504
#
# Stress axis : x y z
#
# Youngs Moduli (GPa) = 37.99405 10.48906 22.91997
#
# Poissons Ratio (x) = -0.27603 -0.23927
# Poissons Ratio (y) = -0.99984 -0.85592
# Poissons Ratio (z) = -0.39664 -0.39170
#
# Static dielectric constant tensor:
#      x y z
#    x 1.772830 0.000000 0.023580 
#    y 0.000000 1.744020 0.000000 
#    z 0.023580 0.000000 1.781710 
# 
# From -- ./inp_files/192124.got.cif
#   From: 2010.05.17/outbox.cif.g08.bks.cpg/sg15_97_cif.got.tgz:192124.got - 2010.06.03 18:47:42.
