data_PCOD9263784
_publ_section_title
;
Structure prediction by ZEFSAII (Michael W. Deem and Ramdas Pophale) SiO2 
 PCOD9263784
Probable space group: C 2/C
;
_chemical_formula_sum "Si O2"
_cell_formula_units_Z 64
_cell_length_a 14.649163
_cell_length_b 20.419047
_cell_length_c 30.528375
_cell_angle_alpha 90.000000
_cell_angle_beta 160.694654
_cell_angle_gamma 90.000000
_cell_volume 3018.964731
_symmetry_space_group_name_H-M "C 2/C"
_symmetry_group_IT_number 15
_symmetry_cell_setting 'monoclinic'
loop_
_space_group_symop_operation_xyz
x,y,z
-x,y,1/2-z
-x,-y,-z
x,-y,1/2+z
1/2+x,1/2+y,z
1/2-x,1/2+y,1/2-z
1/2-x,1/2-y,-z
1/2+x,1/2-y,1/2+z
loop_
_atom_site_type_symbol
_atom_site_label
_atom_site_fract_x
_atom_site_fract_y
_atom_site_fract_z
Si Si1 0.794897 0.688253 0.362462
Si Si2 0.190690 0.818848 0.090110
Si Si3 0.983249 0.983117 0.192164
Si Si4 0.820123 0.825158 0.517912
Si Si5 0.635800 0.785186 0.703286
Si Si6 0.514499 0.945671 0.922450
Si Si7 0.115755 0.874773 0.472324
Si Si8 0.737864 0.642986 0.772555
O O1 0.500000 0.669483 0.250000
O O2 0.914508 0.743987 0.448639
O O3 0.769900 0.725419 0.304310
O O4 0.960491 0.623276 0.423681
O O5 0.500000 0.820015 0.250000
O O6 0.007775 0.869205 0.035461
O O7 0.193662 0.831941 0.040312
O O8 0.077573 0.907539 0.230197
O O9 0.000000 0.003009 0.250000
O O10 0.223196 0.024370 0.277974
O O11 0.690631 0.989277 0.036030
O O12 0.750000 0.750000 0.500000
O O13 0.567320 0.864938 0.424480
O O14 0.133177 0.835903 0.674906
O O15 0.329988 0.814004 0.565177
O O16 0.658043 0.719145 0.741453
O O17 0.698540 0.933304 0.962773
O O18 0.870643 0.870757 0.325894
#
# Coordination Sequence:
#
# PCOD9263784 Si02
#       8
#     8   8   8   8   8   8   8   8
#     4  10  19  34  60  87 119 157 192 236 292 364
#     4  11  19  33  60  87 120 150 195 233 295 375
#     4  11  24  39  58  82 116 160 206 248 291 353
#     4  10  20  34  50  87 123 152 185 237 298 349
#     4  10  20  33  52  85 126 147 188 238 298 346
#     4  10  24  39  59  83 115 157 203 249 294 345
#     4  10  20  36  60  83 111 153 196 240 293 351
#     4  10  19  36  56  78 113 154 196 238 285 350
#
# _framework density 21.19932
#
# number of rings (size 3 to 8) (size 9 to 14) (size 15 to 20)
#    0.000    1.750    2.500    3.375    3.500    5.500 
#    0.000    0.000    0.000    0.750    0.000    0.000 
#    0.000    0.000    0.000    0.000    0.000    0.000 
#
# Total GULP energy -178528.691834 kJ/mol
# GULP energy per Si atom -5579.021620 kJ/mol
# Density = 2.115107 g / cm^3
# Si number density = 21.199320 Si / 1000 Ang^3
#
#
#
# Elastic Constant Matrix: (Units=GPa)
#
#
# Indices 1 2 3 4 5 6 
#
# 1 86.3432 -3.9405 4.1015 0.0110 11.3510 -0.0010
# 2 -3.9405 31.9424 11.3753 0.0071 3.4229 -0.0015
# 3 4.1015 11.3753 39.5907 0.0283 12.5852 -0.0170
# 4 0.0110 0.0071 0.0283 26.2575 -0.0170 12.4984
# 5 11.3510 3.4229 12.5852 -0.0170 22.0012 0.0047
# 6 -0.0010 -0.0015 -0.0170 12.4984 0.0047 22.9090
#
#
#
# Elastic Compliance Matrix: (Units=1/GPa)
#
#
# Indices 1 2 3 4 5 6 
#
# 1 0.012589 0.002200 0.000290 -0.000016 -0.007003 0.000011
# 2 0.002200 0.035262 -0.010089 0.000003 -0.000850 -0.000007
# 3 0.000290 -0.010089 0.033827 -0.000080 -0.017930 0.000072
# 4 -0.000016 0.000003 -0.000080 0.051444 0.000099 -0.028066
# 5 -0.007003 -0.000850 -0.017930 0.000099 0.059454 -0.000080
# 6 0.000011 -0.000007 0.000072 -0.028066 -0.000080 0.058963
#
#
# Mechanical properties :
#
#
# Convention : Reuss Voigt Hill
#
# Bulk Modulus (GPa) = 15.04230 20.10543 17.57386
# Shear Modulus (GPa) = 17.30724 23.98954 20.64839
#
# Velocity S-wave (km/s) = 2.86038 3.36760 3.12430
# Velocity P-wave (km/s) = 4.24501 4.96242 4.61767
#
# Compressibility (1/GPa) = 0.06647918
#
# Stress axis : x y z
#
# Youngs Moduli (GPa) = 79.43449 28.35928 29.56228
#
# Poissons Ratio (x) = -0.06240 -0.00857
# Poissons Ratio (y) = -0.17478 0.29826
# Poissons Ratio (z) = -0.02302 0.28613
#
# Static dielectric constant tensor:
#      x y z
#    x 1.749270 0.000000 0.031060 
#    y 0.000000 1.824100 -0.000020 
#    z 0.031060 -0.000020 1.805660 
# 
# From -- ./inp_files/314552.got.cif
#   From: 2010.05.17/outbox.cif.g08.bks.cpg/sg15_158_cif.got.tgz:314552.got - 2010.06.03 18:47:42.
