data_PCOD9263612
_publ_section_title
;
Structure prediction by ZEFSAII (Michael W. Deem and Ramdas Pophale) SiO2 
 PCOD9263612
Probable space group: C 2/C
;
_chemical_formula_sum "Si O2"
_cell_formula_units_Z 64
_cell_length_a 13.084681
_cell_length_b 11.767097
_cell_length_c 22.294333
_cell_angle_alpha 90.000000
_cell_angle_beta 129.072307
_cell_angle_gamma 90.000000
_cell_volume 2664.925996
_symmetry_space_group_name_H-M "C 2/C"
_symmetry_group_IT_number 15
_symmetry_cell_setting 'monoclinic'
loop_
_space_group_symop_operation_xyz
x,y,z
-x,y,1/2-z
-x,-y,-z
x,-y,1/2+z
1/2+x,1/2+y,z
1/2-x,1/2+y,1/2-z
1/2-x,1/2-y,-z
1/2+x,1/2-y,1/2+z
loop_
_atom_site_type_symbol
_atom_site_label
_atom_site_fract_x
_atom_site_fract_y
_atom_site_fract_z
Si Si1 0.790163 0.094226 0.954113
Si Si2 0.201586 0.841112 0.711759
Si Si3 0.861550 0.837203 0.018795
Si Si4 0.249297 0.401194 0.638646
Si Si5 0.628399 0.583151 0.653497
Si Si6 0.047097 0.710656 0.828548
Si Si7 0.025151 0.706434 0.977531
Si Si8 0.264013 0.135572 0.827375
O O1 0.819448 0.110258 0.893596
O O2 0.638372 0.130170 0.902554
O O3 0.884354 0.191586 0.017300
O O4 0.815182 0.965703 0.984469
O O5 0.279488 0.872435 0.801520
O O6 0.274947 0.768868 0.687285
O O7 0.080764 0.764812 0.689892
O O8 0.130810 0.948107 0.656814
O O9 0.985991 0.860442 0.108780
O O10 0.750000 0.750000 0.000000
O O11 0.930881 0.775897 0.988331
O O12 0.363203 0.317167 0.659022
O O13 0.295214 0.532477 0.656052
O O14 0.125741 0.373432 0.551169
O O15 0.722952 0.612007 0.743428
O O16 0.000000 0.649233 0.750000
O O17 0.917253 0.632073 0.902525
#
# Coordination Sequence:
#
# PCOD9263612 Si02
#       8
#     8   8   8   8   8   8   8   8
#     4  10  20  40  63  82 114 162 198 236 295 362
#     4  10  19  34  58  86 112 146 195 244 290 348
#     4  11  23  39  59  85 116 154 199 249 299 354
#     4   9  20  35  55  81 116 154 189 236 296 353
#     4  10  21  39  61  84 115 156 198 238 295 365
#     4   9  18  35  56  83 115 148 188 238 290 341
#     4  10  20  38  58  81 118 157 196 240 297 361
#     4  11  20  34  60  88 112 151 200 245 289 352
#
# _framework density 24.015675999999999
#
# number of rings (size 3 to 8) (size 9 to 14) (size 15 to 20)
#    0.000    2.000    0.000    6.375    0.000    2.000 
#    0.000   10.000    0.000    0.000    0.000    0.000 
#    0.000    0.000    0.000    0.000    0.000    0.000 
#
# Total GULP energy -178536.375299 kJ/mol
# GULP energy per Si atom -5579.261728 kJ/mol
# Density = 2.396102 g / cm^3
# Si number density = 24.015676 Si / 1000 Ang^3
#
#
#
# Elastic Constant Matrix: (Units=GPa)
#
#
# Indices 1 2 3 4 5 6 
#
# 1 44.1390 34.5779 15.7035 0.0000 10.6841 0.0000
# 2 34.5779 122.8227 47.2412 0.0000 14.9033 0.0000
# 3 15.7035 47.2412 170.9404 0.0000 5.0118 0.0000
# 4 0.0000 0.0000 0.0000 39.3261 0.0000 0.4362
# 5 10.6841 14.9033 5.0118 0.0000 23.4188 0.0000
# 6 0.0000 0.0000 0.0000 0.4362 0.0000 27.2071
#
#
#
# Elastic Compliance Matrix: (Units=1/GPa)
#
#
# Indices 1 2 3 4 5 6 
#
# 1 0.030853 -0.007356 -0.000529 0.000000 -0.009281 0.000000
# 2 -0.007356 0.011566 -0.002418 0.000000 -0.003487 0.000000
# 3 -0.000529 -0.002418 0.006556 0.000000 0.000377 0.000000
# 4 0.000000 0.000000 0.000000 0.025433 0.000000 -0.000408
# 5 -0.009281 -0.003487 0.000377 0.000000 0.049073 0.000000
# 6 0.000000 0.000000 0.000000 -0.000408 0.000000 0.036762
#
#
# Mechanical properties :
#
#
# Convention : Reuss Voigt Hill
#
# Bulk Modulus (GPa) = 35.25163 59.21636 47.23400
# Shear Modulus (GPa) = 26.27336 34.01570 30.14453
#
# Velocity S-wave (km/s) = 3.31117 3.76759 3.54673
# Velocity P-wave (km/s) = 5.41562 6.60584 6.04012
#
# Compressibility (1/GPa) = 0.02836748
#
# Stress axis : x y z
#
# Youngs Moduli (GPa) = 32.41136 86.45965 152.53450
#
# Poissons Ratio (x) = 0.63602 0.08073
# Poissons Ratio (y) = 0.23843 0.36889
# Poissons Ratio (z) = 0.01715 0.20909
#
# Static dielectric constant tensor:
#      x y z
#    x 2.046570 0.000000 -0.091730 
#    y 0.000000 2.050980 0.000000 
#    z -0.091730 0.000000 1.996870 
# 
# From -- ./inp_files/296139.got.cif
#   From: 2010.05.17/outbox.cif.g08.bks.cpg/sg15_149_cif.got.tgz:296139.got - 2010.06.03 18:47:42.
