data_PCOD9263198
_publ_section_title
;
Structure prediction by ZEFSAII (Michael W. Deem and Ramdas Pophale) SiO2 
 PCOD9263198
Probable space group: C 2/C
;
_chemical_formula_sum "Si O2"
_cell_formula_units_Z 36
_cell_length_a 15.723446
_cell_length_b 21.683691
_cell_length_c 8.403986
_cell_angle_alpha 90.000000
_cell_angle_beta 143.025190
_cell_angle_gamma 90.000000
_cell_volume 1723.359135
_symmetry_space_group_name_H-M "C 2/C"
_symmetry_group_IT_number 15
_symmetry_cell_setting 'monoclinic'
loop_
_space_group_symop_operation_xyz
x,y,z
-x,y,1/2-z
-x,-y,-z
x,-y,1/2+z
1/2+x,1/2+y,z
1/2-x,1/2+y,1/2-z
1/2-x,1/2-y,-z
1/2+x,1/2-y,1/2+z
loop_
_atom_site_type_symbol
_atom_site_label
_atom_site_fract_x
_atom_site_fract_y
_atom_site_fract_z
Si Si1 0.292775 0.821515 0.598033
Si Si2 0.500000 0.497263 0.250000
Si Si3 0.883561 0.089264 0.851655
Si Si4 0.162226 0.167620 0.242609
Si Si5 0.423818 0.804492 0.306370
O O1 0.250000 0.750000 0.500000
O O2 0.244952 0.865805 0.383818
O O3 0.206889 0.843332 0.627150
O O4 0.455978 0.826388 0.893018
O O5 0.616619 0.541874 0.503725
O O6 0.576712 0.454711 0.236758
O O7 0.020036 0.133160 0.074696
O O8 0.291034 0.153929 0.555780
O O9 0.134571 0.240545 0.213410
O O10 0.500000 0.791214 0.250000
#
# Coordination Sequence:
#
# PCOD9263198 Si02
#       5
#     8   4   8   8   8
#     4  11  20  33  56  85 118 150 185 241 298 349
#     4  10  24  38  60  84 110 160 208 238 272 332
#     4  11  21  39  60  83 113 153 202 243 278 338
#     4  10  19  34  53  81 121 149 183 234 287 350
#     4   9  20  32  52  85 119 151 174 227 308 354
#
# _framework density 20.889437000000001
#
# number of rings (size 3 to 8) (size 9 to 14) (size 15 to 20)
#    0.000    1.778    4.444    0.000    1.556    1.778 
#    0.000    0.000    0.000    8.000    0.000    0.000 
#    0.000    0.000    0.000    0.000    0.000    0.000 
#
# Total GULP energy -100549.503302 kJ/mol
# GULP energy per Si atom -5586.083517 kJ/mol
# Density = 2.084189 g / cm^3
# Si number density = 20.889437 Si / 1000 Ang^3
#
#
#
# Elastic Constant Matrix: (Units=GPa)
#
#
# Indices 1 2 3 4 5 6 
#
# 1 18.9847 -5.2609 15.3515 0.0000 -4.5773 0.0000
# 2 -5.2609 71.9169 44.8833 0.0000 -12.3585 0.0000
# 3 15.3515 44.8833 168.5015 0.0000 3.5654 0.0000
# 4 0.0000 0.0000 0.0000 22.0697 0.0000 -1.1433
# 5 -4.5773 -12.3585 3.5654 0.0000 28.4787 0.0000
# 6 0.0000 0.0000 0.0000 -1.1433 0.0000 22.2475
#
#
#
# Elastic Compliance Matrix: (Units=1/GPa)
#
#
# Indices 1 2 3 4 5 6 
#
# 1 0.070347 0.015250 -0.010879 0.000000 0.019287 0.000000
# 2 0.015250 0.021919 -0.007501 0.000000 0.012902 0.000000
# 3 -0.010879 -0.007501 0.009054 0.000000 -0.006137 0.000000
# 4 0.000000 0.000000 0.000000 0.045432 0.000000 0.002335
# 5 0.019287 0.012902 -0.006137 0.000000 0.044581 0.000000
# 6 0.000000 0.000000 0.000000 0.002335 0.000000 0.045069
#
#
# Mechanical properties :
#
#
# Convention : Reuss Voigt Hill
#
# Bulk Modulus (GPa) = 10.51969 41.03897 25.77933
# Shear Modulus (GPa) = 18.22500 28.18780 23.20640
#
# Velocity S-wave (km/s) = 2.95693 3.67738 3.33666
# Velocity P-wave (km/s) = 4.08714 6.14160 5.21651
#
# Compressibility (1/GPa) = 0.09505981
#
# Stress axis : x y z
#
# Youngs Moduli (GPa) = 14.21519 45.62265 110.45250
#
# Poissons Ratio (x) = -0.69575 1.20164
# Poissons Ratio (y) = -0.21678 0.82849
# Poissons Ratio (z) = 0.15465 0.34221
#
# Static dielectric constant tensor:
#      x y z
#    x 1.813120 0.000000 -0.026820 
#    y 0.000000 1.720220 0.000000 
#    z -0.026820 0.000000 1.800540 
# 
# From -- ./inp_files/30125.got.cif
#   From: 2010.05.17/outbox.cif.g08.bks.cpg/sg15_16_cif.got.tgz:30125.got - 2010.06.03 18:47:42.
