data_PCOD9263792
_publ_section_title
;
Structure prediction by ZEFSAII (Michael W. Deem and Ramdas Pophale) SiO2 
 PCOD9263792
Probable space group: C 2/C
;
_chemical_formula_sum "Si O2"
_cell_formula_units_Z 56
_cell_length_a 15.246405
_cell_length_b 19.551572
_cell_length_c 15.220396
_cell_angle_alpha 90.000000
_cell_angle_beta 141.940192
_cell_angle_gamma 90.000000
_cell_volume 2797.027171
_symmetry_space_group_name_H-M "C 2/C"
_symmetry_group_IT_number 15
_symmetry_cell_setting 'monoclinic'
loop_
_space_group_symop_operation_xyz
x,y,z
-x,y,1/2-z
-x,-y,-z
x,-y,1/2+z
1/2+x,1/2+y,z
1/2-x,1/2+y,1/2-z
1/2-x,1/2-y,-z
1/2+x,1/2-y,1/2+z
loop_
_atom_site_type_symbol
_atom_site_label
_atom_site_fract_x
_atom_site_fract_y
_atom_site_fract_z
Si Si1 0.855573 0.607695 0.690227
Si Si2 0.848639 0.143909 0.596263
Si Si3 0.663292 0.241682 0.562762
Si Si4 0.152153 0.554834 0.325467
Si Si5 0.266353 0.641416 0.252847
Si Si6 0.053063 0.165785 0.391769
Si Si7 0.969986 0.686223 0.542624
O O1 0.843131 0.526161 0.684147
O O2 0.710565 0.637869 0.536282
O O3 0.000000 0.623536 0.750000
O O4 0.899727 0.642077 0.816890
O O5 0.760997 0.181547 0.603422
O O6 0.864752 0.203550 0.535863
O O7 0.765252 0.082646 0.484942
O O8 0.000000 0.121417 0.750000
O O9 0.727640 0.284907 0.693912
O O10 0.519326 0.210517 0.485625
O O11 0.193986 0.591001 0.266424
O O12 0.000000 0.573545 0.250000
O O13 0.431517 0.629707 0.356676
O O14 0.173956 0.645305 0.090897
O O15 0.053498 0.246337 0.417733
O O16 0.000000 0.158538 0.250000
#
# Coordination Sequence:
#
# PCOD9263792 Si02
#       7
#     8   8   8   8   8   8   8
#     4  11  25  42  60  84 116 156 199 242 297 360
#     4  10  19  34  60  89 121 158 196 240 294 350
#     4   9  19  33  57  92 123 149 191 245 297 348
#     4  10  23  42  59  83 123 163 196 237 292 358
#     4  10  21  37  61  90 118 153 195 239 293 350
#     4  11  23  40  62  88 116 148 193 252 301 340
#     4  11  21  37  61  86 115 150 195 244 295 350
#
# _framework density 20.021256999999999
#
# number of rings (size 3 to 8) (size 9 to 14) (size 15 to 20)
#    0.000    1.714    0.000    4.714    0.000    9.714 
#    0.000    1.429    0.000    0.000    0.000    0.000 
#    0.000    0.000    0.000    0.000    0.000    0.000 
#
# Total GULP energy -156272.094519 kJ/mol
# GULP energy per Si atom -5581.146233 kJ/mol
# Density = 1.997569 g / cm^3
# Si number density = 20.021257 Si / 1000 Ang^3
#
#
#
# Elastic Constant Matrix: (Units=GPa)
#
#
# Indices 1 2 3 4 5 6 
#
# 1 110.3044 40.7141 52.1155 0.0000 13.8497 0.0000
# 2 40.7141 78.1510 38.7522 0.0000 19.4788 0.0000
# 3 52.1155 38.7522 163.5036 0.0000 30.2112 0.0000
# 4 0.0000 0.0000 0.0000 7.7090 0.0000 8.7144
# 5 13.8497 19.4788 30.2112 0.0000 25.7537 0.0000
# 6 0.0000 0.0000 0.0000 8.7144 0.0000 18.3245
#
#
#
# Elastic Compliance Matrix: (Units=1/GPa)
#
#
# Indices 1 2 3 4 5 6 
#
# 1 0.012197 -0.005118 -0.002781 0.000000 0.000574 0.000000
# 2 -0.005118 0.018423 -0.000854 0.000000 -0.010180 0.000000
# 3 -0.002781 -0.000854 0.008693 0.000000 -0.008057 0.000000
# 4 0.000000 0.000000 0.000000 0.280518 -0.000001 -0.133403
# 5 0.000574 -0.010180 -0.008057 -0.000001 0.055672 0.000000
# 6 0.000000 0.000000 0.000000 -0.133403 0.000000 0.118013
#
#
# Mechanical properties :
#
#
# Convention : Reuss Voigt Hill
#
# Bulk Modulus (GPa) = 45.85628 68.34693 57.10160
# Shear Modulus (GPa) = 9.64710 25.04926 17.34818
#
# Velocity S-wave (km/s) = 2.19747 3.54097 2.94681
# Velocity P-wave (km/s) = 5.42144 7.13648 6.33724
#
# Compressibility (1/GPa) = 0.02180727
#
# Stress axis : x y z
#
# Youngs Moduli (GPa) = 81.98936 54.27986 115.02872
#
# Poissons Ratio (x) = 0.27782 0.31984
# Poissons Ratio (y) = 0.41965 0.09824
# Poissons Ratio (z) = 0.22798 0.04636
#
# Static dielectric constant tensor:
#      x y z
#    x 1.777810 0.000000 -0.013750 
#    y 0.000000 1.672000 0.000000 
#    z -0.013750 0.000000 1.736810 
# 
# From -- ./inp_files/156219.got.cif
#   From: 2010.05.17/outbox.cif.g08.bks.cpg/sg15_79_cif.got.tgz:156219.got - 2010.06.03 18:47:42.
