data_PCOD9263216
_publ_section_title
;
Structure prediction by ZEFSAII (Michael W. Deem and Ramdas Pophale) SiO2 
 PCOD9263216
Probable space group: C 2/C
;
_chemical_formula_sum "Si O2"
_cell_formula_units_Z 64
_cell_length_a 8.050402
_cell_length_b 10.859794
_cell_length_c 31.747702
_cell_angle_alpha 90.000000
_cell_angle_beta 73.014390
_cell_angle_gamma 90.000000
_cell_volume 2654.490026
_symmetry_space_group_name_H-M "C 2/C"
_symmetry_group_IT_number 15
_symmetry_cell_setting 'monoclinic'
loop_
_space_group_symop_operation_xyz
x,y,z
-x,y,1/2-z
-x,-y,-z
x,-y,1/2+z
1/2+x,1/2+y,z
1/2-x,1/2+y,1/2-z
1/2-x,1/2-y,-z
1/2+x,1/2-y,1/2+z
loop_
_atom_site_type_symbol
_atom_site_label
_atom_site_fract_x
_atom_site_fract_y
_atom_site_fract_z
Si Si1 0.117648 0.861510 0.205497
Si Si2 0.894637 0.647970 0.180120
Si Si3 0.159851 0.147120 0.268302
Si Si4 0.850817 0.352830 0.115566
Si Si5 0.688161 0.853132 0.945891
Si Si6 0.673986 0.917362 0.040920
Si Si7 0.137219 0.635965 0.090070
Si Si8 0.575097 0.646532 0.143736
O O1 0.245699 0.769090 0.221016
O O2 0.231169 0.921871 0.159461
O O3 0.000000 0.927617 0.250000
O O4 0.987995 0.769535 0.190740
O O5 0.806667 0.584128 0.227646
O O6 0.736209 0.683650 0.161400
O O7 0.040829 0.586397 0.139784
O O8 0.000000 0.183773 0.250000
O O9 0.072227 0.083462 0.315829
O O10 0.735779 0.257462 0.097358
O O11 0.976692 0.420217 0.073734
O O12 0.978643 0.267394 0.133673
O O13 0.748189 0.714181 0.952711
O O14 0.509448 0.834773 0.933686
O O15 0.835452 0.910551 0.904216
O O16 0.676243 0.924637 0.990637
O O17 0.756805 0.032112 0.059770
#
# Coordination Sequence:
#
# PCOD9263216 Si02
#       8
#     8   8   8   8   8   8   8   8
#     4   8  13  23  42  70 100 134 170 208 257 307
#     4   8  14  24  43  71  97 127 169 205 247 308
#     4   8  12  20  39  68  95 128 169 202 247 305
#     4   9  18  31  50  77 101 132 176 211 256 317
#     4   9  19  35  52  75 105 136 175 216 259 310
#     4  10  20  36  54  74 105 138 171 219 262 302
#     4  10  19  34  54  76 103 135 171 213 261 310
#     4   8  14  27  45  67  98 130 164 206 251 302
#
# _framework density 24.110091000000001
#
# number of rings (size 3 to 8) (size 9 to 14) (size 15 to 20)
#    0.000    3.250    0.000    0.375    0.000    0.500 
#    0.000    9.375    0.000    3.750    0.000  295.750 
#    0.000    0.000    0.000    0.000    0.000    0.000 
#
# Total GULP energy -178528.538778 kJ/mol
# GULP energy per Si atom -5579.016837 kJ/mol
# Density = 2.405522 g / cm^3
# Si number density = 24.110091 Si / 1000 Ang^3
#
#
#
# Elastic Constant Matrix: (Units=GPa)
#
#
# Indices 1 2 3 4 5 6 
#
# 1 78.7363 28.0639 29.0275 0.0000 13.6026 0.0000
# 2 28.0639 55.0185 40.7232 0.0000 11.1531 0.0000
# 3 29.0275 40.7232 198.3464 0.0000 -14.2377 0.0000
# 4 0.0000 0.0000 0.0000 47.9727 0.0000 -5.7767
# 5 13.6026 11.1531 -14.2377 0.0000 31.3820 0.0000
# 6 0.0000 0.0000 0.0000 -5.7767 0.0000 21.4636
#
#
#
# Elastic Compliance Matrix: (Units=1/GPa)
#
#
# Indices 1 2 3 4 5 6 
#
# 1 0.016420 -0.006068 -0.001564 0.000000 -0.005670 0.000000
# 2 -0.006068 0.027161 -0.005367 0.000000 -0.009458 0.000000
# 3 -0.001564 -0.005367 0.006779 0.000000 0.005661 0.000000
# 4 0.000000 0.000000 0.000000 0.021543 0.000000 0.005798
# 5 -0.005670 -0.009458 0.005661 0.000000 0.040253 0.000000
# 6 0.000000 0.000000 0.000000 0.005798 0.000000 0.048151
#
#
# Mechanical properties :
#
#
# Convention : Reuss Voigt Hill
#
# Bulk Modulus (GPa) = 41.05045 58.63672 49.84359
# Shear Modulus (GPa) = 25.71666 35.78277 30.74971
#
# Velocity S-wave (km/s) = 3.26948 3.85663 3.57513
# Velocity P-wave (km/s) = 5.59606 6.64866 6.14494
#
# Compressibility (1/GPa) = 0.02436027
#
# Stress axis : x y z
#
# Youngs Moduli (GPa) = 60.90225 36.81742 147.51575
#
# Poissons Ratio (x) = 0.22342 0.23073
# Poissons Ratio (y) = 0.36957 0.79177
# Poissons Ratio (z) = 0.09526 0.19761
#
# Static dielectric constant tensor:
#      x y z
#    x 1.935530 0.000000 -0.059680 
#    y 0.000000 1.939980 0.000000 
#    z -0.059680 0.000000 1.989020 
# 
# From -- ./inp_files/307776.got.cif
#   From: 2010.05.17/outbox.cif.g08.bks.cpg/sg15_154_cif.got.tgz:307776.got - 2010.06.03 18:47:42.
