data_PCOD9264337
_publ_section_title
;
Structure prediction by ZEFSAII (Michael W. Deem and Ramdas Pophale) SiO2 
 PCOD9264337
Probable space group: C 2/C
;
_chemical_formula_sum "Si O2"
_cell_formula_units_Z 56
_cell_length_a 9.109264
_cell_length_b 17.824274
_cell_length_c 29.241696
_cell_angle_alpha 90.000000
_cell_angle_beta 140.953081
_cell_angle_gamma 90.000000
_cell_volume 2990.944204
_symmetry_space_group_name_H-M "C 2/C"
_symmetry_group_IT_number 15
_symmetry_cell_setting 'monoclinic'
loop_
_space_group_symop_operation_xyz
x,y,z
-x,y,1/2-z
-x,-y,-z
x,-y,1/2+z
1/2+x,1/2+y,z
1/2-x,1/2+y,1/2-z
1/2-x,1/2-y,-z
1/2+x,1/2-y,1/2+z
loop_
_atom_site_type_symbol
_atom_site_label
_atom_site_fract_x
_atom_site_fract_y
_atom_site_fract_z
Si Si1 0.705274 0.032484 0.837190
Si Si2 0.617241 0.253716 0.419943
Si Si3 0.873521 0.548725 0.406363
Si Si4 0.033985 0.398327 0.848594
Si Si5 0.290038 0.416587 0.077083
Si Si6 0.611615 0.191232 0.826415
Si Si7 0.048794 0.156402 0.206384
O O1 0.500000 0.024057 0.750000
O O2 0.645425 0.107204 0.853291
O O3 0.955584 0.053090 0.876327
O O4 0.705954 0.954510 0.864539
O O5 0.750000 0.250000 0.500000
O O6 0.633704 0.178755 0.393990
O O7 0.692219 0.327949 0.410976
O O8 0.354729 0.268965 0.373170
O O9 0.795103 0.465989 0.401354
O O10 0.656356 0.604885 0.363295
O O11 0.936865 0.556983 0.368987
O O12 0.099082 0.570491 0.490927
O O13 0.806396 0.376958 0.763590
O O14 0.500000 0.176998 0.750000
O O15 0.466260 0.257709 0.814688
O O16 0.000000 0.158651 0.250000
#
# Coordination Sequence:
#
# PCOD9264337 Si02
#       7
#     8   8   8   8   8   8   8
#     4  10  22  35  54  85 115 146 178 241 290 331
#     4  11  18  33  55  83 106 147 189 225 264 339
#     4  10  19  35  58  83 105 151 189 231 268 334
#     4  11  20  34  60  83 111 143 194 230 280 331
#     4  10  21  35  57  80 117 144 188 228 283 326
#     4   9  15  31  52  75 103 137 187 224 264 317
#     4   9  15  30  54  80 100 137 188 231 258 324
#
# _framework density 18.723184
#
# number of rings (size 3 to 8) (size 9 to 14) (size 15 to 20)
#    0.000    2.000    5.714    0.857    0.000    0.571 
#    0.000    0.000    6.286    1.714    0.000    0.000 
#    0.000    0.000    0.000    0.000    0.000    0.000 
#
# Total GULP energy -155957.462094 kJ/mol
# GULP energy per Si atom -5569.909361 kJ/mol
# Density = 1.868057 g / cm^3
# Si number density = 18.723184 Si / 1000 Ang^3
#
#
#
# Elastic Constant Matrix: (Units=GPa)
#
#
# Indices 1 2 3 4 5 6 
#
# 1 21.4581 41.3842 14.0357 0.0000 3.0715 0.0000
# 2 41.3842 167.3423 34.2081 0.0000 -3.0009 0.0001
# 3 14.0357 34.2081 91.6334 -0.0005 19.8771 -0.0005
# 4 0.0000 0.0000 -0.0005 17.6062 -0.0001 -7.8301
# 5 3.0715 -3.0009 19.8771 -0.0001 12.9620 -0.0001
# 6 0.0000 0.0001 -0.0005 -7.8301 -0.0001 20.3607
#
#
#
# Elastic Compliance Matrix: (Units=1/GPa)
#
#
# Indices 1 2 3 4 5 6 
#
# 1 0.099083 -0.025240 0.000908 0.000000 -0.030715 0.000000
# 2 -0.025240 0.013471 -0.004700 0.000000 0.016307 0.000000
# 3 0.000908 -0.004700 0.019197 0.000001 -0.030742 0.000001
# 4 0.000000 0.000000 0.000001 0.068517 0.000000 0.026349
# 5 -0.030715 0.016307 -0.030742 0.000000 0.135345 0.000000
# 6 0.000000 0.000000 0.000001 0.026349 0.000000 0.059247
#
#
# Mechanical properties :
#
#
# Convention : Reuss Voigt Hill
#
# Bulk Modulus (GPa) = 13.57088 51.07664 32.32376
# Shear Modulus (GPa) = 10.47152 22.90616 16.68884
#
# Velocity S-wave (km/s) = 2.36748 3.50152 2.98878
# Velocity P-wave (km/s) = 3.83890 6.60959 5.40481
#
# Compressibility (1/GPa) = 0.07368717
#
# Stress axis : x y z
#
# Youngs Moduli (GPa) = 10.09259 74.23404 52.09117
#
# Poissons Ratio (x) = 1.87366 -0.04732
# Poissons Ratio (y) = 0.25474 0.24484
# Poissons Ratio (z) = -0.00917 0.34891
#
# Static dielectric constant tensor:
#      x y z
#    x 1.640710 0.000000 0.017450 
#    y 0.000000 1.722610 0.000000 
#    z 0.017450 0.000000 1.651320 
# 
# From -- ./inp_files/190911.got.cif
#   From: 2010.05.17/outbox.cif.g08.bks.cpg/sg15_96_cif.got.tgz:190911.got - 2010.06.03 18:47:42.
