data_PCOD9264989
_publ_section_title
;
Structure prediction by ZEFSAII (Michael W. Deem and Ramdas Pophale) SiO2 
 PCOD9264989
Probable space group: C 2/C
;
_chemical_formula_sum "Si O2"
_cell_formula_units_Z 56
_cell_length_a 22.708134
_cell_length_b 17.250076
_cell_length_c 8.469256
_cell_angle_alpha 90.000000
_cell_angle_beta 58.810616
_cell_angle_gamma 90.000000
_cell_volume 2838.033677
_symmetry_space_group_name_H-M "C 2/C"
_symmetry_group_IT_number 15
_symmetry_cell_setting 'monoclinic'
loop_
_space_group_symop_operation_xyz
x,y,z
-x,y,1/2-z
-x,-y,-z
x,-y,1/2+z
1/2+x,1/2+y,z
1/2-x,1/2+y,1/2-z
1/2-x,1/2-y,-z
1/2+x,1/2-y,1/2+z
loop_
_atom_site_type_symbol
_atom_site_label
_atom_site_fract_x
_atom_site_fract_y
_atom_site_fract_z
Si Si1 0.072202 0.061333 0.567562
Si Si2 0.317360 0.189023 0.235291
Si Si3 0.199838 0.677670 0.888732
Si Si4 0.256107 0.843906 0.503030
Si Si5 0.560909 0.731099 0.567380
Si Si6 0.455144 0.275544 0.942930
Si Si7 0.889577 0.084288 0.333611
O O1 0.087054 0.149364 0.603189
O O2 0.070904 0.060803 0.380738
O O3 0.000000 0.041691 0.750000
O O4 0.123231 0.994772 0.553903
O O5 0.261209 0.258873 0.315469
O O6 0.310194 0.148275 0.416736
O O7 0.300226 0.141344 0.099707
O O8 0.392146 0.228450 0.105970
O O9 0.217506 0.629074 0.706506
O O10 0.127387 0.718578 0.947277
O O11 0.250000 0.750000 0.500000
O O12 0.180285 0.876971 0.629611
O O13 0.500000 0.771526 0.750000
O O14 0.514998 0.705915 0.483131
O O15 0.500000 0.229647 0.750000
O O16 0.425102 0.352710 0.900128
#
# Coordination Sequence:
#
# PCOD9264989 Si02
#       7
#     8   8   8   8   8   8   8
#     4  11  25  38  50  75 112 159 199 242 270 332
#     4  10  20  33  55  78 104 142 201 235 301 341
#     4  10  19  36  56  81 104 149 195 239 298 347
#     4  10  19  38  56  77 102 142 199 251 291 341
#     4  11  22  34  54  81 117 150 199 235 280 337
#     4  12  21  34  53  78 111 155 198 243 279 336
#     4  12  24  39  54  76 111 155 211 242 284 329
#
# _framework density 19.73197
#
# number of rings (size 3 to 8) (size 9 to 14) (size 15 to 20)
#    0.000    1.143    5.714    3.429    4.000    0.000 
#    2.571    0.000    0.000    0.000    0.000    0.000 
#    0.000    0.000    0.000   43.714    0.000    0.286 
#
# Total GULP energy -155938.718626 kJ/mol
# GULP energy per Si atom -5569.239951 kJ/mol
# Density = 1.968706 g / cm^3
# Si number density = 19.731970 Si / 1000 Ang^3
#
#
#
# Elastic Constant Matrix: (Units=GPa)
#
#
# Indices 1 2 3 4 5 6 
#
# 1 109.0069 19.2688 38.4366 0.0000 9.1423 0.0000
# 2 19.2688 11.4511 6.7967 0.0000 -0.2959 0.0000
# 3 38.4366 6.7967 127.4610 0.0000 22.5219 0.0000
# 4 0.0000 0.0000 0.0000 -1.5535 0.0000 3.6550
# 5 9.1423 -0.2959 22.5219 0.0000 47.3538 0.0000
# 6 0.0000 0.0000 0.0000 3.6550 0.0000 15.7239
#
#
#
# Elastic Compliance Matrix: (Units=1/GPa)
#
#
# Indices 1 2 3 4 5 6 
#
# 1 0.014251 -0.022338 -0.002834 0.000000 -0.001543 0.000000
# 2 -0.022338 0.125619 -0.000942 0.000000 0.005546 0.000000
# 3 -0.002834 -0.000942 0.009449 0.000000 -0.003953 0.000000
# 4 0.000000 0.000000 0.000000 -0.416122 0.000000 0.096728
# 5 -0.001543 0.005546 -0.003953 0.000000 0.023330 0.000000
# 6 0.000000 0.000000 0.000000 0.096728 0.000000 0.041113
#
#
# Mechanical properties :
#
#
# Convention : Reuss Voigt Hill
#
# Bulk Modulus (GPa) = 10.29965 41.88036 26.09001
# Shear Modulus (GPa) = -42.45595 24.53263 -8.96166
#
# Velocity S-wave (km/s) = -4.64360 3.52986 -2.13344
# Velocity P-wave (km/s) = 4.84970 6.15499 2.67996
#
# Compressibility (1/GPa) = 0.09709067
#
# Stress axis : x y z
#
# Youngs Moduli (GPa) = 70.17079 7.96059 105.83463
#
# Poissons Ratio (x) = 0.17782 0.29990
# Poissons Ratio (y) = 1.56748 0.09972
# Poissons Ratio (z) = 0.19884 0.00750
#
# Static dielectric constant tensor:
#      x y z
#    x 1.677640 0.000000 0.084680 
#    y 0.000000 1.658310 0.000000 
#    z 0.084680 0.000000 1.827490 
# 
# From -- ./inp_files/57777.got.cif
#   From: 2010.05.17/outbox.cif.g08.bks.cpg/sg15_29_cif.got.tgz:57777.got - 2010.06.03 18:47:42.
