data_PCOD9264794
_publ_section_title
;
Structure prediction by ZEFSAII (Michael W. Deem and Ramdas Pophale) SiO2 
 PCOD9264794
Probable space group: C 2/C
;
_chemical_formula_sum "Si O2"
_cell_formula_units_Z 44
_cell_length_a 11.705862
_cell_length_b 14.639456
_cell_length_c 12.179140
_cell_angle_alpha 90.000000
_cell_angle_beta 72.072234
_cell_angle_gamma 90.000000
_cell_volume 1985.769367
_symmetry_space_group_name_H-M "C 2/C"
_symmetry_group_IT_number 15
_symmetry_cell_setting 'monoclinic'
loop_
_space_group_symop_operation_xyz
x,y,z
-x,y,1/2-z
-x,-y,-z
x,-y,1/2+z
1/2+x,1/2+y,z
1/2-x,1/2+y,1/2-z
1/2-x,1/2-y,-z
1/2+x,1/2-y,1/2+z
loop_
_atom_site_type_symbol
_atom_site_label
_atom_site_fract_x
_atom_site_fract_y
_atom_site_fract_z
Si Si1 0.004806 0.676239 0.381397
Si Si2 0.500000 0.527161 0.250000
Si Si3 0.172325 0.127656 0.321688
Si Si4 0.214102 0.669647 0.883166
Si Si5 0.118355 0.494790 0.785236
Si Si6 0.469913 0.631522 0.921392
O O1 0.079170 0.584298 0.384350
O O2 0.000000 0.673516 0.250000
O O3 0.881976 0.672396 0.487836
O O4 0.052061 0.778227 0.391865
O O5 0.615238 0.593085 0.224332
O O6 0.484263 0.456997 0.153937
O O7 0.208171 0.233547 0.321610
O O8 0.281583 0.059355 0.314576
O O9 0.069170 0.117254 0.443067
O O10 0.174955 0.584266 0.821174
O O11 0.346260 0.654974 0.892617
O O12 0.000000 0.518636 0.750000
#
# Coordination Sequence:
#
# PCOD9264794 Si02
#       6
#     8   4   8   8   8   8
#     4  10  19  35  63  93 119 151 206 252 296 364
#     4  12  24  42  62  88 130 164 206 264 314 358
#     4  11  25  41  63  92 126 165 211 255 311 369
#     4  11  22  39  65  93 126 163 202 261 313 365
#     4  11  22  39  63  94 126 158 206 256 313 372
#     4  11  21  41  67  90 117 168 217 254 299 371
#
# _framework density 22.15766
#
# number of rings (size 3 to 8) (size 9 to 14) (size 15 to 20)
#    0.000    1.091    2.727    7.636    1.273    0.000 
#    0.000    0.000    0.000    3.273    0.000    0.000 
#    0.000    0.000    0.000    0.000    0.000    0.000 
#
# Total GULP energy -122787.052091 kJ/mol
# GULP energy per Si atom -5581.229641 kJ/mol
# Density = 2.210723 g / cm^3
# Si number density = 22.157660 Si / 1000 Ang^3
#
#
#
# Elastic Constant Matrix: (Units=GPa)
#
#
# Indices 1 2 3 4 5 6 
#
# 1 39.2695 29.0894 0.0318 0.0000 5.3332 0.0000
# 2 29.0894 198.7418 42.2916 0.0000 15.2236 0.0000
# 3 0.0318 42.2916 51.3192 0.0000 -15.1011 0.0000
# 4 0.0000 0.0000 0.0000 25.9611 0.0000 2.3323
# 5 5.3332 15.2236 -15.1011 0.0000 27.1330 0.0000
# 6 0.0000 0.0000 0.0000 2.3323 0.0000 27.8649
#
#
#
# Elastic Compliance Matrix: (Units=1/GPa)
#
#
# Indices 1 2 3 4 5 6 
#
# 1 0.029321 -0.005080 0.003959 0.000000 -0.000710 0.000000
# 2 -0.005080 0.008564 -0.009775 0.000000 -0.009247 0.000000
# 3 0.003959 -0.009775 0.034588 0.000000 0.023956 0.000000
# 4 0.000000 0.000000 0.000000 0.038811 0.000000 -0.003249
# 5 -0.000710 -0.009247 0.023956 0.000000 0.055516 0.000000
# 6 0.000000 0.000000 0.000000 -0.003249 0.000000 0.036159
#
#
# Mechanical properties :
#
#
# Convention : Reuss Voigt Hill
#
# Bulk Modulus (GPa) = 19.73087 48.01735 33.87411
# Shear Modulus (GPa) = 20.69159 30.71964 25.70562
#
# Velocity S-wave (km/s) = 3.05919 3.72749 3.40975
# Velocity P-wave (km/s) = 4.62626 6.34377 5.55183
#
# Compressibility (1/GPa) = 0.05068201
#
# Stress axis : x y z
#
# Youngs Moduli (GPa) = 34.10504 116.77454 28.91169
#
# Poissons Ratio (x) = 0.59320 -0.11447
# Poissons Ratio (y) = 0.17325 0.28261
# Poissons Ratio (z) = -0.13503 1.14145
#
# Static dielectric constant tensor:
#      x y z
#    x 1.850830 0.000000 -0.028810 
#    y 0.000000 1.863450 0.000000 
#    z -0.028810 0.000000 1.857930 
# 
# From -- ./inp_files/86100.got.cif
#   From: 2010.05.17/outbox.cif.g08.bks.cpg/sg15_44_cif.got.tgz:86100.got - 2010.06.03 18:47:42.
