data_PCOD9264610
_publ_section_title
;
Structure prediction by ZEFSAII (Michael W. Deem and Ramdas Pophale) SiO2 
 PCOD9264610
Probable space group: C 2/C
;
_chemical_formula_sum "Si O2"
_cell_formula_units_Z 52
_cell_length_a 16.116140
_cell_length_b 14.825426
_cell_length_c 8.055678
_cell_angle_alpha 90.000000
_cell_angle_beta 91.076076
_cell_angle_gamma 90.000000
_cell_volume 1924.392753
_symmetry_space_group_name_H-M "C 2/C"
_symmetry_group_IT_number 15
_symmetry_cell_setting 'monoclinic'
loop_
_space_group_symop_operation_xyz
x,y,z
-x,y,1/2-z
-x,-y,-z
x,-y,1/2+z
1/2+x,1/2+y,z
1/2-x,1/2+y,1/2-z
1/2-x,1/2-y,-z
1/2+x,1/2-y,1/2+z
loop_
_atom_site_type_symbol
_atom_site_label
_atom_site_fract_x
_atom_site_fract_y
_atom_site_fract_z
Si Si1 0.858285 0.850706 0.927455
Si Si2 0.258606 0.478471 0.109816
Si Si3 0.546100 0.798220 0.926131
Si Si4 0.500000 0.500000 0.500000
Si Si5 0.089225 0.444727 0.187433
Si Si6 0.118154 0.272452 0.390324
Si Si7 0.149027 0.881696 0.088076
O O1 0.860168 0.788898 0.766007
O O2 0.929750 0.927650 0.926989
O O3 0.773781 0.905115 0.962764
O O4 0.883845 0.778649 0.071582
O O5 0.165923 0.507941 0.148980
O O6 0.301634 0.423335 0.258647
O O7 0.313866 0.563482 0.067341
O O8 0.500000 0.809564 0.750000
O O9 0.576425 0.889677 0.015208
O O10 0.477818 0.766390 0.059022
O O11 0.445789 0.416204 0.413456
O O12 0.125204 0.374206 0.325885
O O13 0.000000 0.475899 0.250000
O O14 0.160588 0.223520 0.548415
#
# Coordination Sequence:
#
# PCOD9264610 Si02
#       7
#     8   8   8   4   8   8   8
#     4  10  20  32  55  85 127 162 201 250 300 384
#     4  11  24  40  58  94 125 166 213 261 321 368
#     4  10  19  35  60  92 120 159 212 253 309 379
#     4  10  20  30  54  86 128 168 190 236 308 376
#     4   9  22  44  66  84 121 167 216 268 313 375
#     4  10  20  38  61  88 124 174 207 253 311 376
#     4  11  22  36  59  90 132 162 207 255 310 390
#
# _framework density 27.021508999999998
#
# number of rings (size 3 to 8) (size 9 to 14) (size 15 to 20)
#    0.000    1.846    1.538    4.154    0.000    7.385 
#    0.000    6.923    0.000    0.000    0.000    0.000 
#    0.000    0.000    0.000    0.000    0.000    0.000 
#
# Total GULP energy -144936.797428 kJ/mol
# GULP energy per Si atom -5574.492209 kJ/mol
# Density = 2.696001 g / cm^3
# Si number density = 27.021509 Si / 1000 Ang^3
#
#
#
# Elastic Constant Matrix: (Units=GPa)
#
#
# Indices 1 2 3 4 5 6 
#
# 1 123.7398 2.3081 9.0990 0.0000 -23.9607 0.0000
# 2 2.3081 56.7171 17.2881 0.0000 6.7825 0.0000
# 3 9.0990 17.2881 115.7440 0.0000 -0.7912 0.0000
# 4 0.0000 0.0000 0.0000 37.5627 0.0000 6.8246
# 5 -23.9607 6.7825 -0.7912 0.0000 11.6978 0.0000
# 6 0.0000 0.0000 0.0000 6.8246 0.0000 -18.0065
#
#
#
# Elastic Compliance Matrix: (Units=1/GPa)
#
#
# Indices 1 2 3 4 5 6 
#
# 1 0.014357 -0.004317 -0.000266 0.000000 0.031893 0.000000
# 2 -0.004317 0.021273 -0.002984 0.000000 -0.021379 0.000000
# 3 -0.000266 -0.002984 0.009119 0.000000 0.001803 0.000000
# 4 0.000000 0.000000 0.000000 0.024907 0.000000 0.009440
# 5 0.031893 -0.021379 0.001803 0.000000 0.163331 0.000000
# 6 0.000000 0.000000 0.000000 0.009440 0.000000 -0.051958
#
#
# Mechanical properties :
#
#
# Convention : Reuss Voigt Hill
#
# Bulk Modulus (GPa) = 33.76691 39.28792 36.52742
# Shear Modulus (GPa) = 24.26763 24.08451 24.17607
#
# Velocity S-wave (km/s) = 3.00006 2.98872 2.99439
# Velocity P-wave (km/s) = 4.95216 5.14597 5.04999
#
# Compressibility (1/GPa) = 0.02961479
#
# Stress axis : x y z
#
# Youngs Moduli (GPa) = 69.65117 47.00713 109.66452
#
# Poissons Ratio (x) = 0.20294 0.02915
# Poissons Ratio (y) = 0.30070 0.32727
# Poissons Ratio (z) = 0.01851 0.14028
#
# Static dielectric constant tensor:
#      x y z
#    x 2.134630 0.000000 -0.074820 
#    y 0.000000 2.130180 0.000000 
#    z -0.074820 0.000000 2.226430 
# 
# From -- ./inp_files/40876.got.cif
#   From: 2010.05.17/outbox.cif.g08.bks.cpg/sg15_21_cif.got.tgz:40876.got - 2010.06.03 18:47:42.
