data_PCOD9264637
_publ_section_title
;
Structure prediction by ZEFSAII (Michael W. Deem and Ramdas Pophale) SiO2 
 PCOD9264637
Probable space group: C 2/C
;
_chemical_formula_sum "Si O2"
_cell_formula_units_Z 40
_cell_length_a 18.390871
_cell_length_b 15.788988
_cell_length_c 12.656215
_cell_angle_alpha 90.000000
_cell_angle_beta 34.095991
_cell_angle_gamma 90.000000
_cell_volume 2060.150045
_symmetry_space_group_name_H-M "C 2/C"
_symmetry_group_IT_number 15
_symmetry_cell_setting 'monoclinic'
loop_
_space_group_symop_operation_xyz
x,y,z
-x,y,1/2-z
-x,-y,-z
x,-y,1/2+z
1/2+x,1/2+y,z
1/2-x,1/2+y,1/2-z
1/2-x,1/2-y,-z
1/2+x,1/2-y,1/2+z
loop_
_atom_site_type_symbol
_atom_site_label
_atom_site_fract_x
_atom_site_fract_y
_atom_site_fract_z
Si Si1 0.323290 0.414252 0.159405
Si Si2 0.650920 0.673852 0.092975
Si Si3 0.858765 0.834010 0.454248
Si Si4 0.105692 0.105892 0.373990
Si Si5 0.855786 0.632962 0.438824
O O1 0.361630 0.512850 0.121424
O O2 0.202842 0.394189 0.378862
O O3 0.307597 0.378988 0.060408
O O4 0.452475 0.372711 0.055140
O O5 0.500000 0.700298 0.250000
O O6 0.649645 0.617563 0.201028
O O7 0.750000 0.750000 0.000000
O O8 0.834163 0.835062 0.609128
O O9 0.862118 0.734949 0.422534
O O10 0.749402 0.886957 0.524922
O O11 0.000000 0.869166 0.250000
O O12 0.000000 0.598556 0.250000
#
# Coordination Sequence:
#
# PCOD9264637 Si02
#       5
#     8   8   8   8   8
#     4  10  21  37  61  87 118 152 200 246 288 349
#     4  10  22  41  63  89 121 159 201 246 298 359
#     4  10  19  35  61  84 115 153 195 241 285 350
#     4  10  21  36  63  88 114 155 201 244 288 347
#     4  10  21  36  57  88 119 149 190 244 297 345
#
# _framework density 19.416062
#
# number of rings (size 3 to 8) (size 9 to 14) (size 15 to 20)
#    0.000    2.000    2.000    1.200    2.800    0.800 
#    3.600    2.000    0.000    0.000    0.000    0.000 
#    0.000    0.000    0.000    0.000    0.000    0.000 
#
# Total GULP energy -111434.612012 kJ/mol
# GULP energy per Si atom -5571.730601 kJ/mol
# Density = 1.937187 g / cm^3
# Si number density = 19.416062 Si / 1000 Ang^3
#
#
#
# Elastic Constant Matrix: (Units=GPa)
#
#
# Indices 1 2 3 4 5 6 
#
# 1 145.9421 31.4986 71.9920 0.0000 15.9935 0.0000
# 2 31.4986 29.3183 17.3966 0.0000 -5.8833 0.0000
# 3 71.9920 17.3966 147.4396 0.0000 6.1002 0.0000
# 4 0.0000 0.0000 0.0000 -9.2773 0.0000 19.4523
# 5 15.9935 -5.8833 6.1002 0.0000 30.6498 0.0000
# 6 0.0000 0.0000 0.0000 19.4523 0.0000 21.5355
#
#
#
# Elastic Compliance Matrix: (Units=1/GPa)
#
#
# Indices 1 2 3 4 5 6 
#
# 1 0.012597 -0.012597 -0.004328 0.000000 -0.008130 0.000000
# 2 -0.012597 0.051310 -0.000588 0.000000 0.016539 0.000000
# 3 -0.004328 -0.000588 0.008950 0.000000 0.000364 0.000000
# 4 0.000000 0.000000 0.000000 -0.037247 0.000000 0.033644
# 5 -0.008130 0.016539 0.000364 0.000000 0.039971 0.000000
# 6 0.000000 0.000000 0.000000 0.033644 0.000000 0.016046
#
#
# Mechanical properties :
#
#
# Convention : Reuss Voigt Hill
#
# Bulk Modulus (GPa) = 26.43305 62.71937 44.57621
# Shear Modulus (GPa) = 35.90369 22.03579 28.96974
#
# Velocity S-wave (km/s) = 4.30487 3.37252 3.86690
# Velocity P-wave (km/s) = 6.19296 6.89479 6.55328
#
# Compressibility (1/GPa) = 0.03783143
#
# Stress axis : x y z
#
# Youngs Moduli (GPa) = 79.38598 19.48954 111.73169
#
# Poissons Ratio (x) = 0.24550 0.48358
# Poissons Ratio (y) = 1.00000 0.06566
# Poissons Ratio (z) = 0.34359 0.01145
#
# Static dielectric constant tensor:
#      x y z
#    x 1.727690 0.000000 -0.016190 
#    y 0.000000 1.689750 0.000000 
#    z -0.016190 0.000000 1.701330 
# 
# From -- ./inp_files/48787.got.cif
#   From: 2010.05.17/outbox.cif.g08.bks.cpg/sg15_25_cif.got.tgz:48787.got - 2010.06.03 18:47:42.
