data_PCOD9264847
_publ_section_title
;
Structure prediction by ZEFSAII (Michael W. Deem and Ramdas Pophale) SiO2 
 PCOD9264847
Probable space group: C 2/C
;
_chemical_formula_sum "Si O2"
_cell_formula_units_Z 52
_cell_length_a 8.350986
_cell_length_b 34.387407
_cell_length_c 15.021064
_cell_angle_alpha 90.000000
_cell_angle_beta 142.817462
_cell_angle_gamma 90.000000
_cell_volume 2606.939518
_symmetry_space_group_name_H-M "C 2/C"
_symmetry_group_IT_number 15
_symmetry_cell_setting 'monoclinic'
loop_
_space_group_symop_operation_xyz
x,y,z
-x,y,1/2-z
-x,-y,-z
x,-y,1/2+z
1/2+x,1/2+y,z
1/2-x,1/2+y,1/2-z
1/2-x,1/2-y,-z
1/2+x,1/2-y,1/2+z
loop_
_atom_site_type_symbol
_atom_site_label
_atom_site_fract_x
_atom_site_fract_y
_atom_site_fract_z
Si Si1 0.240026 0.360515 0.186764
Si Si2 0.116842 0.629334 0.139903
Si Si3 0.467850 0.539435 0.041003
Si Si4 0.521078 0.299641 0.654529
Si Si5 0.000000 0.939584 0.750000
Si Si6 0.062157 0.285651 0.173342
Si Si7 0.000000 0.412113 0.750000
Si Si8 0.000000 0.591497 0.750000
O O1 0.500000 0.376109 0.250000
O O2 0.280465 0.317133 0.243333
O O3 0.124087 0.384291 0.220729
O O4 0.031099 0.356363 0.013051
O O5 0.307853 0.660917 0.273104
O O6 0.271780 0.591054 0.175283
O O7 0.927963 0.614519 0.134003
O O8 0.426309 0.535876 0.129541
O O9 0.744712 0.561995 0.154666
O O10 0.500000 0.500000 0.000000
O O11 0.231826 0.565027 0.894869
O O12 0.500000 0.294604 0.750000
O O13 0.222381 0.300779 0.487744
O O14 0.627973 0.257817 0.667976
O O15 0.000000 0.284927 0.250000
#
# Coordination Sequence:
#
# PCOD9264847 Si02
#       8
#     8   8   8   8   4   8   4   4
#     4  12  24  40  65 100 138 176 231 287 337 407
#     4  11  20  41  64  92 125 178 226 272 332 405
#     4  11  24  47  69 102 137 175 222 279 348 419
#     4  10  19  35  65  86 124 179 224 269 339 397
#     4  10  20  40  73  94 124 176 220 258 333 422
#     4  10  21  36  59  94 128 173 224 279 337 392
#     4  10  25  40  68 102 132 172 236 286 328 420
#     4  12  25  46  73 100 142 184 220 288 355 402
#
# _framework density 19.946760999999999
#
# number of rings (size 3 to 8) (size 9 to 14) (size 15 to 20)
#    0.000    1.231    4.615    1.385    2.154    1.231 
#    5.538    3.077    0.000    0.000    0.000    0.000 
#    0.000    0.000    0.000    0.000    0.000    0.000 
#
# Total GULP energy -144756.285194 kJ/mol
# GULP energy per Si atom -5567.549431 kJ/mol
# Density = 1.990136 g / cm^3
# Si number density = 19.946761 Si / 1000 Ang^3
#
#
#
# Elastic Constant Matrix: (Units=GPa)
#
#
# Indices 1 2 3 4 5 6 
#
# 1 109.7211 53.3523 33.5212 0.0000 -18.7803 0.0000
# 2 53.3523 106.5830 25.4058 0.0000 -12.3681 0.0000
# 3 33.5212 25.4058 102.0997 0.0000 -14.4754 0.0000
# 4 0.0000 0.0000 0.0000 29.6442 0.0000 -7.6473
# 5 -18.7803 -12.3681 -14.4754 0.0000 30.7671 0.0000
# 6 0.0000 0.0000 0.0000 -7.6473 0.0000 29.8614
#
#
#
# Elastic Compliance Matrix: (Units=1/GPa)
#
#
# Indices 1 2 3 4 5 6 
#
# 1 0.013358 -0.005575 -0.002314 0.000000 0.004823 0.000000
# 2 -0.005575 0.012574 -0.001140 0.000000 0.001115 0.000000
# 3 -0.002314 -0.001140 0.011328 0.000000 0.003459 0.000000
# 4 0.000000 0.000000 0.000000 0.036120 0.000000 0.009250
# 5 0.004823 0.001115 0.003459 0.000000 0.037522 0.000000
# 6 0.000000 0.000000 0.000000 0.009250 0.000000 0.035857
#
#
# Mechanical properties :
#
#
# Convention : Reuss Voigt Hill
#
# Bulk Modulus (GPa) = 52.08193 60.32915 56.20554
# Shear Modulus (GPa) = 29.20241 31.79615 30.49928
#
# Velocity S-wave (km/s) = 3.83040 3.99689 3.91453
# Velocity P-wave (km/s) = 6.76238 7.18407 6.97641
#
# Compressibility (1/GPa) = 0.01920052
#
# Stress axis : x y z
#
# Youngs Moduli (GPa) = 74.86389 79.52739 88.27413
#
# Poissons Ratio (x) = 0.44336 0.20430
# Poissons Ratio (y) = 0.41737 0.10067
# Poissons Ratio (z) = 0.17327 0.09069
#
# Static dielectric constant tensor:
#      x y z
#    x 1.738570 0.000000 -0.013750 
#    y 0.000000 1.826040 0.000000 
#    z -0.013750 0.000000 1.672470 
# 
# From -- ./inp_files/139913.got.cif
#   From: 2010.05.17/outbox.cif.g08.bks.cpg/sg15_70_cif.got.tgz:139913.got - 2010.06.03 18:47:42.
