data_PCOD9264745
_publ_section_title
;
Structure prediction by ZEFSAII (Michael W. Deem and Ramdas Pophale) SiO2 
 PCOD9264745
Probable space group: C 2/C
;
_chemical_formula_sum "Si O2"
_cell_formula_units_Z 32
_cell_length_a 13.380052
_cell_length_b 8.028318
_cell_length_c 12.413242
_cell_angle_alpha 90.000000
_cell_angle_beta 101.622976
_cell_angle_gamma 90.000000
_cell_volume 1306.079486
_symmetry_space_group_name_H-M "C 2/C"
_symmetry_group_IT_number 15
_symmetry_cell_setting 'monoclinic'
loop_
_space_group_symop_operation_xyz
x,y,z
-x,y,1/2-z
-x,-y,-z
x,-y,1/2+z
1/2+x,1/2+y,z
1/2-x,1/2+y,1/2-z
1/2-x,1/2-y,-z
1/2+x,1/2-y,1/2+z
loop_
_atom_site_type_symbol
_atom_site_label
_atom_site_fract_x
_atom_site_fract_y
_atom_site_fract_z
Si Si1 0.296518 0.659590 0.212225
Si Si2 0.052611 0.323061 0.655835
Si Si3 0.921649 0.366636 0.063901
Si Si4 0.714359 0.140100 0.590341
O O1 0.173724 0.677142 0.199289
O O2 0.353801 0.765245 0.133027
O O3 0.335611 0.733027 0.333826
O O4 0.298807 0.468569 0.174110
O O5 0.036397 0.259299 0.529054
O O6 0.000000 0.246782 0.750000
O O7 0.003062 0.509751 0.636324
O O8 0.849015 0.498140 0.986236
O O9 0.750000 0.250000 0.500000
#
# Coordination Sequence:
#
# PCOD9264745 Si02
#       4
#     8   8   8   8
#     4  11  23  40  67 101 136 184 235 283 351 420
#     4  10  19  35  62  93 129 173 230 278 330 413
#     4  10  21  38  64  94 132 181 231 283 348 413
#     4  11  21  37  63  94 132 180 228 279 347 412
#
# _framework density 24.500803000000001
#
# number of rings (size 3 to 8) (size 9 to 14) (size 15 to 20)
#    0.000    1.500    0.000    9.000    0.000    0.000 
#    0.000    0.000    0.000   96.000    0.000    0.000 
#    0.000    0.000    0.000    0.000    0.000    0.000 
#
# Total GULP energy -89103.580242 kJ/mol
# GULP energy per Si atom -5568.973765 kJ/mol
# Density = 2.444504 g / cm^3
# Si number density = 24.500803 Si / 1000 Ang^3
#
#
#
# Elastic Constant Matrix: (Units=GPa)
#
#
# Indices 1 2 3 4 5 6 
#
# 1 100.8818 33.7713 40.7273 0.0000 -24.4333 0.0000
# 2 33.7713 113.9395 71.4917 0.0000 -6.2759 0.0000
# 3 40.7273 71.4917 236.7731 0.0000 -50.8821 0.0000
# 4 0.0000 0.0000 0.0000 56.2167 0.0000 -6.2816
# 5 -24.4333 -6.2759 -50.8821 0.0000 51.9506 0.0000
# 6 0.0000 0.0000 0.0000 -6.2816 0.0000 34.4674
#
#
#
# Elastic Compliance Matrix: (Units=1/GPa)
#
#
# Indices 1 2 3 4 5 6 
#
# 1 0.012347 -0.003410 0.000083 0.000000 0.005476 0.000000
# 2 -0.003410 0.012011 -0.003892 0.000000 -0.003965 0.000000
# 3 0.000083 -0.003892 0.006702 0.000000 0.006133 0.000000
# 4 0.000000 0.000000 0.000000 0.018158 0.000000 0.003309
# 5 0.005476 -0.003965 0.006133 0.000000 0.027353 0.000000
# 6 0.000000 0.000000 0.000000 0.003309 0.000000 0.029616
#
#
# Mechanical properties :
#
#
# Convention : Reuss Voigt Hill
#
# Bulk Modulus (GPa) = 60.16238 82.61946 71.39092
# Shear Modulus (GPa) = 39.63019 48.90055 44.26537
#
# Velocity S-wave (km/s) = 4.02619 4.47237 4.25513
# Velocity P-wave (km/s) = 6.79869 7.77585 7.30363
#
# Compressibility (1/GPa) = 0.01662168
#
# Stress axis : x y z
#
# Youngs Moduli (GPa) = 80.99146 83.25725 149.19849
#
# Poissons Ratio (x) = 0.28389 -0.01231
# Poissons Ratio (y) = 0.27616 0.58070
# Poissons Ratio (z) = -0.00668 0.32405
#
# Static dielectric constant tensor:
#      x y z
#    x 2.035660 0.000000 -0.056250 
#    y 0.000000 2.040860 0.000000 
#    z -0.056250 0.000000 2.011560 
# 
# From -- ./inp_files/149853.got.cif
#   From: 2010.05.17/outbox.cif.g08.bks.cpg/sg15_75_cif.got.tgz:149853.got - 2010.06.03 18:47:42.
