data_PCOD9264670
_publ_section_title
;
Structure prediction by ZEFSAII (Michael W. Deem and Ramdas Pophale) SiO2 
 PCOD9264670
Probable space group: C 2/C
;
_chemical_formula_sum "Si O2"
_cell_formula_units_Z 32
_cell_length_a 4.884682
_cell_length_b 12.824237
_cell_length_c 23.231803
_cell_angle_alpha 90.000000
_cell_angle_beta 119.926237
_cell_angle_gamma 90.000000
_cell_volume 1261.257333
_symmetry_space_group_name_H-M "C 2/C"
_symmetry_group_IT_number 15
_symmetry_cell_setting 'monoclinic'
loop_
_space_group_symop_operation_xyz
x,y,z
-x,y,1/2-z
-x,-y,-z
x,-y,1/2+z
1/2+x,1/2+y,z
1/2-x,1/2+y,1/2-z
1/2-x,1/2-y,-z
1/2+x,1/2-y,1/2+z
loop_
_atom_site_type_symbol
_atom_site_label
_atom_site_fract_x
_atom_site_fract_y
_atom_site_fract_z
Si Si1 0.104792 0.708478 0.532964
Si Si2 0.635204 0.037483 0.466638
Si Si3 0.743135 0.602401 0.320531
Si Si4 0.731227 0.244373 0.320742
O O1 0.214159 0.677113 0.472536
O O2 0.233886 0.705991 0.612955
O O3 0.750000 0.750000 0.500000
O O4 0.021631 0.577596 0.520353
O O5 0.390524 0.039393 0.387969
O O6 0.000000 0.000000 0.500000
O O7 0.500000 0.552651 0.250000
O O8 0.557621 0.704771 0.326516
O O9 0.044400 0.638581 0.316231
O O10 0.500000 0.298507 0.250000
#
# Coordination Sequence:
#
# PCOD9264670 Si02
#       4
#     8   8   8   8
#     4  12  21  38  63  90 123 160 213 261 316 370
#     4  12  24  38  59  92 130 165 208 257 320 383
#     4  10  20  37  61  87 119 159 211 257 311 379
#     4  10  19  35  61  91 116 153 210 270 311 363
#
# _framework density 25.371506
#
# number of rings (size 3 to 8) (size 9 to 14) (size 15 to 20)
#    0.000    1.000    5.000    3.000    0.000    0.000 
#    0.000    1.250    0.000    3.000    0.000    0.000 
#    0.000    0.000    0.000    0.000    0.000    0.000 
#
# Total GULP energy -89240.297073 kJ/mol
# GULP energy per Si atom -5577.518567 kJ/mol
# Density = 2.531376 g / cm^3
# Si number density = 25.371506 Si / 1000 Ang^3
#
#
#
# Elastic Constant Matrix: (Units=GPa)
#
#
# Indices 1 2 3 4 5 6 
#
# 1 142.2640 27.4784 89.4569 0.0000 -9.9650 0.0000
# 2 27.4784 162.5018 106.0572 0.0000 -21.4667 0.0000
# 3 89.4569 106.0572 316.6231 0.0000 1.8533 0.0000
# 4 0.0000 0.0000 0.0000 43.0237 0.0000 -7.2213
# 5 -9.9650 -21.4667 1.8533 0.0000 44.3136 0.0000
# 6 0.0000 0.0000 0.0000 -7.2213 0.0000 48.4235
#
#
#
# Elastic Compliance Matrix: (Units=1/GPa)
#
#
# Indices 1 2 3 4 5 6 
#
# 1 0.008772 0.000584 -0.002688 0.000000 0.002368 0.000000
# 2 0.000584 0.008662 -0.003092 0.000000 0.004457 0.000000
# 3 -0.002688 -0.003092 0.004967 0.000000 -0.002310 0.000000
# 4 0.000000 0.000000 0.000000 0.023840 0.000000 0.003555
# 5 0.002368 0.004457 -0.002310 0.000000 0.025354 0.000000
# 6 0.000000 0.000000 0.000000 0.003555 0.000000 0.021181
#
#
# Mechanical properties :
#
#
# Convention : Reuss Voigt Hill
#
# Bulk Modulus (GPa) = 83.27553 118.59708 100.93631
# Shear Modulus (GPa) = 46.65332 53.71193 50.18262
#
# Velocity S-wave (km/s) = 4.29278 4.60610 4.45220
# Velocity P-wave (km/s) = 7.58053 8.66798 8.14243
#
# Compressibility (1/GPa) = 0.01200833
#
# Stress axis : x y z
#
# Youngs Moduli (GPa) = 113.99289 115.44474 201.32283
#
# Poissons Ratio (x) = -0.06738 0.54113
# Poissons Ratio (y) = -0.06653 0.62259
# Poissons Ratio (z) = 0.30640 0.35701
#
# Static dielectric constant tensor:
#      x y z
#    x 1.798110 0.000000 -0.303020 
#    y 0.000000 2.302340 0.000000 
#    z -0.303020 0.000000 1.614290 
# 
# From -- ./inp_files/183697.got.cif
#   From: 2010.05.17/outbox.cif.g08.bks.cpg/sg15_92_cif.got.tgz:183697.got - 2010.06.03 18:47:42.
