data_PCOD9264343
_publ_section_title
;
Structure prediction by ZEFSAII (Michael W. Deem and Ramdas Pophale) SiO2 
 PCOD9264343
Probable space group: C 2/C
;
_chemical_formula_sum "Si O2"
_cell_formula_units_Z 32
_cell_length_a 9.209621
_cell_length_b 14.902805
_cell_length_c 13.700355
_cell_angle_alpha 90.000000
_cell_angle_beta 125.457749
_cell_angle_gamma 90.000000
_cell_volume 1531.637144
_symmetry_space_group_name_H-M "C 2/C"
_symmetry_group_IT_number 15
_symmetry_cell_setting 'monoclinic'
loop_
_space_group_symop_operation_xyz
x,y,z
-x,y,1/2-z
-x,-y,-z
x,-y,1/2+z
1/2+x,1/2+y,z
1/2-x,1/2+y,1/2-z
1/2-x,1/2-y,-z
1/2+x,1/2-y,1/2+z
loop_
_atom_site_type_symbol
_atom_site_label
_atom_site_fract_x
_atom_site_fract_y
_atom_site_fract_z
Si Si1 0.500000 0.342855 0.750000
Si Si2 0.196248 0.354744 0.995154
Si Si3 0.926571 0.908766 0.928063
Si Si4 0.500000 0.336093 0.250000
Si Si5 0.370124 0.756215 0.892324
O O1 0.435693 0.401638 0.816248
O O2 0.669562 0.280353 0.839676
O O3 0.345276 0.387966 0.130175
O O4 0.250000 0.250000 0.000000
O O5 0.234624 0.397800 0.905535
O O6 0.995604 0.344431 0.952831
O O7 0.047749 0.825507 0.013565
O O8 0.000000 0.000000 0.000000
O O9 0.606179 0.276544 0.211158
#
# Coordination Sequence:
#
# PCOD9264343 Si02
#       5
#     4   8   8   4   8
#     4  12  22  37  58  81 116 156 188 240 286 329
#     4   8  16  32  54  78 106 147 189 219 270 356
#     4  10  22  37  56  87 117 144 191 246 291 336
#     4   8  14  29  54  77 102 140 184 228 268 325
#     4  10  19  35  58  83 110 152 198 226 275 356
#
# _framework density 20.892676999999999
#
# number of rings (size 3 to 8) (size 9 to 14) (size 15 to 20)
#    0.000    3.000    0.000    5.250    0.000    4.000 
#    0.000    3.750    0.000    0.000    0.000    0.000 
#    0.000    0.000    0.000    0.000    0.000    0.000 
#
# Total GULP energy -89113.901205 kJ/mol
# GULP energy per Si atom -5569.618825 kJ/mol
# Density = 2.084512 g / cm^3
# Si number density = 20.892677 Si / 1000 Ang^3
#
#
#
# Elastic Constant Matrix: (Units=GPa)
#
#
# Indices 1 2 3 4 5 6 
#
# 1 103.6800 23.0814 39.5972 0.0000 19.7030 0.0000
# 2 23.0814 47.3163 9.9645 0.0000 -3.2578 0.0000
# 3 39.5972 9.9645 84.4777 0.0000 -9.9314 0.0000
# 4 0.0000 0.0000 0.0000 20.6761 0.0000 3.1678
# 5 19.7030 -3.2578 -9.9314 0.0000 51.6855 0.0000
# 6 0.0000 0.0000 0.0000 3.1678 0.0000 15.1043
#
#
#
# Elastic Compliance Matrix: (Units=1/GPa)
#
#
# Indices 1 2 3 4 5 6 
#
# 1 0.015340 -0.006467 -0.007328 0.000000 -0.007664 0.000000
# 2 -0.006467 0.024440 0.000634 0.000000 0.004128 0.000000
# 3 -0.007328 0.000634 0.015890 0.000000 0.005887 0.000000
# 4 0.000000 0.000000 0.000000 0.049971 0.000000 -0.010480
# 5 -0.007664 0.004128 0.005887 0.000000 0.023661 0.000000
# 6 0.000000 0.000000 0.000000 -0.010480 0.000000 0.068404
#
#
# Mechanical properties :
#
#
# Convention : Reuss Voigt Hill
#
# Bulk Modulus (GPa) = 34.07617 42.30668 38.19143
# Shear Modulus (GPa) = 21.38476 28.34857 24.86666
#
# Velocity S-wave (km/s) = 3.20277 3.68756 3.45368
# Velocity P-wave (km/s) = 5.47928 6.19873 5.85008
#
# Compressibility (1/GPa) = 0.02934602
#
# Stress axis : x y z
#
# Youngs Moduli (GPa) = 65.18886 40.91663 62.93353
#
# Poissons Ratio (x) = 0.26462 0.46120
# Poissons Ratio (y) = 0.42160 -0.03990
# Poissons Ratio (z) = 0.47773 -0.02594
#
# Static dielectric constant tensor:
#      x y z
#    x 1.832160 0.000000 0.009170 
#    y 0.000000 1.744570 0.000000 
#    z 0.009170 0.000000 1.864280 
# 
# From -- ./inp_files/76169.got.cif
#   From: 2010.05.17/outbox.cif.g08.bks.cpg/sg15_39_cif.got.tgz:76169.got - 2010.06.03 18:47:42.
