data_PCOD9264212
_publ_section_title
;
Structure prediction by ZEFSAII (Michael W. Deem and Ramdas Pophale) SiO2 
 PCOD9264212
Probable space group: C 2/C
;
_chemical_formula_sum "Si O2"
_cell_formula_units_Z 56
_cell_length_a 14.100888
_cell_length_b 13.082552
_cell_length_c 17.042342
_cell_angle_alpha 90.000000
_cell_angle_beta 53.030751
_cell_angle_gamma 90.000000
_cell_volume 2511.842315
_symmetry_space_group_name_H-M "C 2/C"
_symmetry_group_IT_number 15
_symmetry_cell_setting 'monoclinic'
loop_
_space_group_symop_operation_xyz
x,y,z
-x,y,1/2-z
-x,-y,-z
x,-y,1/2+z
1/2+x,1/2+y,z
1/2-x,1/2+y,1/2-z
1/2-x,1/2-y,-z
1/2+x,1/2-y,1/2+z
loop_
_atom_site_type_symbol
_atom_site_label
_atom_site_fract_x
_atom_site_fract_y
_atom_site_fract_z
Si Si1 0.614309 0.089736 0.780113
Si Si2 0.185411 0.436214 0.403070
Si Si3 0.433070 0.561818 0.867874
Si Si4 0.621041 0.140806 0.503581
Si Si5 0.500000 0.742824 0.250000
Si Si6 0.875779 0.859265 0.958026
Si Si7 0.500000 0.086885 0.250000
Si Si8 0.610774 0.777368 0.557963
O O1 0.711073 0.089143 0.799800
O O2 0.491031 0.103099 0.889998
O O3 0.607408 0.186084 0.727011
O O4 0.599226 0.987216 0.738631
O O5 0.299477 0.436487 0.400805
O O6 0.137445 0.552600 0.430517
O O7 0.104498 0.347417 0.482848
O O8 0.500000 0.548206 0.750000
O O9 0.430715 0.472647 0.935317
O O10 0.456989 0.669766 0.898186
O O11 0.738176 0.133775 0.500806
O O12 0.611065 0.262203 0.490181
O O13 0.551587 0.678671 0.154252
O O14 0.438185 0.153492 0.347221
O O15 0.750000 0.750000 0.500000
#
# Coordination Sequence:
#
# PCOD9264212 Si02
#       8
#     8   8   8   8   4   8   4   8
#     4  10  20  34  56  86 114 138 187 243 289 327
#     4  10  20  36  57  85 111 143 186 243 286 328
#     4  10  19  35  57  78 111 153 187 217 271 348
#     4   9  17  30  53  79 106 135 178 231 278 322
#     4   9  18  33  54  82 114 147 181 232 278 338
#     4   9  17  31  52  80 104 145 188 217 272 336
#     4  11  20  35  60  84 110 151 189 234 290 334
#     4  10  21  36  56  84 111 151 191 228 279 340
#
# _framework density 22.294392999999999
#
# number of rings (size 3 to 8) (size 9 to 14) (size 15 to 20)
#    0.000    2.286    2.857    0.429    0.000    0.000 
#    0.000    7.143    0.000    3.429    3.714    0.000 
#    0.000    0.000    0.000    0.000    0.000    0.000 
#
# Total GULP energy -155962.509459 kJ/mol
# GULP energy per Si atom -5570.089624 kJ/mol
# Density = 2.224365 g / cm^3
# Si number density = 22.294393 Si / 1000 Ang^3
#
#
#
# Elastic Constant Matrix: (Units=GPa)
#
#
# Indices 1 2 3 4 5 6 
#
# 1 28.7821 19.6819 1.9055 0.0000 13.5204 0.0000
# 2 19.6819 158.3896 25.4958 0.0000 16.9792 0.0000
# 3 1.9055 25.4958 42.6026 0.0000 5.7254 0.0000
# 4 0.0000 0.0000 0.0000 19.7623 0.0000 -3.1017
# 5 13.5204 16.9792 5.7254 0.0000 32.7823 0.0000
# 6 0.0000 0.0000 0.0000 -3.1017 0.0000 12.3103
#
#
#
# Elastic Compliance Matrix: (Units=1/GPa)
#
#
# Indices 1 2 3 4 5 6 
#
# 1 0.045486 -0.004279 0.002816 0.000000 -0.017035 0.000000
# 2 -0.004279 0.007681 -0.004207 0.000000 -0.001479 0.000000
# 3 0.002816 -0.004207 0.026346 0.000000 -0.003584 0.000000
# 4 0.000000 0.000000 0.000000 0.052685 0.000000 0.013274
# 5 -0.017035 -0.001479 -0.003584 0.000000 0.038922 0.000000
# 6 0.000000 0.000000 0.000000 0.013274 0.000000 0.084578
#
#
# Mechanical properties :
#
#
# Convention : Reuss Voigt Hill
#
# Bulk Modulus (GPa) = 14.66860 35.99340 25.33100
# Shear Modulus (GPa) = 17.25557 25.15039 21.20298
#
# Velocity S-wave (km/s) = 2.78508 3.36237 3.08725
# Velocity P-wave (km/s) = 4.11534 5.59050 4.90865
#
# Compressibility (1/GPa) = 0.06817281
#
# Stress axis : x y z
#
# Youngs Moduli (GPa) = 21.98478 130.19232 37.95660
#
# Poissons Ratio (x) = 0.55714 -0.10688
# Poissons Ratio (y) = 0.09408 0.15967
# Poissons Ratio (z) = -0.06191 0.54767
#
# Static dielectric constant tensor:
#      x y z
#    x 3.942880 0.000000 -0.466700 
#    y 0.000000 1.918350 0.000000 
#    z -0.466700 0.000000 1.919390 
# 
# From -- ./inp_files/204404.got.cif
#   From: 2010.05.17/outbox.cif.g08.bks.cpg/sg15_103_cif.got.tgz:204404.got - 2010.06.03 18:47:42.
