data_PCOD9264828
_publ_section_title
;
Structure prediction by ZEFSAII (Michael W. Deem and Ramdas Pophale) SiO2 
 PCOD9264828
Probable space group: C 2/C
;
_chemical_formula_sum "Si O2"
_cell_formula_units_Z 60
_cell_length_a 11.428840
_cell_length_b 15.589197
_cell_length_c 17.096143
_cell_angle_alpha 90.000000
_cell_angle_beta 104.386905
_cell_angle_gamma 90.000000
_cell_volume 2950.437556
_symmetry_space_group_name_H-M "C 2/C"
_symmetry_group_IT_number 15
_symmetry_cell_setting 'monoclinic'
loop_
_space_group_symop_operation_xyz
x,y,z
-x,y,1/2-z
-x,-y,-z
x,-y,1/2+z
1/2+x,1/2+y,z
1/2-x,1/2+y,1/2-z
1/2-x,1/2-y,-z
1/2+x,1/2-y,1/2+z
loop_
_atom_site_type_symbol
_atom_site_label
_atom_site_fract_x
_atom_site_fract_y
_atom_site_fract_z
Si Si1 0.781883 0.148106 0.126408
Si Si2 0.588489 0.467634 0.134740
Si Si3 0.672371 0.509763 0.975755
Si Si4 0.427425 0.911095 0.505037
Si Si5 0.708714 0.172764 0.818150
Si Si6 0.049760 0.366970 0.155152
Si Si7 0.064447 0.429779 0.678432
Si Si8 0.500000 0.589868 0.250000
O O1 0.787512 0.083505 0.053608
O O2 0.750541 0.247798 0.120906
O O3 0.692829 0.109710 0.177185
O O4 0.917523 0.146565 0.181240
O O5 0.446346 0.456111 0.089217
O O6 0.676691 0.389347 0.170032
O O7 0.581424 0.530710 0.207429
O O8 0.642849 0.503783 0.062562
O O9 0.786727 0.569315 0.982449
O O10 0.451522 0.848129 0.437172
O O11 0.476781 0.889406 0.598041
O O12 0.500000 0.000000 0.500000
O O13 0.588682 0.135727 0.839604
O O14 0.647091 0.187080 0.721767
O O15 0.082844 0.467558 0.172105
O O16 0.000000 0.414667 0.750000
#
# Coordination Sequence:
#
# PCOD9264828 Si02
#       8
#     8   8   8   8   8   8   8   4
#     4  11  23  39  60  93 122 157 199 257 312 363
#     4  10  22  37  60  88 124 162 203 250 309 371
#     4  10  21  39  60  93 117 161 209 254 306 373
#     4  10  19  35  64  92 118 147 213 263 290 348
#     4  11  22  37  63  91 124 157 200 256 308 370
#     4  10  20  37  64  91 115 159 209 247 299 359
#     4  11  21  38  65  90 116 158 212 253 298 361
#     4  10  22  38  64  84 120 158 206 246 296 368
#
# _framework density 20.335965999999999
#
# number of rings (size 3 to 8) (size 9 to 14) (size 15 to 20)
#    0.000    1.600    4.000    3.200    3.733    0.533 
#    1.200    0.000    0.000    1.600    0.000    0.000 
#    0.000    0.000    0.000    0.000    0.000    0.000 
#
# Total GULP energy -167139.669969 kJ/mol
# GULP energy per Si atom -5571.322332 kJ/mol
# Density = 2.028968 g / cm^3
# Si number density = 20.335966 Si / 1000 Ang^3
#
#
#
# Elastic Constant Matrix: (Units=GPa)
#
#
# Indices 1 2 3 4 5 6 
#
# 1 94.8358 13.7811 13.7545 0.0000 0.0828 0.0000
# 2 13.7811 34.2143 -8.2315 0.0000 5.6386 0.0000
# 3 13.7545 -8.2315 111.7538 0.0000 -10.2898 0.0000
# 4 0.0000 0.0000 0.0000 27.8704 0.0000 -9.8899
# 5 0.0828 5.6386 -10.2898 0.0000 26.2309 0.0000
# 6 0.0000 0.0000 0.0000 -9.8899 0.0000 26.7800
#
#
#
# Elastic Compliance Matrix: (Units=1/GPa)
#
#
# Indices 1 2 3 4 5 6 
#
# 1 0.011547 -0.005137 -0.001765 0.000000 0.000376 0.000000
# 2 -0.005137 0.032899 0.002496 0.000000 -0.006077 0.000000
# 3 -0.001765 0.002496 0.009649 0.000000 0.003254 0.000000
# 4 0.000000 0.000000 0.000000 0.041292 0.000000 0.015249
# 5 0.000376 -0.006077 0.003254 0.000000 0.040705 0.000000
# 6 0.000000 0.000000 0.000000 0.015249 0.000000 0.042973
#
#
# Mechanical properties :
#
#
# Convention : Reuss Voigt Hill
#
# Bulk Modulus (GPa) = 22.08395 31.04580 26.56488
# Shear Modulus (GPa) = 24.63419 30.94291 27.78855
#
# Velocity S-wave (km/s) = 3.48424 3.90498 3.70059
# Velocity P-wave (km/s) = 5.20285 5.96921 5.59916
#
# Compressibility (1/GPa) = 0.04528175
#
# Stress axis : x y z
#
# Youngs Moduli (GPa) = 86.60458 30.39627 103.63829
#
# Poissons Ratio (x) = 0.15616 0.18292
# Poissons Ratio (y) = 0.44492 -0.25868
# Poissons Ratio (z) = 0.15286 -0.07587
#
# Static dielectric constant tensor:
#      x y z
#    x 1.706120 0.000000 0.013670 
#    y 0.000000 1.738070 0.000000 
#    z 0.013670 0.000000 1.813510 
# 
# From -- ./inp_files/197893.got.cif
#   From: 2010.05.17/outbox.cif.g08.bks.cpg/sg15_99_cif.got.tgz:197893.got - 2010.06.03 18:47:42.
