data_PCOD9264951
_publ_section_title
;
Structure prediction by ZEFSAII (Michael W. Deem and Ramdas Pophale) SiO2 
 PCOD9264951
Probable space group: C 2/C
;
_chemical_formula_sum "Si O2"
_cell_formula_units_Z 56
_cell_length_a 13.859973
_cell_length_b 7.992929
_cell_length_c 22.304038
_cell_angle_alpha 90.000000
_cell_angle_beta 108.402522
_cell_angle_gamma 90.000000
_cell_volume 2344.525408
_symmetry_space_group_name_H-M "C 2/C"
_symmetry_group_IT_number 15
_symmetry_cell_setting 'monoclinic'
loop_
_space_group_symop_operation_xyz
x,y,z
-x,y,1/2-z
-x,-y,-z
x,-y,1/2+z
1/2+x,1/2+y,z
1/2-x,1/2+y,1/2-z
1/2-x,1/2-y,-z
1/2+x,1/2-y,1/2+z
loop_
_atom_site_type_symbol
_atom_site_label
_atom_site_fract_x
_atom_site_fract_y
_atom_site_fract_z
Si Si1 0.303926 0.488973 0.849411
Si Si2 0.689979 0.465656 0.385480
Si Si3 0.239801 0.141766 0.773403
Si Si4 0.967409 0.550308 0.812159
Si Si5 0.643255 0.100528 0.405189
Si Si6 0.487839 0.657508 0.082455
Si Si7 0.158952 0.644470 0.013435
O O1 0.270673 0.322425 0.805547
O O2 0.312139 0.631855 0.801233
O O3 0.214587 0.521212 0.878979
O O4 0.407901 0.442817 0.902980
O O5 0.672708 0.445841 0.311470
O O6 0.697940 0.278302 0.413185
O O7 0.598394 0.545493 0.403970
O O8 0.792649 0.571846 0.416840
O O9 0.346610 0.044334 0.788694
O O10 0.034696 0.396745 0.850386
O O11 0.994573 0.696425 0.864886
O O12 0.000000 0.585025 0.750000
O O13 0.636866 0.018585 0.468536
O O14 0.440835 0.741436 0.013432
O O15 0.250000 0.750000 0.000000
#
# Coordination Sequence:
#
# PCOD9264951 Si02
#       7
#     8   8   8   8   8   8   8
#     4  10  21  37  54  85 115 147 186 231 284 336
#     4  10  21  37  55  86 112 144 188 238 285 323
#     4  10  22  34  55  81 115 145 186 227 281 340
#     4  10  19  36  55  78 109 153 185 218 279 342
#     4  10  20  37  58  83 115 145 186 239 284 326
#     4   9  21  36  58  82 110 146 193 225 282 338
#     4   9  19  39  61  79 109 153 193 231 276 343
#
# _framework density 23.885431000000001
#
# number of rings (size 3 to 8) (size 9 to 14) (size 15 to 20)
#    0.000    2.286    1.429    0.429    4.000    2.286 
#    0.000   15.714    0.000    0.000    0.000    0.000 
#    0.000    0.000    0.000    0.000    0.000    0.000 
#
# Total GULP energy -156443.947061 kJ/mol
# GULP energy per Si atom -5587.283824 kJ/mol
# Density = 2.383107 g / cm^3
# Si number density = 23.885431 Si / 1000 Ang^3
#
#
#
# Elastic Constant Matrix: (Units=GPa)
#
#
# Indices 1 2 3 4 5 6 
#
# 1 53.8206 6.7929 2.7250 0.0000 10.8698 0.0000
# 2 6.7929 49.8517 29.8822 0.0000 2.1214 0.0000
# 3 2.7250 29.8822 53.0697 0.0000 20.0587 0.0000
# 4 0.0000 0.0000 0.0000 23.9787 0.0000 6.3712
# 5 10.8698 2.1214 20.0587 0.0000 28.0529 0.0000
# 6 0.0000 0.0000 0.0000 6.3712 0.0000 19.8326
#
#
#
# Elastic Compliance Matrix: (Units=1/GPa)
#
#
# Indices 1 2 3 4 5 6 
#
# 1 0.021873 -0.007313 0.008207 0.000000 -0.013790 0.000000
# 2 -0.007313 0.037029 -0.028074 0.000000 0.020107 0.000000
# 3 0.008207 -0.028074 0.047454 0.000000 -0.034988 0.000000
# 4 0.000000 0.000000 0.000000 0.045596 0.000000 -0.014648
# 5 -0.013790 0.020107 -0.034988 0.000000 0.064487 0.000000
# 6 0.000000 0.000000 0.000000 -0.014648 0.000000 0.055128
#
#
# Mechanical properties :
#
#
# Convention : Reuss Voigt Hill
#
# Bulk Modulus (GPa) = 19.23269 26.17135 22.70202
# Shear Modulus (GPa) = 14.56629 22.19562 18.38096
#
# Velocity S-wave (km/s) = 2.47217 3.05167 2.77708
# Velocity P-wave (km/s) = 4.02721 4.83712 4.45063
#
# Compressibility (1/GPa) = 0.05199480
#
# Stress axis : x y z
#
# Youngs Moduli (GPa) = 45.71880 27.00615 21.07302
#
# Poissons Ratio (x) = 0.19750 -0.17295
# Poissons Ratio (y) = 0.33434 0.59161
# Poissons Ratio (z) = -0.37521 0.75818
#
# Static dielectric constant tensor:
#      x y z
#    x 1.869310 0.000000 0.024690 
#    y 0.000000 1.949030 0.000000 
#    z 0.024690 0.000000 1.920790 
# 
# From -- ./inp_files/272647.got.cif
#   From: 2010.05.17/outbox.cif.g08.bks.cpg/sg15_137_cif.got.tgz:272647.got - 2010.06.03 18:47:42.
