data_PCOD9264265
_publ_section_title
;
Structure prediction by ZEFSAII (Michael W. Deem and Ramdas Pophale) SiO2 
 PCOD9264265
Probable space group: C 2/C
;
_chemical_formula_sum "Si O2"
_cell_formula_units_Z 56
_cell_length_a 7.233869
_cell_length_b 16.694964
_cell_length_c 21.829295
_cell_angle_alpha 90.000000
_cell_angle_beta 82.992977
_cell_angle_gamma 90.000000
_cell_volume 2616.616086
_symmetry_space_group_name_H-M "C 2/C"
_symmetry_group_IT_number 15
_symmetry_cell_setting 'monoclinic'
loop_
_space_group_symop_operation_xyz
x,y,z
-x,y,1/2-z
-x,-y,-z
x,-y,1/2+z
1/2+x,1/2+y,z
1/2-x,1/2+y,1/2-z
1/2-x,1/2-y,-z
1/2+x,1/2-y,1/2+z
loop_
_atom_site_type_symbol
_atom_site_label
_atom_site_fract_x
_atom_site_fract_y
_atom_site_fract_z
Si Si1 0.929905 0.669972 0.148947
Si Si2 0.500000 0.067600 0.250000
Si Si3 0.000000 0.295087 0.250000
Si Si4 0.695066 0.481492 0.859978
Si Si5 0.125332 0.184423 0.356394
Si Si6 0.931203 0.709336 0.960666
Si Si7 0.772740 0.152435 0.645347
Si Si8 0.945972 0.425852 0.959843
O O1 0.871971 0.627006 0.213984
O O2 0.152221 0.682200 0.146461
O O3 0.856242 0.758348 0.139892
O O4 0.901822 0.606644 0.095532
O O5 0.631034 0.021967 0.195881
O O6 0.068858 0.240499 0.302875
O O7 0.162410 0.347019 0.213675
O O8 0.564569 0.407131 0.848278
O O9 0.612261 0.570409 0.862636
O O10 0.777101 0.456676 0.923607
O O11 0.041180 0.220962 0.421461
O O12 0.858867 0.651100 0.909120
O O13 0.750000 0.750000 0.000000
O O14 0.063007 0.654803 0.998342
O O15 0.000000 0.500000 0.000000
#
# Coordination Sequence:
#
# PCOD9264265 Si02
#       8
#     8   4   4   8   8   8   8   8
#     4  10  20  36  62  82 115 153 191 242 294 346
#     4   8  17  34  55  80 110 154 190 225 300 343
#     4  10  21  38  63  82 116 156 194 235 288 359
#     4  10  20  35  59  86 119 149 192 244 283 345
#     4   9  22  40  59  84 114 153 191 239 296 344
#     4  11  21  38  59  84 116 153 197 232 287 351
#     4  11  20  35  60  88 116 152 195 238 285 343
#     4  10  19  35  57  85 115 153 192 235 282 348
#
# _framework density 21.401688
#
# number of rings (size 3 to 8) (size 9 to 14) (size 15 to 20)
#    0.000    2.286    2.857    2.143    0.000    2.286 
#    0.000    4.286    0.000    0.000    0.000    0.000 
#    0.000    0.000    0.000    0.000    0.000    0.000 
#
# Total GULP energy -155914.684170 kJ/mol
# GULP energy per Si atom -5568.381577 kJ/mol
# Density = 2.135298 g / cm^3
# Si number density = 21.401688 Si / 1000 Ang^3
#
#
#
# Elastic Constant Matrix: (Units=GPa)
#
#
# Indices 1 2 3 4 5 6 
#
# 1 32.4106 3.6317 10.8498 0.0000 -3.4396 0.0000
# 2 3.6317 157.3348 42.2148 0.0000 6.0611 0.0000
# 3 10.8498 42.2148 113.7653 0.0000 5.6509 0.0000
# 4 0.0000 0.0000 0.0000 21.4167 0.0000 3.3729
# 5 -3.4396 6.0611 5.6509 0.0000 22.6954 0.0000
# 6 0.0000 0.0000 0.0000 3.3729 0.0000 18.2992
#
#
#
# Elastic Compliance Matrix: (Units=1/GPa)
#
#
# Indices 1 2 3 4 5 6 
#
# 1 0.032606 -0.000072 -0.003371 0.000000 0.005800 0.000000
# 2 -0.000072 0.007094 -0.002563 0.000000 -0.001267 0.000000
# 3 -0.003371 -0.002563 0.010180 0.000000 -0.002361 0.000000
# 4 0.000000 0.000000 0.000000 0.048088 0.000000 -0.008864
# 5 0.005800 -0.001267 -0.002361 0.000000 0.045867 0.000000
# 6 0.000000 0.000000 0.000000 -0.008864 0.000000 0.056281
#
#
# Mechanical properties :
#
#
# Convention : Reuss Voigt Hill
#
# Bulk Modulus (GPa) = 26.40668 46.32261 36.36465
# Shear Modulus (GPa) = 22.24694 28.93656 25.59175
#
# Velocity S-wave (km/s) = 3.22762 3.68104 3.46176
# Velocity P-wave (km/s) = 5.12400 6.30540 5.74515
#
# Compressibility (1/GPa) = 0.03786920
#
# Stress axis : x y z
#
# Youngs Moduli (GPa) = 30.66900 140.96596 98.23463
#
# Poissons Ratio (x) = 0.01009 0.33117
# Poissons Ratio (y) = 0.00219 0.25173
# Poissons Ratio (z) = 0.10339 0.36123
#
# Static dielectric constant tensor:
#      x y z
#    x 1.817460 0.000000 0.007280 
#    y 0.000000 1.832440 0.000000 
#    z 0.007280 0.000000 1.827930 
# 
# From -- ./inp_files/232146.got.cif
#   From: 2010.05.17/outbox.cif.g08.bks.cpg/sg15_117_cif.got.tgz:232146.got - 2010.06.03 18:47:42.
