data_PCOD9264423
_publ_section_title
;
Structure prediction by ZEFSAII (Michael W. Deem and Ramdas Pophale) SiO2 
 PCOD9264423
Probable space group: C 2/C
;
_chemical_formula_sum "Si O2"
_cell_formula_units_Z 56
_cell_length_a 30.812466
_cell_length_b 10.793966
_cell_length_c 7.791990
_cell_angle_alpha 90.000000
_cell_angle_beta 75.089155
_cell_angle_gamma 90.000000
_cell_volume 2504.264401
_symmetry_space_group_name_H-M "C 2/C"
_symmetry_group_IT_number 15
_symmetry_cell_setting 'monoclinic'
loop_
_space_group_symop_operation_xyz
x,y,z
-x,y,1/2-z
-x,-y,-z
x,-y,1/2+z
1/2+x,1/2+y,z
1/2-x,1/2+y,1/2-z
1/2-x,1/2-y,-z
1/2+x,1/2-y,1/2+z
loop_
_atom_site_type_symbol
_atom_site_label
_atom_site_fract_x
_atom_site_fract_y
_atom_site_fract_z
Si Si1 0.867074 0.793541 0.072529
Si Si2 0.469794 0.399599 0.439927
Si Si3 0.062593 0.605286 0.341738
Si Si4 0.459127 0.851162 0.029884
Si Si5 0.779337 0.082743 0.095177
Si Si6 0.235338 0.813106 0.265728
Si Si7 0.123102 0.982539 0.123105
O O1 0.900702 0.683404 0.090634
O O2 0.814736 0.761614 0.145868
O O3 0.875933 0.902220 0.204620
O O4 0.872725 0.868196 0.888563
O O5 0.500000 0.351137 0.250000
O O6 0.500000 0.500000 0.500000
O O7 0.457059 0.290871 0.583466
O O8 0.424546 0.452436 0.410248
O O9 0.067018 0.456383 0.341706
O O10 0.060062 0.643087 0.145216
O O11 0.012881 0.624334 0.472579
O O12 0.767124 0.192093 0.242333
O O13 0.832796 0.065581 0.023032
O O14 0.759357 0.944180 0.140365
O O15 0.763146 0.134475 0.929518
#
# Coordination Sequence:
#
# PCOD9264423 Si02
#       7
#     8   8   8   8   8   8   8
#     4  10  19  37  58  81 114 146 192 233 288 336
#     4  12  22  38  57  87 113 145 195 236 281 331
#     4  10  19  38  54  75 108 147 186 222 280 337
#     4  10  20  37  56  73 109 151 179 232 276 325
#     4   9  19  36  57  84 114 147 191 226 297 336
#     4   9  19  36  59  84 112 153 184 239 284 346
#     4  10  19  35  59  79 114 149 179 241 284 335
#
# _framework density 22.361857000000001
#
# number of rings (size 3 to 8) (size 9 to 14) (size 15 to 20)
#    0.000    2.000    2.857    1.714    0.000    0.571 
#   12.857    0.000    0.000    0.000    0.000    0.000 
#    0.000    0.000    0.000    0.000    0.000    0.000 
#
# Total GULP energy -156164.564019 kJ/mol
# GULP energy per Si atom -5577.305858 kJ/mol
# Density = 2.231096 g / cm^3
# Si number density = 22.361857 Si / 1000 Ang^3
#
#
#
# Elastic Constant Matrix: (Units=GPa)
#
#
# Indices 1 2 3 4 5 6 
#
# 1 58.7916 35.6505 23.0380 0.0000 -6.6441 0.0000
# 2 35.6505 141.7293 42.1586 0.0000 -7.7329 0.0000
# 3 23.0380 42.1586 35.3788 0.0000 -16.4565 0.0000
# 4 0.0000 0.0000 0.0000 8.3975 0.0000 14.8551
# 5 -6.6441 -7.7329 -16.4565 0.0000 23.7819 0.0000
# 6 0.0000 0.0000 0.0000 14.8551 0.0000 30.5403
#
#
#
# Elastic Compliance Matrix: (Units=1/GPa)
#
#
# Indices 1 2 3 4 5 6 
#
# 1 0.023566 -0.001481 -0.015842 0.000000 -0.004860 0.000000
# 2 -0.001481 0.012178 -0.017546 0.000000 -0.008595 0.000000
# 3 -0.015842 -0.017546 0.080778 0.000000 0.045765 0.000000
# 4 0.000000 0.000000 0.000000 0.853399 0.000000 -0.415102
# 5 -0.004860 -0.008595 0.045765 0.000000 0.069564 0.000000
# 6 0.000000 0.000000 0.000000 -0.415102 0.000000 0.234654
#
#
# Mechanical properties :
#
#
# Convention : Reuss Voigt Hill
#
# Bulk Modulus (GPa) = 21.37457 48.62154 34.99805
# Shear Modulus (GPa) = 3.67790 21.54744 12.61267
#
# Velocity S-wave (km/s) = 1.28386 3.10753 2.37750
# Velocity P-wave (km/s) = 3.43176 5.88778 4.81886
#
# Compressibility (1/GPa) = 0.04678458
#
# Stress axis : x y z
#
# Youngs Moduli (GPa) = 42.43483 82.11248 12.37968
#
# Poissons Ratio (x) = 0.12157 0.19612
# Poissons Ratio (y) = 0.06283 0.21722
# Poissons Ratio (z) = 0.67224 1.44076
#
# Static dielectric constant tensor:
#      x y z
#    x 1.803680 0.000000 0.025050 
#    y 0.000000 1.964940 0.000000 
#    z 0.025050 0.000000 1.977780 
# 
# From -- ./inp_files/69033.got.cif
#   From: 2010.05.17/outbox.cif.g08.bks.cpg/sg15_35_cif.got.tgz:69033.got - 2010.06.03 18:47:42.
