data_PCOD9264860
_publ_section_title
;
Structure prediction by ZEFSAII (Michael W. Deem and Ramdas Pophale) SiO2 
 PCOD9264860
Probable space group: C 2/C
;
_chemical_formula_sum "Si O2"
_cell_formula_units_Z 40
_cell_length_a 19.826095
_cell_length_b 7.162213
_cell_length_c 18.203560
_cell_angle_alpha 90.000000
_cell_angle_beta 40.638516
_cell_angle_gamma 90.000000
_cell_volume 1683.493606
_symmetry_space_group_name_H-M "C 2/C"
_symmetry_group_IT_number 15
_symmetry_cell_setting 'monoclinic'
loop_
_space_group_symop_operation_xyz
x,y,z
-x,y,1/2-z
-x,-y,-z
x,-y,1/2+z
1/2+x,1/2+y,z
1/2-x,1/2+y,1/2-z
1/2-x,1/2-y,-z
1/2+x,1/2-y,1/2+z
loop_
_atom_site_type_symbol
_atom_site_label
_atom_site_fract_x
_atom_site_fract_y
_atom_site_fract_z
Si Si1 0.070958 0.604317 0.498596
Si Si2 0.755779 0.651509 0.632644
Si Si3 0.781522 0.219171 0.268459
Si Si4 0.296086 0.018146 0.888760
Si Si5 0.078517 0.176802 0.127162
O O1 0.143207 0.453477 0.482271
O O2 0.156400 0.710560 0.379483
O O3 0.026628 0.746702 0.594934
O O4 0.000000 0.500000 0.500000
O O5 0.802209 0.755023 0.666241
O O6 0.688199 0.478041 0.719282
O O7 0.699840 0.796850 0.626555
O O8 0.808669 0.392823 0.296953
O O9 0.376933 0.141240 0.867149
O O10 0.181671 0.065453 0.016589
O O11 0.000000 0.085122 0.250000
#
# Coordination Sequence:
#
# PCOD9264860 Si02
#       5
#     8   8   8   8   8
#     4   9  21  38  58  91 121 150 202 251 299 360
#     4  10  19  35  66  89 118 158 202 248 311 358
#     4   9  19  34  62  92 113 160 195 250 307 350
#     4  10  20  42  61  89 124 159 213 247 301 383
#     4  10  23  39  63  86 126 169 196 262 313 348
#
# _framework density 23.760114000000002
#
# number of rings (size 3 to 8) (size 9 to 14) (size 15 to 20)
#    1.200    1.200    2.000    0.000    5.600    0.800 
#    0.000    7.000    0.000    0.000    0.000    0.000 
#    0.000    0.000    0.000    0.000    0.000    0.000 
#
# Total GULP energy -111457.419758 kJ/mol
# GULP energy per Si atom -5572.870988 kJ/mol
# Density = 2.370604 g / cm^3
# Si number density = 23.760114 Si / 1000 Ang^3
#
#
#
# Elastic Constant Matrix: (Units=GPa)
#
#
# Indices 1 2 3 4 5 6 
#
# 1 33.4830 -3.5716 -5.4592 0.0000 7.7966 -0.0001
# 2 -3.5716 97.3051 1.3049 -0.0001 6.5631 -0.0003
# 3 -5.4592 1.3049 88.7379 -0.0001 2.6874 0.0001
# 4 0.0000 -0.0001 -0.0001 27.5163 0.0001 15.1391
# 5 7.7966 6.5631 2.6874 0.0001 31.3589 0.0000
# 6 -0.0001 -0.0003 0.0001 15.1391 0.0000 37.3246
#
#
#
# Elastic Compliance Matrix: (Units=1/GPa)
#
#
# Indices 1 2 3 4 5 6 
#
# 1 0.032422 0.001741 0.002230 0.000000 -0.008616 0.000000
# 2 0.001741 0.010518 0.000032 0.000000 -0.002637 0.000000
# 3 0.002230 0.000032 0.011453 0.000000 -0.001543 0.000000
# 4 0.000000 0.000000 0.000000 0.046782 0.000000 -0.018975
# 5 -0.008616 -0.002637 -0.001543 0.000000 0.034715 0.000000
# 6 0.000000 0.000000 0.000000 -0.018975 0.000000 0.034488
#
#
# Mechanical properties :
#
#
# Convention : Reuss Voigt Hill
#
# Bulk Modulus (GPa) = 16.02576 22.67490 19.35033
# Shear Modulus (GPa) = 27.29694 34.39011 30.84352
#
# Velocity S-wave (km/s) = 3.39315 3.80858 3.60685
# Velocity P-wave (km/s) = 4.70221 5.37628 5.05050
#
# Compressibility (1/GPa) = 0.06239955
#
# Stress axis : x y z
#
# Youngs Moduli (GPa) = 30.84367 95.07242 87.31659
#
# Poissons Ratio (x) = -0.16555 -0.19471
# Poissons Ratio (y) = -0.05371 -0.00282
# Poissons Ratio (z) = -0.06878 -0.00307
#
# Static dielectric constant tensor:
#      x y z
#    x 1.938440 0.000000 -0.005380 
#    y 0.000000 1.917520 0.000000 
#    z -0.005380 0.000000 1.919670 
# 
# From -- ./inp_files/254619.got.cif
#   From: 2010.05.17/outbox.cif.g08.bks.cpg/sg15_128_cif.got.tgz:254619.got - 2010.06.03 18:47:42.
