data_PCOD9264916
_publ_section_title
;
Structure prediction by ZEFSAII (Michael W. Deem and Ramdas Pophale) SiO2 
 PCOD9264916
Probable space group: C 2/C
;
_chemical_formula_sum "Si O2"
_cell_formula_units_Z 64
_cell_length_a 14.456691
_cell_length_b 29.578691
_cell_length_c 17.754588
_cell_angle_alpha 90.000000
_cell_angle_beta 30.547138
_cell_angle_gamma 90.000000
_cell_volume 3858.631692
_symmetry_space_group_name_H-M "C 2/C"
_symmetry_group_IT_number 15
_symmetry_cell_setting 'monoclinic'
loop_
_space_group_symop_operation_xyz
x,y,z
-x,y,1/2-z
-x,-y,-z
x,-y,1/2+z
1/2+x,1/2+y,z
1/2-x,1/2+y,1/2-z
1/2-x,1/2-y,-z
1/2+x,1/2-y,1/2+z
loop_
_atom_site_type_symbol
_atom_site_label
_atom_site_fract_x
_atom_site_fract_y
_atom_site_fract_z
Si Si1 0.822724 0.880178 0.589390
Si Si2 0.680650 0.018686 0.580867
Si Si3 0.163568 0.069122 0.577052
Si Si4 0.018001 0.391906 0.561915
Si Si5 0.119174 0.953427 0.418776
Si Si6 0.297922 0.310888 0.390168
Si Si7 0.980903 0.456882 0.068774
Si Si8 0.209771 0.711262 0.120128
O O1 0.810062 0.895720 0.510337
O O2 0.652250 0.891485 0.762530
O O3 0.816538 0.825673 0.593984
O O4 0.992058 0.909826 0.497840
O O5 0.500000 0.999332 0.750000
O O6 0.772689 0.050681 0.578147
O O7 0.611424 0.038077 0.550164
O O8 0.830147 0.980116 0.463264
O O9 0.344053 0.072081 0.499734
O O10 0.000000 0.074046 0.750000
O O11 0.975512 0.411631 0.509557
O O12 0.138183 0.345546 0.480174
O O13 0.274265 0.955328 0.245532
O O14 0.000000 0.000000 0.500000
O O15 0.500000 0.331727 0.250000
O O16 0.289457 0.294033 0.481551
O O17 0.287854 0.262956 0.353079
O O18 0.000000 0.500000 0.000000
O O19 0.000000 0.697852 0.250000
#
# Coordination Sequence:
#
# PCOD9264916 Si02
#       8
#     8   8   8   8   8   8   8   8
#     4  12  22  35  53  77 112 147 181 219 273 329
#     4  10  22  40  54  70 105 143 178 226 275 312
#     4  12  22  31  52  77 104 138 185 226 262 317
#     4  12  22  35  51  79 111 148 180 221 273 324
#     4  11  23  37  55  78 103 143 187 227 271 323
#     4  10  21  33  55  80 112 145 184 218 264 324
#     4  11  23  37  55  78 105 141 184 230 271 322
#     4  10  19  36  53  79 113 150 175 215 271 330
#
# _framework density 16.586189999999998
#
# number of rings (size 3 to 8) (size 9 to 14) (size 15 to 20)
#    0.000    1.000    5.000    3.000    1.750    1.000 
#    0.000    0.000    0.000    0.000    0.000    0.875 
#    0.000    0.000    0.000    0.000    0.000    0.000 
#
# Total GULP energy -178213.921224 kJ/mol
# GULP energy per Si atom -5569.185038 kJ/mol
# Density = 1.654844 g / cm^3
# Si number density = 16.586190 Si / 1000 Ang^3
#
#
#
# Elastic Constant Matrix: (Units=GPa)
#
#
# Indices 1 2 3 4 5 6 
#
# 1 82.5514 39.1092 38.1459 0.0042 7.8235 -0.0180
# 2 39.1092 104.7184 45.3770 0.0130 -2.7953 -0.0126
# 3 38.1459 45.3770 124.8507 0.0635 6.0556 -0.0352
# 4 0.0042 0.0130 0.0635 24.8185 -0.0155 -13.8219
# 5 7.8235 -2.7953 6.0556 -0.0155 23.3585 0.0170
# 6 -0.0180 -0.0126 -0.0352 -13.8219 0.0170 1.6038
#
#
#
# Elastic Compliance Matrix: (Units=1/GPa)
#
#
# Indices 1 2 3 4 5 6 
#
# 1 0.016322 -0.004971 -0.002923 -0.000021 -0.005304 -0.000045
# 2 -0.004971 0.012989 -0.003401 0.000009 0.004101 0.000007
# 3 -0.002923 -0.003401 0.010240 -0.000021 -0.002083 0.000008
# 4 -0.000021 0.000009 -0.000021 -0.010604 0.000073 -0.091390
# 5 -0.005304 0.004101 -0.002083 0.000073 0.045618 0.000073
# 6 -0.000045 0.000007 0.000008 -0.091390 0.000073 -0.164099
#
#
# Mechanical properties :
#
#
# Convention : Reuss Voigt Hill
#
# Bulk Modulus (GPa) = 58.95824 61.93161 60.44492
# Shear Modulus (GPa) = -81.57839 22.58871 -29.49484
#
# Velocity S-wave (km/s) = -7.02078 3.69439 -4.22154
# Velocity P-wave (km/s) = 5.48616 7.45777 3.57214
#
# Compressibility (1/GPa) = 0.01696116
#
# Stress axis : x y z
#
# Youngs Moduli (GPa) = 61.26747 76.98781 97.65828
#
# Poissons Ratio (x) = 0.38268 0.28546
# Poissons Ratio (y) = 0.30454 0.33214
# Poissons Ratio (z) = 0.17909 0.26184
#
# Static dielectric constant tensor:
#      x y z
#    x 1.554370 -0.000010 0.008360 
#    y -0.000010 1.634690 -0.000040 
#    z 0.008360 -0.000040 1.663170 
# 
# From -- ./inp_files/207582.got.cif
#   From: 2010.05.17/outbox.cif.g08.bks.cpg/sg15_104_cif.got.tgz:207582.got - 2010.06.03 18:47:42.
