data_PCOD9264008
_publ_section_title
;
Structure prediction by ZEFSAII (Michael W. Deem and Ramdas Pophale) SiO2 
 PCOD9264008
Probable space group: C 2/C
;
_chemical_formula_sum "Si O2"
_cell_formula_units_Z 48
_cell_length_a 14.824952
_cell_length_b 4.977853
_cell_length_c 25.332004
_cell_angle_alpha 90.000000
_cell_angle_beta 84.585062
_cell_angle_gamma 90.000000
_cell_volume 1861.069060
_symmetry_space_group_name_H-M "C 2/C"
_symmetry_group_IT_number 15
_symmetry_cell_setting 'monoclinic'
loop_
_space_group_symop_operation_xyz
x,y,z
-x,y,1/2-z
-x,-y,-z
x,-y,1/2+z
1/2+x,1/2+y,z
1/2-x,1/2+y,1/2-z
1/2-x,1/2-y,-z
1/2+x,1/2-y,1/2+z
loop_
_atom_site_type_symbol
_atom_site_label
_atom_site_fract_x
_atom_site_fract_y
_atom_site_fract_z
Si Si1 0.192791 0.814949 0.447527
Si Si2 0.292064 0.469843 0.360933
Si Si3 0.517675 0.878954 0.912667
Si Si4 0.099150 0.467308 0.174493
Si Si5 0.617686 0.824850 0.493875
Si Si6 0.194682 0.586825 0.268056
O O1 0.265923 0.633167 0.414110
O O2 0.159666 0.622012 0.497266
O O3 0.105792 0.805264 0.412229
O O4 0.189959 0.116831 0.467257
O O5 0.324713 0.163791 0.357086
O O6 0.204719 0.489801 0.327227
O O7 0.371812 0.657021 0.332243
O O8 0.486970 0.966601 0.856649
O O9 0.545744 0.125363 0.950067
O O10 0.434755 0.745955 0.950367
O O11 0.108016 0.544322 0.235713
O O12 0.270999 0.392496 0.236722
#
# Coordination Sequence:
#
# PCOD9264008 Si02
#       6
#     8   8   8   8   8   8
#     4  10  19  35  53  74 101 142 163 208 259 309
#     4  10  20  34  53  78 106 130 165 216 264 297
#     4   9  21  34  57  72 101 138 178 208 242 313
#     4  10  20  33  55  79  99 132 177 211 247 304
#     4   9  20  34  56  69 104 139 177 194 263 303
#     4   8  16  32  50  72 101 133 160 199 257 310
#
# _framework density 25.791627999999999
#
# number of rings (size 3 to 8) (size 9 to 14) (size 15 to 20)
#    1.000    1.667    0.000    1.500    2.333    0.000 
#    0.000    5.833    0.000    0.000    4.333    0.000 
#    0.000    0.000    0.000    0.000    0.000    0.000 
#
# Total GULP energy -133827.870683 kJ/mol
# GULP energy per Si atom -5576.161278 kJ/mol
# Density = 2.573293 g / cm^3
# Si number density = 25.791628 Si / 1000 Ang^3
#
#
#
# Elastic Constant Matrix: (Units=GPa)
#
#
# Indices 1 2 3 4 5 6 
#
# 1 56.9830 2.4770 25.1915 0.0000 36.6570 0.0000
# 2 2.4770 107.3357 -18.2478 0.0000 -4.4982 0.0000
# 3 25.1915 -18.2478 63.5169 0.0000 43.3089 0.0000
# 4 0.0000 0.0000 0.0000 21.4773 0.0000 6.6194
# 5 36.6570 -4.4982 43.3089 0.0000 55.9489 0.0000
# 6 0.0000 0.0000 0.0000 6.6194 0.0000 21.1098
#
#
#
# Elastic Compliance Matrix: (Units=1/GPa)
#
#
# Indices 1 2 3 4 5 6 
#
# 1 0.030790 -0.001191 0.002682 0.000000 -0.022345 0.000000
# 2 -0.001191 0.010076 0.004834 0.000000 -0.002152 0.000000
# 3 0.002682 0.004834 0.036006 0.000000 -0.029241 0.000000
# 4 0.000000 0.000000 0.000000 0.051542 0.000000 -0.016162
# 5 -0.022345 -0.002152 -0.029241 0.000000 0.054975 0.000000
# 6 0.000000 0.000000 0.000000 -0.016162 0.000000 0.052439
#
#
# Mechanical properties :
#
#
# Convention : Reuss Voigt Hill
#
# Bulk Modulus (GPa) = 11.17040 27.40855 19.28947
# Shear Modulus (GPa) = 19.76140 34.26818 27.01479
#
# Velocity S-wave (km/s) = 2.77102 3.64903 3.23991
# Velocity P-wave (km/s) = 3.81818 5.32953 4.63586
#
# Compressibility (1/GPa) = 0.08952231
#
# Stress axis : x y z
#
# Youngs Moduli (GPa) = 32.47859 99.24868 27.77279
#
# Poissons Ratio (x) = 0.11820 -0.07449
# Poissons Ratio (y) = 0.03868 -0.13425
# Poissons Ratio (z) = -0.08712 -0.47977
#
# Static dielectric constant tensor:
#      x y z
#    x 2.204780 0.000000 0.068530 
#    y 0.000000 1.931320 0.000000 
#    z 0.068530 0.000000 2.069560 
# 
# From -- ./inp_files/297288.got.cif
#   From: 2010.05.17/outbox.cif.g08.bks.cpg/sg15_149_cif.got.tgz:297288.got - 2010.06.03 18:47:42.
