data_PCOD9264759
_publ_section_title
;
Structure prediction by ZEFSAII (Michael W. Deem and Ramdas Pophale) SiO2 
 PCOD9264759
Probable space group: C 2/C
;
_chemical_formula_sum "Si O2"
_cell_formula_units_Z 48
_cell_length_a 20.914889
_cell_length_b 14.612452
_cell_length_c 10.956983
_cell_angle_alpha 90.000000
_cell_angle_beta 34.803672
_cell_angle_gamma 90.000000
_cell_volume 1911.295735
_symmetry_space_group_name_H-M "C 2/C"
_symmetry_group_IT_number 15
_symmetry_cell_setting 'monoclinic'
loop_
_space_group_symop_operation_xyz
x,y,z
-x,y,1/2-z
-x,-y,-z
x,-y,1/2+z
1/2+x,1/2+y,z
1/2-x,1/2+y,1/2-z
1/2-x,1/2-y,-z
1/2+x,1/2-y,1/2+z
loop_
_atom_site_type_symbol
_atom_site_label
_atom_site_fract_x
_atom_site_fract_y
_atom_site_fract_z
Si Si1 0.385357 0.900437 0.460731
Si Si2 0.465114 0.606970 0.081998
Si Si3 0.610373 0.106741 0.011033
Si Si4 0.745554 0.403276 0.428231
Si Si5 0.816155 0.167735 0.835406
Si Si6 0.316376 0.402280 0.583775
O O1 0.500000 0.850696 0.250000
O O2 0.315612 0.915418 0.444607
O O3 0.303028 0.858150 0.690362
O O4 0.419972 0.000006 0.462473
O O5 0.376797 0.624804 0.329739
O O6 0.394771 0.625442 0.070449
O O7 0.500000 0.500000 0.000000
O O8 0.578085 0.665725 0.918908
O O9 0.500000 0.148549 0.250000
O O10 0.666221 0.148187 0.800498
O O11 0.714455 0.109657 0.940363
O O12 0.713676 0.491697 0.395179
O O13 0.750000 0.250000 0.000000
O O14 0.867645 0.124140 0.875991
#
# Coordination Sequence:
#
# PCOD9264759 Si02
#       6
#     8   8   8   8   8   8
#     4   9  18  31  59  92 123 160 199 273 342 368
#     4  11  21  38  67  97 123 165 219 294 341 371
#     4  10  22  36  58  89 123 163 205 260 323 392
#     4  10  19  35  62  96 126 150 219 283 334 379
#     4  12  25  40  59  87 128 175 211 256 337 413
#     4  10  20  35  59  93 126 159 214 276 330 387
#
# _framework density 25.113851
#
# number of rings (size 3 to 8) (size 9 to 14) (size 15 to 20)
#    0.000    1.667    3.333    2.500    2.333    5.333 
#    0.000    0.000    3.667    3.000    0.000    0.000 
#    0.000    0.000    0.000    0.000    0.000    0.000 
#
# Total GULP energy -133646.432321 kJ/mol
# GULP energy per Si atom -5568.601347 kJ/mol
# Density = 2.505669 g / cm^3
# Si number density = 25.113851 Si / 1000 Ang^3
#
#
#
# Elastic Constant Matrix: (Units=GPa)
#
#
# Indices 1 2 3 4 5 6 
#
# 1 46.1896 7.1379 57.8205 0.0000 1.0608 0.0000
# 2 7.1379 30.6857 19.3971 0.0000 -1.0514 0.0000
# 3 57.8205 19.3971 304.0314 0.0000 -16.6348 0.0000
# 4 0.0000 0.0000 0.0000 18.1856 0.0000 -2.5471
# 5 1.0608 -1.0514 -16.6348 0.0000 50.9521 0.0000
# 6 0.0000 0.0000 0.0000 -2.5471 0.0000 0.5992
#
#
#
# Elastic Compliance Matrix: (Units=1/GPa)
#
#
# Indices 1 2 3 4 5 6 
#
# 1 0.029042 -0.003401 -0.005440 0.000000 -0.002451 0.000000
# 2 -0.003401 0.034356 -0.001530 0.000000 0.000280 0.000000
# 3 -0.005440 -0.001530 0.004506 0.000000 0.001553 0.000000
# 4 0.000000 0.000000 0.000000 0.135908 0.000000 0.577752
# 5 -0.002451 0.000280 0.001553 0.000000 0.020190 0.000000
# 6 0.000000 0.000000 0.000000 0.577752 0.000000 4.125052
#
#
# Mechanical properties :
#
#
# Convention : Reuss Voigt Hill
#
# Bulk Modulus (GPa) = 21.20313 61.06865 41.13589
# Shear Modulus (GPa) = 1.14012 33.71747 17.42879
#
# Velocity S-wave (km/s) = 0.67451 3.66810 2.63723
# Velocity P-wave (km/s) = 3.01127 6.50458 5.06839
#
# Compressibility (1/GPa) = 0.04716284
#
# Stress axis : x y z
#
# Youngs Moduli (GPa) = 34.43301 29.10692 221.90953
#
# Poissons Ratio (x) = 0.09898 1.20726
# Poissons Ratio (y) = 0.11709 0.33949
# Poissons Ratio (z) = 0.18733 0.04453
#
# Static dielectric constant tensor:
#      x y z
#    x 1.964340 0.000000 0.029250 
#    y 0.000000 2.064510 0.000000 
#    z 0.029250 0.000000 2.090160 
# 
# From -- ./inp_files/88513.got.cif
#   From: 2010.05.17/outbox.cif.g08.bks.cpg/sg15_45_cif.got.tgz:88513.got - 2010.06.03 18:47:42.
