data_PCOD9264252
_publ_section_title
;
Structure prediction by ZEFSAII (Michael W. Deem and Ramdas Pophale) SiO2 
 PCOD9264252
Probable space group: C 2/C
;
_chemical_formula_sum "Si O2"
_cell_formula_units_Z 64
_cell_length_a 17.945442
_cell_length_b 18.375137
_cell_length_c 19.922925
_cell_angle_alpha 90.000000
_cell_angle_beta 149.694834
_cell_angle_gamma 90.000000
_cell_volume 3315.047826
_symmetry_space_group_name_H-M "C 2/C"
_symmetry_group_IT_number 15
_symmetry_cell_setting 'monoclinic'
loop_
_space_group_symop_operation_xyz
x,y,z
-x,y,1/2-z
-x,-y,-z
x,-y,1/2+z
1/2+x,1/2+y,z
1/2-x,1/2+y,1/2-z
1/2-x,1/2-y,-z
1/2+x,1/2-y,1/2+z
loop_
_atom_site_type_symbol
_atom_site_label
_atom_site_fract_x
_atom_site_fract_y
_atom_site_fract_z
Si Si1 0.901184 0.214052 0.851583
Si Si2 0.643218 0.449824 0.219310
Si Si3 0.946620 0.284482 0.403264
Si Si4 0.826244 0.545263 0.003186
Si Si5 0.903237 0.292824 0.608037
Si Si6 0.560888 0.958124 0.112123
Si Si7 0.906111 0.211705 0.108856
Si Si8 0.913410 0.954632 0.611092
O O1 0.920144 0.128548 0.850258
O O2 0.725332 0.227687 0.713018
O O3 0.997054 0.256639 0.871729
O O4 0.957810 0.243077 0.966788
O O5 0.733835 0.445230 0.361039
O O6 0.763218 0.469371 0.255620
O O7 0.517664 0.508322 0.136939
O O8 0.997430 0.252419 0.371949
O O9 0.969392 0.371986 0.419020
O O10 0.725503 0.504782 0.979411
O O11 0.868616 0.624920 0.060125
O O12 0.968910 0.495010 0.099854
O O13 0.750000 0.250000 0.500000
O O14 0.000000 0.290698 0.750000
O O15 0.500000 0.000000 0.000000
O O16 0.877652 0.128170 0.065589
O O17 0.000000 0.211471 0.250000
O O18 0.750000 0.250000 0.000000
O O19 0.000000 0.952256 0.750000
#
# Coordination Sequence:
#
# PCOD9264252 Si02
#       8
#     8   8   8   8   8   8   8   8
#     4  11  22  39  59  88 121 155 198 245 296 353
#     4   9  18  34  57  83 113 153 196 242 289 346
#     4  11  23  39  63  90 119 156 196 244 299 355
#     4  10  19  35  57  83 112 152 201 245 286 347
#     4  12  24  39  60  89 123 161 200 247 301 358
#     4   9  18  34  57  83 112 151 196 237 286 353
#     4  11  23  41  64  91 120 157 201 249 300 359
#     4   9  19  35  58  83 114 157 201 237 290 361
#
# _framework density 19.305906
#
# number of rings (size 3 to 8) (size 9 to 14) (size 15 to 20)
#    0.000    1.750    0.000    6.000    0.000    6.000 
#    0.000    5.625    0.000    1.500    0.000    0.000 
#    0.000    0.000    0.000    0.000    0.000    0.000 
#
# Total GULP energy -178693.576134 kJ/mol
# GULP energy per Si atom -5584.174254 kJ/mol
# Density = 1.926196 g / cm^3
# Si number density = 19.305906 Si / 1000 Ang^3
#
#
#
# Elastic Constant Matrix: (Units=GPa)
#
#
# Indices 1 2 3 4 5 6 
#
# 1 98.8378 82.4249 33.7772 -0.0046 23.7030 0.0009
# 2 82.4249 181.5069 65.5858 -0.0024 37.6176 -0.0005
# 3 33.7772 65.5858 76.6180 -0.0043 17.3702 0.0005
# 4 -0.0046 -0.0024 -0.0043 33.8489 -0.0027 9.9417
# 5 23.7030 37.6176 17.3702 -0.0027 32.6867 0.0012
# 6 0.0009 -0.0005 0.0005 9.9417 0.0012 57.6620
#
#
#
# Elastic Compliance Matrix: (Units=1/GPa)
#
#
# Indices 1 2 3 4 5 6 
#
# 1 0.016814 -0.006392 -0.000960 0.000001 -0.004326 0.000000
# 2 -0.006392 0.011744 -0.005937 -0.000001 -0.005726 0.000001
# 3 -0.000960 -0.005937 0.019159 0.000002 -0.002652 0.000000
# 4 0.000001 -0.000001 0.000002 0.031119 0.000002 -0.005365
# 5 -0.004326 -0.005726 -0.002652 0.000002 0.041729 -0.000001
# 6 0.000000 0.000001 0.000000 -0.005365 -0.000001 0.018268
#
#
# Mechanical properties :
#
#
# Convention : Reuss Voigt Hill
#
# Bulk Modulus (GPa) = 47.30774 80.05984 63.68379
# Shear Modulus (GPa) = 28.99299 36.51785 32.75542
#
# Velocity S-wave (km/s) = 3.87947 4.35390 4.12351
# Velocity P-wave (km/s) = 6.68016 8.17523 7.46522
#
# Compressibility (1/GPa) = 0.02113819
#
# Stress axis : x y z
#
# Youngs Moduli (GPa) = 59.47595 85.15036 52.19609
#
# Poissons Ratio (x) = 0.54426 0.05011
# Poissons Ratio (y) = 0.38015 0.30989
# Poissons Ratio (z) = 0.05710 0.50555
#
# Static dielectric constant tensor:
#      x y z
#    x 1.697180 0.000000 -0.008880 
#    y 0.000000 1.642300 0.000000 
#    z -0.008880 0.000000 1.674640 
# 
# From -- ./inp_files/249645.got.cif
#   From: 2010.05.17/outbox.cif.g08.bks.cpg/sg15_125_cif.got.tgz:249645.got - 2010.06.03 18:47:42.
