data_PCOD9264749
_publ_section_title
;
Structure prediction by ZEFSAII (Michael W. Deem and Ramdas Pophale) SiO2 
 PCOD9264749
Probable space group: C 2/C
;
_chemical_formula_sum "Si O2"
_cell_formula_units_Z 52
_cell_length_a 8.630147
_cell_length_b 25.399422
_cell_length_c 13.430141
_cell_angle_alpha 90.000000
_cell_angle_beta 44.908130
_cell_angle_gamma 90.000000
_cell_volume 2078.309013
_symmetry_space_group_name_H-M "C 2/C"
_symmetry_group_IT_number 15
_symmetry_cell_setting 'monoclinic'
loop_
_space_group_symop_operation_xyz
x,y,z
-x,y,1/2-z
-x,-y,-z
x,-y,1/2+z
1/2+x,1/2+y,z
1/2-x,1/2+y,1/2-z
1/2-x,1/2-y,-z
1/2+x,1/2-y,1/2+z
loop_
_atom_site_type_symbol
_atom_site_label
_atom_site_fract_x
_atom_site_fract_y
_atom_site_fract_z
Si Si1 0.636660 0.575625 0.007714
Si Si2 0.782985 0.682820 0.663836
Si Si3 0.584017 0.675859 0.339591
Si Si4 0.227676 0.036562 0.468183
Si Si5 0.000000 0.086092 0.750000
Si Si6 0.000000 0.380273 0.750000
Si Si7 0.000000 0.357484 0.250000
Si Si8 0.412900 0.248513 0.088069
O O1 0.413885 0.549074 0.066973
O O2 0.783498 0.607441 0.861680
O O3 0.555765 0.622620 0.116498
O O4 0.784554 0.524216 0.962376
O O5 0.699576 0.625485 0.677441
O O6 0.966336 0.676645 0.666502
O O7 0.599912 0.715939 0.807183
O O8 0.882858 0.710236 0.522338
O O9 0.795089 0.655115 0.308560
O O10 0.442939 0.713262 0.478594
O O11 0.703852 0.709847 0.198737
O O12 0.060045 0.051364 0.630186
O O13 0.422374 0.078882 0.371569
#
# Coordination Sequence:
#
# PCOD9264749 Si02
#       8
#     8   8   8   8   4   4   4   8
#     4  10  21  41  65  88 129 177 218 254 328 390
#     4  11  24  40  66  92 136 166 220 259 327 375
#     4  10  20  38  59  91 130 164 216 263 321 382
#     4  10  21  39  67  93 127 170 213 269 325 386
#     4  12  22  43  64 103 129 163 210 290 310 386
#     4  10  19  35  62  94 126 169 208 263 322 398
#     4  12  21  44  64  93 121 184 204 271 308 400
#     4  10  22  40  60  98 124 178 208 268 317 390
#
# _framework density 25.020340999999998
#
# number of rings (size 3 to 8) (size 9 to 14) (size 15 to 20)
#    0.000    1.538    3.077    2.308    0.000    4.308 
#    2.769    0.769    0.000    0.000    0.000    0.000 
#    0.000    0.000    0.000    0.000    0.000    0.000 
#
# Total GULP energy -145170.892642 kJ/mol
# GULP energy per Si atom -5583.495871 kJ/mol
# Density = 2.496339 g / cm^3
# Si number density = 25.020341 Si / 1000 Ang^3
#
#
#
# Elastic Constant Matrix: (Units=GPa)
#
#
# Indices 1 2 3 4 5 6 
#
# 1 41.9649 15.6333 20.7733 0.0000 -8.9432 0.0000
# 2 15.6333 165.9391 68.1756 0.0000 7.2541 0.0000
# 3 20.7733 68.1756 167.1206 0.0000 11.8735 0.0000
# 4 0.0000 0.0000 0.0000 54.8054 0.0000 10.6690
# 5 -8.9432 7.2541 11.8735 0.0000 34.6964 0.0000
# 6 0.0000 0.0000 0.0000 10.6690 0.0000 9.7744
#
#
#
# Elastic Compliance Matrix: (Units=1/GPa)
#
#
# Indices 1 2 3 4 5 6 
#
# 1 0.027993 -0.001603 -0.003446 0.000000 0.008730 0.000000
# 2 -0.001603 0.007341 -0.002723 0.000000 -0.001016 0.000000
# 3 -0.003446 -0.002723 0.007734 0.000000 -0.002965 0.000000
# 4 0.000000 0.000000 0.000000 0.023170 0.000000 -0.025290
# 5 0.008730 -0.001016 -0.002965 0.000000 0.032299 0.000000
# 6 0.000000 0.000000 0.000000 -0.025290 0.000000 0.129912
#
#
# Mechanical properties :
#
#
# Convention : Reuss Voigt Hill
#
# Bulk Modulus (GPa) = 36.33339 64.90987 50.62163
# Shear Modulus (GPa) = 19.74992 37.88474 28.81733
#
# Velocity S-wave (km/s) = 2.81259 3.89544 3.39744
# Velocity P-wave (km/s) = 5.01005 6.79939 5.97212
#
# Compressibility (1/GPa) = 0.02752289
#
# Stress axis : x y z
#
# Youngs Moduli (GPa) = 35.72352 136.23013 129.30689
#
# Poissons Ratio (x) = 0.21840 0.44556
# Poissons Ratio (y) = 0.05727 0.35211
# Poissons Ratio (z) = 0.12309 0.37096
#
# Static dielectric constant tensor:
#      x y z
#    x 2.055800 0.000000 -0.045030 
#    y 0.000000 2.001650 0.000000 
#    z -0.045030 0.000000 1.968640 
# 
# From -- ./inp_files/33758.got.cif
#   From: 2010.05.17/outbox.cif.g08.bks.cpg/sg15_17_cif.got.tgz:33758.got - 2010.06.03 18:47:42.
