data_PCOD9264422
_publ_section_title
;
Structure prediction by ZEFSAII (Michael W. Deem and Ramdas Pophale) SiO2 
 PCOD9264422
Probable space group: C 2/C
;
_chemical_formula_sum "Si O2"
_cell_formula_units_Z 60
_cell_length_a 11.829797
_cell_length_b 18.334508
_cell_length_c 24.291854
_cell_angle_alpha 90.000000
_cell_angle_beta 40.987181
_cell_angle_gamma 90.000000
_cell_volume 3455.718271
_symmetry_space_group_name_H-M "C 2/C"
_symmetry_group_IT_number 15
_symmetry_cell_setting 'monoclinic'
loop_
_space_group_symop_operation_xyz
x,y,z
-x,y,1/2-z
-x,-y,-z
x,-y,1/2+z
1/2+x,1/2+y,z
1/2-x,1/2+y,1/2-z
1/2-x,1/2-y,-z
1/2+x,1/2-y,1/2+z
loop_
_atom_site_type_symbol
_atom_site_label
_atom_site_fract_x
_atom_site_fract_y
_atom_site_fract_z
Si Si1 0.088483 0.808821 0.400553
Si Si2 0.500000 0.570175 0.750000
Si Si3 0.645507 0.997127 0.343030
Si Si4 0.299609 0.941838 0.526234
Si Si5 0.559115 0.861595 0.920864
Si Si6 0.239297 0.318927 0.045127
Si Si7 0.413976 0.121277 0.724691
Si Si8 0.664141 0.603112 0.580520
O O1 0.078620 0.721958 0.398192
O O2 0.134569 0.818686 0.448436
O O3 0.245275 0.836230 0.305139
O O4 0.927884 0.855926 0.436543
O O5 0.665911 0.521563 0.703840
O O6 0.557252 0.616593 0.675780
O O7 0.494429 0.967645 0.439180
O O8 0.626150 0.950053 0.295616
O O9 0.605778 0.082592 0.354678
O O10 0.322035 0.892822 0.572844
O O11 0.233215 0.890021 0.502292
O O12 0.183975 0.014768 0.570240
O O13 0.360483 0.870291 0.011798
O O14 0.047760 0.328641 0.141475
O O15 0.250000 0.250000 0.000000
O O16 0.500000 0.098389 0.750000
#
# Coordination Sequence:
#
# PCOD9264422 Si02
#       8
#     8   4   8   8   8   8   8   8
#     4  11  22  37  58  87 121 147 197 245 299 339
#     4  12  18  32  60  86 108 150 198 244 284 344
#     4  10  19  35  59  78 109 150 192 230 285 346
#     4  10  19  37  58  80 112 152 197 228 288 351
#     4  11  20  37  57  85 115 153 188 245 290 349
#     4  10  20  37  58  82 116 156 187 242 297 349
#     4   9  20  37  56  80 109 153 188 235 289 349
#     4  11  22  36  58  87 115 154 195 241 290 356
#
# _framework density 17.362527
#
# number of rings (size 3 to 8) (size 9 to 14) (size 15 to 20)
#    0.000    1.600    5.333    1.200    0.000    0.533 
#    6.000    0.000    1.467    0.000    0.000    0.000 
#    0.000    0.000    0.000    0.000    0.000    0.000 
#
# Total GULP energy -167139.750430 kJ/mol
# GULP energy per Si atom -5571.325014 kJ/mol
# Density = 1.732301 g / cm^3
# Si number density = 17.362527 Si / 1000 Ang^3
#
#
#
# Elastic Constant Matrix: (Units=GPa)
#
#
# Indices 1 2 3 4 5 6 
#
# 1 107.5332 71.2008 46.5958 0.0001 6.3812 -0.0001
# 2 71.2008 132.0630 48.4489 0.0005 10.3257 -0.0002
# 3 46.5958 48.4489 57.9395 0.0010 20.9487 -0.0004
# 4 0.0001 0.0005 0.0010 21.9833 -0.0002 5.4063
# 5 6.3812 10.3257 20.9487 -0.0002 20.2245 0.0001
# 6 -0.0001 -0.0002 -0.0004 5.4063 0.0001 26.2579
#
#
#
# Elastic Compliance Matrix: (Units=1/GPa)
#
#
# Indices 1 2 3 4 5 6 
#
# 1 0.018692 -0.005618 -0.014771 0.000001 0.012271 0.000000
# 2 -0.005618 0.013122 -0.007471 0.000000 0.002812 0.000000
# 3 -0.014771 -0.007471 0.051674 -0.000003 -0.045049 0.000001
# 4 0.000001 0.000000 -0.000003 0.047915 0.000003 -0.009865
# 5 0.012271 0.002812 -0.045049 0.000003 0.090801 -0.000001
# 6 0.000000 0.000000 0.000001 -0.009865 -0.000001 0.040115
#
#
# Mechanical properties :
#
#
# Convention : Reuss Voigt Hill
#
# Bulk Modulus (GPa) = 36.01348 70.00296 53.00822
# Shear Modulus (GPa) = 15.27677 22.44582 18.86129
#
# Velocity S-wave (km/s) = 2.96948 3.59942 3.29952
# Velocity P-wave (km/s) = 5.70475 7.59476 6.71657
#
# Compressibility (1/GPa) = 0.02776738
#
# Stress axis : x y z
#
# Youngs Moduli (GPa) = 53.50010 76.20728 19.35211
#
# Poissons Ratio (x) = 0.42813 0.28585
# Poissons Ratio (y) = 0.30056 0.14459
# Poissons Ratio (z) = 0.79024 0.56937
#
# Static dielectric constant tensor:
#      x y z
#    x 1.620340 0.000000 0.002420 
#    y 0.000000 1.584670 0.000000 
#    z 0.002420 0.000000 1.602630 
# 
# From -- ./inp_files/270587.got.cif
#   From: 2010.05.17/outbox.cif.g08.bks.cpg/sg15_136_cif.got.tgz:270587.got - 2010.06.03 18:47:42.
