data_PCOD9264259
_publ_section_title
;
Structure prediction by ZEFSAII (Michael W. Deem and Ramdas Pophale) SiO2 
 PCOD9264259
Probable space group: C 2/C
;
_chemical_formula_sum "Si O2"
_cell_formula_units_Z 40
_cell_length_a 7.087204
_cell_length_b 13.602827
_cell_length_c 25.432412
_cell_angle_alpha 90.000000
_cell_angle_beta 33.449520
_cell_angle_gamma 90.000000
_cell_volume 1351.457861
_symmetry_space_group_name_H-M "C 2/C"
_symmetry_group_IT_number 15
_symmetry_cell_setting 'monoclinic'
loop_
_space_group_symop_operation_xyz
x,y,z
-x,y,1/2-z
-x,-y,-z
x,-y,1/2+z
1/2+x,1/2+y,z
1/2-x,1/2+y,1/2-z
1/2-x,1/2-y,-z
1/2+x,1/2-y,1/2+z
loop_
_atom_site_type_symbol
_atom_site_label
_atom_site_fract_x
_atom_site_fract_y
_atom_site_fract_z
Si Si1 0.969439 0.925035 0.374450
Si Si2 0.722711 0.593284 0.471823
Si Si3 0.500000 0.252366 0.750000
Si Si4 0.706666 0.888289 0.653336
Si Si5 0.621427 0.754809 0.108513
Si Si6 0.000000 0.909433 0.250000
O O1 0.684790 0.917418 0.487809
O O2 0.170361 0.822460 0.321757
O O3 0.935558 0.960089 0.321941
O O4 0.209259 0.002489 0.348224
O O5 0.500000 0.500000 0.500000
O O6 0.958175 0.610486 0.365678
O O7 0.478282 0.688549 0.527573
O O8 0.433037 0.297466 0.822558
O O9 0.500000 0.844452 0.750000
O O10 0.048502 0.821808 0.578716
O O11 0.341246 0.842461 0.172185
#
# Coordination Sequence:
#
# PCOD9264259 Si02
#       6
#     8   8   4   8   8   4
#     4   9  18  35  56  82 109 150 188 228 278 337
#     4   9  20  37  60  81 112 155 191 224 279 349
#     4   8  16  32  56  72 110 150 188 214 280 346
#     4  11  20  34  58  84 112 149 193 234 281 331
#     4  10  19  35  57  84 115 145 186 238 284 326
#     4  10  20  34  60  88 112 146 188 240 278 332
#
# _framework density 29.597666
#
# number of rings (size 3 to 8) (size 9 to 14) (size 15 to 20)
#    0.000    2.400    2.000    0.600    2.800    0.800 
#    0.000    5.000    4.400    0.000    0.000    0.000 
#    0.000    0.000    0.000    0.000    0.000    0.000 
#
# Total GULP energy -111736.918078 kJ/mol
# GULP energy per Si atom -5586.845904 kJ/mol
# Density = 2.953030 g / cm^3
# Si number density = 29.597666 Si / 1000 Ang^3
#
#
#
# Elastic Constant Matrix: (Units=GPa)
#
#
# Indices 1 2 3 4 5 6 
#
# 1 144.3506 21.4225 64.1133 -0.0389 69.9227 0.0204
# 2 21.4225 92.7596 15.2731 -0.0169 9.3489 0.0030
# 3 64.1133 15.2731 218.7052 -0.0604 82.7668 0.0374
# 4 -0.0389 -0.0169 -0.0604 40.1520 0.0347 7.1433
# 5 69.9227 9.3489 82.7668 0.0347 81.8457 -0.0158
# 6 0.0204 0.0030 0.0374 7.1433 -0.0158 48.9194
#
#
#
# Elastic Compliance Matrix: (Units=1/GPa)
#
#
# Indices 1 2 3 4 5 6 
#
# 1 0.012161 -0.001825 0.000673 0.000024 -0.010861 -0.000012
# 2 -0.001825 0.011210 -0.000572 0.000001 0.000857 0.000001
# 3 0.000673 -0.000572 0.007465 0.000021 -0.008058 -0.000012
# 4 0.000024 0.000001 0.000021 0.025570 -0.000053 -0.003734
# 5 -0.010861 0.000857 -0.008058 -0.000053 0.029548 0.000028
# 6 -0.000012 0.000001 -0.000012 -0.003734 0.000028 0.020987
#
#
# Mechanical properties :
#
#
# Convention : Reuss Voigt Hill
#
# Bulk Modulus (GPa) = 36.51396 73.04815 54.78105
# Shear Modulus (GPa) = 41.83524 57.85052 49.84288
#
# Velocity S-wave (km/s) = 3.76369 4.42584 4.10813
# Velocity P-wave (km/s) = 5.59023 7.13102 6.40711
#
# Compressibility (1/GPa) = 0.02738679
#
# Stress axis : x y z
#
# Youngs Moduli (GPa) = 82.23316 89.20777 133.96595
#
# Poissons Ratio (x) = 0.16277 -0.09013
# Poissons Ratio (y) = 0.15004 0.07667
# Poissons Ratio (z) = -0.05533 0.05105
#
# Static dielectric constant tensor:
#      x y z
#    x 2.446350 -0.000030 -0.149720 
#    y -0.000030 2.280460 0.000020 
#    z -0.149720 0.000020 2.614220 
# 
# From -- ./inp_files/133307.got.cif
#   From: 2010.05.17/outbox.cif.g08.bks.cpg/sg15_67_cif.got.tgz:133307.got - 2010.06.03 18:47:42.
