data_PCOD9264138
_publ_section_title
;
Structure prediction by ZEFSAII (Michael W. Deem and Ramdas Pophale) SiO2 
 PCOD9264138
Probable space group: C 2/C
;
_chemical_formula_sum "Si O2"
_cell_formula_units_Z 48
_cell_length_a 17.076458
_cell_length_b 16.416810
_cell_length_c 16.616821
_cell_angle_alpha 90.000000
_cell_angle_beta 148.309976
_cell_angle_gamma 90.000000
_cell_volume 2447.154228
_symmetry_space_group_name_H-M "C 2/C"
_symmetry_group_IT_number 15
_symmetry_cell_setting 'monoclinic'
loop_
_space_group_symop_operation_xyz
x,y,z
-x,y,1/2-z
-x,-y,-z
x,-y,1/2+z
1/2+x,1/2+y,z
1/2-x,1/2+y,1/2-z
1/2-x,1/2-y,-z
1/2+x,1/2-y,1/2+z
loop_
_atom_site_type_symbol
_atom_site_label
_atom_site_fract_x
_atom_site_fract_y
_atom_site_fract_z
Si Si1 0.318984 0.492670 0.343819
Si Si2 0.320038 0.993096 0.097285
Si Si3 0.711863 0.668739 0.187477
Si Si4 0.824404 0.672407 0.105155
Si Si5 0.844591 0.831580 0.567316
Si Si6 0.366616 0.679449 0.895487
O O1 0.500000 0.500000 0.500000
O O2 0.243487 0.493957 0.366470
O O3 0.267652 0.577394 0.259263
O O4 0.291578 0.400803 0.289736
O O5 0.500000 0.985203 0.250000
O O6 0.278780 0.083589 0.029901
O O7 0.244818 0.914648 0.990473
O O8 0.789435 0.672474 0.169050
O O9 0.777227 0.739293 0.299352
O O10 0.537555 0.684352 0.018323
O O11 0.000000 0.678769 0.250000
O O12 0.750000 0.750000 0.000000
O O13 0.750000 0.750000 0.500000
O O14 0.873722 0.834375 0.497265
O O15 0.000000 0.828353 0.750000
#
# Coordination Sequence:
#
# PCOD9264138 Si02
#       6
#     8   8   8   8   8   8
#     4   8  17  34  55  75 105 145 180 217 269 326
#     4   9  19  35  55  79 112 147 183 232 282 327
#     4  10  19  35  56  77 107 144 179 222 270 323
#     4  10  20  35  55  82 112 144 182 228 277 329
#     4  11  22  37  57  83 112 147 187 231 280 336
#     4  10  20  36  56  80 108 143 181 222 271 323
#
# _framework density 19.614619999999999
#
# number of rings (size 3 to 8) (size 9 to 14) (size 15 to 20)
#    0.000    2.333    0.000    2.500    0.000    2.000 
#    0.000    7.500    0.000    0.000    0.000    0.000 
#    0.000    0.000    0.000    0.000    0.000    0.000 
#
# Total GULP energy -133713.739054 kJ/mol
# GULP energy per Si atom -5571.405794 kJ/mol
# Density = 1.956998 g / cm^3
# Si number density = 19.614620 Si / 1000 Ang^3
#
#
#
# Elastic Constant Matrix: (Units=GPa)
#
#
# Indices 1 2 3 4 5 6 
#
# 1 73.3157 22.2335 16.7551 0.0005 28.3775 0.0004
# 2 22.2335 228.4010 88.8507 0.0004 7.0183 0.0004
# 3 16.7551 88.8507 66.4152 0.0005 11.1338 0.0005
# 4 0.0005 0.0004 0.0005 38.2575 0.0004 2.3908
# 5 28.3775 7.0183 11.1338 0.0004 29.2094 0.0004
# 6 0.0004 0.0004 0.0005 2.3908 0.0004 26.6954
#
#
#
# Elastic Compliance Matrix: (Units=1/GPa)
#
#
# Indices 1 2 3 4 5 6 
#
# 1 0.022372 -0.001498 -0.000060 0.000000 -0.021352 0.000000
# 2 -0.001498 0.009423 -0.012918 0.000000 0.004115 0.000000
# 3 -0.000060 -0.012918 0.033996 0.000000 -0.009796 0.000000
# 4 0.000000 0.000000 0.000000 0.026286 0.000000 -0.002354
# 5 -0.021352 0.004115 -0.009796 0.000000 0.057725 0.000000
# 6 0.000000 0.000000 0.000000 -0.002354 0.000000 0.037670
#
#
# Mechanical properties :
#
#
# Convention : Reuss Voigt Hill
#
# Bulk Modulus (GPa) = 27.14568 69.31227 48.22897
# Shear Modulus (GPa) = 21.86231 34.85196 28.35713
#
# Velocity S-wave (km/s) = 3.34217 4.21983 3.80638
# Velocity P-wave (km/s) = 5.36312 7.69132 6.63021
#
# Compressibility (1/GPa) = 0.03683827
#
# Stress axis : x y z
#
# Youngs Moduli (GPa) = 44.69804 106.12492 29.41544
#
# Poissons Ratio (x) = 0.15901 0.00177
# Poissons Ratio (y) = 0.06697 0.37999
# Poissons Ratio (z) = 0.00269 1.37091
#
# Static dielectric constant tensor:
#      x y z
#    x 1.686520 0.000000 -0.018810 
#    y 0.000000 1.756270 0.000000 
#    z -0.018810 0.000000 1.637340 
# 
# From -- ./inp_files/66412.got.cif
#   From: 2010.05.17/outbox.cif.g08.bks.cpg/sg15_34_cif.got.tgz:66412.got - 2010.06.03 18:47:42.
