data_PCOD9264175
_publ_section_title
;
Structure prediction by ZEFSAII (Michael W. Deem and Ramdas Pophale) SiO2 
 PCOD9264175
Probable space group: C 2/C
;
_chemical_formula_sum "Si O2"
_cell_formula_units_Z 52
_cell_length_a 18.406624
_cell_length_b 10.902533
_cell_length_c 15.936977
_cell_angle_alpha 90.000000
_cell_angle_beta 129.850829
_cell_angle_gamma 90.000000
_cell_volume 2455.317876
_symmetry_space_group_name_H-M "C 2/C"
_symmetry_group_IT_number 15
_symmetry_cell_setting 'monoclinic'
loop_
_space_group_symop_operation_xyz
x,y,z
-x,y,1/2-z
-x,-y,-z
x,-y,1/2+z
1/2+x,1/2+y,z
1/2-x,1/2+y,1/2-z
1/2-x,1/2-y,-z
1/2+x,1/2-y,1/2+z
loop_
_atom_site_type_symbol
_atom_site_label
_atom_site_fract_x
_atom_site_fract_y
_atom_site_fract_z
Si Si1 0.600850 0.706540 0.279707
Si Si2 0.169191 0.462700 0.296321
Si Si3 0.354668 0.069192 0.394977
Si Si4 0.944613 0.333371 0.528171
Si Si5 0.535348 0.382147 0.575095
Si Si6 0.671211 0.300995 0.015066
Si Si7 0.000000 0.621150 0.250000
O O1 0.500000 0.705818 0.250000
O O2 0.615215 0.833723 0.240124
O O3 0.599571 0.603791 0.206324
O O4 0.666550 0.712583 0.410852
O O5 0.193625 0.529390 0.227744
O O6 0.263491 0.416789 0.412163
O O7 0.091418 0.539897 0.290472
O O8 0.457484 0.116399 0.439531
O O9 0.309030 0.179544 0.413434
O O10 0.372338 0.946936 0.463282
O O11 0.918900 0.212612 0.457156
O O12 0.967292 0.308056 0.642389
O O13 0.500000 0.500000 0.500000
O O14 0.436833 0.328099 0.537512
#
# Coordination Sequence:
#
# PCOD9264175 Si02
#       7
#     8   8   8   8   8   8   4
#     4  10  19  35  56  84 112 147 195 242 288 343
#     4  11  19  34  58  88 123 150 190 249 295 354
#     4   9  18  33  56  83 116 150 192 244 295 338
#     4   9  17  34  56  81 110 148 199 238 285 353
#     4  10  21  39  59  81 118 162 196 235 300 361
#     4  10  22  35  57  93 117 148 202 248 292 354
#     4  10  20  32  60  88 116 154 190 244 306 352
#
# _framework density 21.178519999999999
#
# number of rings (size 3 to 8) (size 9 to 14) (size 15 to 20)
#    0.000    2.154    2.308    1.385    4.308    1.231 
#    4.154    0.000    0.000    0.923    0.000    0.000 
#    0.000    0.000    0.000    0.000    0.000    0.000 
#
# Total GULP energy -144880.414231 kJ/mol
# GULP energy per Si atom -5572.323624 kJ/mol
# Density = 2.113032 g / cm^3
# Si number density = 21.178520 Si / 1000 Ang^3
#
#
#
# Elastic Constant Matrix: (Units=GPa)
#
#
# Indices 1 2 3 4 5 6 
#
# 1 80.1660 19.8011 43.9494 0.0000 -26.2508 0.0000
# 2 19.8011 66.8969 60.1322 0.0000 -27.5650 0.0000
# 3 43.9494 60.1322 178.2433 0.0000 -25.3589 0.0000
# 4 0.0000 0.0000 0.0000 29.6093 0.0000 -3.1647
# 5 -26.2508 -27.5650 -25.3589 0.0000 31.9777 0.0000
# 6 0.0000 0.0000 0.0000 -3.1647 0.0000 18.6753
#
#
#
# Elastic Compliance Matrix: (Units=1/GPa)
#
#
# Indices 1 2 3 4 5 6 
#
# 1 0.018819 0.004681 -0.003886 0.000000 0.016403 0.000000
# 2 0.004681 0.030687 -0.008112 0.000000 0.023862 0.000000
# 3 -0.003886 -0.008112 0.008856 0.000000 -0.003160 0.000000
# 4 0.000000 0.000000 0.000000 0.034396 0.000000 0.005829
# 5 0.016403 0.023862 -0.003160 0.000000 0.062800 0.000000
# 6 0.000000 0.000000 0.000000 0.005829 0.000000 0.054534
#
#
# Mechanical properties :
#
#
# Convention : Reuss Voigt Hill
#
# Bulk Modulus (GPa) = 22.86828 63.67463 43.27146
# Shear Modulus (GPa) = 20.89412 29.48071 25.18742
#
# Velocity S-wave (km/s) = 3.14438 3.73501 3.45235
# Velocity P-wave (km/s) = 4.89940 6.98079 6.03057
#
# Compressibility (1/GPa) = 0.04372869
#
# Stress axis : x y z
#
# Youngs Moduli (GPa) = 53.13675 32.58731 112.92395
#
# Poissons Ratio (x) = -0.15255 0.43882
# Poissons Ratio (y) = -0.24875 0.91602
# Poissons Ratio (z) = 0.20649 0.26434
#
# Static dielectric constant tensor:
#      x y z
#    x 1.825080 0.000000 0.042420 
#    y 0.000000 1.753470 0.000000 
#    z 0.042420 0.000000 1.848410 
# 
# From -- ./inp_files/167714.got.cif
#   From: 2010.05.17/outbox.cif.g08.bks.cpg/sg15_84_cif.got.tgz:167714.got - 2010.06.03 18:47:42.
