data_PCOD9264547
_publ_section_title
;
Structure prediction by ZEFSAII (Michael W. Deem and Ramdas Pophale) SiO2 
 PCOD9264547
Probable space group: C 2/C
;
_chemical_formula_sum "Si O2"
_cell_formula_units_Z 40
_cell_length_a 21.013143
_cell_length_b 10.385994
_cell_length_c 12.444168
_cell_angle_alpha 90.000000
_cell_angle_beta 144.748796
_cell_angle_gamma 90.000000
_cell_volume 1567.483372
_symmetry_space_group_name_H-M "C 2/C"
_symmetry_group_IT_number 15
_symmetry_cell_setting 'monoclinic'
loop_
_space_group_symop_operation_xyz
x,y,z
-x,y,1/2-z
-x,-y,-z
x,-y,1/2+z
1/2+x,1/2+y,z
1/2-x,1/2+y,1/2-z
1/2-x,1/2-y,-z
1/2+x,1/2-y,1/2+z
loop_
_atom_site_type_symbol
_atom_site_label
_atom_site_fract_x
_atom_site_fract_y
_atom_site_fract_z
Si Si1 0.625867 0.106532 0.896508
Si Si2 0.897546 0.721405 0.319216
Si Si3 0.096243 0.131266 0.468996
Si Si4 0.656060 0.827539 0.986026
Si Si5 0.161620 0.438526 0.210661
O O1 0.500000 0.068623 0.750000
O O2 0.644811 0.232835 0.991037
O O3 0.641277 0.134063 0.793602
O O4 0.691196 0.975584 0.006112
O O5 0.945269 0.827536 0.468647
O O6 0.766268 0.747352 0.145101
O O7 0.901069 0.574908 0.367799
O O8 0.912639 0.723693 0.210430
O O9 0.205699 0.043623 0.621957
O O10 0.000000 0.095264 0.250000
O O11 0.615994 0.850120 0.052167
#
# Coordination Sequence:
#
# PCOD9264547 Si02
#       5
#     8   8   8   8   8
#     4  10  20  34  55  85 114 144 193 244 281 333
#     4   9  18  35  59  79 116 156 188 236 281 346
#     4  10  20  36  57  88 116 147 190 239 288 341
#     4   9  18  34  55  82 111 152 191 227 292 335
#     4  10  19  35  60  82 115 156 190 233 291 345
#
# _framework density 25.518611
#
# number of rings (size 3 to 8) (size 9 to 14) (size 15 to 20)
#    0.000    2.400    2.000    0.600    0.000    0.800 
#    3.600    1.000    0.000   30.000    0.000    0.000 
#    0.000    0.000    0.000    0.000    0.000    0.000 
#
# Total GULP energy -111643.497104 kJ/mol
# GULP energy per Si atom -5582.174855 kJ/mol
# Density = 2.546053 g / cm^3
# Si number density = 25.518611 Si / 1000 Ang^3
#
#
#
# Elastic Constant Matrix: (Units=GPa)
#
#
# Indices 1 2 3 4 5 6 
#
# 1 122.2335 8.9155 36.6120 0.0000 -52.0022 0.0000
# 2 8.9155 46.0576 2.8665 0.0000 11.8843 0.0000
# 3 36.6120 2.8665 158.6284 0.0000 -16.0138 0.0000
# 4 0.0000 0.0000 0.0000 33.1962 0.0000 3.0293
# 5 -52.0022 11.8843 -16.0138 0.0000 63.9023 0.0000
# 6 0.0000 0.0000 0.0000 3.0293 0.0000 -3.2869
#
#
#
# Elastic Compliance Matrix: (Units=1/GPa)
#
#
# Indices 1 2 3 4 5 6 
#
# 1 0.014463 -0.005866 -0.001984 0.000000 0.012363 0.000000
# 2 -0.005866 0.025301 -0.000062 0.000000 -0.009495 0.000000
# 3 -0.001984 -0.000062 0.006773 0.000000 0.000094 0.000000
# 4 0.000000 0.000000 0.000000 0.027787 0.000000 0.025609
# 5 0.012363 -0.009495 0.000094 0.000000 0.027499 0.000000
# 6 0.000000 0.000000 0.000000 0.025609 0.000000 -0.280639
#
#
# Mechanical properties :
#
#
# Convention : Reuss Voigt Hill
#
# Bulk Modulus (GPa) = 32.55980 47.07863 39.81922
# Shear Modulus (GPa) = -32.73239 37.33070 2.29915
#
# Velocity S-wave (km/s) = -3.58535 3.82891 0.95023
# Velocity P-wave (km/s) = 2.08631 6.16735 4.10387
#
# Compressibility (1/GPa) = 0.03071272
#
# Stress axis : x y z
#
# Youngs Moduli (GPa) = 69.14175 39.52363 147.65433
#
# Poissons Ratio (x) = 0.23186 0.29295
# Poissons Ratio (y) = 0.40561 0.00912
# Poissons Ratio (z) = 0.13718 0.00244
#
# Static dielectric constant tensor:
#      x y z
#    x 2.079740 0.000000 -0.032790 
#    y 0.000000 1.970220 0.000000 
#    z -0.032790 0.000000 2.091940 
# 
# From -- ./inp_files/103208.got.cif
#   From: 2010.05.17/outbox.cif.g08.bks.cpg/sg15_52_cif.got.tgz:103208.got - 2010.06.03 18:47:42.
