data_PCOD9264961
_publ_section_title
;
Structure prediction by ZEFSAII (Michael W. Deem and Ramdas Pophale) SiO2 
 PCOD9264961
Probable space group: C 2/C
;
_chemical_formula_sum "Si O2"
_cell_formula_units_Z 64
_cell_length_a 20.824295
_cell_length_b 12.690900
_cell_length_c 11.855239
_cell_angle_alpha 90.000000
_cell_angle_beta 79.674295
_cell_angle_gamma 90.000000
_cell_volume 3082.349961
_symmetry_space_group_name_H-M "C 2/C"
_symmetry_group_IT_number 15
_symmetry_cell_setting 'monoclinic'
loop_
_space_group_symop_operation_xyz
x,y,z
-x,y,1/2-z
-x,-y,-z
x,-y,1/2+z
1/2+x,1/2+y,z
1/2-x,1/2+y,1/2-z
1/2-x,1/2-y,-z
1/2+x,1/2-y,1/2+z
loop_
_atom_site_type_symbol
_atom_site_label
_atom_site_fract_x
_atom_site_fract_y
_atom_site_fract_z
Si Si1 0.073000 0.786805 0.359263
Si Si2 0.578153 0.502148 0.958779
Si Si3 0.223936 0.434104 0.595148
Si Si4 0.659572 0.354664 0.784475
Si Si5 0.856162 0.345741 0.076612
Si Si6 0.634954 0.929629 0.835674
Si Si7 0.257758 0.633151 0.451835
Si Si8 0.918322 0.820200 0.390044
O O1 0.083520 0.663367 0.374450
O O2 0.106652 0.807149 0.228108
O O3 0.996742 0.812581 0.368417
O O4 0.098397 0.876385 0.436665
O O5 0.601267 0.431683 0.844056
O O6 0.500000 0.500000 0.000000
O O7 0.604222 0.431761 0.053262
O O8 0.280273 0.380316 0.650146
O O9 0.206264 0.376711 0.482346
O O10 0.160631 0.438948 0.698035
O O11 0.250779 0.548783 0.553494
O O12 0.649917 0.230934 0.813717
O O13 0.680291 0.374288 0.650234
O O14 0.884679 0.456479 0.110191
O O15 0.896351 0.273558 0.977867
O O16 0.697284 0.892882 0.888304
O O17 0.250000 0.750000 0.500000
#
# Coordination Sequence:
#
# PCOD9264961 Si02
#       8
#     8   8   8   8   8   8   8   8
#     4  10  19  36  59  85 112 146 197 230 289 350
#     4   9  20  37  57  85 114 142 187 243 288 336
#     4  10  20  36  54  82 111 151 194 229 282 343
#     4  10  21  35  58  84 107 154 191 233 287 349
#     4  10  19  36  55  81 115 145 191 238 285 334
#     4  10  21  35  57  83 112 154 187 237 278 348
#     4  10  22  37  53  81 121 149 185 240 291 338
#     4   9  19  36  61  82 110 152 186 242 287 337
#
# _framework density 20.763377999999999
#
# number of rings (size 3 to 8) (size 9 to 14) (size 15 to 20)
#    0.000    2.250    1.250    1.125    1.750    2.500 
#    4.500    0.000    0.000    0.000    0.000    0.000 
#    0.000    0.000    0.000    0.000    0.000    0.000 
#
# Total GULP energy -178374.837082 kJ/mol
# GULP energy per Si atom -5574.213659 kJ/mol
# Density = 2.071612 g / cm^3
# Si number density = 20.763378 Si / 1000 Ang^3
#
#
#
# Elastic Constant Matrix: (Units=GPa)
#
#
# Indices 1 2 3 4 5 6 
#
# 1 24.5317 20.2755 13.7494 0.0000 -10.9627 0.0000
# 2 20.2755 190.3487 51.0151 0.0000 -6.4614 0.0000
# 3 13.7494 51.0151 65.2200 0.0000 -9.9612 0.0000
# 4 0.0000 0.0000 0.0000 32.4593 0.0000 -0.1616
# 5 -10.9627 -6.4614 -9.9612 0.0000 23.2611 0.0000
# 6 0.0000 0.0000 0.0000 -0.1616 0.0000 27.7730
#
#
#
# Elastic Compliance Matrix: (Units=1/GPa)
#
#
# Indices 1 2 3 4 5 6 
#
# 1 0.057648 -0.003858 -0.005510 0.000000 0.023738 0.000000
# 2 -0.003858 0.006909 -0.004895 0.000000 -0.001996 0.000000
# 3 -0.005510 -0.004895 0.021099 0.000000 0.005079 0.000000
# 4 0.000000 0.000000 0.000000 0.030809 0.000000 0.000179
# 5 0.023738 -0.001996 0.005079 0.000000 0.055798 0.000000
# 6 0.000000 0.000000 0.000000 0.000179 0.000000 0.036007
#
#
# Mechanical properties :
#
#
# Convention : Reuss Voigt Hill
#
# Bulk Modulus (GPa) = 17.50410 50.02005 33.76208
# Shear Modulus (GPa) = 19.54342 29.70270 24.62306
#
# Velocity S-wave (km/s) = 3.07130 3.78634 3.44741
# Velocity P-wave (km/s) = 4.58538 6.57708 5.66938
#
# Compressibility (1/GPa) = 0.05712946
#
# Stress axis : x y z
#
# Youngs Moduli (GPa) = 17.34654 144.74369 47.39509
#
# Poissons Ratio (x) = 0.55844 0.26114
# Poissons Ratio (y) = 0.06692 0.23202
# Poissons Ratio (z) = 0.09558 0.70859
#
# Static dielectric constant tensor:
#      x y z
#    x 1.774710 0.000000 -0.014070 
#    y 0.000000 1.764520 0.000000 
#    z -0.014070 0.000000 1.767300 
# 
# From -- ./inp_files/117558.got.cif
#   From: 2010.05.17/outbox.cif.g08.bks.cpg/sg15_59_cif.got.tgz:117558.got - 2010.06.03 18:47:42.
