data_PCOD9264125
_publ_section_title
;
Structure prediction by ZEFSAII (Michael W. Deem and Ramdas Pophale) SiO2 
 PCOD9264125
Probable space group: C 2/C
;
_chemical_formula_sum "Si O2"
_cell_formula_units_Z 48
_cell_length_a 27.080932
_cell_length_b 14.559139
_cell_length_c 14.804595
_cell_angle_alpha 90.000000
_cell_angle_beta 152.363217
_cell_angle_gamma 90.000000
_cell_volume 2707.617498
_symmetry_space_group_name_H-M "C 2/C"
_symmetry_group_IT_number 15
_symmetry_cell_setting 'monoclinic'
loop_
_space_group_symop_operation_xyz
x,y,z
-x,y,1/2-z
-x,-y,-z
x,-y,1/2+z
1/2+x,1/2+y,z
1/2-x,1/2+y,1/2-z
1/2-x,1/2-y,-z
1/2+x,1/2-y,1/2+z
loop_
_atom_site_type_symbol
_atom_site_label
_atom_site_fract_x
_atom_site_fract_y
_atom_site_fract_z
Si Si1 0.550752 0.264263 0.426885
Si Si2 0.848808 0.798184 0.209184
Si Si3 0.697085 0.432125 0.668389
Si Si4 0.878950 0.995013 0.767522
Si Si5 0.621970 0.589647 0.421694
Si Si6 0.789504 0.241377 0.816464
O O1 0.500000 0.235987 0.250000
O O2 0.460911 0.256850 0.357202
O O3 0.589655 0.370500 0.482069
O O4 0.664115 0.215669 0.624540
O O5 0.833668 0.792251 0.291990
O O6 0.850125 0.904751 0.183971
O O7 0.750000 0.750000 0.000000
O O8 0.692127 0.471360 0.761160
O O9 0.693128 0.514132 0.590414
O O10 0.786429 0.352618 0.807487
O O11 0.867653 0.922951 0.668439
O O12 0.000000 0.000000 0.000000
O O13 0.500000 0.569805 0.250000
O O14 0.650054 0.689790 0.505895
#
# Coordination Sequence:
#
# PCOD9264125 Si02
#       6
#     8   8   8   8   8   8
#     4  10  19  35  55  88 122 145 192 252 290 345
#     4  12  19  34  62  90 110 154 204 244 293 349
#     4  10  21  37  56  88 124 144 201 252 296 343
#     4  12  20  34  59  87 115 152 196 250 303 341
#     4  12  21  36  61  89 120 153 201 252 296 355
#     4  10  23  35  56  93 122 154 190 252 305 348
#
# _framework density 17.727761999999998
#
# number of rings (size 3 to 8) (size 9 to 14) (size 15 to 20)
#    1.000    0.000    6.667    2.500    0.000    0.667 
#    0.000    0.000    0.000    7.000    0.000    0.000 
#    0.000    0.000    0.000    0.000    0.000    0.000 
#
# Total GULP energy -133726.797144 kJ/mol
# GULP energy per Si atom -5571.949881 kJ/mol
# Density = 1.768741 g / cm^3
# Si number density = 17.727762 Si / 1000 Ang^3
#
#
#
# Elastic Constant Matrix: (Units=GPa)
#
#
# Indices 1 2 3 4 5 6 
#
# 1 80.5685 -8.8583 19.7149 0.0000 -1.3848 0.0000
# 2 -8.8583 52.2125 18.5159 0.0000 -0.8731 0.0000
# 3 19.7149 18.5159 46.6459 0.0000 -8.7549 0.0000
# 4 0.0000 0.0000 0.0000 27.0691 0.0000 -6.6849
# 5 -1.3848 -0.8731 -8.7549 0.0000 30.4520 0.0000
# 6 0.0000 0.0000 0.0000 -6.6849 0.0000 27.7671
#
#
#
# Elastic Compliance Matrix: (Units=1/GPa)
#
#
# Indices 1 2 3 4 5 6 
#
# 1 0.015231 0.005766 -0.009054 0.000000 -0.001745 0.000000
# 2 0.005766 0.024590 -0.012702 0.000000 -0.002684 0.000000
# 3 -0.009054 -0.012702 0.031881 0.000000 0.008390 0.000000
# 4 0.000000 0.000000 0.000000 0.039278 0.000000 0.009456
# 5 -0.001745 -0.002684 0.008390 0.000000 0.035094 0.000000
# 6 0.000000 0.000000 0.000000 0.009456 0.000000 0.038290
#
#
# Mechanical properties :
#
#
# Convention : Reuss Voigt Hill
#
# Bulk Modulus (GPa) = 25.17426 26.46355 25.81891
# Shear Modulus (GPa) = 21.77842 27.06126 24.41984
#
# Velocity S-wave (km/s) = 3.50879 3.91127 3.71548
# Velocity P-wave (km/s) = 5.53595 5.94622 5.74475
#
# Compressibility (1/GPa) = 0.03972311
#
# Stress axis : x y z
#
# Youngs Moduli (GPa) = 65.65524 40.66673 31.36651
#
# Poissons Ratio (x) = -0.23446 0.28398
# Poissons Ratio (y) = -0.37854 0.39841
# Poissons Ratio (z) = 0.59441 0.51653
#
# Static dielectric constant tensor:
#      x y z
#    x 1.617010 0.000000 0.000650 
#    y 0.000000 1.638100 0.000000 
#    z 0.000650 0.000000 1.607470 
# 
# From -- ./inp_files/178211.got.cif
#   From: 2010.05.17/outbox.cif.g08.bks.cpg/sg15_90_cif.got.tgz:178211.got - 2010.06.03 18:47:42.
