data_PCOD9264738
_publ_section_title
;
Structure prediction by ZEFSAII (Michael W. Deem and Ramdas Pophale) SiO2 
 PCOD9264738
Probable space group: C 2/C
;
_chemical_formula_sum "Si O2"
_cell_formula_units_Z 56
_cell_length_a 12.101082
_cell_length_b 13.929385
_cell_length_c 24.812654
_cell_angle_alpha 90.000000
_cell_angle_beta 38.050343
_cell_angle_gamma 90.000000
_cell_volume 2577.859951
_symmetry_space_group_name_H-M "C 2/C"
_symmetry_group_IT_number 15
_symmetry_cell_setting 'monoclinic'
loop_
_space_group_symop_operation_xyz
x,y,z
-x,y,1/2-z
-x,-y,-z
x,-y,1/2+z
1/2+x,1/2+y,z
1/2-x,1/2+y,1/2-z
1/2-x,1/2-y,-z
1/2+x,1/2-y,1/2+z
loop_
_atom_site_type_symbol
_atom_site_label
_atom_site_fract_x
_atom_site_fract_y
_atom_site_fract_z
Si Si1 0.500000 0.500000 0.500000
Si Si2 0.633422 0.326056 0.936548
Si Si3 0.827158 0.311708 0.570212
Si Si4 0.294585 0.886060 0.333517
Si Si5 0.493487 0.655762 0.378886
Si Si6 0.270100 0.844706 0.220249
Si Si7 0.813693 0.958978 0.790176
Si Si8 0.500000 0.238608 0.250000
O O1 0.413246 0.402319 0.500502
O O2 0.697059 0.467550 0.403866
O O3 0.519084 0.379157 0.931053
O O4 0.835263 0.316482 0.840775
O O5 0.530186 0.225250 0.983755
O O6 0.725390 0.215243 0.628227
O O7 0.710801 0.345376 0.563180
O O8 0.798172 0.388510 0.628354
O O9 0.500000 0.912642 0.250000
O O10 0.233564 0.866498 0.296178
O O11 0.576164 0.763619 0.345449
O O12 0.616927 0.594896 0.290574
O O13 0.095788 0.800215 0.259074
O O14 0.298142 0.946511 0.180674
O O15 0.000000 0.982031 0.750000
#
# Coordination Sequence:
#
# PCOD9264738 Si02
#       8
#     4   8   8   8   8   8   8   4
#     4  10  24  38  60  96 126 170 214 266 326 400
#     4  10  22  40  62  85 133 162 213 260 325 382
#     4  10  19  38  62  94 119 159 212 272 312 368
#     4  11  20  39  63  91 128 165 217 273 317 384
#     4  10  19  36  63  93 120 165 209 270 316 366
#     4  11  20  38  65  91 128 173 213 259 326 391
#     4  10  19  35  62  91 122 167 216 256 315 384
#     4  10  24  42  60  92 126 180 198 264 336 398
#
# _framework density 21.723447
#
# number of rings (size 3 to 8) (size 9 to 14) (size 15 to 20)
#    0.000    1.714    3.571    1.714    1.000    0.000 
#    0.000    7.143    3.143    0.000    0.000    0.000 
#    0.000    0.000    0.000    0.000    0.000    0.000 
#
# Total GULP energy -155875.845484 kJ/mol
# GULP energy per Si atom -5566.994482 kJ/mol
# Density = 2.167400 g / cm^3
# Si number density = 21.723447 Si / 1000 Ang^3
#
#
#
# Elastic Constant Matrix: (Units=GPa)
#
#
# Indices 1 2 3 4 5 6 
#
# 1 58.1543 -5.1827 5.4263 0.0000 -0.8875 0.0000
# 2 -5.1827 74.5293 12.5176 0.0000 -19.6360 0.0001
# 3 5.4263 12.5176 106.5779 0.0000 -26.2251 0.0000
# 4 0.0000 0.0000 0.0000 30.6488 0.0000 3.1239
# 5 -0.8875 -19.6360 -26.2251 0.0000 26.7391 0.0000
# 6 0.0000 0.0001 0.0000 3.1239 0.0000 24.6579
#
#
#
# Elastic Compliance Matrix: (Units=1/GPa)
#
#
# Indices 1 2 3 4 5 6 
#
# 1 0.017431 0.001597 -0.000849 0.000000 0.000918 0.000000
# 2 0.001597 0.016940 0.001322 0.000000 0.013790 0.000000
# 3 -0.000849 0.001322 0.012526 0.000000 0.013228 0.000000
# 4 0.000000 0.000000 0.000000 0.033055 0.000000 -0.004188
# 5 0.000918 0.013790 0.013228 0.000000 0.060529 0.000000
# 6 0.000000 0.000000 0.000000 -0.004188 0.000000 0.041085
#
#
# Mechanical properties :
#
#
# Convention : Reuss Voigt Hill
#
# Bulk Modulus (GPa) = 19.59387 29.42041 24.50714
# Shear Modulus (GPa) = 25.71523 31.50918 28.61220
#
# Velocity S-wave (km/s) = 3.44431 3.81263 3.63314
# Velocity P-wave (km/s) = 4.98567 5.74057 5.37639
#
# Compressibility (1/GPa) = 0.05103636
#
# Stress axis : x y z
#
# Youngs Moduli (GPa) = 57.36844 59.03330 79.83637
#
# Poissons Ratio (x) = -0.09426 0.06778
# Poissons Ratio (y) = -0.09160 -0.10557
# Poissons Ratio (z) = 0.04871 -0.07806
#
# Static dielectric constant tensor:
#      x y z
#    x 1.703490 0.000000 -0.139470 
#    y 0.000000 1.640040 0.000000 
#    z -0.139470 0.000000 1.544990 
# 
# From -- ./inp_files/292857.got.cif
#   From: 2010.05.17/outbox.cif.g08.bks.cpg/sg15_147_cif.got.tgz:292857.got - 2010.06.03 18:47:42.
