data_PCOD9264574
_publ_section_title
;
Structure prediction by ZEFSAII (Michael W. Deem and Ramdas Pophale) SiO2 
 PCOD9264574
Probable space group: C 2/C
;
_chemical_formula_sum "Si O2"
_cell_formula_units_Z 40
_cell_length_a 7.361173
_cell_length_b 25.295447
_cell_length_c 9.994535
_cell_angle_alpha 90.000000
_cell_angle_beta 79.961801
_cell_angle_gamma 90.000000
_cell_volume 1832.535013
_symmetry_space_group_name_H-M "C 2/C"
_symmetry_group_IT_number 15
_symmetry_cell_setting 'monoclinic'
loop_
_space_group_symop_operation_xyz
x,y,z
-x,y,1/2-z
-x,-y,-z
x,-y,1/2+z
1/2+x,1/2+y,z
1/2-x,1/2+y,1/2-z
1/2-x,1/2-y,-z
1/2+x,1/2-y,1/2+z
loop_
_atom_site_type_symbol
_atom_site_label
_atom_site_fract_x
_atom_site_fract_y
_atom_site_fract_z
Si Si1 0.868337 0.887982 0.892909
Si Si2 0.873289 0.277311 0.096181
Si Si3 0.644269 0.381611 0.109055
Si Si4 0.159411 0.717268 0.344961
Si Si5 0.136978 0.001626 0.606749
O O1 0.740202 0.839493 0.872405
O O2 0.764383 0.944776 0.916758
O O3 0.000000 0.894283 0.750000
O O4 0.007601 0.876296 0.998437
O O5 0.804937 0.338223 0.101534
O O6 0.809421 0.253148 0.246526
O O7 0.750000 0.250000 0.000000
O O8 0.067446 0.265897 0.998207
O O9 0.500000 0.375413 0.250000
O O10 0.729799 0.440837 0.095232
O O11 0.000000 0.712372 0.250000
O O12 0.000000 0.003017 0.750000
O O13 0.000000 0.000000 0.500000
#
# Coordination Sequence:
#
# PCOD9264574 Si02
#       5
#     8   8   8   8   8
#     4  10  19  35  60  87 111 148 197 243 289 348
#     4  10  20  37  55  78 115 155 191 237 291 342
#     4  10  19  36  59  83 114 152 192 239 292 350
#     4  10  21  38  57  84 119 155 195 244 295 347
#     4   8  16  30  54  84 110 140 186 235 285 345
#
# _framework density 21.827687999999998
#
# number of rings (size 3 to 8) (size 9 to 14) (size 15 to 20)
#    0.000    2.400    0.000    4.200    0.000    0.000 
#    0.000   22.000    0.000    0.000    0.000    0.000 
#    0.000    0.000    0.000    0.600    0.000    0.000 
#
# Total GULP energy -111369.840799 kJ/mol
# GULP energy per Si atom -5568.492040 kJ/mol
# Density = 2.177801 g / cm^3
# Si number density = 21.827688 Si / 1000 Ang^3
#
#
#
# Elastic Constant Matrix: (Units=GPa)
#
#
# Indices 1 2 3 4 5 6 
#
# 1 82.8785 49.5834 39.1548 0.0000 -16.8456 0.0000
# 2 49.5834 174.7605 45.9350 0.0000 -20.4284 0.0000
# 3 39.1548 45.9350 199.7020 0.0000 1.1034 0.0000
# 4 0.0000 0.0000 0.0000 22.4706 0.0000 1.5827
# 5 -16.8456 -20.4284 1.1034 0.0000 30.3987 0.0000
# 6 0.0000 0.0000 0.0000 1.5827 0.0000 47.0857
#
#
#
# Elastic Compliance Matrix: (Units=1/GPa)
#
#
# Indices 1 2 3 4 5 6 
#
# 1 0.016657 -0.003214 -0.002566 0.000000 0.007164 0.000000
# 2 -0.003214 0.007281 -0.001062 0.000000 0.003151 0.000000
# 3 -0.002566 -0.001062 0.005768 0.000000 -0.002345 0.000000
# 4 0.000000 0.000000 0.000000 0.044608 0.000000 -0.001499
# 5 0.007164 0.003151 -0.002345 0.000000 0.039068 0.000000
# 6 0.000000 0.000000 0.000000 -0.001499 0.000000 0.021288
#
#
# Mechanical properties :
#
#
# Convention : Reuss Voigt Hill
#
# Bulk Modulus (GPa) = 62.41503 80.74303 71.57903
# Shear Modulus (GPa) = 32.53156 41.50220 37.01688
#
# Velocity S-wave (km/s) = 3.86473 4.36518 4.12256
# Velocity P-wave (km/s) = 6.96932 7.90429 7.45148
#
# Compressibility (1/GPa) = 0.01602178
#
# Stress axis : x y z
#
# Youngs Moduli (GPa) = 60.03408 137.33440 173.37431
#
# Poissons Ratio (x) = 0.44140 0.44491
# Poissons Ratio (y) = 0.19295 0.18414
# Poissons Ratio (z) = 0.15406 0.14586
#
# Static dielectric constant tensor:
#      x y z
#    x 1.759850 0.000000 -0.013030 
#    y 0.000000 2.007170 0.000000 
#    z -0.013030 0.000000 1.774570 
# 
# From -- ./inp_files/23436.got.cif
#   From: 2010.05.17/outbox.cif.g08.bks.cpg/sg15_12_cif.got.tgz:23436.got - 2010.06.03 18:47:42.
