data_PCOD9264800
_publ_section_title
;
Structure prediction by ZEFSAII (Michael W. Deem and Ramdas Pophale) SiO2 
 PCOD9264800
Probable space group: C 2/C
;
_chemical_formula_sum "Si O2"
_cell_formula_units_Z 48
_cell_length_a 12.970178
_cell_length_b 27.333718
_cell_length_c 5.835341
_cell_angle_alpha 90.000000
_cell_angle_beta 78.263032
_cell_angle_gamma 90.000000
_cell_volume 2025.509498
_symmetry_space_group_name_H-M "C 2/C"
_symmetry_group_IT_number 15
_symmetry_cell_setting 'monoclinic'
loop_
_space_group_symop_operation_xyz
x,y,z
-x,y,1/2-z
-x,-y,-z
x,-y,1/2+z
1/2+x,1/2+y,z
1/2-x,1/2+y,1/2-z
1/2-x,1/2-y,-z
1/2+x,1/2-y,1/2+z
loop_
_atom_site_type_symbol
_atom_site_label
_atom_site_fract_x
_atom_site_fract_y
_atom_site_fract_z
Si Si1 0.381812 0.284864 0.714358
Si Si2 0.622749 0.021076 0.563799
Si Si3 0.799461 0.124792 0.983188
Si Si4 0.866063 0.985317 0.438808
Si Si5 0.594501 0.875410 0.886976
Si Si6 0.203442 0.311156 0.159330
O O1 0.500000 0.282639 0.750000
O O2 0.367188 0.329095 0.542694
O O3 0.339518 0.231543 0.655905
O O4 0.303465 0.295282 0.962878
O O5 0.590825 0.077086 0.546196
O O6 0.590280 0.996474 0.333716
O O7 0.749143 0.010588 0.502547
O O8 0.857515 0.073604 0.935119
O O9 0.703849 0.117925 0.202398
O O10 0.743385 0.141940 0.777492
O O11 0.909339 0.001166 0.170834
O O12 0.500000 0.873184 0.750000
O O13 0.610116 0.827121 0.031355
#
# Coordination Sequence:
#
# PCOD9264800 Si02
#       6
#     8   8   8   8   8   8
#     4  10  24  44  67  99 128 167 220 281 339 399
#     4  10  19  36  54  87 130 182 227 276 325 395
#     4  11  22  40  66  92 130 172 224 269 337 404
#     4  10  19  35  63  93 129 179 221 277 334 400
#     4  11  24  36  57  94 131 178 224 271 331 401
#     4  10  23  44  65  95 131 171 219 274 336 405
#
# _framework density 23.69774
#
# number of rings (size 3 to 8) (size 9 to 14) (size 15 to 20)
#    0.000    1.667    3.333    2.500    4.667    1.333 
#    0.000    0.000    0.000    1.000    0.000    0.000 
#    0.000    0.000    0.000    0.000    0.000    0.000 
#
# Total GULP energy -134192.879270 kJ/mol
# GULP energy per Si atom -5591.369970 kJ/mol
# Density = 2.364380 g / cm^3
# Si number density = 23.697740 Si / 1000 Ang^3
#
#
#
# Elastic Constant Matrix: (Units=GPa)
#
#
# Indices 1 2 3 4 5 6 
#
# 1 98.4075 45.7034 58.6344 0.0000 32.0868 0.0000
# 2 45.7034 144.2470 44.8054 0.0000 18.9473 0.0000
# 3 58.6344 44.8054 153.2432 0.0000 9.0777 0.0000
# 4 0.0000 0.0000 0.0000 33.8939 0.0000 16.1798
# 5 32.0868 18.9473 9.0777 0.0000 53.0820 0.0000
# 6 0.0000 0.0000 0.0000 16.1798 0.0000 10.6122
#
#
#
# Elastic Compliance Matrix: (Units=1/GPa)
#
#
# Indices 1 2 3 4 5 6 
#
# 1 0.017447 -0.002724 -0.005366 0.000000 -0.008656 0.000000
# 2 -0.002724 0.008356 -0.001335 0.000000 -0.001108 0.000000
# 3 -0.005366 -0.001335 0.008838 0.000000 0.002209 0.000000
# 4 0.000000 0.000000 0.000000 0.108394 0.000000 -0.165263
# 5 -0.008656 -0.001108 0.002209 0.000000 0.024089 0.000000
# 6 0.000000 0.000000 0.000000 -0.165263 0.000000 0.346198
#
#
# Mechanical properties :
#
#
# Convention : Reuss Voigt Hill
#
# Bulk Modulus (GPa) = 63.33133 77.13158 70.23145
# Shear Modulus (GPa) = 9.30343 35.96792 22.63568
#
# Velocity S-wave (km/s) = 1.98353 3.90009 3.09396
# Velocity P-wave (km/s) = 5.65937 7.27322 6.51645
#
# Compressibility (1/GPa) = 0.01578997
#
# Stress axis : x y z
#
# Youngs Moduli (GPa) = 57.31715 119.67653 113.14268
#
# Poissons Ratio (x) = 0.32600 0.60716
# Poissons Ratio (y) = 0.15613 0.15107
# Poissons Ratio (z) = 0.30758 0.15979
#
# Static dielectric constant tensor:
#      x y z
#    x 1.836450 0.000000 0.087840 
#    y 0.000000 1.943240 0.000000 
#    z 0.087840 0.000000 1.846870 
# 
# From -- ./inp_files/8238.got.cif
#   From: 2010.05.17/outbox.cif.g08.bks.cpg/sg15_5_cif.got.tgz:8238.got - 2010.06.03 18:47:42.
