data_PCOD9264512
_publ_section_title
;
Structure prediction by ZEFSAII (Michael W. Deem and Ramdas Pophale) SiO2 
 PCOD9264512
Probable space group: C 2/C
;
_chemical_formula_sum "Si O2"
_cell_formula_units_Z 40
_cell_length_a 12.905506
_cell_length_b 13.546204
_cell_length_c 13.133004
_cell_angle_alpha 90.000000
_cell_angle_beta 120.630423
_cell_angle_gamma 90.000000
_cell_volume 1975.573870
_symmetry_space_group_name_H-M "C 2/C"
_symmetry_group_IT_number 15
_symmetry_cell_setting 'monoclinic'
loop_
_space_group_symop_operation_xyz
x,y,z
-x,y,1/2-z
-x,-y,-z
x,-y,1/2+z
1/2+x,1/2+y,z
1/2-x,1/2+y,1/2-z
1/2-x,1/2-y,-z
1/2+x,1/2-y,1/2+z
loop_
_atom_site_type_symbol
_atom_site_label
_atom_site_fract_x
_atom_site_fract_y
_atom_site_fract_z
Si Si1 0.360941 0.541950 0.056373
Si Si2 0.630776 0.000849 0.829306
Si Si3 0.989919 0.140758 0.951739
Si Si4 0.643964 0.178099 0.483744
Si Si5 0.280076 0.545121 0.714369
O O1 0.406107 0.437091 0.030255
O O2 0.350664 0.525849 0.171230
O O3 0.226297 0.559846 0.946824
O O4 0.450244 0.618415 0.047578
O O5 0.500000 0.048093 0.750000
O O6 0.612114 0.898195 0.878868
O O7 0.697833 0.989843 0.755187
O O8 0.877945 0.110039 0.824153
O O9 0.034714 0.250660 0.957864
O O10 0.750000 0.250000 0.500000
O O11 0.695631 0.114450 0.603180
#
# Coordination Sequence:
#
# PCOD9264512 Si02
#       5
#     8   8   8   8   8
#     4   9  19  34  58  89 121 157 199 237 308 358
#     4  10  22  37  61  84 119 164 201 243 308 360
#     4  10  19  35  59  89 124 154 195 250 294 360
#     4  11  22  35  58  94 118 151 210 244 295 366
#     4  10  21  38  62  87 123 160 200 251 303 353
#
# _framework density 20.247281000000001
#
# number of rings (size 3 to 8) (size 9 to 14) (size 15 to 20)
#    0.000    2.000    4.000    0.600    2.800    3.200 
#    0.000    0.000    4.400    3.600    0.000    0.000 
#    0.000    0.000    0.000    0.000    0.000    0.000 
#
# Total GULP energy -111618.465932 kJ/mol
# GULP energy per Si atom -5580.923297 kJ/mol
# Density = 2.020120 g / cm^3
# Si number density = 20.247281 Si / 1000 Ang^3
#
#
#
# Elastic Constant Matrix: (Units=GPa)
#
#
# Indices 1 2 3 4 5 6 
#
# 1 114.1852 34.4482 54.1329 0.0000 -10.2701 0.0000
# 2 34.4482 61.4161 33.9395 0.0000 -12.1740 0.0000
# 3 54.1329 33.9395 114.6197 0.0000 -11.1021 0.0000
# 4 0.0000 0.0000 0.0000 15.2774 0.0000 -7.2426
# 5 -10.2701 -12.1740 -11.1021 0.0000 43.8898 0.0000
# 6 0.0000 0.0000 0.0000 -7.2426 0.0000 41.1344
#
#
#
# Elastic Compliance Matrix: (Units=1/GPa)
#
#
# Indices 1 2 3 4 5 6 
#
# 1 0.012205 -0.004282 -0.004444 0.000000 0.000544 0.000000
# 2 -0.004282 0.021696 -0.004014 0.000000 0.004000 0.000000
# 3 -0.004444 -0.004014 0.012100 0.000000 0.000907 0.000000
# 4 0.000000 0.000000 0.000000 0.071417 0.000000 0.012574
# 5 0.000544 0.004000 0.000907 0.000000 0.024251 0.000000
# 6 0.000000 0.000000 0.000000 0.012574 0.000000 0.026525
#
#
# Mechanical properties :
#
#
# Convention : Reuss Voigt Hill
#
# Bulk Modulus (GPa) = 48.73266 59.47355 54.10311
# Shear Modulus (GPa) = 24.93597 31.24036 28.08816
#
# Velocity S-wave (km/s) = 3.51318 3.93229 3.72863
# Velocity P-wave (km/s) = 6.37005 7.07493 6.73172
#
# Compressibility (1/GPa) = 0.02052012
#
# Stress axis : x y z
#
# Youngs Moduli (GPa) = 81.93230 46.09217 82.64716
#
# Poissons Ratio (x) = 0.19739 0.36725
# Poissons Ratio (y) = 0.35087 0.33176
# Poissons Ratio (z) = 0.36407 0.18502
#
# Static dielectric constant tensor:
#      x y z
#    x 1.754820 0.000000 0.024550 
#    y 0.000000 1.693170 0.000000 
#    z 0.024550 0.000000 1.758010 
# 
# From -- ./inp_files/85986.got.cif
#   From: 2010.05.17/outbox.cif.g08.bks.cpg/sg15_43_cif.got.tgz:85986.got - 2010.06.03 18:47:42.
