data_PCOD9264438
_publ_section_title
;
Structure prediction by ZEFSAII (Michael W. Deem and Ramdas Pophale) SiO2 
 PCOD9264438
Probable space group: C 2/C
;
_chemical_formula_sum "Si O2"
_cell_formula_units_Z 32
_cell_length_a 20.642520
_cell_length_b 7.761824
_cell_length_c 11.852125
_cell_angle_alpha 90.000000
_cell_angle_beta 60.861477
_cell_angle_gamma 90.000000
_cell_volume 1658.663582
_symmetry_space_group_name_H-M "C 2/C"
_symmetry_group_IT_number 15
_symmetry_cell_setting 'monoclinic'
loop_
_space_group_symop_operation_xyz
x,y,z
-x,y,1/2-z
-x,-y,-z
x,-y,1/2+z
1/2+x,1/2+y,z
1/2-x,1/2+y,1/2-z
1/2-x,1/2-y,-z
1/2+x,1/2-y,1/2+z
loop_
_atom_site_type_symbol
_atom_site_label
_atom_site_fract_x
_atom_site_fract_y
_atom_site_fract_z
Si Si1 0.797707 0.081998 0.988383
Si Si2 0.689787 0.865174 0.935347
Si Si3 0.177629 0.722776 0.814930
Si Si4 0.587514 0.655428 0.182779
O O1 0.824849 0.124457 0.090706
O O2 0.750000 0.250000 0.000000
O O3 0.740636 0.934201 0.996380
O O4 0.870852 0.029697 0.856870
O O5 0.741606 0.749660 0.810642
O O6 0.669947 0.037552 0.881467
O O7 0.622097 0.761359 0.047396
O O8 0.116344 0.751628 0.771279
O O9 0.500000 0.643325 0.250000
#
# Coordination Sequence:
#
# PCOD9264438 Si02
#       4
#     8   8   8   8
#     4   9  19  37  60  81 103 145 198 235 274 333
#     4  10  19  35  59  83 108 146 196 235 274 331
#     4  10  19  36  59  80 108 149 195 240 275 322
#     4  11  23  36  53  85 122 149 182 231 287 341
#
# _framework density 19.292639999999999
#
# number of rings (size 3 to 8) (size 9 to 14) (size 15 to 20)
#    0.000    2.000    0.000    6.000    0.000    2.000 
#    0.000    5.000    0.000    0.000    0.000    0.000 
#    0.000    0.000    0.000    0.000    0.000    0.000 
#
# Total GULP energy -89152.373082 kJ/mol
# GULP energy per Si atom -5572.023318 kJ/mol
# Density = 1.924873 g / cm^3
# Si number density = 19.292640 Si / 1000 Ang^3
#
#
#
# Elastic Constant Matrix: (Units=GPa)
#
#
# Indices 1 2 3 4 5 6 
#
# 1 124.5789 40.2922 62.6621 0.0000 -19.2621 0.0000
# 2 40.2922 101.8904 32.0966 0.0000 -7.1753 0.0000
# 3 62.6621 32.0966 76.5644 0.0000 -11.1785 0.0000
# 4 0.0000 0.0000 0.0000 42.4039 0.0000 14.2975
# 5 -19.2621 -7.1753 -11.1785 0.0000 45.1881 0.0000
# 6 0.0000 0.0000 0.0000 14.2975 0.0000 25.2204
#
#
#
# Elastic Compliance Matrix: (Units=1/GPa)
#
#
# Indices 1 2 3 4 5 6 
#
# 1 0.014514 -0.002210 -0.010478 0.000000 0.003244 0.000000
# 2 -0.002210 0.011663 -0.003058 0.000000 0.000153 0.000000
# 3 -0.010478 -0.003058 0.023027 0.000000 0.000744 0.000000
# 4 0.000000 0.000000 0.000000 0.029156 0.000000 -0.016528
# 5 0.003244 0.000153 0.000744 0.000000 0.023721 0.000000
# 6 0.000000 0.000000 0.000000 -0.016528 0.000000 0.049020
#
#
# Mechanical properties :
#
#
# Convention : Reuss Voigt Hill
#
# Bulk Modulus (GPa) = 56.46260 63.68173 60.07217
# Shear Modulus (GPa) = 26.52558 33.76132 30.14345
#
# Velocity S-wave (km/s) = 3.71200 4.18779 3.95705
# Velocity P-wave (km/s) = 6.90665 7.51421 7.21683
#
# Compressibility (1/GPa) = 0.01771084
#
# Stress axis : x y z
#
# Youngs Moduli (GPa) = 68.89891 85.74477 43.42690
#
# Poissons Ratio (x) = 0.18952 0.45505
# Poissons Ratio (y) = 0.15228 0.13279
# Poissons Ratio (z) = 0.72195 0.26218
#
# Static dielectric constant tensor:
#      x y z
#    x 1.677880 0.000000 0.046040 
#    y 0.000000 1.772930 0.000000 
#    z 0.046040 0.000000 1.709120 
# 
# From -- ./inp_files/93434.got.cif
#   From: 2010.05.17/outbox.cif.g08.bks.cpg/sg15_47_cif.got.tgz:93434.got - 2010.06.03 18:47:42.
