data_PCOD9264584
_publ_section_title
;
Structure prediction by ZEFSAII (Michael W. Deem and Ramdas Pophale) SiO2 
 PCOD9264584
Probable space group: C 2/C
;
_chemical_formula_sum "Si O2"
_cell_formula_units_Z 48
_cell_length_a 6.578383
_cell_length_b 26.291031
_cell_length_c 14.369472
_cell_angle_alpha 90.000000
_cell_angle_beta 90.599816
_cell_angle_gamma 90.000000
_cell_volume 2485.099511
_symmetry_space_group_name_H-M "C 2/C"
_symmetry_group_IT_number 15
_symmetry_cell_setting 'monoclinic'
loop_
_space_group_symop_operation_xyz
x,y,z
-x,y,1/2-z
-x,-y,-z
x,-y,1/2+z
1/2+x,1/2+y,z
1/2-x,1/2+y,1/2-z
1/2-x,1/2-y,-z
1/2+x,1/2-y,1/2+z
loop_
_atom_site_type_symbol
_atom_site_label
_atom_site_fract_x
_atom_site_fract_y
_atom_site_fract_z
Si Si1 0.500000 0.698966 0.250000
Si Si2 0.820133 0.057852 0.596891
Si Si3 0.500000 0.034968 0.750000
Si Si4 0.313640 0.117070 0.180745
Si Si5 0.547865 0.748642 0.438544
Si Si6 0.766943 0.663254 0.990482
Si Si7 0.794317 0.984497 0.894115
O O1 0.682988 0.662265 0.222359
O O2 0.582650 0.733067 0.333284
O O3 0.679660 0.059924 0.688511
O O4 0.835668 0.116451 0.564293
O O5 0.744359 0.027963 0.502093
O O6 0.026805 0.025914 0.615009
O O7 0.607899 0.004138 0.832807
O O8 0.500000 0.104261 0.250000
O O9 0.165433 0.069901 0.154839
O O10 0.380020 0.138146 0.080129
O O11 0.750000 0.750000 0.500000
O O12 0.402242 0.703828 0.477673
O O13 0.431483 0.802323 0.439502
#
# Coordination Sequence:
#
# PCOD9264584 Si02
#       7
#     4   8   4   8   8   8   8
#     4  10  22  33  58  94 116 150 203 250 310 368
#     4  10  23  40  58  87 124 162 204 256 309 375
#     4  12  22  37  60  86 116 164 205 244 300 368
#     4  10  19  35  60  88 115 151 202 255 304 362
#     4  10  20  39  62  86 120 156 198 256 314 365
#     4   9  21  39  58  85 120 157 199 250 310 372
#     4  10  22  39  59  86 123 160 204 255 307 363
#
# _framework density 19.315123
#
# number of rings (size 3 to 8) (size 9 to 14) (size 15 to 20)
#    0.000    2.000    0.833    2.000    2.333    2.000 
#    0.000    1.667    0.000    0.000    0.000    0.000 
#    0.000    0.000    0.000    0.000    0.000    0.000 
#
# Total GULP energy -133608.103400 kJ/mol
# GULP energy per Si atom -5567.004308 kJ/mol
# Density = 1.927116 g / cm^3
# Si number density = 19.315123 Si / 1000 Ang^3
#
#
#
# Elastic Constant Matrix: (Units=GPa)
#
#
# Indices 1 2 3 4 5 6 
#
# 1 53.0812 32.8850 36.4335 0.0000 18.7056 0.0000
# 2 32.8850 124.2015 42.4793 0.0000 5.0540 0.0000
# 3 36.4335 42.4793 100.2634 0.0000 11.3043 0.0000
# 4 0.0000 0.0000 0.0000 -139.5869 0.0000 -96.1836
# 5 18.7056 5.0540 11.3043 0.0000 40.9002 0.0000
# 6 0.0000 0.0000 0.0000 -96.1836 0.0000 -38.8168
#
#
#
# Elastic Compliance Matrix: (Units=1/GPa)
#
#
# Indices 1 2 3 4 5 6 
#
# 1 0.031616 -0.005165 -0.007991 0.000000 -0.011613 0.000000
# 2 -0.005165 0.010260 -0.002677 0.000000 0.001834 0.000000
# 3 -0.007991 -0.002677 0.013998 0.000000 0.000116 0.000000
# 4 0.000000 0.000000 0.000000 0.010127 0.000000 -0.025094
# 5 -0.011613 0.001834 0.000116 0.000000 0.029502 0.000000
# 6 0.000000 0.000000 0.000000 -0.025094 0.000000 0.036417
#
#
# Mechanical properties :
#
#
# Convention : Reuss Voigt Hill
#
# Bulk Modulus (GPa) = 41.30798 55.68241 48.49520
# Shear Modulus (GPa) = 29.12799 -16.45079 6.33860
#
# Velocity S-wave (km/s) = 3.88756 -2.92156 1.81351
# Velocity P-wave (km/s) = 6.44854 4.18453 5.43571
#
# Compressibility (1/GPa) = 0.02420840
#
# Stress axis : x y z
#
# Youngs Moduli (GPa) = 31.62943 97.46642 71.43702
#
# Poissons Ratio (x) = 0.50346 0.57084
# Poissons Ratio (y) = 0.16338 0.19122
# Poissons Ratio (z) = 0.25274 0.26089
#
# Static dielectric constant tensor:
#      x y z
#    x 1.658900 0.000000 -0.017680 
#    y 0.000000 1.686160 0.000000 
#    z -0.017680 0.000000 1.698830 
# 
# From -- ./inp_files/130104.got.cif
#   From: 2010.05.17/outbox.cif.g08.bks.cpg/sg15_66_cif.got.tgz:130104.got - 2010.06.03 18:47:42.
