data_PCOD9264126
_publ_section_title
;
Structure prediction by ZEFSAII (Michael W. Deem and Ramdas Pophale) SiO2 
 PCOD9264126
Probable space group: C 2/C
;
_chemical_formula_sum "Si O2"
_cell_formula_units_Z 56
_cell_length_a 22.840477
_cell_length_b 11.140191
_cell_length_c 17.498966
_cell_angle_alpha 90.000000
_cell_angle_beta 33.276888
_cell_angle_gamma 90.000000
_cell_volume 2443.057991
_symmetry_space_group_name_H-M "C 2/C"
_symmetry_group_IT_number 15
_symmetry_cell_setting 'monoclinic'
loop_
_space_group_symop_operation_xyz
x,y,z
-x,y,1/2-z
-x,-y,-z
x,-y,1/2+z
1/2+x,1/2+y,z
1/2-x,1/2+y,1/2-z
1/2-x,1/2-y,-z
1/2+x,1/2-y,1/2+z
loop_
_atom_site_type_symbol
_atom_site_label
_atom_site_fract_x
_atom_site_fract_y
_atom_site_fract_z
Si Si1 0.129627 0.976274 0.811358
Si Si2 0.000000 0.567773 0.750000
Si Si3 0.000000 0.168325 0.750000
Si Si4 0.071397 0.371065 0.478394
Si Si5 0.053820 0.192151 0.975490
Si Si6 0.655839 0.365524 0.953265
Si Si7 0.151467 0.613055 0.450414
Si Si8 0.373634 0.128233 0.306035
O O1 0.153372 0.933456 0.874188
O O2 0.231473 0.932231 0.652644
O O3 0.023841 0.905217 0.901786
O O4 0.101584 0.116989 0.851493
O O5 0.059229 0.630107 0.614767
O O6 0.096332 0.482533 0.672926
O O7 0.057255 0.103091 0.617209
O O8 0.094312 0.253098 0.681495
O O9 0.143610 0.275334 0.444797
O O10 0.119605 0.503069 0.427952
O O11 0.030447 0.299625 0.449643
O O12 0.963292 0.380283 0.643819
O O13 0.151544 0.258213 0.909182
O O14 0.761789 0.381325 0.886758
#
# Coordination Sequence:
#
# PCOD9264126 Si02
#       8
#     8   4   4   8   8   8   8   8
#     4  10  24  40  63  93 126 160 209 266 318 368
#     4   9  22  42  57  98 118 166 227 245 304 388
#     4   9  18  30  51  84 120 156 197 245 306 370
#     4   9  20  34  62  93 116 155 207 252 314 374
#     4  10  22  42  59  95 127 158 210 262 316 373
#     4  10  19  35  55  89 121 158 199 252 317 368
#     4  11  22  41  68  87 126 168 208 263 308 378
#     4   9  17  34  55  85 120 152 198 257 303 359
#
# _framework density 22.922093
#
# number of rings (size 3 to 8) (size 9 to 14) (size 15 to 20)
#    0.000    2.286    0.000    2.571    6.000    1.143 
#    7.714    1.429    0.000    0.000    0.000    0.000 
#    0.000    0.000    0.000    0.000    0.000    0.000 
#
# Total GULP energy -156091.172184 kJ/mol
# GULP energy per Si atom -5574.684721 kJ/mol
# Density = 2.286992 g / cm^3
# Si number density = 22.922093 Si / 1000 Ang^3
#
#
#
# Elastic Constant Matrix: (Units=GPa)
#
#
# Indices 1 2 3 4 5 6 
#
# 1 70.8617 14.9698 5.7684 0.0000 -7.8928 0.0000
# 2 14.9698 78.9677 17.6636 0.0000 -7.5631 0.0000
# 3 5.7684 17.6636 93.8010 0.0000 0.0686 0.0000
# 4 0.0000 0.0000 0.0000 11.6778 0.0000 2.7462
# 5 -7.8928 -7.5631 0.0686 0.0000 38.8285 0.0000
# 6 0.0000 0.0000 0.0000 2.7462 0.0000 20.0368
#
#
#
# Elastic Compliance Matrix: (Units=1/GPa)
#
#
# Indices 1 2 3 4 5 6 
#
# 1 0.014960 -0.002490 -0.000453 0.000000 0.002557 0.000000
# 2 -0.002490 0.013898 -0.002466 0.000000 0.002205 0.000000
# 3 -0.000453 -0.002466 0.011153 0.000000 -0.000592 0.000000
# 4 0.000000 0.000000 0.000000 0.088484 0.000000 -0.012127
# 5 0.002557 0.002205 -0.000592 0.000000 0.026705 0.000000
# 6 0.000000 0.000000 0.000000 -0.012127 0.000000 0.051570
#
#
# Mechanical properties :
#
#
# Convention : Reuss Voigt Hill
#
# Bulk Modulus (GPa) = 34.25300 35.60378 34.92839
# Shear Modulus (GPa) = 21.99555 27.79051 24.89303
#
# Velocity S-wave (km/s) = 3.10107 3.48572 3.29900
# Velocity P-wave (km/s) = 5.27236 5.63618 5.45730
#
# Compressibility (1/GPa) = 0.02919452
#
# Stress axis : x y z
#
# Youngs Moduli (GPa) = 66.84665 71.95229 89.65823
#
# Poissons Ratio (x) = 0.17914 0.04062
# Poissons Ratio (y) = 0.16643 0.22107
# Poissons Ratio (z) = 0.03028 0.17741
#
# Static dielectric constant tensor:
#      x y z
#    x 2.038240 0.000000 -0.005700 
#    y 0.000000 1.936730 0.000000 
#    z -0.005700 0.000000 1.871530 
# 
# From -- ./inp_files/255452.got.cif
#   From: 2010.05.17/outbox.cif.g08.bks.cpg/sg15_128_cif.got.tgz:255452.got - 2010.06.03 18:47:42.
