data_PCOD9264388
_publ_section_title
;
Structure prediction by ZEFSAII (Michael W. Deem and Ramdas Pophale) SiO2 
 PCOD9264388
Probable space group: C 2/C
;
_chemical_formula_sum "Si O2"
_cell_formula_units_Z 52
_cell_length_a 20.756924
_cell_length_b 9.235131
_cell_length_c 25.159162
_cell_angle_alpha 90.000000
_cell_angle_beta 33.268100
_cell_angle_gamma 90.000000
_cell_volume 2645.600696
_symmetry_space_group_name_H-M "C 2/C"
_symmetry_group_IT_number 15
_symmetry_cell_setting 'monoclinic'
loop_
_space_group_symop_operation_xyz
x,y,z
-x,y,1/2-z
-x,-y,-z
x,-y,1/2+z
1/2+x,1/2+y,z
1/2-x,1/2+y,1/2-z
1/2-x,1/2-y,-z
1/2+x,1/2-y,1/2+z
loop_
_atom_site_type_symbol
_atom_site_label
_atom_site_fract_x
_atom_site_fract_y
_atom_site_fract_z
Si Si1 0.365501 0.934813 0.533024
Si Si2 0.566138 0.632302 0.018787
Si Si3 0.000000 0.208885 0.750000
Si Si4 0.107320 0.610837 0.360113
Si Si5 0.481540 0.357824 0.381272
Si Si6 0.677351 0.596687 0.363983
Si Si7 0.746539 0.221774 0.917042
O O1 0.369076 0.775006 0.506161
O O2 0.359767 0.900178 0.600362
O O3 0.490964 0.012037 0.435235
O O4 0.269204 0.048359 0.578186
O O5 0.537219 0.516750 0.083603
O O6 0.438838 0.666365 0.081611
O O7 0.637953 0.545406 0.923907
O O8 0.981148 0.135285 0.705609
O O9 0.126110 0.282163 0.655520
O O10 0.219991 0.563851 0.248268
O O11 0.066793 0.765341 0.361983
O O12 0.355547 0.279784 0.474532
O O13 0.719640 0.712190 0.377938
#
# Coordination Sequence:
#
# PCOD9264388 Si02
#       7
#     8   8   4   8   8   8   8
#     4  10  21  35  55  87 123 149 177 233 300 349
#     4  10  21  35  55  87 123 149 177 233 300 349
#     4  12  22  40  62  84 106 160 204 244 262 322
#     4  10  19  35  58  88 118 150 189 233 284 345
#     4  10  22  39  61  87 114 149 198 239 279 336
#     4  10  19  35  58  88 118 150 189 233 284 345
#     4  10  22  39  61  87 114 149 198 239 279 336
#
# _framework density 19.655270000000002
#
# number of rings (size 3 to 8) (size 9 to 14) (size 15 to 20)
#    0.000    1.846    1.538    5.077    2.154    3.692 
#    0.000    0.769    0.000    7.385    0.000    0.000 
#    0.000    0.000    0.000    0.000    0.000    0.000 
#
# Total GULP energy -144940.233971 kJ/mol
# GULP energy per Si atom -5574.624383 kJ/mol
# Density = 1.961053 g / cm^3
# Si number density = 19.655270 Si / 1000 Ang^3
#
#
#
# Elastic Constant Matrix: (Units=GPa)
#
#
# Indices 1 2 3 4 5 6 
#
# 1 42.3263 9.5841 8.6400 -0.0002 1.3766 0.0003
# 2 9.5841 78.8123 -9.5326 -0.0003 3.9014 0.0001
# 3 8.6400 -9.5326 89.3767 -0.0003 8.1207 0.0002
# 4 -0.0002 -0.0003 -0.0003 5.6401 0.0001 1.1696
# 5 1.3766 3.9014 8.1207 0.0001 41.1724 -0.0001
# 6 0.0003 0.0001 0.0002 1.1696 -0.0001 -0.9848
#
#
#
# Elastic Compliance Matrix: (Units=1/GPa)
#
#
# Indices 1 2 3 4 5 6 
#
# 1 0.024955 -0.003372 -0.002775 -0.000001 0.000032 0.000005
# 2 -0.003372 0.013403 0.001895 0.000000 -0.001531 0.000002
# 3 -0.002775 0.001895 0.011880 0.000000 -0.002430 0.000003
# 4 -0.000001 0.000000 0.000000 0.142267 0.000000 0.168958
# 5 0.000032 -0.001531 -0.002430 0.000000 0.024911 -0.000004
# 6 0.000005 0.000002 0.000003 0.168958 -0.000004 -0.814764
#
#
# Mechanical properties :
#
#
# Convention : Reuss Voigt Hill
#
# Bulk Modulus (GPa) = 23.96162 25.32205 24.64184
# Shear Modulus (GPa) = -8.69667 22.62045 6.96189
#
# Velocity S-wave (km/s) = -2.10576 3.39611 1.88406
# Velocity P-wave (km/s) = 2.51100 5.31875 4.15898
#
# Compressibility (1/GPa) = 0.04173340
#
# Stress axis : x y z
#
# Youngs Moduli (GPa) = 40.07230 74.60808 84.17717
#
# Poissons Ratio (x) = 0.25157 0.23359
# Poissons Ratio (y) = 0.13512 -0.15948
# Poissons Ratio (z) = 0.11120 -0.14135
#
# Static dielectric constant tensor:
#      x y z
#    x 1.742270 0.000000 -0.000080 
#    y 0.000000 1.710630 0.000000 
#    z -0.000080 0.000000 1.720710 
# 
# From -- ./inp_files/301957.got.cif
#   From: 2010.05.17/outbox.cif.g08.bks.cpg/sg15_151_cif.got.tgz:301957.got - 2010.06.03 18:47:42.
