data_PCOD9264132
_publ_section_title
;
Structure prediction by ZEFSAII (Michael W. Deem and Ramdas Pophale) SiO2 
 PCOD9264132
Probable space group: C 2/C
;
_chemical_formula_sum "Si O2"
_cell_formula_units_Z 56
_cell_length_a 7.367431
_cell_length_b 37.616175
_cell_length_c 18.130103
_cell_angle_alpha 90.000000
_cell_angle_beta 34.502443
_cell_angle_gamma 90.000000
_cell_volume 2846.072439
_symmetry_space_group_name_H-M "C 2/C"
_symmetry_group_IT_number 15
_symmetry_cell_setting 'monoclinic'
loop_
_space_group_symop_operation_xyz
x,y,z
-x,y,1/2-z
-x,-y,-z
x,-y,1/2+z
1/2+x,1/2+y,z
1/2-x,1/2+y,1/2-z
1/2-x,1/2-y,-z
1/2+x,1/2-y,1/2+z
loop_
_atom_site_type_symbol
_atom_site_label
_atom_site_fract_x
_atom_site_fract_y
_atom_site_fract_z
Si Si1 0.787047 0.336918 0.468421
Si Si2 0.749031 0.289832 0.264726
Si Si3 0.344460 0.710003 0.221192
Si Si4 0.061265 0.596071 0.104184
Si Si5 0.517855 0.408760 0.590760
Si Si6 0.733724 0.671286 0.482558
Si Si7 0.294514 0.032994 0.096628
O O1 0.594561 0.310763 0.586972
O O2 0.775858 0.377253 0.499587
O O3 0.566310 0.336999 0.469281
O O4 0.120522 0.319562 0.334426
O O5 0.773407 0.250576 0.222755
O O6 0.403043 0.301449 0.411346
O O7 0.000000 0.288949 0.250000
O O8 0.500000 0.710635 0.250000
O O9 0.011079 0.689230 0.341326
O O10 0.331354 0.588519 0.075676
O O11 0.140699 0.632644 0.035229
O O12 0.740013 0.602468 0.260176
O O13 0.998872 0.562503 0.073208
O O14 0.655351 0.445787 0.572992
O O15 0.000000 0.022930 0.250000
O O16 0.500000 0.000000 0.000000
#
# Coordination Sequence:
#
# PCOD9264132 Si02
#       7
#     8   8   8   8   8   8   8
#     4  10  19  35  56  76 107 147 190 236 278 333
#     4   9  20  35  49  77 113 146 183 239 296 329
#     4  11  21  31  53  79 107 146 193 235 282 338
#     4   9  18  34  60  87 109 148 194 225 271 338
#     4   9  18  34  60  87 109 148 194 225 271 338
#     4  10  19  35  56  76 107 147 190 236 278 333
#     4  10  22  40  62  86 120 146 178 234 284 336
#
# _framework density 19.676238000000001
#
# number of rings (size 3 to 8) (size 9 to 14) (size 15 to 20)
#    0.000    2.286    1.429    1.286    2.000    0.571 
#    2.571    2.143    0.000    0.000    0.000    0.000 
#    0.000    0.000    0.000    0.000    0.000    0.000 
#
# Total GULP energy -156303.881407 kJ/mol
# GULP energy per Si atom -5582.281479 kJ/mol
# Density = 1.963145 g / cm^3
# Si number density = 19.676238 Si / 1000 Ang^3
#
#
#
# Elastic Constant Matrix: (Units=GPa)
#
#
# Indices 1 2 3 4 5 6 
#
# 1 22.7789 -8.0695 -17.2866 0.0000 -7.2012 0.0000
# 2 -8.0695 107.2230 36.8256 0.0000 -8.2922 0.0000
# 3 -17.2866 36.8256 69.1162 0.0000 -2.5929 0.0000
# 4 0.0000 0.0000 0.0000 34.9364 0.0000 5.3791
# 5 -7.2012 -8.2922 -2.5929 0.0000 9.5433 0.0000
# 6 0.0000 0.0000 0.0000 5.3791 0.0000 17.8971
#
#
#
# Elastic Compliance Matrix: (Units=1/GPa)
#
#
# Indices 1 2 3 4 5 6 
#
# 1 0.085648 0.004775 0.021678 0.000000 0.074668 0.000000
# 2 0.004775 0.012381 -0.004914 0.000000 0.013026 0.000000
# 3 0.021678 -0.004914 0.023198 0.000000 0.018392 0.000000
# 4 0.000000 0.000000 0.000000 0.030012 0.000000 -0.009020
# 5 0.074668 0.013026 0.018392 0.000000 0.177443 0.000000
# 6 0.000000 0.000000 0.000000 -0.009020 0.000000 0.058586
#
#
# Mechanical properties :
#
#
# Convention : Reuss Voigt Hill
#
# Bulk Modulus (GPa) = 6.08617 24.67301 15.37959
# Shear Modulus (GPa) = 12.53265 24.98528 18.75896
#
# Velocity S-wave (km/s) = 2.52651 3.56732 3.09104
# Velocity P-wave (km/s) = 3.40747 5.43456 4.53571
#
# Compressibility (1/GPa) = 0.16430690
#
# Stress axis : x y z
#
# Youngs Moduli (GPa) = 11.67563 80.77141 43.10661
#
# Poissons Ratio (x) = -0.38568 -0.93448
# Poissons Ratio (y) = -0.05575 0.21181
# Poissons Ratio (z) = -0.25311 0.39688
#
# Static dielectric constant tensor:
#      x y z
#    x 1.752670 0.000000 -0.001190 
#    y 0.000000 1.670130 0.000000 
#    z -0.001190 0.000000 1.639640 
# 
# From -- ./inp_files/234907.got.cif
#   From: 2010.05.17/outbox.cif.g08.bks.cpg/sg15_118_cif.got.tgz:234907.got - 2010.06.03 18:47:42.
