data_PCOD9264934
_publ_section_title
;
Structure prediction by ZEFSAII (Michael W. Deem and Ramdas Pophale) SiO2 
 PCOD9264934
Probable space group: C 2/C
;
_chemical_formula_sum "Si O2"
_cell_formula_units_Z 64
_cell_length_a 25.460214
_cell_length_b 9.698986
_cell_length_c 14.569919
_cell_angle_alpha 90.000000
_cell_angle_beta 41.757788
_cell_angle_gamma 90.000000
_cell_volume 2396.120792
_symmetry_space_group_name_H-M "C 2/C"
_symmetry_group_IT_number 15
_symmetry_cell_setting 'monoclinic'
loop_
_space_group_symop_operation_xyz
x,y,z
-x,y,1/2-z
-x,-y,-z
x,-y,1/2+z
1/2+x,1/2+y,z
1/2-x,1/2+y,1/2-z
1/2-x,1/2-y,-z
1/2+x,1/2-y,1/2+z
loop_
_atom_site_type_symbol
_atom_site_label
_atom_site_fract_x
_atom_site_fract_y
_atom_site_fract_z
Si Si1 0.294976 0.153954 0.232795
Si Si2 0.096306 0.670156 0.250543
Si Si3 0.054831 0.723879 0.815184
Si Si4 0.077378 0.343325 0.496678
Si Si5 0.629837 0.529853 0.458817
Si Si6 0.786720 0.414033 0.061905
Si Si7 0.113395 0.749117 0.553202
Si Si8 0.116846 0.020450 0.769458
O O1 0.372462 0.124235 0.190691
O O2 0.224322 0.045779 0.328265
O O3 0.258193 0.280041 0.340321
O O4 0.314308 0.210911 0.106775
O O5 0.160550 0.622917 0.093986
O O6 0.092774 0.837073 0.253851
O O7 0.007973 0.616651 0.353593
O O8 0.072324 0.665696 0.893036
O O9 0.112715 0.684544 0.655403
O O10 0.966851 0.703191 0.892729
O O11 0.067709 0.887726 0.807760
O O12 0.096057 0.185239 0.506378
O O13 0.146853 0.438398 0.446202
O O14 0.610721 0.416658 0.559772
O O15 0.603665 0.464406 0.396130
O O16 0.711037 0.505954 0.134371
#
# Coordination Sequence:
#
# PCOD9264934 Si02
#       8
#     8   8   8   8   8   8   8   8
#     4  10  20  35  55  83 118 154 192 238 294 353
#     4  11  19  33  56  81 116 152 193 244 290 347
#     4  10  22  34  59  87 120 152 197 237 302 351
#     4  10  20  36  52  84 113 154 192 239 290 353
#     4  10  20  34  57  83 117 156 185 240 297 347
#     4  10  21  33  53  82 118 155 192 238 294 350
#     4  11  20  37  58  90 120 156 189 248 295 350
#     4  10  19  36  54  84 120 150 190 246 290 350
#
# _framework density 26.709838999999999
#
# number of rings (size 3 to 8) (size 9 to 14) (size 15 to 20)
#    0.000    1.750    3.750    2.625    5.250    2.000 
#    0.000    5.625    0.000    0.750    6.500    0.000 
#    0.000    0.000    0.000    0.000    0.000    0.000 
#
# Total GULP energy -179325.050447 kJ/mol
# GULP energy per Si atom -5603.907826 kJ/mol
# Density = 2.664905 g / cm^3
# Si number density = 26.709839 Si / 1000 Ang^3
#
#
#
# Elastic Constant Matrix: (Units=GPa)
#
#
# Indices 1 2 3 4 5 6 
#
# 1 99.9704 8.8921 36.8235 0.0000 -10.9781 0.0000
# 2 8.8921 120.0013 7.8822 -0.0004 -8.3985 0.0003
# 3 36.8235 7.8822 153.6953 0.0000 2.8960 0.0001
# 4 0.0000 -0.0004 0.0000 22.7192 0.0000 -15.8212
# 5 -10.9781 -8.3985 2.8960 0.0000 63.2919 0.0000
# 6 0.0000 0.0003 0.0001 -15.8212 0.0000 24.3846
#
#
#
# Elastic Compliance Matrix: (Units=1/GPa)
#
#
# Indices 1 2 3 4 5 6 
#
# 1 0.011268 -0.000516 -0.002711 0.000000 0.002010 0.000000
# 2 -0.000516 0.008467 -0.000330 0.000000 0.001049 0.000000
# 3 -0.002711 -0.000330 0.007189 0.000000 -0.000843 0.000000
# 4 0.000000 0.000000 0.000000 0.080294 0.000000 0.052096
# 5 0.002010 0.001049 -0.000843 0.000000 0.016326 0.000000
# 6 0.000000 0.000000 0.000000 0.052096 0.000000 0.074811
#
#
# Mechanical properties :
#
#
# Convention : Reuss Voigt Hill
#
# Bulk Modulus (GPa) = 50.48387 53.42919 51.95653
# Shear Modulus (GPa) = 23.57681 43.41710 33.49696
#
# Velocity S-wave (km/s) = 2.97425 4.03613 3.54518
# Velocity P-wave (km/s) = 5.54408 6.46278 6.02098
#
# Compressibility (1/GPa) = 0.01980831
#
# Stress axis : x y z
#
# Youngs Moduli (GPa) = 88.74505 118.11101 139.10615
#
# Poissons Ratio (x) = 0.06097 0.37713
# Poissons Ratio (y) = 0.04581 0.04595
# Poissons Ratio (z) = 0.24060 0.03901
#
# Static dielectric constant tensor:
#      x y z
#    x 2.118070 0.000000 0.011490 
#    y 0.000000 2.183180 0.000000 
#    z 0.011490 0.000000 2.078130 
# 
# From -- ./inp_files/177793.got.cif
#   From: 2010.05.17/outbox.cif.g08.bks.cpg/sg15_89_cif.got.tgz:177793.got - 2010.06.03 18:47:42.
