data_PCOD9264855
_publ_section_title
;
Structure prediction by ZEFSAII (Michael W. Deem and Ramdas Pophale) SiO2 
 PCOD9264855
Probable space group: C 2/C
;
_chemical_formula_sum "Si O2"
_cell_formula_units_Z 40
_cell_length_a 9.220063
_cell_length_b 16.129705
_cell_length_c 10.527912
_cell_angle_alpha 90.000000
_cell_angle_beta 77.252843
_cell_angle_gamma 90.000000
_cell_volume 1527.089545
_symmetry_space_group_name_H-M "C 2/C"
_symmetry_group_IT_number 15
_symmetry_cell_setting 'monoclinic'
loop_
_space_group_symop_operation_xyz
x,y,z
-x,y,1/2-z
-x,-y,-z
x,-y,1/2+z
1/2+x,1/2+y,z
1/2-x,1/2+y,1/2-z
1/2-x,1/2-y,-z
1/2+x,1/2-y,1/2+z
loop_
_atom_site_type_symbol
_atom_site_label
_atom_site_fract_x
_atom_site_fract_y
_atom_site_fract_z
Si Si1 0.066293 0.736478 0.880450
Si Si2 0.622778 0.516554 0.620661
Si Si3 0.912265 0.866833 0.062842
Si Si4 0.856873 0.649373 0.373098
Si Si5 0.668778 0.032487 0.718675
O O1 0.217023 0.794259 0.852530
O O2 0.000000 0.725880 0.750000
O O3 0.101622 0.669720 0.987481
O O4 0.933723 0.786686 0.977903
O O5 0.500000 0.492459 0.750000
O O6 0.604744 0.446421 0.522292
O O7 0.568758 0.609712 0.599219
O O8 0.780982 0.505436 0.652310
O O9 0.769808 0.885699 0.176035
O O10 0.813146 0.551893 0.366960
O O11 0.000000 0.662709 0.250000
O O12 0.500000 0.054813 0.750000
#
# Coordination Sequence:
#
# PCOD9264855 Si02
#       5
#     8   8   8   8   8
#     4  11  23  43  72 102 141 193 244 293 359 440
#     4   9  17  31  56  89 125 169 223 281 347 417
#     4  10  19  35  65  96 130 177 233 292 355 422
#     4  10  23  42  68 102 143 190 240 296 360 435
#     4  10  21  38  61  96 143 180 225 299 370 419
#
# _framework density 26.193618000000001
#
# number of rings (size 3 to 8) (size 9 to 14) (size 15 to 20)
#    0.000    2.000    0.000    5.400    0.000    4.000 
#    0.000    2.000    0.000   32.400    0.000    0.000 
#    0.000    0.000    0.000    0.000    0.000    0.000 
#
# Total GULP energy -111614.880073 kJ/mol
# GULP energy per Si atom -5580.744004 kJ/mol
# Density = 2.613400 g / cm^3
# Si number density = 26.193618 Si / 1000 Ang^3
#
#
#
# Elastic Constant Matrix: (Units=GPa)
#
#
# Indices 1 2 3 4 5 6 
#
# 1 174.9555 54.0706 59.3434 0.0000 29.1152 0.0000
# 2 54.0706 129.1802 48.9876 0.0000 13.3691 0.0000
# 3 59.3434 48.9876 127.4002 0.0000 43.4975 0.0000
# 4 0.0000 0.0000 0.0000 9.4520 0.0000 -17.9037
# 5 29.1152 13.3691 43.4975 0.0000 49.5110 0.0000
# 6 0.0000 0.0000 0.0000 -17.9037 0.0000 75.0057
#
#
#
# Elastic Compliance Matrix: (Units=1/GPa)
#
#
# Indices 1 2 3 4 5 6 
#
# 1 0.007370 -0.002151 -0.001892 0.000000 -0.002091 0.000000
# 2 -0.002151 0.009717 -0.003243 0.000000 0.001490 0.000000
# 3 -0.001892 -0.003243 0.013283 0.000000 -0.009681 0.000000
# 4 0.000000 0.000000 0.000000 0.193110 0.000000 0.046095
# 5 -0.002091 0.001490 -0.009681 0.000000 0.029530 0.000000
# 6 0.000000 0.000000 0.000000 0.046095 0.000000 0.024335
#
#
# Mechanical properties :
#
#
# Convention : Reuss Voigt Hill
#
# Bulk Modulus (GPa) = 63.30007 84.03767 73.66887
# Shear Modulus (GPa) = 16.82456 44.73601 30.78028
#
# Velocity S-wave (km/s) = 2.53714 4.13715 3.43170
# Velocity P-wave (km/s) = 5.72726 7.41447 6.62479
#
# Compressibility (1/GPa) = 0.01579777
#
# Stress axis : x y z
#
# Youngs Moduli (GPa) = 135.68014 102.91065 75.28312
#
# Poissons Ratio (x) = 0.22137 0.14244
# Poissons Ratio (y) = 0.29185 0.24417
# Poissons Ratio (z) = 0.25671 0.33377
#
# Static dielectric constant tensor:
#      x y z
#    x 1.617470 0.000000 -0.651000 
#    y 0.000000 2.029690 0.000000 
#    z -0.651000 0.000000 1.803010 
# 
# From -- ./inp_files/77724.got.cif
#   From: 2010.05.17/outbox.cif.g08.bks.cpg/sg15_39_cif.got.tgz:77724.got - 2010.06.03 18:47:42.
