data_PCOD9264318
_publ_section_title
;
Structure prediction by ZEFSAII (Michael W. Deem and Ramdas Pophale) SiO2 
 PCOD9264318
Probable space group: C 2/C
;
_chemical_formula_sum "Si O2"
_cell_formula_units_Z 40
_cell_length_a 5.361437
_cell_length_b 24.632983
_cell_length_c 14.661337
_cell_angle_alpha 90.000000
_cell_angle_beta 104.939262
_cell_angle_gamma 90.000000
_cell_volume 1870.848704
_symmetry_space_group_name_H-M "C 2/C"
_symmetry_group_IT_number 15
_symmetry_cell_setting 'monoclinic'
loop_
_space_group_symop_operation_xyz
x,y,z
-x,y,1/2-z
-x,-y,-z
x,-y,1/2+z
1/2+x,1/2+y,z
1/2-x,1/2+y,1/2-z
1/2-x,1/2-y,-z
1/2+x,1/2-y,1/2+z
loop_
_atom_site_type_symbol
_atom_site_label
_atom_site_fract_x
_atom_site_fract_y
_atom_site_fract_z
Si Si1 0.387218 0.818574 0.937876
Si Si2 0.205459 0.575558 0.186885
Si Si3 0.268520 0.205566 0.629133
Si Si4 0.204495 0.454538 0.186793
Si Si5 0.759617 0.840635 0.115373
O O1 0.332314 0.875204 0.885499
O O2 0.317982 0.767651 0.868070
O O3 0.233322 0.809506 0.017708
O O4 0.675460 0.819670 0.007026
O O5 0.500000 0.577663 0.250000
O O6 0.162646 0.514885 0.143252
O O7 0.000000 0.581656 0.250000
O O8 0.573528 0.194003 0.665103
O O9 0.061029 0.167479 0.657740
O O10 0.500000 0.453253 0.250000
O O11 0.177576 0.403004 0.118746
O O12 0.000000 0.448090 0.250000
#
# Coordination Sequence:
#
# PCOD9264318 Si02
#       5
#     8   8   8   8   8
#     4   9  21  36  60  78 115 139 186 221 269 326
#     4  10  23  38  56  79 110 148 180 224 276 317
#     4   9  20  34  59  81 110 139 175 227 276 306
#     4  10  21  39  55  77 114 145 179 229 275 318
#     4  10  19  35  58  81 104 145 182 218 273 321
#
# _framework density 21.380669999999999
#
# number of rings (size 3 to 8) (size 9 to 14) (size 15 to 20)
#    1.200    1.200    0.000    1.800    2.800    0.800 
#    0.000    7.000    0.000    0.000    0.000    0.000 
#    0.000    0.000    0.000    0.000    0.000    0.000 
#
# Total GULP energy -111442.207210 kJ/mol
# GULP energy per Si atom -5572.110360 kJ/mol
# Density = 2.133201 g / cm^3
# Si number density = 21.380670 Si / 1000 Ang^3
#
#
#
# Elastic Constant Matrix: (Units=GPa)
#
#
# Indices 1 2 3 4 5 6 
#
# 1 144.3255 25.7538 13.6738 0.0000 11.1016 0.0000
# 2 25.7538 149.6239 19.9064 0.0000 -3.1344 0.0000
# 3 13.6738 19.9064 21.8507 0.0000 8.4982 0.0000
# 4 0.0000 0.0000 0.0000 38.0868 0.0000 8.4304
# 5 11.1016 -3.1344 8.4982 0.0000 25.5712 0.0000
# 6 0.0000 0.0000 0.0000 8.4304 0.0000 19.6097
#
#
#
# Elastic Compliance Matrix: (Units=1/GPa)
#
#
# Indices 1 2 3 4 5 6 
#
# 1 0.007564 -0.000966 -0.002905 0.000000 -0.002437 0.000000
# 2 -0.000966 0.008049 -0.008355 0.000000 0.004183 0.000000
# 3 -0.002905 -0.008355 0.063282 0.000000 -0.020793 0.000000
# 4 0.000000 0.000000 0.000000 0.029017 0.000000 -0.012475
# 5 -0.002437 0.004183 -0.020793 0.000000 0.047587 0.000000
# 6 0.000000 0.000000 0.000000 -0.012475 0.000000 0.056358
#
#
# Mechanical properties :
#
#
# Convention : Reuss Voigt Hill
#
# Bulk Modulus (GPa) = 18.36825 48.27422 33.32124
# Shear Modulus (GPa) = 19.64968 33.75127 26.70048
#
# Velocity S-wave (km/s) = 3.03486 3.97746 3.53769
# Velocity P-wave (km/s) = 4.57058 6.61219 5.68380
#
# Compressibility (1/GPa) = 0.05444176
#
# Stress axis : x y z
#
# Youngs Moduli (GPa) = 132.20652 124.24007 15.80239
#
# Poissons Ratio (x) = 0.12007 0.04591
# Poissons Ratio (y) = 0.12777 0.13202
# Poissons Ratio (z) = 0.38408 1.03799
#
# Static dielectric constant tensor:
#      x y z
#    x 1.777950 0.000000 0.033860 
#    y 0.000000 1.771040 0.000000 
#    z 0.033860 0.000000 1.892020 
# 
# From -- ./inp_files/129539.got.cif
#   From: 2010.05.17/outbox.cif.g08.bks.cpg/sg15_65_cif.got.tgz:129539.got - 2010.06.03 18:47:42.
