data_PCOD9264479
_publ_section_title
;
Structure prediction by ZEFSAII (Michael W. Deem and Ramdas Pophale) SiO2 
 PCOD9264479
Probable space group: C 2/C
;
_chemical_formula_sum "Si O2"
_cell_formula_units_Z 64
_cell_length_a 7.541579
_cell_length_b 15.938558
_cell_length_c 27.272394
_cell_angle_alpha 90.000000
_cell_angle_beta 59.827310
_cell_angle_gamma 90.000000
_cell_volume 2834.045641
_symmetry_space_group_name_H-M "C 2/C"
_symmetry_group_IT_number 15
_symmetry_cell_setting 'monoclinic'
loop_
_space_group_symop_operation_xyz
x,y,z
-x,y,1/2-z
-x,-y,-z
x,-y,1/2+z
1/2+x,1/2+y,z
1/2-x,1/2+y,1/2-z
1/2-x,1/2-y,-z
1/2+x,1/2-y,1/2+z
loop_
_atom_site_type_symbol
_atom_site_label
_atom_site_fract_x
_atom_site_fract_y
_atom_site_fract_z
Si Si1 0.698769 0.743550 0.612901
Si Si2 0.848826 0.759876 0.225543
Si Si3 0.875552 0.089619 0.065524
Si Si4 0.984448 0.278552 0.340559
Si Si5 0.179174 0.112741 0.192027
Si Si6 0.071464 0.616835 0.976127
Si Si7 0.751048 0.945261 0.916294
Si Si8 0.724989 0.399062 0.440454
O O1 0.484892 0.706100 0.661830
O O2 0.704623 0.841678 0.600502
O O3 0.864541 0.733277 0.633966
O O4 0.785025 0.694269 0.554655
O O5 0.640544 0.802456 0.274131
O O6 0.808144 0.664105 0.214208
O O7 0.000000 0.759363 0.250000
O O8 0.040171 0.086011 0.087319
O O9 0.786415 0.996871 0.071768
O O10 0.008510 0.116192 0.998782
O O11 0.893839 0.190838 0.332873
O O12 0.807090 0.340738 0.384774
O O13 0.248467 0.046147 0.142196
O O14 0.000000 0.074911 0.250000
O O15 0.201284 0.532542 0.950342
O O16 0.895303 0.613472 0.958968
O O17 0.939431 0.614792 0.043492
#
# Coordination Sequence:
#
# PCOD9264479 Si02
#       8
#     8   8   8   8   8   8   8   8
#     4  10  19  35  59  86 112 153 197 239 288 348
#     4   9  20  36  57  81 115 148 196 246 289 344
#     4  10  20  34  59  89 122 151 193 245 293 347
#     4   9  18  36  59  80 111 155 193 237 288 349
#     4  10  20  35  58  84 111 150 199 240 289 346
#     4   9  21  36  57  82 121 157 192 233 299 349
#     4  10  20  37  56  82 123 155 189 242 293 350
#     4   9  20  35  57  88 121 152 195 239 294 353
#
# _framework density 22.582557999999999
#
# number of rings (size 3 to 8) (size 9 to 14) (size 15 to 20)
#    0.000    2.500    1.250    0.000    3.500    2.500 
#    0.000    3.750    0.000    5.250    0.000    0.000 
#    0.000    0.000    0.000    0.000    0.000    0.000 
#
# Total GULP energy -178437.754782 kJ/mol
# GULP energy per Si atom -5576.179837 kJ/mol
# Density = 2.253116 g / cm^3
# Si number density = 22.582558 Si / 1000 Ang^3
#
#
#
# Elastic Constant Matrix: (Units=GPa)
#
#
# Indices 1 2 3 4 5 6 
#
# 1 47.3635 -4.6886 19.7919 0.0000 17.2876 -0.0001
# 2 -4.6886 27.2604 36.4358 0.0001 -0.2105 -0.0001
# 3 19.7919 36.4358 145.8341 0.0000 -4.0122 0.0000
# 4 0.0000 0.0001 0.0000 29.9485 0.0000 1.7795
# 5 17.2876 -0.2105 -4.0122 0.0000 19.5274 0.0001
# 6 -0.0001 -0.0001 0.0000 1.7795 0.0001 21.0217
#
#
#
# Elastic Compliance Matrix: (Units=1/GPa)
#
#
# Indices 1 2 3 4 5 6 
#
# 1 0.044686 0.025544 -0.013604 0.000000 -0.042081 0.000000
# 2 0.025544 0.069775 -0.021623 0.000000 -0.026305 0.000000
# 3 -0.013604 -0.021623 0.014513 0.000000 0.014793 0.000000
# 4 0.000000 0.000000 0.000000 0.033560 0.000000 -0.002841
# 5 -0.042081 -0.026305 0.014793 0.000000 0.091220 -0.000001
# 6 0.000000 0.000000 0.000000 -0.002841 -0.000001 0.047810
#
#
# Mechanical properties :
#
#
# Convention : Reuss Voigt Hill
#
# Bulk Modulus (GPa) = 9.12351 35.94847 22.53599
# Shear Modulus (GPa) = 13.98732 25.36076 19.67404
#
# Velocity S-wave (km/s) = 2.49145 3.35479 2.95482
# Velocity P-wave (km/s) = 3.51073 5.56412 4.65213
#
# Compressibility (1/GPa) = 0.10960690
#
# Stress axis : x y z
#
# Youngs Moduli (GPa) = 22.37820 14.33185 68.90444
#
# Poissons Ratio (x) = -0.36609 0.93740
# Poissons Ratio (y) = -0.57163 1.48994
# Poissons Ratio (z) = 0.30444 0.30990
#
# Static dielectric constant tensor:
#      x y z
#    x 1.882930 0.000000 -0.025490 
#    y 0.000000 1.828000 0.000000 
#    z -0.025490 0.000000 1.931440 
# 
# From -- ./inp_files/308236.got.cif
#   From: 2010.05.17/outbox.cif.g08.bks.cpg/sg15_155_cif.got.tgz:308236.got - 2010.06.03 18:47:42.
