data_PCOD9264147
_publ_section_title
;
Structure prediction by ZEFSAII (Michael W. Deem and Ramdas Pophale) SiO2 
 PCOD9264147
Probable space group: C 2/C
;
_chemical_formula_sum "Si O2"
_cell_formula_units_Z 64
_cell_length_a 8.734272
_cell_length_b 23.405544
_cell_length_c 16.925696
_cell_angle_alpha 90.000000
_cell_angle_beta 65.541314
_cell_angle_gamma 90.000000
_cell_volume 3149.615024
_symmetry_space_group_name_H-M "C 2/C"
_symmetry_group_IT_number 15
_symmetry_cell_setting 'monoclinic'
loop_
_space_group_symop_operation_xyz
x,y,z
-x,y,1/2-z
-x,-y,-z
x,-y,1/2+z
1/2+x,1/2+y,z
1/2-x,1/2+y,1/2-z
1/2-x,1/2-y,-z
1/2+x,1/2-y,1/2+z
loop_
_atom_site_type_symbol
_atom_site_label
_atom_site_fract_x
_atom_site_fract_y
_atom_site_fract_z
Si Si1 0.518544 0.558048 0.842378
Si Si2 0.110947 0.339895 0.419189
Si Si3 0.846728 0.473350 0.082757
Si Si4 0.191053 0.345837 0.733126
Si Si5 0.685748 0.977655 0.738448
Si Si6 0.021216 0.238982 0.339087
Si Si7 0.991724 0.812737 0.347275
Si Si8 0.662759 0.792298 0.903344
O O1 0.500000 0.557306 0.750000
O O2 0.340529 0.535352 0.914453
O O3 0.672108 0.517269 0.829049
O O4 0.559018 0.623833 0.852418
O O5 0.109584 0.407458 0.405119
O O6 0.294167 0.318922 0.408707
O O7 0.071597 0.302721 0.350618
O O8 0.973861 0.320347 0.511492
O O9 0.818164 0.511601 0.166577
O O10 0.000000 0.500000 0.000000
O O11 0.220483 0.412001 0.709391
O O12 0.330404 0.303900 0.666605
O O13 0.201505 0.336491 0.824680
O O14 0.000000 0.331388 0.750000
O O15 0.500000 0.992812 0.750000
O O16 0.837797 0.221812 0.409374
O O17 0.000000 0.235166 0.250000
O O18 0.000000 0.803781 0.250000
O O19 0.087054 0.763668 0.375128
#
# Coordination Sequence:
#
# PCOD9264147 Si02
#       8
#     8   8   8   8   8   8   8   8
#     4   8  18  35  56  79 106 144 187 222 265 324
#     4  11  22  36  55  82 113 145 179 221 272 324
#     4  10  21  37  58  81 111 147 182 219 270 327
#     4  10  21  37  57  80 110 145 182 221 269 326
#     4  10  21  37  58  82 105 140 186 229 268 314
#     4  10  22  37  56  82 109 143 182 224 270 319
#     4  10  19  35  56  79 108 146 184 220 266 325
#     4  11  21  34  55  83 112 142 179 224 272 319
#
# _framework density 20.319942000000001
#
# number of rings (size 3 to 8) (size 9 to 14) (size 15 to 20)
#    0.000    2.000    0.000    4.875    0.000    7.000 
#    0.000    1.875    0.000    0.000    0.000    0.000 
#    0.000    0.000    0.000    0.000    0.000    0.000 
#
# Total GULP energy -178615.107416 kJ/mol
# GULP energy per Si atom -5581.722107 kJ/mol
# Density = 2.027369 g / cm^3
# Si number density = 20.319942 Si / 1000 Ang^3
#
#
#
# Elastic Constant Matrix: (Units=GPa)
#
#
# Indices 1 2 3 4 5 6 
#
# 1 73.7395 61.0017 7.7799 0.0000 -24.2185 0.0000
# 2 61.0017 106.9110 15.1999 0.0000 -26.8147 0.0000
# 3 7.7799 15.1999 54.0972 0.0000 -30.1928 0.0000
# 4 0.0000 0.0000 0.0000 30.7360 0.0000 -6.9542
# 5 -24.2185 -26.8147 -30.1928 0.0000 29.1869 0.0000
# 6 0.0000 0.0000 0.0000 -6.9542 0.0000 3.3252
#
#
#
# Elastic Compliance Matrix: (Units=1/GPa)
#
#
# Indices 1 2 3 4 5 6 
#
# 1 0.034218 -0.013287 0.018564 0.000000 0.035390 0.000000
# 2 -0.013287 0.018422 0.000065 0.000000 0.005967 0.000000
# 3 0.018564 0.000065 0.057798 0.000000 0.075254 0.000000
# 4 0.000000 0.000000 0.000000 0.061759 0.000000 0.129162
# 5 0.035390 0.005967 0.075254 0.000000 0.146957 0.000000
# 6 0.000000 0.000000 0.000000 0.129162 0.000000 0.570864
#
#
# Mechanical properties :
#
#
# Convention : Reuss Voigt Hill
#
# Bulk Modulus (GPa) = 8.25612 44.74562 26.50087
# Shear Modulus (GPa) = 5.43650 22.70069 14.06860
#
# Velocity S-wave (km/s) = 1.63746 3.34603 2.63412
# Velocity P-wave (km/s) = 2.76530 6.08245 4.72457
#
# Compressibility (1/GPa) = 0.12112221
#
# Stress axis : x y z
#
# Youngs Moduli (GPa) = 29.22451 54.28173 17.30161
#
# Poissons Ratio (x) = 0.72125 -0.32119
# Poissons Ratio (y) = 0.38831 -0.00112
# Poissons Ratio (z) = -0.54253 -0.00352
#
# Static dielectric constant tensor:
#      x y z
#    x 1.751750 0.000000 -0.022700 
#    y 0.000000 1.705940 0.000000 
#    z -0.022700 0.000000 1.755970 
# 
# From -- ./inp_files/233826.got.cif
#   From: 2010.05.17/outbox.cif.g08.bks.cpg/sg15_117_cif.got.tgz:233826.got - 2010.06.03 18:47:42.
