data_PCOD9264344
_publ_section_title
;
Structure prediction by ZEFSAII (Michael W. Deem and Ramdas Pophale) SiO2 
 PCOD9264344
Probable space group: C 2/C
;
_chemical_formula_sum "Si O2"
_cell_formula_units_Z 64
_cell_length_a 22.658308
_cell_length_b 11.265478
_cell_length_c 13.371309
_cell_angle_alpha 90.000000
_cell_angle_beta 80.382477
_cell_angle_gamma 90.000000
_cell_volume 3365.144427
_symmetry_space_group_name_H-M "C 2/C"
_symmetry_group_IT_number 15
_symmetry_cell_setting 'monoclinic'
loop_
_space_group_symop_operation_xyz
x,y,z
-x,y,1/2-z
-x,-y,-z
x,-y,1/2+z
1/2+x,1/2+y,z
1/2-x,1/2+y,1/2-z
1/2-x,1/2-y,-z
1/2+x,1/2-y,1/2+z
loop_
_atom_site_type_symbol
_atom_site_label
_atom_site_fract_x
_atom_site_fract_y
_atom_site_fract_z
Si Si1 0.533922 0.670957 0.519614
Si Si2 0.849351 0.861688 0.838281
Si Si3 0.335449 0.373879 0.613091
Si Si4 0.470625 0.438972 0.864299
Si Si5 0.746734 0.538441 0.004098
Si Si6 0.363231 0.089899 0.840506
Si Si7 0.172273 0.596425 0.871429
Si Si8 0.444463 0.938768 0.958868
O O1 0.598344 0.632967 0.454713
O O2 0.511109 0.567993 0.599676
O O3 0.489746 0.661732 0.437460
O O4 0.538271 0.801120 0.566096
O O5 0.837101 0.908296 0.729790
O O6 0.899969 0.942940 0.871443
O O7 0.876927 0.729546 0.824451
O O8 0.793954 0.863707 0.929925
O O9 0.293057 0.457146 0.558750
O O10 0.315012 0.236804 0.625184
O O11 0.500000 0.414423 0.750000
O O12 0.772593 0.464594 0.089907
O O13 0.805248 0.579809 0.927944
O O14 0.341112 0.052630 0.736650
O O15 0.417444 0.013720 0.873077
O O16 0.111735 0.570776 0.949921
O O17 0.500000 0.000000 0.000000
#
# Coordination Sequence:
#
# PCOD9264344 Si02
#       8
#     8   8   8   8   8   8   8   8
#     4  10  21  38  58  86 117 148 190 238 282 345
#     4  11  21  35  59  86 112 152 194 228 288 343
#     4  10  19  35  58  83 110 153 193 230 283 342
#     4  11  21  37  60  86 119 149 187 238 288 337
#     4  11  20  36  58  82 119 147 189 243 286 328
#     4  10  22  39  57  84 118 150 189 236 280 345
#     4   9  21  37  57  83 114 151 195 232 280 348
#     4  10  21  40  61  84 114 152 190 234 290 336
#
# _framework density 19.018498999999998
#
# number of rings (size 3 to 8) (size 9 to 14) (size 15 to 20)
#    0.000    1.750    2.500    2.250    0.000    0.500 
#    2.250    0.000    2.750    0.000    0.000    0.000 
#    0.000    0.000    0.000    0.000    0.000    0.000 
#
# Total GULP energy -178397.693687 kJ/mol
# GULP energy per Si atom -5574.927928 kJ/mol
# Density = 1.897521 g / cm^3
# Si number density = 19.018499 Si / 1000 Ang^3
#
#
#
# Elastic Constant Matrix: (Units=GPa)
#
#
# Indices 1 2 3 4 5 6 
#
# 1 66.4173 23.8225 15.8828 0.0000 28.9601 0.0000
# 2 23.8225 66.8549 27.3812 0.0000 26.2042 0.0000
# 3 15.8828 27.3812 77.3991 0.0000 38.7043 0.0000
# 4 0.0000 0.0000 0.0000 18.5041 0.0000 -0.0527
# 5 28.9601 26.2042 38.7043 0.0000 35.8969 0.0000
# 6 0.0000 0.0000 0.0000 -0.0527 0.0000 16.1189
#
#
#
# Elastic Compliance Matrix: (Units=1/GPa)
#
#
# Indices 1 2 3 4 5 6 
#
# 1 0.027516 -0.001331 0.011803 0.000000 -0.033953 0.000000
# 2 -0.001331 0.021027 -0.000058 0.000000 -0.014213 0.000000
# 3 0.011803 -0.000058 0.033112 0.000000 -0.045181 0.000000
# 4 0.000000 0.000000 0.000000 0.054042 0.000000 0.000177
# 5 -0.033953 -0.014213 -0.045181 0.000000 0.114340 0.000000
# 6 0.000000 0.000000 0.000000 0.000177 0.000000 0.062040
#
#
# Mechanical properties :
#
#
# Convention : Reuss Voigt Hill
#
# Bulk Modulus (GPa) = 9.75772 38.31606 24.03689
# Shear Modulus (GPa) = 15.36530 23.67630 19.52080
#
# Velocity S-wave (km/s) = 2.84547 3.53215 3.20724
# Velocity P-wave (km/s) = 3.99216 6.06838 5.13627
#
# Compressibility (1/GPa) = 0.10248300
#
# Stress axis : x y z
#
# Youngs Moduli (GPa) = 36.34271 47.55901 30.20053
#
# Poissons Ratio (x) = 0.06328 -0.35646
# Poissons Ratio (y) = 0.04836 0.00176
# Poissons Ratio (z) = -0.42896 0.00277
#
# Static dielectric constant tensor:
#      x y z
#    x 1.654600 0.000000 0.009140 
#    y 0.000000 1.664700 0.000000 
#    z 0.009140 0.000000 1.657960 
# 
# From -- ./inp_files/117545.got.cif
#   From: 2010.05.17/outbox.cif.g08.bks.cpg/sg15_59_cif.got.tgz:117545.got - 2010.06.03 18:47:42.
