data_PCOD9264356
_publ_section_title
;
Structure prediction by ZEFSAII (Michael W. Deem and Ramdas Pophale) SiO2 
 PCOD9264356
Probable space group: C 2/C
;
_chemical_formula_sum "Si O2"
_cell_formula_units_Z 48
_cell_length_a 8.943926
_cell_length_b 12.811242
_cell_length_c 30.264698
_cell_angle_alpha 90.000000
_cell_angle_beta 145.824149
_cell_angle_gamma 90.000000
_cell_volume 1947.991478
_symmetry_space_group_name_H-M "C 2/C"
_symmetry_group_IT_number 15
_symmetry_cell_setting 'monoclinic'
loop_
_space_group_symop_operation_xyz
x,y,z
-x,y,1/2-z
-x,-y,-z
x,-y,1/2+z
1/2+x,1/2+y,z
1/2-x,1/2+y,1/2-z
1/2-x,1/2-y,-z
1/2+x,1/2-y,1/2+z
loop_
_atom_site_type_symbol
_atom_site_label
_atom_site_fract_x
_atom_site_fract_y
_atom_site_fract_z
Si Si1 0.792809 0.347613 0.827638
Si Si2 0.798751 0.032506 0.338052
Si Si3 0.306446 0.131876 0.426741
Si Si4 0.061879 0.395834 0.075065
Si Si5 0.360630 0.348665 0.283846
Si Si6 0.123802 0.547293 0.884833
O O1 0.500000 0.397561 0.750000
O O2 0.814418 0.304803 0.883043
O O3 0.812883 0.260300 0.795698
O O4 0.004656 0.435545 0.869494
O O5 0.500000 0.065473 0.250000
O O6 0.816139 0.986412 0.391979
O O7 0.015162 0.118178 0.377119
O O8 0.862974 0.933955 0.323305
O O9 0.491185 0.163952 0.512647
O O10 0.393424 0.015961 0.430466
O O11 0.342138 0.355227 0.162629
O O12 0.836721 0.396886 0.058129
O O13 0.110931 0.384615 0.194369
#
# Coordination Sequence:
#
# PCOD9264356 Si02
#       6
#     8   8   8   8   8   8
#     4  11  20  34  58  82 107 147 195 236 281 334
#     4   9  17  33  54  79 112 143 184 234 277 326
#     4   9  19  34  56  82 110 150 187 224 279 340
#     4   9  18  35  55  80 116 149 183 226 278 339
#     4  10  20  35  56  81 111 149 190 231 274 332
#     4  10  19  35  58  84 114 146 185 236 286 334
#
# _framework density 24.640764000000001
#
# number of rings (size 3 to 8) (size 9 to 14) (size 15 to 20)
#    0.000    2.333    0.000    6.000    0.000    1.333 
#    0.000   10.000    0.000    7.000    0.000    0.000 
#    0.000    0.000    0.000    0.000    0.000    0.000 
#
# Total GULP energy -134018.089247 kJ/mol
# GULP energy per Si atom -5584.087052 kJ/mol
# Density = 2.458468 g / cm^3
# Si number density = 24.640764 Si / 1000 Ang^3
#
#
#
# Elastic Constant Matrix: (Units=GPa)
#
#
# Indices 1 2 3 4 5 6 
#
# 1 118.9439 11.9050 21.6435 -0.0005 -37.1385 0.0005
# 2 11.9050 42.2625 15.0796 0.0002 0.2580 -0.0002
# 3 21.6435 15.0796 49.8374 0.0019 -23.0945 -0.0020
# 4 -0.0005 0.0002 0.0019 -82.4790 -0.0003 103.0908
# 5 -37.1385 0.2580 -23.0945 -0.0003 35.7976 0.0003
# 6 0.0005 -0.0002 -0.0020 103.0908 0.0003 -105.1992
#
#
#
# Elastic Compliance Matrix: (Units=1/GPa)
#
#
# Indices 1 2 3 4 5 6 
#
# 1 0.013266 -0.004912 0.003023 0.000000 0.015748 0.000000
# 2 -0.004912 0.029902 -0.013374 0.000000 -0.013939 0.000000
# 3 0.003023 -0.013374 0.034658 0.000000 0.025592 0.000000
# 4 0.000000 0.000000 0.000000 0.053921 0.000000 0.052840
# 5 0.015748 -0.013939 0.025592 0.000000 0.060884 0.000000
# 6 0.000000 0.000000 0.000000 0.052840 0.000000 0.042275
#
#
# Mechanical properties :
#
#
# Convention : Reuss Voigt Hill
#
# Bulk Modulus (GPa) = 21.14131 34.25556 27.69843
# Shear Modulus (GPa) = 17.78094 -19.54839 -0.88372
#
# Velocity S-wave (km/s) = 2.68919 -2.81968 -0.59952
# Velocity P-wave (km/s) = 4.27092 1.82521 3.28422
#
# Compressibility (1/GPa) = 0.04730077
#
# Stress axis : x y z
#
# Youngs Moduli (GPa) = 75.37988 33.44232 28.85305
#
# Poissons Ratio (x) = 0.16426 -0.08721
# Poissons Ratio (y) = 0.37024 0.38588
# Poissons Ratio (z) = -0.22785 0.44726
#
# Static dielectric constant tensor:
#      x y z
#    x 2.013340 0.000000 -0.027370 
#    y 0.000000 1.940840 0.000000 
#    z -0.027370 0.000000 2.035200 
# 
# From -- ./inp_files/189234.got.cif
#   From: 2010.05.17/outbox.cif.g08.bks.cpg/sg15_95_cif.got.tgz:189234.got - 2010.06.03 18:47:42.
