data_PCOD9264900
_publ_section_title
;
Structure prediction by ZEFSAII (Michael W. Deem and Ramdas Pophale) SiO2 
 PCOD9264900
Probable space group: C 2/C
;
_chemical_formula_sum "Si O2"
_cell_formula_units_Z 48
_cell_length_a 12.230741
_cell_length_b 16.264725
_cell_length_c 10.950644
_cell_angle_alpha 90.000000
_cell_angle_beta 111.898771
_cell_angle_gamma 90.000000
_cell_volume 2021.223028
_symmetry_space_group_name_H-M "C 2/C"
_symmetry_group_IT_number 15
_symmetry_cell_setting 'monoclinic'
loop_
_space_group_symop_operation_xyz
x,y,z
-x,y,1/2-z
-x,-y,-z
x,-y,1/2+z
1/2+x,1/2+y,z
1/2-x,1/2+y,1/2-z
1/2-x,1/2-y,-z
1/2+x,1/2-y,1/2+z
loop_
_atom_site_type_symbol
_atom_site_label
_atom_site_fract_x
_atom_site_fract_y
_atom_site_fract_z
Si Si1 0.127723 0.381664 0.354627
Si Si2 0.181888 0.979948 0.505007
Si Si3 0.804569 0.243062 0.306807
Si Si4 0.160173 0.935877 0.751443
Si Si5 0.569903 0.079660 0.080281
Si Si6 0.644828 0.827549 0.923673
O O1 0.217362 0.454767 0.416644
O O2 0.183096 0.316329 0.284628
O O3 0.100557 0.356592 0.482904
O O4 0.000000 0.406893 0.250000
O O5 0.123988 0.017045 0.359007
O O6 0.113597 0.968769 0.603345
O O7 0.248430 0.893281 0.508105
O O8 0.857399 0.162307 0.263380
O O9 0.677080 0.217993 0.310548
O O10 0.862081 0.269234 0.460167
O O11 0.304405 0.945866 0.812307
O O12 0.473135 0.121421 0.121957
O O13 0.500000 0.000000 0.000000
#
# Coordination Sequence:
#
# PCOD9264900 Si02
#       6
#     8   8   8   8   8   8
#     4  11  19  31  55  81 115 148 191 236 287 345
#     4  10  20  32  56  80 115 145 191 230 287 350
#     4  10  22  33  49  78 126 156 186 230 287 362
#     4  10  21  34  53  87 120 151 188 229 292 358
#     4  11  19  33  58  88 116 147 189 237 298 361
#     4  10  19  36  51  80 120 155 188 228 294 358
#
# _framework density 23.747997999999999
#
# number of rings (size 3 to 8) (size 9 to 14) (size 15 to 20)
#    0.000    1.667    5.000    2.000    0.000    4.667 
#    0.000    0.000    0.000    0.000    0.000    4.667 
#   25.000    0.000    0.000    0.000    0.000    0.000 
#
# Total GULP energy -133921.990078 kJ/mol
# GULP energy per Si atom -5580.082920 kJ/mol
# Density = 2.369395 g / cm^3
# Si number density = 23.747998 Si / 1000 Ang^3
#
#
#
# Elastic Constant Matrix: (Units=GPa)
#
#
# Indices 1 2 3 4 5 6 
#
# 1 90.5258 27.6500 32.6838 0.0000 -16.4206 0.0000
# 2 27.6500 108.5672 54.5804 0.0000 -8.5045 0.0000
# 3 32.6838 54.5804 164.0458 0.0000 -24.7923 0.0000
# 4 0.0000 0.0000 0.0000 42.2853 0.0000 -7.1558
# 5 -16.4206 -8.5045 -24.7923 0.0000 42.9635 0.0000
# 6 0.0000 0.0000 0.0000 -7.1558 0.0000 1.0891
#
#
#
# Elastic Compliance Matrix: (Units=1/GPa)
#
#
# Indices 1 2 3 4 5 6 
#
# 1 0.012892 -0.002382 -0.001208 0.000000 0.003759 0.000000
# 2 -0.002382 0.011501 -0.003446 0.000000 -0.000622 0.000000
# 3 -0.001208 -0.003446 0.008009 0.000000 0.003478 0.000000
# 4 0.000000 0.000000 0.000000 -0.211347 0.000000 -1.388649
# 5 0.003759 -0.000622 0.003478 0.000000 0.026596 0.000000
# 6 0.000000 0.000000 0.000000 -1.388649 0.000000 -8.205858
#
#
# Mechanical properties :
#
#
# Convention : Reuss Voigt Hill
#
# Bulk Modulus (GPa) = 54.55468 65.88525 60.21996
# Shear Modulus (GPa) = -0.59966 33.81588 16.60811
#
# Velocity S-wave (km/s) = -0.50305 3.77762 2.64739
# Velocity P-wave (km/s) = 4.76285 6.84331 5.89558
#
# Compressibility (1/GPa) = 0.01833023
#
# Stress axis : x y z
#
# Youngs Moduli (GPa) = 77.56768 86.94765 124.86412
#
# Poissons Ratio (x) = 0.20707 0.15085
# Poissons Ratio (y) = 0.18473 0.43030
# Poissons Ratio (z) = 0.09371 0.29963
#
# Static dielectric constant tensor:
#      x y z
#    x 1.949550 0.000000 -0.012390 
#    y 0.000000 1.950650 0.000000 
#    z -0.012390 0.000000 1.983300 
# 
# From -- ./inp_files/96472.got.cif
#   From: 2010.05.17/outbox.cif.g08.bks.cpg/sg15_49_cif.got.tgz:96472.got - 2010.06.03 18:47:42.
