data_PCOD9264371
_publ_section_title
;
Structure prediction by ZEFSAII (Michael W. Deem and Ramdas Pophale) SiO2 
 PCOD9264371
Probable space group: C 2/C
;
_chemical_formula_sum "Si O2"
_cell_formula_units_Z 48
_cell_length_a 17.864186
_cell_length_b 23.120218
_cell_length_c 11.030944
_cell_angle_alpha 90.000000
_cell_angle_beta 152.548553
_cell_angle_gamma 90.000000
_cell_volume 2100.321287
_symmetry_space_group_name_H-M "C 2/C"
_symmetry_group_IT_number 15
_symmetry_cell_setting 'monoclinic'
loop_
_space_group_symop_operation_xyz
x,y,z
-x,y,1/2-z
-x,-y,-z
x,-y,1/2+z
1/2+x,1/2+y,z
1/2-x,1/2+y,1/2-z
1/2-x,1/2-y,-z
1/2+x,1/2-y,1/2+z
loop_
_atom_site_type_symbol
_atom_site_label
_atom_site_fract_x
_atom_site_fract_y
_atom_site_fract_z
Si Si1 0.602058 0.622385 0.009485
Si Si2 0.862436 0.632995 0.194698
Si Si3 0.000349 0.750312 0.445000
Si Si4 0.424403 0.975336 0.514817
Si Si5 0.633304 0.412429 0.148043
Si Si6 0.158027 0.797196 0.052006
O O1 0.500000 0.597220 0.750000
O O2 0.547796 0.589779 0.054518
O O3 0.782295 0.624413 0.212871
O O4 0.549389 0.689519 0.952987
O O5 0.916190 0.698614 0.251479
O O6 0.014501 0.591033 0.403567
O O7 0.736818 0.611976 0.911941
O O8 0.166216 0.723230 0.738796
O O9 0.871462 0.767522 0.361230
O O10 0.500000 0.999471 0.750000
O O11 0.229085 0.969961 0.244702
O O12 0.500000 0.000000 0.500000
O O13 0.645403 0.365547 0.058975
O O14 0.000000 0.779885 0.750000
#
# Coordination Sequence:
#
# PCOD9264371 Si02
#       6
#     8   8   8   8   8   8
#     4   9  19  30  53  87 118 150 190 233 287 343
#     4  10  19  35  58  86 112 149 197 249 294 352
#     4  11  20  32  53  80 117 155 195 233 281 342
#     4  10  21  40  65  90 115 146 197 256 314 362
#     4   9  20  36  58  80 115 149 193 245 294 343
#     4  11  22  34  48  76 120 162 195 226 280 350
#
# _framework density 22.853646999999999
#
# number of rings (size 3 to 8) (size 9 to 14) (size 15 to 20)
#    0.000    2.000    3.333    0.500    2.333    2.000 
#    0.000    5.000    0.000    3.000    0.000    0.000 
#    0.000    0.000    0.000    0.000    0.000    0.000 
#
# Total GULP energy -133799.104719 kJ/mol
# GULP energy per Si atom -5574.962697 kJ/mol
# Density = 2.280163 g / cm^3
# Si number density = 22.853647 Si / 1000 Ang^3
#
#
#
# Elastic Constant Matrix: (Units=GPa)
#
#
# Indices 1 2 3 4 5 6 
#
# 1 131.5219 33.6489 18.8423 0.0000 25.8737 0.0000
# 2 33.6489 44.0034 2.6302 0.0000 6.4820 0.0000
# 3 18.8423 2.6302 45.4681 0.0000 14.3489 0.0000
# 4 0.0000 0.0000 0.0000 13.3727 0.0000 14.5064
# 5 25.8737 6.4820 14.3489 0.0000 38.4932 0.0000
# 6 0.0000 0.0000 0.0000 14.5064 0.0000 32.2685
#
#
#
# Elastic Compliance Matrix: (Units=1/GPa)
#
#
# Indices 1 2 3 4 5 6 
#
# 1 0.010859 -0.007400 -0.002450 0.000000 -0.005139 0.000000
# 2 -0.007400 0.028347 0.001545 0.000000 -0.000376 0.000000
# 3 -0.002450 0.001545 0.025479 0.000000 -0.008111 0.000000
# 4 0.000000 0.000000 0.000000 0.145958 0.000000 -0.065616
# 5 -0.005139 -0.000376 -0.008111 0.000000 0.032520 0.000000
# 6 0.000000 0.000000 0.000000 -0.065616 0.000000 0.060488
#
#
# Mechanical properties :
#
#
# Convention : Reuss Voigt Hill
#
# Bulk Modulus (GPa) = 20.80054 36.80402 28.80228
# Shear Modulus (GPa) = 14.86834 27.88501 21.37667
#
# Velocity S-wave (km/s) = 2.55343 3.49686 3.06170
# Velocity P-wave (km/s) = 4.22075 5.69590 5.01288
#
# Compressibility (1/GPa) = 0.04807567
#
# Stress axis : x y z
#
# Youngs Moduli (GPa) = 92.09354 35.27698 39.24796
#
# Poissons Ratio (x) = 0.26105 0.09615
# Poissons Ratio (y) = 0.68148 -0.06065
# Poissons Ratio (z) = 0.22562 -0.05451
#
# Static dielectric constant tensor:
#      x y z
#    x 1.923410 0.000000 0.019730 
#    y 0.000000 1.867710 0.000000 
#    z 0.019730 0.000000 1.913460 
# 
# From -- ./inp_files/108125.got.cif
#   From: 2010.05.17/outbox.cif.g08.bks.cpg/sg15_55_cif.got.tgz:108125.got - 2010.06.03 18:47:42.
