data_PCOD9264323
_publ_section_title
;
Structure prediction by ZEFSAII (Michael W. Deem and Ramdas Pophale) SiO2 
 PCOD9264323
Probable space group: C 2/C
;
_chemical_formula_sum "Si O2"
_cell_formula_units_Z 48
_cell_length_a 10.538798
_cell_length_b 13.909555
_cell_length_c 16.362132
_cell_angle_alpha 90.000000
_cell_angle_beta 92.656286
_cell_angle_gamma 90.000000
_cell_volume 2395.947616
_symmetry_space_group_name_H-M "C 2/C"
_symmetry_group_IT_number 15
_symmetry_cell_setting 'monoclinic'
loop_
_space_group_symop_operation_xyz
x,y,z
-x,y,1/2-z
-x,-y,-z
x,-y,1/2+z
1/2+x,1/2+y,z
1/2-x,1/2+y,1/2-z
1/2-x,1/2-y,-z
1/2+x,1/2-y,1/2+z
loop_
_atom_site_type_symbol
_atom_site_label
_atom_site_fract_x
_atom_site_fract_y
_atom_site_fract_z
Si Si1 0.544947 0.345575 0.843217
Si Si2 0.112326 0.712705 0.465196
Si Si3 0.470676 0.054064 0.154221
Si Si4 0.232501 0.551533 0.062336
Si Si5 0.591573 0.408341 0.506996
Si Si6 0.399839 0.854709 0.081696
O O1 0.500000 0.355009 0.750000
O O2 0.656763 0.417341 0.873166
O O3 0.428656 0.367933 0.902093
O O4 0.601648 0.239849 0.863329
O O5 0.250000 0.750000 0.500000
O O6 0.048563 0.818381 0.450013
O O7 0.104818 0.644104 0.386799
O O8 0.028536 0.660087 0.532059
O O9 0.500000 0.066715 0.250000
O O10 0.602495 0.046339 0.107893
O O11 0.403700 0.952273 0.133941
O O12 0.275781 0.453188 0.019247
O O13 0.209741 0.629089 0.989228
O O14 0.500000 0.500000 0.500000
#
# Coordination Sequence:
#
# PCOD9264323 Si02
#       6
#     8   8   8   8   8   8
#     4  10  21  36  57  88 115 143 190 245 291 335
#     4  10  19  35  58  81 110 151 190 226 281 352
#     4  11  23  37  56  88 118 147 194 247 288 330
#     4  10  20  38  59  81 113 156 193 232 283 353
#     4   9  19  36  59  80 108 151 189 222 278 349
#     4  10  20  36  58  82 111 152 194 228 286 357
#
# _framework density 20.033826000000001
#
# number of rings (size 3 to 8) (size 9 to 14) (size 15 to 20)
#    0.000    2.000    0.000    5.000    0.000    5.333 
#    0.000    5.000    0.000    0.000    0.000    0.000 
#    0.000    0.000    0.000    0.000    0.000    0.000 
#
# Total GULP energy -133794.950913 kJ/mol
# GULP energy per Si atom -5574.789621 kJ/mol
# Density = 1.998823 g / cm^3
# Si number density = 20.033826 Si / 1000 Ang^3
#
#
#
# Elastic Constant Matrix: (Units=GPa)
#
#
# Indices 1 2 3 4 5 6 
#
# 1 52.6215 13.1585 10.7506 0.0000 1.2978 0.0000
# 2 13.1585 146.4792 64.6814 0.0000 1.4696 0.0000
# 3 10.7506 64.6814 139.0685 0.0000 14.4716 0.0000
# 4 0.0000 0.0000 0.0000 21.9531 0.0000 3.7843
# 5 1.2978 1.4696 14.4716 0.0000 22.4308 0.0000
# 6 0.0000 0.0000 0.0000 3.7843 0.0000 29.4114
#
#
#
# Elastic Compliance Matrix: (Units=1/GPa)
#
#
# Indices 1 2 3 4 5 6 
#
# 1 0.019530 -0.001392 -0.000808 0.000000 -0.000517 0.000000
# 2 -0.001392 0.008789 -0.004212 0.000000 0.002222 0.000000
# 3 -0.000808 -0.004212 0.009839 0.000000 -0.006025 0.000000
# 4 0.000000 0.000000 0.000000 0.046585 0.000000 -0.005994
# 5 -0.000517 0.002222 -0.006025 0.000000 0.048353 0.000000
# 6 0.000000 0.000000 0.000000 -0.005994 0.000000 0.034772
#
#
# Mechanical properties :
#
#
# Convention : Reuss Voigt Hill
#
# Bulk Modulus (GPa) = 39.47310 57.26113 48.36711
# Shear Modulus (GPa) = 26.43590 31.39764 28.91677
#
# Velocity S-wave (km/s) = 3.63652 3.96312 3.80333
# Velocity P-wave (km/s) = 6.11379 7.04174 6.59410
#
# Compressibility (1/GPa) = 0.02533371
#
# Stress axis : x y z
#
# Youngs Moduli (GPa) = 51.20411 113.77333 101.63645
#
# Poissons Ratio (x) = 0.15840 0.08216
# Poissons Ratio (y) = 0.07129 0.42805
# Poissons Ratio (z) = 0.04139 0.47917
#
# Static dielectric constant tensor:
#      x y z
#    x 1.811620 0.000000 0.005300 
#    y 0.000000 1.788260 0.000000 
#    z 0.005300 0.000000 1.665050 
# 
# From -- ./inp_files/143835.got.cif
#   From: 2010.05.17/outbox.cif.g08.bks.cpg/sg15_72_cif.got.tgz:143835.got - 2010.06.03 18:47:42.
