data_PCOD9264859
_publ_section_title
;
Structure prediction by ZEFSAII (Michael W. Deem and Ramdas Pophale) SiO2 
 PCOD9264859
Probable space group: C 2/C
;
_chemical_formula_sum "Si O2"
_cell_formula_units_Z 60
_cell_length_a 16.971764
_cell_length_b 9.300161
_cell_length_c 18.273771
_cell_angle_alpha 90.000000
_cell_angle_beta 89.504218
_cell_angle_gamma 90.000000
_cell_volume 2884.226549
_symmetry_space_group_name_H-M "C 2/C"
_symmetry_group_IT_number 15
_symmetry_cell_setting 'monoclinic'
loop_
_space_group_symop_operation_xyz
x,y,z
-x,y,1/2-z
-x,-y,-z
x,-y,1/2+z
1/2+x,1/2+y,z
1/2-x,1/2+y,1/2-z
1/2-x,1/2-y,-z
1/2+x,1/2-y,1/2+z
loop_
_atom_site_type_symbol
_atom_site_label
_atom_site_fract_x
_atom_site_fract_y
_atom_site_fract_z
Si Si1 0.174765 0.694395 0.045541
Si Si2 0.920305 0.405293 0.657591
Si Si3 0.791494 0.438275 0.545981
Si Si4 0.353974 0.300984 0.953602
Si Si5 0.313730 0.153428 0.284731
Si Si6 0.829044 0.309809 0.293381
Si Si7 0.000000 0.638939 0.750000
Si Si8 0.997475 0.324657 0.984856
O O1 0.177251 0.710102 0.132644
O O2 0.090274 0.736561 0.013888
O O3 0.250000 0.750000 0.000000
O O4 0.178319 0.526350 0.023485
O O5 0.843308 0.473494 0.616797
O O6 0.886274 0.320356 0.727772
O O7 0.977768 0.531948 0.683661
O O8 0.968313 0.315504 0.597742
O O9 0.696931 0.448052 0.550624
O O10 0.818960 0.276997 0.526118
O O11 0.327209 0.232024 0.877867
O O12 0.446000 0.268792 0.963205
O O13 0.235486 0.220563 0.250484
O O14 0.312043 0.979630 0.286880
O O15 0.918710 0.280808 0.266413
O O16 0.000000 0.500000 0.000000
#
# Coordination Sequence:
#
# PCOD9264859 Si02
#       8
#     8   8   8   8   8   8   4   8
#     4  12  26  39  60  93 134 164 205 264 332 375
#     4  10  19  36  62  90 123 158 213 262 309 365
#     4  10  20  37  59  93 118 160 203 258 309 378
#     4  10  19  35  66  86 116 155 214 253 303 373
#     4  11  24  39  62  94 129 167 213 262 320 386
#     4  11  22  39  61  95 123 166 208 262 319 378
#     4  10  22  32  60  90 126 154 210 260 310 366
#     4  11  19  36  63  93 120 158 214 270 304 370
#
# _framework density 20.802804999999999
#
# number of rings (size 3 to 8) (size 9 to 14) (size 15 to 20)
#    0.000    1.333    5.333    2.400    3.733    0.000 
#    0.000    0.667    0.000    8.000    0.000    0.000 
#    0.000    0.000    0.000    0.000    0.000    0.000 
#
# Total GULP energy -167073.386297 kJ/mol
# GULP energy per Si atom -5569.112877 kJ/mol
# Density = 2.075546 g / cm^3
# Si number density = 20.802805 Si / 1000 Ang^3
#
#
#
# Elastic Constant Matrix: (Units=GPa)
#
#
# Indices 1 2 3 4 5 6 
#
# 1 174.0634 26.1689 37.2356 0.0000 17.5023 0.0000
# 2 26.1689 10.1634 7.0749 0.0000 3.4640 0.0000
# 3 37.2356 7.0749 105.6637 0.0000 13.9824 0.0000
# 4 0.0000 0.0000 0.0000 24.2561 0.0000 0.0614
# 5 17.5023 3.4640 13.9824 0.0000 37.8186 0.0000
# 6 0.0000 0.0000 0.0000 0.0614 0.0000 33.6983
#
#
#
# Elastic Compliance Matrix: (Units=1/GPa)
#
#
# Indices 1 2 3 4 5 6 
#
# 1 0.009810 -0.023507 -0.001648 0.000000 -0.001778 0.000000
# 2 -0.023507 0.161456 -0.002113 0.000000 -0.003128 0.000000
# 3 -0.001648 -0.002113 0.010577 0.000000 -0.002954 0.000000
# 4 0.000000 0.000000 0.000000 0.041227 0.000000 -0.000075
# 5 -0.001778 -0.003128 -0.002954 0.000000 0.028644 0.000000
# 6 0.000000 0.000000 0.000000 -0.000075 0.000000 0.029675
#
#
# Mechanical properties :
#
#
# Convention : Reuss Voigt Hill
#
# Bulk Modulus (GPa) = 7.85496 47.87214 27.86355
# Shear Modulus (GPa) = 13.21490 33.78200 23.49845
#
# Velocity S-wave (km/s) = 2.52314 4.03416 3.36457
# Velocity P-wave (km/s) = 3.50321 6.69041 5.34013
#
# Compressibility (1/GPa) = 0.12730804
#
# Stress axis : x y z
#
# Youngs Moduli (GPa) = 101.93270 6.19364 94.54354
#
# Poissons Ratio (x) = 0.14559 0.15580
# Poissons Ratio (y) = 2.39613 0.19976
# Poissons Ratio (z) = 0.16798 0.01309
#
# Static dielectric constant tensor:
#      x y z
#    x 1.856010 0.000000 -0.010050 
#    y 0.000000 1.833010 0.000000 
#    z -0.010050 0.000000 1.768540 
# 
# From -- ./inp_files/204053.got.cif
#   From: 2010.05.17/outbox.cif.g08.bks.cpg/sg15_103_cif.got.tgz:204053.got - 2010.06.03 18:47:42.
