data_PCOD9264336
_publ_section_title
;
Structure prediction by ZEFSAII (Michael W. Deem and Ramdas Pophale) SiO2 
 PCOD9264336
Probable space group: C 2/C
;
_chemical_formula_sum "Si O2"
_cell_formula_units_Z 48
_cell_length_a 18.235104
_cell_length_b 7.243801
_cell_length_c 17.773455
_cell_angle_alpha 90.000000
_cell_angle_beta 127.423043
_cell_angle_gamma 90.000000
_cell_volume 1864.490811
_symmetry_space_group_name_H-M "C 2/C"
_symmetry_group_IT_number 15
_symmetry_cell_setting 'monoclinic'
loop_
_space_group_symop_operation_xyz
x,y,z
-x,y,1/2-z
-x,-y,-z
x,-y,1/2+z
1/2+x,1/2+y,z
1/2-x,1/2+y,1/2-z
1/2-x,1/2-y,-z
1/2+x,1/2-y,1/2+z
loop_
_atom_site_type_symbol
_atom_site_label
_atom_site_fract_x
_atom_site_fract_y
_atom_site_fract_z
Si Si1 0.647981 0.682367 0.308560
Si Si2 0.857260 0.380694 0.914842
Si Si3 0.310232 0.093948 0.123189
Si Si4 0.473301 0.253995 0.622216
Si Si5 0.450548 0.828166 0.821068
Si Si6 0.372401 0.221599 0.004545
O O1 0.748088 0.592804 0.362084
O O2 0.592749 0.665938 0.352994
O O3 0.573700 0.652915 0.195944
O O4 0.674737 0.897951 0.330255
O O5 0.877340 0.327288 0.842717
O O6 0.900509 0.582827 0.956413
O O7 0.912093 0.252227 0.008628
O O8 0.391834 0.216993 0.210640
O O9 0.206121 0.147972 0.074202
O O10 0.323179 0.105758 0.041681
O O11 0.501350 0.034353 0.656106
O O12 0.535033 0.701846 0.901045
#
# Coordination Sequence:
#
# PCOD9264336 Si02
#       6
#     8   8   8   8   8   8
#     4  10  19  35  58  83 104 143 191 231 268 325
#     4  11  21  33  58  86 112 137 184 240 279 318
#     4  10  20  35  58  79 106 149 189 223 267 337
#     4   9  18  34  57  76 109 147 188 215 272 343
#     4  10  20  35  56  82 112 148 182 224 280 341
#     4  10  20  36  58  79 107 146 192 224 265 335
#
# _framework density 25.744295000000001
#
# number of rings (size 3 to 8) (size 9 to 14) (size 15 to 20)
#    0.000    2.000    3.333    3.000    0.000    4.000 
#    0.000    2.500    3.667    0.000    0.000    0.000 
#    0.000    0.000    0.000    0.000    0.000    0.000 
#
# Total GULP energy -134093.689355 kJ/mol
# GULP energy per Si atom -5587.237056 kJ/mol
# Density = 2.568570 g / cm^3
# Si number density = 25.744295 Si / 1000 Ang^3
#
#
#
# Elastic Constant Matrix: (Units=GPa)
#
#
# Indices 1 2 3 4 5 6 
#
# 1 117.7114 11.8343 55.8899 0.0000 22.9976 0.0000
# 2 11.8343 33.8034 26.3676 0.0000 16.3131 0.0000
# 3 55.8899 26.3676 131.7656 0.0000 35.2143 0.0000
# 4 0.0000 0.0000 0.0000 31.9703 0.0000 15.4881
# 5 22.9976 16.3131 35.2143 0.0000 50.5911 0.0000
# 6 0.0000 0.0000 0.0000 15.4881 0.0000 26.5888
#
#
#
# Elastic Compliance Matrix: (Units=1/GPa)
#
#
# Indices 1 2 3 4 5 6 
#
# 1 0.010825 0.000476 -0.004092 0.000000 -0.002226 0.000000
# 2 0.000476 0.037840 -0.005474 0.000000 -0.008608 0.000000
# 3 -0.004092 -0.005474 0.011611 0.000000 -0.004457 0.000000
# 4 0.000000 0.000000 0.000000 0.043576 0.000000 -0.025383
# 5 -0.002226 -0.008608 -0.004457 0.000000 0.026656 0.000000
# 6 0.000000 0.000000 0.000000 -0.025383 0.000000 0.052396
#
#
# Mechanical properties :
#
#
# Convention : Reuss Voigt Hill
#
# Bulk Modulus (GPa) = 23.75419 52.38489 38.06954
# Shear Modulus (GPa) = 23.24323 34.44260 28.84292
#
# Velocity S-wave (km/s) = 3.00801 3.66166 3.35081
# Velocity P-wave (km/s) = 4.61640 6.18622 5.45804
#
# Compressibility (1/GPa) = 0.04209783
#
# Stress axis : x y z
#
# Youngs Moduli (GPa) = 92.37583 26.42719 86.12206
#
# Poissons Ratio (x) = -0.01259 0.35242
# Poissons Ratio (y) = -0.04401 0.47141
# Poissons Ratio (z) = 0.37801 0.14466
#
# Static dielectric constant tensor:
#      x y z
#    x 1.992860 0.000000 0.065320 
#    y 0.000000 2.188950 0.000000 
#    z 0.065320 0.000000 2.054600 
# 
# From -- ./inp_files/160321.got.cif
#   From: 2010.05.17/outbox.cif.g08.bks.cpg/sg15_81_cif.got.tgz:160321.got - 2010.06.03 18:47:42.
