data_PCOD9264956
_publ_section_title
;
Structure prediction by ZEFSAII (Michael W. Deem and Ramdas Pophale) SiO2 
 PCOD9264956
Probable space group: C 2/C
;
_chemical_formula_sum "Si O2"
_cell_formula_units_Z 64
_cell_length_a 15.415837
_cell_length_b 27.772150
_cell_length_c 12.350461
_cell_angle_alpha 90.000000
_cell_angle_beta 141.181877
_cell_angle_gamma 90.000000
_cell_volume 3314.542646
_symmetry_space_group_name_H-M "C 2/C"
_symmetry_group_IT_number 15
_symmetry_cell_setting 'monoclinic'
loop_
_space_group_symop_operation_xyz
x,y,z
-x,y,1/2-z
-x,-y,-z
x,-y,1/2+z
1/2+x,1/2+y,z
1/2-x,1/2+y,1/2-z
1/2-x,1/2-y,-z
1/2+x,1/2-y,1/2+z
loop_
_atom_site_type_symbol
_atom_site_label
_atom_site_fract_x
_atom_site_fract_y
_atom_site_fract_z
Si Si1 0.539615 0.119621 0.406050
Si Si2 0.292359 0.568808 0.150176
Si Si3 0.294600 0.965076 0.374239
Si Si4 0.247694 0.636150 0.285948
Si Si5 0.716269 0.787137 0.069164
Si Si6 0.016618 0.792450 0.397375
Si Si7 0.607120 0.543271 0.483791
Si Si8 0.133209 0.936667 0.430739
O O1 0.500000 0.100410 0.250000
O O2 0.578542 0.072395 0.514027
O O3 0.407515 0.147700 0.326796
O O4 0.661592 0.158519 0.500085
O O5 0.202516 0.523031 0.106231
O O6 0.243808 0.617811 0.158955
O O7 0.453015 0.563627 0.343874
O O8 0.308629 0.565714 0.035888
O O9 0.192650 0.954271 0.176206
O O10 0.229431 0.947694 0.423423
O O11 0.371688 0.672381 0.438324
O O12 0.288840 0.590685 0.400073
O O13 0.856011 0.791914 0.274384
O O14 0.750000 0.750000 0.000000
O O15 0.584696 0.759070 0.986840
O O16 0.000000 0.801103 0.250000
O O17 0.584875 0.487424 0.432081
O O18 0.000000 0.910547 0.250000
#
# Coordination Sequence:
#
# PCOD9264956 Si02
#       8
#     8   8   8   8   8   8   8   8
#     4  12  24  37  53  84 124 164 197 245 295 369
#     4  10  21  36  56  82 119 155 206 262 301 343
#     4  11  21  34  55  78 115 162 205 245 302 352
#     4  12  23  35  55  85 119 158 204 239 295 359
#     4  10  21  37  56  84 122 156 188 237 305 365
#     4  10  20  34  57  83 114 154 185 238 293 369
#     4  10  19  36  55  80 112 157 200 262 298 345
#     4  11  19  31  54  82 109 149 202 252 296 350
#
# _framework density 19.308848999999999
#
# number of rings (size 3 to 8) (size 9 to 14) (size 15 to 20)
#    0.000    1.250    5.000    4.875    3.500    0.500 
#    0.000    0.625    0.000    0.000    0.000    0.875 
#    0.000    0.000    0.000    0.000    0.000    0.000 
#
# Total GULP energy -178232.023157 kJ/mol
# GULP energy per Si atom -5569.750724 kJ/mol
# Density = 1.926490 g / cm^3
# Si number density = 19.308849 Si / 1000 Ang^3
#
#
#
# Elastic Constant Matrix: (Units=GPa)
#
#
# Indices 1 2 3 4 5 6 
#
# 1 54.2429 17.1013 22.6771 0.0000 5.8094 0.0000
# 2 17.1013 69.5493 27.9177 0.0000 6.3743 0.0000
# 3 22.6771 27.9177 71.5257 0.0000 14.3503 0.0000
# 4 0.0000 0.0000 0.0000 33.5144 0.0000 13.0715
# 5 5.8094 6.3743 14.3503 0.0000 34.0538 0.0000
# 6 0.0000 0.0000 0.0000 13.0715 0.0000 18.6907
#
#
#
# Elastic Compliance Matrix: (Units=1/GPa)
#
#
# Indices 1 2 3 4 5 6 
#
# 1 0.021810 -0.003057 -0.005560 0.000000 -0.000805 0.000000
# 2 -0.003057 0.017484 -0.005793 0.000000 -0.000310 0.000000
# 3 -0.005560 -0.005793 0.019222 0.000000 -0.006067 0.000000
# 4 0.000000 0.000000 0.000000 0.041029 0.000000 -0.028694
# 5 -0.000805 -0.000310 -0.006067 0.000000 0.032118 0.000000
# 6 0.000000 0.000000 0.000000 -0.028694 0.000000 0.073570
#
#
# Mechanical properties :
#
#
# Convention : Reuss Voigt Hill
#
# Bulk Modulus (GPa) = 33.67439 36.74556 35.20997
# Shear Modulus (GPa) = 20.49587 25.75988 23.12788
#
# Velocity S-wave (km/s) = 3.26156 3.65649 3.46466
# Velocity P-wave (km/s) = 5.62685 6.07440 5.85490
#
# Compressibility (1/GPa) = 0.02969616
#
# Stress axis : x y z
#
# Youngs Moduli (GPa) = 45.85019 57.19626 52.02354
#
# Poissons Ratio (x) = 0.17486 0.28925
# Poissons Ratio (y) = 0.14017 0.30136
# Poissons Ratio (z) = 0.25493 0.33132
#
# Static dielectric constant tensor:
#      x y z
#    x 1.755360 0.000000 0.070680 
#    y 0.000000 1.739260 0.000000 
#    z 0.070680 0.000000 1.736980 
# 
# From -- ./inp_files/101655.got.cif
#   From: 2010.05.17/outbox.cif.g08.bks.cpg/sg15_51_cif.got.tgz:101655.got - 2010.06.03 18:47:42.
