data_PCOD9264779
_publ_section_title
;
Structure prediction by ZEFSAII (Michael W. Deem and Ramdas Pophale) SiO2 
 PCOD9264779
Probable space group: C 2/C
;
_chemical_formula_sum "Si O2"
_cell_formula_units_Z 56
_cell_length_a 29.630208
_cell_length_b 8.664988
_cell_length_c 17.226650
_cell_angle_alpha 90.000000
_cell_angle_beta 140.780937
_cell_angle_gamma 90.000000
_cell_volume 2796.519281
_symmetry_space_group_name_H-M "C 2/C"
_symmetry_group_IT_number 15
_symmetry_cell_setting 'monoclinic'
loop_
_space_group_symop_operation_xyz
x,y,z
-x,y,1/2-z
-x,-y,-z
x,-y,1/2+z
1/2+x,1/2+y,z
1/2-x,1/2+y,1/2-z
1/2-x,1/2-y,-z
1/2+x,1/2-y,1/2+z
loop_
_atom_site_type_symbol
_atom_site_label
_atom_site_fract_x
_atom_site_fract_y
_atom_site_fract_z
Si Si1 0.614832 0.761703 0.560537
Si Si2 0.334390 0.585233 0.387737
Si Si3 0.765744 0.564570 0.379515
Si Si4 0.060120 0.694132 0.382238
Si Si5 0.787114 0.711248 0.173541
Si Si6 0.483218 0.948060 0.389780
Si Si7 0.654943 0.986486 0.880771
O O1 0.635642 0.586919 0.570601
O O2 0.666282 0.876546 0.580122
O O3 0.638399 0.787476 0.680858
O O4 0.532212 0.798694 0.439435
O O5 0.302189 0.628239 0.259709
O O6 0.392742 0.699366 0.499996
O O7 0.266691 0.596467 0.354666
O O8 0.746906 0.381028 0.359249
O O9 0.789916 0.596923 0.499984
O O10 0.017676 0.577051 0.380229
O O11 0.109558 0.599161 0.387961
O O12 0.000000 0.778716 0.250000
O O13 0.803515 0.644737 0.111478
O O14 0.500000 0.000000 0.500000
O O15 0.401484 0.934053 0.252940
#
# Coordination Sequence:
#
# PCOD9264779 Si02
#       7
#     8   8   8   8   8   8   8
#     4  10  20  37  58  88 117 156 192 240 303 335
#     4  10  21  38  61  84 122 155 187 244 298 350
#     4  10  20  35  60  86 116 154 190 241 288 344
#     4  10  22  40  63  84 111 160 202 237 285 351
#     4  10  19  35  63  88 115 153 197 237 285 354
#     4  11  21  39  64  84 116 153 203 241 284 355
#     4  11  20  35  65  89 113 151 208 236 278 355
#
# _framework density 20.024892999999999
#
# number of rings (size 3 to 8) (size 9 to 14) (size 15 to 20)
#    0.000    1.714    4.286    0.429    0.000    0.000 
#    2.571    1.429    0.000    0.000    0.000    0.000 
#    0.000    0.000    0.000    0.000    0.000    0.000 
#
# Total GULP energy -155962.447962 kJ/mol
# GULP energy per Si atom -5570.087427 kJ/mol
# Density = 1.997932 g / cm^3
# Si number density = 20.024893 Si / 1000 Ang^3
#
#
#
# Elastic Constant Matrix: (Units=GPa)
#
#
# Indices 1 2 3 4 5 6 
#
# 1 36.1321 9.7550 7.3484 0.0000 -15.4067 0.0000
# 2 9.7550 27.9350 33.9983 0.0000 3.4415 0.0000
# 3 7.3484 33.9983 174.7796 0.0000 -4.4263 0.0000
# 4 0.0000 0.0000 0.0000 35.7939 0.0000 -2.4499
# 5 -15.4067 3.4415 -4.4263 0.0000 31.0778 0.0000
# 6 0.0000 0.0000 0.0000 -2.4499 0.0000 5.2992
#
#
#
# Elastic Compliance Matrix: (Units=1/GPa)
#
#
# Indices 1 2 3 4 5 6 
#
# 1 0.043324 -0.021826 0.003040 0.000000 0.024328 0.000000
# 2 -0.021826 0.059250 -0.011088 0.000000 -0.018961 0.000000
# 3 0.003040 -0.011088 0.007848 0.000000 0.003853 0.000000
# 4 0.000000 0.000000 0.000000 0.028851 0.000000 0.013338
# 5 0.024328 -0.018961 0.003853 0.000000 0.046886 0.000000
# 6 0.000000 0.000000 0.000000 0.013338 0.000000 0.194873
#
#
# Mechanical properties :
#
#
# Convention : Reuss Voigt Hill
#
# Bulk Modulus (GPa) = 19.73395 37.89445 28.81420
# Shear Modulus (GPa) = 10.92491 26.95053 18.93772
#
# Velocity S-wave (km/s) = 2.33827 3.67256 3.07857
# Velocity P-wave (km/s) = 4.14320 6.07852 5.20166
#
# Compressibility (1/GPa) = 0.05067409
#
# Stress axis : x y z
#
# Youngs Moduli (GPa) = 23.08191 16.87777 127.42029
#
# Poissons Ratio (x) = 0.36838 -0.38739
# Poissons Ratio (y) = 0.50379 1.41281
# Poissons Ratio (z) = -0.07017 0.18714
#
# Static dielectric constant tensor:
#      x y z
#    x 1.696050 0.000000 -0.012060 
#    y 0.000000 1.688660 0.000000 
#    z -0.012060 0.000000 1.809060 
# 
# From -- ./inp_files/224377.got.cif
#   From: 2010.05.17/outbox.cif.g08.bks.cpg/sg15_113_cif.got.tgz:224377.got - 2010.06.03 18:47:42.
