data_PCOD9264507
_publ_section_title
;
Structure prediction by ZEFSAII (Michael W. Deem and Ramdas Pophale) SiO2 
 PCOD9264507
Probable space group: C 2/C
;
_chemical_formula_sum "Si O2"
_cell_formula_units_Z 56
_cell_length_a 30.375881
_cell_length_b 20.461477
_cell_length_c 9.284590
_cell_angle_alpha 90.000000
_cell_angle_beta 147.326641
_cell_angle_gamma 90.000000
_cell_volume 3115.307207
_symmetry_space_group_name_H-M "C 2/C"
_symmetry_group_IT_number 15
_symmetry_cell_setting 'monoclinic'
loop_
_space_group_symop_operation_xyz
x,y,z
-x,y,1/2-z
-x,-y,-z
x,-y,1/2+z
1/2+x,1/2+y,z
1/2-x,1/2+y,1/2-z
1/2-x,1/2-y,-z
1/2+x,1/2-y,1/2+z
loop_
_atom_site_type_symbol
_atom_site_label
_atom_site_fract_x
_atom_site_fract_y
_atom_site_fract_z
Si Si1 0.615526 0.816515 0.195777
Si Si2 0.525897 0.759055 0.482173
Si Si3 0.784313 0.519190 0.167651
Si Si4 0.069296 0.564852 0.356733
Si Si5 0.573872 0.892609 0.563625
Si Si6 0.232619 0.908722 0.800606
Si Si7 0.911024 0.809454 0.070286
O O1 0.551108 0.791609 0.140752
O O2 0.692716 0.855555 0.476645
O O3 0.583047 0.871410 0.993787
O O4 0.625985 0.752332 0.122682
O O5 0.500000 0.736552 0.250000
O O6 0.591394 0.816774 0.640925
O O7 0.568183 0.709210 0.707581
O O8 0.847066 0.473167 0.427630
O O9 0.845914 0.569360 0.260509
O O10 0.732912 0.559395 0.142350
O O11 0.744052 0.469020 0.944058
O O12 0.039397 0.579284 0.116676
O O13 0.000000 0.525421 0.250000
O O14 0.500000 0.890270 0.250000
O O15 0.151229 0.868765 0.608740
O O16 0.000000 0.823543 0.250000
#
# Coordination Sequence:
#
# PCOD9264507 Si02
#       7
#     8   8   8   8   8   8   8
#     4  10  19  36  59  88 119 148 184 227 286 348
#     4  10  19  35  59  89 117 145 183 236 282 342
#     4  11  24  36  52  80 121 157 196 229 270 332
#     4  11  19  32  52  82 119 162 188 215 266 347
#     4  11  20  32  52  85 123 154 185 221 272 341
#     4  11  23  40  59  84 116 152 189 237 287 336
#     4  10  21  41  65  85 107 146 194 239 293 346
#
# _framework density 17.975754999999999
#
# number of rings (size 3 to 8) (size 9 to 14) (size 15 to 20)
#    0.000    1.429    4.286    3.000    2.000    1.143 
#    0.000    6.429    0.000    0.000    0.000    0.000 
#    0.000    0.000    0.000    0.000    0.000    0.000 
#
# Total GULP energy -155984.357170 kJ/mol
# GULP energy per Si atom -5570.869899 kJ/mol
# Density = 1.793484 g / cm^3
# Si number density = 17.975755 Si / 1000 Ang^3
#
#
#
# Elastic Constant Matrix: (Units=GPa)
#
#
# Indices 1 2 3 4 5 6 
#
# 1 86.6545 45.7800 39.2374 0.0000 -21.0501 0.0000
# 2 45.7800 85.4460 41.6615 0.0000 10.8780 0.0000
# 3 39.2374 41.6615 66.0876 0.0000 -5.6525 0.0000
# 4 0.0000 0.0000 0.0000 18.0470 0.0000 8.6043
# 5 -21.0501 10.8780 -5.6525 0.0000 30.3334 0.0000
# 6 0.0000 0.0000 0.0000 8.6043 0.0000 27.6383
#
#
#
# Elastic Compliance Matrix: (Units=1/GPa)
#
#
# Indices 1 2 3 4 5 6 
#
# 1 0.027718 -0.015721 -0.004490 0.000000 0.024036 0.000000
# 2 -0.015721 0.028075 -0.010324 0.000000 -0.022902 0.000000
# 3 -0.004490 -0.010324 0.024750 0.000000 0.005198 0.000000
# 4 0.000000 0.000000 0.000000 0.065069 0.000000 -0.020257
# 5 0.024036 -0.022902 0.005198 0.000000 0.058828 0.000000
# 6 0.000000 0.000000 0.000000 -0.020257 0.000000 0.042488
#
#
# Mechanical properties :
#
#
# Convention : Reuss Voigt Hill
#
# Bulk Modulus (GPa) = 51.35238 54.61622 52.98430
# Shear Modulus (GPa) = 15.89883 22.63768 19.26825
#
# Velocity S-wave (km/s) = 2.97721 3.55258 3.27754
# Velocity P-wave (km/s) = 6.35987 6.87582 6.62287
#
# Compressibility (1/GPa) = 0.01947330
#
# Stress axis : x y z
#
# Youngs Moduli (GPa) = 36.07823 35.61836 40.40441
#
# Poissons Ratio (x) = 0.55996 0.18142
# Poissons Ratio (y) = 0.56719 0.41712
# Poissons Ratio (z) = 0.16199 0.36771
#
# Static dielectric constant tensor:
#      x y z
#    x 1.634560 0.000000 -0.012400 
#    y 0.000000 1.646950 0.000000 
#    z -0.012400 0.000000 1.609580 
# 
# From -- ./inp_files/49791.got.cif
#   From: 2010.05.17/outbox.cif.g08.bks.cpg/sg15_25_cif.got.tgz:49791.got - 2010.06.03 18:47:42.
