data_PCOD9264454
_publ_section_title
;
Structure prediction by ZEFSAII (Michael W. Deem and Ramdas Pophale) SiO2 
 PCOD9264454
Probable space group: C 2/C
;
_chemical_formula_sum "Si O2"
_cell_formula_units_Z 56
_cell_length_a 13.475131
_cell_length_b 6.898210
_cell_length_c 23.576822
_cell_angle_alpha 90.000000
_cell_angle_beta 99.019431
_cell_angle_gamma 90.000000
_cell_volume 2164.468380
_symmetry_space_group_name_H-M "C 2/C"
_symmetry_group_IT_number 15
_symmetry_cell_setting 'monoclinic'
loop_
_space_group_symop_operation_xyz
x,y,z
-x,y,1/2-z
-x,-y,-z
x,-y,1/2+z
1/2+x,1/2+y,z
1/2-x,1/2+y,1/2-z
1/2-x,1/2-y,-z
1/2+x,1/2-y,1/2+z
loop_
_atom_site_type_symbol
_atom_site_label
_atom_site_fract_x
_atom_site_fract_y
_atom_site_fract_z
Si Si1 0.514520 0.610200 0.585582
Si Si2 0.133406 0.601725 0.765041
Si Si3 0.507929 0.771931 0.153768
Si Si4 0.832297 0.727546 0.307467
Si Si5 0.308312 0.930725 0.387213
Si Si6 0.399461 0.136614 0.495613
Si Si7 0.308988 0.846987 0.558867
O O1 0.486621 0.400307 0.608078
O O2 0.411933 0.729831 0.575949
O O3 0.592472 0.683569 0.640236
O O4 0.567006 0.656883 0.528608
O O5 0.415553 0.252794 0.785003
O O6 0.112340 0.389959 0.737108
O O7 0.915138 0.635183 0.678209
O O8 0.251762 0.623160 0.778465
O O9 0.576230 0.908461 0.121360
O O10 0.764827 0.563165 0.334178
O O11 0.316766 0.058819 0.443688
O O12 0.260795 0.721279 0.395099
O O13 0.343434 0.067042 0.548216
O O14 0.500000 0.000000 0.500000
O O15 0.250000 0.750000 0.500000
#
# Coordination Sequence:
#
# PCOD9264454 Si02
#       7
#     8   8   8   8   8   8   8
#     4  10  19  35  59  84 114 153 193 236 297 356
#     4  10  21  39  58  83 117 150 192 246 294 349
#     4  10  21  37  55  84 119 150 186 243 294 348
#     4  10  20  37  59  83 111 152 196 239 292 356
#     4   9  18  34  55  80 111 150 193 240 290 343
#     4   8  16  32  52  77 108 146 192 236 280 343
#     4   9  17  34  59  82 110 152 197 240 285 343
#
# _framework density 25.872402999999998
#
# number of rings (size 3 to 8) (size 9 to 14) (size 15 to 20)
#    0.000    2.571    0.000    1.714    0.000    0.000 
#    0.000   47.143    0.000    0.000    0.000    0.000 
#    0.000    0.000    0.000    0.000    0.000    0.000 
#
# Total GULP energy -156130.407981 kJ/mol
# GULP energy per Si atom -5576.085999 kJ/mol
# Density = 2.581352 g / cm^3
# Si number density = 25.872403 Si / 1000 Ang^3
#
#
#
# Elastic Constant Matrix: (Units=GPa)
#
#
# Indices 1 2 3 4 5 6 
#
# 1 76.6246 10.6016 17.8526 0.0000 10.4737 0.0000
# 2 10.6016 43.1171 -3.2108 0.0000 3.5581 0.0000
# 3 17.8526 -3.2108 97.9035 0.0000 18.5457 0.0000
# 4 0.0000 0.0000 0.0000 25.4150 0.0000 6.2728
# 5 10.4737 3.5581 18.5457 0.0000 39.6672 0.0000
# 6 0.0000 0.0000 0.0000 6.2728 0.0000 29.0977
#
#
#
# Elastic Compliance Matrix: (Units=1/GPa)
#
#
# Indices 1 2 3 4 5 6 
#
# 1 0.014399 -0.003511 -0.002282 0.000000 -0.002420 0.000000
# 2 -0.003511 0.024368 0.001841 0.000000 -0.002119 0.000000
# 3 -0.002282 0.001841 0.011639 0.000000 -0.005004 0.000000
# 4 0.000000 0.000000 0.000000 0.041558 0.000000 -0.008959
# 5 -0.002420 -0.002119 -0.005004 0.000000 0.028378 0.000000
# 6 0.000000 0.000000 0.000000 -0.008959 0.000000 0.036298
#
#
# Mechanical properties :
#
#
# Convention : Reuss Voigt Hill
#
# Bulk Modulus (GPa) = 23.52892 29.79244 26.66068
# Shear Modulus (GPa) = 27.97809 31.66277 29.82043
#
# Velocity S-wave (km/s) = 3.29201 3.50209 3.39867
# Velocity P-wave (km/s) = 4.85425 5.28138 5.07231
#
# Compressibility (1/GPa) = 0.04250089
#
# Stress axis : x y z
#
# Youngs Moduli (GPa) = 69.44975 41.03776 85.92119
#
# Poissons Ratio (x) = 0.14407 0.19610
# Poissons Ratio (y) = 0.24381 -0.15816
# Poissons Ratio (z) = 0.15851 -0.07554
#
# Static dielectric constant tensor:
#      x y z
#    x 2.080390 0.000000 -0.000130 
#    y 0.000000 2.210400 0.000000 
#    z -0.000130 0.000000 2.141410 
# 
# From -- ./inp_files/294778.got.cif
#   From: 2010.05.17/outbox.cif.g08.bks.cpg/sg15_148_cif.got.tgz:294778.got - 2010.06.03 18:47:42.
