data_PCOD9264232
_publ_section_title
;
Structure prediction by ZEFSAII (Michael W. Deem and Ramdas Pophale) SiO2 
 PCOD9264232
Probable space group: C 2/C
;
_chemical_formula_sum "Si O2"
_cell_formula_units_Z 56
_cell_length_a 14.499877
_cell_length_b 7.122566
_cell_length_c 27.889324
_cell_angle_alpha 90.000000
_cell_angle_beta 122.741726
_cell_angle_gamma 90.000000
_cell_volume 2422.675590
_symmetry_space_group_name_H-M "C 2/C"
_symmetry_group_IT_number 15
_symmetry_cell_setting 'monoclinic'
loop_
_space_group_symop_operation_xyz
x,y,z
-x,y,1/2-z
-x,-y,-z
x,-y,1/2+z
1/2+x,1/2+y,z
1/2-x,1/2+y,1/2-z
1/2-x,1/2-y,-z
1/2+x,1/2-y,1/2+z
loop_
_atom_site_type_symbol
_atom_site_label
_atom_site_fract_x
_atom_site_fract_y
_atom_site_fract_z
Si Si1 0.508377 0.085572 0.616041
Si Si2 0.175380 0.849231 0.375725
Si Si3 0.752744 0.889086 0.200369
Si Si4 0.907580 0.558795 0.683236
Si Si5 0.935019 0.309739 0.466971
Si Si6 0.536853 0.328978 0.425244
Si Si7 0.804248 0.050153 0.822386
O O1 0.632028 0.019596 0.665274
O O2 0.453231 0.162095 0.648805
O O3 0.516490 0.224304 0.572786
O O4 0.451156 0.895796 0.581449
O O5 0.172868 0.951661 0.323350
O O6 0.123448 0.647146 0.346624
O O7 0.305212 0.841179 0.423403
O O8 0.115998 0.917596 0.407226
O O9 0.807479 0.902777 0.267186
O O10 0.720785 0.671309 0.183956
O O11 0.799337 0.635133 0.678664
O O12 0.000000 0.542759 0.750000
O O13 0.943423 0.160563 0.512332
O O14 0.000000 0.500000 0.500000
O O15 0.414470 0.390833 0.378951
#
# Coordination Sequence:
#
# PCOD9264232 Si02
#       7
#     8   8   8   8   8   8   8
#     4   9  18  37  59  80 107 151 188 228 277 336
#     4   9  20  33  59  83 109 146 197 222 275 347
#     4  10  20  36  52  81 114 146 187 233 280 334
#     4  10  19  35  57  82 111 155 187 224 284 348
#     4   9  18  36  60  85 112 145 188 241 282 321
#     4  10  20  35  58  85 111 148 187 236 275 332
#     4  11  22  34  56  82 114 149 189 231 284 334
#
# _framework density 23.114937999999999
#
# number of rings (size 3 to 8) (size 9 to 14) (size 15 to 20)
#    0.000    2.286    1.429    1.286    6.000    0.000 
#    0.000   14.286    0.000    0.000    0.000    0.000 
#    0.000    0.000    0.000    0.000    0.000    0.000 
#
# Total GULP energy -156195.403874 kJ/mol
# GULP energy per Si atom -5578.407281 kJ/mol
# Density = 2.306233 g / cm^3
# Si number density = 23.114938 Si / 1000 Ang^3
#
#
#
# Elastic Constant Matrix: (Units=GPa)
#
#
# Indices 1 2 3 4 5 6 
#
# 1 176.2313 9.7728 79.3741 0.0000 -30.2715 0.0000
# 2 9.7728 64.5286 14.0926 0.0000 -13.1411 0.0000
# 3 79.3741 14.0926 148.2720 0.0000 -28.0624 0.0000
# 4 0.0000 0.0000 0.0000 30.5934 0.0000 2.1279
# 5 -30.2715 -13.1411 -28.0624 0.0000 36.6669 0.0000
# 6 0.0000 0.0000 0.0000 2.1279 0.0000 16.2488
#
#
#
# Elastic Compliance Matrix: (Units=1/GPa)
#
#
# Indices 1 2 3 4 5 6 
#
# 1 0.007925 0.000380 -0.003525 0.000000 0.003981 0.000000
# 2 0.000380 0.016771 -0.000702 0.000000 0.005787 0.000000
# 3 -0.003525 -0.000702 0.009472 0.000000 0.004087 0.000000
# 4 0.000000 0.000000 0.000000 0.032987 0.000000 -0.004320
# 5 0.003981 0.005787 0.004087 0.000000 0.035761 0.000000
# 6 0.000000 0.000000 0.000000 -0.004320 0.000000 0.062109
#
#
# Mechanical properties :
#
#
# Convention : Reuss Voigt Hill
#
# Bulk Modulus (GPa) = 37.77330 66.16790 51.97060
# Shear Modulus (GPa) = 27.54159 35.75465 31.64812
#
# Velocity S-wave (km/s) = 3.45556 3.93723 3.70423
# Velocity P-wave (km/s) = 5.68315 7.02544 6.38964
#
# Compressibility (1/GPa) = 0.02647373
#
# Stress axis : x y z
#
# Youngs Moduli (GPa) = 126.18687 59.62556 105.57768
#
# Poissons Ratio (x) = -0.02268 0.37216
# Poissons Ratio (y) = -0.04800 0.07415
# Poissons Ratio (z) = 0.44481 0.04188
#
# Static dielectric constant tensor:
#      x y z
#    x 1.911200 0.000000 -0.066990 
#    y 0.000000 1.949090 0.000000 
#    z -0.066990 0.000000 1.859280 
# 
# From -- ./inp_files/272626.got.cif
#   From: 2010.05.17/outbox.cif.g08.bks.cpg/sg15_137_cif.got.tgz:272626.got - 2010.06.03 18:47:42.
