data_PCOD9264834
_publ_section_title
;
Structure prediction by ZEFSAII (Michael W. Deem and Ramdas Pophale) SiO2 
 PCOD9264834
Probable space group: C 2/C
;
_chemical_formula_sum "Si O2"
_cell_formula_units_Z 40
_cell_length_a 17.028151
_cell_length_b 10.894867
_cell_length_c 16.249208
_cell_angle_alpha 90.000000
_cell_angle_beta 32.450714
_cell_angle_gamma 90.000000
_cell_volume 1617.525683
_symmetry_space_group_name_H-M "C 2/C"
_symmetry_group_IT_number 15
_symmetry_cell_setting 'monoclinic'
loop_
_space_group_symop_operation_xyz
x,y,z
-x,y,1/2-z
-x,-y,-z
x,-y,1/2+z
1/2+x,1/2+y,z
1/2-x,1/2+y,1/2-z
1/2-x,1/2-y,-z
1/2+x,1/2-y,1/2+z
loop_
_atom_site_type_symbol
_atom_site_label
_atom_site_fract_x
_atom_site_fract_y
_atom_site_fract_z
Si Si1 0.070776 0.480464 0.275608
Si Si2 0.349473 0.599319 0.957482
Si Si3 0.244812 0.228164 0.800783
Si Si4 0.981343 0.909596 0.593612
Si Si5 0.174608 0.352072 0.451340
O O1 0.151533 0.363739 0.240232
O O2 0.000000 0.450181 0.250000
O O3 0.948070 0.542683 0.440480
O O4 0.199942 0.576285 0.140966
O O5 0.451230 0.484656 0.890229
O O6 0.702279 0.612273 0.590482
O O7 0.403820 0.730355 0.941830
O O8 0.316620 0.361833 0.746570
O O9 0.257930 0.182219 0.695582
O O10 0.084189 0.206333 0.979180
O O11 0.000000 0.000000 0.500000
#
# Coordination Sequence:
#
# PCOD9264834 Si02
#       5
#     8   8   8   8   8
#     4   9  20  39  60  90 128 166 214 271 323 391
#     4   9  20  38  60  91 132 163 212 286 326 375
#     4  11  24  40  69  94 131 176 217 267 332 395
#     4  11  24  45  65  98 138 170 221 280 327 392
#     4  10  19  35  64  94 122 172 222 264 331 383
#
# _framework density 24.729127999999999
#
# number of rings (size 3 to 8) (size 9 to 14) (size 15 to 20)
#    0.000    2.000    2.000    0.600    2.800    1.600 
#    0.000   12.000    0.000    0.000    0.000    0.000 
#    0.000    0.000    0.000    0.000    0.000    0.000 
#
# Total GULP energy -112087.828782 kJ/mol
# GULP energy per Si atom -5604.391439 kJ/mol
# Density = 2.467284 g / cm^3
# Si number density = 24.729128 Si / 1000 Ang^3
#
#
#
# Elastic Constant Matrix: (Units=GPa)
#
#
# Indices 1 2 3 4 5 6 
#
# 1 87.4966 22.4490 14.7710 0.0000 0.4227 0.0000
# 2 22.4490 59.9077 26.1182 0.0000 -5.2313 0.0000
# 3 14.7710 26.1182 107.9273 0.0000 -5.2147 0.0000
# 4 0.0000 0.0000 0.0000 30.3629 0.0000 -7.3901
# 5 0.4227 -5.2313 -5.2147 0.0000 15.2000 0.0000
# 6 0.0000 0.0000 0.0000 -7.3901 0.0000 40.8554
#
#
#
# Elastic Compliance Matrix: (Units=1/GPa)
#
#
# Indices 1 2 3 4 5 6 
#
# 1 0.012757 -0.004657 -0.000726 0.000000 -0.002206 0.000000
# 2 -0.004657 0.020735 -0.004097 0.000000 0.005860 0.000000
# 3 -0.000726 -0.004097 0.010463 0.000000 0.002199 0.000000
# 4 0.000000 0.000000 0.000000 0.034452 0.000000 0.006232
# 5 -0.002206 0.005860 0.002199 0.000000 0.068622 0.000000
# 6 0.000000 0.000000 0.000000 0.006232 0.000000 0.025604
#
#
# Mechanical properties :
#
#
# Convention : Reuss Voigt Hill
#
# Bulk Modulus (GPa) = 40.00720 42.44532 41.22626
# Shear Modulus (GPa) = 25.00945 30.08320 27.54633
#
# Velocity S-wave (km/s) = 3.18360 3.49163 3.34117
# Velocity P-wave (km/s) = 5.45225 5.78418 5.62066
#
# Compressibility (1/GPa) = 0.02499550
#
# Stress axis : x y z
#
# Youngs Moduli (GPa) = 78.38875 48.22657 95.57808
#
# Poissons Ratio (x) = 0.22458 0.06935
# Poissons Ratio (y) = 0.36503 0.39163
# Poissons Ratio (z) = 0.05688 0.19761
#
# Static dielectric constant tensor:
#      x y z
#    x 1.953850 0.000000 -0.018440 
#    y 0.000000 1.973740 0.000000 
#    z -0.018440 0.000000 1.955150 
# 
# From -- ./inp_files/255408.got.cif
#   From: 2010.05.17/outbox.cif.g08.bks.cpg/sg15_128_cif.got.tgz:255408.got - 2010.06.03 18:47:42.
