data_PCOD9264753
_publ_section_title
;
Structure prediction by ZEFSAII (Michael W. Deem and Ramdas Pophale) SiO2 
 PCOD9264753
Probable space group: C 2/C
;
_chemical_formula_sum "Si O2"
_cell_formula_units_Z 36
_cell_length_a 9.579129
_cell_length_b 23.547024
_cell_length_c 8.229040
_cell_angle_alpha 90.000000
_cell_angle_beta 59.229426
_cell_angle_gamma 90.000000
_cell_volume 1594.839537
_symmetry_space_group_name_H-M "C 2/C"
_symmetry_group_IT_number 15
_symmetry_cell_setting 'monoclinic'
loop_
_space_group_symop_operation_xyz
x,y,z
-x,y,1/2-z
-x,-y,-z
x,-y,1/2+z
1/2+x,1/2+y,z
1/2-x,1/2+y,1/2-z
1/2-x,1/2-y,-z
1/2+x,1/2-y,1/2+z
loop_
_atom_site_type_symbol
_atom_site_label
_atom_site_fract_x
_atom_site_fract_y
_atom_site_fract_z
Si Si1 0.723336 0.539479 0.241481
Si Si2 0.432435 0.693015 0.607146
Si Si3 0.872407 0.926355 0.062704
Si Si4 0.732039 0.205570 0.157301
Si Si5 0.000000 0.603813 0.250000
O O1 0.705804 0.471716 0.268904
O O2 0.569036 0.563279 0.439914
O O3 0.898451 0.562677 0.191984
O O4 0.689583 0.558038 0.078802
O O5 0.500000 0.681681 0.750000
O O6 0.327370 0.638362 0.628394
O O7 0.360448 0.756413 0.654686
O O8 0.587401 0.691066 0.396684
O O9 0.641737 0.151124 0.138294
O O10 0.750000 0.250000 0.000000
#
# Coordination Sequence:
#
# PCOD9264753 Si02
#       5
#     8   8   8   8   4
#     4  10  24  38  64  90 128 166 217 266 320 374
#     4  10  20  36  67  93 125 170 219 254 318 385
#     4  10  22  42  60  93 125 172 214 262 317 387
#     4  10  19  35  62  95 123 168 211 256 316 382
#     4  12  20  38  64  92 126 162 210 270 310 378
#
# _framework density 22.572806
#
# number of rings (size 3 to 8) (size 9 to 14) (size 15 to 20)
#    0.000    1.778    5.556    0.000    6.222    0.889 
#    0.000    1.111    4.889    0.000    0.000    0.000 
#    0.000    0.000    0.000    0.000    0.000    0.000 
#
# Total GULP energy -100286.730456 kJ/mol
# GULP energy per Si atom -5571.485025 kJ/mol
# Density = 2.252143 g / cm^3
# Si number density = 22.572806 Si / 1000 Ang^3
#
#
#
# Elastic Constant Matrix: (Units=GPa)
#
#
# Indices 1 2 3 4 5 6 
#
# 1 111.6662 57.9463 32.5077 0.0000 -3.1110 0.0000
# 2 57.9463 134.4295 21.8713 0.0000 0.7811 0.0000
# 3 32.5077 21.8713 33.8896 0.0000 -0.5243 0.0000
# 4 0.0000 0.0000 0.0000 -1.1152 0.0000 -12.3199
# 5 -3.1110 0.7811 -0.5243 0.0000 23.0500 0.0000
# 6 0.0000 0.0000 0.0000 -12.3199 0.0000 30.4265
#
#
#
# Elastic Compliance Matrix: (Units=1/GPa)
#
#
# Indices 1 2 3 4 5 6 
#
# 1 0.014546 -0.004487 -0.011028 0.000000 0.001864 0.000000
# 2 -0.004487 0.009699 -0.001971 0.000000 -0.000979 0.000000
# 3 -0.011028 -0.001971 0.041351 0.000000 -0.000481 0.000000
# 4 0.000000 0.000000 0.000000 -0.163838 0.000000 -0.066339
# 5 0.001864 -0.000979 -0.000481 0.000000 0.043658 0.000000
# 6 0.000000 0.000000 0.000000 -0.066339 0.000000 0.006005
#
#
# Mechanical properties :
#
#
# Convention : Reuss Voigt Hill
#
# Bulk Modulus (GPa) = 32.65430 56.07065 44.36248
# Shear Modulus (GPa) = -1470.98157 21.64961 -724.66598
#
# Velocity S-wave (km/s) = -25.55534 3.10030 -17.93689
# Velocity P-wave (km/s) = 29.26209 6.14082 20.23067
#
# Compressibility (1/GPa) = 0.03062384
#
# Stress axis : x y z
#
# Youngs Moduli (GPa) = 68.74761 103.10134 24.18330
#
# Poissons Ratio (x) = 0.46258 0.26670
# Poissons Ratio (y) = 0.30845 0.04767
# Poissons Ratio (z) = 0.75818 0.20322
#
# Static dielectric constant tensor:
#      x y z
#    x 1.867380 0.000000 -0.099410 
#    y 0.000000 1.916830 0.000000 
#    z -0.099410 0.000000 1.945710 
# 
# From -- ./inp_files/23344.got.cif
#   From: 2010.05.17/outbox.cif.g08.bks.cpg/sg15_12_cif.got.tgz:23344.got - 2010.06.03 18:47:42.
