data_PCOD9264848
_publ_section_title
;
Structure prediction by ZEFSAII (Michael W. Deem and Ramdas Pophale) SiO2 
 PCOD9264848
Probable space group: C 2/C
;
_chemical_formula_sum "Si O2"
_cell_formula_units_Z 64
_cell_length_a 8.279761
_cell_length_b 20.776709
_cell_length_c 18.998433
_cell_angle_alpha 90.000000
_cell_angle_beta 115.942298
_cell_angle_gamma 90.000000
_cell_volume 2938.905186
_symmetry_space_group_name_H-M "C 2/C"
_symmetry_group_IT_number 15
_symmetry_cell_setting 'monoclinic'
loop_
_space_group_symop_operation_xyz
x,y,z
-x,y,1/2-z
-x,-y,-z
x,-y,1/2+z
1/2+x,1/2+y,z
1/2-x,1/2+y,1/2-z
1/2-x,1/2-y,-z
1/2+x,1/2-y,1/2+z
loop_
_atom_site_type_symbol
_atom_site_label
_atom_site_fract_x
_atom_site_fract_y
_atom_site_fract_z
Si Si1 0.166919 0.315914 0.566607
Si Si2 0.694333 0.088363 0.751003
Si Si3 0.977830 0.874754 0.543577
Si Si4 0.222591 0.826626 0.112558
Si Si5 0.827851 0.346416 0.781394
Si Si6 0.592167 0.157760 0.600837
Si Si7 0.275218 0.787836 0.639136
Si Si8 0.107236 0.958147 0.696746
O O1 0.340439 0.322827 0.550975
O O2 0.130742 0.242097 0.580760
O O3 0.224905 0.350650 0.648437
O O4 0.005822 0.349775 0.493193
O O5 0.500000 0.074444 0.750000
O O6 0.762804 0.152697 0.803827
O O7 0.674126 0.100596 0.663426
O O8 0.830369 0.031328 0.793806
O O9 0.881554 0.883319 0.450168
O O10 0.161072 0.835750 0.569382
O O11 0.010057 0.931153 0.607053
O O12 0.423714 0.821204 0.118744
O O13 0.714091 0.300164 0.708708
O O14 0.788668 0.415045 0.739207
O O15 0.024856 0.315359 0.823797
O O16 0.736285 0.214182 0.617153
O O17 0.000000 0.948632 0.750000
#
# Coordination Sequence:
#
# PCOD9264848 Si02
#       8
#     8   8   8   8   8   8   8   8
#     4  11  18  36  62  93 120 152 200 246 309 368
#     4  10  24  40  61  86 123 168 204 251 301 358
#     4  10  19  35  65  88 114 155 198 254 292 362
#     4  10  19  37  62  95 119 152 203 247 308 362
#     4  10  23  34  58  88 116 155 200 249 300 357
#     4  10  19  37  60  87 126 154 187 247 307 363
#     4  10  19  36  55  90 123 149 188 245 313 356
#     4  11  23  43  61  82 118 162 218 251 296 357
#
# _framework density 21.776817000000001
#
# number of rings (size 3 to 8) (size 9 to 14) (size 15 to 20)
#    0.000    1.750    3.750    1.500    3.500    1.000 
#    4.500    0.625    0.000    0.000    0.000    0.000 
#    0.000    0.000    0.000    0.000    0.000    0.000 
#
# Total GULP energy -178225.581767 kJ/mol
# GULP energy per Si atom -5569.549430 kJ/mol
# Density = 2.172725 g / cm^3
# Si number density = 21.776817 Si / 1000 Ang^3
#
#
#
# Elastic Constant Matrix: (Units=GPa)
#
#
# Indices 1 2 3 4 5 6 
#
# 1 34.5495 3.6742 4.4905 0.0000 13.1797 0.0000
# 2 3.6742 68.4433 23.3318 0.0000 4.6533 0.0000
# 3 4.4905 23.3318 90.3884 0.0000 3.2892 0.0000
# 4 0.0000 0.0000 0.0000 26.2646 0.0000 5.1462
# 5 13.1797 4.6533 3.2892 0.0000 26.0141 0.0000
# 6 0.0000 0.0000 0.0000 5.1462 0.0000 19.9333
#
#
#
# Elastic Compliance Matrix: (Units=1/GPa)
#
#
# Indices 1 2 3 4 5 6 
#
# 1 0.036000 -0.000351 -0.001041 0.000000 -0.018045 0.000000
# 2 -0.000351 0.016168 -0.004076 0.000000 -0.002199 0.000000
# 3 -0.001041 -0.004076 0.012178 0.000000 -0.000283 0.000000
# 4 0.000000 0.000000 0.000000 0.040103 0.000000 -0.010353
# 5 -0.018045 -0.002199 -0.000283 0.000000 0.048012 0.000000
# 6 0.000000 0.000000 0.000000 -0.010353 0.000000 0.052840
#
#
# Mechanical properties :
#
#
# Convention : Reuss Voigt Hill
#
# Bulk Modulus (GPa) = 18.72318 28.48602 23.60460
# Shear Modulus (GPa) = 21.36382 25.23471 23.29927
#
# Velocity S-wave (km/s) = 3.13555 3.40779 3.27450
# Velocity P-wave (km/s) = 4.66104 5.34727 5.01591
#
# Compressibility (1/GPa) = 0.05340974
#
# Stress axis : x y z
#
# Youngs Moduli (GPa) = 27.77771 61.84871 82.11831
#
# Poissons Ratio (x) = 0.02170 0.08551
# Poissons Ratio (y) = 0.00974 0.33472
# Poissons Ratio (z) = 0.02893 0.25210
#
# Static dielectric constant tensor:
#      x y z
#    x 1.882030 0.000000 -0.068810 
#    y 0.000000 1.784400 0.000000 
#    z -0.068810 0.000000 1.915920 
# 
# From -- ./inp_files/233867.got.cif
#   From: 2010.05.17/outbox.cif.g08.bks.cpg/sg15_117_cif.got.tgz:233867.got - 2010.06.03 18:47:42.
