data_PCOD9264448
_publ_section_title
;
Structure prediction by ZEFSAII (Michael W. Deem and Ramdas Pophale) SiO2 
 PCOD9264448
Probable space group: C 2/C
;
_chemical_formula_sum "Si O2"
_cell_formula_units_Z 60
_cell_length_a 19.837680
_cell_length_b 9.142576
_cell_length_c 27.082124
_cell_angle_alpha 90.000000
_cell_angle_beta 140.848560
_cell_angle_gamma 90.000000
_cell_volume 3101.185154
_symmetry_space_group_name_H-M "C 2/C"
_symmetry_group_IT_number 15
_symmetry_cell_setting 'monoclinic'
loop_
_space_group_symop_operation_xyz
x,y,z
-x,y,1/2-z
-x,-y,-z
x,-y,1/2+z
1/2+x,1/2+y,z
1/2-x,1/2+y,1/2-z
1/2-x,1/2-y,-z
1/2+x,1/2-y,1/2+z
loop_
_atom_site_type_symbol
_atom_site_label
_atom_site_fract_x
_atom_site_fract_y
_atom_site_fract_z
Si Si1 0.817459 0.212681 0.823284
Si Si2 0.373346 0.030912 0.421414
Si Si3 0.024083 0.371076 0.657160
Si Si4 0.000000 0.755758 0.250000
Si Si5 0.525532 0.457374 0.570716
Si Si6 0.220421 0.871545 0.407981
Si Si7 0.398948 0.844434 0.344921
Si Si8 0.850299 0.138809 0.523337
O O1 0.853092 0.304271 0.891827
O O2 0.870976 0.296905 0.807328
O O3 0.870598 0.053212 0.855796
O O4 0.691446 0.207351 0.744350
O O5 0.301226 0.977332 0.425554
O O6 0.340475 0.932581 0.355661
O O7 0.500000 0.000000 0.500000
O O8 0.018295 0.342738 0.711945
O O9 0.025503 0.537679 0.639322
O O10 0.927378 0.276856 0.579449
O O11 0.895880 0.856381 0.182239
O O12 0.500000 0.500000 0.500000
O O13 0.544937 0.290377 0.596143
O O14 0.425555 0.515559 0.544981
O O15 0.204211 0.908212 0.456598
O O16 0.268831 0.706554 0.437640
#
# Coordination Sequence:
#
# PCOD9264448 Si02
#       8
#     8   8   8   4   8   8   8   8
#     4  10  21  35  54  82 114 147 189 240 291 335
#     4  11  21  37  61  85 111 148 194 238 282 342
#     4   9  19  36  54  77 109 149 188 228 282 341
#     4  10  20  34  58  84 112 148 192 232 280 354
#     4  11  21  35  56  84 113 149 195 237 283 343
#     4  10  19  35  59  84 108 146 191 233 281 336
#     4  11  21  34  55  81 115 146 182 238 292 336
#     4   9  20  36  56  79 110 146 187 234 281 337
#
# _framework density 19.347442000000001
#
# number of rings (size 3 to 8) (size 9 to 14) (size 15 to 20)
#    0.000    1.867    0.000    6.400    0.000    3.200 
#    0.000    1.333    0.000   14.400    0.000    0.000 
#    0.000    0.000    0.000    0.000    0.000    0.000 
#
# Total GULP energy -167435.843312 kJ/mol
# GULP energy per Si atom -5581.194777 kJ/mol
# Density = 1.930341 g / cm^3
# Si number density = 19.347442 Si / 1000 Ang^3
#
#
#
# Elastic Constant Matrix: (Units=GPa)
#
#
# Indices 1 2 3 4 5 6 
#
# 1 117.3584 40.4317 11.7741 0.0000 3.3110 0.0000
# 2 40.4317 86.0019 6.7406 0.0000 -3.9924 0.0000
# 3 11.7741 6.7406 69.3465 0.0000 8.8915 0.0000
# 4 0.0000 0.0000 0.0000 17.0288 0.0000 -6.3369
# 5 3.3110 -3.9924 8.8915 0.0000 25.3430 0.0000
# 6 0.0000 0.0000 0.0000 -6.3369 0.0000 27.7799
#
#
#
# Elastic Compliance Matrix: (Units=1/GPa)
#
#
# Indices 1 2 3 4 5 6 
#
# 1 0.010353 -0.004865 -0.001061 0.000000 -0.001747 0.000000
# 2 -0.004865 0.014138 -0.000958 0.000000 0.003199 0.000000
# 3 -0.001061 -0.000958 0.015387 0.000000 -0.005411 0.000000
# 4 0.000000 0.000000 0.000000 0.064171 0.000000 0.014638
# 5 -0.001747 0.003199 -0.005411 0.000000 0.042089 0.000000
# 6 0.000000 0.000000 0.000000 0.014638 0.000000 0.039336
#
#
# Mechanical properties :
#
#
# Convention : Reuss Voigt Hill
#
# Bulk Modulus (GPa) = 38.29976 43.39997 40.84987
# Shear Modulus (GPa) = 24.04452 28.28103 26.16278
#
# Velocity S-wave (km/s) = 3.52913 3.82743 3.68130
# Velocity P-wave (km/s) = 6.03697 6.48173 6.26330
#
# Compressibility (1/GPa) = 0.02610982
#
# Stress axis : x y z
#
# Youngs Moduli (GPa) = 96.59330 70.72915 64.98815
#
# Poissons Ratio (x) = 0.34410 0.06895
# Poissons Ratio (y) = 0.46993 0.06229
# Poissons Ratio (z) = 0.10248 0.06779
#
# Static dielectric constant tensor:
#      x y z
#    x 1.673690 0.000000 0.003020 
#    y 0.000000 1.673100 0.000000 
#    z 0.003020 0.000000 1.737100 
# 
# From -- ./inp_files/317287.got.cif
#   From: 2010.05.17/outbox.cif.g08.bks.cpg/sg15_159_cif.got.tgz:317287.got - 2010.06.03 18:47:42.
