data_PCOD9264762
_publ_section_title
;
Structure prediction by ZEFSAII (Michael W. Deem and Ramdas Pophale) SiO2 
 PCOD9264762
Probable space group: C 2/C
;
_chemical_formula_sum "Si O2"
_cell_formula_units_Z 48
_cell_length_a 19.145473
_cell_length_b 15.464105
_cell_length_c 13.820105
_cell_angle_alpha 90.000000
_cell_angle_beta 140.145848
_cell_angle_gamma 90.000000
_cell_volume 2622.097420
_symmetry_space_group_name_H-M "C 2/C"
_symmetry_group_IT_number 15
_symmetry_cell_setting 'monoclinic'
loop_
_space_group_symop_operation_xyz
x,y,z
-x,y,1/2-z
-x,-y,-z
x,-y,1/2+z
1/2+x,1/2+y,z
1/2-x,1/2+y,1/2-z
1/2-x,1/2-y,-z
1/2+x,1/2-y,1/2+z
loop_
_atom_site_type_symbol
_atom_site_label
_atom_site_fract_x
_atom_site_fract_y
_atom_site_fract_z
Si Si1 0.500000 0.979149 0.750000
Si Si2 0.493772 0.404639 0.037168
Si Si3 0.500000 0.320415 0.250000
Si Si4 0.757661 0.865844 0.202742
Si Si5 0.666973 0.836348 0.890552
Si Si6 0.232467 0.824375 0.710763
Si Si7 0.892701 0.529791 0.445062
O O1 0.431768 0.029980 0.598046
O O2 0.582231 0.914049 0.783007
O O3 0.482777 0.382775 0.139982
O O4 0.613368 0.367565 0.142877
O O5 0.500000 0.500000 0.000000
O O6 0.382127 0.364310 0.878673
O O7 0.403879 0.251330 0.173116
O O8 0.721414 0.777944 0.216359
O O9 0.696421 0.953599 0.167992
O O10 0.725116 0.856952 0.054294
O O11 0.743889 0.831956 0.879546
O O12 0.333589 0.879391 0.860215
O O13 0.000000 0.500000 0.500000
#
# Coordination Sequence:
#
# PCOD9264762 Si02
#       7
#     4   8   4   8   8   8   8
#     4   9  20  36  60  87 124 146 208 253 300 365
#     4  12  24  38  55  94 131 165 196 248 321 377
#     4  11  20  38  64  91 132 156 204 263 318 373
#     4  11  23  38  58  92 128 153 207 256 313 373
#     4  10  19  35  62  97 115 154 200 264 320 357
#     4  12  22  37  62  91 125 164 200 254 320 370
#     4  11  23  40  61  90 119 165 204 257 309 372
#
# _framework density 18.305955999999998
#
# number of rings (size 3 to 8) (size 9 to 14) (size 15 to 20)
#    0.000    1.000    6.667    1.500    2.333    0.000 
#    0.000    0.000    0.000    2.000    0.000    0.000 
#    0.000    0.000    0.000    0.000    0.000    0.000 
#
# Total GULP energy -133672.403209 kJ/mol
# GULP energy per Si atom -5569.683467 kJ/mol
# Density = 1.826429 g / cm^3
# Si number density = 18.305956 Si / 1000 Ang^3
#
#
#
# Elastic Constant Matrix: (Units=GPa)
#
#
# Indices 1 2 3 4 5 6 
#
# 1 54.1315 12.2308 12.4636 0.0000 18.8069 0.0000
# 2 12.2308 81.9399 35.0389 0.0000 -6.4856 0.0000
# 3 12.4636 35.0389 82.9431 0.0000 9.7149 0.0000
# 4 0.0000 0.0000 0.0000 39.3680 0.0000 6.7617
# 5 18.8069 -6.4856 9.7149 0.0000 33.7716 0.0000
# 6 0.0000 0.0000 0.0000 6.7617 0.0000 29.2688
#
#
#
# Elastic Compliance Matrix: (Units=1/GPa)
#
#
# Indices 1 2 3 4 5 6 
#
# 1 0.024663 -0.004876 0.000075 0.000000 -0.014692 0.000000
# 2 -0.004876 0.016662 -0.007243 0.000000 0.007999 0.000000
# 3 0.000075 -0.007243 0.015805 0.000000 -0.005979 0.000000
# 4 0.000000 0.000000 0.000000 0.026451 0.000000 -0.006111
# 5 -0.014692 0.007999 -0.005979 0.000000 0.041049 0.000000
# 6 0.000000 0.000000 0.000000 -0.006111 0.000000 0.035578
#
#
# Mechanical properties :
#
#
# Convention : Reuss Voigt Hill
#
# Bulk Modulus (GPa) = 30.26510 37.60899 33.93705
# Shear Modulus (GPa) = 25.60033 31.10043 28.35038
#
# Velocity S-wave (km/s) = 3.74367 4.12627 3.93962
# Velocity P-wave (km/s) = 5.93764 6.57957 6.26683
#
# Compressibility (1/GPa) = 0.03304135
#
# Stress axis : x y z
#
# Youngs Moduli (GPa) = 40.54736 60.01581 63.26970
#
# Poissons Ratio (x) = 0.29264 -0.00473
# Poissons Ratio (y) = 0.19771 0.45827
# Poissons Ratio (z) = -0.00303 0.43470
#
# Static dielectric constant tensor:
#      x y z
#    x 1.645870 0.000000 0.037340 
#    y 0.000000 1.651080 0.000000 
#    z 0.037340 0.000000 1.708570 
# 
# From -- ./inp_files/168321.got.cif
#   From: 2010.05.17/outbox.cif.g08.bks.cpg/sg15_85_cif.got.tgz:168321.got - 2010.06.03 18:47:42.
