data_PCOD9264990
_publ_section_title
;
Structure prediction by ZEFSAII (Michael W. Deem and Ramdas Pophale) SiO2 
 PCOD9264990
Probable space group: C 2/C
;
_chemical_formula_sum "Si O2"
_cell_formula_units_Z 64
_cell_length_a 6.704852
_cell_length_b 19.110950
_cell_length_c 26.507069
_cell_angle_alpha 90.000000
_cell_angle_beta 88.918138
_cell_angle_gamma 90.000000
_cell_volume 3395.906750
_symmetry_space_group_name_H-M "C 2/C"
_symmetry_group_IT_number 15
_symmetry_cell_setting 'monoclinic'
loop_
_space_group_symop_operation_xyz
x,y,z
-x,y,1/2-z
-x,-y,-z
x,-y,1/2+z
1/2+x,1/2+y,z
1/2-x,1/2+y,1/2-z
1/2-x,1/2-y,-z
1/2+x,1/2-y,1/2+z
loop_
_atom_site_type_symbol
_atom_site_label
_atom_site_fract_x
_atom_site_fract_y
_atom_site_fract_z
Si Si1 0.538251 0.483536 0.589532
Si Si2 0.549861 0.194840 0.693803
Si Si3 0.899649 0.707795 0.197292
Si Si4 0.314036 0.900205 0.051910
Si Si5 0.416962 0.936232 0.646137
Si Si6 0.842133 0.433333 0.370282
Si Si7 0.698043 0.271854 0.118311
Si Si8 0.283471 0.127777 0.437869
O O1 0.679208 0.529803 0.552636
O O2 0.693307 0.454463 0.630177
O O3 0.368857 0.534347 0.613209
O O4 0.414926 0.419541 0.566534
O O5 0.500000 0.169328 0.750000
O O6 0.675336 0.265434 0.699266
O O7 0.671310 0.135388 0.663463
O O8 0.360111 0.211767 0.660508
O O9 0.918854 0.625649 0.186343
O O10 0.000000 0.725868 0.250000
O O11 0.004744 0.748064 0.150339
O O12 0.517989 0.916047 0.081649
O O13 0.195096 0.840477 0.083528
O O14 0.350101 0.874097 0.995405
O O15 0.544778 0.907076 0.597710
O O16 0.531723 0.007120 0.659841
O O17 0.754509 0.205212 0.083477
#
# Coordination Sequence:
#
# PCOD9264990 Si02
#       8
#     8   8   8   8   8   8   8   8
#     4  10  19  36  56  81 110 148 189 224 271 328
#     4  11  21  37  60  82 107 143 188 232 286 336
#     4  11  21  37  60  82 107 143 188 232 286 336
#     4  10  20  34  56  82 113 148 185 225 274 328
#     4   9  21  37  55  80 115 146 183 230 277 330
#     4   9  21  37  55  80 115 146 183 230 277 330
#     4  10  21  38  54  82 114 144 181 232 278 332
#     4  10  20  34  56  82 113 148 185 225 274 328
#
# _framework density 18.846218
#
# number of rings (size 3 to 8) (size 9 to 14) (size 15 to 20)
#    0.000    2.000    1.250    2.250    0.000    6.000 
#    0.000    0.000    0.000    9.750    0.000    0.000 
#    0.000    0.000    0.000    0.000    0.000    0.000 
#
# Total GULP energy -178532.132306 kJ/mol
# GULP energy per Si atom -5579.129135 kJ/mol
# Density = 1.880332 g / cm^3
# Si number density = 18.846218 Si / 1000 Ang^3
#
#
#
# Elastic Constant Matrix: (Units=GPa)
#
#
# Indices 1 2 3 4 5 6 
#
# 1 49.9862 7.4614 6.4977 0.0000 5.2979 0.0000
# 2 7.4614 74.5795 10.5729 0.0000 5.7053 0.0000
# 3 6.4977 10.5729 55.7535 0.0000 -1.0117 0.0000
# 4 0.0000 0.0000 0.0000 20.4966 0.0000 23.4697
# 5 5.2979 5.7053 -1.0117 0.0000 7.3421 0.0000
# 6 0.0000 0.0000 0.0000 23.4697 0.0000 58.2965
#
#
#
# Elastic Compliance Matrix: (Units=1/GPa)
#
#
# Indices 1 2 3 4 5 6 
#
# 1 0.022137 -0.000610 -0.002752 0.000000 -0.015879 0.000000
# 2 -0.000610 0.014760 -0.002936 0.000000 -0.011434 0.000000
# 3 -0.002752 -0.002936 0.018938 0.000000 0.006877 0.000000
# 4 0.000000 0.000000 0.000000 0.090515 0.000000 -0.036441
# 5 -0.015879 -0.011434 0.006877 0.000000 0.157492 0.000000
# 6 0.000000 0.000000 0.000000 -0.036441 0.000000 0.031824
#
#
# Mechanical properties :
#
#
# Convention : Reuss Voigt Hill
#
# Bulk Modulus (GPa) = 23.12648 25.48703 24.30675
# Shear Modulus (GPa) = 13.78640 27.61286 20.69963
#
# Velocity S-wave (km/s) = 2.70760 3.83190 3.31772
# Velocity P-wave (km/s) = 4.69815 5.75595 5.25374
#
# Compressibility (1/GPa) = 0.04324048
#
# Stress axis : x y z
#
# Youngs Moduli (GPa) = 45.17256 67.74896 52.80290
#
# Poissons Ratio (x) = 0.04131 0.14534
# Poissons Ratio (y) = 0.02755 0.15500
# Poissons Ratio (z) = 0.12434 0.19888
#
# Static dielectric constant tensor:
#      x y z
#    x 1.638440 0.000000 -0.015660 
#    y 0.000000 1.656330 0.000000 
#    z -0.015660 0.000000 1.636090 
# 
# From -- ./inp_files/286406.got.cif
#   From: 2010.05.17/outbox.cif.g08.bks.cpg/sg15_144_cif.got.tgz:286406.got - 2010.06.03 18:47:42.
