data_PCOD9264782
_publ_section_title
;
Structure prediction by ZEFSAII (Michael W. Deem and Ramdas Pophale) SiO2 
 PCOD9264782
Probable space group: C 2/C
;
_chemical_formula_sum "Si O2"
_cell_formula_units_Z 48
_cell_length_a 12.266454
_cell_length_b 25.037187
_cell_length_c 10.466264
_cell_angle_alpha 90.000000
_cell_angle_beta 34.660046
_cell_angle_gamma 90.000000
_cell_volume 1828.033391
_symmetry_space_group_name_H-M "C 2/C"
_symmetry_group_IT_number 15
_symmetry_cell_setting 'monoclinic'
loop_
_space_group_symop_operation_xyz
x,y,z
-x,y,1/2-z
-x,-y,-z
x,-y,1/2+z
1/2+x,1/2+y,z
1/2-x,1/2+y,1/2-z
1/2-x,1/2-y,-z
1/2+x,1/2-y,1/2+z
loop_
_atom_site_type_symbol
_atom_site_label
_atom_site_fract_x
_atom_site_fract_y
_atom_site_fract_z
Si Si1 0.268147 0.449484 0.466331
Si Si2 0.895851 0.887423 0.727477
Si Si3 0.728388 0.490217 0.778574
Si Si4 0.138223 0.698921 0.415450
Si Si5 0.305787 0.316081 0.193872
Si Si6 0.215373 0.674857 0.060870
O O1 0.500000 0.450340 0.250000
O O2 0.202511 0.488666 0.643177
O O3 0.197090 0.467743 0.396154
O O4 0.214250 0.389155 0.550780
O O5 0.762411 0.930651 0.788263
O O6 0.762395 0.836805 0.891786
O O7 0.000000 0.911335 0.750000
O O8 0.068969 0.866055 0.471971
O O9 0.500000 0.500000 0.000000
O O10 0.132641 0.762225 0.439182
O O11 0.253880 0.690730 0.169416
O O12 0.922137 0.677612 0.609599
O O13 0.329109 0.307766 0.324682
O O14 0.000000 0.695433 0.250000
#
# Coordination Sequence:
#
# PCOD9264782 Si02
#       6
#     8   8   8   8   8   8
#     4  10  19  35  63  89 124 166 215 269 324 390
#     4  12  25  42  67  92 131 177 220 267 325 388
#     4  10  20  37  64  94 122 165 221 267 325 393
#     4  11  23  42  63  99 131 167 220 267 326 387
#     4  11  23  41  65  96 131 171 215 270 322 390
#     4  10  22  38  64  95 131 164 211 273 332 389
#
# _framework density 26.257726000000002
#
# number of rings (size 3 to 8) (size 9 to 14) (size 15 to 20)
#    0.000    1.333    3.333    4.000    0.000    1.333 
#    0.000    0.833   11.000    0.000    0.000    0.000 
#    0.000    0.000    0.000    0.000    0.000    0.000 
#
# Total GULP energy -134406.905482 kJ/mol
# GULP energy per Si atom -5600.287728 kJ/mol
# Density = 2.619796 g / cm^3
# Si number density = 26.257726 Si / 1000 Ang^3
#
#
#
# Elastic Constant Matrix: (Units=GPa)
#
#
# Indices 1 2 3 4 5 6 
#
# 1 67.1469 9.5876 20.2750 0.0000 8.6574 0.0000
# 2 9.5876 108.4379 -2.5423 0.0000 16.8539 0.0000
# 3 20.2750 -2.5423 76.4662 -0.0001 -20.9628 0.0000
# 4 0.0000 0.0000 -0.0001 15.5080 0.0000 10.7897
# 5 8.6574 16.8539 -20.9628 0.0000 38.0175 0.0000
# 6 0.0000 0.0000 0.0000 10.7897 0.0000 34.2333
#
#
#
# Elastic Compliance Matrix: (Units=1/GPa)
#
#
# Indices 1 2 3 4 5 6 
#
# 1 0.018047 -0.000566 -0.006906 0.000000 -0.007667 0.000000
# 2 -0.000566 0.009991 -0.000821 0.000000 -0.004753 0.000000
# 3 -0.006906 -0.000821 0.018157 0.000000 0.011948 0.000000
# 4 0.000000 0.000000 0.000000 0.082595 0.000000 -0.026032
# 5 -0.007667 -0.004753 0.011948 0.000000 0.036745 0.000000
# 6 0.000000 0.000000 0.000000 -0.026032 0.000000 0.037416
#
#
# Mechanical properties :
#
#
# Convention : Reuss Voigt Hill
#
# Bulk Modulus (GPa) = 33.77179 34.07684 33.92432
# Shear Modulus (GPa) = 21.79533 32.53382 27.16458
#
# Velocity S-wave (km/s) = 2.88419 3.52379 3.21991
# Velocity P-wave (km/s) = 4.89704 5.43711 5.17412
#
# Compressibility (1/GPa) = 0.02961051
#
# Stress axis : x y z
#
# Youngs Moduli (GPa) = 55.41017 100.08601 55.07512
#
# Poissons Ratio (x) = 0.05665 0.38034
# Poissons Ratio (y) = 0.03136 0.04520
# Poissons Ratio (z) = 0.38265 0.08215
#
# Static dielectric constant tensor:
#      x y z
#    x 2.105950 0.000000 0.023510 
#    y 0.000000 2.080290 0.000000 
#    z 0.023510 0.000000 2.079540 
# 
# From -- ./inp_files/101243.got.cif
#   From: 2010.05.17/outbox.cif.g08.bks.cpg/sg15_51_cif.got.tgz:101243.got - 2010.06.03 18:47:42.
