data_PCOD9264991
_publ_section_title
;
Structure prediction by ZEFSAII (Michael W. Deem and Ramdas Pophale) SiO2 
 PCOD9264991
Probable space group: C 2/C
;
_chemical_formula_sum "Si O2"
_cell_formula_units_Z 60
_cell_length_a 22.857105
_cell_length_b 8.617659
_cell_length_c 19.046717
_cell_angle_alpha 90.000000
_cell_angle_beta 117.978527
_cell_angle_gamma 90.000000
_cell_volume 3313.233834
_symmetry_space_group_name_H-M "C 2/C"
_symmetry_group_IT_number 15
_symmetry_cell_setting 'monoclinic'
loop_
_space_group_symop_operation_xyz
x,y,z
-x,y,1/2-z
-x,-y,-z
x,-y,1/2+z
1/2+x,1/2+y,z
1/2-x,1/2+y,1/2-z
1/2-x,1/2-y,-z
1/2+x,1/2-y,1/2+z
loop_
_atom_site_type_symbol
_atom_site_label
_atom_site_fract_x
_atom_site_fract_y
_atom_site_fract_z
Si Si1 0.195899 0.682571 0.677646
Si Si2 0.749116 0.326999 0.923565
Si Si3 0.570373 0.313408 0.207479
Si Si4 0.821356 0.691235 0.327455
Si Si5 0.196856 0.330378 0.019992
Si Si6 0.067496 0.666418 0.353863
Si Si7 0.000000 0.380914 0.250000
Si Si8 0.115899 0.834601 0.756716
O O1 0.186123 0.496155 0.678661
O O2 0.268667 0.729644 0.745391
O O3 0.188657 0.737082 0.593449
O O4 0.145501 0.767904 0.701185
O O5 0.799016 0.257089 0.892922
O O6 0.774366 0.499823 0.950048
O O7 0.676732 0.329176 0.846593
O O8 0.750000 0.250000 0.000000
O O9 0.607838 0.244285 0.161245
O O10 0.591452 0.218422 0.289619
O O11 0.491652 0.283854 0.158856
O O12 0.590239 0.490945 0.231102
O O13 0.250000 0.250000 0.000000
O O14 0.127168 0.334847 0.941101
O O15 0.033833 0.498112 0.324892
O O16 0.056719 0.274408 0.249259
#
# Coordination Sequence:
#
# PCOD9264991 Si02
#       8
#     8   8   8   8   8   8   4   8
#     4  10  21  35  56  83 110 145 187 229 275 330
#     4  10  22  36  55  84 114 141 181 230 278 327
#     4  10  20  37  58  81 110 148 186 228 273 330
#     4  10  19  36  56  81 112 147 185 227 275 331
#     4  11  22  37  57  83 113 143 180 230 282 326
#     4  10  21  37  58  83 111 146 186 227 276 331
#     4  10  20  36  60  82 110 150 188 226 272 330
#     4  11  21  37  58  83 111 147 189 228 272 330
#
# _framework density 18.109196000000001
#
# number of rings (size 3 to 8) (size 9 to 14) (size 15 to 20)
#    0.000    1.867    0.000    7.200    0.000    4.267 
#    0.000    8.000    0.000    0.000    0.000    0.000 
#    0.000    0.000    0.000    0.000    0.000    0.000 
#
# Total GULP energy -167442.897913 kJ/mol
# GULP energy per Si atom -5581.429930 kJ/mol
# Density = 1.806798 g / cm^3
# Si number density = 18.109196 Si / 1000 Ang^3
#
#
#
# Elastic Constant Matrix: (Units=GPa)
#
#
# Indices 1 2 3 4 5 6 
#
# 1 136.4893 45.3537 77.6872 0.0000 -8.6372 0.0000
# 2 45.3537 84.6234 40.9037 0.0000 -5.1552 0.0000
# 3 77.6872 40.9037 148.9774 0.0000 -11.4644 0.0000
# 4 0.0000 0.0000 0.0000 49.5154 0.0000 -41.5753
# 5 -8.6372 -5.1552 -11.4644 0.0000 18.6237 0.0000
# 6 0.0000 0.0000 0.0000 -41.5753 0.0000 101.7699
#
#
#
# Elastic Compliance Matrix: (Units=1/GPa)
#
#
# Indices 1 2 3 4 5 6 
#
# 1 0.011378 -0.003689 -0.004821 0.000000 0.001288 0.000000
# 2 -0.003689 0.014864 -0.002070 0.000000 0.001129 0.000000
# 3 -0.004821 -0.002070 0.010055 0.000000 0.003381 0.000000
# 4 0.000000 0.000000 0.000000 0.030740 0.000000 0.012558
# 5 0.001288 0.001129 0.003381 0.000000 0.056686 0.000000
# 6 0.000000 0.000000 0.000000 0.012558 0.000000 0.014956
#
#
# Mechanical properties :
#
#
# Convention : Reuss Voigt Hill
#
# Bulk Modulus (GPa) = 66.07050 77.55326 71.81188
# Shear Modulus (GPa) = 30.32396 47.72483 39.02440
#
# Velocity S-wave (km/s) = 4.09651 5.13918 4.64718
# Velocity P-wave (km/s) = 7.67717 8.83930 8.27865
#
# Compressibility (1/GPa) = 0.01513535
#
# Stress axis : x y z
#
# Youngs Moduli (GPa) = 87.88751 67.27756 99.45082
#
# Poissons Ratio (x) = 0.24820 0.47949
# Poissons Ratio (y) = 0.32423 0.20590
# Poissons Ratio (z) = 0.42374 0.13929
#
# Static dielectric constant tensor:
#      x y z
#    x 1.646010 0.000000 -0.018630 
#    y 0.000000 1.668590 0.000000 
#    z -0.018630 0.000000 1.609990 
# 
# From -- ./inp_files/218625.got.cif
#   From: 2010.05.17/outbox.cif.g08.bks.cpg/sg15_110_cif.got.tgz:218625.got - 2010.06.03 18:47:42.
