data_PCOD9264122
_publ_section_title
;
Structure prediction by ZEFSAII (Michael W. Deem and Ramdas Pophale) SiO2 
 PCOD9264122
Probable space group: C 2/C
;
_chemical_formula_sum "Si O2"
_cell_formula_units_Z 56
_cell_length_a 7.943017
_cell_length_b 17.391079
_cell_length_c 17.529621
_cell_angle_alpha 90.000000
_cell_angle_beta 62.849539
_cell_angle_gamma 90.000000
_cell_volume 2154.678319
_symmetry_space_group_name_H-M "C 2/C"
_symmetry_group_IT_number 15
_symmetry_cell_setting 'monoclinic'
loop_
_space_group_symop_operation_xyz
x,y,z
-x,y,1/2-z
-x,-y,-z
x,-y,1/2+z
1/2+x,1/2+y,z
1/2-x,1/2+y,1/2-z
1/2-x,1/2-y,-z
1/2+x,1/2-y,1/2+z
loop_
_atom_site_type_symbol
_atom_site_label
_atom_site_fract_x
_atom_site_fract_y
_atom_site_fract_z
Si Si1 0.558427 0.460766 0.160806
Si Si2 0.767707 0.879931 0.890544
Si Si3 0.690888 0.737040 0.815767
Si Si4 0.802442 0.543914 0.328664
Si Si5 0.607128 0.688359 0.991857
Si Si6 0.378494 0.068099 0.487798
Si Si7 0.732756 0.221652 0.150410
O O1 0.500000 0.418751 0.250000
O O2 0.674002 0.539467 0.159179
O O3 0.369685 0.491393 0.160965
O O4 0.699459 0.415193 0.077007
O O5 0.808876 0.806850 0.830088
O O6 0.860345 0.881516 0.955577
O O7 0.542279 0.869767 0.947263
O O8 0.473944 0.759534 0.839188
O O9 0.779108 0.723811 0.713540
O O10 0.666496 0.678486 0.891857
O O11 0.817041 0.544493 0.416715
O O12 0.774288 0.634283 0.314085
O O13 0.000000 0.519136 0.250000
O O14 0.394397 0.716877 0.052789
O O15 0.750000 0.750000 0.000000
O O16 0.500000 0.000000 0.500000
#
# Coordination Sequence:
#
# PCOD9264122 Si02
#       7
#     8   8   8   8   8   8   8
#     4  11  22  35  60  89 122 154 199 248 300 356
#     4  10  19  35  55  86 120 155 197 245 297 350
#     4  10  20  35  58  90 117 151 197 247 300 355
#     4  12  20  36  61  92 117 152 196 251 306 353
#     4  10  22  34  55  89 118 156 193 245 301 352
#     4  10  21  37  56  87 120 156 194 245 298 354
#     4  11  19  35  59  86 118 150 197 249 296 354
#
# _framework density 25.989958999999999
#
# number of rings (size 3 to 8) (size 9 to 14) (size 15 to 20)
#    0.000    1.429    4.286    3.429    0.000    1.714 
#    0.000    0.000    0.000    5.143   29.714    0.000 
#    0.000    0.000    0.000    0.000    0.000    0.000 
#
# Total GULP energy -156646.439005 kJ/mol
# GULP energy per Si atom -5594.515679 kJ/mol
# Density = 2.593080 g / cm^3
# Si number density = 25.989959 Si / 1000 Ang^3
#
#
#
# Elastic Constant Matrix: (Units=GPa)
#
#
# Indices 1 2 3 4 5 6 
#
# 1 126.1163 5.7022 59.1301 0.0000 -14.4159 0.0000
# 2 5.7022 51.3120 11.5892 0.0000 -0.4420 0.0000
# 3 59.1301 11.5892 203.1586 0.0000 5.5569 0.0000
# 4 0.0000 0.0000 0.0000 28.8787 0.0000 -8.4019
# 5 -14.4159 -0.4420 5.5569 0.0000 68.1505 0.0000
# 6 0.0000 0.0000 0.0000 -8.4019 0.0000 -1.2379
#
#
#
# Elastic Compliance Matrix: (Units=1/GPa)
#
#
# Indices 1 2 3 4 5 6 
#
# 1 0.009521 -0.000404 -0.002809 0.000000 0.002240 0.000000
# 2 -0.000404 0.019763 -0.001013 0.000000 0.000125 0.000000
# 3 -0.002809 -0.001013 0.005827 0.000000 -0.001076 0.000000
# 4 0.000000 0.000000 0.000000 0.011641 0.000000 -0.079009
# 5 0.002240 0.000125 -0.001076 0.000000 0.015236 0.000000
# 6 0.000000 0.000000 0.000000 -0.079009 0.000000 -0.271566
#
#
# Mechanical properties :
#
#
# Convention : Reuss Voigt Hill
#
# Bulk Modulus (GPa) = 37.51225 59.26998 48.39112
# Shear Modulus (GPa) = -26.00939 39.43594 6.71327
#
# Velocity S-wave (km/s) = -3.16689 3.89955 1.60892
# Velocity P-wave (km/s) = 1.04519 6.56732 4.70224
#
# Compressibility (1/GPa) = 0.02665796
#
# Stress axis : x y z
#
# Youngs Moduli (GPa) = 105.03450 50.59840 171.61097
#
# Poissons Ratio (x) = 0.02045 0.48210
# Poissons Ratio (y) = 0.04246 0.17387
# Poissons Ratio (z) = 0.29507 0.05127
#
# Static dielectric constant tensor:
#      x y z
#    x 2.036260 0.000000 -0.001380 
#    y 0.000000 2.130080 0.000000 
#    z -0.001380 0.000000 2.131520 
# 
# From -- ./inp_files/138523.got.cif
#   From: 2010.05.17/outbox.cif.g08.bks.cpg/sg15_70_cif.got.tgz:138523.got - 2010.06.03 18:47:42.
