data_PCOD9264648
_publ_section_title
;
Structure prediction by ZEFSAII (Michael W. Deem and Ramdas Pophale) SiO2 
 PCOD9264648
Probable space group: C 2/C
;
_chemical_formula_sum "Si O2"
_cell_formula_units_Z 60
_cell_length_a 15.974831
_cell_length_b 11.969566
_cell_length_c 17.927142
_cell_angle_alpha 90.000000
_cell_angle_beta 126.267243
_cell_angle_gamma 90.000000
_cell_volume 2763.785996
_symmetry_space_group_name_H-M "C 2/C"
_symmetry_group_IT_number 15
_symmetry_cell_setting 'monoclinic'
loop_
_space_group_symop_operation_xyz
x,y,z
-x,y,1/2-z
-x,-y,-z
x,-y,1/2+z
1/2+x,1/2+y,z
1/2-x,1/2+y,1/2-z
1/2-x,1/2-y,-z
1/2+x,1/2-y,1/2+z
loop_
_atom_site_type_symbol
_atom_site_label
_atom_site_fract_x
_atom_site_fract_y
_atom_site_fract_z
Si Si1 0.732133 0.138641 0.294988
Si Si2 0.265990 0.317708 0.651766
Si Si3 0.438660 0.635362 0.115591
Si Si4 0.330313 0.731280 0.610415
Si Si5 0.000000 0.047397 0.750000
Si Si6 0.907339 0.377605 0.052852
Si Si7 0.500533 0.924185 0.831698
Si Si8 0.733190 0.577990 0.588714
O O1 0.786719 0.139626 0.244987
O O2 0.738678 0.244635 0.352503
O O3 0.609724 0.130787 0.212973
O O4 0.759676 0.033844 0.361022
O O5 0.355674 0.343654 0.639143
O O6 0.159995 0.360758 0.556916
O O7 0.250656 0.184843 0.649525
O O8 0.511882 0.538560 0.186535
O O9 0.466511 0.762670 0.106497
O O10 0.374913 0.587949 0.011911
O O11 0.250000 0.750000 0.500000
O O12 0.402754 0.624640 0.670891
O O13 0.414077 0.828760 0.636159
O O14 0.977747 0.486133 0.093432
O O15 0.820769 0.407098 0.070810
O O16 0.500000 0.985090 0.750000
#
# Coordination Sequence:
#
# PCOD9264648 Si02
#       8
#     8   8   8   8   4   8   8   8
#     4  11  20  37  60  88 119 156 196 250 302 355
#     4   9  21  35  57  92 121 154 197 251 314 351
#     4   9  21  36  61  87 117 156 202 251 297 359
#     4  11  23  40  62  87 120 166 204 244 302 368
#     4  12  22  36  62  98 114 150 216 252 292 372
#     4   9  17  36  60  83 113 158 207 245 288 357
#     4  10  19  35  61  87 111 153 205 244 285 357
#     4   9  17  37  59  81 116 161 197 239 298 357
#
# _framework density 21.709351000000002
#
# number of rings (size 3 to 8) (size 9 to 14) (size 15 to 20)
#    0.000    2.133    4.667    2.400    2.800    1.600 
#    0.000    0.000    5.867    4.800    0.000    0.000 
#    0.000    0.000    0.000    0.000    0.000    0.000 
#
# Total GULP energy -167164.889915 kJ/mol
# GULP energy per Si atom -5572.162997 kJ/mol
# Density = 2.165994 g / cm^3
# Si number density = 21.709351 Si / 1000 Ang^3
#
#
#
# Elastic Constant Matrix: (Units=GPa)
#
#
# Indices 1 2 3 4 5 6 
#
# 1 37.9993 10.5774 26.5054 0.0000 -8.9549 0.0000
# 2 10.5774 87.1653 45.9499 0.0000 3.6302 0.0000
# 3 26.5054 45.9499 83.4740 0.0000 -4.2840 0.0000
# 4 0.0000 0.0000 0.0000 38.7504 0.0000 9.3917
# 5 -8.9549 3.6302 -4.2840 0.0000 32.4912 0.0000
# 6 0.0000 0.0000 0.0000 9.3917 0.0000 10.0744
#
#
#
# Elastic Compliance Matrix: (Units=1/GPa)
#
#
# Indices 1 2 3 4 5 6 
#
# 1 0.036122 0.001548 -0.011900 0.000000 0.008214 0.000000
# 2 0.001548 0.016525 -0.009726 0.000000 -0.002702 0.000000
# 3 -0.011900 -0.009726 0.021143 0.000000 0.000595 0.000000
# 4 0.000000 0.000000 0.000000 0.033339 0.000000 -0.031080
# 5 0.008214 -0.002702 0.000595 0.000000 0.033422 0.000000
# 6 0.000000 0.000000 0.000000 -0.031080 0.000000 0.128236
#
#
# Mechanical properties :
#
#
# Convention : Reuss Voigt Hill
#
# Bulk Modulus (GPa) = 29.73377 41.63378 35.68377
# Shear Modulus (GPa) = 15.61751 24.63691 20.12721
#
# Velocity S-wave (km/s) = 2.68506 3.37241 3.04817
# Velocity P-wave (km/s) = 4.83102 5.86376 5.37226
#
# Compressibility (1/GPa) = 0.03363179
#
# Stress axis : x y z
#
# Youngs Moduli (GPa) = 27.68419 60.51612 47.29688
#
# Poissons Ratio (x) = -0.09367 0.56284
# Poissons Ratio (y) = -0.04285 0.46003
# Poissons Ratio (z) = 0.32945 0.58861
#
# Static dielectric constant tensor:
#      x y z
#    x 1.845190 0.000000 0.029250 
#    y 0.000000 1.825610 0.000000 
#    z 0.029250 0.000000 1.844520 
# 
# From -- ./inp_files/210648.got.cif
#   From: 2010.05.17/outbox.cif.g08.bks.cpg/sg15_106_cif.got.tgz:210648.got - 2010.06.03 18:47:42.
