data_PCOD9264288
_publ_section_title
;
Structure prediction by ZEFSAII (Michael W. Deem and Ramdas Pophale) SiO2 
 PCOD9264288
Probable space group: C 2/C
;
_chemical_formula_sum "Si O2"
_cell_formula_units_Z 60
_cell_length_a 27.229541
_cell_length_b 5.516845
_cell_length_c 22.937502
_cell_angle_alpha 90.000000
_cell_angle_beta 71.728489
_cell_angle_gamma 90.000000
_cell_volume 3271.971113
_symmetry_space_group_name_H-M "C 2/C"
_symmetry_group_IT_number 15
_symmetry_cell_setting 'monoclinic'
loop_
_space_group_symop_operation_xyz
x,y,z
-x,y,1/2-z
-x,-y,-z
x,-y,1/2+z
1/2+x,1/2+y,z
1/2-x,1/2+y,1/2-z
1/2-x,1/2-y,-z
1/2+x,1/2-y,1/2+z
loop_
_atom_site_type_symbol
_atom_site_label
_atom_site_fract_x
_atom_site_fract_y
_atom_site_fract_z
Si Si1 0.441010 0.756164 0.981216
Si Si2 0.418443 0.805399 0.856225
Si Si3 0.089017 0.685285 0.732741
Si Si4 0.265202 0.899146 0.211379
Si Si5 0.500000 0.459401 0.250000
Si Si6 0.871846 0.363312 0.685876
Si Si7 0.935588 0.240710 0.551351
Si Si8 0.831867 0.940641 0.308957
O O1 0.418351 0.782103 0.924920
O O2 0.503603 0.742343 0.954789
O O3 0.425109 0.502761 0.017794
O O4 0.427097 0.002392 0.021366
O O5 0.470105 0.684893 0.810803
O O6 0.367806 0.684191 0.844560
O O7 0.422002 0.069854 0.826037
O O8 0.045987 0.884171 0.760249
O O9 0.088447 0.505398 0.787080
O O10 0.146865 0.788263 0.704803
O O11 0.243812 0.133038 0.256836
O O12 0.325582 0.960780 0.181666
O O13 0.229526 0.911043 0.166557
O O14 0.900434 0.241817 0.621760
O O15 0.847174 0.179017 0.741390
#
# Coordination Sequence:
#
# PCOD9264288 Si02
#       8
#     8   8   8   8   4   8   8   8
#     4  10  24  41  56  79 114 155 199 237 275 335
#     4  10  22  36  54  83 112 156 185 241 290 346
#     4  10  20  33  53  86 113 151 179 235 288 351
#     4  10  19  35  57  87 121 149 180 236 301 350
#     4  10  22  30  52  86 116 142 190 228 298 346
#     4  10  21  35  60  84 118 147 192 239 284 354
#     4  10  24  39  58  81 109 159 199 233 279 330
#     4   9  20  35  55  89 115 145 184 234 302 347
#
# _framework density 18.337569999999999
#
# number of rings (size 3 to 8) (size 9 to 14) (size 15 to 20)
#    0.000    2.133    1.333    0.400   13.067    1.067 
#    0.000    0.000    0.000    1.600    0.000    0.000 
#    0.000    0.000    0.000    0.000    0.000    0.000 
#
# Total GULP energy -167139.669916 kJ/mol
# GULP energy per Si atom -5571.322331 kJ/mol
# Density = 1.829583 g / cm^3
# Si number density = 18.337570 Si / 1000 Ang^3
#
#
#
# Elastic Constant Matrix: (Units=GPa)
#
#
# Indices 1 2 3 4 5 6 
#
# 1 48.0151 12.2291 24.9409 0.0000 19.4360 0.0001
# 2 12.2291 78.5000 21.2573 -0.0016 10.9383 -0.0009
# 3 24.9409 21.2573 85.7572 0.0001 22.0127 0.0000
# 4 0.0000 -0.0016 0.0001 -16.4488 -0.0001 -10.3775
# 5 19.4360 10.9383 22.0127 -0.0001 23.2354 0.0000
# 6 0.0001 -0.0009 0.0000 -10.3775 0.0000 19.5657
#
#
#
# Elastic Compliance Matrix: (Units=1/GPa)
#
#
# Indices 1 2 3 4 5 6 
#
# 1 0.032211 -0.000893 -0.003090 0.000000 -0.023596 0.000000
# 2 -0.000893 0.014007 -0.002261 -0.000001 -0.003704 0.000000
# 3 -0.003090 -0.002261 0.016098 0.000000 -0.011602 0.000000
# 4 0.000000 -0.000001 0.000000 -0.045552 0.000000 -0.024160
# 5 -0.023596 -0.003704 -0.011602 0.000000 0.075511 0.000000
# 6 0.000000 0.000000 0.000000 -0.024160 0.000000 0.038295
#
#
# Mechanical properties :
#
#
# Convention : Reuss Voigt Hill
#
# Bulk Modulus (GPa) = 20.06959 36.56965 28.31962
# Shear Modulus (GPa) = 31.31524 15.52679 23.42101
#
# Velocity S-wave (km/s) = 4.13693 2.91300 3.57769
# Velocity P-wave (km/s) = 5.81267 5.59463 5.70469
#
# Compressibility (1/GPa) = 0.04982662
#
# Stress axis : x y z
#
# Youngs Moduli (GPa) = 31.04564 71.39534 62.11957
#
# Poissons Ratio (x) = 0.06378 0.19193
# Poissons Ratio (y) = 0.02773 0.14047
# Poissons Ratio (z) = 0.09592 0.16145
#
# Static dielectric constant tensor:
#      x y z
#    x 1.670590 0.000000 0.015130 
#    y 0.000000 1.711800 0.000000 
#    z 0.015130 0.000000 1.586180 
# 
# From -- ./inp_files/223860.got.cif
#   From: 2010.05.17/outbox.cif.g08.bks.cpg/sg15_112_cif.got.tgz:223860.got - 2010.06.03 18:47:42.
