data_PCOD9264906
_publ_section_title
;
Structure prediction by ZEFSAII (Michael W. Deem and Ramdas Pophale) SiO2 
 PCOD9264906
Probable space group: C 2/C
;
_chemical_formula_sum "Si O2"
_cell_formula_units_Z 64
_cell_length_a 17.878726
_cell_length_b 26.999610
_cell_length_c 13.742449
_cell_angle_alpha 90.000000
_cell_angle_beta 33.065733
_cell_angle_gamma 90.000000
_cell_volume 3619.372061
_symmetry_space_group_name_H-M "C 2/C"
_symmetry_group_IT_number 15
_symmetry_cell_setting 'monoclinic'
loop_
_space_group_symop_operation_xyz
x,y,z
-x,y,1/2-z
-x,-y,-z
x,-y,1/2+z
1/2+x,1/2+y,z
1/2-x,1/2+y,1/2-z
1/2-x,1/2-y,-z
1/2+x,1/2-y,1/2+z
loop_
_atom_site_type_symbol
_atom_site_label
_atom_site_fract_x
_atom_site_fract_y
_atom_site_fract_z
Si Si1 0.105040 0.203856 0.222226
Si Si2 0.282950 0.899862 0.268426
Si Si3 0.544977 0.392119 0.895793
Si Si4 0.382299 0.815848 0.304378
Si Si5 0.543582 0.437803 0.102671
Si Si6 0.929512 0.440477 0.921982
Si Si7 0.298598 0.513125 0.321370
Si Si8 0.806987 0.507575 0.285899
O O1 0.082406 0.163603 0.329289
O O2 0.081309 0.261060 0.275968
O O3 0.000000 0.192353 0.250000
O O4 0.252941 0.194796 0.014569
O O5 0.342815 0.853286 0.261542
O O6 0.117224 0.899381 0.447226
O O7 0.325001 0.949343 0.281299
O O8 0.341514 0.907361 0.094046
O O9 0.638749 0.431771 0.732937
O O10 0.568764 0.403183 0.983432
O O11 0.500000 0.833882 0.250000
O O12 0.500000 0.411963 0.250000
O O13 0.427324 0.476606 0.195186
O O14 0.678513 0.469077 0.981412
O O15 0.000000 0.416371 0.750000
O O16 0.054132 0.463228 0.848056
O O17 0.833726 0.485994 0.987545
O O18 0.246748 0.512359 0.266346
#
# Coordination Sequence:
#
# PCOD9264906 Si02
#       8
#     8   8   8   8   8   8   8   8
#     4  10  21  39  60  88 113 142 185 237 295 348
#     4  11  20  38  60  80 112 155 192 226 280 344
#     4  11  20  36  61  84 108 151 196 229 276 339
#     4  10  23  39  59  87 116 140 184 243 295 340
#     4  11  20  33  54  84 117 152 186 231 270 325
#     4  11  23  36  53  83 122 158 186 227 278 330
#     4  10  19  36  52  79 114 150 191 232 263 323
#     4  10  20  34  51  78 117 149 190 228 270 317
#
# _framework density 17.682625000000002
#
# number of rings (size 3 to 8) (size 9 to 14) (size 15 to 20)
#    0.000    1.500    5.000    3.000    0.000    6.000 
#    0.000    0.000    0.000    0.750    0.000    1.750 
#    0.000    0.000    0.000    0.000    0.000    0.000 
#
# Total GULP energy -178357.825661 kJ/mol
# GULP energy per Si atom -5573.682052 kJ/mol
# Density = 1.764238 g / cm^3
# Si number density = 17.682625 Si / 1000 Ang^3
#
#
#
# Elastic Constant Matrix: (Units=GPa)
#
#
# Indices 1 2 3 4 5 6 
#
# 1 83.7760 34.9680 22.0266 0.0128 -11.7787 -0.0017
# 2 34.9680 84.8413 13.6850 -0.0007 12.0245 0.0024
# 3 22.0266 13.6850 70.3864 0.0094 -10.8354 -0.0044
# 4 0.0128 -0.0007 0.0094 16.6150 -0.0167 -2.7783
# 5 -11.7787 12.0245 -10.8354 -0.0167 34.1509 0.0058
# 6 -0.0017 0.0024 -0.0044 -2.7783 0.0058 25.0453
#
#
#
# Elastic Compliance Matrix: (Units=1/GPa)
#
#
# Indices 1 2 3 4 5 6 
#
# 1 0.016888 -0.007626 -0.002620 -0.000004 0.007679 -0.000001
# 2 -0.007626 0.016596 -0.002255 -0.000001 -0.009189 0.000000
# 3 -0.002620 -0.002255 0.016242 -0.000002 0.005043 0.000001
# 4 -0.000004 -0.000001 -0.000002 0.061324 0.000027 0.006803
# 5 0.007679 -0.009189 0.005043 0.000027 0.036766 -0.000003
# 6 -0.000001 0.000000 0.000001 0.006803 -0.000003 0.040682
#
#
# Mechanical properties :
#
#
# Convention : Reuss Voigt Hill
#
# Bulk Modulus (GPa) = 40.44667 42.26255 41.35461
# Shear Modulus (GPa) = 22.54871 26.38386 24.46629
#
# Velocity S-wave (km/s) = 3.57485 3.86693 3.72376
# Velocity P-wave (km/s) = 6.32161 6.62496 6.47506
#
# Compressibility (1/GPa) = 0.02472391
#
# Stress axis : x y z
#
# Youngs Moduli (GPa) = 59.21254 60.25545 61.56872
#
# Poissons Ratio (x) = 0.45953 0.16132
# Poissons Ratio (y) = 0.45157 0.13882
# Poissons Ratio (z) = 0.15515 0.13586
#
# Static dielectric constant tensor:
#      x y z
#    x 1.624260 0.000000 0.028260 
#    y 0.000000 1.604920 0.000000 
#    z 0.028260 0.000000 1.667610 
# 
# From -- ./inp_files/164233.got.cif
#   From: 2010.05.17/outbox.cif.g08.bks.cpg/sg15_83_cif.got.tgz:164233.got - 2010.06.03 18:47:42.
