data_PCOD9264299
_publ_section_title
;
Structure prediction by ZEFSAII (Michael W. Deem and Ramdas Pophale) SiO2 
 PCOD9264299
Probable space group: C 2/C
;
_chemical_formula_sum "Si O2"
_cell_formula_units_Z 44
_cell_length_a 9.840819
_cell_length_b 27.252967
_cell_length_c 7.666169
_cell_angle_alpha 90.000000
_cell_angle_beta 70.882289
_cell_angle_gamma 90.000000
_cell_volume 1942.608310
_symmetry_space_group_name_H-M "C 2/C"
_symmetry_group_IT_number 15
_symmetry_cell_setting 'monoclinic'
loop_
_space_group_symop_operation_xyz
x,y,z
-x,y,1/2-z
-x,-y,-z
x,-y,1/2+z
1/2+x,1/2+y,z
1/2-x,1/2+y,1/2-z
1/2-x,1/2-y,-z
1/2+x,1/2-y,1/2+z
loop_
_atom_site_type_symbol
_atom_site_label
_atom_site_fract_x
_atom_site_fract_y
_atom_site_fract_z
Si Si1 0.332487 0.565773 0.283447
Si Si2 0.500000 0.291189 0.250000
Si Si3 0.157144 0.346512 0.776172
Si Si4 0.998379 0.276489 0.062442
Si Si5 0.742400 0.146239 0.856251
Si Si6 0.666486 0.456871 0.122484
O O1 0.500000 0.577376 0.250000
O O2 0.221785 0.609558 0.363534
O O3 0.288977 0.513408 0.381508
O O4 0.325750 0.555665 0.081786
O O5 0.440074 0.256842 0.429648
O O6 0.620898 0.326167 0.279871
O O7 0.253740 0.343891 0.561672
O O8 0.000000 0.356325 0.750000
O O9 0.139330 0.299398 0.908326
O O10 0.000000 0.251046 0.250000
O O11 0.897578 0.323849 0.138707
O O12 0.749475 0.088011 0.820633
O O13 0.500000 0.454660 0.250000
#
# Coordination Sequence:
#
# PCOD9264299 Si02
#       6
#     8   4   8   8   8   8
#     4  10  20  34  61  88 126 159 207 256 303 366
#     4  12  22  44  66  84 128 162 210 266 312 360
#     4   9  20  43  61  87 129 167 201 252 319 374
#     4  11  24  40  65  90 123 164 207 257 316 377
#     4  10  21  41  64  85 122 169 203 255 318 364
#     4  10  19  35  57  90 122 163 201 252 311 362
#
# _framework density 22.649961000000001
#
# number of rings (size 3 to 8) (size 9 to 14) (size 15 to 20)
#    0.000    1.818    3.636    2.727    0.000    3.636 
#    0.000   10.000    0.000    0.000    0.000    0.000 
#    0.000    0.000    0.000    0.000    0.000    0.000 
#
# Total GULP energy -122660.025420 kJ/mol
# GULP energy per Si atom -5575.455701 kJ/mol
# Density = 2.259841 g / cm^3
# Si number density = 22.649961 Si / 1000 Ang^3
#
#
#
# Elastic Constant Matrix: (Units=GPa)
#
#
# Indices 1 2 3 4 5 6 
#
# 1 39.3577 29.7400 1.7820 0.0000 6.8112 0.0000
# 2 29.7400 86.6252 -0.5654 0.0000 0.3050 0.0000
# 3 1.7820 -0.5654 47.2613 0.0000 12.1678 0.0000
# 4 0.0000 0.0000 0.0000 13.9535 0.0000 -9.9644
# 5 6.8112 0.3050 12.1678 0.0000 26.4883 0.0000
# 6 0.0000 0.0000 0.0000 -9.9644 0.0000 14.0280
#
#
#
# Elastic Compliance Matrix: (Units=1/GPa)
#
#
# Indices 1 2 3 4 5 6 
#
# 1 0.036470 -0.012480 0.000967 0.000000 -0.009679 0.000000
# 2 -0.012480 0.015817 -0.000136 0.000000 0.003089 0.000000
# 3 0.000967 -0.000136 0.024026 0.000000 -0.011284 0.000000
# 4 0.000000 0.000000 0.000000 0.145443 0.000000 0.103312
# 5 -0.009679 0.003089 -0.011284 0.000000 0.045389 0.000000
# 6 0.000000 0.000000 0.000000 0.103312 0.000000 0.144671
#
#
# Mechanical properties :
#
#
# Convention : Reuss Voigt Hill
#
# Bulk Modulus (GPa) = 18.86237 26.12860 22.49549
# Shear Modulus (GPa) = 11.04279 20.37979 15.71129
#
# Velocity S-wave (km/s) = 2.21043 3.00287 2.63659
# Velocity P-wave (km/s) = 3.85493 4.85632 4.38431
#
# Compressibility (1/GPa) = 0.05301562
#
# Stress axis : x y z
#
# Youngs Moduli (GPa) = 27.42001 63.22336 41.62162
#
# Poissons Ratio (x) = 0.78905 -0.04026
# Poissons Ratio (y) = 0.34221 0.00564
# Poissons Ratio (z) = -0.02653 0.00857
#
# Static dielectric constant tensor:
#      x y z
#    x 1.748030 0.000000 0.171380 
#    y 0.000000 1.948370 0.000000 
#    z 0.171380 0.000000 1.706750 
# 
# From -- ./inp_files/25466.got.cif
#   From: 2010.05.17/outbox.cif.g08.bks.cpg/sg15_13_cif.got.tgz:25466.got - 2010.06.03 18:47:42.
