data_PCOD9264333
_publ_section_title
;
Structure prediction by ZEFSAII (Michael W. Deem and Ramdas Pophale) SiO2 
 PCOD9264333
Probable space group: C 2/C
;
_chemical_formula_sum "Si O2"
_cell_formula_units_Z 64
_cell_length_a 24.517028
_cell_length_b 13.319458
_cell_length_c 11.961987
_cell_angle_alpha 90.000000
_cell_angle_beta 118.973288
_cell_angle_gamma 90.000000
_cell_volume 3417.347411
_symmetry_space_group_name_H-M "C 2/C"
_symmetry_group_IT_number 15
_symmetry_cell_setting 'monoclinic'
loop_
_space_group_symop_operation_xyz
x,y,z
-x,y,1/2-z
-x,-y,-z
x,-y,1/2+z
1/2+x,1/2+y,z
1/2-x,1/2+y,1/2-z
1/2-x,1/2-y,-z
1/2+x,1/2-y,1/2+z
loop_
_atom_site_type_symbol
_atom_site_label
_atom_site_fract_x
_atom_site_fract_y
_atom_site_fract_z
Si Si1 0.968280 0.502289 0.092087
Si Si2 0.686911 0.383512 0.301003
Si Si3 0.069900 0.702070 0.367135
Si Si4 0.734511 0.976567 0.485579
Si Si5 0.572673 0.579119 0.857609
Si Si6 0.365313 0.839801 0.000313
Si Si7 0.821565 0.338461 0.701117
Si Si8 0.356308 0.389374 0.495067
O O1 0.928867 0.606215 0.051589
O O2 0.000000 0.506174 0.250000
O O3 0.928072 0.402496 0.058021
O O4 0.000000 0.500000 0.000000
O O5 0.741320 0.460738 0.383831
O O6 0.624457 0.408086 0.310714
O O7 0.710422 0.270174 0.348034
O O8 0.665332 0.389350 0.153648
O O9 0.082429 0.813009 0.429224
O O10 0.115571 0.674774 0.310022
O O11 0.000000 0.711454 0.250000
O O12 0.680597 0.899056 0.462187
O O13 0.794939 0.918095 0.503267
O O14 0.713486 0.063308 0.378066
O O15 0.500000 0.571936 0.750000
O O16 0.592948 0.476825 0.937772
O O17 0.336561 0.845278 0.846901
O O18 0.375997 0.724054 0.042500
#
# Coordination Sequence:
#
# PCOD9264333 Si02
#       8
#     8   8   8   8   8   8   8   8
#     4  11  23  40  62  88 124 154 200 253 304 364
#     4   9  20  36  56  84 112 149 194 245 287 343
#     4   9  17  35  58  85 111 145 195 247 288 341
#     4  11  20  36  57  80 113 150 199 238 286 352
#     4   9  19  36  61  83 110 148 195 238 286 349
#     4  11  22  36  58  83 116 157 187 238 308 360
#     4  10  19  35  58  82 112 151 196 243 293 348
#     4  10  22  38  54  82 121 152 188 237 298 354
#
# _framework density 18.727975000000001
#
# number of rings (size 3 to 8) (size 9 to 14) (size 15 to 20)
#    0.000    2.000    1.250    3.000    0.000    2.000 
#    0.000    2.500    0.000    0.000    0.000    0.000 
#    0.000    0.000    0.000    0.000    0.000    0.000 
#
# Total GULP energy -178137.752966 kJ/mol
# GULP energy per Si atom -5566.804780 kJ/mol
# Density = 1.868535 g / cm^3
# Si number density = 18.727975 Si / 1000 Ang^3
#
#
#
# Elastic Constant Matrix: (Units=GPa)
#
#
# Indices 1 2 3 4 5 6 
#
# 1 36.6042 35.7990 0.0356 0.0000 -3.6741 0.0000
# 2 35.7990 189.2307 42.8308 0.0000 -2.1040 0.0000
# 3 0.0356 42.8308 52.2431 0.0000 -5.8493 0.0000
# 4 0.0000 0.0000 0.0000 48.9296 0.0000 -25.3335
# 5 -3.6741 -2.1040 -5.8493 0.0000 19.3539 0.0000
# 6 0.0000 0.0000 0.0000 -25.3335 0.0000 60.7005
#
#
#
# Elastic Compliance Matrix: (Units=1/GPa)
#
#
# Indices 1 2 3 4 5 6 
#
# 1 0.036612 -0.008645 0.008006 0.000000 0.008430 0.000000
# 2 -0.008645 0.008546 -0.007328 0.000000 -0.002927 0.000000
# 3 0.008006 -0.007328 0.026108 0.000000 0.008614 0.000000
# 4 0.000000 0.000000 0.000000 0.026071 0.000000 0.010881
# 5 0.008430 -0.002927 0.008614 0.000000 0.055555 0.000000
# 6 0.000000 0.000000 0.000000 0.010881 0.000000 0.021016
#
#
# Mechanical properties :
#
#
# Convention : Reuss Voigt Hill
#
# Bulk Modulus (GPa) = 18.07235 48.37878 33.22556
# Shear Modulus (GPa) = 24.00544 39.09096 31.54820
#
# Velocity S-wave (km/s) = 3.58410 4.57366 4.10878
# Velocity P-wave (km/s) = 5.17674 7.33346 6.34737
#
# Compressibility (1/GPa) = 0.05533315
#
# Stress axis : x y z
#
# Youngs Moduli (GPa) = 27.31321 117.01181 38.30210
#
# Poissons Ratio (x) = 1.01155 -0.30666
# Poissons Ratio (y) = 0.23612 0.28069
# Poissons Ratio (z) = -0.21868 0.85749
#
# Static dielectric constant tensor:
#      x y z
#    x 1.658750 0.000000 0.002730 
#    y 0.000000 1.694650 0.000000 
#    z 0.002730 0.000000 1.661360 
# 
# From -- ./inp_files/118035.got.cif
#   From: 2010.05.17/outbox.cif.g08.bks.cpg/sg15_60_cif.got.tgz:118035.got - 2010.06.03 18:47:42.
