data_PCOD9264183
_publ_section_title
;
Structure prediction by ZEFSAII (Michael W. Deem and Ramdas Pophale) SiO2 
 PCOD9264183
Probable space group: C 2/C
;
_chemical_formula_sum "Si O2"
_cell_formula_units_Z 52
_cell_length_a 9.695916
_cell_length_b 22.662132
_cell_length_c 13.038680
_cell_angle_alpha 90.000000
_cell_angle_beta 129.263512
_cell_angle_gamma 90.000000
_cell_volume 2218.200276
_symmetry_space_group_name_H-M "C 2/C"
_symmetry_group_IT_number 15
_symmetry_cell_setting 'monoclinic'
loop_
_space_group_symop_operation_xyz
x,y,z
-x,y,1/2-z
-x,-y,-z
x,-y,1/2+z
1/2+x,1/2+y,z
1/2-x,1/2+y,1/2-z
1/2-x,1/2-y,-z
1/2+x,1/2-y,1/2+z
loop_
_atom_site_type_symbol
_atom_site_label
_atom_site_fract_x
_atom_site_fract_y
_atom_site_fract_z
Si Si1 0.616545 0.342173 0.406434
Si Si2 0.500000 0.407601 0.750000
Si Si3 0.293363 0.848031 0.775065
Si Si4 0.134290 0.564472 0.971687
Si Si5 0.125834 0.693915 0.956700
Si Si6 0.906490 0.435815 0.567365
Si Si7 0.148790 0.755999 0.579348
O O1 0.500000 0.352359 0.250000
O O2 0.721684 0.400321 0.491409
O O3 0.773653 0.297521 0.447967
O O4 0.530082 0.302207 0.456379
O O5 0.590471 0.368878 0.702170
O O6 0.325494 0.439627 0.622144
O O7 0.421402 0.901819 0.808542
O O8 0.299966 0.798697 0.693138
O O9 0.352427 0.822140 0.912165
O O10 0.140485 0.628109 0.917721
O O11 0.114949 0.502644 0.905903
O O12 0.968368 0.564558 0.974880
O O13 0.934731 0.724632 0.860300
O O14 0.250000 0.750000 0.000000
#
# Coordination Sequence:
#
# PCOD9264183 Si02
#       7
#     8   4   8   8   8   8   8
#     4  11  23  35  55  86 114 150 194 244 287 342
#     4   8  16  30  56  88 102 148 188 234 276 348
#     4  10  19  35  56  86 114 152 190 234 296 346
#     4   9  17  33  56  84 115 148 195 233 287 342
#     4  10  19  35  59  89 116 147 192 243 286 341
#     4   9  19  36  53  84 114 151 192 237 280 349
#     4  11  21  36  57  84 117 152 190 239 297 344
#
# _framework density 23.442429000000001
#
# number of rings (size 3 to 8) (size 9 to 14) (size 15 to 20)
#    0.000    2.462    3.077    2.769    3.231    0.000 
#    0.000    0.000    0.000    7.385    8.000    0.000 
#    0.000    0.000    0.000    0.000    0.000    0.000 
#
# Total GULP energy -144751.205294 kJ/mol
# GULP energy per Si atom -5567.354050 kJ/mol
# Density = 2.338907 g / cm^3
# Si number density = 23.442429 Si / 1000 Ang^3
#
#
#
# Elastic Constant Matrix: (Units=GPa)
#
#
# Indices 1 2 3 4 5 6 
#
# 1 49.1700 33.3214 3.3692 0.0000 14.1987 0.0000
# 2 33.3214 222.3747 34.9495 0.0000 10.2441 0.0000
# 3 3.3692 34.9495 75.7219 0.0000 5.5738 0.0000
# 4 0.0000 0.0000 0.0000 30.4705 0.0000 7.1208
# 5 14.1987 10.2441 5.5738 0.0000 24.6257 0.0000
# 6 0.0000 0.0000 0.0000 7.1208 0.0000 25.9088
#
#
#
# Elastic Compliance Matrix: (Units=1/GPa)
#
#
# Indices 1 2 3 4 5 6 
#
# 1 0.026800 -0.003596 0.001520 0.000000 -0.014300 0.000000
# 2 -0.003596 0.005389 -0.002354 0.000000 0.000364 0.000000
# 3 0.001520 -0.002354 0.014458 0.000000 -0.003170 0.000000
# 4 0.000000 0.000000 0.000000 0.035071 0.000000 -0.009639
# 5 -0.014300 0.000364 -0.003170 0.000000 0.049419 0.000000
# 6 0.000000 0.000000 0.000000 -0.009639 0.000000 0.041246
#
#
# Mechanical properties :
#
#
# Convention : Reuss Voigt Hill
#
# Bulk Modulus (GPa) = 26.46408 54.50517 40.48463
# Shear Modulus (GPa) = 25.79450 34.57608 30.18529
#
# Velocity S-wave (km/s) = 3.32073 3.84466 3.59226
# Velocity P-wave (km/s) = 5.10063 6.55817 5.87478
#
# Compressibility (1/GPa) = 0.03778707
#
# Stress axis : x y z
#
# Youngs Moduli (GPa) = 37.31366 185.56565 69.16373
#
# Poissons Ratio (x) = 0.66727 -0.10512
# Poissons Ratio (y) = 0.13418 0.16282
# Poissons Ratio (z) = -0.05671 0.43684
#
# Static dielectric constant tensor:
#      x y z
#    x 2.067390 0.000000 -0.031960 
#    y 0.000000 1.951280 0.000000 
#    z -0.031960 0.000000 1.949880 
# 
# From -- ./inp_files/200433.got.cif
#   From: 2010.05.17/outbox.cif.g08.bks.cpg/sg15_101_cif.got.tgz:200433.got - 2010.06.03 18:47:42.
