data_PCOD9264442
_publ_section_title
;
Structure prediction by ZEFSAII (Michael W. Deem and Ramdas Pophale) SiO2 
 PCOD9264442
Probable space group: C 2/C
;
_chemical_formula_sum "Si O2"
_cell_formula_units_Z 52
_cell_length_a 17.352952
_cell_length_b 14.995884
_cell_length_c 16.845781
_cell_angle_alpha 90.000000
_cell_angle_beta 148.420006
_cell_angle_gamma 90.000000
_cell_volume 2295.670775
_symmetry_space_group_name_H-M "C 2/C"
_symmetry_group_IT_number 15
_symmetry_cell_setting 'monoclinic'
loop_
_space_group_symop_operation_xyz
x,y,z
-x,y,1/2-z
-x,-y,-z
x,-y,1/2+z
1/2+x,1/2+y,z
1/2-x,1/2+y,1/2-z
1/2-x,1/2-y,-z
1/2+x,1/2-y,1/2+z
loop_
_atom_site_type_symbol
_atom_site_label
_atom_site_fract_x
_atom_site_fract_y
_atom_site_fract_z
Si Si1 0.820498 0.288411 0.440918
Si Si2 0.500000 0.544377 0.250000
Si Si3 0.201550 0.449980 0.966028
Si Si4 0.309667 0.591758 0.811952
Si Si5 0.595319 0.605723 0.166224
Si Si6 0.642053 0.172719 0.192627
Si Si7 0.055942 0.509118 0.673540
O O1 0.817930 0.349632 0.517194
O O2 0.731912 0.347207 0.298562
O O3 0.733437 0.196196 0.353325
O O4 0.989103 0.274572 0.563854
O O5 0.631600 0.479810 0.391756
O O6 0.554151 0.601059 0.222322
O O7 0.129085 0.473449 0.818916
O O8 0.114776 0.513625 0.953970
O O9 0.354812 0.493726 0.818911
O O10 0.159487 0.585727 0.731685
O O11 0.445274 0.623209 0.985282
O O12 0.729486 0.672006 0.260742
O O13 0.576349 0.073048 0.131852
#
# Coordination Sequence:
#
# PCOD9264442 Si02
#       7
#     8   4   8   8   8   8   8
#     4  11  22  38  60  84 118 157 199 243 289 350
#     4  12  20  34  58  90 116 150 186 252 280 352
#     4  10  21  34  56  87 117 149 193 238 300 343
#     4  10  19  35  59  83 114 154 194 248 288 341
#     4  10  21  35  57  87 118 149 197 241 293 347
#     4  10  23  37  58  83 118 160 200 238 290 351
#     4   9  20  38  55  83 121 151 194 243 292 353
#
# _framework density 22.651332
#
# number of rings (size 3 to 8) (size 9 to 14) (size 15 to 20)
#    0.000    1.846    3.077    0.923    2.154    3.692 
#    0.000    1.538    0.000    5.538    0.000    0.000 
#    0.000    0.000    0.000    0.000    0.000    0.000 
#
# Total GULP energy -145011.238555 kJ/mol
# GULP energy per Si atom -5577.355329 kJ/mol
# Density = 2.259978 g / cm^3
# Si number density = 22.651332 Si / 1000 Ang^3
#
#
#
# Elastic Constant Matrix: (Units=GPa)
#
#
# Indices 1 2 3 4 5 6 
#
# 1 92.7641 12.0210 19.1331 0.0007 -1.3475 0.0007
# 2 12.0210 26.4289 3.5250 0.0001 3.8536 0.0002
# 3 19.1331 3.5250 113.0901 0.0006 26.4241 0.0012
# 4 0.0007 0.0001 0.0006 22.8690 0.0001 -2.5151
# 5 -1.3475 3.8536 26.4241 0.0001 41.8998 0.0002
# 6 0.0007 0.0002 0.0012 -2.5151 0.0002 24.5353
#
#
#
# Elastic Compliance Matrix: (Units=1/GPa)
#
#
# Indices 1 2 3 4 5 6 
#
# 1 0.012029 -0.005501 -0.002430 0.000000 0.002426 0.000000
# 2 -0.005501 0.040886 0.000676 0.000000 -0.004363 0.000000
# 3 -0.002430 0.000676 0.010867 0.000000 -0.006993 0.000000
# 4 0.000000 0.000000 0.000000 0.044226 0.000000 0.004534
# 5 0.002426 -0.004363 -0.006993 0.000000 0.028756 0.000000
# 6 0.000000 0.000000 0.000000 0.004534 0.000000 0.041222
#
#
# Mechanical properties :
#
#
# Convention : Reuss Voigt Hill
#
# Bulk Modulus (GPa) = 20.29619 33.51571 26.90595
# Shear Modulus (GPa) = 23.93251 31.03441 27.48346
#
# Velocity S-wave (km/s) = 3.25400 3.70549 3.48706
# Velocity P-wave (km/s) = 4.80601 5.75639 5.30254
#
# Compressibility (1/GPa) = 0.04927033
#
# Stress axis : x y z
#
# Youngs Moduli (GPa) = 83.12956 24.45854 92.02443
#
# Poissons Ratio (x) = 0.13455 0.22366
# Poissons Ratio (y) = 0.45729 -0.06219
# Poissons Ratio (z) = 0.20204 -0.01653
#
# Static dielectric constant tensor:
#      x y z
#    x 1.874280 0.000000 0.001430 
#    y 0.000000 1.946690 0.000000 
#    z 0.001430 0.000000 1.864770 
# 
# From -- ./inp_files/62666.got.cif
#   From: 2010.05.17/outbox.cif.g08.bks.cpg/sg15_32_cif.got.tgz:62666.got - 2010.06.03 18:47:42.
