data_PCOD9264975
_publ_section_title
;
Structure prediction by ZEFSAII (Michael W. Deem and Ramdas Pophale) SiO2 
 PCOD9264975
Probable space group: C 2/C
;
_chemical_formula_sum "Si O2"
_cell_formula_units_Z 52
_cell_length_a 22.001599
_cell_length_b 9.763740
_cell_length_c 12.416114
_cell_angle_alpha 90.000000
_cell_angle_beta 77.119910
_cell_angle_gamma 90.000000
_cell_volume 2600.093170
_symmetry_space_group_name_H-M "C 2/C"
_symmetry_group_IT_number 15
_symmetry_cell_setting 'monoclinic'
loop_
_space_group_symop_operation_xyz
x,y,z
-x,y,1/2-z
-x,-y,-z
x,-y,1/2+z
1/2+x,1/2+y,z
1/2-x,1/2+y,1/2-z
1/2-x,1/2-y,-z
1/2+x,1/2-y,1/2+z
loop_
_atom_site_type_symbol
_atom_site_label
_atom_site_fract_x
_atom_site_fract_y
_atom_site_fract_z
Si Si1 0.399420 0.709500 0.953380
Si Si2 0.337129 0.084538 0.636397
Si Si3 0.304576 0.229198 0.862303
Si Si4 0.838563 0.293480 0.575983
Si Si5 0.596429 0.465074 0.379803
Si Si6 0.307971 0.539398 0.843862
Si Si7 0.500000 0.355711 0.250000
O O1 0.344090 0.649825 0.900484
O O2 0.456221 0.728884 0.848315
O O3 0.377072 0.839177 0.030077
O O4 0.414288 0.587756 0.033136
O O5 0.339287 0.171993 0.744984
O O6 0.263962 0.078480 0.634220
O O7 0.353803 0.924644 0.643005
O O8 0.230053 0.230591 0.870347
O O9 0.316362 0.387636 0.888448
O O10 0.327114 0.151062 0.959525
O O11 0.891549 0.179511 0.565641
O O12 0.659751 0.481297 0.285071
O O13 0.543148 0.447510 0.311063
#
# Coordination Sequence:
#
# PCOD9264975 Si02
#       7
#     8   8   8   8   8   8   4
#     4  11  22  40  62  86 119 163 211 259 302 352
#     4  11  22  35  61  96 128 157 198 242 313 384
#     4  10  19  36  55  91 129 162 190 235 301 380
#     4  10  22  36  59  89 129 162 191 243 306 375
#     4  11  20  40  63  85 120 160 207 259 305 351
#     4  10  20  34  60  92 124 158 195 242 310 372
#     4  10  26  40  62  88 114 158 228 266 294 342
#
# _framework density 19.999283999999999
#
# number of rings (size 3 to 8) (size 9 to 14) (size 15 to 20)
#    0.000    1.538    4.615    0.923    0.000    2.462 
#    0.000    0.769    0.000    1.846    0.000    0.000 
#    0.000    0.000    0.000    0.000    0.000    0.000 
#
# Total GULP energy -145015.134539 kJ/mol
# GULP energy per Si atom -5577.505175 kJ/mol
# Density = 1.995376 g / cm^3
# Si number density = 19.999284 Si / 1000 Ang^3
#
#
#
# Elastic Constant Matrix: (Units=GPa)
#
#
# Indices 1 2 3 4 5 6 
#
# 1 57.8241 26.1561 25.1502 0.0000 -13.9234 0.0000
# 2 26.1561 63.2831 25.6642 0.0000 6.7910 0.0000
# 3 25.1502 25.6642 108.5943 0.0000 -24.4065 0.0000
# 4 0.0000 0.0000 0.0000 26.2228 0.0000 -0.2303
# 5 -13.9234 6.7910 -24.4065 0.0000 19.2238 0.0000
# 6 0.0000 0.0000 0.0000 -0.2303 0.0000 7.0538
#
#
#
# Elastic Compliance Matrix: (Units=1/GPa)
#
#
# Indices 1 2 3 4 5 6 
#
# 1 0.033162 -0.020137 0.005703 0.000000 0.038372 0.000000
# 2 -0.020137 0.034092 -0.013122 0.000000 -0.043288 0.000000
# 3 0.005703 -0.013122 0.018133 0.000000 0.031788 0.000000
# 4 0.000000 0.000000 0.000000 0.038146 0.000000 0.001246
# 5 0.038372 -0.043288 0.031788 0.000000 0.135461 0.000000
# 6 0.000000 0.000000 0.000000 0.001246 0.000000 0.141808
#
#
# Mechanical properties :
#
#
# Convention : Reuss Voigt Hill
#
# Bulk Modulus (GPa) = 33.03116 42.62694 37.82905
# Shear Modulus (GPa) = 10.72948 20.68214 15.70581
#
# Velocity S-wave (km/s) = 2.31874 3.21930 2.80539
# Velocity P-wave (km/s) = 4.87040 5.93119 5.42678
#
# Compressibility (1/GPa) = 0.03027445
#
# Stress axis : x y z
#
# Youngs Moduli (GPa) = 30.15527 29.33237 55.14703
#
# Poissons Ratio (x) = 0.59066 -0.31450
# Poissons Ratio (y) = 0.60724 0.72365
# Poissons Ratio (z) = -0.17197 0.38491
#
# Static dielectric constant tensor:
#      x y z
#    x 1.705940 0.000000 -0.006980 
#    y 0.000000 1.743300 0.000000 
#    z -0.006980 0.000000 1.760320 
# 
# From -- ./inp_files/121488.got.cif
#   From: 2010.05.17/outbox.cif.g08.bks.cpg/sg15_61_cif.got.tgz:121488.got - 2010.06.03 18:47:42.
