data_PCOD9264082
_publ_section_title
;
Structure prediction by ZEFSAII (Michael W. Deem and Ramdas Pophale) SiO2 
 PCOD9264082
Probable space group: C 2/C
;
_chemical_formula_sum "Si O2"
_cell_formula_units_Z 48
_cell_length_a 17.122561
_cell_length_b 13.660145
_cell_length_c 12.213484
_cell_angle_alpha 90.000000
_cell_angle_beta 112.910816
_cell_angle_gamma 90.000000
_cell_volume 2631.334183
_symmetry_space_group_name_H-M "C 2/C"
_symmetry_group_IT_number 15
_symmetry_cell_setting 'monoclinic'
loop_
_space_group_symop_operation_xyz
x,y,z
-x,y,1/2-z
-x,-y,-z
x,-y,1/2+z
1/2+x,1/2+y,z
1/2-x,1/2+y,1/2-z
1/2-x,1/2-y,-z
1/2+x,1/2-y,1/2+z
loop_
_atom_site_type_symbol
_atom_site_label
_atom_site_fract_x
_atom_site_fract_y
_atom_site_fract_z
Si Si1 0.214001 0.070725 0.583828
Si Si2 0.284018 0.629453 0.287462
Si Si3 0.663917 0.957101 0.552888
Si Si4 0.086813 0.156277 0.345790
Si Si5 0.683573 0.837075 0.163022
Si Si6 0.009850 0.634519 0.871222
O O1 0.285912 0.070623 0.529475
O O2 0.130813 0.107728 0.474869
O O3 0.254032 0.137496 0.701306
O O4 0.197134 0.964938 0.628437
O O5 0.197793 0.602788 0.176279
O O6 0.348579 0.648262 0.220993
O O7 0.288277 0.729441 0.358095
O O8 0.566628 0.930024 0.481716
O O9 0.687510 0.070130 0.585622
O O10 0.061745 0.266099 0.370161
O O11 0.000000 0.111626 0.250000
O O12 0.583850 0.837509 0.140571
O O13 0.000000 0.579755 0.750000
#
# Coordination Sequence:
#
# PCOD9264082 Si02
#       6
#     8   8   8   8   8   8
#     4  10  21  35  54  77 106 137 170 213 255 306
#     4  10  20  35  54  79 102 137 175 209 257 305
#     4  10  21  34  54  79 106 136 169 212 258 305
#     4  10  19  35  55  78 101 134 173 217 257 295
#     4  11  20  35  55  79 104 136 174 210 256 306
#     4  11  18  33  57  79 103 132 171 218 255 295
#
# _framework density 18.241696999999998
#
# number of rings (size 3 to 8) (size 9 to 14) (size 15 to 20)
#    0.000    1.667    5.000    1.500    0.000    4.000 
#    0.000    0.000    0.000    1.000    0.000    0.000 
#    0.000    0.000    0.000    0.000    0.000    0.000 
#
# Total GULP energy -133692.233252 kJ/mol
# GULP energy per Si atom -5570.509719 kJ/mol
# Density = 1.820018 g / cm^3
# Si number density = 18.241697 Si / 1000 Ang^3
#
#
#
# Elastic Constant Matrix: (Units=GPa)
#
#
# Indices 1 2 3 4 5 6 
#
# 1 40.2703 16.2313 22.0743 0.0000 26.4324 0.0000
# 2 16.2313 84.0501 31.3311 0.0000 25.8048 0.0000
# 3 22.0743 31.3311 91.0687 0.0000 41.8721 0.0000
# 4 0.0000 0.0000 0.0000 9.9696 0.0000 -0.6352
# 5 26.4324 25.8048 41.8721 0.0000 31.8273 0.0000
# 6 0.0000 0.0000 0.0000 -0.6352 0.0000 23.2361
#
#
#
# Elastic Compliance Matrix: (Units=1/GPa)
#
#
# Indices 1 2 3 4 5 6 
#
# 1 0.075529 0.007348 0.027193 0.000000 -0.104460 0.000000
# 2 0.007348 0.016604 0.003802 0.000000 -0.024566 0.000000
# 3 0.027193 0.003802 0.037667 0.000000 -0.075221 0.000000
# 4 0.000000 0.000000 0.000000 0.100479 0.000000 0.002747
# 5 -0.104460 -0.024566 -0.075221 0.000000 0.237050 0.000000
# 6 0.000000 0.000000 0.000000 0.002747 0.000000 0.043112
#
#
# Mechanical properties :
#
#
# Convention : Reuss Voigt Hill
#
# Bulk Modulus (GPa) = 4.84294 39.40696 22.12495
# Shear Modulus (GPa) = 9.94862 22.72344 16.33603
#
# Velocity S-wave (km/s) = 2.33787 3.53326 2.99579
# Velocity P-wave (km/s) = 3.15407 6.18828 4.91136
#
# Compressibility (1/GPa) = 0.20648593
#
# Stress axis : x y z
#
# Youngs Moduli (GPa) = 13.23998 60.22774 26.54865
#
# Poissons Ratio (x) = -0.44258 -0.72195
# Poissons Ratio (y) = -0.09729 -0.10093
# Poissons Ratio (z) = -0.36004 -0.22896
#
# Static dielectric constant tensor:
#      x y z
#    x 1.637470 0.000000 0.012390 
#    y 0.000000 1.656830 0.000000 
#    z 0.012390 0.000000 1.643600 
# 
# From -- ./inp_files/104180.got.cif
#   From: 2010.05.17/outbox.cif.g08.bks.cpg/sg15_53_cif.got.tgz:104180.got - 2010.06.03 18:47:42.
