data_PCOD9264496
_publ_section_title
;
Structure prediction by ZEFSAII (Michael W. Deem and Ramdas Pophale) SiO2 
 PCOD9264496
Probable space group: C 2/C
;
_chemical_formula_sum "Si O2"
_cell_formula_units_Z 56
_cell_length_a 16.702130
_cell_length_b 18.606570
_cell_length_c 8.241836
_cell_angle_alpha 90.000000
_cell_angle_beta 111.921186
_cell_angle_gamma 90.000000
_cell_volume 2376.122885
_symmetry_space_group_name_H-M "C 2/C"
_symmetry_group_IT_number 15
_symmetry_cell_setting 'monoclinic'
loop_
_space_group_symop_operation_xyz
x,y,z
-x,y,1/2-z
-x,-y,-z
x,-y,1/2+z
1/2+x,1/2+y,z
1/2-x,1/2+y,1/2-z
1/2-x,1/2-y,-z
1/2+x,1/2-y,1/2+z
loop_
_atom_site_type_symbol
_atom_site_label
_atom_site_fract_x
_atom_site_fract_y
_atom_site_fract_z
Si Si1 0.106677 0.932296 0.166319
Si Si2 0.091502 0.422653 0.915669
Si Si3 0.415111 0.581074 0.469780
Si Si4 0.652785 0.717199 0.610102
Si Si5 0.845369 0.568869 0.382726
Si Si6 0.991940 0.317383 0.055013
Si Si7 0.295367 0.678212 0.202297
O O1 0.090462 0.927996 0.343769
O O2 0.133323 0.012046 0.141029
O O3 0.163935 0.864306 0.170499
O O4 0.016133 0.921148 0.001158
O O5 0.156376 0.417500 0.812642
O O6 0.000000 0.439658 0.750000
O O7 0.129383 0.487489 0.053181
O O8 0.070323 0.352418 0.010228
O O9 0.371027 0.652530 0.374626
O O10 0.559732 0.753033 0.574266
O O11 0.665497 0.715749 0.425690
O O12 0.727538 0.768161 0.732400
O O13 0.924530 0.616340 0.508353
O O14 0.760844 0.607754 0.389932
O O15 0.000000 0.297569 0.250000
#
# Coordination Sequence:
#
# PCOD9264496 Si02
#       7
#     8   8   8   8   8   8   8
#     4  10  22  42  67  97 120 162 221 277 313 379
#     4  10  19  35  59  87 125 167 219 265 308 380
#     4  10  22  42  69  94 123 164 219 270 324 374
#     4  10  23  42  63  93 133 167 215 265 325 395
#     4  10  20  36  57  87 128 167 210 264 313 389
#     4  10  20  36  58  88 119 167 213 261 317 375
#     4  10  23  42  61  93 133 174 207 261 336 394
#
# _framework density 23.567803000000001
#
# number of rings (size 3 to 8) (size 9 to 14) (size 15 to 20)
#    0.000    2.000    0.000    3.857    2.000    4.000 
#   12.857    5.714    0.000    0.000    0.000    0.000 
#    0.000    0.000    0.000    0.000    0.000    0.000 
#
# Total GULP energy -156333.805791 kJ/mol
# GULP energy per Si atom -5583.350207 kJ/mol
# Density = 2.351416 g / cm^3
# Si number density = 23.567803 Si / 1000 Ang^3
#
#
#
# Elastic Constant Matrix: (Units=GPa)
#
#
# Indices 1 2 3 4 5 6 
#
# 1 49.1843 36.0229 12.6045 0.0000 -3.5341 0.0000
# 2 36.0229 79.9462 4.7013 0.0000 14.5734 0.0000
# 3 12.6045 4.7013 42.1212 0.0000 -0.7943 0.0000
# 4 0.0000 0.0000 0.0000 -0.2234 0.0000 -40.0710
# 5 -3.5341 14.5734 -0.7943 0.0000 20.8535 0.0000
# 6 0.0000 0.0000 0.0000 -40.0710 0.0000 -28.9271
#
#
#
# Elastic Compliance Matrix: (Units=1/GPa)
#
#
# Indices 1 2 3 4 5 6 
#
# 1 0.039762 -0.021252 -0.009126 0.000000 0.021243 0.000000
# 2 -0.021252 0.025829 0.003070 0.000000 -0.021536 0.000000
# 3 -0.009126 0.003070 0.026078 0.000000 -0.002699 0.000000
# 4 0.000000 0.000000 0.000000 0.018088 0.000000 -0.025057
# 5 0.021243 -0.021536 -0.002699 0.000000 0.066501 0.000000
# 6 0.000000 0.000000 0.000000 -0.025057 0.000000 0.000140
#
#
# Mechanical properties :
#
#
# Convention : Reuss Voigt Hill
#
# Bulk Modulus (GPa) = 26.98702 30.87879 28.93290
# Shear Modulus (GPa) = 20.54531 6.20213 13.37372
#
# Velocity S-wave (km/s) = 2.95575 1.62398 2.38472
# Velocity P-wave (km/s) = 4.80877 4.08007 4.45933
#
# Compressibility (1/GPa) = 0.03705485
#
# Stress axis : x y z
#
# Youngs Moduli (GPa) = 25.14981 38.71551 38.34613
#
# Poissons Ratio (x) = 0.82278 0.34994
# Poissons Ratio (y) = 0.53448 -0.11774
# Poissons Ratio (z) = 0.22951 -0.11887
#
# Static dielectric constant tensor:
#      x y z
#    x 1.941400 0.000000 0.019850 
#    y 0.000000 1.877000 0.000000 
#    z 0.019850 0.000000 1.879570 
# 
# From -- ./inp_files/56714.got.cif
#   From: 2010.05.17/outbox.cif.g08.bks.cpg/sg15_29_cif.got.tgz:56714.got - 2010.06.03 18:47:42.
