data_PCOD9264088
_publ_section_title
;
Structure prediction by ZEFSAII (Michael W. Deem and Ramdas Pophale) SiO2 
 PCOD9264088
Probable space group: C 2/C
;
_chemical_formula_sum "Si O2"
_cell_formula_units_Z 48
_cell_length_a 12.373923
_cell_length_b 14.071331
_cell_length_c 23.218138
_cell_angle_alpha 90.000000
_cell_angle_beta 41.552635
_cell_angle_gamma 90.000000
_cell_volume 2681.544945
_symmetry_space_group_name_H-M "C 2/C"
_symmetry_group_IT_number 15
_symmetry_cell_setting 'monoclinic'
loop_
_space_group_symop_operation_xyz
x,y,z
-x,y,1/2-z
-x,-y,-z
x,-y,1/2+z
1/2+x,1/2+y,z
1/2-x,1/2+y,1/2-z
1/2-x,1/2-y,-z
1/2+x,1/2-y,1/2+z
loop_
_atom_site_type_symbol
_atom_site_label
_atom_site_fract_x
_atom_site_fract_y
_atom_site_fract_z
Si Si1 0.366443 0.959820 0.473117
Si Si2 0.051941 0.643199 0.439954
Si Si3 0.015432 0.026818 0.404050
Si Si4 0.933005 0.339077 0.338217
Si Si5 0.446404 0.652733 0.537756
Si Si6 0.390091 0.638758 0.240803
O O1 0.438961 0.063017 0.457380
O O2 0.394998 0.895926 0.518424
O O3 0.175351 0.968669 0.536112
O O4 0.451285 0.909408 0.384585
O O5 0.974772 0.747025 0.478122
O O6 0.211492 0.655274 0.336903
O O7 0.035482 0.097330 0.450545
O O8 0.110799 0.066640 0.311547
O O9 0.060608 0.921837 0.407162
O O10 0.738702 0.324601 0.408419
O O11 0.000000 0.375741 0.250000
O O12 0.023418 0.238236 0.311637
O O13 0.500000 0.601225 0.250000
#
# Coordination Sequence:
#
# PCOD9264088 Si02
#       6
#     8   8   8   8   8   8
#     4  10  22  36  54  79 110 142 173 217 267 319
#     4  11  21  35  55  82 107 141 178 216 266 315
#     4  10  21  36  56  79 107 142 176 219 263 314
#     4  10  19  35  55  80 103 136 176 222 262 303
#     4  10  20  36  56  77 105 140 180 213 266 315
#     4  11  19  33  58  81 105 134 181 226 259 302
#
# _framework density 17.900129
#
# number of rings (size 3 to 8) (size 9 to 14) (size 15 to 20)
#    0.000    1.667    5.000    1.000    2.333    3.333 
#    0.000    0.000    0.000    1.000    0.000    0.000 
#    0.000    0.000    0.000    0.000    0.000    0.000 
#
# Total GULP energy -133943.261904 kJ/mol
# GULP energy per Si atom -5580.969246 kJ/mol
# Density = 1.785939 g / cm^3
# Si number density = 17.900129 Si / 1000 Ang^3
#
#
#
# Elastic Constant Matrix: (Units=GPa)
#
#
# Indices 1 2 3 4 5 6 
#
# 1 37.0549 37.2418 16.5262 0.0000 22.8762 0.0000
# 2 37.2418 151.2688 42.6370 0.0000 29.0466 0.0000
# 3 16.5262 42.6370 42.6345 0.0000 15.3665 0.0000
# 4 0.0000 0.0000 0.0000 26.9488 0.0000 5.3193
# 5 22.8762 29.0466 15.3665 0.0000 24.6872 0.0000
# 6 0.0000 0.0000 0.0000 5.3193 0.0000 11.7162
#
#
#
# Elastic Compliance Matrix: (Units=1/GPa)
#
#
# Indices 1 2 3 4 5 6 
#
# 1 0.066909 -0.005839 -0.000291 0.000000 -0.054948 0.000000
# 2 -0.005839 0.010625 -0.007486 0.000000 -0.002431 0.000000
# 3 -0.000291 -0.007486 0.035818 0.000000 -0.013217 0.000000
# 4 0.000000 0.000000 0.000000 0.040760 0.000000 -0.018506
# 5 -0.054948 -0.002431 -0.013217 0.000000 0.102511 0.000000
# 6 0.000000 0.000000 0.000000 -0.018506 0.000000 0.093754
#
#
# Mechanical properties :
#
#
# Convention : Reuss Voigt Hill
#
# Bulk Modulus (GPa) = 11.61182 47.08535 29.34859
# Shear Modulus (GPa) = 12.30566 21.64067 16.97317
#
# Velocity S-wave (km/s) = 2.62479 3.48079 3.08265
# Velocity P-wave (km/s) = 3.96070 6.52044 5.39459
#
# Compressibility (1/GPa) = 0.08611914
#
# Stress axis : x y z
#
# Youngs Moduli (GPa) = 14.94576 94.11571 27.91855
#
# Poissons Ratio (x) = 0.54959 0.00812
# Poissons Ratio (y) = 0.08728 0.20901
# Poissons Ratio (z) = 0.00435 0.70458
#
# Static dielectric constant tensor:
#      x y z
#    x 1.607220 0.000000 0.011960 
#    y 0.000000 1.620300 0.000000 
#    z 0.011960 0.000000 1.614890 
# 
# From -- ./inp_files/197186.got.cif
#   From: 2010.05.17/outbox.cif.g08.bks.cpg/sg15_99_cif.got.tgz:197186.got - 2010.06.03 18:47:42.
