data_PCOD9264263
_publ_section_title
;
Structure prediction by ZEFSAII (Michael W. Deem and Ramdas Pophale) SiO2 
 PCOD9264263
Probable space group: C 2/C
;
_chemical_formula_sum "Si O2"
_cell_formula_units_Z 40
_cell_length_a 17.309820
_cell_length_b 12.585502
_cell_length_c 29.606412
_cell_angle_alpha 90.000000
_cell_angle_beta 20.283707
_cell_angle_gamma 90.000000
_cell_volume 2235.958803
_symmetry_space_group_name_H-M "C 2/C"
_symmetry_group_IT_number 15
_symmetry_cell_setting 'monoclinic'
loop_
_space_group_symop_operation_xyz
x,y,z
-x,y,1/2-z
-x,-y,-z
x,-y,1/2+z
1/2+x,1/2+y,z
1/2-x,1/2+y,1/2-z
1/2-x,1/2-y,-z
1/2+x,1/2-y,1/2+z
loop_
_atom_site_type_symbol
_atom_site_label
_atom_site_fract_x
_atom_site_fract_y
_atom_site_fract_z
Si Si1 0.800262 0.358364 0.446760
Si Si2 0.506415 0.237733 0.192370
Si Si3 0.343117 0.587046 0.953746
Si Si4 0.814195 0.092703 0.655139
Si Si5 0.555319 0.644431 0.437386
O O1 0.750000 0.250000 0.500000
O O2 0.724145 0.464732 0.514985
O O3 0.652806 0.357821 0.482164
O O4 0.062169 0.369170 0.294120
O O5 0.500000 0.226546 0.250000
O O6 0.612873 0.346684 0.115691
O O7 0.248950 0.226139 0.318564
O O8 0.651089 0.146082 0.088396
O O9 0.564615 0.593853 0.863126
O O10 0.961822 0.159729 0.538907
O O11 0.828754 0.971557 0.629160
#
# Coordination Sequence:
#
# PCOD9264263 Si02
#       5
#     8   8   8   8   8
#     4  11  22  37  56  83 120 152 186 231 284 343
#     4  11  20  38  60  84 115 144 195 239 283 335
#     4  10  22  36  59  85 112 154 187 235 286 337
#     4  10  19  35  57  85 114 141 197 236 283 328
#     4  10  20  33  60  86 110 148 190 244 279 327
#
# _framework density 17.889417999999999
#
# number of rings (size 3 to 8) (size 9 to 14) (size 15 to 20)
#    0.000    1.600    4.000    1.800    0.000    0.000 
#    0.000    2.000    0.000    3.600    0.000    0.000 
#    0.000    0.000    0.000    0.000    0.000    0.000 
#
# Total GULP energy -111591.240055 kJ/mol
# GULP energy per Si atom -5579.562003 kJ/mol
# Density = 1.784870 g / cm^3
# Si number density = 17.889418 Si / 1000 Ang^3
#
#
#
# Elastic Constant Matrix: (Units=GPa)
#
#
# Indices 1 2 3 4 5 6 
#
# 1 27.5791 19.3569 38.6729 -0.0005 -0.2774 0.0002
# 2 19.3569 107.0421 47.9052 0.0039 11.4732 0.0046
# 3 38.6729 47.9052 140.4200 -0.0187 -13.5228 0.0203
# 4 -0.0005 0.0039 -0.0187 20.3945 0.0101 -2.8584
# 5 -0.2774 11.4732 -13.5228 0.0101 32.7858 -0.0051
# 6 0.0002 0.0046 0.0203 -2.8584 -0.0051 19.1367
#
#
#
# Elastic Compliance Matrix: (Units=1/GPa)
#
#
# Indices 1 2 3 4 5 6 
#
# 1 0.061290 -0.003271 -0.016249 -0.000008 -0.005039 0.000015
# 2 -0.003271 0.012299 -0.003866 -0.000003 -0.005926 -0.000001
# 3 -0.016249 -0.003866 0.013571 0.000008 0.006813 -0.000010
# 4 -0.000008 -0.000003 0.000008 0.050081 -0.000010 0.007481
# 5 -0.005039 -0.005926 0.006813 -0.000010 0.035342 0.000002
# 6 0.000015 -0.000001 -0.000010 0.007481 0.000002 0.053373
#
#
# Mechanical properties :
#
#
# Convention : Reuss Voigt Hill
#
# Bulk Modulus (GPa) = 24.75954 54.10124 39.43039
# Shear Modulus (GPa) = 17.47087 25.73717 21.60402
#
# Velocity S-wave (km/s) = 3.12846 3.79711 3.47889
# Velocity P-wave (km/s) = 5.18845 7.03788 6.18271
#
# Compressibility (1/GPa) = 0.04038847
#
# Stress axis : x y z
#
# Youngs Moduli (GPa) = 16.31596 81.30851 73.68395
#
# Poissons Ratio (x) = 0.26598 1.19729
# Poissons Ratio (y) = 0.05337 0.28483
# Poissons Ratio (z) = 0.26512 0.31431
#
# Static dielectric constant tensor:
#      x y z
#    x 1.624800 0.000000 -0.010520 
#    y 0.000000 1.612410 -0.000010 
#    z -0.010520 -0.000010 1.603870 
# 
# From -- ./inp_files/95533.got.cif
#   From: 2010.05.17/outbox.cif.g08.bks.cpg/sg15_48_cif.got.tgz:95533.got - 2010.06.03 18:47:42.
