data_PCOD9264005
_publ_section_title
;
Structure prediction by ZEFSAII (Michael W. Deem and Ramdas Pophale) SiO2 
 PCOD9264005
Probable space group: C 2/C
;
_chemical_formula_sum "Si O2"
_cell_formula_units_Z 40
_cell_length_a 21.453452
_cell_length_b 12.849476
_cell_length_c 5.374850
_cell_angle_alpha 90.000000
_cell_angle_beta 90.436122
_cell_angle_gamma 90.000000
_cell_volume 1481.618417
_symmetry_space_group_name_H-M "C 2/C"
_symmetry_group_IT_number 15
_symmetry_cell_setting 'monoclinic'
loop_
_space_group_symop_operation_xyz
x,y,z
-x,y,1/2-z
-x,-y,-z
x,-y,1/2+z
1/2+x,1/2+y,z
1/2-x,1/2+y,1/2-z
1/2-x,1/2-y,-z
1/2+x,1/2-y,1/2+z
loop_
_atom_site_type_symbol
_atom_site_label
_atom_site_fract_x
_atom_site_fract_y
_atom_site_fract_z
Si Si1 0.201867 0.631265 0.751034
Si Si2 0.067965 0.247712 0.721203
Si Si3 0.602913 0.531287 0.747561
Si Si4 0.931809 0.617873 0.779398
Si Si5 0.781633 0.873409 0.754975
O O1 0.136552 0.568675 0.750472
O O2 0.190764 0.756552 0.740735
O O3 0.240568 0.611804 0.501452
O O4 0.239400 0.616557 0.007535
O O5 0.116759 0.154180 0.743798
O O6 0.068123 0.302489 0.454453
O O7 0.000000 0.196580 0.750000
O O8 0.071689 0.327857 0.950035
O O9 0.569266 0.499999 0.496347
O O10 0.663495 0.457114 0.748453
O O11 0.000000 0.563486 0.750000
#
# Coordination Sequence:
#
# PCOD9264005 Si02
#       5
#     8   8   8   8   8
#     4  10  19  35  53  71 101 133 177 227 262 302
#     4  10  21  35  52  77 111 149 183 213 252 308
#     4  12  23  35  52  74 108 143 181 220 260 309
#     4  10  20  36  58  82 108 143 183 219 261 314
#     4  10  21  33  51  74  98 140 180 215 263 307
#
# _framework density 26.997502000000001
#
# number of rings (size 3 to 8) (size 9 to 14) (size 15 to 20)
#    0.000    1.600    0.000    6.000    0.000    4.000 
#    0.000    1.000    0.000    0.000    0.000    0.000 
#    0.000   16.000    0.000    0.000    0.000    0.000 
#
# Total GULP energy -112065.201881 kJ/mol
# GULP energy per Si atom -5603.260094 kJ/mol
# Density = 2.693605 g / cm^3
# Si number density = 26.997502 Si / 1000 Ang^3
#
#
#
# Elastic Constant Matrix: (Units=GPa)
#
#
# Indices 1 2 3 4 5 6 
#
# 1 192.6560 20.2730 52.9863 0.0000 -4.8235 0.0000
# 2 20.2730 93.0169 26.1429 0.0000 -0.6026 0.0000
# 3 52.9863 26.1429 194.9184 0.0000 -1.2983 0.0000
# 4 0.0000 0.0000 0.0000 37.3413 0.0000 3.2821
# 5 -4.8235 -0.6026 -1.2983 0.0000 7.2795 0.0000
# 6 0.0000 0.0000 0.0000 3.2821 0.0000 23.7054
#
#
#
# Elastic Compliance Matrix: (Units=1/GPa)
#
#
# Indices 1 2 3 4 5 6 
#
# 1 0.005759 -0.000830 -0.001431 0.000000 0.003492 0.000000
# 2 -0.000830 0.011295 -0.001288 0.000000 0.000155 0.000000
# 3 -0.001431 -0.001288 0.005692 0.000000 -0.000040 0.000000
# 4 0.000000 0.000000 0.000000 0.027110 0.000000 -0.003753
# 5 0.003492 0.000155 -0.000040 0.000000 0.139691 0.000000
# 6 0.000000 0.000000 0.000000 -0.003753 0.000000 0.042704
#
#
# Mechanical properties :
#
#
# Convention : Reuss Voigt Hill
#
# Bulk Modulus (GPa) = 63.91095 75.48843 69.69969
# Shear Modulus (GPa) = 20.44446 39.07786 29.76116
#
# Velocity S-wave (km/s) = 2.75484 3.80868 3.32379
# Velocity P-wave (km/s) = 5.81749 6.88210 6.37207
#
# Compressibility (1/GPa) = 0.01564677
#
# Stress axis : x y z
#
# Youngs Moduli (GPa) = 173.64300 88.53667 175.69079
#
# Poissons Ratio (x) = 0.07352 0.25139
# Poissons Ratio (y) = 0.14419 0.22631
# Poissons Ratio (z) = 0.24846 0.11405
#
# Static dielectric constant tensor:
#      x y z
#    x 2.143330 0.000000 -0.001610 
#    y 0.000000 2.102470 0.000000 
#    z -0.001610 0.000000 2.090920 
# 
# From -- ./inp_files/15018.got.cif
#   From: 2010.05.17/outbox.cif.g08.bks.cpg/sg15_8_cif.got.tgz:15018.got - 2010.06.03 18:47:42.
