data_PCOD9264353
_publ_section_title
;
Structure prediction by ZEFSAII (Michael W. Deem and Ramdas Pophale) SiO2 
 PCOD9264353
Probable space group: C 2/C
;
_chemical_formula_sum "Si O2"
_cell_formula_units_Z 52
_cell_length_a 18.763020
_cell_length_b 24.763905
_cell_length_c 5.293123
_cell_angle_alpha 90.000000
_cell_angle_beta 81.706150
_cell_angle_gamma 90.000000
_cell_volume 2433.704091
_symmetry_space_group_name_H-M "C 2/C"
_symmetry_group_IT_number 15
_symmetry_cell_setting 'monoclinic'
loop_
_space_group_symop_operation_xyz
x,y,z
-x,y,1/2-z
-x,-y,-z
x,-y,1/2+z
1/2+x,1/2+y,z
1/2-x,1/2+y,1/2-z
1/2-x,1/2-y,-z
1/2+x,1/2-y,1/2+z
loop_
_atom_site_type_symbol
_atom_site_label
_atom_site_fract_x
_atom_site_fract_y
_atom_site_fract_z
Si Si1 0.407926 0.031610 0.920967
Si Si2 0.914906 0.301190 0.002746
Si Si3 0.085401 0.820481 0.199491
Si Si4 0.500000 0.536794 0.250000
Si Si5 0.422343 0.844803 0.505203
Si Si6 0.734578 0.531689 0.010576
Si Si7 0.630059 0.622038 0.176059
O O1 0.432701 0.092826 0.939725
O O2 0.320809 0.033761 0.967299
O O3 0.429253 0.994548 0.145582
O O4 0.883661 0.314480 0.293734
O O5 0.908328 0.241133 0.899237
O O6 0.885179 0.339166 0.796023
O O7 0.999464 0.316573 0.998655
O O8 0.113993 0.834033 0.464849
O O9 0.000000 0.833790 0.250000
O O10 0.124539 0.854404 0.960434
O O11 0.500000 0.500000 0.500000
O O12 0.568537 0.576090 0.195187
O O13 0.710781 0.493150 0.254705
O O14 0.702881 0.590590 0.076384
#
# Coordination Sequence:
#
# PCOD9264353 Si02
#       7
#     8   8   8   4   8   8   8
#     4  10  21  38  61  86 112 148 191 228 269 329
#     4  10  21  35  57  83 112 151 180 224 282 338
#     4  12  21  37  55  82 108 143 191 224 277 334
#     4  12  22  32  46  72 108 136 168 220 286 334
#     4  10  19  35  58  84 113 148 188 218 277 339
#     4  10  21  40  60  79 111 152 190 229 279 333
#     4  12  23  35  56  80 109 143 189 236 275 331
#
# _framework density 21.366609
#
# number of rings (size 3 to 8) (size 9 to 14) (size 15 to 20)
#    0.000    1.231    3.077    4.615    2.154    0.000 
#    0.000    9.231    0.000    5.538    0.000    0.000 
#    0.000    0.000    0.000    0.000    0.000    0.000 
#
# Total GULP energy -145310.197081 kJ/mol
# GULP energy per Si atom -5588.853734 kJ/mol
# Density = 2.131798 g / cm^3
# Si number density = 21.366609 Si / 1000 Ang^3
#
#
#
# Elastic Constant Matrix: (Units=GPa)
#
#
# Indices 1 2 3 4 5 6 
#
# 1 29.6338 11.5741 19.1567 0.0000 -6.0540 0.0000
# 2 11.5741 109.5707 33.7772 0.0000 -2.2484 0.0000
# 3 19.1567 33.7772 167.7253 0.0000 7.4965 0.0000
# 4 0.0000 0.0000 0.0000 45.8632 0.0000 6.1260
# 5 -6.0540 -2.2484 7.4965 0.0000 16.4936 0.0000
# 6 0.0000 0.0000 0.0000 6.1260 0.0000 21.1857
#
#
#
# Elastic Compliance Matrix: (Units=1/GPa)
#
#
# Indices 1 2 3 4 5 6 
#
# 1 0.041452 -0.002485 -0.005000 0.000000 0.017149 0.000000
# 2 -0.002485 0.009963 -0.001779 0.000000 0.001254 0.000000
# 3 -0.005000 -0.001779 0.007129 0.000000 -0.005318 0.000000
# 4 0.000000 0.000000 0.000000 0.022680 0.000000 -0.006558
# 5 0.017149 0.001254 -0.005318 0.000000 0.069512 0.000000
# 6 0.000000 0.000000 0.000000 -0.006558 0.000000 0.049098
#
#
# Mechanical properties :
#
#
# Convention : Reuss Voigt Hill
#
# Bulk Modulus (GPa) = 24.99033 48.43845 36.71439
# Shear Modulus (GPa) = 21.57951 32.86995 27.22473
#
# Velocity S-wave (km/s) = 3.18144 3.92647 3.57343
# Velocity P-wave (km/s) = 5.02163 6.57842 5.85203
#
# Compressibility (1/GPa) = 0.04001548
#
# Stress axis : x y z
#
# Youngs Moduli (GPa) = 24.12439 100.37059 140.26966
#
# Poissons Ratio (x) = 0.24945 0.70140
# Poissons Ratio (y) = 0.05996 0.24949
# Poissons Ratio (z) = 0.12063 0.17852
#
# Static dielectric constant tensor:
#      x y z
#    x 1.672340 0.000000 0.046050 
#    y 0.000000 1.756300 0.000000 
#    z 0.046050 0.000000 1.794030 
# 
# From -- ./inp_files/13335.got.cif
#   From: 2010.05.17/outbox.cif.g08.bks.cpg/sg15_7_cif.got.tgz:13335.got - 2010.06.03 18:47:42.
