data_PCOD9264308
_publ_section_title
;
Structure prediction by ZEFSAII (Michael W. Deem and Ramdas Pophale) SiO2 
 PCOD9264308
Probable space group: C 2/C
;
_chemical_formula_sum "Si O2"
_cell_formula_units_Z 36
_cell_length_a 12.953881
_cell_length_b 26.101799
_cell_length_c 4.993387
_cell_angle_alpha 90.000000
_cell_angle_beta 98.559694
_cell_angle_gamma 90.000000
_cell_volume 1669.555899
_symmetry_space_group_name_H-M "C 2/C"
_symmetry_group_IT_number 15
_symmetry_cell_setting 'monoclinic'
loop_
_space_group_symop_operation_xyz
x,y,z
-x,y,1/2-z
-x,-y,-z
x,-y,1/2+z
1/2+x,1/2+y,z
1/2-x,1/2+y,1/2-z
1/2-x,1/2-y,-z
1/2+x,1/2-y,1/2+z
loop_
_atom_site_type_symbol
_atom_site_label
_atom_site_fract_x
_atom_site_fract_y
_atom_site_fract_z
Si Si1 0.224582 0.464511 0.828291
Si Si2 0.500000 0.038212 0.250000
Si Si3 0.617315 0.771084 0.766445
Si Si4 0.430945 0.401092 0.957811
Si Si5 0.162948 0.203773 0.286512
O O1 0.227778 0.486840 0.529717
O O2 0.323327 0.431169 0.944951
O O3 0.112897 0.435439 0.809131
O O4 0.500000 0.000000 0.500000
O O5 0.500000 0.791855 0.750000
O O6 0.712025 0.805366 0.687713
O O7 0.623580 0.722939 0.560424
O O8 0.643884 0.750076 0.071369
O O9 0.500000 0.426221 0.750000
O O10 0.397648 0.345236 0.840209
O O11 0.500000 0.398718 0.250000
#
# Coordination Sequence:
#
# PCOD9264308 Si02
#       5
#     8   4   8   8   8
#     4  10  21  38  59  83 111 149 192 232 284 335
#     4   8  16  34  58  78 102 138 184 228 276 334
#     4  10  19  35  58  79 108 144 186 231 277 332
#     4  12  24  37  56  83 118 151 189 233 282 339
#     4  10  21  35  54  82 110 145 186 226 279 337
#
# _framework density 21.562619999999999
#
# number of rings (size 3 to 8) (size 9 to 14) (size 15 to 20)
#    0.000    1.778    0.000    5.333    0.000    2.667 
#    2.000    0.000    0.000    0.000    0.000    0.000 
#    0.000    0.000    0.000    0.000    0.000    0.000 
#
# Total GULP energy -100441.407044 kJ/mol
# GULP energy per Si atom -5580.078169 kJ/mol
# Density = 2.151354 g / cm^3
# Si number density = 21.562620 Si / 1000 Ang^3
#
#
#
# Elastic Constant Matrix: (Units=GPa)
#
#
# Indices 1 2 3 4 5 6 
#
# 1 225.5074 35.6644 32.1495 0.0000 29.0426 0.0000
# 2 35.6644 17.8313 -0.6256 0.0000 9.6021 0.0000
# 3 32.1495 -0.6256 114.6342 0.0000 1.3830 0.0000
# 4 0.0000 0.0000 0.0000 3.7972 0.0000 0.0274
# 5 29.0426 9.6021 1.3830 0.0000 37.6474 0.0000
# 6 0.0000 0.0000 0.0000 0.0274 0.0000 -8.9779
#
#
#
# Elastic Compliance Matrix: (Units=1/GPa)
#
#
# Indices 1 2 3 4 5 6 
#
# 1 0.007054 -0.013088 -0.002025 0.000000 -0.002030 0.000000
# 2 -0.013088 0.089326 0.004313 0.000000 -0.012845 0.000000
# 3 -0.002025 0.004313 0.009314 0.000000 0.000120 0.000000
# 4 0.000000 0.000000 0.000000 0.263343 0.000000 0.000803
# 5 -0.002030 -0.012845 0.000120 0.000000 0.031400 0.000000
# 6 0.000000 0.000000 0.000000 0.000803 0.000000 -0.111383
#
#
# Mechanical properties :
#
#
# Convention : Reuss Voigt Hill
#
# Bulk Modulus (GPa) = 11.89149 54.70549 33.29849
# Shear Modulus (GPa) = 14.76298 25.87900 20.32099
#
# Velocity S-wave (km/s) = 2.61943 3.46812 3.07321
# Velocity P-wave (km/s) = 3.83085 6.43916 5.29802
#
# Compressibility (1/GPa) = 0.08409373
#
# Stress axis : x y z
#
# Youngs Moduli (GPa) = 141.75519 11.19496 107.37086
#
# Poissons Ratio (x) = 0.14652 0.21747
# Poissons Ratio (y) = 1.85524 -0.46309
# Poissons Ratio (z) = 0.28711 -0.04828
#
# Static dielectric constant tensor:
#      x y z
#    x 1.964270 0.000000 0.008400 
#    y 0.000000 1.771580 0.000000 
#    z 0.008400 0.000000 1.742690 
# 
# From -- ./inp_files/4726.got.cif
#   From: 2010.05.17/outbox.cif.g08.bks.cpg/sg15_3_cif.got.tgz:4726.got - 2010.06.03 18:47:42.
