data_PCOD9264755
_publ_section_title
;
Structure prediction by ZEFSAII (Michael W. Deem and Ramdas Pophale) SiO2 
 PCOD9264755
Probable space group: C 2/C
;
_chemical_formula_sum "Si O2"
_cell_formula_units_Z 64
_cell_length_a 12.809379
_cell_length_b 25.620459
_cell_length_c 9.730046
_cell_angle_alpha 90.000000
_cell_angle_beta 91.912789
_cell_angle_gamma 90.000000
_cell_volume 3191.448309
_symmetry_space_group_name_H-M "C 2/C"
_symmetry_group_IT_number 15
_symmetry_cell_setting 'monoclinic'
loop_
_space_group_symop_operation_xyz
x,y,z
-x,y,1/2-z
-x,-y,-z
x,-y,1/2+z
1/2+x,1/2+y,z
1/2-x,1/2+y,1/2-z
1/2-x,1/2-y,-z
1/2+x,1/2-y,1/2+z
loop_
_atom_site_type_symbol
_atom_site_label
_atom_site_fract_x
_atom_site_fract_y
_atom_site_fract_z
Si Si1 0.423252 0.985894 0.874235
Si Si2 0.450611 0.128361 0.396760
Si Si3 0.704963 0.615855 0.695419
Si Si4 0.596260 0.575858 0.953621
Si Si5 0.623936 0.625677 0.240089
Si Si6 0.252618 0.690091 0.042132
Si Si7 0.639689 0.455308 0.977133
Si Si8 0.596322 0.901981 0.148715
O O1 0.500000 0.982286 0.750000
O O2 0.386626 0.926822 0.888935
O O3 0.357891 0.038856 0.861048
O O4 0.500000 0.000000 0.000000
O O5 0.500000 0.140058 0.250000
O O6 0.366227 0.169400 0.446976
O O7 0.546476 0.118771 0.506032
O O8 0.687783 0.659569 0.578797
O O9 0.716862 0.564454 0.599592
O O10 0.811034 0.630086 0.779695
O O11 0.622591 0.603336 0.811134
O O12 0.640745 0.610156 0.082173
O O13 0.640656 0.517012 0.960772
O O14 0.473406 0.565133 0.973261
O O15 0.500000 0.636268 0.250000
O O16 0.689189 0.672093 0.314573
O O17 0.649982 0.574248 0.332667
O O18 0.250000 0.750000 0.000000
O O19 0.500000 0.904214 0.250000
#
# Coordination Sequence:
#
# PCOD9264755 Si02
#       8
#     8   8   8   8   8   8   8   8
#     4   8  16  30  51  79 117 153 185 219 276 357
#     4  10  21  39  62  87 122 163 199 258 309 375
#     4  11  22  36  60  89 124 162 210 256 309 371
#     4  10  19  35  62  95 127 165 205 249 305 380
#     4   9  20  39  60  87 121 157 204 259 311 368
#     4  11  25  46  63  83 117 164 217 273 329 370
#     4   9  19  36  58  93 136 168 196 241 311 378
#     4  10  19  36  55  90 129 165 194 233 303 385
#
# _framework density 20.05359
#
# number of rings (size 3 to 8) (size 9 to 14) (size 15 to 20)
#    0.000    2.250    1.250    1.125    1.750    5.000 
#    6.750    4.375    0.000    0.000    0.000    0.000 
#    0.000    0.000    0.000    0.000    0.000    0.000 
#
# Total GULP energy -178405.677004 kJ/mol
# GULP energy per Si atom -5575.177406 kJ/mol
# Density = 2.000795 g / cm^3
# Si number density = 20.053590 Si / 1000 Ang^3
#
#
#
# Elastic Constant Matrix: (Units=GPa)
#
#
# Indices 1 2 3 4 5 6 
#
# 1 78.0052 19.9592 34.5333 0.0000 1.3083 0.0000
# 2 19.9592 113.4791 39.5868 0.0000 -3.4453 0.0000
# 3 34.5333 39.5868 149.6368 0.0000 -4.5698 0.0000
# 4 0.0000 0.0000 0.0000 6.1103 0.0000 5.4559
# 5 1.3083 -3.4453 -4.5698 0.0000 39.2508 0.0000
# 6 0.0000 0.0000 0.0000 5.4559 0.0000 14.5693
#
#
#
# Elastic Compliance Matrix: (Units=1/GPa)
#
#
# Indices 1 2 3 4 5 6 
#
# 1 0.014551 -0.001550 -0.002978 0.000000 -0.000968 0.000000
# 2 -0.001550 0.009885 -0.002237 0.000000 0.000659 0.000000
# 3 -0.002978 -0.002237 0.007987 0.000000 0.000833 0.000000
# 4 0.000000 0.000000 0.000000 0.245869 0.000000 -0.092072
# 5 -0.000968 0.000659 0.000833 0.000000 0.025664 0.000000
# 6 0.000000 0.000000 0.000000 -0.092072 0.000000 0.103116
#
#
# Mechanical properties :
#
#
# Convention : Reuss Voigt Hill
#
# Bulk Modulus (GPa) = 52.92781 58.80885 55.86833
# Shear Modulus (GPa) = 11.71235 28.45553 20.08394
#
# Velocity S-wave (km/s) = 2.41934 3.77101 3.16810
# Velocity P-wave (km/s) = 5.85276 6.95343 6.42670
#
# Compressibility (1/GPa) = 0.01889366
#
# Stress axis : x y z
#
# Youngs Moduli (GPa) = 68.72557 101.16026 125.19812
#
# Poissons Ratio (x) = 0.15679 0.37278
# Poissons Ratio (y) = 0.10652 0.28012
# Poissons Ratio (z) = 0.20463 0.22633
#
# Static dielectric constant tensor:
#      x y z
#    x 1.770880 0.000000 0.005000 
#    y 0.000000 1.719890 0.000000 
#    z 0.005000 0.000000 1.717870 
# 
# From -- ./inp_files/42657.got.cif
#   From: 2010.05.17/outbox.cif.g08.bks.cpg/sg15_22_cif.got.tgz:42657.got - 2010.06.03 18:47:42.
