data_PCOD9264785
_publ_section_title
;
Structure prediction by ZEFSAII (Michael W. Deem and Ramdas Pophale) SiO2 
 PCOD9264785
Probable space group: C 2/C
;
_chemical_formula_sum "Si O2"
_cell_formula_units_Z 40
_cell_length_a 7.068791
_cell_length_b 16.856817
_cell_length_c 14.824680
_cell_angle_alpha 90.000000
_cell_angle_beta 86.072809
_cell_angle_gamma 90.000000
_cell_volume 1762.321217
_symmetry_space_group_name_H-M "C 2/C"
_symmetry_group_IT_number 15
_symmetry_cell_setting 'monoclinic'
loop_
_space_group_symop_operation_xyz
x,y,z
-x,y,1/2-z
-x,-y,-z
x,-y,1/2+z
1/2+x,1/2+y,z
1/2-x,1/2+y,1/2-z
1/2-x,1/2-y,-z
1/2+x,1/2-y,1/2+z
loop_
_atom_site_type_symbol
_atom_site_label
_atom_site_fract_x
_atom_site_fract_y
_atom_site_fract_z
Si Si1 0.752417 0.100300 0.431907
Si Si2 0.365551 0.086790 0.869721
Si Si3 0.389457 0.843231 0.834950
Si Si4 0.012201 0.234575 0.357291
Si Si5 0.733368 0.002011 0.277954
O O1 0.723687 0.066617 0.531730
O O2 0.545133 0.127026 0.400892
O O3 0.879523 0.178000 0.420446
O O4 0.845218 0.038305 0.358061
O O5 0.440402 0.176175 0.869783
O O6 0.220217 0.067771 0.792992
O O7 0.548856 0.034105 0.836690
O O8 0.500000 0.799704 0.750000
O O9 0.301817 0.920316 0.785117
O O10 0.226371 0.787160 0.877075
O O11 0.000000 0.215848 0.250000
#
# Coordination Sequence:
#
# PCOD9264785 Si02
#       5
#     8   8   8   8   8
#     4  11  22  40  69  85 127 165 201 252 312 362
#     4  11  21  38  64  97 118 162 207 257 301 361
#     4  10  20  38  64  86 119 165 204 234 312 367
#     4  12  22  39  66  89 125 164 205 251 309 359
#     4  10  19  35  63  90 117 162 203 238 305 368
#
# _framework density 22.697336
#
# number of rings (size 3 to 8) (size 9 to 14) (size 15 to 20)
#    0.000    1.200   12.000    1.200    0.000    0.800 
#    0.000    1.000   17.600    0.000    0.000    0.000 
#    0.000    0.000    0.000    0.000    0.000    0.000 
#
# Total GULP energy -111489.362197 kJ/mol
# GULP energy per Si atom -5574.468110 kJ/mol
# Density = 2.264568 g / cm^3
# Si number density = 22.697336 Si / 1000 Ang^3
#
#
#
# Elastic Constant Matrix: (Units=GPa)
#
#
# Indices 1 2 3 4 5 6 
#
# 1 68.9588 32.3782 26.1626 0.0000 -8.4990 0.0000
# 2 32.3782 106.7638 18.1902 0.0000 -7.7087 0.0000
# 3 26.1626 18.1902 124.9304 0.0000 0.6791 0.0000
# 4 0.0000 0.0000 0.0000 27.7407 0.0000 -9.5488
# 5 -8.4990 -7.7087 0.6791 0.0000 7.5348 0.0000
# 6 0.0000 0.0000 0.0000 -9.5488 0.0000 12.6763
#
#
#
# Elastic Compliance Matrix: (Units=1/GPa)
#
#
# Indices 1 2 3 4 5 6 
#
# 1 0.020178 -0.004121 -0.003728 0.000000 0.018880 0.000000
# 2 -0.004121 0.011256 -0.000814 0.000000 0.006941 0.000000
# 3 -0.003728 -0.000814 0.008935 0.000000 -0.005843 0.000000
# 4 0.000000 0.000000 0.000000 0.048667 0.000000 0.036660
# 5 0.018880 0.006941 -0.005843 0.000000 0.161642 0.000000
# 6 0.000000 0.000000 0.000000 0.036660 0.000000 0.106503
#
#
# Mechanical properties :
#
#
# Convention : Reuss Voigt Hill
#
# Bulk Modulus (GPa) = 43.39593 50.45724 46.92659
# Shear Modulus (GPa) = 13.08258 24.51848 18.80053
#
# Velocity S-wave (km/s) = 2.40342 3.29026 2.88117
# Velocity P-wave (km/s) = 5.18294 6.05914 5.63808
#
# Compressibility (1/GPa) = 0.02304363
#
# Stress axis : x y z
#
# Youngs Moduli (GPa) = 49.55994 88.84160 111.91401
#
# Poissons Ratio (x) = 0.36610 0.41723
# Poissons Ratio (y) = 0.20423 0.09106
# Poissons Ratio (z) = 0.18477 0.07229
#
# Static dielectric constant tensor:
#      x y z
#    x 1.966140 0.000000 0.054850 
#    y 0.000000 1.839470 0.000000 
#    z 0.054850 0.000000 1.898450 
# 
# From -- ./inp_files/133818.got.cif
#   From: 2010.05.17/outbox.cif.g08.bks.cpg/sg15_67_cif.got.tgz:133818.got - 2010.06.03 18:47:42.
