data_PCOD9264240
_publ_section_title
;
Structure prediction by ZEFSAII (Michael W. Deem and Ramdas Pophale) SiO2 
 PCOD9264240
Probable space group: C 2/C
;
_chemical_formula_sum "Si O2"
_cell_formula_units_Z 52
_cell_length_a 17.611656
_cell_length_b 20.948707
_cell_length_c 7.441589
_cell_angle_alpha 90.000000
_cell_angle_beta 62.603820
_cell_angle_gamma 90.000000
_cell_volume 2437.590626
_symmetry_space_group_name_H-M "C 2/C"
_symmetry_group_IT_number 15
_symmetry_cell_setting 'monoclinic'
loop_
_space_group_symop_operation_xyz
x,y,z
-x,y,1/2-z
-x,-y,-z
x,-y,1/2+z
1/2+x,1/2+y,z
1/2-x,1/2+y,1/2-z
1/2-x,1/2-y,-z
1/2+x,1/2-y,1/2+z
loop_
_atom_site_type_symbol
_atom_site_label
_atom_site_fract_x
_atom_site_fract_y
_atom_site_fract_z
Si Si1 0.000000 0.176898 0.750000
Si Si2 0.808600 0.455176 0.855578
Si Si3 0.159654 0.588188 0.770317
Si Si4 0.066129 0.742741 0.517215
Si Si5 0.313869 0.342907 0.540579
Si Si6 0.472363 0.104446 0.070425
Si Si7 0.748711 0.215163 0.730174
O O1 0.086399 0.141177 0.596783
O O2 0.970553 0.220119 0.615390
O O3 0.792997 0.530615 0.881872
O O4 0.738510 0.406550 0.853253
O O5 0.897811 0.447545 0.650972
O O6 0.824189 0.429418 0.038726
O O7 0.195564 0.658732 0.695568
O O8 0.057147 0.590065 0.864785
O O9 0.069791 0.669455 0.452073
O O10 0.160404 0.768533 0.456300
O O11 0.000000 0.749834 0.750000
O O12 0.301509 0.281202 0.681463
O O13 0.274897 0.315000 0.396025
O O14 0.500000 0.113182 0.250000
#
# Coordination Sequence:
#
# PCOD9264240 Si02
#       7
#     4   8   8   8   8   8   8
#     4  10  20  36  58  84 116 150 198 246 290 346
#     4  10  20  36  56  82 116 156 190 237 293 354
#     4  10  21  35  57  82 116 156 192 235 294 351
#     4  11  21  35  59  89 120 151 193 246 297 343
#     4   9  17  34  62  79 107 156 197 236 295 345
#     4  10  19  35  57  82 116 158 191 231 294 354
#     4   9  18  35  56  84 114 148 195 246 288 345
#
# _framework density 21.332540000000002
#
# number of rings (size 3 to 8) (size 9 to 14) (size 15 to 20)
#    0.000    2.154    2.308    1.385    4.308    1.231 
#    2.769    1.538    1.692    2.769    0.000    0.000 
#    0.000    0.000    0.000    0.000    0.000    0.000 
#
# Total GULP energy -145308.306265 kJ/mol
# GULP energy per Si atom -5588.781010 kJ/mol
# Density = 2.128399 g / cm^3
# Si number density = 21.332540 Si / 1000 Ang^3
#
#
#
# Elastic Constant Matrix: (Units=GPa)
#
#
# Indices 1 2 3 4 5 6 
#
# 1 82.6129 53.6120 40.5681 0.0000 -23.6795 0.0000
# 2 53.6120 131.2278 46.2674 0.0000 -13.8234 0.0000
# 3 40.5681 46.2674 78.1046 0.0000 -19.0070 0.0000
# 4 0.0000 0.0000 0.0000 25.2213 0.0000 -5.6219
# 5 -23.6795 -13.8234 -19.0070 0.0000 33.0963 0.0000
# 6 0.0000 0.0000 0.0000 -5.6219 0.0000 15.2443
#
#
#
# Elastic Compliance Matrix: (Units=1/GPa)
#
#
# Indices 1 2 3 4 5 6 
#
# 1 0.021234 -0.005809 -0.005210 0.000000 0.009774 0.000000
# 2 -0.005809 0.011242 -0.004082 0.000000 -0.001804 0.000000
# 3 -0.005210 -0.004082 0.019303 0.000000 0.005653 0.000000
# 4 0.000000 0.000000 0.000000 0.043200 0.000000 0.015932
# 5 0.009774 -0.001804 0.005653 0.000000 0.039701 0.000000
# 6 0.000000 0.000000 0.000000 0.015932 0.000000 0.071474
#
#
# Mechanical properties :
#
#
# Convention : Reuss Voigt Hill
#
# Bulk Modulus (GPa) = 46.34042 63.64890 54.99466
# Shear Modulus (GPa) = 20.52983 24.81222 22.67102
#
# Velocity S-wave (km/s) = 3.10558 3.41415 3.26351
# Velocity P-wave (km/s) = 5.88468 6.74116 6.32743
#
# Compressibility (1/GPa) = 0.02157943
#
# Stress axis : x y z
#
# Youngs Moduli (GPa) = 47.09416 88.94835 51.80534
#
# Poissons Ratio (x) = 0.51667 0.26988
# Poissons Ratio (y) = 0.27355 0.21146
# Poissons Ratio (z) = 0.24534 0.36308
#
# Static dielectric constant tensor:
#      x y z
#    x 1.804700 0.000000 0.041270 
#    y 0.000000 1.755330 0.000000 
#    z 0.041270 0.000000 1.838690 
# 
# From -- ./inp_files/50595.got.cif
#   From: 2010.05.17/outbox.cif.g08.bks.cpg/sg15_26_cif.got.tgz:50595.got - 2010.06.03 18:47:42.
