data_PCOD9264214
_publ_section_title
;
Structure prediction by ZEFSAII (Michael W. Deem and Ramdas Pophale) SiO2 
 PCOD9264214
Probable space group: C 2/C
;
_chemical_formula_sum "Si O2"
_cell_formula_units_Z 40
_cell_length_a 9.986076
_cell_length_b 29.781324
_cell_length_c 7.151780
_cell_angle_alpha 90.000000
_cell_angle_beta 56.997324
_cell_angle_gamma 90.000000
_cell_volume 1783.738738
_symmetry_space_group_name_H-M "C 2/C"
_symmetry_group_IT_number 15
_symmetry_cell_setting 'monoclinic'
loop_
_space_group_symop_operation_xyz
x,y,z
-x,y,1/2-z
-x,-y,-z
x,-y,1/2+z
1/2+x,1/2+y,z
1/2-x,1/2+y,1/2-z
1/2-x,1/2-y,-z
1/2+x,1/2-y,1/2+z
loop_
_atom_site_type_symbol
_atom_site_label
_atom_site_fract_x
_atom_site_fract_y
_atom_site_fract_z
Si Si1 0.675670 0.049386 0.041814
Si Si2 0.377458 0.469450 0.709567
Si Si3 0.270623 0.268907 0.271551
Si Si4 0.085658 0.187298 0.369142
Si Si5 0.170327 0.353749 0.515976
O O1 0.500000 0.039251 0.250000
O O2 0.778359 0.060522 0.147330
O O3 0.684207 0.095775 0.922555
O O4 0.755017 0.005360 0.892976
O O5 0.500000 0.444367 0.750000
O O6 0.500000 0.500000 0.500000
O O7 0.250000 0.250000 0.500000
O O8 0.205860 0.226393 0.207238
O O9 0.173051 0.315400 0.356659
O O10 0.445808 0.285289 0.082459
O O11 0.186782 0.157995 0.443295
O O12 0.000000 0.166515 0.250000
O O13 0.000000 0.352244 0.750000
#
# Coordination Sequence:
#
# PCOD9264214 Si02
#       5
#     8   8   8   8   8
#     4  10  20  36  58  81 109 145 185 228 276 335
#     4   9  19  34  55  80 107 139 177 225 276 328
#     4  10  19  35  57  79 108 148 186 222 272 336
#     4  11  22  36  57  84 112 145 185 236 279 318
#     4  10  21  37  56  80 110 147 187 223 270 337
#
# _framework density 22.424807000000001
#
# number of rings (size 3 to 8) (size 9 to 14) (size 15 to 20)
#    0.000    2.000    0.000    6.000    0.000    5.600 
#    0.000    2.000    0.000   10.800    0.000    0.000 
#    0.000    0.000    0.000    0.000    0.000    0.000 
#
# Total GULP energy -111386.072610 kJ/mol
# GULP energy per Si atom -5569.303630 kJ/mol
# Density = 2.237377 g / cm^3
# Si number density = 22.424807 Si / 1000 Ang^3
#
#
#
# Elastic Constant Matrix: (Units=GPa)
#
#
# Indices 1 2 3 4 5 6 
#
# 1 64.2607 -14.6864 4.3116 0.0000 -12.6475 0.0000
# 2 -14.6864 104.6545 8.1759 0.0000 -12.4080 0.0000
# 3 4.3116 8.1759 65.5330 0.0000 -28.2248 0.0000
# 4 0.0000 0.0000 0.0000 0.0812 0.0000 14.8267
# 5 -12.6475 -12.4080 -28.2248 0.0000 31.0009 0.0000
# 6 0.0000 0.0000 0.0000 14.8267 0.0000 7.4706
#
#
#
# Elastic Compliance Matrix: (Units=1/GPa)
#
#
# Indices 1 2 3 4 5 6 
#
# 1 0.018640 0.003807 0.003669 0.000000 0.012469 0.000000
# 2 0.003807 0.010834 0.001537 0.000000 0.007289 0.000000
# 3 0.003669 0.001537 0.025887 0.000000 0.025681 0.000000
# 4 0.000000 0.000000 0.000000 -0.034077 0.000000 0.067632
# 5 0.012469 0.007289 0.025681 0.000000 0.063643 0.000000
# 6 0.000000 0.000000 0.000000 0.067632 0.000000 -0.000370
#
#
# Mechanical properties :
#
#
# Convention : Reuss Voigt Hill
#
# Bulk Modulus (GPa) = 13.62634 25.56114 19.59374
# Shear Modulus (GPa) = 54.95078 23.48701 39.21890
#
# Velocity S-wave (km/s) = 4.95557 3.23982 4.18653
# Velocity P-wave (km/s) = 6.23163 5.04168 5.66797
#
# Compressibility (1/GPa) = 0.07338726
#
# Stress axis : x y z
#
# Youngs Moduli (GPa) = 53.64913 92.30485 38.62955
#
# Poissons Ratio (x) = -0.35144 -0.14173
# Poissons Ratio (y) = -0.20427 -0.05938
# Poissons Ratio (z) = -0.19683 -0.14190
#
# Static dielectric constant tensor:
#      x y z
#    x 1.665370 0.000000 -0.041290 
#    y 0.000000 1.833890 0.000000 
#    z -0.041290 0.000000 1.823260 
# 
# From -- ./inp_files/34984.got.cif
#   From: 2010.05.17/outbox.cif.g08.bks.cpg/sg15_18_cif.got.tgz:34984.got - 2010.06.03 18:47:42.
