data_PCOD9264720
_publ_section_title
;
Structure prediction by ZEFSAII (Michael W. Deem and Ramdas Pophale) SiO2 
 PCOD9264720
Probable space group: C 2/C
;
_chemical_formula_sum "Si O2"
_cell_formula_units_Z 52
_cell_length_a 25.891770
_cell_length_b 14.786461
_cell_length_c 9.596333
_cell_angle_alpha 90.000000
_cell_angle_beta 145.812366
_cell_angle_gamma 90.000000
_cell_volume 2064.401089
_symmetry_space_group_name_H-M "C 2/C"
_symmetry_group_IT_number 15
_symmetry_cell_setting 'monoclinic'
loop_
_space_group_symop_operation_xyz
x,y,z
-x,y,1/2-z
-x,-y,-z
x,-y,1/2+z
1/2+x,1/2+y,z
1/2-x,1/2+y,1/2-z
1/2-x,1/2-y,-z
1/2+x,1/2-y,1/2+z
loop_
_atom_site_type_symbol
_atom_site_label
_atom_site_fract_x
_atom_site_fract_y
_atom_site_fract_z
Si Si1 0.322303 0.178397 0.357896
Si Si2 0.133973 0.000763 0.243438
Si Si3 0.751231 0.857752 0.339716
Si Si4 0.901740 0.386622 0.298086
Si Si5 0.000000 0.714834 0.250000
Si Si6 0.331481 0.080755 0.108262
Si Si7 0.117653 0.115282 0.943058
O O1 0.296145 0.278039 0.350883
O O2 0.400634 0.141027 0.634749
O O3 0.345321 0.162537 0.247523
O O4 0.228529 0.121218 0.177042
O O5 0.169087 0.074573 0.434065
O O6 0.226552 0.952724 0.396465
O O7 0.081438 0.925575 0.216409
O O8 0.094578 0.052035 0.022673
O O9 0.692965 0.841648 0.350781
O O10 0.672241 0.899319 0.063425
O O11 0.979165 0.344320 0.567383
O O12 0.892134 0.494491 0.285149
O O13 0.918585 0.785247 0.104247
#
# Coordination Sequence:
#
# PCOD9264720 Si02
#       7
#     8   8   8   8   4   8   8
#     4  11  20  36  63  91 117 149 196 251 289 349
#     4  10  19  35  62  88 121 153 189 251 297 353
#     4  11  18  34  61  95 115 147 194 250 296 338
#     4  11  21  39  59  87 117 158 200 238 291 348
#     4  12  26  38  60  86 120 164 202 242 278 364
#     4  10  20  35  60  94 118 147 192 249 306 334
#     4  11  21  39  59  90 121 155 198 239 303 346
#
# _framework density 25.188904000000001
#
# number of rings (size 3 to 8) (size 9 to 14) (size 15 to 20)
#    0.000    1.231    6.154    3.692    0.000    0.615 
#    0.000    3.077    0.000    1.846    0.000    0.000 
#    0.000    0.000    0.000    0.000    0.000    0.000 
#
# Total GULP energy -145526.505248 kJ/mol
# GULP energy per Si atom -5597.173279 kJ/mol
# Density = 2.513157 g / cm^3
# Si number density = 25.188904 Si / 1000 Ang^3
#
#
#
# Elastic Constant Matrix: (Units=GPa)
#
#
# Indices 1 2 3 4 5 6 
#
# 1 69.8985 2.8965 22.2444 0.0000 -12.9629 0.0000
# 2 2.8965 79.9825 15.5014 0.0000 -17.5811 0.0000
# 3 22.2444 15.5014 105.4115 0.0000 -27.1737 0.0000
# 4 0.0000 0.0000 0.0000 37.5619 0.0000 -12.9708
# 5 -12.9629 -17.5811 -27.1737 0.0000 41.1631 0.0000
# 6 0.0000 0.0000 0.0000 -12.9708 0.0000 16.8186
#
#
#
# Elastic Compliance Matrix: (Units=1/GPa)
#
#
# Indices 1 2 3 4 5 6 
#
# 1 0.015741 0.000707 -0.002495 0.000000 0.003613 0.000000
# 2 0.000707 0.013863 -0.000728 0.000000 0.005663 0.000000
# 3 -0.002495 -0.000728 0.011855 0.000000 0.006729 0.000000
# 4 0.000000 0.000000 0.000000 0.036286 0.000000 0.027985
# 5 0.003613 0.005663 0.006729 0.000000 0.032292 0.000000
# 6 0.000000 0.000000 0.000000 0.027985 0.000000 0.081040
#
#
# Mechanical properties :
#
#
# Convention : Reuss Voigt Hill
#
# Bulk Modulus (GPa) = 27.45089 37.39749 32.42419
# Shear Modulus (GPa) = 24.00947 33.41871 28.71409
#
# Velocity S-wave (km/s) = 3.09071 3.64637 3.37998
# Velocity P-wave (km/s) = 4.86398 5.71026 5.30403
#
# Compressibility (1/GPa) = 0.03642869
#
# Stress axis : x y z
#
# Youngs Moduli (GPa) = 63.52861 72.13422 84.35362
#
# Poissons Ratio (x) = -0.05103 0.21042
# Poissons Ratio (y) = -0.04495 0.06141
# Poissons Ratio (z) = 0.15847 0.05252
#
# Static dielectric constant tensor:
#      x y z
#    x 2.022210 0.000000 0.051670 
#    y 0.000000 1.986910 0.000000 
#    z 0.051670 0.000000 2.005950 
# 
# From -- ./inp_files/70193.got.cif
#   From: 2010.05.17/outbox.cif.g08.bks.cpg/sg15_36_cif.got.tgz:70193.got - 2010.06.03 18:47:42.
