data_PCOD9264121
_publ_section_title
;
Structure prediction by ZEFSAII (Michael W. Deem and Ramdas Pophale) SiO2 
 PCOD9264121
Probable space group: C 2/C
;
_chemical_formula_sum "Si O2"
_cell_formula_units_Z 64
_cell_length_a 24.905355
_cell_length_b 14.447954
_cell_length_c 13.934990
_cell_angle_alpha 90.000000
_cell_angle_beta 33.037987
_cell_angle_gamma 90.000000
_cell_volume 2733.742311
_symmetry_space_group_name_H-M "C 2/C"
_symmetry_group_IT_number 15
_symmetry_cell_setting 'monoclinic'
loop_
_space_group_symop_operation_xyz
x,y,z
-x,y,1/2-z
-x,-y,-z
x,-y,1/2+z
1/2+x,1/2+y,z
1/2-x,1/2+y,1/2-z
1/2-x,1/2-y,-z
1/2+x,1/2-y,1/2+z
loop_
_atom_site_type_symbol
_atom_site_label
_atom_site_fract_x
_atom_site_fract_y
_atom_site_fract_z
Si Si1 0.083292 0.685889 0.056693
Si Si2 0.353689 0.733506 0.397433
Si Si3 0.088432 0.940769 0.903349
Si Si4 0.611316 0.972603 0.069591
Si Si5 0.497520 0.243164 0.517539
Si Si6 0.273324 0.454859 0.967022
Si Si7 0.200100 0.211818 0.809769
Si Si8 0.234955 0.995324 0.817098
O O1 0.105746 0.585663 0.072267
O O2 0.000000 0.730568 0.250000
O O3 0.034672 0.675433 0.021961
O O4 0.189063 0.737307 0.888995
O O5 0.250000 0.750000 0.500000
O O6 0.444070 0.771904 0.200350
O O7 0.351228 0.620932 0.390397
O O8 0.337180 0.755353 0.533437
O O9 0.058481 0.836219 0.931804
O O10 0.173924 0.985084 0.708840
O O11 0.131276 0.951131 0.944048
O O12 0.000000 0.000000 0.000000
O O13 0.500000 0.941733 0.250000
O O14 0.673476 0.952889 0.879392
O O15 0.669373 0.931304 0.073923
O O16 0.612450 0.265976 0.365945
O O17 0.248816 0.515496 0.094807
O O18 0.219413 0.103606 0.810513
#
# Coordination Sequence:
#
# PCOD9264121 Si02
#       8
#     8   8   8   8   8   8   8   8
#     4  10  22  40  58  81 117 161 204 240 280 344
#     4  10  19  36  62  88 120 143 182 243 300 355
#     4  10  19  35  55  86 120 140 185 243 282 352
#     4   9  19  38  60  80 112 154 201 241 276 335
#     4  11  21  36  60  88 117 158 191 237 301 346
#     4   9  20  34  60  86 112 150 189 234 291 341
#     4  10  19  36  62  84 114 150 192 238 300 352
#     4   9  18  35  57  85 112 147 186 236 298 341
#
# _framework density 23.41113
#
# number of rings (size 3 to 8) (size 9 to 14) (size 15 to 20)
#    0.000    2.250    2.500    0.375    0.000    1.500 
#    2.250    3.750    0.000    0.000    0.000    0.000 
#    0.000    0.000    0.000    0.000    0.000    0.000 
#
# Total GULP energy -178170.384862 kJ/mol
# GULP energy per Si atom -5567.824527 kJ/mol
# Density = 2.335785 g / cm^3
# Si number density = 23.411130 Si / 1000 Ang^3
#
#
#
# Elastic Constant Matrix: (Units=GPa)
#
#
# Indices 1 2 3 4 5 6 
#
# 1 112.7612 6.0682 58.2080 0.0000 -4.4999 0.0000
# 2 6.0682 54.1434 -2.6997 0.0000 6.0660 0.0000
# 3 58.2080 -2.6997 134.2076 0.0000 -23.8498 0.0000
# 4 0.0000 0.0000 0.0000 6.3267 0.0000 -3.8175
# 5 -4.4999 6.0660 -23.8498 0.0000 36.9980 0.0000
# 6 0.0000 0.0000 0.0000 -3.8175 0.0000 33.0417
#
#
#
# Elastic Compliance Matrix: (Units=1/GPa)
#
#
# Indices 1 2 3 4 5 6 
#
# 1 0.011663 -0.001370 -0.005414 0.000000 -0.001847 0.000000
# 2 -0.001370 0.018980 0.000444 0.000000 -0.002992 0.000000
# 3 -0.005414 0.000444 0.010931 0.000000 0.006315 0.000000
# 4 0.000000 0.000000 0.000000 0.169905 0.000000 0.019630
# 5 -0.001847 -0.002992 0.006315 0.000000 0.031365 0.000000
# 6 0.000000 0.000000 0.000000 0.019630 0.000000 0.032533
#
#
# Mechanical properties :
#
#
# Convention : Reuss Voigt Hill
#
# Bulk Modulus (GPa) = 34.60944 47.14056 40.87500
# Shear Modulus (GPa) = 16.79611 31.24234 24.01922
#
# Velocity S-wave (km/s) = 2.68141 3.65705 3.20656
# Velocity P-wave (km/s) = 4.93984 6.16537 5.58631
#
# Compressibility (1/GPa) = 0.02889385
#
# Stress axis : x y z
#
# Youngs Moduli (GPa) = 85.73955 52.68591 91.48688
#
# Poissons Ratio (x) = 0.07219 0.49534
# Poissons Ratio (y) = 0.11748 -0.04065
# Poissons Ratio (z) = 0.46422 -0.02341
#
# Static dielectric constant tensor:
#      x y z
#    x 2.028900 0.000000 -0.103230 
#    y 0.000000 2.027360 0.000000 
#    z -0.103230 0.000000 2.022340 
# 
# From -- ./inp_files/174220.got.cif
#   From: 2010.05.17/outbox.cif.g08.bks.cpg/sg15_88_cif.got.tgz:174220.got - 2010.06.03 18:47:42.
