data_PCOD9264270
_publ_section_title
;
Structure prediction by ZEFSAII (Michael W. Deem and Ramdas Pophale) SiO2 
 PCOD9264270
Probable space group: C 2/C
;
_chemical_formula_sum "Si O2"
_cell_formula_units_Z 40
_cell_length_a 15.440225
_cell_length_b 15.041153
_cell_length_c 14.614415
_cell_angle_alpha 90.000000
_cell_angle_beta 141.591093
_cell_angle_gamma 90.000000
_cell_volume 2108.610160
_symmetry_space_group_name_H-M "C 2/C"
_symmetry_group_IT_number 15
_symmetry_cell_setting 'monoclinic'
loop_
_space_group_symop_operation_xyz
x,y,z
-x,y,1/2-z
-x,-y,-z
x,-y,1/2+z
1/2+x,1/2+y,z
1/2-x,1/2+y,1/2-z
1/2-x,1/2-y,-z
1/2+x,1/2-y,1/2+z
loop_
_atom_site_type_symbol
_atom_site_label
_atom_site_fract_x
_atom_site_fract_y
_atom_site_fract_z
Si Si1 0.201059 0.962150 0.186209
Si Si2 0.213554 0.352911 0.963448
Si Si3 0.542978 0.487881 0.380841
Si Si4 0.389756 0.173742 0.926044
Si Si5 0.813863 0.341988 0.761058
O O1 0.329624 0.895631 0.303004
O O2 0.086443 0.946230 0.170460
O O3 0.249744 0.064203 0.238643
O O4 0.124685 0.955372 0.024918
O O5 0.135579 0.359940 0.801828
O O6 0.250000 0.250000 0.000000
O O7 0.352217 0.410462 0.063618
O O8 0.147365 0.371893 0.006687
O O9 0.500000 0.533770 0.250000
O O10 0.303607 0.265239 0.841962
O O11 0.555367 0.186882 0.069064
#
# Coordination Sequence:
#
# PCOD9264270 Si02
#       5
#     8   8   8   8   8
#     4  10  22  35  58  85 120 156 194 234 297 347
#     4   9  19  30  53  86 121 144 182 233 297 354
#     4  10  19  35  57  86 113 153 193 234 287 352
#     4  11  21  36  58  84 122 152 192 245 292 348
#     4  10  23  35  55  88 119 157 191 238 294 351
#
# _framework density 18.969840999999999
#
# number of rings (size 3 to 8) (size 9 to 14) (size 15 to 20)
#    0.000    2.000    2.000    1.200   11.200    0.000 
#    0.000    0.000    0.000    1.200    0.000    0.000 
#    0.000    0.000    0.000    0.000    0.000    0.000 
#
# Total GULP energy -111448.820401 kJ/mol
# GULP energy per Si atom -5572.441020 kJ/mol
# Density = 1.892666 g / cm^3
# Si number density = 18.969841 Si / 1000 Ang^3
#
#
#
# Elastic Constant Matrix: (Units=GPa)
#
#
# Indices 1 2 3 4 5 6 
#
# 1 41.0044 3.8995 19.2110 0.0000 -8.2454 0.0000
# 2 3.8995 63.9034 33.2027 0.0000 1.7569 0.0000
# 3 19.2110 33.2027 159.6225 0.0000 -1.7976 0.0000
# 4 0.0000 0.0000 0.0000 23.5570 0.0000 -3.2884
# 5 -8.2454 1.7569 -1.7976 0.0000 29.0135 0.0000
# 6 0.0000 0.0000 0.0000 -3.2884 0.0000 17.8115
#
#
#
# Elastic Compliance Matrix: (Units=1/GPa)
#
#
# Indices 1 2 3 4 5 6 
#
# 1 0.027424 -0.000238 -0.003165 0.000000 0.007612 0.000000
# 2 -0.000238 0.017595 -0.003647 0.000000 -0.001359 0.000000
# 3 -0.003165 -0.003647 0.007402 0.000000 -0.000220 0.000000
# 4 0.000000 0.000000 0.000000 0.043573 0.000000 0.008044
# 5 0.007612 -0.001359 -0.000220 0.000000 0.036699 0.000000
# 6 0.000000 0.000000 0.000000 0.008044 0.000000 0.057629
#
#
# Mechanical properties :
#
#
# Convention : Reuss Voigt Hill
#
# Bulk Modulus (GPa) = 26.09545 41.90631 34.00088
# Shear Modulus (GPa) = 23.02078 27.95752 25.48915
#
# Velocity S-wave (km/s) = 3.48738 3.84316 3.66958
# Velocity P-wave (km/s) = 5.47740 6.46778 5.99308
#
# Compressibility (1/GPa) = 0.03832085
#
# Stress axis : x y z
#
# Youngs Moduli (GPa) = 36.46454 56.83375 135.10286
#
# Poissons Ratio (x) = 0.01353 0.42764
# Poissons Ratio (y) = 0.00868 0.49266
# Poissons Ratio (z) = 0.11542 0.20725
#
# Static dielectric constant tensor:
#      x y z
#    x 1.682450 0.000000 -0.010140 
#    y 0.000000 1.633650 0.000000 
#    z -0.010140 0.000000 1.743230 
# 
# From -- ./inp_files/37862.got.cif
#   From: 2010.05.17/outbox.cif.g08.bks.cpg/sg15_19_cif.got.tgz:37862.got - 2010.06.03 18:47:42.
