data_PCOD9264170
_publ_section_title
;
Structure prediction by ZEFSAII (Michael W. Deem and Ramdas Pophale) SiO2 
 PCOD9264170
Probable space group: C 2/C
;
_chemical_formula_sum "Si O2"
_cell_formula_units_Z 56
_cell_length_a 11.760393
_cell_length_b 23.593412
_cell_length_c 12.084325
_cell_angle_alpha 90.000000
_cell_angle_beta 60.209124
_cell_angle_gamma 90.000000
_cell_volume 2909.892466
_symmetry_space_group_name_H-M "C 2/C"
_symmetry_group_IT_number 15
_symmetry_cell_setting 'monoclinic'
loop_
_space_group_symop_operation_xyz
x,y,z
-x,y,1/2-z
-x,-y,-z
x,-y,1/2+z
1/2+x,1/2+y,z
1/2-x,1/2+y,1/2-z
1/2-x,1/2-y,-z
1/2+x,1/2-y,1/2+z
loop_
_atom_site_type_symbol
_atom_site_label
_atom_site_fract_x
_atom_site_fract_y
_atom_site_fract_z
Si Si1 0.250303 0.452194 0.395466
Si Si2 0.166470 0.169164 0.001615
Si Si3 0.013261 0.400943 0.377863
Si Si4 0.315491 0.446377 0.598268
Si Si5 0.607598 0.573310 0.871098
Si Si6 0.545602 0.778067 0.106573
Si Si7 0.264759 0.581493 0.366565
O O1 0.122831 0.440284 0.381641
O O2 0.226118 0.436304 0.534115
O O3 0.363804 0.421034 0.272293
O O4 0.301929 0.516867 0.375314
O O5 0.062478 0.219379 0.033081
O O6 0.145252 0.128151 0.117594
O O7 0.175741 0.125891 0.896900
O O8 0.307879 0.196999 0.952828
O O9 0.000000 0.408929 0.250000
O O10 0.038246 0.333369 0.386436
O O11 0.877956 0.413323 0.507778
O O12 0.328391 0.513205 0.622422
O O13 0.459712 0.428378 0.486755
O O14 0.270508 0.414883 0.731219
O O15 0.500000 0.760791 0.250000
#
# Coordination Sequence:
#
# PCOD9264170 Si02
#       7
#     8   8   8   8   8   8   8
#     4  11  20  36  56  78 119 150 185 228 279 357
#     4  10  19  35  56  83 113 139 189 243 275 331
#     4  10  21  37  58  82 111 147 189 238 286 335
#     4  10  22  33  52  84 115 151 183 221 281 347
#     4  10  20  35  53  79 115 151 185 224 278 334
#     4   9  19  33  55  85 104 140 189 241 291 312
#     4  10  21  34  52  86 113 148 187 225 286 339
#
# _framework density 19.244698
#
# number of rings (size 3 to 8) (size 9 to 14) (size 15 to 20)
#    0.000    2.000    1.429    3.429    4.000    0.571 
#    0.000    0.000    0.000    0.857   11.143    0.000 
#    0.000    0.000    0.000    0.000    0.000    0.000 
#
# Total GULP energy -155953.789172 kJ/mol
# GULP energy per Si atom -5569.778185 kJ/mol
# Density = 1.920090 g / cm^3
# Si number density = 19.244698 Si / 1000 Ang^3
#
#
#
# Elastic Constant Matrix: (Units=GPa)
#
#
# Indices 1 2 3 4 5 6 
#
# 1 39.6391 7.8343 12.8002 0.0000 12.5327 0.0000
# 2 7.8343 79.3285 13.8020 0.0000 6.2542 0.0000
# 3 12.8002 13.8020 130.3851 0.0000 19.5478 0.0000
# 4 0.0000 0.0000 0.0000 21.2582 0.0000 3.1120
# 5 12.5327 6.2542 19.5478 0.0000 29.6221 0.0000
# 6 0.0000 0.0000 0.0000 3.1120 0.0000 44.2673
#
#
#
# Elastic Compliance Matrix: (Units=1/GPa)
#
#
# Indices 1 2 3 4 5 6 
#
# 1 0.029532 -0.001842 -0.000987 0.000000 -0.011454 0.000000
# 2 -0.001842 0.013066 -0.001005 0.000000 -0.001316 0.000000
# 3 -0.000987 -0.001005 0.008633 0.000000 -0.005067 0.000000
# 4 0.000000 0.000000 0.000000 0.047530 0.000000 -0.003341
# 5 -0.011454 -0.001316 -0.005067 0.000000 0.042226 0.000000
# 6 0.000000 0.000000 0.000000 -0.003341 0.000000 0.022825
#
#
# Mechanical properties :
#
#
# Convention : Reuss Voigt Hill
#
# Bulk Modulus (GPa) = 22.95510 35.35841 29.15676
# Shear Modulus (GPa) = 26.88167 33.35726 30.11946
#
# Velocity S-wave (km/s) = 3.74148 4.16783 3.96040
# Velocity P-wave (km/s) = 5.53343 6.44780 6.00803
#
# Compressibility (1/GPa) = 0.04356330
#
# Stress axis : x y z
#
# Youngs Moduli (GPa) = 33.86175 76.53267 115.84111
#
# Poissons Ratio (x) = 0.14095 0.11433
# Poissons Ratio (y) = 0.06236 0.11642
# Poissons Ratio (z) = 0.03342 0.07692
#
# Static dielectric constant tensor:
#      x y z
#    x 1.736380 0.000000 -0.030290 
#    y 0.000000 1.724490 0.000000 
#    z -0.030290 0.000000 1.736910 
# 
# From -- ./inp_files/90686.got.cif
#   From: 2010.05.17/outbox.cif.g08.bks.cpg/sg15_46_cif.got.tgz:90686.got - 2010.06.03 18:47:42.
