data_PCOD9264858
_publ_section_title
;
Structure prediction by ZEFSAII (Michael W. Deem and Ramdas Pophale) SiO2 
 PCOD9264858
Probable space group: C 2/C
;
_chemical_formula_sum "Si O2"
_cell_formula_units_Z 32
_cell_length_a 8.264515
_cell_length_b 17.478376
_cell_length_c 18.003233
_cell_angle_alpha 90.000000
_cell_angle_beta 30.817831
_cell_angle_gamma 90.000000
_cell_volume 1332.299664
_symmetry_space_group_name_H-M "C 2/C"
_symmetry_group_IT_number 15
_symmetry_cell_setting 'monoclinic'
loop_
_space_group_symop_operation_xyz
x,y,z
-x,y,1/2-z
-x,-y,-z
x,-y,1/2+z
1/2+x,1/2+y,z
1/2-x,1/2+y,1/2-z
1/2-x,1/2-y,-z
1/2+x,1/2-y,1/2+z
loop_
_atom_site_type_symbol
_atom_site_label
_atom_site_fract_x
_atom_site_fract_y
_atom_site_fract_z
Si Si1 0.857394 0.717318 0.636078
Si Si2 0.219000 0.895211 0.308191
Si Si3 0.557831 0.940557 0.041652
Si Si4 0.630198 0.388330 0.910219
O O1 0.500000 0.717869 0.750000
O O2 0.821647 0.687915 0.735038
O O3 0.971057 0.802336 0.575251
O O4 0.026157 0.647581 0.526473
O O5 0.500000 0.921968 0.250000
O O6 0.926786 0.892579 0.478526
O O7 0.264823 0.944683 0.215838
O O8 0.885359 0.941397 0.960169
O O9 0.500000 0.000000 0.000000
O O10 0.000000 0.400227 0.750000
#
# Coordination Sequence:
#
# PCOD9264858 Si02
#       4
#     8   8   8   8
#     4   9  19  34  66  96 145 180 238 292 359 406
#     4   8  18  34  61  96 140 187 226 292 356 410
#     4   9  19  38  64  92 143 196 239 281 356 431
#     4  10  19  35  66 107 142 184 240 302 353 418
#
# _framework density 24.018621
#
# number of rings (size 3 to 8) (size 9 to 14) (size 15 to 20)
#    1.500    1.500    0.000    0.750    0.000    4.000 
#    0.000    1.250   11.000    7.500    0.000    5.250 
#    0.000    0.000    0.000    0.000    0.000    0.000 
#
# Total GULP energy -89132.051663 kJ/mol
# GULP energy per Si atom -5570.753229 kJ/mol
# Density = 2.396395 g / cm^3
# Si number density = 24.018621 Si / 1000 Ang^3
#
#
#
# Elastic Constant Matrix: (Units=GPa)
#
#
# Indices 1 2 3 4 5 6 
#
# 1 113.7285 68.1718 70.0011 0.2045 23.2692 -0.1818
# 2 68.1718 167.9575 58.4438 -0.0216 21.2777 0.0397
# 3 70.0011 58.4438 206.1415 0.0341 22.0401 0.0635
# 4 0.2045 -0.0216 0.0341 20.8788 -0.0646 3.3793
# 5 23.2692 21.2777 22.0401 -0.0646 41.5466 0.0644
# 6 -0.1818 0.0397 0.0635 3.3793 0.0644 29.1263
#
#
#
# Elastic Compliance Matrix: (Units=1/GPa)
#
#
# Indices 1 2 3 4 5 6 
#
# 1 0.014020 -0.004070 -0.003170 -0.000170 -0.004087 0.000129
# 2 -0.004070 0.008048 -0.000745 0.000051 -0.001447 -0.000037
# 3 -0.003170 -0.000745 0.006263 0.000022 -0.001165 -0.000032
# 4 -0.000170 0.000051 0.000022 0.048815 0.000142 -0.005665
# 5 -0.004087 -0.001447 -0.001165 0.000142 0.027718 -0.000099
# 6 0.000129 -0.000037 -0.000032 -0.005665 -0.000099 0.034992
#
#
# Mechanical properties :
#
#
# Convention : Reuss Voigt Hill
#
# Bulk Modulus (GPa) = 80.89358 97.89567 89.39463
# Shear Modulus (GPa) = 31.26022 37.72437 34.49230
#
# Velocity S-wave (km/s) = 3.61154 3.96742 3.79366
# Velocity P-wave (km/s) = 7.15148 7.86345 7.51590
#
# Compressibility (1/GPa) = 0.01236192
#
# Stress axis : x y z
#
# Youngs Moduli (GPa) = 71.32421 124.24820 159.65696
#
# Poissons Ratio (x) = 0.50568 0.50615
# Poissons Ratio (y) = 0.29028 0.11895
# Poissons Ratio (z) = 0.22611 0.09257
#
# Static dielectric constant tensor:
#      x y z
#    x 1.946720 -0.000020 -0.047820 
#    y -0.000020 2.023120 0.000080 
#    z -0.047820 0.000080 2.047680 
# 
# From -- ./inp_files/191864.got.cif
#   From: 2010.05.17/outbox.cif.g08.bks.cpg/sg15_96_cif.got.tgz:191864.got - 2010.06.03 18:47:42.
