data_PCOD9264310
_publ_section_title
;
Structure prediction by ZEFSAII (Michael W. Deem and Ramdas Pophale) SiO2 
 PCOD9264310
Probable space group: C 2/C
;
_chemical_formula_sum "Si O2"
_cell_formula_units_Z 64
_cell_length_a 13.252156
_cell_length_b 15.282730
_cell_length_c 21.417511
_cell_angle_alpha 90.000000
_cell_angle_beta 130.973997
_cell_angle_gamma 90.000000
_cell_volume 3274.972058
_symmetry_space_group_name_H-M "C 2/C"
_symmetry_group_IT_number 15
_symmetry_cell_setting 'monoclinic'
loop_
_space_group_symop_operation_xyz
x,y,z
-x,y,1/2-z
-x,-y,-z
x,-y,1/2+z
1/2+x,1/2+y,z
1/2-x,1/2+y,1/2-z
1/2-x,1/2-y,-z
1/2+x,1/2-y,1/2+z
loop_
_atom_site_type_symbol
_atom_site_label
_atom_site_fract_x
_atom_site_fract_y
_atom_site_fract_z
Si Si1 0.712602 0.154857 0.851895
Si Si2 0.485075 0.595658 0.523622
Si Si3 0.342608 0.507602 0.193324
Si Si4 0.170903 0.386418 0.195679
Si Si5 0.228261 0.107135 0.956689
Si Si6 0.109147 0.730503 0.556425
Si Si7 0.882839 0.547622 0.572531
Si Si8 0.694262 0.837865 0.573735
O O1 0.655510 0.149880 0.759132
O O2 0.649238 0.083753 0.872145
O O3 0.715956 0.250636 0.884926
O O4 0.866817 0.130052 0.906706
O O5 0.500000 0.500000 0.500000
O O6 0.402817 0.604225 0.554159
O O7 0.410736 0.665791 0.449132
O O8 0.500000 0.526437 0.250000
O O9 0.297333 0.449835 0.234550
O O10 0.302145 0.446188 0.118715
O O11 0.253493 0.594485 0.148247
O O12 0.165109 0.307556 0.143799
O O13 0.039887 0.442848 0.125457
O O14 0.292476 0.197074 0.958294
O O15 0.334279 0.049621 0.038745
O O16 0.962012 0.688795 0.482648
O O17 0.804714 0.611815 0.492343
#
# Coordination Sequence:
#
# PCOD9264310 Si02
#       8
#     8   8   8   8   8   8   8   8
#     4  11  21  36  53  83 120 147 185 239 302 339
#     4  11  21  37  58  88 117 151 193 248 293 337
#     4  10  20  36  56  83 113 148 187 237 288 347
#     4  10  21  37  55  81 112 154 185 234 288 351
#     4  10  19  36  60  84 109 153 196 234 288 348
#     4   9  20  38  61  81 113 154 199 234 285 359
#     4  10  19  35  58  79 110 149 192 235 282 349
#     4   9  20  36  56  83 109 147 194 237 283 354
#
# _framework density 19.542151
#
# number of rings (size 3 to 8) (size 9 to 14) (size 15 to 20)
#    0.000    2.000    1.250    2.625    0.000    4.000 
#    4.500    0.000    0.000    0.000    0.000    0.000 
#    0.000    0.000    0.000    0.000    0.000    0.000 
#
# Total GULP energy -178421.619779 kJ/mol
# GULP energy per Si atom -5575.675618 kJ/mol
# Density = 1.949767 g / cm^3
# Si number density = 19.542151 Si / 1000 Ang^3
#
#
#
# Elastic Constant Matrix: (Units=GPa)
#
#
# Indices 1 2 3 4 5 6 
#
# 1 73.7135 18.4421 6.2632 0.0000 -11.3458 0.0000
# 2 18.4421 89.6572 25.1521 0.0000 -4.8677 0.0000
# 3 6.2632 25.1521 53.4879 0.0000 -8.7706 0.0000
# 4 0.0000 0.0000 0.0000 15.0189 0.0000 3.1193
# 5 -11.3458 -4.8677 -8.7706 0.0000 27.7337 0.0000
# 6 0.0000 0.0000 0.0000 3.1193 0.0000 22.7301
#
#
#
# Elastic Compliance Matrix: (Units=1/GPa)
#
#
# Indices 1 2 3 4 5 6 
#
# 1 0.015161 -0.002963 0.000580 0.000000 0.005866 0.000000
# 2 -0.002963 0.013431 -0.006097 0.000000 -0.000783 0.000000
# 3 0.000580 -0.006097 0.022527 0.000000 0.006291 0.000000
# 4 0.000000 0.000000 0.000000 0.068536 0.000000 -0.009405
# 5 0.005866 -0.000783 0.006291 0.000000 0.040309 0.000000
# 6 0.000000 0.000000 0.000000 -0.009405 0.000000 0.045285
#
#
# Mechanical properties :
#
#
# Convention : Reuss Voigt Hill
#
# Bulk Modulus (GPa) = 29.27568 35.17481 32.22525
# Shear Modulus (GPa) = 21.40456 24.22996 22.81726
#
# Velocity S-wave (km/s) = 3.31313 3.52502 3.42071
# Velocity P-wave (km/s) = 5.44509 5.88270 5.66812
#
# Compressibility (1/GPa) = 0.03415805
#
# Stress axis : x y z
#
# Youngs Moduli (GPa) = 65.95949 74.45458 44.39183
#
# Poissons Ratio (x) = 0.22059 -0.02573
# Poissons Ratio (y) = 0.19542 0.27067
# Poissons Ratio (z) = -0.03824 0.45397
#
# Static dielectric constant tensor:
#      x y z
#    x 1.721400 0.000000 -0.005850 
#    y 0.000000 1.703930 0.000000 
#    z -0.005850 0.000000 1.676080 
# 
# From -- ./inp_files/274352.got.cif
#   From: 2010.05.17/outbox.cif.g08.bks.cpg/sg15_138_cif.got.tgz:274352.got - 2010.06.03 18:47:42.
