data_PCOD9264919
_publ_section_title
;
Structure prediction by ZEFSAII (Michael W. Deem and Ramdas Pophale) SiO2 
 PCOD9264919
Probable space group: C 2/C
;
_chemical_formula_sum "Si O2"
_cell_formula_units_Z 56
_cell_length_a 9.473333
_cell_length_b 17.061343
_cell_length_c 15.206192
_cell_angle_alpha 90.000000
_cell_angle_beta 69.293246
_cell_angle_gamma 90.000000
_cell_volume 2298.978699
_symmetry_space_group_name_H-M "C 2/C"
_symmetry_group_IT_number 15
_symmetry_cell_setting 'monoclinic'
loop_
_space_group_symop_operation_xyz
x,y,z
-x,y,1/2-z
-x,-y,-z
x,-y,1/2+z
1/2+x,1/2+y,z
1/2-x,1/2+y,1/2-z
1/2-x,1/2-y,-z
1/2+x,1/2-y,1/2+z
loop_
_atom_site_type_symbol
_atom_site_label
_atom_site_fract_x
_atom_site_fract_y
_atom_site_fract_z
Si Si1 0.382104 0.516440 0.425701
Si Si2 0.375715 0.879283 0.720121
Si Si3 0.542310 0.848710 0.977924
Si Si4 0.430940 0.318723 0.004825
Si Si5 0.884696 0.540235 0.641932
Si Si6 0.738868 0.617479 0.430724
Si Si7 0.886242 0.890997 0.198776
O O1 0.395886 0.607033 0.449953
O O2 0.243187 0.499015 0.391518
O O3 0.330689 0.464535 0.520499
O O4 0.525091 0.471072 0.350894
O O5 0.500000 0.833073 0.750000
O O6 0.344950 0.846383 0.631138
O O7 0.252166 0.886814 0.822308
O O8 0.444175 0.965076 0.680548
O O9 0.589340 0.770624 0.019204
O O10 0.384725 0.858207 0.956395
O O11 0.512144 0.915887 0.057488
O O12 0.370114 0.339344 0.115098
O O13 0.611307 0.320240 0.979967
O O14 0.780083 0.594739 0.725417
O O15 0.000000 0.859496 0.250000
#
# Coordination Sequence:
#
# PCOD9264919 Si02
#       7
#     8   8   8   8   8   8   8
#     4   9  18  32  54  79 101 133 177 219 263 317
#     4  10  20  35  55  74  95 134 182 218 253 313
#     4  10  22  32  48  78 109 137 170 214 269 319
#     4  11  19  32  51  79 110 135 165 218 280 327
#     4  10  19  36  54  74 102 139 181 222 260 312
#     4   9  18  34  53  74 102 138 175 215 260 312
#     4   9  18  31  53  78 100 132 178 222 261 310
#
# _framework density 24.358643000000001
#
# number of rings (size 3 to 8) (size 9 to 14) (size 15 to 20)
#    0.000    2.286    0.000    5.143    0.000    2.857 
#    0.000    0.714    0.000    4.286    0.000    0.000 
#    0.000    0.000    0.000    0.000    0.000    0.000 
#
# Total GULP energy -156019.621098 kJ/mol
# GULP energy per Si atom -5572.129325 kJ/mol
# Density = 2.430320 g / cm^3
# Si number density = 24.358643 Si / 1000 Ang^3
#
#
#
# Elastic Constant Matrix: (Units=GPa)
#
#
# Indices 1 2 3 4 5 6 
#
# 1 47.2755 5.8732 8.8005 0.0000 7.7114 0.0000
# 2 5.8732 114.2734 26.4118 0.0000 5.3214 0.0000
# 3 8.8005 26.4118 132.2333 0.0000 -11.6753 0.0000
# 4 0.0000 0.0000 0.0000 2.6433 0.0000 8.2009
# 5 7.7114 5.3214 -11.6753 0.0000 32.1736 0.0000
# 6 0.0000 0.0000 0.0000 8.2009 0.0000 1.8321
#
#
#
# Elastic Compliance Matrix: (Units=1/GPa)
#
#
# Indices 1 2 3 4 5 6 
#
# 1 0.022554 -0.000427 -0.001949 0.000000 -0.006042 0.000000
# 2 -0.000427 0.009344 -0.002030 0.000000 -0.002180 0.000000
# 3 -0.001949 -0.002030 0.008439 0.000000 0.003865 0.000000
# 4 0.000000 0.000000 0.000000 -0.029355 0.000000 0.131399
# 5 -0.006042 -0.002180 0.003865 0.000000 0.034293 0.000000
# 6 0.000000 0.000000 0.000000 0.131399 0.000000 -0.042352
#
#
# Mechanical properties :
#
#
# Convention : Reuss Voigt Hill
#
# Bulk Modulus (GPa) = 31.72271 41.77257 36.74764
# Shear Modulus (GPa) = 224.77683 24.17624 124.47653
#
# Velocity S-wave (km/s) = 9.61657 3.15383 7.15629
# Velocity P-wave (km/s) = 11.67716 5.51801 9.13248
#
# Compressibility (1/GPa) = 0.03152316
#
# Stress axis : x y z
#
# Youngs Moduli (GPa) = 44.33774 107.02439 118.49858
#
# Poissons Ratio (x) = 0.04573 0.23098
# Poissons Ratio (y) = 0.01895 0.24059
# Poissons Ratio (z) = 0.08642 0.21729
#
# Static dielectric constant tensor:
#      x y z
#    x 2.041160 0.000000 -0.041260 
#    y 0.000000 2.056650 0.000000 
#    z -0.041260 0.000000 1.988280 
# 
# From -- ./inp_files/198196.got.cif
#   From: 2010.05.17/outbox.cif.g08.bks.cpg/sg15_100_cif.got.tgz:198196.got - 2010.06.03 18:47:42.
