data_PCOD9264656
_publ_section_title
;
Structure prediction by ZEFSAII (Michael W. Deem and Ramdas Pophale) SiO2 
 PCOD9264656
Probable space group: C 2/C
;
_chemical_formula_sum "Si O2"
_cell_formula_units_Z 40
_cell_length_a 9.029647
_cell_length_b 12.146709
_cell_length_c 19.984893
_cell_angle_alpha 90.000000
_cell_angle_beta 60.332608
_cell_angle_gamma 90.000000
_cell_volume 1904.617173
_symmetry_space_group_name_H-M "C 2/C"
_symmetry_group_IT_number 15
_symmetry_cell_setting 'monoclinic'
loop_
_space_group_symop_operation_xyz
x,y,z
-x,y,1/2-z
-x,-y,-z
x,-y,1/2+z
1/2+x,1/2+y,z
1/2-x,1/2+y,1/2-z
1/2-x,1/2-y,-z
1/2+x,1/2-y,1/2+z
loop_
_atom_site_type_symbol
_atom_site_label
_atom_site_fract_x
_atom_site_fract_y
_atom_site_fract_z
Si Si1 0.463492 0.033347 0.122487
Si Si2 0.099277 0.172170 0.087847
Si Si3 0.874437 0.997969 0.720135
Si Si4 0.977005 0.349420 0.491397
Si Si5 0.337100 0.878443 0.332801
O O1 0.296154 0.049389 0.205468
O O2 0.423829 0.932319 0.079812
O O3 0.613007 0.987169 0.135972
O O4 0.514128 0.131234 0.061002
O O5 0.011914 0.228984 0.043331
O O6 0.167576 0.273347 0.118493
O O7 0.974174 0.096056 0.157307
O O8 0.276649 0.115621 0.028556
O O9 0.000000 0.038620 0.750000
O O10 0.817225 0.092231 0.681247
O O11 0.500000 0.856936 0.250000
#
# Coordination Sequence:
#
# PCOD9264656 Si02
#       5
#     8   8   8   8   8
#     4   9  18  36  58  84 120 157 189 240 305 348
#     4  10  19  35  61  88 112 155 204 238 293 359
#     4  11  20  35  63  87 114 159 204 238 291 357
#     4   9  18  34  60  84 117 156 187 241 306 352
#     4   9  20  35  58  86 117 154 198 246 292 346
#
# _framework density 21.001595999999999
#
# number of rings (size 3 to 8) (size 9 to 14) (size 15 to 20)
#    0.000    2.400    2.000    0.600    0.000    0.000 
#    0.000   10.000   17.600    0.000    0.000    0.000 
#    0.000    0.000    0.000    0.000    0.000    0.000 
#
# Total GULP energy -111506.182888 kJ/mol
# GULP energy per Si atom -5575.309144 kJ/mol
# Density = 2.095380 g / cm^3
# Si number density = 21.001596 Si / 1000 Ang^3
#
#
#
# Elastic Constant Matrix: (Units=GPa)
#
#
# Indices 1 2 3 4 5 6 
#
# 1 63.7363 14.4998 3.6815 0.0000 2.7677 0.0000
# 2 14.4998 38.2589 23.4168 0.0000 -11.2181 0.0000
# 3 3.6815 23.4168 117.4084 0.0000 -5.4394 0.0000
# 4 0.0000 0.0000 0.0000 36.1049 0.0000 10.8497
# 5 2.7677 -11.2181 -5.4394 0.0000 19.9416 0.0000
# 6 0.0000 0.0000 0.0000 10.8497 0.0000 24.9658
#
#
#
# Elastic Compliance Matrix: (Units=1/GPa)
#
#
# Indices 1 2 3 4 5 6 
#
# 1 0.018196 -0.009798 0.001024 0.000000 -0.007758 0.000000
# 2 -0.009798 0.040520 -0.006741 0.000000 0.022316 0.000000
# 3 0.001024 -0.006741 0.009771 0.000000 -0.001269 0.000000
# 4 0.000000 0.000000 0.000000 0.031858 0.000000 -0.013845
# 5 -0.007758 0.022316 -0.001269 0.000000 0.063431 0.000000
# 6 0.000000 0.000000 0.000000 -0.013845 0.000000 0.046072
#
#
# Mechanical properties :
#
#
# Convention : Reuss Voigt Hill
#
# Bulk Modulus (GPa) = 26.69606 33.62219 30.15912
# Shear Modulus (GPa) = 19.73463 28.05615 23.89539
#
# Velocity S-wave (km/s) = 3.06873 3.65897 3.37677
# Velocity P-wave (km/s) = 5.02943 5.82193 5.44013
#
# Compressibility (1/GPa) = 0.03745871
#
# Stress axis : x y z
#
# Youngs Moduli (GPa) = 54.95609 24.67918 102.34626
#
# Poissons Ratio (x) = 0.24180 -0.10482
# Poissons Ratio (y) = 0.53845 0.68987
# Poissons Ratio (z) = -0.05628 0.16635
#
# Static dielectric constant tensor:
#      x y z
#    x 1.775690 0.000000 0.039320 
#    y 0.000000 1.800050 0.000000 
#    z 0.039320 0.000000 1.785660 
# 
# From -- ./inp_files/187912.got.cif
#   From: 2010.05.17/outbox.cif.g08.bks.cpg/sg15_94_cif.got.tgz:187912.got - 2010.06.03 18:47:42.
