data_PCOD9264198
_publ_section_title
;
Structure prediction by ZEFSAII (Michael W. Deem and Ramdas Pophale) SiO2 
 PCOD9264198
Probable space group: C 2/C
;
_chemical_formula_sum "Si O2"
_cell_formula_units_Z 56
_cell_length_a 19.632218
_cell_length_b 7.297559
_cell_length_c 24.434189
_cell_angle_alpha 90.000000
_cell_angle_beta 130.332213
_cell_angle_gamma 90.000000
_cell_volume 2668.538264
_symmetry_space_group_name_H-M "C 2/C"
_symmetry_group_IT_number 15
_symmetry_cell_setting 'monoclinic'
loop_
_space_group_symop_operation_xyz
x,y,z
-x,y,1/2-z
-x,-y,-z
x,-y,1/2+z
1/2+x,1/2+y,z
1/2-x,1/2+y,1/2-z
1/2-x,1/2-y,-z
1/2+x,1/2-y,1/2+z
loop_
_atom_site_type_symbol
_atom_site_label
_atom_site_fract_x
_atom_site_fract_y
_atom_site_fract_z
Si Si1 0.950056 0.790791 0.777540
Si Si2 0.995736 0.286024 0.920253
Si Si3 0.396778 0.932252 0.968635
Si Si4 0.250624 0.834183 0.823773
Si Si5 0.760646 0.904665 0.807789
Si Si6 0.933804 0.349665 0.765125
Si Si7 0.970339 0.134658 0.410874
O O1 0.852886 0.873913 0.725203
O O2 0.940474 0.571098 0.770507
O O3 0.988517 0.843824 0.855841
O O4 0.000000 0.852493 0.750000
O O5 0.085957 0.386215 0.987091
O O6 0.972111 0.288999 0.844171
O O7 0.988610 0.076538 0.935109
O O8 0.929016 0.414712 0.921438
O O9 0.457709 0.771090 0.025290
O O10 0.294612 0.900318 0.902921
O O11 0.268879 0.905405 0.771485
O O12 0.268375 0.615736 0.829918
O O13 0.674285 0.814093 0.793036
O O14 0.863035 0.826732 0.865212
O O15 0.000000 0.290620 0.750000
#
# Coordination Sequence:
#
# PCOD9264198 Si02
#       7
#     8   8   8   8   8   8   8
#     4   9  20  38  63  89 118 161 206 247 298 354
#     4  11  22  36  59  90 118 159 195 243 305 354
#     4  11  22  38  58  92 128 155 194 245 310 359
#     4  10  20  35  60  87 119 152 202 252 295 350
#     4  10  19  35  56  90 113 150 208 245 294 348
#     4  10  19  37  61  86 118 158 203 249 300 353
#     4  11  21  37  63  89 123 156 199 253 299 354
#
# _framework density 20.985271999999998
#
# number of rings (size 3 to 8) (size 9 to 14) (size 15 to 20)
#    0.000    1.714    4.286    0.429    0.000    0.571 
#    0.000    0.714    0.000    1.714    0.000    0.000 
#    0.000    0.000    0.000    0.000    0.000    0.000 
#
# Total GULP energy -156002.932447 kJ/mol
# GULP energy per Si atom -5571.533302 kJ/mol
# Density = 2.093751 g / cm^3
# Si number density = 20.985272 Si / 1000 Ang^3
#
#
#
# Elastic Constant Matrix: (Units=GPa)
#
#
# Indices 1 2 3 4 5 6 
#
# 1 81.4654 12.9168 35.1519 0.0000 -21.6896 0.0000
# 2 12.9168 86.0459 35.1218 0.0000 5.2414 0.0000
# 3 35.1519 35.1218 149.1197 0.0000 6.7966 0.0000
# 4 0.0000 0.0000 0.0000 23.8216 0.0000 -14.7294
# 5 -21.6896 5.2414 6.7966 0.0000 26.5154 0.0000
# 6 0.0000 0.0000 0.0000 -14.7294 0.0000 1.1352
#
#
#
# Elastic Compliance Matrix: (Units=1/GPa)
#
#
# Indices 1 2 3 4 5 6 
#
# 1 0.019352 -0.001972 -0.004894 0.000000 0.017474 0.000000
# 2 -0.001972 0.013143 -0.002468 0.000000 -0.003579 0.000000
# 3 -0.004894 -0.002468 0.008703 0.000000 -0.005746 0.000000
# 4 0.000000 0.000000 0.000000 -0.005978 0.000000 -0.077559
# 5 0.017474 -0.003579 -0.005746 0.000000 0.054188 0.000000
# 6 0.000000 0.000000 0.000000 -0.077559 0.000000 -0.125435
#
#
# Mechanical properties :
#
#
# Convention : Reuss Voigt Hill
#
# Bulk Modulus (GPa) = 44.38352 53.66800 49.02576
# Shear Modulus (GPa) = -507.58392 25.85714 -240.86339
#
# Velocity S-wave (km/s) = -15.56924 3.51402 -10.72504
# Velocity P-wave (km/s) = 17.37832 6.48799 11.39982
#
# Compressibility (1/GPa) = 0.02253088
#
# Stress axis : x y z
#
# Youngs Moduli (GPa) = 51.67487 76.08671 114.90670
#
# Poissons Ratio (x) = 0.15003 0.56233
# Poissons Ratio (y) = 0.10190 0.28354
# Poissons Ratio (z) = 0.25289 0.18775
#
# Static dielectric constant tensor:
#      x y z
#    x 1.881500 0.000000 0.085880 
#    y 0.000000 1.854110 0.000000 
#    z 0.085880 0.000000 1.871630 
# 
# From -- ./inp_files/251968.got.cif
#   From: 2010.05.17/outbox.cif.g08.bks.cpg/sg15_126_cif.got.tgz:251968.got - 2010.06.03 18:47:42.
