data_PCOD9264928
_publ_section_title
;
Structure prediction by ZEFSAII (Michael W. Deem and Ramdas Pophale) SiO2 
 PCOD9264928
Probable space group: C 2/C
;
_chemical_formula_sum "Si O2"
_cell_formula_units_Z 64
_cell_length_a 16.069090
_cell_length_b 28.220746
_cell_length_c 9.745782
_cell_angle_alpha 90.000000
_cell_angle_beta 37.391523
_cell_angle_gamma 90.000000
_cell_volume 2683.798611
_symmetry_space_group_name_H-M "C 2/C"
_symmetry_group_IT_number 15
_symmetry_cell_setting 'monoclinic'
loop_
_space_group_symop_operation_xyz
x,y,z
-x,y,1/2-z
-x,-y,-z
x,-y,1/2+z
1/2+x,1/2+y,z
1/2-x,1/2+y,1/2-z
1/2-x,1/2-y,-z
1/2+x,1/2-y,1/2+z
loop_
_atom_site_type_symbol
_atom_site_label
_atom_site_fract_x
_atom_site_fract_y
_atom_site_fract_z
Si Si1 0.786715 0.595288 0.830378
Si Si2 0.423884 0.106021 0.171527
Si Si3 0.365482 0.522784 0.119655
Si Si4 0.406889 0.208373 0.209329
Si Si5 0.292622 0.626431 0.283497
Si Si6 0.434371 0.658240 0.484369
Si Si7 0.199503 0.265824 0.363787
Si Si8 0.287032 0.010694 0.441701
O O1 0.818228 0.542509 0.847850
O O2 0.917199 0.607051 0.569929
O O3 0.773721 0.629882 0.979171
O O4 0.645674 0.607669 0.934574
O O5 0.393433 0.155186 0.286191
O O6 0.330434 0.116540 0.160525
O O7 0.384694 0.055197 0.284428
O O8 0.362793 0.574746 0.184685
O O9 0.341644 0.522968 0.988884
O O10 0.243375 0.494618 0.357928
O O11 0.500000 0.500000 0.000000
O O12 0.296213 0.219017 0.234136
O O13 0.364655 0.237181 0.399571
O O14 0.560931 0.222411 0.961294
O O15 0.431549 0.657887 0.092431
O O16 0.500000 0.670846 0.250000
O O17 0.314431 0.693611 0.689519
#
# Coordination Sequence:
#
# PCOD9264928 Si02
#       8
#     8   8   8   8   8   8   8   8
#     4  10  19  38  59  84 126 171 202 247 305 371
#     4  11  21  38  58  93 120 157 211 256 304 366
#     4  10  19  36  54  81 121 167 211 254 305 363
#     4  10  23  41  67  87 120 159 195 252 316 372
#     4   9  21  34  57  85 121 164 200 244 310 362
#     4  10  20  38  63  91 119 159 208 247 300 370
#     4  10  22  44  63  91 119 155 200 250 315 377
#     4  10  22  35  57  88 124 165 211 258 310 360
#
# _framework density 23.846796999999999
#
# number of rings (size 3 to 8) (size 9 to 14) (size 15 to 20)
#    0.000    2.000    1.250    1.875    1.750    4.000 
#    0.000    4.375    0.000    0.000    0.000    0.000 
#    0.000    0.000    0.000    0.000    0.000    0.000 
#
# Total GULP energy -178141.360200 kJ/mol
# GULP energy per Si atom -5566.917506 kJ/mol
# Density = 2.379252 g / cm^3
# Si number density = 23.846797 Si / 1000 Ang^3
#
#
#
# Elastic Constant Matrix: (Units=GPa)
#
#
# Indices 1 2 3 4 5 6 
#
# 1 97.3216 -11.1282 31.1214 0.0000 -26.8092 0.0000
# 2 -11.1282 68.7386 19.5117 0.0000 -4.8721 0.0000
# 3 31.1214 19.5117 98.0205 0.0000 -28.2429 0.0000
# 4 0.0000 0.0000 0.0000 -15.4543 0.0000 24.8496
# 5 -26.8092 -4.8721 -28.2429 0.0000 28.1435 0.0000
# 6 0.0000 0.0000 0.0000 24.8496 0.0000 -5.0856
#
#
#
# Elastic Compliance Matrix: (Units=1/GPa)
#
#
# Indices 1 2 3 4 5 6 
#
# 1 0.014870 0.003820 -0.001702 0.000000 0.013119 0.000000
# 2 0.003820 0.016407 -0.003674 0.000000 0.002792 0.000000
# 3 -0.001702 -0.003674 0.015226 0.000000 0.013023 0.000000
# 4 0.000000 0.000000 0.000000 0.009437 0.000000 0.046111
# 5 0.013119 0.002792 0.013023 0.000000 0.061581 0.000000
# 6 0.000000 0.000000 0.000000 0.046111 0.000000 0.028677
#
#
# Mechanical properties :
#
#
# Convention : Reuss Voigt Hill
#
# Bulk Modulus (GPa) = 23.04618 38.12118 30.58368
# Shear Modulus (GPa) = 30.53005 16.49244 23.51124
#
# Velocity S-wave (km/s) = 3.58195 2.63268 3.14336
# Velocity P-wave (km/s) = 5.17614 5.02612 5.10168
#
# Compressibility (1/GPa) = 0.04339114
#
# Stress axis : x y z
#
# Youngs Moduli (GPa) = 67.24961 60.94882 65.67760
#
# Poissons Ratio (x) = -0.23284 0.11177
# Poissons Ratio (y) = -0.25691 0.24133
# Poissons Ratio (z) = 0.11444 0.22395
#
# Static dielectric constant tensor:
#      x y z
#    x 2.004720 0.000000 -0.073960 
#    y 0.000000 2.011370 0.000000 
#    z -0.073960 0.000000 1.930150 
# 
# From -- ./inp_files/108625.got.cif
#   From: 2010.05.17/outbox.cif.g08.bks.cpg/sg15_55_cif.got.tgz:108625.got - 2010.06.03 18:47:42.
