data_PCOD9264140
_publ_section_title
;
Structure prediction by ZEFSAII (Michael W. Deem and Ramdas Pophale) SiO2 
 PCOD9264140
Probable space group: C 2/C
;
_chemical_formula_sum "Si O2"
_cell_formula_units_Z 48
_cell_length_a 19.453763
_cell_length_b 18.915082
_cell_length_c 15.796522
_cell_angle_alpha 90.000000
_cell_angle_beta 153.642649
_cell_angle_gamma 90.000000
_cell_volume 2580.627414
_symmetry_space_group_name_H-M "C 2/C"
_symmetry_group_IT_number 15
_symmetry_cell_setting 'monoclinic'
loop_
_space_group_symop_operation_xyz
x,y,z
-x,y,1/2-z
-x,-y,-z
x,-y,1/2+z
1/2+x,1/2+y,z
1/2-x,1/2+y,1/2-z
1/2-x,1/2-y,-z
1/2+x,1/2-y,1/2+z
loop_
_atom_site_type_symbol
_atom_site_label
_atom_site_fract_x
_atom_site_fract_y
_atom_site_fract_z
Si Si1 0.709663 0.796937 0.040367
Si Si2 0.814803 0.082252 0.548524
Si Si3 0.561175 0.180067 0.651091
Si Si4 0.240616 0.703284 0.074884
Si Si5 0.599264 0.820132 0.698202
Si Si6 0.675911 0.072212 0.908769
O O1 0.763657 0.874929 0.075990
O O2 0.810374 0.753258 0.218568
O O3 0.750000 0.750000 0.000000
O O4 0.535818 0.803159 0.882499
O O5 0.721693 0.123462 0.370936
O O6 0.000000 0.088148 0.750000
O O7 0.757924 0.002151 0.487523
O O8 0.654499 0.253235 0.744367
O O9 0.428770 0.199618 0.572530
O O10 0.484009 0.155878 0.479043
O O11 0.658759 0.117794 0.803491
O O12 0.250000 0.750000 0.000000
O O13 0.269729 0.623067 0.077267
O O14 0.500000 0.061397 0.750000
#
# Coordination Sequence:
#
# PCOD9264140 Si02
#       6
#     8   8   8   8   8   8
#     4  10  19  35  56  78 106 141 183 220 262 323
#     4  11  22  36  55  77 105 144 188 226 263 319
#     4  10  20  34  57  85 112 139 174 226 276 319
#     4   9  18  34  56  81 109 143 182 216 259 322
#     4  11  21  35  57  83 111 139 175 228 278 318
#     4   9  19  36  56  78 107 145 182 217 263 324
#
# _framework density 18.600128000000002
#
# number of rings (size 3 to 8) (size 9 to 14) (size 15 to 20)
#    0.000    2.000    0.000    7.500    0.000    3.333 
#    0.000    0.000    0.000    6.000    0.000    0.000 
#    0.000    0.000    0.000    0.000    0.000    0.000 
#
# Total GULP energy -133656.165955 kJ/mol
# GULP energy per Si atom -5569.006915 kJ/mol
# Density = 1.855779 g / cm^3
# Si number density = 18.600128 Si / 1000 Ang^3
#
#
#
# Elastic Constant Matrix: (Units=GPa)
#
#
# Indices 1 2 3 4 5 6 
#
# 1 67.8497 27.3552 37.9402 0.0000 7.4144 0.0000
# 2 27.3552 147.8905 73.7272 0.0000 -0.9262 0.0000
# 3 37.9402 73.7272 117.3083 0.0000 8.4069 0.0000
# 4 0.0000 0.0000 0.0000 39.2881 0.0000 5.0268
# 5 7.4144 -0.9262 8.4069 0.0000 25.8239 0.0000
# 6 0.0000 0.0000 0.0000 5.0268 0.0000 14.0957
#
#
#
# Elastic Compliance Matrix: (Units=1/GPa)
#
#
# Indices 1 2 3 4 5 6 
#
# 1 0.018353 -0.000856 -0.005138 0.000000 -0.003628 0.000000
# 2 -0.000856 0.010037 -0.006220 0.000000 0.002631 0.000000
# 3 -0.005138 -0.006220 0.014340 0.000000 -0.003416 0.000000
# 4 0.000000 0.000000 0.000000 0.026670 0.000000 -0.009511
# 5 -0.003628 0.002631 -0.003416 0.000000 0.040972 0.000000
# 6 0.000000 0.000000 0.000000 -0.009511 0.000000 0.074335
#
#
# Mechanical properties :
#
#
# Convention : Reuss Voigt Hill
#
# Bulk Modulus (GPa) = 54.63646 67.89929 61.26788
# Shear Modulus (GPa) = 23.23026 28.77661 26.00343
#
# Velocity S-wave (km/s) = 3.53785 3.93761 3.74307
# Velocity P-wave (km/s) = 6.79165 7.56684 7.18970
#
# Compressibility (1/GPa) = 0.01830280
#
# Stress axis : x y z
#
# Youngs Moduli (GPa) = 54.48720 99.62667 69.73355
#
# Poissons Ratio (x) = 0.08530 0.35827
# Poissons Ratio (y) = 0.04665 0.43375
# Poissons Ratio (z) = 0.27994 0.61969
#
# Static dielectric constant tensor:
#      x y z
#    x 1.679470 0.000000 -0.039670 
#    y 0.000000 1.649000 0.000000 
#    z -0.039670 0.000000 1.717010 
# 
# From -- ./inp_files/48076.got.cif
#   From: 2010.05.17/outbox.cif.g08.bks.cpg/sg15_25_cif.got.tgz:48076.got - 2010.06.03 18:47:42.
