data_PCOD9264805
_publ_section_title
;
Structure prediction by ZEFSAII (Michael W. Deem and Ramdas Pophale) SiO2 
 PCOD9264805
Probable space group: C 2/C
;
_chemical_formula_sum "Si O2"
_cell_formula_units_Z 56
_cell_length_a 21.746681
_cell_length_b 15.355013
_cell_length_c 12.848645
_cell_angle_alpha 90.000000
_cell_angle_beta 33.845592
_cell_angle_gamma 90.000000
_cell_volume 2389.581893
_symmetry_space_group_name_H-M "C 2/C"
_symmetry_group_IT_number 15
_symmetry_cell_setting 'monoclinic'
loop_
_space_group_symop_operation_xyz
x,y,z
-x,y,1/2-z
-x,-y,-z
x,-y,1/2+z
1/2+x,1/2+y,z
1/2-x,1/2+y,1/2-z
1/2-x,1/2-y,-z
1/2+x,1/2-y,1/2+z
loop_
_atom_site_type_symbol
_atom_site_label
_atom_site_fract_x
_atom_site_fract_y
_atom_site_fract_z
Si Si1 0.531073 0.296831 0.094277
Si Si2 0.829784 0.898744 0.113265
Si Si3 0.276594 0.580499 0.140304
Si Si4 0.166477 0.067593 0.661489
Si Si5 0.516218 0.744459 0.388382
Si Si6 0.093447 0.589209 0.559216
Si Si7 0.786728 0.873362 0.946131
O O1 0.500000 0.257963 0.250000
O O2 0.444771 0.377506 0.201672
O O3 0.655878 0.334452 0.919837
O O4 0.514535 0.241410 0.014548
O O5 0.786159 0.903473 0.293262
O O6 0.857948 0.999019 0.047491
O O7 0.931338 0.832697 0.976510
O O8 0.761875 0.874240 0.104711
O O9 0.168470 0.557967 0.358002
O O10 0.256358 0.587686 0.045994
O O11 0.149652 0.963479 0.676953
O O12 0.472421 0.829370 0.394582
O O13 0.634568 0.707020 0.189762
O O14 0.181735 0.619466 0.520558
O O15 0.000000 0.533136 0.750000
#
# Coordination Sequence:
#
# PCOD9264805 Si02
#       7
#     8   8   8   8   8   8   8
#     4   9  17  34  62  96 121 150 192 255 315 362
#     4  10  19  35  63  97 117 151 201 248 307 362
#     4  10  19  38  62  88 127 156 197 255 308 351
#     4   9  18  34  67  98 119 145 197 255 315 359
#     4  11  22  37  61  94 126 156 203 248 307 365
#     4  12  26  41  59  87 126 168 205 241 301 365
#     4  11  21  39  63  89 126 156 196 259 307 350
#
# _framework density 23.435063
#
# number of rings (size 3 to 8) (size 9 to 14) (size 15 to 20)
#    0.000    1.714    2.857    2.143    0.000    6.857 
#    0.000    9.286    0.000    0.000    0.000    0.000 
#    0.000    0.000    0.000    0.000    0.000    0.000 
#
# Total GULP energy -156317.482974 kJ/mol
# GULP energy per Si atom -5582.767249 kJ/mol
# Density = 2.338172 g / cm^3
# Si number density = 23.435063 Si / 1000 Ang^3
#
#
#
# Elastic Constant Matrix: (Units=GPa)
#
#
# Indices 1 2 3 4 5 6 
#
# 1 123.9960 4.5269 46.2967 0.0000 52.9335 0.0000
# 2 4.5269 16.8877 1.6040 0.0000 5.9303 0.0000
# 3 46.2967 1.6040 117.0641 0.0000 26.7717 0.0000
# 4 0.0000 0.0000 0.0000 16.9970 0.0000 7.1982
# 5 52.9335 5.9303 26.7717 0.0000 48.5617 0.0000
# 6 0.0000 0.0000 0.0000 7.1982 0.0000 15.7683
#
#
#
# Elastic Compliance Matrix: (Units=1/GPa)
#
#
# Indices 1 2 3 4 5 6 
#
# 1 0.015807 0.001625 -0.002618 0.000000 -0.015985 0.000000
# 2 0.001625 0.062139 0.000740 0.000000 -0.009767 0.000000
# 3 -0.002618 0.000740 0.010225 0.000000 -0.002874 0.000000
# 4 0.000000 0.000000 0.000000 0.072934 0.000000 -0.033294
# 5 -0.015985 -0.009767 -0.002874 0.000000 0.040794 0.000000
# 6 0.000000 0.000000 0.000000 -0.033294 0.000000 0.078617
#
#
# Mechanical properties :
#
#
# Convention : Reuss Voigt Hill
#
# Bulk Modulus (GPa) = 11.40726 40.31143 25.85935
# Shear Modulus (GPa) = 16.11643 29.96675 23.04159
#
# Velocity S-wave (km/s) = 2.62526 3.57979 3.13902
# Velocity P-wave (km/s) = 3.75066 5.85877 4.91898
#
# Compressibility (1/GPa) = 0.08766346
#
# Stress axis : x y z
#
# Youngs Moduli (GPa) = 63.26333 16.09306 97.80248
#
# Poissons Ratio (x) = -0.02615 0.25604
# Poissons Ratio (y) = -0.10279 -0.07234
# Poissons Ratio (z) = 0.16562 -0.01190
#
# Static dielectric constant tensor:
#      x y z
#    x 1.871870 0.000000 0.021460 
#    y 0.000000 1.901370 0.000000 
#    z 0.021460 0.000000 1.980330 
# 
# From -- ./inp_files/182654.got.cif
#   From: 2010.05.17/outbox.cif.g08.bks.cpg/sg15_92_cif.got.tgz:182654.got - 2010.06.03 18:47:42.
