data_PCOD9264657
_publ_section_title
;
Structure prediction by ZEFSAII (Michael W. Deem and Ramdas Pophale) SiO2 
 PCOD9264657
Probable space group: C 2/C
;
_chemical_formula_sum "Si O2"
_cell_formula_units_Z 32
_cell_length_a 12.107352
_cell_length_b 12.820861
_cell_length_c 10.112778
_cell_angle_alpha 90.000000
_cell_angle_beta 79.272123
_cell_angle_gamma 90.000000
_cell_volume 1542.336975
_symmetry_space_group_name_H-M "C 2/C"
_symmetry_group_IT_number 15
_symmetry_cell_setting 'monoclinic'
loop_
_space_group_symop_operation_xyz
x,y,z
-x,y,1/2-z
-x,-y,-z
x,-y,1/2+z
1/2+x,1/2+y,z
1/2-x,1/2+y,1/2-z
1/2-x,1/2-y,-z
1/2+x,1/2-y,1/2+z
loop_
_atom_site_type_symbol
_atom_site_label
_atom_site_fract_x
_atom_site_fract_y
_atom_site_fract_z
Si Si1 0.361242 0.226305 0.562230
Si Si2 0.962634 0.589231 0.110713
Si Si3 0.387982 0.541933 0.093259
Si Si4 0.750835 0.020338 0.860444
O O1 0.250000 0.250000 0.500000
O O2 0.468118 0.190337 0.450659
O O3 0.393494 0.334612 0.622441
O O4 0.322442 0.124623 0.653017
O O5 0.828043 0.581186 0.139534
O O6 0.000000 0.563999 0.250000
O O7 0.000000 0.500000 0.000000
O O8 0.352149 0.484779 0.234894
O O9 0.500000 0.500000 0.000000
O O10 0.292455 0.526065 0.001867
#
# Coordination Sequence:
#
# PCOD9264657 Si02
#       4
#     8   8   8   8
#     4   9  20  37  60  85 115 156 195 228 292 369
#     4  10  19  35  61  88 114 150 196 243 285 344
#     4  11  23  40  59  85 118 154 196 247 296 348
#     4  10  21  40  60  84 115 154 197 240 289 355
#
# _framework density 20.747734000000001
#
# number of rings (size 3 to 8) (size 9 to 14) (size 15 to 20)
#    0.000    2.000    0.000    5.250    0.000    6.000 
#    0.000   17.500    0.000    0.000    0.000    0.000 
#    0.000    0.000    0.000    0.000    0.000    0.000 
#
# Total GULP energy -89194.903872 kJ/mol
# GULP energy per Si atom -5574.681492 kJ/mol
# Density = 2.070051 g / cm^3
# Si number density = 20.747734 Si / 1000 Ang^3
#
#
#
# Elastic Constant Matrix: (Units=GPa)
#
#
# Indices 1 2 3 4 5 6 
#
# 1 58.3302 16.4427 -6.9091 0.0000 -17.4841 0.0000
# 2 16.4427 86.8711 19.0139 0.0000 -13.4084 0.0000
# 3 -6.9091 19.0139 91.8290 0.0000 -11.3757 0.0000
# 4 0.0000 0.0000 0.0000 25.6374 0.0000 -14.6237
# 5 -17.4841 -13.4084 -11.3757 0.0000 43.3060 0.0000
# 6 0.0000 0.0000 0.0000 -14.6237 0.0000 34.3347
#
#
#
# Elastic Compliance Matrix: (Units=1/GPa)
#
#
# Indices 1 2 3 4 5 6 
#
# 1 0.020982 -0.003418 0.003313 0.000000 0.008283 0.000000
# 2 -0.003418 0.013054 -0.002719 0.000000 0.001948 0.000000
# 3 0.003313 -0.002719 0.012159 0.000000 0.003690 0.000000
# 4 0.000000 0.000000 0.000000 0.051523 0.000000 0.021944
# 5 0.008283 0.001948 0.003690 0.000000 0.028008 0.000000
# 6 0.000000 0.000000 0.000000 0.021944 0.000000 0.038471
#
#
# Mechanical properties :
#
#
# Convention : Reuss Voigt Hill
#
# Bulk Modulus (GPa) = 24.66284 32.68061 28.67172
# Shear Modulus (GPa) = 27.26850 34.55447 30.91149
#
# Velocity S-wave (km/s) = 3.62924 4.08543 3.86407
# Velocity P-wave (km/s) = 5.42906 6.16765 5.81010
#
# Compressibility (1/GPa) = 0.04054682
#
# Stress axis : x y z
#
# Youngs Moduli (GPa) = 47.65877 76.60517 82.24331
#
# Poissons Ratio (x) = 0.26184 -0.27243
# Poissons Ratio (y) = 0.16290 0.22360
# Poissons Ratio (z) = -0.15787 0.20828
#
# Static dielectric constant tensor:
#      x y z
#    x 1.840580 0.000000 0.089110 
#    y 0.000000 1.793230 0.000000 
#    z 0.089110 0.000000 2.384780 
# 
# From -- ./inp_files/61345.got.cif
#   From: 2010.05.17/outbox.cif.g08.bks.cpg/sg15_31_cif.got.tgz:61345.got - 2010.06.03 18:47:42.
