data_PCOD9264429
_publ_section_title
;
Structure prediction by ZEFSAII (Michael W. Deem and Ramdas Pophale) SiO2 
 PCOD9264429
Probable space group: C 2/C
;
_chemical_formula_sum "Si O2"
_cell_formula_units_Z 60
_cell_length_a 13.787232
_cell_length_b 7.180050
_cell_length_c 26.914969
_cell_angle_alpha 90.000000
_cell_angle_beta 65.292909
_cell_angle_gamma 90.000000
_cell_volume 2420.485867
_symmetry_space_group_name_H-M "C 2/C"
_symmetry_group_IT_number 15
_symmetry_cell_setting 'monoclinic'
loop_
_space_group_symop_operation_xyz
x,y,z
-x,y,1/2-z
-x,-y,-z
x,-y,1/2+z
1/2+x,1/2+y,z
1/2-x,1/2+y,1/2-z
1/2-x,1/2-y,-z
1/2+x,1/2-y,1/2+z
loop_
_atom_site_type_symbol
_atom_site_label
_atom_site_fract_x
_atom_site_fract_y
_atom_site_fract_z
Si Si1 0.231552 0.906142 0.713047
Si Si2 0.731251 0.841719 0.686705
Si Si3 0.087915 0.680972 0.395735
Si Si4 0.796920 0.345839 0.036909
Si Si5 0.092114 0.810676 0.141019
Si Si6 0.429796 0.728455 0.089875
Si Si7 0.364485 0.767336 0.501861
Si Si8 0.000000 0.056900 0.250000
O O1 0.285499 0.920387 0.755382
O O2 0.306227 0.791905 0.660341
O O3 0.223410 0.118400 0.696713
O O4 0.109529 0.835160 0.738631
O O5 0.645127 0.863235 0.660927
O O6 0.854662 0.872018 0.645187
O O7 0.076631 0.453680 0.400978
O O8 0.110752 0.770499 0.445093
O O9 0.986560 0.752324 0.386404
O O10 0.698118 0.405515 0.093688
O O11 0.866933 0.201166 0.052098
O O12 0.873599 0.508720 0.002617
O O13 0.750000 0.250000 0.000000
O O14 0.026870 0.933009 0.195156
O O15 0.550303 0.677209 0.053431
O O16 0.250000 0.750000 0.500000
#
# Coordination Sequence:
#
# PCOD9264429 Si02
#       8
#     8   8   8   8   8   8   8   4
#     4  10  20  37  56  82 110 146 181 220 269 324
#     4   9  20  36  58  83 110 142 184 225 270 322
#     4  10  19  36  59  79 109 148 186 223 271 327
#     4  10  19  36  59  79 104 145 187 221 270 332
#     4  10  19  35  59  82 105 146 191 224 261 326
#     4   9  19  35  55  78 110 147 180 221 274 328
#     4  11  22  36  55  83 115 142 179 231 280 322
#     4  10  20  34  54  80 116 150 176 216 276 330
#
# _framework density 24.788409999999999
#
# number of rings (size 3 to 8) (size 9 to 14) (size 15 to 20)
#    0.000    2.133    0.000    7.200    0.000    2.133 
#    0.000   13.333    0.000    0.000    0.000    0.000 
#    0.000    0.000    0.000    0.000    0.000    0.000 
#
# Total GULP energy -167503.433295 kJ/mol
# GULP energy per Si atom -5583.447776 kJ/mol
# Density = 2.473199 g / cm^3
# Si number density = 24.788410 Si / 1000 Ang^3
#
#
#
# Elastic Constant Matrix: (Units=GPa)
#
#
# Indices 1 2 3 4 5 6 
#
# 1 181.9081 17.9103 54.1077 0.0000 -1.1124 0.0000
# 2 17.9103 45.4634 21.8219 0.0000 10.0238 0.0000
# 3 54.1077 21.8219 115.8604 0.0000 -8.1919 0.0000
# 4 0.0000 0.0000 0.0000 13.7208 0.0000 7.0836
# 5 -1.1124 10.0238 -8.1919 0.0000 57.5543 0.0000
# 6 0.0000 0.0000 0.0000 7.0836 0.0000 25.7835
#
#
#
# Elastic Compliance Matrix: (Units=1/GPa)
#
#
# Indices 1 2 3 4 5 6 
#
# 1 0.006444 -0.001184 -0.002791 0.000000 -0.000066 0.000000
# 2 -0.001184 0.025855 -0.004684 0.000000 -0.005193 0.000000
# 3 -0.002791 -0.004684 0.010981 0.000000 0.002325 0.000000
# 4 0.000000 0.000000 0.000000 0.084928 0.000000 -0.023333
# 5 -0.000066 -0.005193 0.002325 0.000000 0.018609 0.000000
# 6 0.000000 0.000000 0.000000 -0.023333 0.000000 0.045195
#
#
# Mechanical properties :
#
#
# Convention : Reuss Voigt Hill
#
# Bulk Modulus (GPa) = 38.51781 58.99020 48.75400
# Shear Modulus (GPa) = 22.93755 36.03788 29.48772
#
# Velocity S-wave (km/s) = 3.04523 3.81704 3.45277
# Velocity P-wave (km/s) = 5.28554 6.57841 5.96709
#
# Compressibility (1/GPa) = 0.02596202
#
# Stress axis : x y z
#
# Youngs Moduli (GPa) = 155.19274 38.67677 91.06646
#
# Poissons Ratio (x) = 0.04580 0.25415
# Poissons Ratio (y) = 0.18378 0.42654
# Poissons Ratio (z) = 0.43312 0.18116
#
# Static dielectric constant tensor:
#      x y z
#    x 2.055780 0.000000 -0.015110 
#    y 0.000000 2.071400 0.000000 
#    z -0.015110 0.000000 2.056560 
# 
# From -- ./inp_files/268803.got.cif
#   From: 2010.05.17/outbox.cif.g08.bks.cpg/sg15_135_cif.got.tgz:268803.got - 2010.06.03 18:47:42.
