data_PCOD9264298
_publ_section_title
;
Structure prediction by ZEFSAII (Michael W. Deem and Ramdas Pophale) SiO2 
 PCOD9264298
Probable space group: C 2/C
;
_chemical_formula_sum "Si O2"
_cell_formula_units_Z 48
_cell_length_a 28.940483
_cell_length_b 8.200124
_cell_length_c 21.421472
_cell_angle_alpha 90.000000
_cell_angle_beta 154.286880
_cell_angle_gamma 90.000000
_cell_volume 2205.619186
_symmetry_space_group_name_H-M "C 2/C"
_symmetry_group_IT_number 15
_symmetry_cell_setting 'monoclinic'
loop_
_space_group_symop_operation_xyz
x,y,z
-x,y,1/2-z
-x,-y,-z
x,-y,1/2+z
1/2+x,1/2+y,z
1/2-x,1/2+y,1/2-z
1/2-x,1/2-y,-z
1/2+x,1/2-y,1/2+z
loop_
_atom_site_type_symbol
_atom_site_label
_atom_site_fract_x
_atom_site_fract_y
_atom_site_fract_z
Si Si1 0.187741 0.463018 0.364599
Si Si2 0.126693 0.008391 0.658571
Si Si3 0.600575 0.181250 0.563862
Si Si4 0.959804 0.564626 0.136003
Si Si5 0.253492 0.414773 0.578074
Si Si6 0.144758 0.639021 0.188550
O O1 0.251456 0.493898 0.506555
O O2 0.216546 0.275608 0.385642
O O3 0.202715 0.579484 0.323001
O O4 0.062521 0.477515 0.230413
O O5 0.170945 0.184031 0.692164
O O6 0.155218 0.842186 0.657702
O O7 0.163972 0.998180 0.775340
O O8 0.000000 0.000000 0.500000
O O9 0.479358 0.166240 0.442972
O O10 0.587282 0.184247 0.473233
O O11 0.649394 0.011109 0.646757
O O12 0.000000 0.640879 0.250000
O O13 0.864955 0.441598 0.038640
#
# Coordination Sequence:
#
# PCOD9264298 Si02
#       6
#     8   8   8   8   8   8
#     4   9  18  35  62  84 120 161 201 252 301 358
#     4  10  20  33  55  87 114 145 197 242 291 354
#     4   9  17  34  55  78 115 152 188 239 293 353
#     4   9  19  35  59  85 115 164 206 246 306 364
#     4  10  19  35  57  89 120 160 206 246 304 365
#     4   9  17  32  57  83 110 153 190 237 300 348
#
# _framework density 21.762595000000001
#
# number of rings (size 3 to 8) (size 9 to 14) (size 15 to 20)
#    0.000    2.667    1.667    0.000    2.333    0.667 
#    3.000    0.000    0.000    1.000    0.000    0.000 
#    0.000    0.000    0.000    0.000    0.000    0.000 
#
# Total GULP energy -133878.769784 kJ/mol
# GULP energy per Si atom -5578.282074 kJ/mol
# Density = 2.171306 g / cm^3
# Si number density = 21.762595 Si / 1000 Ang^3
#
#
#
# Elastic Constant Matrix: (Units=GPa)
#
#
# Indices 1 2 3 4 5 6 
#
# 1 63.6700 41.5227 38.9994 0.0000 -13.6992 0.0000
# 2 41.5227 152.5541 54.9008 0.0000 -32.0672 0.0000
# 3 38.9994 54.9008 131.5622 0.0000 -28.9622 0.0000
# 4 0.0000 0.0000 0.0000 32.5969 0.0000 3.8307
# 5 -13.6992 -32.0672 -28.9622 0.0000 35.1824 0.0000
# 6 0.0000 0.0000 0.0000 3.8307 0.0000 23.6838
#
#
#
# Elastic Compliance Matrix: (Units=1/GPa)
#
#
# Indices 1 2 3 4 5 6 
#
# 1 0.021216 -0.003976 -0.004408 0.000000 0.001008 0.000000
# 2 -0.003976 0.009382 -0.001459 0.000000 0.005802 0.000000
# 3 -0.004408 -0.001459 0.010804 0.000000 0.005847 0.000000
# 4 0.000000 0.000000 0.000000 0.031272 0.000000 -0.005058
# 5 0.001008 0.005802 0.005847 0.000000 0.038918 0.000000
# 6 0.000000 0.000000 0.000000 -0.005058 0.000000 0.043041
#
#
# Mechanical properties :
#
#
# Convention : Reuss Voigt Hill
#
# Bulk Modulus (GPa) = 46.05121 68.73691 57.39406
# Shear Modulus (GPa) = 27.53942 32.45017 29.99480
#
# Velocity S-wave (km/s) = 3.56117 3.86566 3.71654
# Velocity P-wave (km/s) = 6.17381 7.18178 6.69678
#
# Compressibility (1/GPa) = 0.02171496
#
# Stress axis : x y z
#
# Youngs Moduli (GPa) = 47.13406 106.58658 92.56033
#
# Poissons Ratio (x) = 0.42384 0.40799
# Poissons Ratio (y) = 0.18743 0.13506
# Poissons Ratio (z) = 0.20776 0.15553
#
# Static dielectric constant tensor:
#      x y z
#    x 1.846900 0.000000 0.008850 
#    y 0.000000 1.636140 0.000000 
#    z 0.008850 0.000000 1.817750 
# 
# From -- ./inp_files/258753.got.cif
#   From: 2010.05.17/outbox.cif.g08.bks.cpg/sg15_130_cif.got.tgz:258753.got - 2010.06.03 18:47:42.
