data_PCOD9264018
_publ_section_title
;
Structure prediction by ZEFSAII (Michael W. Deem and Ramdas Pophale) SiO2 
 PCOD9264018
Probable space group: C 2/C
;
_chemical_formula_sum "Si O2"
_cell_formula_units_Z 64
_cell_length_a 21.407432
_cell_length_b 10.042085
_cell_length_c 14.188268
_cell_angle_alpha 90.000000
_cell_angle_beta 105.103526
_cell_angle_gamma 90.000000
_cell_volume 2944.764739
_symmetry_space_group_name_H-M "C 2/C"
_symmetry_group_IT_number 15
_symmetry_cell_setting 'monoclinic'
loop_
_space_group_symop_operation_xyz
x,y,z
-x,y,1/2-z
-x,-y,-z
x,-y,1/2+z
1/2+x,1/2+y,z
1/2-x,1/2+y,1/2-z
1/2-x,1/2-y,-z
1/2+x,1/2-y,1/2+z
loop_
_atom_site_type_symbol
_atom_site_label
_atom_site_fract_x
_atom_site_fract_y
_atom_site_fract_z
Si Si1 0.763335 0.345361 0.379253
Si Si2 0.874512 0.306193 0.671923
Si Si3 0.580318 0.460943 0.363764
Si Si4 0.256494 0.858959 0.162266
Si Si5 0.166046 0.913248 0.558707
Si Si6 0.622041 0.784841 0.616561
Si Si7 0.437966 0.500471 0.857857
Si Si8 0.163477 0.448287 0.471317
O O1 0.690315 0.287663 0.346126
O O2 0.784822 0.357293 0.278507
O O3 0.803743 0.229293 0.445629
O O4 0.781245 0.478172 0.443297
O O5 0.925518 0.199691 0.651198
O O6 0.888293 0.348842 0.784789
O O7 0.866146 0.432810 0.603041
O O8 0.640349 0.486295 0.455497
O O9 0.586260 0.510467 0.259528
O O10 0.514562 0.513254 0.383949
O O11 0.197990 0.754502 0.136290
O O12 0.219560 0.000309 0.133337
O O13 0.304881 0.849769 0.093576
O O14 0.101994 0.898082 0.595959
O O15 0.583323 0.645354 0.609865
O O16 0.613397 0.877393 0.522376
#
# Coordination Sequence:
#
# PCOD9264018 Si02
#       8
#     8   8   8   8   8   8   8   8
#     4  11  22  35  54  84 117 150 185 234 275 354
#     4  10  19  35  53  81 111 145 191 225 281 348
#     4  10  19  38  63  84 105 153 194 237 288 332
#     4  10  22  35  52  81 119 152 182 229 284 342
#     4  11  20  38  59  87 114 151 188 232 288 340
#     4   9  21  36  51  79 114 143 189 236 281 337
#     4   9  21  39  60  85 112 141 195 250 282 327
#     4  12  19  33  54  80 109 153 186 223 282 340
#
# _framework density 21.733485000000002
#
# number of rings (size 3 to 8) (size 9 to 14) (size 15 to 20)
#    0.000    1.750    2.500    3.375    1.750    0.000 
#    4.500    0.625    0.000    0.000    0.000    0.000 
#    0.000    0.000    0.000    0.000    0.000    0.000 
#
# Total GULP energy -178667.321205 kJ/mol
# GULP energy per Si atom -5583.353788 kJ/mol
# Density = 2.168402 g / cm^3
# Si number density = 21.733485 Si / 1000 Ang^3
#
#
#
# Elastic Constant Matrix: (Units=GPa)
#
#
# Indices 1 2 3 4 5 6 
#
# 1 51.5689 -0.8669 10.2225 0.0000 -14.6730 0.0000
# 2 -0.8669 28.6914 6.8817 0.0000 -10.0062 0.0000
# 3 10.2225 6.8817 106.9126 0.0000 -11.5001 0.0000
# 4 0.0000 0.0000 0.0000 37.2632 0.0000 -11.5054
# 5 -14.6730 -10.0062 -11.5001 0.0000 30.1022 0.0000
# 6 0.0000 0.0000 0.0000 -11.5054 0.0000 16.8319
#
#
#
# Elastic Compliance Matrix: (Units=1/GPa)
#
#
# Indices 1 2 3 4 5 6 
#
# 1 0.023343 0.005433 -0.001213 0.000000 0.012720 0.000000
# 2 0.005433 0.040831 -0.001463 0.000000 0.015662 0.000000
# 3 -0.001213 -0.001463 0.009853 0.000000 0.002686 0.000000
# 4 0.000000 0.000000 0.000000 0.034015 0.000000 0.023251
# 5 0.012720 0.015662 0.002686 0.000000 0.045653 0.000000
# 6 0.000000 0.000000 0.000000 0.023251 0.000000 0.075304
#
#
# Mechanical properties :
#
#
# Convention : Reuss Voigt Hill
#
# Bulk Modulus (GPa) = 12.57251 24.40528 18.48890
# Shear Modulus (GPa) = 20.00012 28.23518 24.11765
#
# Velocity S-wave (km/s) = 3.03684 3.60829 3.33483
# Velocity P-wave (km/s) = 4.25370 5.34915 4.83257
#
# Compressibility (1/GPa) = 0.07953859
#
# Stress axis : x y z
#
# Youngs Moduli (GPa) = 42.83987 24.49136 101.49637
#
# Poissons Ratio (x) = -0.13305 0.12315
# Poissons Ratio (y) = -0.23273 0.14849
# Poissons Ratio (z) = 0.05198 0.03583
#
# Static dielectric constant tensor:
#      x y z
#    x 1.808830 0.000000 -0.015910 
#    y 0.000000 1.794170 0.000000 
#    z -0.015910 0.000000 1.852730 
# 
# From -- ./inp_files/117630.got.cif
#   From: 2010.05.17/outbox.cif.g08.bks.cpg/sg15_59_cif.got.tgz:117630.got - 2010.06.03 18:47:42.
