data_PCOD9264026
_publ_section_title
;
Structure prediction by ZEFSAII (Michael W. Deem and Ramdas Pophale) SiO2 
 PCOD9264026
Probable space group: C 2/C
;
_chemical_formula_sum "Si O2"
_cell_formula_units_Z 56
_cell_length_a 10.236601
_cell_length_b 20.485337
_cell_length_c 15.294396
_cell_angle_alpha 90.000000
_cell_angle_beta 124.391118
_cell_angle_gamma 90.000000
_cell_volume 2646.616414
_symmetry_space_group_name_H-M "C 2/C"
_symmetry_group_IT_number 15
_symmetry_cell_setting 'monoclinic'
loop_
_space_group_symop_operation_xyz
x,y,z
-x,y,1/2-z
-x,-y,-z
x,-y,1/2+z
1/2+x,1/2+y,z
1/2-x,1/2+y,1/2-z
1/2-x,1/2-y,-z
1/2+x,1/2-y,1/2+z
loop_
_atom_site_type_symbol
_atom_site_label
_atom_site_fract_x
_atom_site_fract_y
_atom_site_fract_z
Si Si1 0.611739 0.092279 0.590339
Si Si2 0.358002 0.694574 0.756594
Si Si3 0.255147 0.462544 0.864030
Si Si4 0.688867 0.846417 0.461688
Si Si5 0.177731 0.223619 0.327707
Si Si6 0.047286 0.454774 0.634629
Si Si7 0.941070 0.093310 0.937450
O O1 0.750709 0.143621 0.660044
O O2 0.472239 0.113901 0.602450
O O3 0.535872 0.092581 0.465589
O O4 0.634110 0.015351 0.618718
O O5 0.500000 0.720222 0.750000
O O6 0.255936 0.750206 0.767592
O O7 0.428510 0.649194 0.860534
O O8 0.177863 0.427601 0.750855
O O9 0.351342 0.527530 0.872404
O O10 0.103543 0.479441 0.866107
O O11 0.381117 0.421769 0.966961
O O12 0.720280 0.823829 0.572611
O O13 0.664806 0.786584 0.386560
O O14 0.840537 0.884676 0.483758
O O15 0.000000 0.197604 0.250000
#
# Coordination Sequence:
#
# PCOD9264026 Si02
#       7
#     8   8   8   8   8   8   8
#     4  11  20  36  57  89 118 161 196 245 301 367
#     4  11  22  38  63  89 119 154 201 255 311 363
#     4  10  19  35  53  84 122 163 196 238 284 364
#     4  10  21  37  62  88 113 154 207 260 293 357
#     4  10  21  39  65  88 110 151 212 254 308 360
#     4  10  21  33  56  84 124 163 202 228 295 371
#     4  10  20  34  58  86 120 157 198 243 300 345
#
# _framework density 21.159092999999999
#
# number of rings (size 3 to 8) (size 9 to 14) (size 15 to 20)
#    0.000    1.714    4.286    0.857    0.000    1.143 
#    0.000    0.714    6.286    0.000    0.000    0.000 
#    0.000    0.000    0.000    0.000    0.000    0.000 
#
# Total GULP energy -156176.628594 kJ/mol
# GULP energy per Si atom -5577.736736 kJ/mol
# Density = 2.111093 g / cm^3
# Si number density = 21.159093 Si / 1000 Ang^3
#
#
#
# Elastic Constant Matrix: (Units=GPa)
#
#
# Indices 1 2 3 4 5 6 
#
# 1 86.9684 2.1935 21.5017 0.0000 -0.7324 0.0000
# 2 2.1935 12.1746 5.3772 0.0000 -0.7862 0.0000
# 3 21.5017 5.3772 97.3277 0.0000 1.9871 0.0000
# 4 0.0000 0.0000 0.0000 12.7640 0.0000 -5.6461
# 5 -0.7324 -0.7862 1.9871 0.0000 27.3793 0.0000
# 6 0.0000 0.0000 0.0000 -5.6461 0.0000 17.4877
#
#
#
# Elastic Compliance Matrix: (Units=1/GPa)
#
#
# Indices 1 2 3 4 5 6 
#
# 1 0.012182 -0.000994 -0.002646 0.000000 0.000489 0.000000
# 2 -0.000994 0.084483 -0.004504 0.000000 0.002726 0.000000
# 3 -0.002646 -0.004504 0.011129 0.000000 -0.001008 0.000000
# 4 0.000000 0.000000 0.000000 0.091398 0.000000 0.029509
# 5 0.000489 0.002726 -0.001008 0.000000 0.036688 0.000000
# 6 0.000000 0.000000 0.000000 0.029509 0.000000 0.066710
#
#
# Mechanical properties :
#
#
# Convention : Reuss Voigt Hill
#
# Bulk Modulus (GPa) = 10.92840 28.29061 19.60950
# Shear Modulus (GPa) = 14.31106 22.68611 18.49859
#
# Velocity S-wave (km/s) = 2.60350 3.27795 2.96000
# Velocity P-wave (km/s) = 3.77011 5.26555 4.57929
#
# Compressibility (1/GPa) = 0.09150473
#
# Stress axis : x y z
#
# Youngs Moduli (GPa) = 82.08915 11.83675 89.85884
#
# Poissons Ratio (x) = 0.01177 0.23779
# Poissons Ratio (y) = 0.08163 0.40468
# Poissons Ratio (z) = 0.21723 0.05331
#
# Static dielectric constant tensor:
#      x y z
#    x 1.761480 0.000000 -0.012650 
#    y 0.000000 1.781780 0.000000 
#    z -0.012650 0.000000 1.775840 
# 
# From -- ./inp_files/137931.got.cif
#   From: 2010.05.17/outbox.cif.g08.bks.cpg/sg15_69_cif.got.tgz:137931.got - 2010.06.03 18:47:42.
