data_PCOD9264349
_publ_section_title
;
Structure prediction by ZEFSAII (Michael W. Deem and Ramdas Pophale) SiO2 
 PCOD9264349
Probable space group: C 2/C
;
_chemical_formula_sum "Si O2"
_cell_formula_units_Z 52
_cell_length_a 18.588295
_cell_length_b 11.877294
_cell_length_c 22.965087
_cell_angle_alpha 90.000000
_cell_angle_beta 24.568094
_cell_angle_gamma 90.000000
_cell_volume 2108.059720
_symmetry_space_group_name_H-M "C 2/C"
_symmetry_group_IT_number 15
_symmetry_cell_setting 'monoclinic'
loop_
_space_group_symop_operation_xyz
x,y,z
-x,y,1/2-z
-x,-y,-z
x,-y,1/2+z
1/2+x,1/2+y,z
1/2-x,1/2+y,1/2-z
1/2-x,1/2-y,-z
1/2+x,1/2-y,1/2+z
loop_
_atom_site_type_symbol
_atom_site_label
_atom_site_fract_x
_atom_site_fract_y
_atom_site_fract_z
Si Si1 0.500000 0.097597 0.250000
Si Si2 0.523092 0.177652 0.011209
Si Si3 0.871768 0.007058 0.447681
Si Si4 0.065243 0.239463 0.605665
Si Si5 0.418532 0.942941 0.138884
Si Si6 0.225759 0.831637 0.573582
Si Si7 0.701759 0.651437 0.895023
O O1 0.544949 0.177265 0.272458
O O2 0.331661 0.024867 0.391051
O O3 0.595074 0.219449 0.018675
O O4 0.406362 0.274887 0.070266
O O5 0.425164 0.064281 0.104103
O O6 0.639239 0.140242 0.870837
O O7 0.880593 0.071614 0.380536
O O8 0.912635 0.088272 0.472044
O O9 0.978069 0.892240 0.364793
O O10 0.250000 0.250000 0.500000
O O11 0.304386 0.936625 0.280332
O O12 0.605723 0.894587 0.022775
O O13 0.250000 0.750000 0.500000
O O14 0.176642 0.742111 0.660331
#
# Coordination Sequence:
#
# PCOD9264349 Si02
#       7
#     4   8   8   8   8   8   8
#     4  10  20  36  62  82 104 154 194 222 286 350
#     4  10  22  38  57  83 114 149 191 230 278 341
#     4  10  19  35  58  83 117 146 183 239 279 329
#     4  10  21  36  56  82 111 143 185 232 279 337
#     4  10  20  38  60  81 114 153 187 232 278 331
#     4   9  19  36  58  87 113 145 192 233 278 333
#     4  10  21  36  59  85 110 152 192 227 282 333
#
# _framework density 24.667234000000001
#
# number of rings (size 3 to 8) (size 9 to 14) (size 15 to 20)
#    0.000    2.154    0.000    3.692    0.000    6.154 
#    0.000    7.692    0.000    0.000    0.000    0.000 
#    0.000    0.000    0.000    0.000    0.000    0.000 
#
# Total GULP energy -145206.636588 kJ/mol
# GULP energy per Si atom -5584.870638 kJ/mol
# Density = 2.461109 g / cm^3
# Si number density = 24.667234 Si / 1000 Ang^3
#
#
#
# Elastic Constant Matrix: (Units=GPa)
#
#
# Indices 1 2 3 4 5 6 
#
# 1 153.4897 50.1488 42.3359 -0.0038 56.2765 0.0008
# 2 50.1488 119.8199 25.3943 -0.0058 13.0364 0.0019
# 3 42.3359 25.3943 82.2942 -0.0084 25.4788 0.0030
# 4 -0.0038 -0.0058 -0.0084 22.4260 0.0039 21.0548
# 5 56.2765 13.0364 25.4788 0.0039 33.0724 -0.0007
# 6 0.0008 0.0019 0.0030 21.0548 -0.0007 56.2838
#
#
#
# Elastic Compliance Matrix: (Units=1/GPa)
#
#
# Indices 1 2 3 4 5 6 
#
# 1 0.019788 -0.005034 0.001555 0.000014 -0.032886 -0.000006
# 2 -0.005034 0.010296 -0.002604 0.000000 0.006513 0.000000
# 3 0.001555 -0.002604 0.016621 0.000014 -0.014424 -0.000006
# 4 0.000014 0.000000 0.000014 0.068730 -0.000043 -0.025711
# 5 -0.032886 0.006513 -0.014424 -0.000043 0.094740 0.000018
# 6 -0.000006 0.000000 -0.000006 -0.025711 0.000018 0.027385
#
#
# Mechanical properties :
#
#
# Convention : Reuss Voigt Hill
#
# Bulk Modulus (GPa) = 28.95232 65.70685 47.32958
# Shear Modulus (GPa) = 19.13956 38.20477 28.67217
#
# Velocity S-wave (km/s) = 2.78854 3.93976 3.41304
# Velocity P-wave (km/s) = 4.70431 6.88409 5.89582
#
# Compressibility (1/GPa) = 0.03453955
#
# Stress axis : x y z
#
# Youngs Moduli (GPa) = 50.53495 97.12615 60.16506
#
# Poissons Ratio (x) = 0.48890 -0.09355
# Poissons Ratio (y) = 0.25438 0.15667
# Poissons Ratio (z) = -0.07858 0.25292
#
# Static dielectric constant tensor:
#      x y z
#    x 1.964160 0.000000 -0.053650 
#    y 0.000000 2.008610 0.000000 
#    z -0.053650 0.000000 2.016920 
# 
# From -- ./inp_files/248562.got.cif
#   From: 2010.05.17/outbox.cif.g08.bks.cpg/sg15_125_cif.got.tgz:248562.got - 2010.06.03 18:47:42.
