data_PCOD9264092
_publ_section_title
;
Structure prediction by ZEFSAII (Michael W. Deem and Ramdas Pophale) SiO2 
 PCOD9264092
Probable space group: C 2/C
;
_chemical_formula_sum "Si O2"
_cell_formula_units_Z 32
_cell_length_a 17.969898
_cell_length_b 17.781196
_cell_length_c 12.653387
_cell_angle_alpha 90.000000
_cell_angle_beta 157.938533
_cell_angle_gamma 90.000000
_cell_volume 1518.588769
_symmetry_space_group_name_H-M "C 2/C"
_symmetry_group_IT_number 15
_symmetry_cell_setting 'monoclinic'
loop_
_space_group_symop_operation_xyz
x,y,z
-x,y,1/2-z
-x,-y,-z
x,-y,1/2+z
1/2+x,1/2+y,z
1/2-x,1/2+y,1/2-z
1/2-x,1/2-y,-z
1/2+x,1/2-y,1/2+z
loop_
_atom_site_type_symbol
_atom_site_label
_atom_site_fract_x
_atom_site_fract_y
_atom_site_fract_z
Si Si1 0.716807 0.408247 0.304897
Si Si2 0.045445 0.587337 0.585292
Si Si3 0.391740 0.641112 0.504609
Si Si4 0.500000 0.212884 0.250000
Si Si5 0.500000 0.041133 0.750000
O O1 0.486981 0.400169 0.029468
O O2 0.823584 0.485016 0.480703
O O3 0.783892 0.391838 0.273300
O O4 0.817260 0.344007 0.511592
O O5 0.077478 0.588913 0.752777
O O6 0.000000 0.500000 0.500000
O O7 0.842062 0.631438 0.295443
O O8 0.500000 0.605363 0.750000
O O9 0.451719 0.728895 0.592538
#
# Coordination Sequence:
#
# PCOD9264092 Si02
#       5
#     8   8   8   4   4
#     4  10  19  35  55  81 110 139 174 228 278 314
#     4  10  21  35  52  77 111 148 177 218 265 321
#     4  10  20  31  54  85 108 133 175 226 276 317
#     4   9  20  32  56  90 110 129 178 236 282 313
#     4   9  20  36  52  74 114 145 178 214 260 325
#
# _framework density 21.072196000000002
#
# number of rings (size 3 to 8) (size 9 to 14) (size 15 to 20)
#    0.750    1.500    0.000    5.250    3.500    4.000 
#    0.000    6.250    0.000    1.500    0.000    0.000 
#    3.750    0.000    0.000    0.000    0.000    0.000 
#
# Total GULP energy -89149.998784 kJ/mol
# GULP energy per Si atom -5571.874924 kJ/mol
# Density = 2.102423 g / cm^3
# Si number density = 21.072196 Si / 1000 Ang^3
#
#
#
# Elastic Constant Matrix: (Units=GPa)
#
#
# Indices 1 2 3 4 5 6 
#
# 1 191.4727 19.9917 38.9850 0.0000 8.0809 0.0000
# 2 19.9917 55.1058 18.8681 0.0000 -2.0481 0.0000
# 3 38.9850 18.8681 28.2083 0.0000 1.7924 0.0000
# 4 0.0000 0.0000 0.0000 14.0984 0.0000 0.3638
# 5 8.0809 -2.0481 1.7924 0.0000 31.0413 0.0000
# 6 0.0000 0.0000 0.0000 0.3638 0.0000 19.0494
#
#
#
# Elastic Compliance Matrix: (Units=1/GPa)
#
#
# Indices 1 2 3 4 5 6 
#
# 1 0.007360 0.000960 -0.010736 0.000000 -0.001233 0.000000
# 2 0.000960 0.023853 -0.017430 0.000000 0.002330 0.000000
# 3 -0.010736 -0.017430 0.062070 0.000000 -0.001939 0.000000
# 4 0.000000 0.000000 0.000000 0.070965 0.000000 -0.001355
# 5 -0.001233 0.002330 -0.001939 0.000000 0.032802 0.000000
# 6 0.000000 0.000000 0.000000 -0.001355 0.000000 0.052521
#
#
# Mechanical properties :
#
#
# Convention : Reuss Voigt Hill
#
# Bulk Modulus (GPa) = 25.72564 47.83070 36.77817
# Shear Modulus (GPa) = 15.77581 25.96729 20.87155
#
# Velocity S-wave (km/s) = 2.73912 3.51422 3.15060
# Velocity P-wave (km/s) = 4.71578 6.26212 5.54314
#
# Compressibility (1/GPa) = 0.03887173
#
# Stress axis : x y z
#
# Youngs Moduli (GPa) = 135.86178 41.92314 16.11080
#
# Poissons Ratio (x) = -0.04024 0.17297
# Poissons Ratio (y) = -0.13042 0.28081
# Poissons Ratio (z) = 1.45863 0.73071
#
# Static dielectric constant tensor:
#      x y z
#    x 1.871310 0.000000 0.029780 
#    y 0.000000 1.767000 0.000000 
#    z 0.029780 0.000000 1.799280 
# 
# From -- ./inp_files/146575.got.cif
#   From: 2010.05.17/outbox.cif.g08.bks.cpg/sg15_74_cif.got.tgz:146575.got - 2010.06.03 18:47:42.
