data_PCOD9264105
_publ_section_title
;
Structure prediction by ZEFSAII (Michael W. Deem and Ramdas Pophale) SiO2 
 PCOD9264105
Probable space group: C 2/C
;
_chemical_formula_sum "Si O2"
_cell_formula_units_Z 56
_cell_length_a 8.875181
_cell_length_b 20.330162
_cell_length_c 22.266792
_cell_angle_alpha 90.000000
_cell_angle_beta 136.215068
_cell_angle_gamma 90.000000
_cell_volume 2780.049434
_symmetry_space_group_name_H-M "C 2/C"
_symmetry_group_IT_number 15
_symmetry_cell_setting 'monoclinic'
loop_
_space_group_symop_operation_xyz
x,y,z
-x,y,1/2-z
-x,-y,-z
x,-y,1/2+z
1/2+x,1/2+y,z
1/2-x,1/2+y,1/2-z
1/2-x,1/2-y,-z
1/2+x,1/2-y,1/2+z
loop_
_atom_site_type_symbol
_atom_site_label
_atom_site_fract_x
_atom_site_fract_y
_atom_site_fract_z
Si Si1 0.874711 0.937528 0.039102
Si Si2 0.474376 0.746090 0.480951
Si Si3 0.331006 0.969068 0.122982
Si Si4 0.925941 0.318242 0.585852
Si Si5 0.187713 0.433169 0.708422
Si Si6 0.324876 0.855919 0.036010
Si Si7 0.179696 0.953178 0.888150
O O1 0.137329 0.942843 0.110060
O O2 0.752263 0.868553 0.995329
O O3 0.802808 0.974707 0.078411
O O4 0.788518 0.982869 0.959539
O O5 0.223115 0.728938 0.417374
O O6 0.539580 0.778739 0.564161
O O7 0.518407 0.799243 0.442385
O O8 0.614091 0.681753 0.503026
O O9 0.534439 0.014790 0.197773
O O10 0.414210 0.905006 0.111714
O O11 0.082485 0.361112 0.672931
O O12 0.427493 0.435309 0.804266
O O13 0.203662 0.451717 0.642265
O O14 0.264920 0.900936 0.961314
#
# Coordination Sequence:
#
# PCOD9264105 Si02
#       7
#     8   8   8   8   8   8   8
#     4   9  18  32  53  79 104 130 171 220 264 306
#     4  10  20  32  56  80 104 136 180 218 262 296
#     4   9  18  32  53  79 104 130 171 220 264 306
#     4  10  19  35  55  83 105 139 180 227 251 314
#     4  10  21  35  54  79 109 139 172 221 277 321
#     4  10  19  35  55  83 105 139 180 227 251 314
#     4  10  21  35  54  79 109 139 172 221 277 321
#
# _framework density 20.143526999999999
#
# number of rings (size 3 to 8) (size 9 to 14) (size 15 to 20)
#    0.000    2.286    2.857    0.000    4.000    2.286 
#    0.000    0.000    0.000   10.286    0.000    0.000 
#    0.000    0.000    0.000    0.000    0.000    0.000 
#
# Total GULP energy -156169.896937 kJ/mol
# GULP energy per Si atom -5577.496319 kJ/mol
# Density = 2.009768 g / cm^3
# Si number density = 20.143527 Si / 1000 Ang^3
#
#
#
# Elastic Constant Matrix: (Units=GPa)
#
#
# Indices 1 2 3 4 5 6 
#
# 1 76.8963 18.1348 10.8589 -0.0003 -1.3467 -0.0002
# 2 18.1348 55.0422 7.2061 -0.0003 -7.0453 -0.0001
# 3 10.8589 7.2061 31.0237 -0.0003 4.9944 -0.0001
# 4 -0.0003 -0.0003 -0.0003 6.7000 -0.0003 5.0820
# 5 -1.3467 -7.0453 4.9944 -0.0003 22.3517 -0.0002
# 6 -0.0002 -0.0001 -0.0001 5.0820 -0.0002 32.1458
#
#
#
# Elastic Compliance Matrix: (Units=1/GPa)
#
#
# Indices 1 2 3 4 5 6 
#
# 1 0.014598 -0.004194 -0.004216 0.000000 0.000500 0.000000
# 2 -0.004194 0.021108 -0.004632 0.000001 0.007436 0.000000
# 3 -0.004216 -0.004632 0.036369 0.000001 -0.009841 0.000000
# 4 0.000000 0.000001 0.000001 0.169591 0.000002 -0.026811
# 5 0.000500 0.007436 -0.009841 0.000002 0.049312 0.000000
# 6 0.000000 0.000000 0.000000 -0.026811 0.000000 0.035347
#
#
# Mechanical properties :
#
#
# Convention : Reuss Voigt Hill
#
# Bulk Modulus (GPa) = 21.74311 26.15132 23.94722
# Shear Modulus (GPa) = 13.59666 20.69033 17.14350
#
# Velocity S-wave (km/s) = 2.60087 3.20839 2.92047
# Velocity P-wave (km/s) = 4.45387 5.17066 4.82559
#
# Compressibility (1/GPa) = 0.04599157
#
# Stress axis : x y z
#
# Youngs Moduli (GPa) = 68.50442 47.37608 27.49586
#
# Poissons Ratio (x) = 0.19868 0.11592
# Poissons Ratio (y) = 0.28728 0.12736
# Poissons Ratio (z) = 0.28880 0.21945
#
# Static dielectric constant tensor:
#      x y z
#    x 1.755920 0.000000 0.009390 
#    y 0.000000 1.732030 0.000000 
#    z 0.009390 0.000000 1.729040 
# 
# From -- ./inp_files/191590.got.cif
#   From: 2010.05.17/outbox.cif.g08.bks.cpg/sg15_96_cif.got.tgz:191590.got - 2010.06.03 18:47:42.
