data_PCOD9264467
_publ_section_title
;
Structure prediction by ZEFSAII (Michael W. Deem and Ramdas Pophale) SiO2 
 PCOD9264467
Probable space group: C 2/C
;
_chemical_formula_sum "Si O2"
_cell_formula_units_Z 60
_cell_length_a 18.168139
_cell_length_b 12.456125
_cell_length_c 29.822163
_cell_angle_alpha 90.000000
_cell_angle_beta 27.770697
_cell_angle_gamma 90.000000
_cell_volume 3144.539881
_symmetry_space_group_name_H-M "C 2/C"
_symmetry_group_IT_number 15
_symmetry_cell_setting 'monoclinic'
loop_
_space_group_symop_operation_xyz
x,y,z
-x,y,1/2-z
-x,-y,-z
x,-y,1/2+z
1/2+x,1/2+y,z
1/2-x,1/2+y,1/2-z
1/2-x,1/2-y,-z
1/2+x,1/2-y,1/2+z
loop_
_atom_site_type_symbol
_atom_site_label
_atom_site_fract_x
_atom_site_fract_y
_atom_site_fract_z
Si Si1 0.721404 0.143865 0.603907
Si Si2 0.599478 0.639474 0.787863
Si Si3 0.037551 0.928503 0.600075
Si Si4 0.500000 0.554128 0.750000
Si Si5 0.581128 0.022497 0.870000
Si Si6 0.761267 0.108118 0.418138
Si Si7 0.623708 0.108432 0.750481
Si Si8 0.214474 0.307366 0.788266
O O1 0.854060 0.095656 0.500506
O O2 0.748768 0.271527 0.595517
O O3 0.707066 0.080728 0.658584
O O4 0.553495 0.137971 0.668939
O O5 0.510203 0.552418 0.867239
O O6 0.519487 0.626889 0.783062
O O7 0.779783 0.597626 0.686244
O O8 0.610652 0.753841 0.805180
O O9 0.131752 0.891779 0.594137
O O10 0.874695 0.863356 0.684683
O O11 0.648179 0.473608 0.663595
O O12 0.605023 0.029666 0.802901
O O13 0.616143 0.900711 0.865320
O O14 0.410879 0.064999 0.975740
O O15 0.721788 0.209833 0.716147
#
# Coordination Sequence:
#
# PCOD9264467 Si02
#       8
#     8   8   8   4   8   8   8   8
#     4  11  19  31  60  89 114 140 186 244 279 331
#     4   9  21  38  59  79 117 151 188 235 281 337
#     4  10  19  35  59  85 114 149 185 228 290 339
#     4  10  22  38  54  84 114 148 192 244 274 332
#     4  10  21  37  59  83 116 151 187 231 285 344
#     4  11  20  34  59  88 116 141 190 237 290 331
#     4  10  20  34  56  89 113 142 189 234 284 330
#     4  10  20  40  56  80 117 159 183 227 289 337
#
# _framework density 19.080693
#
# number of rings (size 3 to 8) (size 9 to 14) (size 15 to 20)
#    0.000    1.867    2.667    2.800    3.733    0.533 
#    2.400   10.000    0.000    0.000    0.000    0.000 
#    0.000    0.000    0.000    0.000    0.000    0.000 
#
# Total GULP energy -167395.272302 kJ/mol
# GULP energy per Si atom -5579.842410 kJ/mol
# Density = 1.903726 g / cm^3
# Si number density = 19.080693 Si / 1000 Ang^3
#
#
#
# Elastic Constant Matrix: (Units=GPa)
#
#
# Indices 1 2 3 4 5 6 
#
# 1 41.3824 0.1013 7.9285 0.0002 -0.1345 -0.0001
# 2 0.1013 29.3264 -2.7829 0.0000 -8.8626 0.0000
# 3 7.9285 -2.7829 67.0489 -0.0006 -4.2802 -0.0002
# 4 0.0002 0.0000 -0.0006 6.7770 -0.0001 -6.6161
# 5 -0.1345 -8.8626 -4.2802 -0.0001 19.7235 0.0002
# 6 -0.0001 0.0000 -0.0002 -6.6161 0.0002 22.3806
#
#
#
# Elastic Compliance Matrix: (Units=1/GPa)
#
#
# Indices 1 2 3 4 5 6 
#
# 1 0.024738 -0.000597 -0.002998 -0.000002 -0.000750 0.000000
# 2 -0.000597 0.040000 0.002918 0.000001 0.018603 0.000000
# 3 -0.002998 0.002918 0.015690 0.000002 0.004696 0.000001
# 4 -0.000002 0.000001 0.000002 0.207417 0.000001 0.061316
# 5 -0.000750 0.018603 0.004696 0.000001 0.060074 0.000000
# 6 0.000000 0.000000 0.000001 0.061316 0.000000 0.062808
#
#
# Mechanical properties :
#
#
# Convention : Reuss Voigt Hill
#
# Bulk Modulus (GPa) = 12.64610 16.47236 14.55923
# Shear Modulus (GPa) = 11.40414 18.61027 15.00721
#
# Velocity S-wave (km/s) = 2.44740 3.12644 2.80753
# Velocity P-wave (km/s) = 3.82471 4.65667 4.26105
#
# Compressibility (1/GPa) = 0.07907577
#
# Stress axis : x y z
#
# Youngs Moduli (GPa) = 40.42323 25.00009 63.73527
#
# Poissons Ratio (x) = 0.01491 0.19107
# Poissons Ratio (y) = 0.02411 -0.18600
# Poissons Ratio (z) = 0.12119 -0.07296
#
# Static dielectric constant tensor:
#      x y z
#    x 1.703500 0.000000 0.020010 
#    y 0.000000 1.652310 0.000000 
#    z 0.020010 0.000000 1.645300 
# 
# From -- ./inp_files/316059.got.cif
#   From: 2010.05.17/outbox.cif.g08.bks.cpg/sg15_159_cif.got.tgz:316059.got - 2010.06.03 18:47:42.
