data_PCOD9264031
_publ_section_title
;
Structure prediction by ZEFSAII (Michael W. Deem and Ramdas Pophale) SiO2 
 PCOD9264031
Probable space group: C 2/C
;
_chemical_formula_sum "Si O2"
_cell_formula_units_Z 60
_cell_length_a 21.708817
_cell_length_b 19.674998
_cell_length_c 8.756680
_cell_angle_alpha 90.000000
_cell_angle_beta 139.005061
_cell_angle_gamma 90.000000
_cell_volume 2453.517255
_symmetry_space_group_name_H-M "C 2/C"
_symmetry_group_IT_number 15
_symmetry_cell_setting 'monoclinic'
loop_
_space_group_symop_operation_xyz
x,y,z
-x,y,1/2-z
-x,-y,-z
x,-y,1/2+z
1/2+x,1/2+y,z
1/2-x,1/2+y,1/2-z
1/2-x,1/2-y,-z
1/2+x,1/2-y,1/2+z
loop_
_atom_site_type_symbol
_atom_site_label
_atom_site_fract_x
_atom_site_fract_y
_atom_site_fract_z
Si Si1 0.537494 0.904207 0.163846
Si Si2 0.327168 0.030538 0.816886
Si Si3 0.660320 0.898543 0.827201
Si Si4 0.960884 0.167263 0.453988
Si Si5 0.335881 0.672871 0.751607
Si Si6 0.374178 0.567773 0.062133
Si Si7 0.000000 0.056853 0.750000
Si Si8 0.605181 0.765700 0.374516
O O1 0.500000 0.938652 0.250000
O O2 0.587531 0.949537 0.132840
O O3 0.608683 0.845570 0.352582
O O4 0.444339 0.873701 0.908897
O O5 0.231413 0.064539 0.575359
O O6 0.311862 0.950824 0.755890
O O7 0.341291 0.058974 0.014883
O O8 0.736481 0.838793 0.985959
O O9 0.937684 0.123501 0.260581
O O10 0.941517 0.109821 0.540589
O O11 0.896832 0.231832 0.297940
O O12 0.070323 0.188630 0.669353
O O13 0.359942 0.597085 0.864793
O O14 0.330954 0.725513 0.884816
O O15 0.425278 0.496072 0.178511
O O16 0.500000 0.756591 0.250000
#
# Coordination Sequence:
#
# PCOD9264031 Si02
#       8
#     8   8   8   8   8   8   4   8
#     4  11  23  45  68  88 121 180 226 270 319 375
#     4  11  24  39  63  97 133 165 216 275 327 380
#     4  11  23  40  64  98 129 169 216 271 328 380
#     4  10  19  35  53  88 127 164 207 257 321 385
#     4   9  18  38  62  90 124 165 206 262 316 386
#     4  10  20  33  57  87 123 165 202 253 324 390
#     4  12  20  28  56  92 126 170 200 250 328 394
#     4   8  18  40  66  83 120 170 217 257 323 382
#
# _framework density 24.454687
#
# number of rings (size 3 to 8) (size 9 to 14) (size 15 to 20)
#    0.000    1.867    1.333    3.600    3.733    0.000 
#    4.800   12.000    0.000    0.000    0.000    0.000 
#    0.000    0.000    0.000    0.000    0.000    0.000 
#
# Total GULP energy -167318.384375 kJ/mol
# GULP energy per Si atom -5577.279479 kJ/mol
# Density = 2.439903 g / cm^3
# Si number density = 24.454687 Si / 1000 Ang^3
#
#
#
# Elastic Constant Matrix: (Units=GPa)
#
#
# Indices 1 2 3 4 5 6 
#
# 1 34.7570 10.8272 24.2195 0.0000 1.4428 0.0000
# 2 10.8272 77.2844 30.7078 0.0000 -12.3753 0.0000
# 3 24.2195 30.7078 123.5750 0.0000 12.0214 0.0000
# 4 0.0000 0.0000 0.0000 32.0264 0.0000 -4.4458
# 5 1.4428 -12.3753 12.0214 0.0000 37.3096 0.0000
# 6 0.0000 0.0000 0.0000 -4.4458 0.0000 11.5287
#
#
#
# Elastic Compliance Matrix: (Units=1/GPa)
#
#
# Indices 1 2 3 4 5 6 
#
# 1 0.033695 -0.002360 -0.006003 0.000000 -0.000152 0.000000
# 2 -0.002360 0.016007 -0.004171 0.000000 0.006745 0.000000
# 3 -0.006003 -0.004171 0.010754 0.000000 -0.004617 0.000000
# 4 0.000000 0.000000 0.000000 0.032990 0.000000 0.012722
# 5 -0.000152 0.006745 -0.004617 0.000000 0.030533 0.000000
# 6 0.000000 0.000000 0.000000 0.012722 0.000000 0.091646
#
#
# Mechanical properties :
#
#
# Convention : Reuss Voigt Hill
#
# Bulk Modulus (GPa) = 28.25718 40.79172 34.52445
# Shear Modulus (GPa) = 19.80268 27.49705 23.64986
#
# Velocity S-wave (km/s) = 2.84873 3.35686 3.11318
# Velocity P-wave (km/s) = 4.73290 5.63395 5.20297
#
# Compressibility (1/GPa) = 0.03538924
#
# Stress axis : x y z
#
# Youngs Moduli (GPa) = 29.67758 62.47165 92.98492
#
# Poissons Ratio (x) = 0.14742 0.55818
# Poissons Ratio (y) = 0.07003 0.38788
# Poissons Ratio (z) = 0.17815 0.26059
#
# Static dielectric constant tensor:
#      x y z
#    x 1.995960 0.000000 -0.063310 
#    y 0.000000 2.003770 0.000000 
#    z -0.063310 0.000000 2.059540 
# 
# From -- ./inp_files/58760.got.cif
#   From: 2010.05.17/outbox.cif.g08.bks.cpg/sg15_30_cif.got.tgz:58760.got - 2010.06.03 18:47:42.
