data_PCOD9264612
_publ_section_title
;
Structure prediction by ZEFSAII (Michael W. Deem and Ramdas Pophale) SiO2 
 PCOD9264612
Probable space group: C 2/C
;
_chemical_formula_sum "Si O2"
_cell_formula_units_Z 48
_cell_length_a 21.101608
_cell_length_b 16.323187
_cell_length_c 8.856887
_cell_angle_alpha 90.000000
_cell_angle_beta 136.869609
_cell_angle_gamma 90.000000
_cell_volume 2085.654655
_symmetry_space_group_name_H-M "C 2/C"
_symmetry_group_IT_number 15
_symmetry_cell_setting 'monoclinic'
loop_
_space_group_symop_operation_xyz
x,y,z
-x,y,1/2-z
-x,-y,-z
x,-y,1/2+z
1/2+x,1/2+y,z
1/2-x,1/2+y,1/2-z
1/2-x,1/2-y,-z
1/2+x,1/2-y,1/2+z
loop_
_atom_site_type_symbol
_atom_site_label
_atom_site_fract_x
_atom_site_fract_y
_atom_site_fract_z
Si Si1 0.758411 0.925677 0.656491
Si Si2 0.944203 0.567875 0.807085
Si Si3 0.224302 0.337232 0.887879
Si Si4 0.976999 0.293682 0.884823
Si Si5 0.621483 0.534532 0.410920
Si Si6 0.911342 0.889635 0.340590
O O1 0.661371 0.953987 0.416686
O O2 0.740197 0.848226 0.736056
O O3 0.831804 0.917082 0.647907
O O4 0.800512 0.988475 0.852030
O O5 0.000000 0.576744 0.750000
O O6 0.000000 0.500000 0.000000
O O7 0.945079 0.656453 0.889959
O O8 0.116544 0.344519 0.738026
O O9 0.250000 0.250000 0.000000
O O10 0.301220 0.389056 0.110052
O O11 0.957659 0.198061 0.887274
O O12 0.000000 0.299214 0.750000
O O13 0.560350 0.463347 0.222851
O O14 0.578701 0.590713 0.466991
#
# Coordination Sequence:
#
# PCOD9264612 Si02
#       6
#     8   8   8   8   8   8
#     4  10  19  35  60  92 124 157 210 259 318 381
#     4  12  24  37  58  88 133 172 212 249 316 395
#     4   9  19  38  60  84 123 162 206 259 312 371
#     4  11  24  41  59  87 133 177 209 259 321 384
#     4   9  19  36  69  93 121 158 215 274 316 370
#     4   9  20  40  65  93 123 162 216 267 322 375
#
# _framework density 23.014357
#
# number of rings (size 3 to 8) (size 9 to 14) (size 15 to 20)
#    0.000    2.000    1.667    1.500    7.000    0.000 
#    0.000   10.833    0.000    0.000    0.000    0.000 
#    0.000    0.000    0.000    0.000    0.000    0.000 
#
# Total GULP energy -133944.236522 kJ/mol
# GULP energy per Si atom -5581.009855 kJ/mol
# Density = 2.296198 g / cm^3
# Si number density = 23.014357 Si / 1000 Ang^3
#
#
#
# Elastic Constant Matrix: (Units=GPa)
#
#
# Indices 1 2 3 4 5 6 
#
# 1 137.5341 53.7549 47.0424 0.0000 -62.1531 0.0000
# 2 53.7549 85.4402 53.8260 0.0000 -32.6124 0.0000
# 3 47.0424 53.8260 163.3920 0.0000 -20.8665 0.0000
# 4 0.0000 0.0000 0.0000 25.3031 0.0000 -2.5986
# 5 -62.1531 -32.6124 -20.8665 0.0000 51.5979 0.0000
# 6 0.0000 0.0000 0.0000 -2.5986 0.0000 42.0535
#
#
#
# Elastic Compliance Matrix: (Units=1/GPa)
#
#
# Indices 1 2 3 4 5 6 
#
# 1 0.017193 -0.002769 -0.001704 0.000000 0.018270 0.000000
# 2 -0.002769 0.018906 -0.004567 0.000000 0.006767 0.000000
# 3 -0.001704 -0.004567 0.007892 0.000000 -0.001748 0.000000
# 4 0.000000 0.000000 0.000000 0.039773 0.000000 0.002458
# 5 0.018270 0.006767 -0.001748 0.000000 0.044958 0.000000
# 6 0.000000 0.000000 0.000000 0.002458 0.000000 0.023931
#
#
# Mechanical properties :
#
#
# Convention : Reuss Voigt Hill
#
# Bulk Modulus (GPa) = 38.59493 77.29033 57.94263
# Shear Modulus (GPa) = 27.87499 39.24044 33.55772
#
# Velocity S-wave (km/s) = 3.48401 4.13369 3.82268
# Velocity P-wave (km/s) = 5.74376 7.51263 6.68694
#
# Compressibility (1/GPa) = 0.02591014
#
# Stress axis : x y z
#
# Youngs Moduli (GPa) = 58.16381 52.89208 126.70773
#
# Poissons Ratio (x) = 0.14648 0.21596
# Poissons Ratio (y) = 0.16108 0.57864
# Poissons Ratio (z) = 0.09914 0.24155
#
# Static dielectric constant tensor:
#      x y z
#    x 1.928290 0.000000 0.092410 
#    y 0.000000 2.196090 0.000000 
#    z 0.092410 0.000000 1.912550 
# 
# From -- ./inp_files/56784.got.cif
#   From: 2010.05.17/outbox.cif.g08.bks.cpg/sg15_29_cif.got.tgz:56784.got - 2010.06.03 18:47:42.
