data_PCOD9264930
_publ_section_title
;
Structure prediction by ZEFSAII (Michael W. Deem and Ramdas Pophale) SiO2 
 PCOD9264930
Probable space group: C 2/C
;
_chemical_formula_sum "Si O2"
_cell_formula_units_Z 64
_cell_length_a 13.557939
_cell_length_b 28.984832
_cell_length_c 9.772419
_cell_angle_alpha 90.000000
_cell_angle_beta 90.532760
_cell_angle_gamma 90.000000
_cell_volume 3840.146276
_symmetry_space_group_name_H-M "C 2/C"
_symmetry_group_IT_number 15
_symmetry_cell_setting 'monoclinic'
loop_
_space_group_symop_operation_xyz
x,y,z
-x,y,1/2-z
-x,-y,-z
x,-y,1/2+z
1/2+x,1/2+y,z
1/2-x,1/2+y,1/2-z
1/2-x,1/2-y,-z
1/2+x,1/2-y,1/2+z
loop_
_atom_site_type_symbol
_atom_site_label
_atom_site_fract_x
_atom_site_fract_y
_atom_site_fract_z
Si Si1 0.922094 0.712120 0.863186
Si Si2 0.060673 0.939445 0.112898
Si Si3 0.641265 0.651236 0.526853
Si Si4 0.897540 0.680606 0.169069
Si Si5 0.803769 0.780320 0.234660
Si Si6 0.415616 0.456806 0.863685
Si Si7 0.288097 0.372653 0.773113
Si Si8 0.575441 0.687024 0.025433
O O1 0.811282 0.715955 0.803376
O O2 0.950431 0.763698 0.909764
O O3 0.000000 0.695708 0.750000
O O4 0.916958 0.685158 0.006873
O O5 0.138449 0.898308 0.100753
O O6 0.000000 0.934137 0.250000
O O7 0.110921 0.989922 0.108792
O O8 0.975834 0.938714 0.995496
O O9 0.679013 0.692935 0.622637
O O10 0.692904 0.642942 0.382475
O O11 0.526787 0.661766 0.498030
O O12 0.841474 0.727312 0.222970
O O13 0.824766 0.638092 0.194536
O O14 0.000000 0.677460 0.250000
O O15 0.867595 0.805291 0.116615
O O16 0.500000 0.457260 0.750000
O O17 0.329097 0.423545 0.809582
O O18 0.354163 0.339892 0.870627
#
# Coordination Sequence:
#
# PCOD9264930 Si02
#       8
#     8   8   8   8   8   8   8   8
#     4  11  22  38  57  77 111 152 195 236 284 332
#     4  10  20  32  54  83 120 147 178 226 282 339
#     4  12  23  32  57  87 115 152 189 230 272 350
#     4  11  24  40  56  79 112 153 194 247 278 323
#     4  11  22  38  53  81 115 149 195 233 283 326
#     4  10  19  36  54  82 117 148 181 224 281 350
#     4  12  21  36  56  78 114 152 194 223 283 340
#     4  11  19  37  53  78 110 154 188 221 276 336
#
# _framework density 16.666032000000001
#
# number of rings (size 3 to 8) (size 9 to 14) (size 15 to 20)
#    0.000    1.000    5.000    4.500    1.750    0.500 
#    0.000    0.000    0.000    0.000    0.000    1.750 
#    0.000    0.000    0.000    0.000    0.000    0.000 
#
# Total GULP energy -178600.229063 kJ/mol
# GULP energy per Si atom -5581.257158 kJ/mol
# Density = 1.662810 g / cm^3
# Si number density = 16.666032 Si / 1000 Ang^3
#
#
#
# Elastic Constant Matrix: (Units=GPa)
#
#
# Indices 1 2 3 4 5 6 
#
# 1 100.3759 45.2384 42.7954 0.0000 -2.8350 0.0000
# 2 45.2384 50.1724 17.0747 0.0000 2.2250 0.0000
# 3 42.7954 17.0747 84.4378 0.0000 6.9767 0.0000
# 4 0.0000 0.0000 0.0000 66.6911 0.0000 -20.2380
# 5 -2.8350 2.2250 6.9767 0.0000 21.0663 0.0000
# 6 0.0000 0.0000 0.0000 -20.2380 0.0000 25.9475
#
#
#
# Elastic Compliance Matrix: (Units=1/GPa)
#
#
# Indices 1 2 3 4 5 6 
#
# 1 0.020991 -0.016563 -0.007883 0.000000 0.007185 0.000000
# 2 -0.016563 0.034488 0.001959 0.000000 -0.006520 0.000000
# 3 -0.007883 0.001959 0.015984 0.000000 -0.006562 0.000000
# 4 0.000000 0.000000 0.000000 0.019644 0.000000 0.015321
# 5 0.007185 -0.006520 -0.006562 0.000000 0.051298 0.000000
# 6 0.000000 0.000000 0.000000 0.015321 0.000000 0.050490
#
#
# Mechanical properties :
#
#
# Convention : Reuss Voigt Hill
#
# Bulk Modulus (GPa) = 37.75059 49.46703 43.60881
# Shear Modulus (GPa) = 20.26769 31.39948 25.83359
#
# Velocity S-wave (km/s) = 3.49106 4.34526 3.94137
# Velocity P-wave (km/s) = 6.24102 7.41086 6.85096
#
# Compressibility (1/GPa) = 0.02648966
#
# Stress axis : x y z
#
# Youngs Moduli (GPa) = 47.63907 28.99596 62.56066
#
# Poissons Ratio (x) = 0.48025 0.49319
# Poissons Ratio (y) = 0.78903 -0.12257
# Poissons Ratio (z) = 0.37555 -0.05681
#
# Static dielectric constant tensor:
#      x y z
#    x 1.529960 0.000000 0.002910 
#    y 0.000000 1.594550 0.000000 
#    z 0.002910 0.000000 1.588640 
# 
# From -- ./inp_files/35664.got.cif
#   From: 2010.05.17/outbox.cif.g08.bks.cpg/sg15_18_cif.got.tgz:35664.got - 2010.06.03 18:47:42.
