data_PCOD9264460
_publ_section_title
;
Structure prediction by ZEFSAII (Michael W. Deem and Ramdas Pophale) SiO2 
 PCOD9264460
Probable space group: C 2/C
;
_chemical_formula_sum "Si O2"
_cell_formula_units_Z 40
_cell_length_a 19.361445
_cell_length_b 7.988882
_cell_length_c 17.089127
_cell_angle_alpha 90.000000
_cell_angle_beta 36.971539
_cell_angle_gamma 90.000000
_cell_volume 1589.718555
_symmetry_space_group_name_H-M "C 2/C"
_symmetry_group_IT_number 15
_symmetry_cell_setting 'monoclinic'
loop_
_space_group_symop_operation_xyz
x,y,z
-x,y,1/2-z
-x,-y,-z
x,-y,1/2+z
1/2+x,1/2+y,z
1/2-x,1/2+y,1/2-z
1/2-x,1/2-y,-z
1/2+x,1/2-y,1/2+z
loop_
_atom_site_type_symbol
_atom_site_label
_atom_site_fract_x
_atom_site_fract_y
_atom_site_fract_z
Si Si1 0.300431 0.575644 0.086160
Si Si2 0.765900 0.729385 0.752653
Si Si3 0.244248 0.945358 0.534980
Si Si4 0.453934 0.587210 0.170565
Si Si5 0.435092 0.903407 0.487710
O O1 0.225886 0.440615 0.205271
O O2 0.282535 0.751401 0.145720
O O3 0.248809 0.561193 0.046780
O O4 0.435822 0.523765 0.952940
O O5 0.851981 0.881069 0.700154
O O6 0.639371 0.779235 0.891488
O O7 0.250000 0.750000 0.500000
O O8 0.118417 0.964493 0.688331
O O9 0.344713 0.974726 0.506535
O O10 0.494617 0.780301 0.133288
O O11 0.500000 0.000000 0.500000
#
# Coordination Sequence:
#
# PCOD9264460 Si02
#       5
#     8   8   8   8   8
#     4  11  21  36  61  90 122 163 200 261 311 371
#     4  10  21  36  55  89 125 156 207 253 315 374
#     4  11  20  36  58  93 120 154 217 268 291 371
#     4  10  19  35  59  84 119 158 205 253 311 362
#     4  10  21  35  57  87 122 159 194 261 318 362
#
# _framework density 25.161687000000001
#
# number of rings (size 3 to 8) (size 9 to 14) (size 15 to 20)
#    0.000    1.600    6.000    2.400    0.000    0.000 
#    0.000    0.000    0.000   10.800    0.000   16.800 
#    0.000    0.000    0.000    0.000    0.000    0.000 
#
# Total GULP energy -111384.633158 kJ/mol
# GULP energy per Si atom -5569.231658 kJ/mol
# Density = 2.510442 g / cm^3
# Si number density = 25.161687 Si / 1000 Ang^3
#
#
#
# Elastic Constant Matrix: (Units=GPa)
#
#
# Indices 1 2 3 4 5 6 
#
# 1 159.7377 52.0345 54.9213 0.0000 23.1496 0.0000
# 2 52.0345 40.9178 41.5624 -0.0003 27.4284 0.0003
# 3 54.9213 41.5624 138.7399 0.0000 26.9066 0.0000
# 4 0.0000 -0.0003 0.0000 42.0294 0.0000 11.4293
# 5 23.1496 27.4284 26.9066 0.0000 50.5185 0.0000
# 6 0.0000 0.0003 0.0000 11.4293 0.0000 22.6159
#
#
#
# Elastic Compliance Matrix: (Units=1/GPa)
#
#
# Indices 1 2 3 4 5 6 
#
# 1 0.011204 -0.016783 -0.000200 0.000000 0.004084 0.000000
# 2 -0.016783 0.074679 -0.010434 0.000001 -0.027298 -0.000001
# 3 -0.000200 -0.010434 0.010367 0.000000 0.000235 0.000000
# 4 0.000000 0.000001 0.000000 0.027584 0.000000 -0.013940
# 5 0.004084 -0.027298 0.000235 0.000000 0.032619 0.000000
# 6 0.000000 -0.000001 0.000000 -0.013940 0.000000 0.051261
#
#
# Mechanical properties :
#
#
# Convention : Reuss Voigt Hill
#
# Bulk Modulus (GPa) = 24.14475 70.71464 47.42969
# Shear Modulus (GPa) = 18.09281 35.75794 26.92537
#
# Velocity S-wave (km/s) = 2.68444 3.77387 3.27478
# Velocity P-wave (km/s) = 4.38463 6.86692 5.76106
#
# Compressibility (1/GPa) = 0.04141687
#
# Stress axis : x y z
#
# Youngs Moduli (GPa) = 89.25315 13.39062 96.46134
#
# Poissons Ratio (x) = 0.22474 0.01925
# Poissons Ratio (y) = 1.49795 1.00646
# Poissons Ratio (z) = 0.01781 0.13972
#
# Static dielectric constant tensor:
#      x y z
#    x 2.219300 0.000000 -0.037290 
#    y 0.000000 2.082520 0.000000 
#    z -0.037290 0.000000 2.019100 
# 
# From -- ./inp_files/160681.got.cif
#   From: 2010.05.17/outbox.cif.g08.bks.cpg/sg15_81_cif.got.tgz:160681.got - 2010.06.03 18:47:42.
