data_PCOD9264345
_publ_section_title
;
Structure prediction by ZEFSAII (Michael W. Deem and Ramdas Pophale) SiO2 
 PCOD9264345
Probable space group: C 2/C
;
_chemical_formula_sum "Si O2"
_cell_formula_units_Z 52
_cell_length_a 22.452513
_cell_length_b 20.338349
_cell_length_c 9.360830
_cell_angle_alpha 90.000000
_cell_angle_beta 140.990369
_cell_angle_gamma 90.000000
_cell_volume 2690.648388
_symmetry_space_group_name_H-M "C 2/C"
_symmetry_group_IT_number 15
_symmetry_cell_setting 'monoclinic'
loop_
_space_group_symop_operation_xyz
x,y,z
-x,y,1/2-z
-x,-y,-z
x,-y,1/2+z
1/2+x,1/2+y,z
1/2-x,1/2+y,1/2-z
1/2-x,1/2-y,-z
1/2+x,1/2-y,1/2+z
loop_
_atom_site_type_symbol
_atom_site_label
_atom_site_fract_x
_atom_site_fract_y
_atom_site_fract_z
Si Si1 0.030070 0.590367 0.549028
Si Si2 0.360193 0.176835 0.280942
Si Si3 0.867379 0.295216 0.120891
Si Si4 0.634387 0.685942 0.870013
Si Si5 0.992648 0.931612 0.067248
Si Si6 0.355005 0.675976 0.281441
Si Si7 0.000000 0.501936 0.250000
O O1 0.083912 0.657150 0.675648
O O2 0.058539 0.550322 0.462002
O O3 0.920124 0.613980 0.339040
O O4 0.047431 0.545125 0.720843
O O5 0.392826 0.190009 0.504942
O O6 0.380481 0.243963 0.233031
O O7 0.246372 0.168006 0.065889
O O8 0.888782 0.222227 0.215606
O O9 0.756692 0.312666 0.924114
O O10 0.571051 0.626383 0.689926
O O11 0.611872 0.695215 0.996592
O O12 0.000000 0.944707 0.250000
O O13 0.893651 0.897307 0.839949
O O14 0.000000 0.000000 0.000000
#
# Coordination Sequence:
#
# PCOD9264345 Si02
#       7
#     8   8   8   8   8   8   4
#     4  11  21  39  54  80 108 149 174 226 268 327
#     4  10  19  35  58  83 111 139 180 226 272 315
#     4  10  19  35  58  83 111 139 180 226 272 315
#     4   9  20  36  56  83 109 141 183 225 267 323
#     4  10  21  39  54  77 110 146 182 223 267 320
#     4   9  20  36  56  83 109 141 183 225 267 323
#     4  10  24  38  52  76 114 140 190 210 268 340
#
# _framework density 19.326197000000001
#
# number of rings (size 3 to 8) (size 9 to 14) (size 15 to 20)
#    0.000    2.154    1.538    0.923    2.154    1.231 
#    5.538    0.000    0.000    0.000    0.000    0.000 
#    0.000    0.000    0.000    0.000    0.000    0.000 
#
# Total GULP energy -144879.481626 kJ/mol
# GULP energy per Si atom -5572.287755 kJ/mol
# Density = 1.928221 g / cm^3
# Si number density = 19.326197 Si / 1000 Ang^3
#
#
#
# Elastic Constant Matrix: (Units=GPa)
#
#
# Indices 1 2 3 4 5 6 
#
# 1 38.3718 34.9029 23.2347 0.0000 -8.8319 0.0000
# 2 34.9029 107.5529 31.3780 0.0000 -13.8401 0.0000
# 3 23.2347 31.3780 64.4014 0.0000 1.2693 0.0000
# 4 0.0000 0.0000 0.0000 26.4739 0.0000 -22.0392
# 5 -8.8319 -13.8401 1.2693 0.0000 20.8308 0.0000
# 6 0.0000 0.0000 0.0000 -22.0392 0.0000 10.8533
#
#
#
# Elastic Compliance Matrix: (Units=1/GPa)
#
#
# Indices 1 2 3 4 5 6 
#
# 1 0.044896 -0.009352 -0.011908 0.000000 0.013547 0.000000
# 2 -0.009352 0.014111 -0.003612 0.000000 0.005630 0.000000
# 3 -0.011908 -0.003612 0.021757 0.000000 -0.008774 0.000000
# 4 0.000000 0.000000 0.000000 -0.054705 0.000000 -0.111086
# 5 0.013547 0.005630 -0.008774 0.000000 0.058025 0.000000
# 6 0.000000 0.000000 0.000000 -0.111086 0.000000 -0.133439
#
#
# Mechanical properties :
#
#
# Convention : Reuss Voigt Hill
#
# Bulk Modulus (GPa) = 32.23821 43.26192 37.75006
# Shear Modulus (GPa) = 466.03004 19.68564 242.85784
#
# Velocity S-wave (km/s) = 15.54550 3.19501 11.22209
# Velocity P-wave (km/s) = 18.41016 6.00371 13.69267
#
# Compressibility (1/GPa) = 0.03101909
#
# Stress axis : x y z
#
# Youngs Moduli (GPa) = 22.27373 70.86621 45.96308
#
# Poissons Ratio (x) = 0.66276 0.54732
# Poissons Ratio (y) = 0.20831 0.16603
# Poissons Ratio (z) = 0.26523 0.25598
#
# Static dielectric constant tensor:
#      x y z
#    x 1.708600 0.000000 0.023980 
#    y 0.000000 1.650200 0.000000 
#    z 0.023980 0.000000 1.692900 
# 
# From -- ./inp_files/63444.got.cif
#   From: 2010.05.17/outbox.cif.g08.bks.cpg/sg15_32_cif.got.tgz:63444.got - 2010.06.03 18:47:42.
