data_PCOD9264726
_publ_section_title
;
Structure prediction by ZEFSAII (Michael W. Deem and Ramdas Pophale) SiO2 
 PCOD9264726
Probable space group: C 2/C
;
_chemical_formula_sum "Si O2"
_cell_formula_units_Z 48
_cell_length_a 19.724677
_cell_length_b 5.072073
_cell_length_c 26.740195
_cell_angle_alpha 90.000000
_cell_angle_beta 138.102393
_cell_angle_gamma 90.000000
_cell_volume 1786.517749
_symmetry_space_group_name_H-M "C 2/C"
_symmetry_group_IT_number 15
_symmetry_cell_setting 'monoclinic'
loop_
_space_group_symop_operation_xyz
x,y,z
-x,y,1/2-z
-x,-y,-z
x,-y,1/2+z
1/2+x,1/2+y,z
1/2-x,1/2+y,1/2-z
1/2-x,1/2-y,-z
1/2+x,1/2-y,1/2+z
loop_
_atom_site_type_symbol
_atom_site_label
_atom_site_fract_x
_atom_site_fract_y
_atom_site_fract_z
Si Si1 0.863747 0.655101 0.074228
Si Si2 0.377830 0.094774 0.972866
Si Si3 0.030519 0.998984 0.712855
Si Si4 0.180018 0.393168 0.844358
Si Si5 0.320420 0.666581 0.285549
Si Si6 0.616100 0.412653 0.080442
O O1 0.901317 0.525437 0.043106
O O2 0.856691 0.496099 0.122354
O O3 0.936192 0.897080 0.128933
O O4 0.750000 0.750000 0.000000
O O5 0.423307 0.380885 0.983280
O O6 0.257103 0.150812 0.900946
O O7 0.406453 0.881739 0.947610
O O8 0.093972 0.262322 0.763745
O O9 0.103469 0.824626 0.719119
O O10 0.000000 0.884063 0.750000
O O11 0.260340 0.576827 0.861260
O O12 0.267848 0.943836 0.270849
O O13 0.386768 0.544745 0.367240
#
# Coordination Sequence:
#
# PCOD9264726 Si02
#       6
#     8   8   8   8   8   8
#     4   9  18  37  64  93 135 184 223 273 340 407
#     4   9  19  36  60  89 124 169 212 263 326 391
#     4  10  20  40  69 101 139 174 237 285 341 407
#     4   8  17  35  59  91 124 166 219 273 326 387
#     4  12  23  42  71 101 139 178 224 284 357 405
#     4  10  19  35  62  89 123 167 214 264 329 393
#
# _framework density 26.867909000000001
#
# number of rings (size 3 to 8) (size 9 to 14) (size 15 to 20)
#    1.000    1.333    1.667    2.000    0.000    0.667 
#    0.000    4.167   11.000    0.000    0.000    0.000 
#    0.000    0.000    0.000    0.000    0.000    0.000 
#
# Total GULP energy -134217.801889 kJ/mol
# GULP energy per Si atom -5592.408412 kJ/mol
# Density = 2.680676 g / cm^3
# Si number density = 26.867909 Si / 1000 Ang^3
#
#
#
# Elastic Constant Matrix: (Units=GPa)
#
#
# Indices 1 2 3 4 5 6 
#
# 1 132.3765 12.7633 5.4325 -0.0056 -15.5879 0.0095
# 2 12.7633 87.8052 27.2760 -0.0113 2.5643 0.0138
# 3 5.4325 27.2760 125.2854 -0.0010 0.4692 0.0043
# 4 -0.0056 -0.0113 -0.0010 44.5753 -0.0005 7.8032
# 5 -15.5879 2.5643 0.4692 -0.0005 40.4471 -0.0029
# 6 0.0095 0.0138 0.0043 7.8032 -0.0029 9.3445
#
#
#
# Elastic Compliance Matrix: (Units=1/GPa)
#
#
# Indices 1 2 3 4 5 6 
#
# 1 0.008052 -0.001235 -0.000092 0.000002 0.003182 -0.000007
# 2 -0.001235 0.012427 -0.002647 0.000007 -0.001233 -0.000022
# 3 -0.000092 -0.002647 0.008562 -0.000001 0.000033 0.000001
# 4 0.000002 0.000007 -0.000001 0.026275 -0.000001 -0.021941
# 5 0.003182 -0.001233 0.000033 -0.000001 0.026028 0.000007
# 6 -0.000007 -0.000022 0.000001 -0.021941 0.000007 0.125337
#
#
# Mechanical properties :
#
#
# Convention : Reuss Voigt Hill
#
# Bulk Modulus (GPa) = 47.41122 48.49009 47.95066
# Shear Modulus (GPa) = 22.55715 38.87307 30.71511
#
# Velocity S-wave (km/s) = 2.90065 3.80784 3.38478
# Velocity P-wave (km/s) = 5.37613 6.11716 5.75857
#
# Compressibility (1/GPa) = 0.02109205
#
# Stress axis : x y z
#
# Youngs Moduli (GPa) = 124.19610 80.47199 116.79525
#
# Poissons Ratio (x) = 0.09936 0.01077
# Poissons Ratio (y) = 0.15334 0.30919
# Poissons Ratio (z) = 0.01146 0.21303
#
# Static dielectric constant tensor:
#      x y z
#    x 2.228460 -0.000010 0.121670 
#    y -0.000010 2.018920 0.000010 
#    z 0.121670 0.000010 2.209120 
# 
# From -- ./inp_files/317099.got.cif
#   From: 2010.05.17/outbox.cif.g08.bks.cpg/sg15_159_cif.got.tgz:317099.got - 2010.06.03 18:47:42.
