data_PCOD9264227
_publ_section_title
;
Structure prediction by ZEFSAII (Michael W. Deem and Ramdas Pophale) SiO2 
 PCOD9264227
Probable space group: C 2/C
;
_chemical_formula_sum "Si O2"
_cell_formula_units_Z 56
_cell_length_a 12.095257
_cell_length_b 27.280276
_cell_length_c 7.961162
_cell_angle_alpha 90.000000
_cell_angle_beta 78.703186
_cell_angle_gamma 90.000000
_cell_volume 2575.986174
_symmetry_space_group_name_H-M "C 2/C"
_symmetry_group_IT_number 15
_symmetry_cell_setting 'monoclinic'
loop_
_space_group_symop_operation_xyz
x,y,z
-x,y,1/2-z
-x,-y,-z
x,-y,1/2+z
1/2+x,1/2+y,z
1/2-x,1/2+y,1/2-z
1/2-x,1/2-y,-z
1/2+x,1/2-y,1/2+z
loop_
_atom_site_type_symbol
_atom_site_label
_atom_site_fract_x
_atom_site_fract_y
_atom_site_fract_z
Si Si1 0.747926 0.114332 0.818217
Si Si2 0.967678 0.339479 0.090884
Si Si3 0.622738 0.424355 0.688938
Si Si4 0.325272 0.743178 0.221820
Si Si5 0.779564 0.658520 0.051570
Si Si6 0.383064 0.471252 0.182681
Si Si7 0.114309 0.800369 0.127368
O O1 0.637186 0.130918 0.954558
O O2 0.735730 0.138714 0.634586
O O3 0.779846 0.058010 0.798750
O O4 0.854851 0.143461 0.854583
O O5 0.909194 0.289794 0.181159
O O6 0.000000 0.369214 0.250000
O O7 0.085994 0.332824 0.960096
O O8 0.500000 0.400449 0.750000
O O9 0.722159 0.385150 0.672699
O O10 0.615508 0.449126 0.505155
O O11 0.635352 0.470533 0.808667
O O12 0.289663 0.708498 0.387932
O O13 0.210004 0.765740 0.180974
O O14 0.382655 0.707980 0.070151
O O15 0.500000 0.462766 0.250000
O O16 0.000000 0.787034 0.250000
#
# Coordination Sequence:
#
# PCOD9264227 Si02
#       7
#     8   8   8   8   8   8   8
#     4   9  20  35  54  78 106 143 178 216 272 323
#     4   9  19  36  54  75 106 143 180 223 267 313
#     4  10  21  35  56  84 108 137 176 220 271 323
#     4  10  21  33  52  77 104 141 183 223 263 315
#     4  10  21  37  56  79 107 141 185 228 262 314
#     4  10  19  35  57  81 110 139 173 219 270 323
#     4  10  20  33  49  74 106 140 174 217 271 318
#
# _framework density 21.739249000000001
#
# number of rings (size 3 to 8) (size 9 to 14) (size 15 to 20)
#    0.000    2.286    0.000    3.000    0.000   11.429 
#    0.000    0.714    0.000    0.000    0.000    0.000 
#    0.000    0.000    0.000    0.000    0.000    0.000 
#
# Total GULP energy -155995.620833 kJ/mol
# GULP energy per Si atom -5571.272173 kJ/mol
# Density = 2.168977 g / cm^3
# Si number density = 21.739249 Si / 1000 Ang^3
#
#
#
# Elastic Constant Matrix: (Units=GPa)
#
#
# Indices 1 2 3 4 5 6 
#
# 1 113.0575 45.7137 41.0299 0.0000 -48.8815 0.0000
# 2 45.7137 95.6476 22.2423 0.0000 -27.9212 0.0000
# 3 41.0299 22.2423 48.1913 0.0000 -26.0049 0.0000
# 4 0.0000 0.0000 0.0000 9.0583 0.0000 -5.9373
# 5 -48.8815 -27.9212 -26.0049 0.0000 38.7622 0.0000
# 6 0.0000 0.0000 0.0000 -5.9373 0.0000 16.7446
#
#
#
# Elastic Compliance Matrix: (Units=1/GPa)
#
#
# Indices 1 2 3 4 5 6 
#
# 1 0.020837 -0.002652 -0.005279 0.000000 0.020825 0.000000
# 2 -0.002652 0.013647 -0.000848 0.000000 0.005917 0.000000
# 3 -0.005279 -0.000848 0.034036 0.000000 0.015567 0.000000
# 4 0.000000 0.000000 0.000000 0.143823 0.000000 0.050997
# 5 0.020825 0.005917 0.015567 0.000000 0.066765 0.000000
# 6 0.000000 0.000000 0.000000 0.050997 0.000000 0.077803
#
#
# Mechanical properties :
#
#
# Convention : Reuss Voigt Hill
#
# Bulk Modulus (GPa) = 19.62222 52.76313 36.19268
# Shear Modulus (GPa) = 12.77278 22.77371 17.77325
#
# Velocity S-wave (km/s) = 2.42656 3.24015 2.86241
# Velocity P-wave (km/s) = 4.11056 6.19045 5.25445
#
# Compressibility (1/GPa) = 0.05096263
#
# Stress axis : x y z
#
# Youngs Moduli (GPa) = 47.99137 73.27616 29.38026
#
# Poissons Ratio (x) = 0.19434 0.15510
# Poissons Ratio (y) = 0.12728 0.02491
# Poissons Ratio (z) = 0.25335 0.06212
#
# Static dielectric constant tensor:
#      x y z
#    x 1.882420 0.000000 0.030470 
#    y 0.000000 1.838520 0.000000 
#    z 0.030470 0.000000 1.903720 
# 
# From -- ./inp_files/35167.got.cif
#   From: 2010.05.17/outbox.cif.g08.bks.cpg/sg15_18_cif.got.tgz:35167.got - 2010.06.03 18:47:42.
