data_PCOD9264485
_publ_section_title
;
Structure prediction by ZEFSAII (Michael W. Deem and Ramdas Pophale) SiO2 
 PCOD9264485
Probable space group: C 2/C
;
_chemical_formula_sum "Si O2"
_cell_formula_units_Z 56
_cell_length_a 14.858264
_cell_length_b 10.359059
_cell_length_c 16.074053
_cell_angle_alpha 90.000000
_cell_angle_beta 80.103236
_cell_angle_gamma 90.000000
_cell_volume 2437.263496
_symmetry_space_group_name_H-M "C 2/C"
_symmetry_group_IT_number 15
_symmetry_cell_setting 'monoclinic'
loop_
_space_group_symop_operation_xyz
x,y,z
-x,y,1/2-z
-x,-y,-z
x,-y,1/2+z
1/2+x,1/2+y,z
1/2-x,1/2+y,1/2-z
1/2-x,1/2-y,-z
1/2+x,1/2-y,1/2+z
loop_
_atom_site_type_symbol
_atom_site_label
_atom_site_fract_x
_atom_site_fract_y
_atom_site_fract_z
Si Si1 0.374545 0.084807 0.571251
Si Si2 0.209462 0.160568 0.717403
Si Si3 0.062572 0.883835 0.113236
Si Si4 0.684329 0.376264 0.785871
Si Si5 0.274438 0.452349 0.536637
Si Si6 0.945974 0.301747 0.523124
Si Si7 0.000000 0.900134 0.750000
Si Si8 0.750000 0.750000 0.000000
O O1 0.303164 0.121724 0.654066
O O2 0.466398 0.165964 0.547395
O O3 0.313522 0.104559 0.497642
O O4 0.407710 0.935656 0.568988
O O5 0.124985 0.191762 0.670480
O O6 0.237170 0.285609 0.765965
O O7 0.184306 0.026436 0.763057
O O8 0.024283 0.007262 0.168310
O O9 0.983130 0.798834 0.085527
O O10 0.135687 0.930744 0.033597
O O11 0.705753 0.382791 0.880018
O O12 0.588944 0.324759 0.765573
O O13 0.252152 0.603975 0.543593
O O14 0.861648 0.250278 0.484255
#
# Coordination Sequence:
#
# PCOD9264485 Si02
#       8
#     8   8   8   8   8   8   4   4
#     4   9  20  38  60  89 120 153 199 259 312 367
#     4  10  23  41  63  89 123 163 208 261 316 374
#     4  10  21  39  62  88 120 163 209 249 307 385
#     4  11  23  41  62  87 123 166 208 255 312 372
#     4  10  21  38  63  90 119 161 210 258 312 374
#     4  10  19  35  59  86 119 154 199 248 302 368
#     4  10  24  38  54  86 126 162 198 248 308 368
#     4  10  22  34  56  92 122 152 200 260 306 354
#
# _framework density 22.976589000000001
#
# number of rings (size 3 to 8) (size 9 to 14) (size 15 to 20)
#    0.000    2.000    0.000    2.571    0.000   12.571 
#    0.000    5.714    0.000    0.000    0.000    0.000 
#    0.000    0.000    0.000    0.000    0.000    0.000 
#
# Total GULP energy -155934.803312 kJ/mol
# GULP energy per Si atom -5569.100118 kJ/mol
# Density = 2.292429 g / cm^3
# Si number density = 22.976589 Si / 1000 Ang^3
#
#
#
# Elastic Constant Matrix: (Units=GPa)
#
#
# Indices 1 2 3 4 5 6 
#
# 1 142.8901 4.9984 29.9874 0.0000 12.2054 0.0000
# 2 4.9984 52.2686 5.7071 0.0000 12.7638 0.0000
# 3 29.9874 5.7071 30.7499 0.0000 9.6457 0.0000
# 4 0.0000 0.0000 0.0000 17.3567 0.0000 4.4902
# 5 12.2054 12.7638 9.6457 0.0000 24.6442 0.0000
# 6 0.0000 0.0000 0.0000 4.4902 0.0000 36.3259
#
#
#
# Elastic Compliance Matrix: (Units=1/GPa)
#
#
# Indices 1 2 3 4 5 6 
#
# 1 0.008834 0.000385 -0.008266 0.000000 -0.001339 0.000000
# 2 0.000385 0.021928 -0.000938 0.000000 -0.011180 0.000000
# 3 -0.008266 -0.000938 0.044822 0.000000 -0.012963 0.000000
# 4 0.000000 0.000000 0.000000 0.059518 0.000000 -0.007357
# 5 -0.001339 -0.011180 -0.012963 0.000000 0.052105 0.000000
# 6 0.000000 0.000000 0.000000 -0.007357 0.000000 0.028438
#
#
# Mechanical properties :
#
#
# Convention : Reuss Voigt Hill
#
# Bulk Modulus (GPa) = 17.25772 34.14382 25.70077
# Shear Modulus (GPa) = 19.79419 28.01308 23.90364
#
# Velocity S-wave (km/s) = 2.93831 3.49549 3.22894
# Velocity P-wave (km/s) = 4.36335 5.58425 5.01112
#
# Compressibility (1/GPa) = 0.05794509
#
# Stress axis : x y z
#
# Youngs Moduli (GPa) = 113.19733 45.60425 22.31034
#
# Poissons Ratio (x) = -0.01755 0.18443
# Poissons Ratio (y) = -0.04356 0.02092
# Poissons Ratio (z) = 0.93574 0.04277
#
# Static dielectric constant tensor:
#      x y z
#    x 1.833540 0.000000 -0.001010 
#    y 0.000000 1.960660 0.000000 
#    z -0.001010 0.000000 1.912220 
# 
# From -- ./inp_files/152658.got.cif
#   From: 2010.05.17/outbox.cif.g08.bks.cpg/sg15_77_cif.got.tgz:152658.got - 2010.06.03 18:47:42.
