data_PCOD9264837
_publ_section_title
;
Structure prediction by ZEFSAII (Michael W. Deem and Ramdas Pophale) SiO2 
 PCOD9264837
Probable space group: C 2/C
;
_chemical_formula_sum "Si O2"
_cell_formula_units_Z 32
_cell_length_a 24.582509
_cell_length_b 11.621300
_cell_length_c 17.224496
_cell_angle_alpha 90.000000
_cell_angle_beta 15.964854
_cell_angle_gamma 90.000000
_cell_volume 1353.428714
_symmetry_space_group_name_H-M "C 2/C"
_symmetry_group_IT_number 15
_symmetry_cell_setting 'monoclinic'
loop_
_space_group_symop_operation_xyz
x,y,z
-x,y,1/2-z
-x,-y,-z
x,-y,1/2+z
1/2+x,1/2+y,z
1/2-x,1/2+y,1/2-z
1/2-x,1/2-y,-z
1/2+x,1/2-y,1/2+z
loop_
_atom_site_type_symbol
_atom_site_label
_atom_site_fract_x
_atom_site_fract_y
_atom_site_fract_z
Si Si1 0.479475 0.216512 0.025606
Si Si2 0.602400 0.832812 0.031065
Si Si3 0.705283 0.370561 0.016431
Si Si4 0.699028 0.551930 0.692769
O O1 0.509773 0.186041 0.894818
O O2 0.384846 0.117661 0.208966
O O3 0.310983 0.316991 0.264573
O O4 0.684946 0.270647 0.771960
O O5 0.638048 0.968343 0.996045
O O6 0.500000 0.787817 0.250000
O O7 0.500000 0.371551 0.250000
O O8 0.694314 0.454523 0.105654
O O9 0.750000 0.250000 0.000000
O O10 0.500000 0.500000 0.000000
#
# Coordination Sequence:
#
# PCOD9264837 Si02
#       4
#     8   8   8   8
#     4  10  21  40  62  89 120 157 205 254 306 373
#     4  11  23  41  61  87 123 165 206 258 313 364
#     4  10  19  35  64  95 121 155 197 252 310 364
#     4   9  20  38  60  89 123 155 197 252 307 369
#
# _framework density 23.643654000000002
#
# number of rings (size 3 to 8) (size 9 to 14) (size 15 to 20)
#    0.000    2.000    0.000    5.250    0.000    6.000 
#    0.000   20.000    0.000    0.000    0.000    0.000 
#    0.000    0.000    0.000    0.000    0.000    0.000 
#
# Total GULP energy -89327.669238 kJ/mol
# GULP energy per Si atom -5582.979327 kJ/mol
# Density = 2.358984 g / cm^3
# Si number density = 23.643654 Si / 1000 Ang^3
#
#
#
# Elastic Constant Matrix: (Units=GPa)
#
#
# Indices 1 2 3 4 5 6 
#
# 1 156.1689 42.0411 25.2273 -0.0002 23.3154 0.0000
# 2 42.0411 28.8739 16.1738 -0.0009 -0.6225 0.0002
# 3 25.2273 16.1738 104.6254 -0.0007 24.6948 0.0003
# 4 -0.0002 -0.0009 -0.0007 18.0012 0.0001 16.4329
# 5 23.3154 -0.6225 24.6948 0.0001 54.3937 0.0000
# 6 0.0000 0.0002 0.0003 16.4329 0.0000 33.7042
#
#
#
# Elastic Compliance Matrix: (Units=1/GPa)
#
#
# Indices 1 2 3 4 5 6 
#
# 1 0.012034 -0.018411 0.001357 -0.000001 -0.005985 0.000001
# 2 -0.018411 0.066676 -0.008860 0.000006 0.012677 -0.000003
# 3 0.001357 -0.008860 0.012053 0.000000 -0.006155 0.000000
# 4 -0.000001 0.000006 0.000000 0.100108 0.000000 -0.048809
# 5 -0.005985 0.012677 -0.006155 0.000000 0.023889 0.000000
# 6 0.000001 -0.000003 0.000000 -0.048809 0.000000 0.053467
#
#
# Mechanical properties :
#
#
# Convention : Reuss Voigt Hill
#
# Bulk Modulus (GPa) = 25.68362 50.72806 38.20584
# Shear Modulus (GPa) = 15.01346 34.96824 24.99085
#
# Velocity S-wave (km/s) = 2.52263 3.84991 3.25465
# Velocity P-wave (km/s) = 4.40128 6.42372 5.50616
#
# Compressibility (1/GPa) = 0.03893532
#
# Stress axis : x y z
#
# Youngs Moduli (GPa) = 83.09880 14.99787 82.96555
#
# Poissons Ratio (x) = 0.27612 -0.11259
# Poissons Ratio (y) = 1.52991 0.73510
# Poissons Ratio (z) = -0.11277 0.13289
#
# Static dielectric constant tensor:
#      x y z
#    x 1.892190 0.000000 0.047650 
#    y 0.000000 2.032650 0.000000 
#    z 0.047650 0.000000 1.908040 
# 
# From -- ./inp_files/27601.got.cif
#   From: 2010.05.17/outbox.cif.g08.bks.cpg/sg15_14_cif.got.tgz:27601.got - 2010.06.03 18:47:42.
