data_PCOD9264313
_publ_section_title
;
Structure prediction by ZEFSAII (Michael W. Deem and Ramdas Pophale) SiO2 
 PCOD9264313
Probable space group: C 2/C
;
_chemical_formula_sum "Si O2"
_cell_formula_units_Z 56
_cell_length_a 9.250231
_cell_length_b 11.530796
_cell_length_c 22.011141
_cell_angle_alpha 90.000000
_cell_angle_beta 60.544458
_cell_angle_gamma 90.000000
_cell_volume 2044.286137
_symmetry_space_group_name_H-M "C 2/C"
_symmetry_group_IT_number 15
_symmetry_cell_setting 'monoclinic'
loop_
_space_group_symop_operation_xyz
x,y,z
-x,y,1/2-z
-x,-y,-z
x,-y,1/2+z
1/2+x,1/2+y,z
1/2-x,1/2+y,1/2-z
1/2-x,1/2-y,-z
1/2+x,1/2-y,1/2+z
loop_
_atom_site_type_symbol
_atom_site_label
_atom_site_fract_x
_atom_site_fract_y
_atom_site_fract_z
Si Si1 0.179769 0.921713 0.111838
Si Si2 0.484053 0.791988 0.016749
Si Si3 0.689285 0.468632 0.336427
Si Si4 0.244588 0.917112 0.942014
Si Si5 0.988906 0.308922 0.819554
Si Si6 0.310578 0.602374 0.285967
Si Si7 0.803267 0.670114 0.917203
O O1 0.343998 0.892200 0.038615
O O2 0.123315 0.806073 0.160385
O O3 0.215863 0.028641 0.147660
O O4 0.005549 0.941410 0.114132
O O5 0.382483 0.680974 0.013503
O O6 0.533318 0.798828 0.078709
O O7 0.667129 0.770794 0.951763
O O8 0.712769 0.579452 0.374804
O O9 0.709011 0.504940 0.263213
O O10 0.808304 0.378011 0.347535
O O11 0.431582 0.873588 0.893796
O O12 0.232356 0.050528 0.963764
O O13 0.183386 0.296648 0.795125
O O14 0.000000 0.363785 0.750000
O O15 0.500000 0.642386 0.250000
#
# Coordination Sequence:
#
# PCOD9264313 Si02
#       7
#     8   8   8   8   8   8   8
#     4  10  22  35  54  80 112 144 181 229 280 326
#     4  10  19  35  58  80 103 146 184 227 274 330
#     4   9  19  37  51  77 112 138 177 229 277 326
#     4   9  19  33  55  78 106 140 181 225 274 328
#     4  11  18  34  58  76 105 146 191 216 274 350
#     4  10  20  37  56  78 114 147 177 234 285 324
#     4   9  19  35  57  77 110 137 188 227 275 329
#
# _framework density 27.393426000000002
#
# number of rings (size 3 to 8) (size 9 to 14) (size 15 to 20)
#    0.857    1.429    1.429    2.571    0.000    0.571 
#    5.143    0.000    6.286    1.714    0.000    0.000 
#    0.000    0.000    0.000    0.000    0.000    0.000 
#
# Total GULP energy -156111.405340 kJ/mol
# GULP energy per Si atom -5575.407334 kJ/mol
# Density = 2.733108 g / cm^3
# Si number density = 27.393426 Si / 1000 Ang^3
#
#
#
# Elastic Constant Matrix: (Units=GPa)
#
#
# Indices 1 2 3 4 5 6 
#
# 1 89.0966 16.1049 -2.8261 0.0000 -11.8426 0.0000
# 2 16.1049 68.8616 32.2864 0.0000 -3.0537 0.0000
# 3 -2.8261 32.2864 73.4758 0.0000 3.5688 0.0000
# 4 0.0000 0.0000 0.0000 29.1571 0.0000 6.4973
# 5 -11.8426 -3.0537 3.5688 0.0000 35.9170 0.0000
# 6 0.0000 0.0000 0.0000 6.4973 0.0000 10.1614
#
#
#
# Elastic Compliance Matrix: (Units=1/GPa)
#
#
# Indices 1 2 3 4 5 6 
#
# 1 0.012419 -0.003636 0.001901 0.000000 0.003597 0.000000
# 2 -0.003636 0.019557 -0.008798 0.000000 0.001338 0.000000
# 3 0.001901 -0.008798 0.017640 0.000000 -0.001874 0.000000
# 4 0.000000 0.000000 0.000000 0.039996 0.000000 -0.025574
# 5 0.003597 0.001338 -0.001874 0.000000 0.029328 0.000000
# 6 0.000000 0.000000 0.000000 -0.025574 0.000000 0.114764
#
#
# Mechanical properties :
#
#
# Convention : Reuss Voigt Hill
#
# Bulk Modulus (GPa) = 35.02780 35.84047 35.43414
# Shear Modulus (GPa) = 18.91875 27.43836 23.17855
#
# Velocity S-wave (km/s) = 2.63084 3.16830 2.91200
# Velocity P-wave (km/s) = 4.69501 5.14745 4.92642
#
# Compressibility (1/GPa) = 0.02854875
#
# Stress axis : x y z
#
# Youngs Moduli (GPa) = 80.51882 51.13285 56.68857
#
# Poissons Ratio (x) = 0.18593 -0.10776
# Poissons Ratio (y) = 0.29279 0.49877
# Poissons Ratio (z) = -0.15305 0.44989
#
# Static dielectric constant tensor:
#      x y z
#    x 2.239210 0.000000 -0.011620 
#    y 0.000000 2.208840 0.000000 
#    z -0.011620 0.000000 2.401400 
# 
# From -- ./inp_files/288669.got.cif
#   From: 2010.05.17/outbox.cif.g08.bks.cpg/sg15_145_cif.got.tgz:288669.got - 2010.06.03 18:47:42.
