data_PCOD9264306
_publ_section_title
;
Structure prediction by ZEFSAII (Michael W. Deem and Ramdas Pophale) SiO2 
 PCOD9264306
Probable space group: C 2/C
;
_chemical_formula_sum "Si O2"
_cell_formula_units_Z 52
_cell_length_a 15.039403
_cell_length_b 18.347870
_cell_length_c 14.212227
_cell_angle_alpha 90.000000
_cell_angle_beta 133.636986
_cell_angle_gamma 90.000000
_cell_volume 2838.264644
_symmetry_space_group_name_H-M "C 2/C"
_symmetry_group_IT_number 15
_symmetry_cell_setting 'monoclinic'
loop_
_space_group_symop_operation_xyz
x,y,z
-x,y,1/2-z
-x,-y,-z
x,-y,1/2+z
1/2+x,1/2+y,z
1/2-x,1/2+y,1/2-z
1/2-x,1/2-y,-z
1/2+x,1/2-y,1/2+z
loop_
_atom_site_type_symbol
_atom_site_label
_atom_site_fract_x
_atom_site_fract_y
_atom_site_fract_z
Si Si1 0.500000 0.802541 0.250000
Si Si2 0.312822 0.530839 0.924067
Si Si3 0.917929 0.371715 0.997398
Si Si4 0.221049 0.990408 0.881045
Si Si5 0.705157 0.267509 0.773017
Si Si6 0.308761 0.114333 0.824973
Si Si7 0.427601 0.408251 0.878367
O O1 0.450258 0.850498 0.127949
O O2 0.385654 0.756078 0.207702
O O3 0.207738 0.565760 0.782245
O O4 0.363638 0.458394 0.910502
O O5 0.283630 0.514966 0.010557
O O6 0.426856 0.587250 0.004684
O O7 0.048663 0.379752 0.042868
O O8 0.841357 0.445822 0.936208
O O9 0.828537 0.307990 0.895275
O O10 0.231186 0.071283 0.846354
O O11 0.111164 0.947244 0.748387
O O12 0.731402 0.195496 0.732113
O O13 0.626090 0.327734 0.659705
#
# Coordination Sequence:
#
# PCOD9264306 Si02
#       7
#     4   8   8   8   8   8   8
#     4  10  20  30  52  84 106 142 182 220 290 332
#     4  10  20  36  57  81 108 141 188 228 265 323
#     4  10  20  34  50  80 112 140 176 224 276 328
#     4  10  19  35  58  78 107 147 182 223 269 333
#     4  10  21  33  52  77 115 142 177 228 279 324
#     4  10  22  35  53  82 111 146 180 221 278 323
#     4   9  21  35  54  83 109 140 181 233 275 312
#
# _framework density 18.321052999999999
#
# number of rings (size 3 to 8) (size 9 to 14) (size 15 to 20)
#    0.000    2.154    0.000    3.231    8.615    0.000 
#    0.000    0.769    0.000    0.000    4.000    0.000 
#    0.000    0.000    0.000    0.000    0.000    0.000 
#
# Total GULP energy -145062.714131 kJ/mol
# GULP energy per Si atom -5579.335159 kJ/mol
# Density = 1.827935 g / cm^3
# Si number density = 18.321053 Si / 1000 Ang^3
#
#
#
# Elastic Constant Matrix: (Units=GPa)
#
#
# Indices 1 2 3 4 5 6 
#
# 1 38.9825 30.7024 20.1710 0.0000 -5.2914 0.0000
# 2 30.7024 98.9454 14.2632 0.0000 -3.6536 0.0000
# 3 20.1710 14.2632 54.1172 0.0000 6.0646 0.0000
# 4 0.0000 0.0000 0.0000 17.0710 0.0000 3.6958
# 5 -5.2914 -3.6536 6.0646 0.0000 29.7804 0.0000
# 6 0.0000 0.0000 0.0000 3.6958 0.0000 6.4380
#
#
#
# Elastic Compliance Matrix: (Units=1/GPa)
#
#
# Indices 1 2 3 4 5 6 
#
# 1 0.042771 -0.010903 -0.014092 0.000000 0.009132 0.000000
# 2 -0.010903 0.013391 0.000581 0.000000 -0.000413 0.000000
# 3 -0.014092 0.000581 0.024407 0.000000 -0.007403 0.000000
# 4 0.000000 0.000000 0.000000 0.066893 0.000000 -0.038401
# 5 0.009132 -0.000413 -0.007403 0.000000 0.036659 0.000000
# 6 0.000000 0.000000 0.000000 -0.038401 0.000000 0.177372
#
#
# Mechanical properties :
#
#
# Convention : Reuss Voigt Hill
#
# Bulk Modulus (GPa) = 31.50478 35.81313 33.65896
# Shear Modulus (GPa) = 11.87929 19.11845 15.49887
#
# Velocity S-wave (km/s) = 2.54912 3.23387 2.91169
# Velocity P-wave (km/s) = 5.08894 5.79084 5.45120
#
# Compressibility (1/GPa) = 0.03174121
#
# Stress axis : x y z
#
# Youngs Moduli (GPa) = 23.38047 74.67812 40.97145
#
# Poissons Ratio (x) = 0.81422 0.57735
# Poissons Ratio (y) = 0.25492 -0.02380
# Poissons Ratio (z) = 0.32947 -0.04338
#
# Static dielectric constant tensor:
#      x y z
#    x 1.637660 0.000000 0.024910 
#    y 0.000000 1.625730 0.000000 
#    z 0.024910 0.000000 1.648110 
# 
# From -- ./inp_files/98437.got.cif
#   From: 2010.05.17/outbox.cif.g08.bks.cpg/sg15_50_cif.got.tgz:98437.got - 2010.06.03 18:47:42.
