data_PCOD9264711
_publ_section_title
;
Structure prediction by ZEFSAII (Michael W. Deem and Ramdas Pophale) SiO2 
 PCOD9264711
Probable space group: C 2/C
;
_chemical_formula_sum "Si O2"
_cell_formula_units_Z 60
_cell_length_a 5.115524
_cell_length_b 19.151995
_cell_length_c 29.492023
_cell_angle_alpha 90.000000
_cell_angle_beta 96.618266
_cell_angle_gamma 90.000000
_cell_volume 2870.152134
_symmetry_space_group_name_H-M "C 2/C"
_symmetry_group_IT_number 15
_symmetry_cell_setting 'monoclinic'
loop_
_space_group_symop_operation_xyz
x,y,z
-x,y,1/2-z
-x,-y,-z
x,-y,1/2+z
1/2+x,1/2+y,z
1/2-x,1/2+y,1/2-z
1/2-x,1/2-y,-z
1/2+x,1/2-y,1/2+z
loop_
_atom_site_type_symbol
_atom_site_label
_atom_site_fract_x
_atom_site_fract_y
_atom_site_fract_z
Si Si1 0.580544 0.737069 0.349175
Si Si2 0.085221 0.016475 0.853406
Si Si3 0.805044 0.436052 0.711617
Si Si4 0.586371 0.148257 0.372795
Si Si5 0.500000 0.312390 0.750000
Si Si6 0.410997 0.103909 0.620187
Si Si7 0.312922 0.054870 0.521925
Si Si8 0.486863 0.567406 0.436455
O O1 0.306719 0.702371 0.358946
O O2 0.598266 0.731172 0.294918
O O3 0.591997 0.815989 0.365718
O O4 0.818071 0.690147 0.373717
O O5 0.855928 0.067487 0.867702
O O6 0.347071 0.061044 0.853368
O O7 0.953375 0.978858 0.807806
O O8 0.126105 0.956138 0.892559
O O9 0.936779 0.410685 0.667089
O O10 0.717255 0.365613 0.735290
O O11 0.000000 0.473989 0.750000
O O12 0.730688 0.111709 0.418080
O O13 0.441128 0.096567 0.566029
O O14 0.171286 0.098471 0.479295
O O15 0.500000 0.000000 0.500000
O O16 0.106766 0.005632 0.544069
#
# Coordination Sequence:
#
# PCOD9264711 Si02
#       8
#     8   8   8   8   4   8   8   8
#     4  11  23  41  61  83 120 169 200 244 296 373
#     4  10  22  37  61  86 120 151 193 257 308 358
#     4  10  20  36  62  90 119 143 201 258 317 356
#     4  10  22  38  63  88 119 158 204 250 296 356
#     4  10  22  38  62  86 116 154 208 242 302 368
#     4  11  23  41  58  87 124 165 201 239 309 374
#     4  10  19  35  62  86 122 158 201 250 315 367
#     4   9  20  35  59  94 115 153 200 256 306 356
#
# _framework density 20.904813000000001
#
# number of rings (size 3 to 8) (size 9 to 14) (size 15 to 20)
#    0.000    1.867    2.667    0.800    3.733    3.200 
#    1.200    1.333    0.000    0.000    0.000    0.000 
#    0.000    0.000    0.000    0.000    0.000    0.000 
#
# Total GULP energy -167582.008257 kJ/mol
# GULP energy per Si atom -5586.066942 kJ/mol
# Density = 2.085723 g / cm^3
# Si number density = 20.904813 Si / 1000 Ang^3
#
#
#
# Elastic Constant Matrix: (Units=GPa)
#
#
# Indices 1 2 3 4 5 6 
#
# 1 75.9170 31.1753 19.6887 0.0000 6.6964 0.0000
# 2 31.1753 107.3967 60.3591 0.0000 18.5277 0.0000
# 3 19.6887 60.3591 155.4592 0.0000 28.3932 0.0000
# 4 0.0000 0.0000 0.0000 16.9540 0.0000 -4.1622
# 5 6.6964 18.5277 28.3932 0.0000 29.8666 0.0000
# 6 0.0000 0.0000 0.0000 -4.1622 0.0000 27.0437
#
#
#
# Elastic Compliance Matrix: (Units=1/GPa)
#
#
# Indices 1 2 3 4 5 6 
#
# 1 0.014973 -0.004141 -0.000175 0.000000 -0.000622 0.000000
# 2 -0.004141 0.013388 -0.004025 0.000000 -0.003550 0.000000
# 3 -0.000175 -0.004025 0.009142 0.000000 -0.006154 0.000000
# 4 0.000000 0.000000 0.000000 0.061299 0.000000 0.009434
# 5 -0.000622 -0.003550 -0.006154 0.000000 0.041675 0.000000
# 6 0.000000 0.000000 0.000000 0.009434 0.000000 0.038429
#
#
# Mechanical properties :
#
#
# Convention : Reuss Voigt Hill
#
# Bulk Modulus (GPa) = 48.02935 62.35768 55.19351
# Shear Modulus (GPa) = 24.68798 29.94284 27.31541
#
# Velocity S-wave (km/s) = 3.44025 3.78874 3.61869
# Velocity P-wave (km/s) = 6.22941 7.00239 6.62718
#
# Compressibility (1/GPa) = 0.02082060
#
# Stress axis : x y z
#
# Youngs Moduli (GPa) = 66.78728 74.69398 109.38992
#
# Poissons Ratio (x) = 0.30928 0.01914
# Poissons Ratio (y) = 0.27655 0.44032
# Poissons Ratio (z) = 0.01169 0.30066
#
# Static dielectric constant tensor:
#      x y z
#    x 1.876350 0.000000 0.023630 
#    y 0.000000 1.712850 0.000000 
#    z 0.023630 0.000000 1.831440 
# 
# From -- ./inp_files/305696.got.cif
#   From: 2010.05.17/outbox.cif.g08.bks.cpg/sg15_153_cif.got.tgz:305696.got - 2010.06.03 18:47:42.
