data_PCOD9264701
_publ_section_title
;
Structure prediction by ZEFSAII (Michael W. Deem and Ramdas Pophale) SiO2 
 PCOD9264701
Probable space group: C 2/C
;
_chemical_formula_sum "Si O2"
_cell_formula_units_Z 56
_cell_length_a 6.732957
_cell_length_b 13.900277
_cell_length_c 28.892337
_cell_angle_alpha 90.000000
_cell_angle_beta 122.766637
_cell_angle_gamma 90.000000
_cell_volume 2273.772288
_symmetry_space_group_name_H-M "C 2/C"
_symmetry_group_IT_number 15
_symmetry_cell_setting 'monoclinic'
loop_
_space_group_symop_operation_xyz
x,y,z
-x,y,1/2-z
-x,-y,-z
x,-y,1/2+z
1/2+x,1/2+y,z
1/2-x,1/2+y,1/2-z
1/2-x,1/2-y,-z
1/2+x,1/2-y,1/2+z
loop_
_atom_site_type_symbol
_atom_site_label
_atom_site_fract_x
_atom_site_fract_y
_atom_site_fract_z
Si Si1 0.994646 0.020563 0.616675
Si Si2 0.884555 0.274742 0.451615
Si Si3 0.507820 0.987488 0.684977
Si Si4 0.500000 0.169501 0.250000
Si Si5 0.998532 0.527514 0.577186
Si Si6 0.108921 0.105748 0.989218
Si Si7 0.500000 0.165205 0.750000
Si Si8 0.510680 0.713215 0.832907
O O1 0.227308 0.960560 0.654607
O O2 0.976174 0.099252 0.655322
O O3 0.728080 0.983318 0.579062
O O4 0.044765 0.077200 0.574927
O O5 0.994681 0.357267 0.432405
O O6 0.994903 0.176414 0.484591
O O7 0.814492 0.334004 0.488470
O O8 0.647125 0.242979 0.393925
O O9 0.548159 0.997159 0.636087
O O10 0.549130 0.090279 0.714253
O O11 0.627883 0.904759 0.730711
O O12 0.375122 0.243499 0.198834
O O13 0.753130 0.482703 0.528910
O O14 0.729776 0.225747 0.792261
#
# Coordination Sequence:
#
# PCOD9264701 Si02
#       8
#     8   8   8   4   8   8   4   8
#     4   9  20  39  61  85 116 160 196 238 305 375
#     4   9  18  33  58  89 115 158 202 249 305 377
#     4  10  22  39  55  85 117 148 201 251 295 364
#     4  11  22  38  56  83 116 146 196 263 300 346
#     4  10  19  35  62  83 118 163 194 244 315 366
#     4   9  17  34  59  87 122 153 200 249 302 373
#     4   9  20  38  56  77 112 156 192 245 300 362
#     4   9  19  35  58  79 112 150 193 242 300 352
#
# _framework density 24.628675000000001
#
# number of rings (size 3 to 8) (size 9 to 14) (size 15 to 20)
#    0.000    2.857    0.000    2.571    4.000    0.571 
#    5.143    0.714    3.143    0.000    0.000    1.000 
#    0.000    0.000    0.000    0.000    0.000    0.000 
#
# Total GULP energy -155940.452079 kJ/mol
# GULP energy per Si atom -5569.301860 kJ/mol
# Density = 2.457262 g / cm^3
# Si number density = 24.628675 Si / 1000 Ang^3
#
#
#
# Elastic Constant Matrix: (Units=GPa)
#
#
# Indices 1 2 3 4 5 6 
#
# 1 57.9223 28.0886 34.0748 0.0000 2.0548 0.0000
# 2 28.0886 111.8156 49.2296 0.0000 -20.8056 0.0000
# 3 34.0748 49.2296 134.6595 0.0000 -14.2733 0.0000
# 4 0.0000 0.0000 0.0000 31.8876 0.0000 -9.8591
# 5 2.0548 -20.8056 -14.2733 0.0000 53.9044 0.0000
# 6 0.0000 0.0000 0.0000 -9.8591 0.0000 28.5098
#
#
#
# Elastic Compliance Matrix: (Units=1/GPa)
#
#
# Indices 1 2 3 4 5 6 
#
# 1 0.022063 -0.004284 -0.004405 0.000000 -0.003661 0.000000
# 2 -0.004284 0.012045 -0.002890 0.000000 0.004047 0.000000
# 3 -0.004405 -0.002890 0.009771 0.000000 0.001640 0.000000
# 4 0.000000 0.000000 0.000000 0.035115 0.000000 0.012143
# 5 -0.003661 0.004047 0.001640 0.000000 0.020687 0.000000
# 6 0.000000 0.000000 0.000000 0.012143 0.000000 0.039275
#
#
# Mechanical properties :
#
#
# Convention : Reuss Voigt Hill
#
# Bulk Modulus (GPa) = 48.26103 58.57591 53.41847
# Shear Modulus (GPa) = 29.58193 35.72732 32.65462
#
# Velocity S-wave (km/s) = 3.46947 3.81286 3.64521
# Velocity P-wave (km/s) = 5.97392 6.57412 6.28119
#
# Compressibility (1/GPa) = 0.02072065
#
# Stress axis : x y z
#
# Youngs Moduli (GPa) = 45.32428 83.02091 102.34121
#
# Poissons Ratio (x) = 0.35568 0.45079
# Poissons Ratio (y) = 0.19418 0.29581
# Poissons Ratio (z) = 0.19964 0.23997
#
# Static dielectric constant tensor:
#      x y z
#    x 2.089320 0.000000 0.028410 
#    y 0.000000 2.031950 0.000000 
#    z 0.028410 0.000000 1.948900 
# 
# From -- ./inp_files/308099.got.cif
#   From: 2010.05.17/outbox.cif.g08.bks.cpg/sg15_155_cif.got.tgz:308099.got - 2010.06.03 18:47:42.
