data_PCOD9264676
_publ_section_title
;
Structure prediction by ZEFSAII (Michael W. Deem and Ramdas Pophale) SiO2 
 PCOD9264676
Probable space group: C 2/C
;
_chemical_formula_sum "Si O2"
_cell_formula_units_Z 40
_cell_length_a 12.745310
_cell_length_b 17.201560
_cell_length_c 12.422875
_cell_angle_alpha 90.000000
_cell_angle_beta 145.385556
_cell_angle_gamma 90.000000
_cell_volume 1547.133757
_symmetry_space_group_name_H-M "C 2/C"
_symmetry_group_IT_number 15
_symmetry_cell_setting 'monoclinic'
loop_
_space_group_symop_operation_xyz
x,y,z
-x,y,1/2-z
-x,-y,-z
x,-y,1/2+z
1/2+x,1/2+y,z
1/2-x,1/2+y,1/2-z
1/2-x,1/2-y,-z
1/2+x,1/2-y,1/2+z
loop_
_atom_site_type_symbol
_atom_site_label
_atom_site_fract_x
_atom_site_fract_y
_atom_site_fract_z
Si Si1 0.369140 0.378819 0.217075
Si Si2 0.303112 0.094497 0.292308
Si Si3 0.952359 0.165426 0.087659
Si Si4 0.472708 0.766894 0.550900
Si Si5 0.342919 0.064796 0.762226
O O1 0.500000 0.428016 0.250000
O O2 0.515037 0.313150 0.376373
O O3 0.293569 0.429870 0.250146
O O4 0.190924 0.323398 0.050428
O O5 0.351415 0.177589 0.281213
O O6 0.455727 0.082656 0.517125
O O7 0.102491 0.102556 0.173749
O O8 0.334038 0.026651 0.230734
O O9 0.000000 0.184719 0.250000
O O10 0.990491 0.239260 0.041958
O O11 0.750262 0.126467 0.897263
#
# Coordination Sequence:
#
# PCOD9264676 Si02
#       5
#     8   8   8   8   8
#     4  10  19  35  61  91 123 159 218 269 328 387
#     4  10  20  42  63  85 137 170 222 271 327 390
#     4  11  23  39  65  97 133 177 218 265 331 400
#     4  10  20  38  59  95 126 169 210 271 330 386
#     4   9  22  40  64  92 127 180 215 277 329 390
#
# _framework density 25.854261999999999
#
# number of rings (size 3 to 8) (size 9 to 14) (size 15 to 20)
#    0.000    2.000    2.000    1.200    0.000    2.400 
#    0.000    0.000    8.800    0.000    0.000    0.000 
#    0.000    0.000    0.000    0.000    0.000    0.000 
#
# Total GULP energy -111563.724546 kJ/mol
# GULP energy per Si atom -5578.186227 kJ/mol
# Density = 2.579542 g / cm^3
# Si number density = 25.854262 Si / 1000 Ang^3
#
#
#
# Elastic Constant Matrix: (Units=GPa)
#
#
# Indices 1 2 3 4 5 6 
#
# 1 39.1314 -14.1229 17.6841 0.0000 0.8727 0.0000
# 2 -14.1229 77.6681 0.1295 0.0000 5.8558 0.0000
# 3 17.6841 0.1295 142.7741 0.0000 17.5165 0.0000
# 4 0.0000 0.0000 0.0000 17.3454 0.0000 8.2784
# 5 0.8727 5.8558 17.5165 0.0000 20.1417 0.0000
# 6 0.0000 0.0000 0.0000 8.2784 0.0000 6.0464
#
#
#
# Elastic Compliance Matrix: (Units=1/GPa)
#
#
# Indices 1 2 3 4 5 6 
#
# 1 0.029100 0.005268 -0.003657 0.000000 0.000388 0.000000
# 2 0.005268 0.014151 -0.000148 0.000000 -0.004213 0.000000
# 3 -0.003657 -0.000148 0.008320 0.000000 -0.007034 0.000000
# 4 0.000000 0.000000 0.000000 0.166359 0.000000 -0.227769
# 5 0.000388 -0.004213 -0.007034 0.000000 0.056974 0.000000
# 6 0.000000 0.000000 0.000000 -0.227769 0.000000 0.477235
#
#
# Mechanical properties :
#
#
# Convention : Reuss Voigt Hill
#
# Bulk Modulus (GPa) = 18.34933 29.66167 24.00550
# Shear Modulus (GPa) = 6.51569 25.76555 16.14062
#
# Velocity S-wave (km/s) = 1.58922 3.16027 2.50130
# Velocity P-wave (km/s) = 3.23730 4.98136 4.20084
#
# Compressibility (1/GPa) = 0.05449791
#
# Stress axis : x y z
#
# Youngs Moduli (GPa) = 34.36401 70.66545 120.19066
#
# Poissons Ratio (x) = -0.37229 0.43950
# Poissons Ratio (y) = -0.18104 0.01784
# Poissons Ratio (z) = 0.12566 0.01049
#
# Static dielectric constant tensor:
#      x y z
#    x 2.140680 0.000000 -0.060870 
#    y 0.000000 2.051480 0.000000 
#    z -0.060870 0.000000 2.164550 
# 
# From -- ./inp_files/155614.got.cif
#   From: 2010.05.17/outbox.cif.g08.bks.cpg/sg15_78_cif.got.tgz:155614.got - 2010.06.03 18:47:42.
