data_PCOD9264291
_publ_section_title
;
Structure prediction by ZEFSAII (Michael W. Deem and Ramdas Pophale) SiO2 
 PCOD9264291
Probable space group: C 2/C
;
_chemical_formula_sum "Si O2"
_cell_formula_units_Z 56
_cell_length_a 29.029175
_cell_length_b 14.141396
_cell_length_c 17.904497
_cell_angle_alpha 90.000000
_cell_angle_beta 19.468819
_cell_angle_gamma 90.000000
_cell_volume 2449.719476
_symmetry_space_group_name_H-M "C 2/C"
_symmetry_group_IT_number 15
_symmetry_cell_setting 'monoclinic'
loop_
_space_group_symop_operation_xyz
x,y,z
-x,y,1/2-z
-x,-y,-z
x,-y,1/2+z
1/2+x,1/2+y,z
1/2-x,1/2+y,1/2-z
1/2-x,1/2-y,-z
1/2+x,1/2-y,1/2+z
loop_
_atom_site_type_symbol
_atom_site_label
_atom_site_fract_x
_atom_site_fract_y
_atom_site_fract_z
Si Si1 0.171696 0.887289 0.153012
Si Si2 0.083158 0.039606 0.546796
Si Si3 0.151631 0.257696 0.983349
Si Si4 0.090763 0.851015 0.436854
Si Si5 0.673935 0.101479 0.227731
Si Si6 0.366175 0.123455 0.740837
Si Si7 0.772675 0.895265 0.896279
O O1 0.160967 0.838895 0.249276
O O2 0.022830 0.898820 0.340570
O O3 0.213902 0.993614 0.113275
O O4 0.273383 0.856097 0.931534
O O5 0.208975 0.099874 0.387623
O O6 0.000000 0.006884 0.750000
O O7 0.120411 0.949351 0.437724
O O8 0.000000 0.244709 0.250000
O O9 0.138630 0.230216 0.918282
O O10 0.259461 0.185683 0.856950
O O11 0.209714 0.360615 0.915065
O O12 0.925931 0.854900 0.675267
O O13 0.524402 0.139413 0.477933
O O14 0.660019 0.987769 0.234109
O O15 0.329638 0.141389 0.882915
#
# Coordination Sequence:
#
# PCOD9264291 Si02
#       7
#     8   8   8   8   8   8   8
#     4   9  20  37  61  92 126 156 205 260 304 371
#     4   9  15  30  56  87 117 159 202 247 309 360
#     4  12  23  38  59  87 125 172 206 244 321 379
#     4  11  20  37  61  87 125 165 205 252 310 370
#     4   9  18  34  60  90 122 160 203 257 303 362
#     4  10  19  35  57  87 127 161 202 253 308 359
#     4  10  21  38  58  92 123 156 209 262 308 364
#
# _framework density 22.859760000000001
#
# number of rings (size 3 to 8) (size 9 to 14) (size 15 to 20)
#    0.000    2.000    2.857    3.429    0.000    0.000 
#    5.143    0.714    0.000    0.857    3.714    4.000 
#    0.000    0.000    0.000    0.000    0.000    0.000 
#
# Total GULP energy -156677.041020 kJ/mol
# GULP energy per Si atom -5595.608608 kJ/mol
# Density = 2.280773 g / cm^3
# Si number density = 22.859760 Si / 1000 Ang^3
#
#
#
# Elastic Constant Matrix: (Units=GPa)
#
#
# Indices 1 2 3 4 5 6 
#
# 1 188.3251 36.3050 78.2199 0.0000 18.7000 0.0000
# 2 36.3050 50.3713 38.7615 0.0000 2.4372 0.0000
# 3 78.2199 38.7615 153.2966 0.0000 7.5056 0.0001
# 4 0.0000 0.0000 0.0000 23.7970 0.0001 6.2279
# 5 18.7000 2.4372 7.5056 0.0001 29.9372 0.0000
# 6 0.0000 0.0000 0.0001 6.2279 0.0000 28.0444
#
#
#
# Elastic Compliance Matrix: (Units=1/GPa)
#
#
# Indices 1 2 3 4 5 6 
#
# 1 0.007439 -0.002982 -0.002862 0.000000 -0.003687 0.000000
# 2 -0.002982 0.025849 -0.005065 0.000000 0.001028 0.000000
# 3 -0.002862 -0.005065 0.009270 0.000000 -0.000124 0.000000
# 4 0.000000 0.000000 0.000000 0.044615 0.000000 -0.009908
# 5 -0.003687 0.001028 -0.000124 0.000000 0.035654 0.000000
# 6 0.000000 0.000000 0.000000 -0.009908 0.000000 0.037858
#
#
# Mechanical properties :
#
#
# Convention : Reuss Voigt Hill
#
# Bulk Modulus (GPa) = 48.20973 77.61842 62.91407
# Shear Modulus (GPa) = 26.39684 32.26947 29.33316
#
# Velocity S-wave (km/s) = 3.40182 3.76124 3.58603
# Velocity P-wave (km/s) = 6.04690 7.27258 6.68788
#
# Compressibility (1/GPa) = 0.02074270
#
# Stress axis : x y z
#
# Youngs Moduli (GPa) = 134.42036 38.68552 107.87224
#
# Poissons Ratio (x) = 0.11534 0.30868
# Poissons Ratio (y) = 0.40078 0.54638
# Poissons Ratio (z) = 0.38465 0.19595
#
# Static dielectric constant tensor:
#      x y z
#    x 1.843220 0.000000 0.033110 
#    y 0.000000 1.911060 0.000000 
#    z 0.033110 0.000000 1.826560 
# 
# From -- ./inp_files/222936.got.cif
#   From: 2010.05.17/outbox.cif.g08.bks.cpg/sg15_112_cif.got.tgz:222936.got - 2010.06.03 18:47:42.
