data_PCOD9264965
_publ_section_title
;
Structure prediction by ZEFSAII (Michael W. Deem and Ramdas Pophale) SiO2 
 PCOD9264965
Probable space group: C 2/C
;
_chemical_formula_sum "Si O2"
_cell_formula_units_Z 64
_cell_length_a 9.249635
_cell_length_b 27.228946
_cell_length_c 14.121354
_cell_angle_alpha 90.000000
_cell_angle_beta 67.335091
_cell_angle_gamma 90.000000
_cell_volume 3281.914335
_symmetry_space_group_name_H-M "C 2/C"
_symmetry_group_IT_number 15
_symmetry_cell_setting 'monoclinic'
loop_
_space_group_symop_operation_xyz
x,y,z
-x,y,1/2-z
-x,-y,-z
x,-y,1/2+z
1/2+x,1/2+y,z
1/2-x,1/2+y,1/2-z
1/2-x,1/2-y,-z
1/2+x,1/2-y,1/2+z
loop_
_atom_site_type_symbol
_atom_site_label
_atom_site_fract_x
_atom_site_fract_y
_atom_site_fract_z
Si Si1 0.830153 0.933395 0.548147
Si Si2 0.843415 0.092589 0.357333
Si Si3 0.380434 0.296869 0.194290
Si Si4 0.440053 0.796239 0.901495
Si Si5 0.970397 0.837513 0.967098
Si Si6 0.857807 0.741135 0.617212
Si Si7 0.001534 0.998314 0.137872
Si Si8 0.503398 0.091751 0.354678
O O1 0.651429 0.931066 0.558318
O O2 0.890903 0.878954 0.563056
O O3 0.854524 0.973019 0.627401
O O4 0.945918 0.952503 0.437180
O O5 0.844480 0.136734 0.431526
O O6 0.870078 0.041472 0.404684
O O7 0.678228 0.088037 0.348616
O O8 0.000000 0.098113 0.250000
O O9 0.500000 0.312164 0.250000
O O10 0.420934 0.240509 0.158548
O O11 0.414874 0.325963 0.088540
O O12 0.206477 0.291522 0.280588
O O13 0.291389 0.770029 0.890435
O O14 0.467751 0.850372 0.860685
O O15 0.415571 0.794613 0.019919
O O16 0.022297 0.786412 0.904661
O O17 0.000000 0.987292 0.250000
O O18 0.500000 0.071403 0.250000
#
# Coordination Sequence:
#
# PCOD9264965 Si02
#       8
#     8   8   8   8   8   8   8   8
#     4  10  21  34  62  89 111 147 193 236 274 360
#     4  10  23  38  58  80 117 153 185 248 293 338
#     4   9  18  29  52  83 113 154 188 236 288 334
#     4   9  18  28  50  80 112 139 191 242 275 328
#     4  10  19  36  55  84 115 149 195 231 290 341
#     4   9  16  32  51  78 116 148 183 243 282 332
#     4   9  19  41  58  86 121 144 177 234 300 336
#     4  12  21  34  59  87 108 147 201 237 281 343
#
# _framework density 19.500813999999998
#
# number of rings (size 3 to 8) (size 9 to 14) (size 15 to 20)
#    0.000    2.250    1.250    4.125    1.750    1.000 
#    0.000    2.500    0.000    0.000    0.000    0.000 
#    0.000    0.000    0.000    0.000    0.000    0.000 
#
# Total GULP energy -178169.648679 kJ/mol
# GULP energy per Si atom -5567.801521 kJ/mol
# Density = 1.945643 g / cm^3
# Si number density = 19.500814 Si / 1000 Ang^3
#
#
#
# Elastic Constant Matrix: (Units=GPa)
#
#
# Indices 1 2 3 4 5 6 
#
# 1 111.1010 16.2183 33.5621 0.0000 -0.1024 0.0000
# 2 16.2183 43.1475 14.6345 0.0000 -1.4832 0.0000
# 3 33.5621 14.6345 78.3511 0.0000 2.6135 0.0000
# 4 0.0000 0.0000 0.0000 22.0061 0.0000 6.5964
# 5 -0.1024 -1.4832 2.6135 0.0000 19.3592 0.0000
# 6 0.0000 0.0000 0.0000 6.5964 0.0000 15.9672
#
#
#
# Elastic Compliance Matrix: (Units=1/GPa)
#
#
# Indices 1 2 3 4 5 6 
#
# 1 0.010610 -0.002592 -0.004074 0.000000 0.000408 0.000000
# 2 -0.002592 0.025501 -0.003734 0.000000 0.002444 0.000000
# 3 -0.004074 -0.003734 0.015285 0.000000 -0.002371 0.000000
# 4 0.000000 0.000000 0.000000 0.051865 0.000000 -0.021426
# 5 0.000408 0.002444 -0.002371 0.000000 0.052165 0.000000
# 6 0.000000 0.000000 0.000000 -0.021426 0.000000 0.071480
#
#
# Mechanical properties :
#
#
# Convention : Reuss Voigt Hill
#
# Bulk Modulus (GPa) = 32.68541 40.15882 36.42211
# Shear Modulus (GPa) = 19.38690 22.67881 21.03285
#
# Velocity S-wave (km/s) = 3.15645 3.41393 3.28771
# Velocity P-wave (km/s) = 5.48467 6.01482 5.75585
#
# Compressibility (1/GPa) = 0.03059469
#
# Stress axis : x y z
#
# Youngs Moduli (GPa) = 94.24667 39.21369 65.42387
#
# Poissons Ratio (x) = 0.10165 0.26657
# Poissons Ratio (y) = 0.24432 0.24431
# Poissons Ratio (z) = 0.38400 0.14643
#
# Static dielectric constant tensor:
#      x y z
#    x 1.744320 0.000000 0.002860 
#    y 0.000000 1.670410 0.000000 
#    z 0.002860 0.000000 1.767560 
# 
# From -- ./inp_files/139503.got.cif
#   From: 2010.05.17/outbox.cif.g08.bks.cpg/sg15_70_cif.got.tgz:139503.got - 2010.06.03 18:47:42.
