data_PCOD9264784
_publ_section_title
;
Structure prediction by ZEFSAII (Michael W. Deem and Ramdas Pophale) SiO2 
 PCOD9264784
Probable space group: C 2/C
;
_chemical_formula_sum "Si O2"
_cell_formula_units_Z 64
_cell_length_a 7.928066
_cell_length_b 13.239120
_cell_length_c 29.404451
_cell_angle_alpha 90.000000
_cell_angle_beta 115.693016
_cell_angle_gamma 90.000000
_cell_volume 2781.165535
_symmetry_space_group_name_H-M "C 2/C"
_symmetry_group_IT_number 15
_symmetry_cell_setting 'monoclinic'
loop_
_space_group_symop_operation_xyz
x,y,z
-x,y,1/2-z
-x,-y,-z
x,-y,1/2+z
1/2+x,1/2+y,z
1/2-x,1/2+y,1/2-z
1/2-x,1/2-y,-z
1/2+x,1/2-y,1/2+z
loop_
_atom_site_type_symbol
_atom_site_label
_atom_site_fract_x
_atom_site_fract_y
_atom_site_fract_z
Si Si1 0.728478 0.375971 0.310114
Si Si2 0.511019 0.594762 0.534851
Si Si3 0.995208 0.831299 0.126184
Si Si4 0.947862 0.707860 0.505932
Si Si5 0.721516 0.069703 0.780589
Si Si6 0.875318 0.625682 0.400939
Si Si7 0.470091 0.589419 0.198073
Si Si8 0.953704 0.593028 0.594944
O O1 0.622801 0.328804 0.340996
O O2 0.713251 0.359286 0.254704
O O3 0.657181 0.491896 0.303675
O O4 0.942645 0.363441 0.349222
O O5 0.500000 0.500000 0.500000
O O6 0.426363 0.597598 0.575955
O O7 0.442368 0.694255 0.499758
O O8 0.732774 0.605581 0.569813
O O9 0.194030 0.875622 0.165994
O O10 0.021112 0.720633 0.109347
O O11 0.750000 0.750000 0.500000
O O12 0.899225 0.637442 0.457659
O O13 0.027199 0.649038 0.558150
O O14 0.500000 0.055544 0.750000
O O15 0.833221 0.961865 0.793199
O O16 0.659977 0.632369 0.357412
O O17 0.979268 0.522607 0.399872
O O18 0.500000 0.646530 0.250000
#
# Coordination Sequence:
#
# PCOD9264784 Si02
#       8
#     8   8   8   8   8   8   8   8
#     4   9  19  36  59  85 115 155 204 251 304 363
#     4  10  22  38  57  86 120 157 207 257 310 379
#     4  10  21  37  59  87 121 161 201 252 309 368
#     4   9  20  36  54  81 116 154 196 242 304 368
#     4  10  19  35  63  90 117 161 208 253 310 373
#     4  10  20  35  59  88 117 157 204 249 304 364
#     4   8  17  34  56  83 116 149 192 247 296 352
#     4  10  20  37  59  82 117 156 199 255 307 363
#
# _framework density 23.011935999999999
#
# number of rings (size 3 to 8) (size 9 to 14) (size 15 to 20)
#    0.000    2.500    0.000    2.250    0.000    8.500 
#    0.000    2.500    0.000   48.000    0.000    0.000 
#    0.000    0.000    0.000    0.000    0.000    0.000 
#
# Total GULP energy -178351.601749 kJ/mol
# GULP energy per Si atom -5573.487555 kJ/mol
# Density = 2.295956 g / cm^3
# Si number density = 23.011936 Si / 1000 Ang^3
#
#
#
# Elastic Constant Matrix: (Units=GPa)
#
#
# Indices 1 2 3 4 5 6 
#
# 1 84.1374 -1.7929 12.5744 0.0000 -1.8593 0.0000
# 2 -1.7929 55.1037 25.9986 0.0000 -9.1838 0.0000
# 3 12.5744 25.9986 131.9427 0.0000 -20.3339 0.0000
# 4 0.0000 0.0000 0.0000 11.4145 0.0000 0.0995
# 5 -1.8593 -9.1838 -20.3339 0.0000 37.4338 0.0000
# 6 0.0000 0.0000 0.0000 0.0995 0.0000 7.4425
#
#
#
# Elastic Compliance Matrix: (Units=1/GPa)
#
#
# Indices 1 2 3 4 5 6 
#
# 1 0.012111 0.001048 -0.001341 0.000000 0.000130 0.000000
# 2 0.001048 0.020416 -0.003648 0.000000 0.003079 0.000000
# 3 -0.001341 -0.003648 0.009034 0.000000 0.003945 0.000000
# 4 0.000000 0.000000 0.000000 0.087618 0.000000 -0.001171
# 5 0.000130 0.003079 0.003945 0.000000 0.029619 0.000000
# 6 0.000000 0.000000 0.000000 -0.001171 0.000000 0.134379
#
#
# Mechanical properties :
#
#
# Convention : Reuss Voigt Hill
#
# Bulk Modulus (GPa) = 29.69154 38.30489 33.99822
# Shear Modulus (GPa) = 16.01102 26.88507 21.44805
#
# Velocity S-wave (km/s) = 2.64061 3.42176 3.05625
# Velocity P-wave (km/s) = 4.71463 5.68270 5.22115
#
# Compressibility (1/GPa) = 0.03367963
#
# Stress axis : x y z
#
# Youngs Moduli (GPa) = 82.57020 48.98072 110.69627
#
# Poissons Ratio (x) = -0.05135 0.14840
# Poissons Ratio (y) = -0.08656 0.40385
# Poissons Ratio (z) = 0.11070 0.17870
#
# Static dielectric constant tensor:
#      x y z
#    x 1.938620 0.000000 -0.022440 
#    y 0.000000 1.926040 0.000000 
#    z -0.022440 0.000000 1.935100 
# 
# From -- ./inp_files/308026.got.cif
#   From: 2010.05.17/outbox.cif.g08.bks.cpg/sg15_155_cif.got.tgz:308026.got - 2010.06.03 18:47:42.
