data_PCOD9264327
_publ_section_title
;
Structure prediction by ZEFSAII (Michael W. Deem and Ramdas Pophale) SiO2 
 PCOD9264327
Probable space group: C 2/C
;
_chemical_formula_sum "Si O2"
_cell_formula_units_Z 48
_cell_length_a 14.974130
_cell_length_b 4.839104
_cell_length_c 27.675955
_cell_angle_alpha 90.000000
_cell_angle_beta 67.548201
_cell_angle_gamma 90.000000
_cell_volume 1853.427800
_symmetry_space_group_name_H-M "C 2/C"
_symmetry_group_IT_number 15
_symmetry_cell_setting 'monoclinic'
loop_
_space_group_symop_operation_xyz
x,y,z
-x,y,1/2-z
-x,-y,-z
x,-y,1/2+z
1/2+x,1/2+y,z
1/2-x,1/2+y,1/2-z
1/2-x,1/2-y,-z
1/2+x,1/2-y,1/2+z
loop_
_atom_site_type_symbol
_atom_site_label
_atom_site_fract_x
_atom_site_fract_y
_atom_site_fract_z
Si Si1 0.427903 0.199581 0.544010
Si Si2 0.637278 0.941404 0.677190
Si Si3 0.349114 0.590912 0.970493
Si Si4 0.730054 0.065841 0.363515
Si Si5 0.065300 0.383818 0.096516
Si Si6 0.185396 0.561362 0.769422
O O1 0.396111 0.440090 0.514041
O O2 0.332648 0.032494 0.578989
O O3 0.480066 0.262098 0.583971
O O4 0.500000 0.000000 0.500000
O O5 0.732954 0.123054 0.644980
O O6 0.561802 0.064678 0.654354
O O7 0.618334 0.990344 0.737772
O O8 0.674526 0.629725 0.661340
O O9 0.346724 0.313238 0.939710
O O10 0.414187 0.812492 0.928234
O O11 0.250000 0.750000 0.000000
O O12 0.665586 0.021822 0.328331
O O13 0.282874 0.379731 0.738770
#
# Coordination Sequence:
#
# PCOD9264327 Si02
#       6
#     8   8   8   8   8   8
#     4  10  23  38  53  78 113 146 178 218 267 319
#     4  10  19  35  58  82 104 135 180 225 266 316
#     4  11  22  37  55  75 101 141 184 218 256 310
#     4  10  20  36  57  79 106 143 180 218 264 318
#     4  11  22  35  52  78 108 137 171 221 268 309
#     4   8  16  31  54  80 103 130 174 224 265 308
#
# _framework density 25.897960000000001
#
# number of rings (size 3 to 8) (size 9 to 14) (size 15 to 20)
#    0.000    2.000    0.000    4.000    0.000    6.667 
#    0.000    0.833    0.000    0.000    0.000   18.667 
#    0.000    0.000    0.000    0.000    0.000    0.000 
#
# Total GULP energy -134144.495061 kJ/mol
# GULP energy per Si atom -5589.353961 kJ/mol
# Density = 2.583901 g / cm^3
# Si number density = 25.897960 Si / 1000 Ang^3
#
#
#
# Elastic Constant Matrix: (Units=GPa)
#
#
# Indices 1 2 3 4 5 6 
#
# 1 77.4864 -4.9247 28.4412 0.0004 40.8527 0.0020
# 2 -4.9247 110.9213 6.0011 -0.0008 3.4390 -0.0004
# 3 28.4412 6.0011 107.6026 0.0008 31.7506 0.0003
# 4 0.0004 -0.0008 0.0008 28.1890 -0.0008 7.8098
# 5 40.8527 3.4390 31.7506 -0.0008 58.6385 0.0006
# 6 0.0020 -0.0004 0.0003 7.8098 0.0006 17.6656
#
#
#
# Elastic Compliance Matrix: (Units=1/GPa)
#
#
# Indices 1 2 3 4 5 6 
#
# 1 0.020808 0.001433 -0.001520 0.000000 -0.013757 -0.000002
# 2 0.001433 0.009146 -0.000519 0.000000 -0.001254 0.000000
# 3 -0.001520 -0.000519 0.011191 -0.000001 -0.004970 0.000000
# 4 0.000000 0.000000 -0.000001 0.040426 0.000001 -0.017872
# 5 -0.013757 -0.001254 -0.004970 0.000001 0.029403 0.000000
# 6 -0.000002 0.000000 0.000000 -0.017872 0.000000 0.064508
#
#
# Mechanical properties :
#
#
# Convention : Reuss Voigt Hill
#
# Bulk Modulus (GPa) = 25.04307 39.44950 32.24629
# Shear Modulus (GPa) = 26.31505 38.66479 32.48992
#
# Velocity S-wave (km/s) = 3.19110 3.86808 3.54579
# Velocity P-wave (km/s) = 4.82373 5.93424 5.40757
#
# Compressibility (1/GPa) = 0.03993120
#
# Stress axis : x y z
#
# Youngs Moduli (GPa) = 48.05894 109.33814 89.36011
#
# Poissons Ratio (x) = -0.15664 0.13586
# Poissons Ratio (y) = -0.06885 0.04637
# Poissons Ratio (z) = 0.07307 0.05673
#
# Static dielectric constant tensor:
#      x y z
#    x 2.177160 0.000000 0.056780 
#    y 0.000000 1.938160 0.000000 
#    z 0.056780 0.000000 2.061510 
# 
# From -- ./inp_files/297286.got.cif
#   From: 2010.05.17/outbox.cif.g08.bks.cpg/sg15_149_cif.got.tgz:297286.got - 2010.06.03 18:47:42.
