data_PCOD9264852
_publ_section_title
;
Structure prediction by ZEFSAII (Michael W. Deem and Ramdas Pophale) SiO2 
 PCOD9264852
Probable space group: C 2/C
;
_chemical_formula_sum "Si O2"
_cell_formula_units_Z 56
_cell_length_a 31.548702
_cell_length_b 7.320118
_cell_length_c 11.343100
_cell_angle_alpha 90.000000
_cell_angle_beta 110.032320
_cell_angle_gamma 90.000000
_cell_volume 2461.092352
_symmetry_space_group_name_H-M "C 2/C"
_symmetry_group_IT_number 15
_symmetry_cell_setting 'monoclinic'
loop_
_space_group_symop_operation_xyz
x,y,z
-x,y,1/2-z
-x,-y,-z
x,-y,1/2+z
1/2+x,1/2+y,z
1/2-x,1/2+y,1/2-z
1/2-x,1/2-y,-z
1/2+x,1/2-y,1/2+z
loop_
_atom_site_type_symbol
_atom_site_label
_atom_site_fract_x
_atom_site_fract_y
_atom_site_fract_z
Si Si1 0.297701 0.625102 0.676683
Si Si2 0.888380 0.194728 0.877822
Si Si3 0.947484 0.853577 0.224954
Si Si4 0.889222 0.232247 0.453492
Si Si5 0.028753 0.375541 0.114426
Si Si6 0.056960 0.742759 0.865844
Si Si7 0.794018 0.851048 0.898661
O O1 0.343077 0.730612 0.761997
O O2 0.253364 0.748874 0.638178
O O3 0.291836 0.478791 0.778895
O O4 0.302687 0.565972 0.541421
O O5 0.931384 0.213653 0.835292
O O6 0.887030 0.981775 0.913993
O O7 0.901144 0.297936 0.009870
O O8 0.000000 0.826923 0.250000
O O9 0.935437 0.069678 0.197690
O O10 0.915303 0.761081 0.100054
O O11 0.923959 0.326831 0.399278
O O12 0.836868 0.282246 0.415966
O O13 0.045002 0.416479 0.263147
O O14 0.989508 0.224374 0.105143
O O15 0.000000 0.500000 0.000000
#
# Coordination Sequence:
#
# PCOD9264852 Si02
#       7
#     8   8   8   8   8   8   8
#     4  10  22  42  67 101 131 171 215 282 334 408
#     4  10  19  35  65  93 118 152 207 274 319 363
#     4  11  17  31  61  92 118 146 200 271 315 353
#     4  10  20  35  62  92 116 163 209 258 317 377
#     4  11  22  41  57  80 131 179 209 244 308 388
#     4  10  21  39  57  89 124 160 210 262 305 375
#     4  10  22  42  69  96 136 167 222 273 342 393
#
# _framework density 22.754123
#
# number of rings (size 3 to 8) (size 9 to 14) (size 15 to 20)
#    0.000    1.714    4.286    0.857    0.000    2.857 
#   10.286    0.000    3.143    0.000    0.000    0.000 
#    0.000    0.000    0.000    0.000    0.000    0.000 
#
# Total GULP energy -156001.571120 kJ/mol
# GULP energy per Si atom -5571.484683 kJ/mol
# Density = 2.270233 g / cm^3
# Si number density = 22.754123 Si / 1000 Ang^3
#
#
#
# Elastic Constant Matrix: (Units=GPa)
#
#
# Indices 1 2 3 4 5 6 
#
# 1 139.1063 22.4361 75.0758 0.0000 15.5727 0.0000
# 2 22.4361 38.2546 37.5436 0.0000 3.3572 0.0000
# 3 75.0758 37.5436 203.2262 0.0000 19.2751 0.0000
# 4 0.0000 0.0000 0.0000 25.7213 0.0000 -0.6117
# 5 15.5727 3.3572 19.2751 0.0000 45.8769 0.0000
# 6 0.0000 0.0000 0.0000 -0.6117 0.0000 22.9586
#
#
#
# Elastic Compliance Matrix: (Units=1/GPa)
#
#
# Indices 1 2 3 4 5 6 
#
# 1 0.009312 -0.002559 -0.002797 0.000000 -0.001799 0.000000
# 2 -0.002559 0.032634 -0.005144 0.000000 0.000642 0.000000
# 3 -0.002797 -0.005144 0.007060 0.000000 -0.001640 0.000000
# 4 0.000000 0.000000 0.000000 0.038903 0.000000 0.001036
# 5 -0.001799 0.000642 -0.001640 0.000000 0.023050 0.000000
# 6 0.000000 0.000000 0.000000 0.001036 0.000000 0.043584
#
#
# Mechanical properties :
#
#
# Convention : Reuss Voigt Hill
#
# Bulk Modulus (GPa) = 35.70695 72.29979 54.00337
# Shear Modulus (GPa) = 27.04481 35.28013 31.16247
#
# Velocity S-wave (km/s) = 3.45130 3.94190 3.70473
# Velocity P-wave (km/s) = 5.62215 7.24993 6.48730
#
# Compressibility (1/GPa) = 0.02800576
#
# Stress axis : x y z
#
# Youngs Moduli (GPa) = 107.38527 30.64318 141.64832
#
# Poissons Ratio (x) = 0.07841 0.39616
# Poissons Ratio (y) = 0.27479 0.72867
# Poissons Ratio (z) = 0.30034 0.15764
#
# Static dielectric constant tensor:
#      x y z
#    x 1.941660 0.000000 -0.100280 
#    y 0.000000 1.958250 0.000000 
#    z -0.100280 0.000000 1.942880 
# 
# From -- ./inp_files/125618.got.cif
#   From: 2010.05.17/outbox.cif.g08.bks.cpg/sg15_63_cif.got.tgz:125618.got - 2010.06.03 18:47:42.
