data_PCOD9264040
_publ_section_title
;
Structure prediction by ZEFSAII (Michael W. Deem and Ramdas Pophale) SiO2 
 PCOD9264040
Probable space group: C 2/C
;
_chemical_formula_sum "Si O2"
_cell_formula_units_Z 44
_cell_length_a 19.552816
_cell_length_b 21.316720
_cell_length_c 5.977569
_cell_angle_alpha 90.000000
_cell_angle_beta 107.923873
_cell_angle_gamma 90.000000
_cell_volume 2370.542157
_symmetry_space_group_name_H-M "C 2/C"
_symmetry_group_IT_number 15
_symmetry_cell_setting 'monoclinic'
loop_
_space_group_symop_operation_xyz
x,y,z
-x,y,1/2-z
-x,-y,-z
x,-y,1/2+z
1/2+x,1/2+y,z
1/2-x,1/2+y,1/2-z
1/2-x,1/2-y,-z
1/2+x,1/2-y,1/2+z
loop_
_atom_site_type_symbol
_atom_site_label
_atom_site_fract_x
_atom_site_fract_y
_atom_site_fract_z
Si Si1 0.074413 0.657321 0.947724
Si Si2 0.770740 0.977813 0.839892
Si Si3 0.500000 0.082630 0.250000
Si Si4 0.249186 0.353502 0.017698
Si Si5 0.191401 0.752966 0.136988
Si Si6 0.635015 0.060529 0.663433
O O1 0.115736 0.601370 0.861845
O O2 0.000000 0.667516 0.750000
O O3 0.117479 0.722224 0.983847
O O4 0.051262 0.628421 0.159870
O O5 0.797669 0.997672 0.616092
O O6 0.687112 0.001612 0.760346
O O7 0.779789 0.903539 0.873644
O O8 0.558999 0.046395 0.462525
O O9 0.304423 0.321430 0.246265
O O10 0.187954 0.392039 0.085168
O O11 0.213940 0.297352 0.847191
O O12 0.250000 0.750000 0.000000
#
# Coordination Sequence:
#
# PCOD9264040 Si02
#       6
#     8   8   4   8   8   8
#     4  10  20  33  55  80 111 153 191 235 285 335
#     4  10  22  36  56  76 110 148 185 239 282 331
#     4  10  20  34  54  74 114 152 200 228 278 336
#     4  10  21  33  53  79 103 146 189 238 287 329
#     4  11  20  34  56  78 108 141 192 242 288 338
#     4  10  19  35  54  76 108 150 193 233 277 330
#
# _framework density 18.561154999999999
#
# number of rings (size 3 to 8) (size 9 to 14) (size 15 to 20)
#    0.000    1.818    3.636    1.091    5.091    0.000 
#    0.000    3.636    4.000    0.000    0.000    0.000 
#    0.000    5.818    0.000    1.818    0.000    0.000 
#
# Total GULP energy -122535.540241 kJ/mol
# GULP energy per Si atom -5569.797284 kJ/mol
# Density = 1.851891 g / cm^3
# Si number density = 18.561155 Si / 1000 Ang^3
#
#
#
# Elastic Constant Matrix: (Units=GPa)
#
#
# Indices 1 2 3 4 5 6 
#
# 1 30.8848 13.6403 13.7067 0.0000 -7.4427 0.0000
# 2 13.6403 88.1885 29.4038 0.0000 13.6495 0.0000
# 3 13.7067 29.4038 72.6352 0.0000 -6.5953 0.0000
# 4 0.0000 0.0000 0.0000 29.2301 0.0000 7.9311
# 5 -7.4427 13.6495 -6.5953 0.0000 23.3689 0.0000
# 6 0.0000 0.0000 0.0000 7.9311 0.0000 32.4940
#
#
#
# Elastic Compliance Matrix: (Units=1/GPa)
#
#
# Indices 1 2 3 4 5 6 
#
# 1 0.041358 -0.008026 -0.003011 0.000000 0.017010 0.000000
# 2 -0.008026 0.017040 -0.006691 0.000000 -0.014397 0.000000
# 3 -0.003011 -0.006691 0.017767 0.000000 0.007963 0.000000
# 4 0.000000 0.000000 0.000000 0.036638 0.000000 -0.008943
# 5 0.017010 -0.014397 0.007963 0.000000 0.058866 0.000000
# 6 0.000000 0.000000 0.000000 -0.008943 0.000000 0.032958
#
#
# Mechanical properties :
#
#
# Convention : Reuss Voigt Hill
#
# Bulk Modulus (GPa) = 24.56388 33.91226 29.23807
# Shear Modulus (GPa) = 19.71202 26.01577 22.86390
#
# Velocity S-wave (km/s) = 3.26238 3.74789 3.51353
# Velocity P-wave (km/s) = 5.23961 6.08598 5.67859
#
# Compressibility (1/GPa) = 0.04071018
#
# Stress axis : x y z
#
# Youngs Moduli (GPa) = 24.17891 58.68575 56.28336
#
# Poissons Ratio (x) = 0.47100 0.16948
# Poissons Ratio (y) = 0.19405 0.37658
# Poissons Ratio (z) = 0.07281 0.39265
#
# Static dielectric constant tensor:
#      x y z
#    x 1.631760 0.000000 -0.028260 
#    y 0.000000 1.693020 0.000000 
#    z -0.028260 0.000000 1.857580 
# 
# From -- ./inp_files/10294.got.cif
#   From: 2010.05.17/outbox.cif.g08.bks.cpg/sg15_6_cif.got.tgz:10294.got - 2010.06.03 18:47:42.
