data_PCOD9264143
_publ_section_title
;
Structure prediction by ZEFSAII (Michael W. Deem and Ramdas Pophale) SiO2 
 PCOD9264143
Probable space group: C 2/C
;
_chemical_formula_sum "Si O2"
_cell_formula_units_Z 32
_cell_length_a 7.787323
_cell_length_b 13.862066
_cell_length_c 13.412160
_cell_angle_alpha 90.000000
_cell_angle_beta 120.128925
_cell_angle_gamma 90.000000
_cell_volume 1252.217689
_symmetry_space_group_name_H-M "C 2/C"
_symmetry_group_IT_number 15
_symmetry_cell_setting 'monoclinic'
loop_
_space_group_symop_operation_xyz
x,y,z
-x,y,1/2-z
-x,-y,-z
x,-y,1/2+z
1/2+x,1/2+y,z
1/2-x,1/2+y,1/2-z
1/2-x,1/2-y,-z
1/2+x,1/2-y,1/2+z
loop_
_atom_site_type_symbol
_atom_site_label
_atom_site_fract_x
_atom_site_fract_y
_atom_site_fract_z
Si Si1 0.500000 0.487395 0.250000
Si Si2 0.783368 0.346977 0.610362
Si Si3 0.938096 0.819276 0.381023
Si Si4 0.500000 0.151233 0.750000
Si Si5 0.101990 0.532308 0.157491
O O1 0.431639 0.419847 0.320852
O O2 0.301674 0.537381 0.153341
O O3 0.903963 0.247399 0.633049
O O4 0.554794 0.333042 0.518365
O O5 0.818201 0.406024 0.721827
O O6 0.906845 0.411336 0.565979
O O7 0.706636 0.790458 0.319861
O O8 0.470771 0.074584 0.832619
#
# Coordination Sequence:
#
# PCOD9264143 Si02
#       5
#     4   8   8   4   8
#     4  10  20  32  54  80 108 142 176 210 258 312
#     4   9  19  35  56  76 107 140 173 218 266 305
#     4  10  19  35  56  79 105 139 174 217 265 313
#     4   8  18  32  52  76 104 134 172 212 258 306
#     4   9  19  35  53  78 108 141 173 216 259 307
#
# _framework density 25.554663000000001
#
# number of rings (size 3 to 8) (size 9 to 14) (size 15 to 20)
#    0.000    3.000    0.000    1.500    0.000   11.000 
#    0.000    2.500    0.000   27.000    0.000    0.000 
#    0.000    0.000    0.000    0.000    0.000    0.000 
#
# Total GULP energy -89085.607309 kJ/mol
# GULP energy per Si atom -5567.850457 kJ/mol
# Density = 2.549650 g / cm^3
# Si number density = 25.554663 Si / 1000 Ang^3
#
#
#
# Elastic Constant Matrix: (Units=GPa)
#
#
# Indices 1 2 3 4 5 6 
#
# 1 103.2800 11.2374 35.2015 0.0000 48.9344 0.0000
# 2 11.2374 64.9255 15.2966 0.0000 13.6909 0.0000
# 3 35.2015 15.2966 135.0287 0.0000 39.5005 0.0000
# 4 0.0000 0.0000 0.0000 -28.3703 0.0000 -40.0423
# 5 48.9344 13.6909 39.5005 0.0000 49.6755 0.0000
# 6 0.0000 0.0000 0.0000 -40.0423 0.0000 -23.5806
#
#
#
# Elastic Compliance Matrix: (Units=1/GPa)
#
#
# Indices 1 2 3 4 5 6 
#
# 1 0.018225 0.000625 0.000626 0.000000 -0.018623 0.000000
# 2 0.000625 0.016424 -0.000677 0.000000 -0.004604 0.000000
# 3 0.000626 -0.000677 0.009702 0.000000 -0.008145 0.000000
# 4 0.000000 0.000000 0.000000 0.025236 0.000000 -0.042854
# 5 -0.018623 -0.004604 -0.008145 0.000000 0.046221 0.000000
# 6 0.000000 0.000000 0.000000 -0.042854 0.000000 0.030362
#
#
# Mechanical properties :
#
#
# Convention : Reuss Voigt Hill
#
# Bulk Modulus (GPa) = 21.97820 47.41170 34.69495
# Shear Modulus (GPa) = 31.21328 15.64482 23.42905
#
# Velocity S-wave (km/s) = 3.49869 2.47697 3.03119
# Velocity P-wave (km/s) = 4.99402 5.17435 5.08498
#
# Compressibility (1/GPa) = 0.04549963
#
# Stress axis : x y z
#
# Youngs Moduli (GPa) = 54.87110 60.88492 103.07223
#
# Poissons Ratio (x) = -0.03806 -0.06451
# Poissons Ratio (y) = -0.03430 0.06974
# Poissons Ratio (z) = -0.03434 0.04120
#
# Static dielectric constant tensor:
#      x y z
#    x 2.160620 0.000000 0.026450 
#    y 0.000000 2.075160 0.000000 
#    z 0.026450 0.000000 2.185440 
# 
# From -- ./inp_files/132324.got.cif
#   From: 2010.05.17/outbox.cif.g08.bks.cpg/sg15_67_cif.got.tgz:132324.got - 2010.06.03 18:47:42.
