data_PCOD9264706
_publ_section_title
;
Structure prediction by ZEFSAII (Michael W. Deem and Ramdas Pophale) SiO2 
 PCOD9264706
Probable space group: C 2/C
;
_chemical_formula_sum "Si O2"
_cell_formula_units_Z 60
_cell_length_a 19.648705
_cell_length_b 9.369660
_cell_length_c 19.367265
_cell_angle_alpha 90.000000
_cell_angle_beta 53.580781
_cell_angle_gamma 90.000000
_cell_volume 2869.176066
_symmetry_space_group_name_H-M "C 2/C"
_symmetry_group_IT_number 15
_symmetry_cell_setting 'monoclinic'
loop_
_space_group_symop_operation_xyz
x,y,z
-x,y,1/2-z
-x,-y,-z
x,-y,1/2+z
1/2+x,1/2+y,z
1/2-x,1/2+y,1/2-z
1/2-x,1/2-y,-z
1/2+x,1/2-y,1/2+z
loop_
_atom_site_type_symbol
_atom_site_label
_atom_site_fract_x
_atom_site_fract_y
_atom_site_fract_z
Si Si1 0.784861 0.806147 0.809486
Si Si2 0.856455 0.629607 0.286113
Si Si3 0.705887 0.179715 0.935571
Si Si4 0.168914 0.769480 0.498416
Si Si5 0.906137 0.647610 0.833289
Si Si6 0.694409 0.049537 0.809011
Si Si7 0.000000 0.163588 0.750000
Si Si8 0.355419 0.425987 0.435362
O O1 0.860557 0.773445 0.816997
O O2 0.790095 0.687115 0.747389
O O3 0.778816 0.962835 0.780920
O O4 0.699737 0.779375 0.905382
O O5 0.772041 0.715755 0.356314
O O6 0.861113 0.499073 0.337966
O O7 0.853557 0.559728 0.212324
O O8 0.935788 0.733028 0.247665
O O9 0.656548 0.098949 0.904842
O O10 0.768592 0.078531 0.942263
O O11 0.650359 0.277819 0.018903
O O12 0.250000 0.750000 0.500000
O O13 0.099682 0.679497 0.582098
O O14 0.145697 0.935912 0.515732
O O15 0.000000 0.635062 0.750000
O O16 0.938076 0.076019 0.837516
#
# Coordination Sequence:
#
# PCOD9264706 Si02
#       8
#     8   8   8   8   8   8   4   8
#     4  10  22  36  63  88 121 153 199 250 293 356
#     4  10  20  38  59  89 120 158 200 248 299 358
#     4  10  19  35  62  86 115 158 204 253 288 353
#     4  10  20  36  58  89 116 151 206 252 291 344
#     4  10  20  36  62  86 118 153 195 247 301 351
#     4  11  20  37  61  91 118 159 204 247 302 353
#     4  10  22  38  60  86 128 160 190 260 306 364
#     4  10  21  36  59  90 119 157 206 249 302 353
#
# _framework density 20.911926999999999
#
# number of rings (size 3 to 8) (size 9 to 14) (size 15 to 20)
#    0.000    1.867    2.000    4.000    0.933    2.133 
#    0.000    0.667    2.933    1.600    0.000    0.000 
#    0.000    0.000    0.000    0.000    0.000    0.000 
#
# Total GULP energy -167489.090817 kJ/mol
# GULP energy per Si atom -5582.969694 kJ/mol
# Density = 2.086433 g / cm^3
# Si number density = 20.911927 Si / 1000 Ang^3
#
#
#
# Elastic Constant Matrix: (Units=GPa)
#
#
# Indices 1 2 3 4 5 6 
#
# 1 26.8782 5.2085 16.2142 0.0000 12.4163 0.0000
# 2 5.2085 54.2176 1.2649 0.0000 3.7485 0.0001
# 3 16.2142 1.2649 78.9770 0.0000 3.3946 0.0000
# 4 0.0000 0.0000 0.0000 13.6809 0.0000 4.9805
# 5 12.4163 3.7485 3.3946 0.0000 32.4885 0.0000
# 6 0.0000 0.0001 0.0000 4.9805 0.0000 28.3370
#
#
#
# Elastic Compliance Matrix: (Units=1/GPa)
#
#
# Indices 1 2 3 4 5 6 
#
# 1 0.052465 -0.003522 -0.009915 0.000000 -0.018608 0.000000
# 2 -0.003522 0.018832 0.000459 0.000000 -0.000875 0.000000
# 3 -0.009915 0.000459 0.014595 0.000000 0.002211 0.000000
# 4 0.000000 0.000000 0.000000 0.078091 0.000000 -0.013725
# 5 -0.018608 -0.000875 0.002211 0.000000 0.037762 0.000000
# 6 0.000000 0.000000 0.000000 -0.013725 0.000000 0.037702
#
#
# Mechanical properties :
#
#
# Convention : Reuss Voigt Hill
#
# Bulk Modulus (GPa) = 16.68448 22.82756 19.75602
# Shear Modulus (GPa) = 17.52042 24.06028 20.79035
#
# Velocity S-wave (km/s) = 2.89765 3.39566 3.15649
# Velocity P-wave (km/s) = 4.38075 5.12969 4.76994
#
# Compressibility (1/GPa) = 0.05993595
#
# Stress axis : x y z
#
# Youngs Moduli (GPa) = 19.06047 53.10022 68.51635
#
# Poissons Ratio (x) = 0.18703 0.67933
# Poissons Ratio (y) = 0.06714 -0.03146
# Poissons Ratio (z) = 0.18898 -0.02438
#
# Static dielectric constant tensor:
#      x y z
#    x 1.750240 0.000000 0.025450 
#    y 0.000000 1.807860 0.000000 
#    z 0.025450 0.000000 1.783910 
# 
# From -- ./inp_files/252119.got.cif
#   From: 2010.05.17/outbox.cif.g08.bks.cpg/sg15_127_cif.got.tgz:252119.got - 2010.06.03 18:47:42.
