data_PCOD9264236
_publ_section_title
;
Structure prediction by ZEFSAII (Michael W. Deem and Ramdas Pophale) SiO2 
 PCOD9264236
Probable space group: C 2/C
;
_chemical_formula_sum "Si O2"
_cell_formula_units_Z 40
_cell_length_a 9.329854
_cell_length_b 17.408507
_cell_length_c 21.233615
_cell_angle_alpha 90.000000
_cell_angle_beta 146.875676
_cell_angle_gamma 90.000000
_cell_volume 1884.589403
_symmetry_space_group_name_H-M "C 2/C"
_symmetry_group_IT_number 15
_symmetry_cell_setting 'monoclinic'
loop_
_space_group_symop_operation_xyz
x,y,z
-x,y,1/2-z
-x,-y,-z
x,-y,1/2+z
1/2+x,1/2+y,z
1/2-x,1/2+y,1/2-z
1/2-x,1/2-y,-z
1/2+x,1/2-y,1/2+z
loop_
_atom_site_type_symbol
_atom_site_label
_atom_site_fract_x
_atom_site_fract_y
_atom_site_fract_z
Si Si1 0.249079 0.508852 0.981238
Si Si2 0.601302 0.136578 0.716045
Si Si3 0.725629 0.607834 0.113033
Si Si4 0.353331 0.580664 0.630855
Si Si5 0.181679 0.725463 0.627478
O O1 0.227823 0.427379 0.938115
O O2 0.050234 0.565970 0.873150
O O3 0.530482 0.547930 0.073780
O O4 0.231526 0.488958 0.047639
O O5 0.500000 0.146693 0.750000
O O6 0.569765 0.207964 0.655810
O O7 0.908999 0.115267 0.824416
O O8 0.602856 0.692959 0.070220
O O9 0.000000 0.608692 0.250000
O O10 0.500000 0.557982 0.750000
O O11 0.151357 0.649084 0.574130
O O12 0.500000 0.728817 0.750000
#
# Coordination Sequence:
#
# PCOD9264236 Si02
#       5
#     8   8   8   8   8
#     4  11  20  31  58  84 106 142 181 225 272 314
#     4  10  19  35  57  82 112 143 179 224 269 319
#     4  10  20  36  54  80 111 142 181 220 265 332
#     4   9  20  37  54  78 111 146 181 221 270 322
#     4   8  19  37  55  74 110 148 178 218 268 319
#
# _framework density 21.224782000000001
#
# number of rings (size 3 to 8) (size 9 to 14) (size 15 to 20)
#    0.000    2.800    0.000    4.200    0.000    4.800 
#    0.000    3.000    0.000    2.400    0.000    0.000 
#    0.000    0.000    0.000    0.000    0.000    0.000 
#
# Total GULP energy -111522.388763 kJ/mol
# GULP energy per Si atom -5576.119438 kJ/mol
# Density = 2.117647 g / cm^3
# Si number density = 21.224782 Si / 1000 Ang^3
#
#
#
# Elastic Constant Matrix: (Units=GPa)
#
#
# Indices 1 2 3 4 5 6 
#
# 1 133.0685 29.8186 27.0472 -0.0003 -11.2165 0.0002
# 2 29.8186 102.4631 38.6146 -0.0011 -28.1141 0.0003
# 3 27.0472 38.6146 62.6811 -0.0031 -12.5499 0.0015
# 4 -0.0003 -0.0011 -0.0031 28.1362 -0.0003 -19.7318
# 5 -11.2165 -28.1141 -12.5499 -0.0003 25.7838 0.0006
# 6 0.0002 0.0003 0.0015 -19.7318 0.0006 30.8056
#
#
#
# Elastic Compliance Matrix: (Units=1/GPa)
#
#
# Indices 1 2 3 4 5 6 
#
# 1 0.008412 -0.001117 -0.002718 0.000000 0.001119 0.000000
# 2 -0.001117 0.016590 -0.006885 0.000000 0.014252 0.000000
# 3 -0.002718 -0.006885 0.021747 0.000003 0.001896 0.000001
# 4 0.000000 0.000000 0.000003 0.064526 0.000001 0.041331
# 5 0.001119 0.014252 0.001896 0.000001 0.055734 -0.000001
# 6 0.000000 0.000000 0.000001 0.041331 -0.000001 0.058935
#
#
# Mechanical properties :
#
#
# Convention : Reuss Voigt Hill
#
# Bulk Modulus (GPa) = 39.50904 54.35260 46.93082
# Shear Modulus (GPa) = 19.54502 30.46062 25.00282
#
# Velocity S-wave (km/s) = 3.03786 3.79244 3.43593
# Velocity P-wave (km/s) = 5.56415 6.69630 6.15631
#
# Compressibility (1/GPa) = 0.02531066
#
# Stress axis : x y z
#
# Youngs Moduli (GPa) = 118.87925 60.27825 45.98249
#
# Poissons Ratio (x) = 0.06732 0.12497
# Poissons Ratio (y) = 0.13277 0.31657
# Poissons Ratio (z) = 0.32309 0.41499
#
# Static dielectric constant tensor:
#      x y z
#    x 1.815630 0.000000 0.011590 
#    y 0.000000 1.824600 0.000000 
#    z 0.011590 0.000000 1.780010 
# 
# From -- ./inp_files/232940.got.cif
#   From: 2010.05.17/outbox.cif.g08.bks.cpg/sg15_117_cif.got.tgz:232940.got - 2010.06.03 18:47:42.
