data_PCOD9264141
_publ_section_title
;
Structure prediction by ZEFSAII (Michael W. Deem and Ramdas Pophale) SiO2 
 PCOD9264141
Probable space group: C 2/C
;
_chemical_formula_sum "Si O2"
_cell_formula_units_Z 64
_cell_length_a 17.185655
_cell_length_b 22.302320
_cell_length_c 13.749536
_cell_angle_alpha 90.000000
_cell_angle_beta 34.334274
_cell_angle_gamma 90.000000
_cell_volume 2972.341926
_symmetry_space_group_name_H-M "C 2/C"
_symmetry_group_IT_number 15
_symmetry_cell_setting 'monoclinic'
loop_
_space_group_symop_operation_xyz
x,y,z
-x,y,1/2-z
-x,-y,-z
x,-y,1/2+z
1/2+x,1/2+y,z
1/2-x,1/2+y,1/2-z
1/2-x,1/2-y,-z
1/2+x,1/2-y,1/2+z
loop_
_atom_site_type_symbol
_atom_site_label
_atom_site_fract_x
_atom_site_fract_y
_atom_site_fract_z
Si Si1 0.863211 0.294962 0.917802
Si Si2 0.053654 0.505193 0.334262
Si Si3 0.760926 0.896088 0.557974
Si Si4 0.254036 0.037241 0.612954
Si Si5 0.750597 0.409203 0.337262
Si Si6 0.034338 0.947838 0.884287
Si Si7 0.923512 0.824733 0.546803
Si Si8 0.239204 0.210150 0.749094
O O1 0.859520 0.351075 0.850307
O O2 0.000000 0.261018 0.750000
O O3 0.750000 0.250000 0.000000
O O4 0.829547 0.311318 0.062604
O O5 0.182047 0.551523 0.197212
O O6 0.121373 0.440763 0.242842
O O7 0.000000 0.500000 0.500000
O O8 0.914756 0.525601 0.423336
O O9 0.812682 0.922243 0.402249
O O10 0.871994 0.857365 0.501376
O O11 0.246247 0.067647 0.727791
O O12 0.169641 0.975698 0.697628
O O13 0.607291 0.435322 0.527267
O O14 0.757478 0.337737 0.317257
O O15 0.066580 0.882600 0.894228
O O16 0.000000 0.000000 0.000000
O O17 0.806289 0.775787 0.696277
O O18 0.075770 0.793838 0.390279
#
# Coordination Sequence:
#
# PCOD9264141 Si02
#       8
#     8   8   8   8   8   8   8   8
#     4  12  24  37  50  73 119 156 191 231 281 345
#     4  10  21  36  56  80 107 149 202 247 291 343
#     4  12  23  35  58  83 118 156 196 238 300 351
#     4  10  19  35  56  78 110 149 194 243 295 342
#     4   9  19  37  54  75 110 149 191 247 291 343
#     4   9  19  39  55  80 111 155 198 251 293 343
#     4  11  24  38  60  84 119 160 210 236 294 357
#     4  11  23  39  54  82 116 160 199 239 287 357
#
# _framework density 21.531844
#
# number of rings (size 3 to 8) (size 9 to 14) (size 15 to 20)
#    0.000    1.500    2.500    4.125    1.750    1.000 
#    2.250    0.000    0.000    0.000    0.000    0.875 
#    0.000    6.000    0.000    0.250    0.000    0.000 
#
# Total GULP energy -178426.362551 kJ/mol
# GULP energy per Si atom -5575.823830 kJ/mol
# Density = 2.148284 g / cm^3
# Si number density = 21.531844 Si / 1000 Ang^3
#
#
#
# Elastic Constant Matrix: (Units=GPa)
#
#
# Indices 1 2 3 4 5 6 
#
# 1 36.8796 32.7174 15.5501 -0.0015 -24.6871 0.0013
# 2 32.7174 130.3446 38.5375 -0.0012 -22.9409 0.0009
# 3 15.5501 38.5375 91.8525 0.0011 -31.0267 0.0000
# 4 -0.0015 -0.0012 0.0011 41.4713 0.0003 -3.2440
# 5 -24.6871 -22.9409 -31.0267 0.0003 33.0221 -0.0008
# 6 0.0013 0.0009 0.0000 -3.2440 -0.0008 35.2070
#
#
#
# Elastic Compliance Matrix: (Units=1/GPa)
#
#
# Indices 1 2 3 4 5 6 
#
# 1 0.068220 -0.010958 0.011286 0.000001 0.053992 -0.000001
# 2 -0.010958 0.010867 -0.004279 0.000000 -0.004663 0.000000
# 3 0.011286 -0.004279 0.018484 0.000000 0.022832 0.000000
# 4 0.000001 0.000000 0.000000 0.024288 0.000001 0.002238
# 5 0.053992 -0.004663 0.022832 0.000001 0.088859 0.000000
# 6 -0.000001 0.000000 0.000000 0.002238 0.000000 0.028610
#
#
# Mechanical properties :
#
#
# Convention : Reuss Voigt Hill
#
# Bulk Modulus (GPa) = 11.15217 48.07630 29.61424
# Shear Modulus (GPa) = 18.04277 33.42487 25.73382
#
# Velocity S-wave (km/s) = 2.89789 3.94426 3.46085
# Velocity P-wave (km/s) = 4.04817 6.56653 5.45468
#
# Compressibility (1/GPa) = 0.08966866
#
# Stress axis : x y z
#
# Youngs Moduli (GPa) = 14.65849 92.02221 54.10063
#
# Poissons Ratio (x) = 1.00836 -0.61059
# Poissons Ratio (y) = 0.16062 0.23152
# Poissons Ratio (z) = -0.16544 0.39381
#
# Static dielectric constant tensor:
#      x y z
#    x 1.854480 0.000000 -0.013790 
#    y 0.000000 1.817150 0.000000 
#    z -0.013790 0.000000 1.795780 
# 
# From -- ./inp_files/164214.got.cif
#   From: 2010.05.17/outbox.cif.g08.bks.cpg/sg15_83_cif.got.tgz:164214.got - 2010.06.03 18:47:42.
