data_PCOD9264818
_publ_section_title
;
Structure prediction by ZEFSAII (Michael W. Deem and Ramdas Pophale) SiO2 
 PCOD9264818
Probable space group: C 2/C
;
_chemical_formula_sum "Si O2"
_cell_formula_units_Z 48
_cell_length_a 13.577096
_cell_length_b 15.460719
_cell_length_c 19.443428
_cell_angle_alpha 90.000000
_cell_angle_beta 37.502245
_cell_angle_gamma 90.000000
_cell_volume 2484.727208
_symmetry_space_group_name_H-M "C 2/C"
_symmetry_group_IT_number 15
_symmetry_cell_setting 'monoclinic'
loop_
_space_group_symop_operation_xyz
x,y,z
-x,y,1/2-z
-x,-y,-z
x,-y,1/2+z
1/2+x,1/2+y,z
1/2-x,1/2+y,1/2-z
1/2-x,1/2-y,-z
1/2+x,1/2-y,1/2+z
loop_
_atom_site_type_symbol
_atom_site_label
_atom_site_fract_x
_atom_site_fract_y
_atom_site_fract_z
Si Si1 0.153595 0.374213 0.590464
Si Si2 0.782207 0.863975 0.129665
Si Si3 0.000000 0.783459 0.250000
Si Si4 0.007807 0.902539 0.874313
Si Si5 0.326128 0.050610 0.268781
Si Si6 0.500000 0.273695 0.750000
Si Si7 0.508616 0.607762 0.858913
O O1 0.185166 0.421994 0.645371
O O2 0.317633 0.375148 0.458793
O O3 0.095273 0.280866 0.647275
O O4 0.000168 0.422813 0.643258
O O5 0.652861 0.788963 0.184053
O O6 0.922684 0.850266 0.108974
O O7 0.696349 0.947494 0.212763
O O8 0.875033 0.889338 0.007916
O O9 0.097713 0.846004 0.246552
O O10 0.187142 0.895170 0.807596
O O11 0.976160 0.837099 0.829117
O O12 0.015031 0.004232 0.851540
#
# Coordination Sequence:
#
# PCOD9264818 Si02
#       7
#     8   8   4   8   8   4   8
#     4  10  19  35  64  88 115 149 200 248 283 359
#     4  11  22  39  64  85 113 165 209 242 284 373
#     4  10  23  33  56 100 120 146 190 259 305 336
#     4  11  22  42  59  88 120 167 195 246 302 369
#     4   9  18  37  64  89 111 151 208 239 284 361
#     4  12  27  37  62  90 130 148 204 265 305 330
#     4  11  21  40  65  86 124 160 198 241 310 359
#
# _framework density 19.318014999999999
#
# number of rings (size 3 to 8) (size 9 to 14) (size 15 to 20)
#    0.000    1.667    3.333    3.500    4.667    0.000 
#    0.000    0.000    0.000    3.000    0.000    0.000 
#    0.000    0.000    0.000    0.000    0.000    0.000 
#
# Total GULP energy -133610.541866 kJ/mol
# GULP energy per Si atom -5567.105911 kJ/mol
# Density = 1.927405 g / cm^3
# Si number density = 19.318015 Si / 1000 Ang^3
#
#
#
# Elastic Constant Matrix: (Units=GPa)
#
#
# Indices 1 2 3 4 5 6 
#
# 1 83.3728 53.6523 48.8269 -0.0002 -7.5180 0.0000
# 2 53.6523 92.3260 38.6823 -0.0002 -0.1386 0.0001
# 3 48.8269 38.6823 63.1907 -0.0007 -16.5779 0.0003
# 4 -0.0002 -0.0002 -0.0007 146.2035 0.0004 22.0750
# 5 -7.5180 -0.1386 -16.5779 0.0004 32.3345 -0.0001
# 6 0.0000 0.0001 0.0003 22.0750 -0.0001 23.6426
#
#
#
# Elastic Compliance Matrix: (Units=1/GPa)
#
#
# Indices 1 2 3 4 5 6 
#
# 1 0.026815 -0.009013 -0.015686 0.000000 -0.001846 0.000000
# 2 -0.009013 0.018398 -0.005578 0.000000 -0.004876 0.000000
# 3 -0.015686 -0.005578 0.035121 0.000000 0.014335 0.000000
# 4 0.000000 0.000000 0.000000 0.007962 0.000000 -0.007434
# 5 -0.001846 -0.004876 0.014335 0.000000 0.037826 0.000000
# 6 0.000000 0.000000 0.000000 -0.007434 0.000000 0.049238
#
#
# Mechanical properties :
#
#
# Convention : Reuss Voigt Hill
#
# Bulk Modulus (GPa) = 50.55648 57.91250 54.23449
# Shear Modulus (GPa) = 20.61788 46.95132 33.78460
#
# Velocity S-wave (km/s) = 3.27048 4.93530 4.18648
# Velocity P-wave (km/s) = 6.36308 7.90695 7.17665
#
# Compressibility (1/GPa) = 0.01977986
#
# Stress axis : x y z
#
# Youngs Moduli (GPa) = 37.29316 54.35265 28.47292
#
# Poissons Ratio (x) = 0.48988 0.44664
# Poissons Ratio (y) = 0.33612 0.15881
# Poissons Ratio (z) = 0.58500 0.30316
#
# Static dielectric constant tensor:
#      x y z
#    x 1.739480 0.000000 -0.018930 
#    y 0.000000 1.729230 0.000000 
#    z -0.018930 0.000000 1.682460 
# 
# From -- ./inp_files/244343.got.cif
#   From: 2010.05.17/outbox.cif.g08.bks.cpg/sg15_123_cif.got.tgz:244343.got - 2010.06.03 18:47:42.
