data_PCOD9264903
_publ_section_title
;
Structure prediction by ZEFSAII (Michael W. Deem and Ramdas Pophale) SiO2 
 PCOD9264903
Probable space group: C 2/C
;
_chemical_formula_sum "Si O2"
_cell_formula_units_Z 60
_cell_length_a 29.724804
_cell_length_b 9.349536
_cell_length_c 24.005500
_cell_angle_alpha 90.000000
_cell_angle_beta 25.508939
_cell_angle_gamma 90.000000
_cell_volume 2873.069886
_symmetry_space_group_name_H-M "C 2/C"
_symmetry_group_IT_number 15
_symmetry_cell_setting 'monoclinic'
loop_
_space_group_symop_operation_xyz
x,y,z
-x,y,1/2-z
-x,-y,-z
x,-y,1/2+z
1/2+x,1/2+y,z
1/2-x,1/2+y,1/2-z
1/2-x,1/2-y,-z
1/2+x,1/2-y,1/2+z
loop_
_atom_site_type_symbol
_atom_site_label
_atom_site_fract_x
_atom_site_fract_y
_atom_site_fract_z
Si Si1 0.395019 0.384459 0.434105
Si Si2 0.700422 0.649767 0.222348
Si Si3 0.500000 0.863513 0.750000
Si Si4 0.894449 0.469709 0.561865
Si Si5 0.905647 0.073823 0.736956
Si Si6 0.822715 0.626503 0.368067
Si Si7 0.128278 0.543255 0.794301
Si Si8 0.591294 0.312057 0.961923
O O1 0.447030 0.235522 0.356569
O O2 0.501335 0.475490 0.324451
O O3 0.300164 0.413403 0.498298
O O4 0.350893 0.367729 0.546301
O O5 0.816085 0.597747 0.106437
O O6 0.656062 0.555345 0.221616
O O7 0.699284 0.817686 0.210732
O O8 0.634228 0.633832 0.354612
O O9 0.602669 0.926935 0.665278
O O10 0.852065 0.454751 0.671765
O O11 0.901405 0.640575 0.546088
O O12 0.008678 0.402444 0.432987
O O13 0.837835 0.201837 0.840663
O O14 0.973403 0.141758 0.609803
O O15 0.868658 0.552281 0.262685
#
# Coordination Sequence:
#
# PCOD9264903 Si02
#       8
#     8   8   4   8   8   8   8   8
#     4   9  19  32  55  83 109 134 179 241 283 318
#     4  11  21  33  56  85 116 156 186 219 270 329
#     4  10  20  34  56  84 102 138 190 246 288 336
#     4  10  19  36  52  75 116 158 182 220 272 322
#     4   9  20  33  54  82 112 145 185 223 270 329
#     4  11  19  37  57  78 110 143 189 234 287 333
#     4  10  22  36  52  79 114 148 190 228 266 336
#     4   9  18  36  51  82 114 150 182 223 269 328
#
# _framework density 20.883586000000001
#
# number of rings (size 3 to 8) (size 9 to 14) (size 15 to 20)
#    0.800    1.333    1.333    2.400    0.000    2.133 
#    2.400    0.000    0.000    3.200    0.000   11.200 
#    0.000    0.000    0.000    0.000    0.000    0.000 
#
# Total GULP energy -167039.577948 kJ/mol
# GULP energy per Si atom -5567.985932 kJ/mol
# Density = 2.083605 g / cm^3
# Si number density = 20.883586 Si / 1000 Ang^3
#
#
#
# Elastic Constant Matrix: (Units=GPa)
#
#
# Indices 1 2 3 4 5 6 
#
# 1 133.3047 22.3867 19.4486 -0.0027 -35.9535 -0.0012
# 2 22.3867 29.8993 3.9731 -0.0103 -8.4774 0.0002
# 3 19.4486 3.9731 42.6371 -0.0088 -27.1400 -0.0040
# 4 -0.0027 -0.0103 -0.0088 11.4841 0.0013 -2.7909
# 5 -35.9535 -8.4774 -27.1400 0.0013 49.9465 0.0007
# 6 -0.0012 0.0002 -0.0040 -2.7909 0.0007 13.8702
#
#
#
# Elastic Compliance Matrix: (Units=1/GPa)
#
#
# Indices 1 2 3 4 5 6 
#
# 1 0.010193 -0.005835 -0.000100 -0.000004 0.006293 0.000000
# 2 -0.005835 0.038494 0.000856 0.000035 0.002799 0.000006
# 3 -0.000100 0.000856 0.035875 0.000030 0.019567 0.000015
# 4 -0.000004 0.000035 0.000030 0.091554 0.000017 0.018422
# 5 0.006293 0.002799 0.019567 0.000017 0.035658 0.000008
# 6 0.000000 0.000006 0.000015 0.018422 0.000008 0.075804
#
#
# Mechanical properties :
#
#
# Convention : Reuss Voigt Hill
#
# Bulk Modulus (GPa) = 13.44023 33.05089 23.24556
# Shear Modulus (GPa) = 15.50205 25.72899 20.61552
#
# Velocity S-wave (km/s) = 2.72749 3.51382 3.14533
# Velocity P-wave (km/s) = 4.04582 5.68535 4.93416
#
# Compressibility (1/GPa) = 0.07440347
#
# Stress axis : x y z
#
# Youngs Moduli (GPa) = 98.10384 25.97814 27.87489
#
# Poissons Ratio (x) = 0.15157 0.00280
# Poissons Ratio (y) = 0.57239 -0.02386
# Poissons Ratio (z) = 0.00985 -0.02223
#
# Static dielectric constant tensor:
#      x y z
#    x 1.808730 0.000000 -0.012120 
#    y 0.000000 1.695440 0.000000 
#    z -0.012120 0.000000 1.826370 
# 
# From -- ./inp_files/304193.got.cif
#   From: 2010.05.17/outbox.cif.g08.bks.cpg/sg15_153_cif.got.tgz:304193.got - 2010.06.03 18:47:42.
