data_PCOD9264826
_publ_section_title
;
Structure prediction by ZEFSAII (Michael W. Deem and Ramdas Pophale) SiO2 
 PCOD9264826
Probable space group: C 2/C
;
_chemical_formula_sum "Si O2"
_cell_formula_units_Z 56
_cell_length_a 33.055865
_cell_length_b 16.252948
_cell_length_c 16.248262
_cell_angle_alpha 90.000000
_cell_angle_beta 160.384570
_cell_angle_gamma 90.000000
_cell_volume 2930.527010
_symmetry_space_group_name_H-M "C 2/C"
_symmetry_group_IT_number 15
_symmetry_cell_setting 'monoclinic'
loop_
_space_group_symop_operation_xyz
x,y,z
-x,y,1/2-z
-x,-y,-z
x,-y,1/2+z
1/2+x,1/2+y,z
1/2-x,1/2+y,1/2-z
1/2-x,1/2-y,-z
1/2+x,1/2-y,1/2+z
loop_
_atom_site_type_symbol
_atom_site_label
_atom_site_fract_x
_atom_site_fract_y
_atom_site_fract_z
Si Si1 0.632328 0.493820 0.356941
Si Si2 0.748789 0.104291 0.630906
Si Si3 0.863116 0.141763 0.015329
Si Si4 0.357838 0.439722 0.808102
Si Si5 0.015003 0.704975 0.179810
Si Si6 0.669747 0.672507 0.872974
Si Si7 0.723198 0.745231 0.352287
O O1 0.663113 0.556736 0.487449
O O2 0.642985 0.544218 0.291949
O O3 0.710441 0.409785 0.499556
O O4 0.493509 0.462203 0.097065
O O5 0.613432 0.133302 0.351033
O O6 0.847516 0.132462 0.750865
O O7 0.768188 0.007237 0.674443
O O8 0.782200 0.147639 0.779403
O O9 0.000000 0.138588 0.250000
O O10 0.837750 0.219242 0.024400
O O11 0.314838 0.347596 0.742931
O O12 0.071206 0.784861 0.241758
O O13 0.113556 0.696372 0.611066
O O14 0.000000 0.714451 0.250000
O O15 0.750000 0.750000 0.000000
O O16 0.750000 0.750000 0.500000
#
# Coordination Sequence:
#
# PCOD9264826 Si02
#       7
#     8   8   8   8   8   8   8
#     4  10  19  35  64  91 121 167 215 276 314 379
#     4  10  22  41  61  93 132 174 210 276 323 392
#     4  12  24  39  64  98 136 166 218 277 337 377
#     4  10  20  39  63  89 123 165 222 262 321 385
#     4  11  22  40  64  93 129 172 220 263 330 392
#     4   9  20  37  64  93 130 166 214 268 327 383
#     4  12  25  42  68  96 132 173 221 274 330 396
#
# _framework density 19.109190999999999
#
# number of rings (size 3 to 8) (size 9 to 14) (size 15 to 20)
#    0.000    1.429    5.714    0.000    2.000    1.714 
#    0.000    1.429    0.000    0.000    0.000    0.000 
#    0.000    0.000    0.000    0.000    0.000    0.000 
#
# Total GULP energy -155917.370270 kJ/mol
# GULP energy per Si atom -5568.477510 kJ/mol
# Density = 1.906570 g / cm^3
# Si number density = 19.109191 Si / 1000 Ang^3
#
#
#
# Elastic Constant Matrix: (Units=GPa)
#
#
# Indices 1 2 3 4 5 6 
#
# 1 101.5899 28.8551 13.5335 0.0000 0.4173 0.0000
# 2 28.8551 116.4741 12.0980 0.0000 15.9690 0.0000
# 3 13.5335 12.0980 50.3790 0.0000 -6.5872 0.0000
# 4 0.0000 0.0000 0.0000 25.4246 0.0000 7.0453
# 5 0.4173 15.9690 -6.5872 0.0000 22.2331 0.0000
# 6 0.0000 0.0000 0.0000 7.0453 0.0000 34.5832
#
#
#
# Elastic Compliance Matrix: (Units=1/GPa)
#
#
# Indices 1 2 3 4 5 6 
#
# 1 0.010868 -0.002610 -0.002158 0.000000 0.001031 0.000000
# 2 -0.002610 0.010712 -0.002987 0.000000 -0.008530 0.000000
# 3 -0.002158 -0.002987 0.022296 0.000000 0.008791 0.000000
# 4 0.000000 0.000000 0.000000 0.041685 0.000000 -0.008492
# 5 0.001031 -0.008530 0.008791 0.000000 0.053690 0.000000
# 6 0.000000 0.000000 0.000000 -0.008492 0.000000 0.030646
#
#
# Mechanical properties :
#
#
# Convention : Reuss Voigt Hill
#
# Bulk Modulus (GPa) = 35.25189 41.93515 38.59352
# Shear Modulus (GPa) = 25.65937 30.71193 28.18565
#
# Velocity S-wave (km/s) = 3.66837 4.01332 3.84471
# Velocity P-wave (km/s) = 6.03574 6.59305 6.32054
#
# Compressibility (1/GPa) = 0.02836727
#
# Stress axis : x y z
#
# Youngs Moduli (GPa) = 92.01352 93.35550 44.85120
#
# Poissons Ratio (x) = 0.24362 0.09679
# Poissons Ratio (y) = 0.24012 0.13395
# Poissons Ratio (z) = 0.19857 0.27881
#
# Static dielectric constant tensor:
#      x y z
#    x 1.707680 0.000000 0.029250 
#    y 0.000000 1.708400 0.000000 
#    z 0.029250 0.000000 1.718640 
# 
# From -- ./inp_files/182155.got.cif
#   From: 2010.05.17/outbox.cif.g08.bks.cpg/sg15_92_cif.got.tgz:182155.got - 2010.06.03 18:47:42.
