data_PCOD9264048
_publ_section_title
;
Structure prediction by ZEFSAII (Michael W. Deem and Ramdas Pophale) SiO2 
 PCOD9264048
Probable space group: C 2/C
;
_chemical_formula_sum "Si O2"
_cell_formula_units_Z 40
_cell_length_a 23.439093
_cell_length_b 4.917223
_cell_length_c 20.183179
_cell_angle_alpha 90.000000
_cell_angle_beta 121.237231
_cell_angle_gamma 90.000000
_cell_volume 1988.979665
_symmetry_space_group_name_H-M "C 2/C"
_symmetry_group_IT_number 15
_symmetry_cell_setting 'monoclinic'
loop_
_space_group_symop_operation_xyz
x,y,z
-x,y,1/2-z
-x,-y,-z
x,-y,1/2+z
1/2+x,1/2+y,z
1/2-x,1/2+y,1/2-z
1/2-x,1/2-y,-z
1/2+x,1/2-y,1/2+z
loop_
_atom_site_type_symbol
_atom_site_label
_atom_site_fract_x
_atom_site_fract_y
_atom_site_fract_z
Si Si1 0.663319 0.527059 0.448854
Si Si2 0.703324 0.986528 0.893674
Si Si3 0.207977 0.424824 0.743628
Si Si4 0.914172 0.233272 0.917295
Si Si5 0.067071 0.276054 0.985319
O O1 0.692090 0.320157 0.411101
O O2 0.720901 0.559448 0.539325
O O3 0.601501 0.372743 0.444647
O O4 0.656102 0.813044 0.407596
O O5 0.693529 0.011699 0.809981
O O6 0.237375 0.684621 0.723263
O O7 0.144077 0.304447 0.667939
O O8 0.906981 0.427977 0.977671
O O9 0.916483 0.923468 0.942978
O O10 0.987279 0.293939 0.931394
#
# Coordination Sequence:
#
# PCOD9264048 Si02
#       5
#     8   8   8   8   8
#     4  10  19  35  54  78 111 145 184 225 270 329
#     4  10  21  33  53  82 110 143 185 225 273 337
#     4  12  23  37  58  84 117 149 185 242 298 339
#     4  10  21  36  58  86 111 143 194 235 282 345
#     4  10  20  37  60  82 110 150 190 237 281 333
#
# _framework density 20.110814999999999
#
# number of rings (size 3 to 8) (size 9 to 14) (size 15 to 20)
#    0.000    1.600    0.000    6.000    0.000    3.200 
#    0.000    1.000    0.000    2.400    0.000    0.000 
#    0.000    0.000    0.000    0.000    0.000    0.000 
#
# Total GULP energy -111776.803012 kJ/mol
# GULP energy per Si atom -5588.840151 kJ/mol
# Density = 2.006504 g / cm^3
# Si number density = 20.110815 Si / 1000 Ang^3
#
#
#
# Elastic Constant Matrix: (Units=GPa)
#
#
# Indices 1 2 3 4 5 6 
#
# 1 79.9840 7.9332 37.3496 0.0010 -0.2512 -0.0020
# 2 7.9332 86.7761 6.3780 0.0014 6.9981 0.0023
# 3 37.3496 6.3780 82.8452 0.0007 2.7768 -0.0011
# 4 0.0010 0.0014 0.0007 20.4145 -0.0005 -6.3589
# 5 -0.2512 6.9981 2.7768 -0.0005 18.6212 0.0004
# 6 -0.0020 0.0023 -0.0011 -6.3589 0.0004 37.2610
#
#
#
# Elastic Compliance Matrix: (Units=1/GPa)
#
#
# Indices 1 2 3 4 5 6 
#
# 1 0.015962 -0.001068 -0.007171 0.000000 0.001686 0.000001
# 2 -0.001068 0.012005 -0.000292 -0.000001 -0.004482 -0.000001
# 3 -0.007171 -0.000292 0.015403 0.000000 -0.002284 0.000000
# 4 0.000000 -0.000001 0.000000 0.051735 0.000002 0.008829
# 5 0.001686 -0.004482 -0.002284 0.000002 0.055750 0.000000
# 6 0.000001 -0.000001 0.000000 0.008829 0.000000 0.028344
#
#
# Mechanical properties :
#
#
# Convention : Reuss Voigt Hill
#
# Bulk Modulus (GPa) = 38.01289 39.21409 38.61349
# Shear Modulus (GPa) = 24.38669 28.45565 26.42117
#
# Velocity S-wave (km/s) = 3.48604 3.76565 3.62854
# Velocity P-wave (km/s) = 5.92841 6.20066 6.06606
#
# Compressibility (1/GPa) = 0.02630686
#
# Stress axis : x y z
#
# Youngs Moduli (GPa) = 62.64822 83.30187 64.92450
#
# Poissons Ratio (x) = 0.08898 0.46555
# Poissons Ratio (y) = 0.06692 0.01898
# Poissons Ratio (z) = 0.44922 0.02435
#
# Static dielectric constant tensor:
#      x y z
#    x 1.739630 0.000000 -0.012260 
#    y 0.000000 1.708630 0.000000 
#    z -0.012260 0.000000 1.664070 
# 
# From -- ./inp_files/217626.got.cif
#   From: 2010.05.17/outbox.cif.g08.bks.cpg/sg15_109_cif.got.tgz:217626.got - 2010.06.03 18:47:42.
