data_PCOD9264843
_publ_section_title
;
Structure prediction by ZEFSAII (Michael W. Deem and Ramdas Pophale) SiO2 
 PCOD9264843
Probable space group: C 2/C
;
_chemical_formula_sum "Si O2"
_cell_formula_units_Z 60
_cell_length_a 15.370979
_cell_length_b 14.275269
_cell_length_c 28.716021
_cell_angle_alpha 90.000000
_cell_angle_beta 151.245831
_cell_angle_gamma 90.000000
_cell_volume 3031.116461
_symmetry_space_group_name_H-M "C 2/C"
_symmetry_group_IT_number 15
_symmetry_cell_setting 'monoclinic'
loop_
_space_group_symop_operation_xyz
x,y,z
-x,y,1/2-z
-x,-y,-z
x,-y,1/2+z
1/2+x,1/2+y,z
1/2-x,1/2+y,1/2-z
1/2-x,1/2-y,-z
1/2+x,1/2-y,1/2+z
loop_
_atom_site_type_symbol
_atom_site_label
_atom_site_fract_x
_atom_site_fract_y
_atom_site_fract_z
Si Si1 0.107996 0.601185 0.936665
Si Si2 0.900526 0.614003 0.750992
Si Si3 0.610879 0.762354 0.976766
Si Si4 0.000000 0.049918 0.250000
Si Si5 0.161654 0.540574 0.543816
Si Si6 0.517605 0.395012 0.025666
Si Si7 0.023386 0.804417 0.927589
Si Si8 0.688725 0.683535 0.262245
O O1 0.023957 0.691201 0.923999
O O2 0.983984 0.567152 0.835620
O O3 0.141960 0.515360 0.986313
O O4 0.293628 0.646123 0.004909
O O5 0.693696 0.601163 0.641091
O O6 0.921960 0.723589 0.773952
O O7 0.000000 0.589995 0.750000
O O8 0.620058 0.662583 0.007317
O O9 0.401365 0.789570 0.864775
O O10 0.750000 0.750000 0.000000
O O11 0.657677 0.849168 0.032324
O O12 0.884501 0.109163 0.234247
O O13 0.851871 0.988879 0.154456
O O14 0.000000 0.500000 0.500000
O O15 0.500000 0.500000 0.000000
O O16 0.522281 0.333916 0.980692
O O17 0.871185 0.837767 0.818991
#
# Coordination Sequence:
#
# PCOD9264843 Si02
#       8
#     8   8   8   4   8   8   8   8
#     4  10  21  35  66 102 134 168 221 291 350 411
#     4  10  19  35  64  99 130 164 220 289 347 388
#     4  11  27  48  67  97 148 191 227 288 370 434
#     4  12  22  40  72 104 134 184 246 298 352 420
#     4  12  25  44  70 102 144 186 237 291 361 438
#     4  11  25  43  67  92 136 182 234 282 345 426
#     4  10  20  37  64 102 130 165 229 294 339 399
#     4  10  21  39  68 100 134 179 231 294 347 417
#
# _framework density 19.794685999999999
#
# number of rings (size 3 to 8) (size 9 to 14) (size 15 to 20)
#    0.000    1.333    4.667    0.800    3.733    1.067 
#    9.600    0.000    0.000    0.000    0.000    0.000 
#    0.000    0.000    0.000    0.000    0.000    0.000 
#
# Total GULP energy -167243.215626 kJ/mol
# GULP energy per Si atom -5574.773854 kJ/mol
# Density = 1.974963 g / cm^3
# Si number density = 19.794686 Si / 1000 Ang^3
#
#
#
# Elastic Constant Matrix: (Units=GPa)
#
#
# Indices 1 2 3 4 5 6 
#
# 1 98.2956 33.7852 37.9026 0.0000 3.7476 0.0000
# 2 33.7852 88.6086 33.3104 0.0000 -3.7456 0.0000
# 3 37.9026 33.3104 138.0496 -0.0001 -26.8113 0.0000
# 4 0.0000 0.0000 -0.0001 24.9349 0.0000 -0.2202
# 5 3.7476 -3.7456 -26.8113 0.0000 30.4351 0.0000
# 6 0.0000 0.0000 0.0000 -0.2202 0.0000 17.2736
#
#
#
# Elastic Compliance Matrix: (Units=1/GPa)
#
#
# Indices 1 2 3 4 5 6 
#
# 1 0.013131 -0.003834 -0.003723 0.000000 -0.005368 0.000000
# 2 -0.003834 0.013576 -0.002180 0.000000 0.000223 0.000000
# 3 -0.003723 -0.002180 0.010651 0.000000 0.009573 0.000000
# 4 0.000000 0.000000 0.000000 0.040109 0.000000 0.000511
# 5 -0.005368 0.000223 0.009573 0.000000 0.041978 0.000000
# 6 0.000000 0.000000 0.000000 0.000511 0.000000 0.057898
#
#
# Mechanical properties :
#
#
# Convention : Reuss Voigt Hill
#
# Bulk Modulus (GPa) = 55.91261 59.43891 57.67576
# Shear Modulus (GPa) = 24.65721 29.19243 26.92482
#
# Velocity S-wave (km/s) = 3.53320 3.84443 3.69210
# Velocity P-wave (km/s) = 6.70465 7.05685 6.88300
#
# Compressibility (1/GPa) = 0.01788505
#
# Stress axis : x y z
#
# Youngs Moduli (GPa) = 76.15313 73.65700 93.88678
#
# Poissons Ratio (x) = 0.28242 0.34952
# Poissons Ratio (y) = 0.29199 0.20467
# Poissons Ratio (z) = 0.28350 0.16057
#
# Static dielectric constant tensor:
#      x y z
#    x 1.692720 0.000000 -0.001770 
#    y 0.000000 1.815400 0.000000 
#    z -0.001770 0.000000 1.710390 
# 
# From -- ./inp_files/154237.got.cif
#   From: 2010.05.17/outbox.cif.g08.bks.cpg/sg15_78_cif.got.tgz:154237.got - 2010.06.03 18:47:42.
