data_PCOD9264673
_publ_section_title
;
Structure prediction by ZEFSAII (Michael W. Deem and Ramdas Pophale) SiO2 
 PCOD9264673
Probable space group: C 2/C
;
_chemical_formula_sum "Si O2"
_cell_formula_units_Z 40
_cell_length_a 14.292531
_cell_length_b 10.121754
_cell_length_c 12.217501
_cell_angle_alpha 90.000000
_cell_angle_beta 93.437852
_cell_angle_gamma 90.000000
_cell_volume 1764.270029
_symmetry_space_group_name_H-M "C 2/C"
_symmetry_group_IT_number 15
_symmetry_cell_setting 'monoclinic'
loop_
_space_group_symop_operation_xyz
x,y,z
-x,y,1/2-z
-x,-y,-z
x,-y,1/2+z
1/2+x,1/2+y,z
1/2-x,1/2+y,1/2-z
1/2-x,1/2-y,-z
1/2+x,1/2-y,1/2+z
loop_
_atom_site_type_symbol
_atom_site_label
_atom_site_fract_x
_atom_site_fract_y
_atom_site_fract_z
Si Si1 0.398620 0.631697 0.716480
Si Si2 0.048795 0.359956 0.948995
Si Si3 0.247736 0.596711 0.536268
Si Si4 0.943646 0.639450 0.645883
Si Si5 0.232749 0.152162 0.600199
O O1 0.500000 0.565908 0.750000
O O2 0.423538 0.746754 0.632908
O O3 0.311677 0.562578 0.645897
O O4 0.349917 0.686170 0.822645
O O5 0.027718 0.486705 0.873063
O O6 0.135335 0.416836 0.029709
O O7 0.973414 0.304120 0.029623
O O8 0.250000 0.750000 0.500000
O O9 0.283299 0.495936 0.446226
O O10 0.834441 0.649877 0.664102
O O11 0.000000 0.698509 0.750000
O O12 0.250000 0.250000 0.500000
#
# Coordination Sequence:
#
# PCOD9264673 Si02
#       5
#     8   8   8   8   8
#     4  11  22  38  60  85 124 168 201 242 301 365
#     4   9  19  36  61  89 120 156 201 256 309 355
#     4   9  21  40  61  85 118 157 199 243 297 356
#     4  10  19  35  61  91 119 156 206 256 303 356
#     4  11  24  39  60  92 125 158 201 251 303 361
#
# _framework density 22.672266
#
# number of rings (size 3 to 8) (size 9 to 14) (size 15 to 20)
#    0.000    2.000    0.000    3.000    0.000    8.800 
#    0.000    1.000    0.000    0.000    0.000    0.000 
#    0.000    0.000    0.000    0.000    0.000    0.000 
#
# Total GULP energy -111406.430621 kJ/mol
# GULP energy per Si atom -5570.321531 kJ/mol
# Density = 2.262066 g / cm^3
# Si number density = 22.672266 Si / 1000 Ang^3
#
#
#
# Elastic Constant Matrix: (Units=GPa)
#
#
# Indices 1 2 3 4 5 6 
#
# 1 131.1909 -4.4464 70.0703 0.0000 -5.3778 0.0000
# 2 -4.4464 42.9282 8.8816 0.0000 -0.7013 0.0000
# 3 70.0703 8.8816 106.6515 0.0000 6.7741 0.0000
# 4 0.0000 0.0000 0.0000 7.2049 0.0000 4.3185
# 5 -5.3778 -0.7013 6.7741 0.0000 52.9660 0.0000
# 6 0.0000 0.0000 0.0000 4.3185 0.0000 10.4664
#
#
#
# Elastic Compliance Matrix: (Units=1/GPa)
#
#
# Indices 1 2 3 4 5 6 
#
# 1 0.012393 0.003092 -0.008552 0.000000 0.002393 0.000000
# 2 0.003092 0.024492 -0.004145 0.000000 0.001168 0.000000
# 3 -0.008552 -0.004145 0.015525 0.000000 -0.002909 0.000000
# 4 0.000000 0.000000 0.000000 0.184399 0.000000 -0.076084
# 5 0.002393 0.001168 -0.002909 0.000000 0.019510 0.000000
# 6 0.000000 0.000000 0.000000 -0.076084 0.000000 0.126937
#
#
# Mechanical properties :
#
#
# Convention : Reuss Voigt Hill
#
# Bulk Modulus (GPa) = 30.12091 47.75349 38.93720
# Shear Modulus (GPa) = 12.09098 27.87846 19.98472
#
# Velocity S-wave (km/s) = 2.31182 3.51041 2.97216
# Velocity P-wave (km/s) = 4.52109 6.12690 5.38419
#
# Compressibility (1/GPa) = 0.03319953
#
# Stress axis : x y z
#
# Youngs Moduli (GPa) = 80.69164 40.83018 64.41341
#
# Poissons Ratio (x) = -0.12625 0.55084
# Poissons Ratio (y) = -0.24950 0.26701
# Poissons Ratio (z) = 0.69004 0.16925
#
# Static dielectric constant tensor:
#      x y z
#    x 1.893920 0.000000 -0.002740 
#    y 0.000000 1.781340 0.000000 
#    z -0.002740 0.000000 1.843230 
# 
# From -- ./inp_files/94591.got.cif
#   From: 2010.05.17/outbox.cif.g08.bks.cpg/sg15_48_cif.got.tgz:94591.got - 2010.06.03 18:47:42.
