data_PCOD9264516
_publ_section_title
;
Structure prediction by ZEFSAII (Michael W. Deem and Ramdas Pophale) SiO2 
 PCOD9264516
Probable space group: C 2/C
;
_chemical_formula_sum "Si O2"
_cell_formula_units_Z 56
_cell_length_a 9.103396
_cell_length_b 16.666986
_cell_length_c 20.991410
_cell_angle_alpha 90.000000
_cell_angle_beta 62.106774
_cell_angle_gamma 90.000000
_cell_volume 2814.922271
_symmetry_space_group_name_H-M "C 2/C"
_symmetry_group_IT_number 15
_symmetry_cell_setting 'monoclinic'
loop_
_space_group_symop_operation_xyz
x,y,z
-x,y,1/2-z
-x,-y,-z
x,-y,1/2+z
1/2+x,1/2+y,z
1/2-x,1/2+y,1/2-z
1/2-x,1/2-y,-z
1/2+x,1/2-y,1/2+z
loop_
_atom_site_type_symbol
_atom_site_label
_atom_site_fract_x
_atom_site_fract_y
_atom_site_fract_z
Si Si1 0.705225 0.363589 0.570797
Si Si2 0.363898 0.893150 0.222658
Si Si3 0.565289 0.398574 0.360041
Si Si4 0.164729 0.010761 0.178439
Si Si5 0.605060 0.546320 0.425120
Si Si6 0.935242 0.298680 0.423178
Si Si7 0.623568 0.306868 0.990952
O O1 0.752968 0.419524 0.619921
O O2 0.529642 0.403560 0.587707
O O3 0.824592 0.362829 0.484799
O O4 0.676676 0.269250 0.588761
O O5 0.500000 0.904978 0.250000
O O6 0.196077 0.855866 0.287607
O O7 0.445794 0.838976 0.151535
O O8 0.292983 0.971584 0.201398
O O9 0.412901 0.440337 0.351985
O O10 0.668726 0.474314 0.368784
O O11 0.497448 0.344585 0.430917
O O12 0.000000 0.040489 0.250000
O O13 0.500000 0.500000 0.500000
O O14 0.707295 0.615674 0.439380
O O15 0.031265 0.247946 0.457743
O O16 0.750000 0.250000 0.000000
#
# Coordination Sequence:
#
# PCOD9264516 Si02
#       7
#     8   8   8   8   8   8   8
#     4   9  19  36  58  83 113 151 196 239 283 361
#     4  11  24  36  57  89 121 154 199 248 299 348
#     4   9  19  38  62  82 112 161 198 242 289 364
#     4   9  19  40  61  85 113 156 203 241 295 357
#     4   8  16  31  58  80 106 146 191 227 282 350
#     4  10  22  36  56  89 117 152 194 240 295 359
#     4  10  19  35  59  90 117 149 195 244 297 349
#
# _framework density 19.893978000000001
#
# number of rings (size 3 to 8) (size 9 to 14) (size 15 to 20)
#    0.000    2.571    0.000    0.857    8.000    1.143 
#    2.571    0.000    0.000    0.000    0.000    0.000 
#    0.000    0.000    0.000    0.000    0.000    0.000 
#
# Total GULP energy -155942.416041 kJ/mol
# GULP energy per Si atom -5569.372001 kJ/mol
# Density = 1.984870 g / cm^3
# Si number density = 19.893978 Si / 1000 Ang^3
#
#
#
# Elastic Constant Matrix: (Units=GPa)
#
#
# Indices 1 2 3 4 5 6 
#
# 1 61.8767 43.7623 34.2974 0.0000 12.9950 0.0000
# 2 43.7623 83.7815 65.8755 0.0000 -0.0489 0.0000
# 3 34.2974 65.8755 146.2890 0.0000 -5.2290 0.0000
# 4 0.0000 0.0000 0.0000 32.3842 0.0000 4.4578
# 5 12.9950 -0.0489 -5.2290 0.0000 27.6055 0.0000
# 6 0.0000 0.0000 0.0000 4.4578 0.0000 19.0245
#
#
#
# Elastic Compliance Matrix: (Units=1/GPa)
#
#
# Indices 1 2 3 4 5 6 
#
# 1 0.030471 -0.015326 -0.000761 0.000000 -0.014515 0.000000
# 2 -0.015326 0.026253 -0.008024 0.000000 0.005741 0.000000
# 3 -0.000761 -0.008024 0.010712 0.000000 0.002373 0.000000
# 4 0.000000 0.000000 0.000000 0.031908 0.000000 -0.007477
# 5 -0.014515 0.005741 0.002373 0.000000 0.043517 0.000000
# 6 0.000000 0.000000 0.000000 -0.007477 0.000000 0.054316
#
#
# Mechanical properties :
#
#
# Convention : Reuss Voigt Hill
#
# Bulk Modulus (GPa) = 52.04417 64.42418 58.23417
# Shear Modulus (GPa) = 19.85666 25.67032 22.76349
#
# Velocity S-wave (km/s) = 3.16274 3.59605 3.38633
# Velocity P-wave (km/s) = 6.28926 7.04955 6.68023
#
# Compressibility (1/GPa) = 0.01921445
#
# Stress axis : x y z
#
# Youngs Moduli (GPa) = 32.81832 38.09025 93.35054
#
# Poissons Ratio (x) = 0.58377 0.07106
# Poissons Ratio (y) = 0.50297 0.74903
# Poissons Ratio (z) = 0.02498 0.30563
#
# Static dielectric constant tensor:
#      x y z
#    x 1.789330 0.000000 0.093490 
#    y 0.000000 1.723750 0.000000 
#    z 0.093490 0.000000 1.882760 
# 
# From -- ./inp_files/264223.got.cif
#   From: 2010.05.17/outbox.cif.g08.bks.cpg/sg15_133_cif.got.tgz:264223.got - 2010.06.03 18:47:42.
