data_PCOD9264055
_publ_section_title
;
Structure prediction by ZEFSAII (Michael W. Deem and Ramdas Pophale) SiO2 
 PCOD9264055
Probable space group: C 2/C
;
_chemical_formula_sum "Si O2"
_cell_formula_units_Z 48
_cell_length_a 11.210411
_cell_length_b 15.049695
_cell_length_c 13.365583
_cell_angle_alpha 90.000000
_cell_angle_beta 83.861074
_cell_angle_gamma 90.000000
_cell_volume 2242.020193
_symmetry_space_group_name_H-M "C 2/C"
_symmetry_group_IT_number 15
_symmetry_cell_setting 'monoclinic'
loop_
_space_group_symop_operation_xyz
x,y,z
-x,y,1/2-z
-x,-y,-z
x,-y,1/2+z
1/2+x,1/2+y,z
1/2-x,1/2+y,1/2-z
1/2-x,1/2-y,-z
1/2+x,1/2-y,1/2+z
loop_
_atom_site_type_symbol
_atom_site_label
_atom_site_fract_x
_atom_site_fract_y
_atom_site_fract_z
Si Si1 0.454366 0.739458 0.497449
Si Si2 0.275351 0.483078 0.925925
Si Si3 0.581889 0.079266 0.039236
Si Si4 0.289098 0.989953 0.788410
Si Si5 0.763039 0.340365 0.394606
Si Si6 0.029927 0.081284 0.360734
O O1 0.525568 0.825501 0.525736
O O2 0.367310 0.704339 0.593633
O O3 0.363063 0.769971 0.416781
O O4 0.529295 0.660519 0.440733
O O5 0.209149 0.570439 0.970494
O O6 0.215319 0.460344 0.825171
O O7 0.418290 0.482976 0.898989
O O8 0.244797 0.407816 0.009857
O O9 0.611873 0.055716 0.151214
O O10 0.500000 0.000000 0.000000
O O11 0.157147 0.966735 0.843945
O O12 0.298644 0.096674 0.799818
O O13 0.000000 0.112944 0.250000
#
# Coordination Sequence:
#
# PCOD9264055 Si02
#       6
#     8   8   8   8   8   8
#     4  10  19  35  54  80 116 144 185 233 271 335
#     4   9  19  36  58  82 111 147 191 230 272 342
#     4  11  21  36  55  88 112 146 190 230 278 336
#     4  10  20  37  59  81 111 152 187 233 280 327
#     4   9  19  36  58  80 112 155 186 219 281 341
#     4   9  20  37  58  83 112 148 190 231 279 334
#
# _framework density 21.409262999999999
#
# number of rings (size 3 to 8) (size 9 to 14) (size 15 to 20)
#    0.000    2.333    3.333    0.000    0.000    8.667 
#    0.000    0.000    0.000   18.000    0.000    0.000 
#    0.000    0.000    0.000    0.000    0.000    0.000 
#
# Total GULP energy -133999.100776 kJ/mol
# GULP energy per Si atom -5583.295866 kJ/mol
# Density = 2.136053 g / cm^3
# Si number density = 21.409263 Si / 1000 Ang^3
#
#
#
# Elastic Constant Matrix: (Units=GPa)
#
#
# Indices 1 2 3 4 5 6 
#
# 1 66.2833 25.1115 23.0258 0.0000 8.3163 0.0000
# 2 25.1115 85.1542 12.2783 0.0000 4.2193 0.0000
# 3 23.0258 12.2783 71.4607 0.0000 16.5087 0.0000
# 4 0.0000 0.0000 0.0000 11.6320 0.0000 2.6341
# 5 8.3163 4.2193 16.5087 0.0000 32.2399 0.0000
# 6 0.0000 0.0000 0.0000 2.6341 0.0000 48.4828
#
#
#
# Elastic Compliance Matrix: (Units=1/GPa)
#
#
# Indices 1 2 3 4 5 6 
#
# 1 0.018787 -0.004757 -0.004832 0.000000 -0.001749 0.000000
# 2 -0.004757 0.013256 -0.000712 0.000000 -0.000143 0.000000
# 3 -0.004832 -0.000712 0.017425 0.000000 -0.007583 0.000000
# 4 0.000000 0.000000 0.000000 0.087041 0.000000 -0.004729
# 5 -0.001749 -0.000143 -0.007583 0.000000 0.035370 0.000000
# 6 0.000000 0.000000 0.000000 -0.004729 0.000000 0.020883
#
#
# Mechanical properties :
#
#
# Convention : Reuss Voigt Hill
#
# Bulk Modulus (GPa) = 34.64238 38.19215 36.41727
# Shear Modulus (GPa) = 22.42305 29.30311 25.86308
#
# Velocity S-wave (km/s) = 3.23979 3.70362 3.47945
# Velocity P-wave (km/s) = 5.49647 6.01389 5.76099
#
# Compressibility (1/GPa) = 0.02886638
#
# Stress axis : x y z
#
# Youngs Moduli (GPa) = 53.22859 75.43823 57.38970
#
# Poissons Ratio (x) = 0.35884 0.27731
# Poissons Ratio (y) = 0.25320 0.04085
# Poissons Ratio (z) = 0.25720 0.05370
#
# Static dielectric constant tensor:
#      x y z
#    x 1.828310 0.000000 -0.015300 
#    y 0.000000 1.775820 0.000000 
#    z -0.015300 0.000000 1.813140 
# 
# From -- ./inp_files/143628.got.cif
#   From: 2010.05.17/outbox.cif.g08.bks.cpg/sg15_72_cif.got.tgz:143628.got - 2010.06.03 18:47:42.
