data_PCOD9264853
_publ_section_title
;
Structure prediction by ZEFSAII (Michael W. Deem and Ramdas Pophale) SiO2 
 PCOD9264853
Probable space group: C 2/C
;
_chemical_formula_sum "Si O2"
_cell_formula_units_Z 64
_cell_length_a 14.482210
_cell_length_b 21.433200
_cell_length_c 12.421527
_cell_angle_alpha 90.000000
_cell_angle_beta 138.625181
_cell_angle_gamma 90.000000
_cell_volume 2548.511314
_symmetry_space_group_name_H-M "C 2/C"
_symmetry_group_IT_number 15
_symmetry_cell_setting 'monoclinic'
loop_
_space_group_symop_operation_xyz
x,y,z
-x,y,1/2-z
-x,-y,-z
x,-y,1/2+z
1/2+x,1/2+y,z
1/2-x,1/2+y,1/2-z
1/2-x,1/2-y,-z
1/2+x,1/2-y,1/2+z
loop_
_atom_site_type_symbol
_atom_site_label
_atom_site_fract_x
_atom_site_fract_y
_atom_site_fract_z
Si Si1 0.599837 0.074459 0.591359
Si Si2 0.531846 0.301939 0.402888
Si Si3 0.399458 0.393979 0.432253
Si Si4 0.325425 0.108561 0.471708
Si Si5 0.640296 0.496330 0.925955
Si Si6 0.239517 0.304156 0.405920
Si Si7 0.593112 0.965637 0.740438
Si Si8 0.724783 0.780964 0.742868
O O1 0.749588 0.104455 0.739875
O O2 0.479872 0.095388 0.566688
O O3 0.627225 0.004293 0.661669
O O4 0.523484 0.081443 0.409207
O O5 0.500000 0.304774 0.250000
O O6 0.504407 0.368885 0.436518
O O7 0.425438 0.249987 0.361577
O O8 0.690094 0.287902 0.573546
O O9 0.408904 0.455190 0.513410
O O10 0.385971 0.337667 0.506763
O O11 0.221056 0.050877 0.411786
O O12 0.338207 0.142933 0.597172
O O13 0.274368 0.156653 0.331965
O O14 0.500000 0.521382 0.750000
O O15 0.758664 0.543565 0.072782
O O16 0.250000 0.250000 0.500000
O O17 0.192471 0.270324 0.256960
O O18 0.500000 0.999636 0.750000
#
# Coordination Sequence:
#
# PCOD9264853 Si02
#       8
#     8   8   8   8   8   8   8   8
#     4  10  21  37  64  92 120 162 210 261 308 383
#     4  11  23  42  59  81 125 175 213 258 300 355
#     4   9  20  36  58  86 123 160 206 253 305 371
#     4  10  19  36  61  94 125 160 205 252 318 379
#     4  10  19  35  65  95 124 156 192 263 332 380
#     4   8  17  33  54  91 124 154 189 254 310 362
#     4  10  20  40  62  89 124 159 207 260 323 373
#     4  10  22  38  59  90 123 164 212 260 306 366
#
# _framework density 25.112701000000001
#
# number of rings (size 3 to 8) (size 9 to 14) (size 15 to 20)
#    0.000    2.250    1.250    1.125    3.500    0.000 
#    6.750    5.625    2.750    0.000    0.000    0.000 
#    0.000    0.000    0.000    0.000    0.000    0.000 
#
# Total GULP energy -178321.139910 kJ/mol
# GULP energy per Si atom -5572.535622 kJ/mol
# Density = 2.505554 g / cm^3
# Si number density = 25.112701 Si / 1000 Ang^3
#
#
#
# Elastic Constant Matrix: (Units=GPa)
#
#
# Indices 1 2 3 4 5 6 
#
# 1 72.5467 13.9260 21.6828 0.0000 -7.7404 0.0000
# 2 13.9260 17.5072 11.9465 0.0000 -2.4551 0.0000
# 3 21.6828 11.9465 166.8939 0.0000 6.5801 0.0000
# 4 0.0000 0.0000 0.0000 22.8978 0.0000 -8.6447
# 5 -7.7404 -2.4551 6.5801 0.0000 44.2241 0.0000
# 6 0.0000 0.0000 0.0000 -8.6447 0.0000 24.3330
#
#
#
# Elastic Compliance Matrix: (Units=1/GPa)
#
#
# Indices 1 2 3 4 5 6 
#
# 1 0.016782 -0.012035 -0.001417 0.000000 0.002480 0.000000
# 2 -0.012035 0.069394 -0.003493 0.000000 0.002266 0.000000
# 3 -0.001417 -0.003493 0.006481 0.000000 -0.001406 0.000000
# 4 0.000000 0.000000 0.000000 0.050437 0.000000 0.017919
# 5 0.002480 0.002266 -0.001406 0.000000 0.023381 0.000000
# 6 0.000000 0.000000 0.000000 0.017919 0.000000 0.047462
#
#
# Mechanical properties :
#
#
# Convention : Reuss Voigt Hill
#
# Bulk Modulus (GPa) = 17.01601 39.11761 28.06681
# Shear Modulus (GPa) = 18.69738 32.25048 25.47393
#
# Velocity S-wave (km/s) = 2.73158 3.58750 3.18840
# Velocity P-wave (km/s) = 4.09137 5.72459 4.97545
#
# Compressibility (1/GPa) = 0.05876819
#
# Stress axis : x y z
#
# Youngs Moduli (GPa) = 59.58595 14.41050 154.28840
#
# Poissons Ratio (x) = 0.17343 0.21858
# Poissons Ratio (y) = 0.71712 0.53894
# Poissons Ratio (z) = 0.08441 0.05034
#
# Static dielectric constant tensor:
#      x y z
#    x 1.953870 0.000000 -0.049770 
#    y 0.000000 2.638010 0.000000 
#    z -0.049770 0.000000 1.996590 
# 
# From -- ./inp_files/101336.got.cif
#   From: 2010.05.17/outbox.cif.g08.bks.cpg/sg15_51_cif.got.tgz:101336.got - 2010.06.03 18:47:42.
