data_PCOD9264537
_publ_section_title
;
Structure prediction by ZEFSAII (Michael W. Deem and Ramdas Pophale) SiO2 
 PCOD9264537
Probable space group: C 2/C
;
_chemical_formula_sum "Si O2"
_cell_formula_units_Z 56
_cell_length_a 10.085453
_cell_length_b 24.025987
_cell_length_c 20.731036
_cell_angle_alpha 90.000000
_cell_angle_beta 35.076508
_cell_angle_gamma 90.000000
_cell_volume 2886.795315
_symmetry_space_group_name_H-M "C 2/C"
_symmetry_group_IT_number 15
_symmetry_cell_setting 'monoclinic'
loop_
_space_group_symop_operation_xyz
x,y,z
-x,y,1/2-z
-x,-y,-z
x,-y,1/2+z
1/2+x,1/2+y,z
1/2-x,1/2+y,1/2-z
1/2-x,1/2-y,-z
1/2+x,1/2-y,1/2+z
loop_
_atom_site_type_symbol
_atom_site_label
_atom_site_fract_x
_atom_site_fract_y
_atom_site_fract_z
Si Si1 0.943386 0.602097 0.697082
Si Si2 0.550514 0.436659 0.154982
Si Si3 0.595732 0.769548 0.120527
Si Si4 0.181706 0.028886 0.011131
Si Si5 0.762135 0.841864 0.495018
Si Si6 0.246432 0.573819 0.116408
Si Si7 0.863817 0.746265 0.146714
O O1 0.012870 0.666125 0.656644
O O2 0.097021 0.567048 0.586099
O O3 0.000000 0.590351 0.750000
O O4 0.681426 0.582986 0.790055
O O5 0.500000 0.436739 0.250000
O O6 0.633565 0.496250 0.096074
O O7 0.730987 0.389516 0.061799
O O8 0.744424 0.757350 0.125382
O O9 0.350746 0.737937 0.220045
O O10 0.750000 0.750000 0.000000
O O11 0.958286 0.065160 0.080920
O O12 0.226050 0.979227 0.941891
O O13 0.774913 0.872492 0.559218
O O14 0.532870 0.805747 0.580301
O O15 0.977107 0.799772 0.401110
O O16 0.000000 0.573645 0.250000
#
# Coordination Sequence:
#
# PCOD9264537 Si02
#       7
#     8   8   8   8   8   8   8
#     4  12  21  41  69  89 123 171 222 267 317 393
#     4  11  24  40  62  96 135 172 211 264 334 392
#     4  11  23  39  63  91 123 171 219 262 319 386
#     4  10  21  36  63  92 123 165 215 262 320 382
#     4  10  21  37  63  90 126 167 206 268 323 377
#     4  10  19  35  59  95 123 154 209 269 317 374
#     4  10  21  40  59  91 126 161 217 269 314 376
#
# _framework density 19.398674
#
# number of rings (size 3 to 8) (size 9 to 14) (size 15 to 20)
#    0.000    1.429    2.857    4.714    2.000    2.857 
#    0.000    2.857    3.143    0.000    0.000    0.000 
#    0.000    0.000    0.000    0.000    0.000    0.000 
#
# Total GULP energy -156348.991787 kJ/mol
# GULP energy per Si atom -5583.892564 kJ/mol
# Density = 1.935452 g / cm^3
# Si number density = 19.398674 Si / 1000 Ang^3
#
#
#
# Elastic Constant Matrix: (Units=GPa)
#
#
# Indices 1 2 3 4 5 6 
#
# 1 37.8707 26.5562 30.0173 0.0003 0.8090 -0.0005
# 2 26.5562 89.9228 44.7509 -0.0032 -3.3657 -0.0079
# 3 30.0173 44.7509 147.3939 -0.0136 -2.0293 -0.0150
# 4 0.0003 -0.0032 -0.0136 35.9629 0.0003 -3.5810
# 5 0.8090 -3.3657 -2.0293 0.0003 38.7620 0.0011
# 6 -0.0005 -0.0079 -0.0150 -3.5810 0.0011 55.3336
#
#
#
# Elastic Compliance Matrix: (Units=1/GPa)
#
#
# Indices 1 2 3 4 5 6 
#
# 1 0.036123 -0.008316 -0.004855 -0.000003 -0.001730 -0.000002
# 2 -0.008316 0.015048 -0.002857 0.000000 0.001331 0.000001
# 3 -0.004855 -0.002857 0.008645 0.000003 0.000306 0.000002
# 4 -0.000003 0.000000 0.000003 0.027987 0.000000 0.001811
# 5 -0.001730 0.001331 0.000306 0.000000 0.025966 0.000000
# 6 -0.000002 0.000001 0.000002 0.001811 0.000000 0.018189
#
#
# Mechanical properties :
#
#
# Convention : Reuss Voigt Hill
#
# Bulk Modulus (GPa) = 36.02463 53.09290 44.55876
# Shear Modulus (GPa) = 28.85697 37.60255 33.22976
#
# Velocity S-wave (km/s) = 3.86109 4.40751 4.14332
# Velocity P-wave (km/s) = 6.20390 7.30276 6.77564
#
# Compressibility (1/GPa) = 0.02775879
#
# Stress axis : x y z
#
# Youngs Moduli (GPa) = 27.68337 66.45328 115.67416
#
# Poissons Ratio (x) = 0.55264 0.56165
# Poissons Ratio (y) = 0.23022 0.33047
# Poissons Ratio (z) = 0.13441 0.18985
#
# Static dielectric constant tensor:
#      x y z
#    x 1.673550 0.000000 -0.007830 
#    y 0.000000 1.682710 0.000000 
#    z -0.007830 0.000000 1.689630 
# 
# From -- ./inp_files/240753.got.cif
#   From: 2010.05.17/outbox.cif.g08.bks.cpg/sg15_121_cif.got.tgz:240753.got - 2010.06.03 18:47:42.
