data_PCOD9264060
_publ_section_title
;
Structure prediction by ZEFSAII (Michael W. Deem and Ramdas Pophale) SiO2 
 PCOD9264060
Probable space group: C 2/C
;
_chemical_formula_sum "Si O2"
_cell_formula_units_Z 44
_cell_length_a 10.155929
_cell_length_b 11.447807
_cell_length_c 21.704120
_cell_angle_alpha 90.000000
_cell_angle_beta 46.709277
_cell_angle_gamma 90.000000
_cell_volume 1836.733664
_symmetry_space_group_name_H-M "C 2/C"
_symmetry_group_IT_number 15
_symmetry_cell_setting 'monoclinic'
loop_
_space_group_symop_operation_xyz
x,y,z
-x,y,1/2-z
-x,-y,-z
x,-y,1/2+z
1/2+x,1/2+y,z
1/2-x,1/2+y,1/2-z
1/2-x,1/2-y,-z
1/2+x,1/2-y,1/2+z
loop_
_atom_site_type_symbol
_atom_site_label
_atom_site_fract_x
_atom_site_fract_y
_atom_site_fract_z
Si Si1 0.453888 0.421192 0.956756
Si Si2 0.000000 0.147262 0.750000
Si Si3 0.754458 0.007559 0.406951
Si Si4 0.808320 0.493821 0.287383
Si Si5 0.381913 0.858538 0.146213
Si Si6 0.725233 0.772194 0.110578
O O1 0.290515 0.472188 0.967832
O O2 0.635386 0.429040 0.859119
O O3 0.500000 0.500000 0.000000
O O4 0.387589 0.304363 0.011645
O O5 0.188065 0.208171 0.706649
O O6 0.068309 0.064215 0.672851
O O7 0.397680 0.077027 0.574385
O O8 0.758756 0.137494 0.376992
O O9 0.837818 0.465304 0.206827
O O10 0.780913 0.368057 0.332773
O O11 0.000000 0.540951 0.250000
O O12 0.543979 0.792545 0.127957
#
# Coordination Sequence:
#
# PCOD9264060 Si02
#       6
#     8   4   8   8   8   8
#     4  10  19  35  54  82 114 152 185 239 294 342
#     4   8  18  32  56  76 108 148 182 246 282 338
#     4  10  19  35  56  83 109 148 194 243 283 341
#     4   9  17  33  56  79 108 147 189 228 296 345
#     4   9  18  33  55  83 109 146 190 239 291 337
#     4  10  21  31  60  86 108 147 197 236 285 360
#
# _framework density 23.955568
#
# number of rings (size 3 to 8) (size 9 to 14) (size 15 to 20)
#    1.091    1.455    1.818    0.545    3.818    0.727 
#    0.000    0.000    2.000   33.818    0.000    0.000 
#    0.000    0.000    0.000    0.000    0.000    0.000 
#
# Total GULP energy -122588.517099 kJ/mol
# GULP energy per Si atom -5572.205323 kJ/mol
# Density = 2.390104 g / cm^3
# Si number density = 23.955568 Si / 1000 Ang^3
#
#
#
# Elastic Constant Matrix: (Units=GPa)
#
#
# Indices 1 2 3 4 5 6 
#
# 1 123.6016 54.8823 13.4482 0.0000 -8.7243 0.0000
# 2 54.8823 112.7396 28.1432 0.0000 -12.1488 0.0000
# 3 13.4482 28.1432 48.4610 0.0000 2.2479 0.0000
# 4 0.0000 0.0000 0.0000 20.7971 0.0000 -7.3119
# 5 -8.7243 -12.1488 2.2479 0.0000 53.5536 0.0000
# 6 0.0000 0.0000 0.0000 -7.3119 0.0000 36.1086
#
#
#
# Elastic Compliance Matrix: (Units=1/GPa)
#
#
# Indices 1 2 3 4 5 6 
#
# 1 0.010338 -0.004970 -0.000008 0.000000 0.000557 0.000000
# 2 -0.004970 0.013141 -0.006366 0.000000 0.002439 0.000000
# 3 -0.000008 -0.006366 0.024449 0.000000 -0.002472 0.000000
# 4 0.000000 0.000000 0.000000 0.051769 0.000000 0.010483
# 5 0.000557 0.002439 -0.002472 0.000000 0.019421 0.000000
# 6 0.000000 0.000000 0.000000 0.010483 0.000000 0.029817
#
#
# Mechanical properties :
#
#
# Convention : Reuss Voigt Hill
#
# Bulk Modulus (GPa) = 39.61999 53.08331 46.35165
# Shear Modulus (GPa) = 27.77218 34.64708 31.20963
#
# Velocity S-wave (km/s) = 3.40857 3.80716 3.61337
# Velocity P-wave (km/s) = 5.66269 6.44462 6.06626
#
# Compressibility (1/GPa) = 0.02523978
#
# Stress axis : x y z
#
# Youngs Moduli (GPa) = 96.73336 76.09504 40.90187
#
# Poissons Ratio (x) = 0.37823 0.00033
# Poissons Ratio (y) = 0.48081 0.26036
# Poissons Ratio (z) = 0.00078 0.48439
#
# Static dielectric constant tensor:
#      x y z
#    x 1.959320 0.000000 -0.011460 
#    y 0.000000 1.937470 0.000000 
#    z -0.011460 0.000000 1.986990 
# 
# From -- ./inp_files/269673.got.cif
#   From: 2010.05.17/outbox.cif.g08.bks.cpg/sg15_135_cif.got.tgz:269673.got - 2010.06.03 18:47:42.
