data_PCOD9264776
_publ_section_title
;
Structure prediction by ZEFSAII (Michael W. Deem and Ramdas Pophale) SiO2 
 PCOD9264776
Probable space group: C 2/C
;
_chemical_formula_sum "Si O2"
_cell_formula_units_Z 56
_cell_length_a 12.694914
_cell_length_b 11.472228
_cell_length_c 23.186146
_cell_angle_alpha 90.000000
_cell_angle_beta 135.418881
_cell_angle_gamma 90.000000
_cell_volume 2370.242122
_symmetry_space_group_name_H-M "C 2/C"
_symmetry_group_IT_number 15
_symmetry_cell_setting 'monoclinic'
loop_
_space_group_symop_operation_xyz
x,y,z
-x,y,1/2-z
-x,-y,-z
x,-y,1/2+z
1/2+x,1/2+y,z
1/2-x,1/2+y,1/2-z
1/2-x,1/2-y,-z
1/2+x,1/2-y,1/2+z
loop_
_atom_site_type_symbol
_atom_site_label
_atom_site_fract_x
_atom_site_fract_y
_atom_site_fract_z
Si Si1 0.881978 0.915127 0.483430
Si Si2 0.848689 0.473449 0.813575
Si Si3 0.393182 0.758750 0.892771
Si Si4 0.498185 0.569878 0.157801
Si Si5 0.427731 0.817818 0.278009
Si Si6 0.648631 0.895315 0.899346
Si Si7 0.158781 0.150929 0.915276
O O1 0.891754 0.791967 0.456119
O O2 0.929564 0.912582 0.567845
O O3 0.728758 0.986012 0.412395
O O4 0.000000 0.000000 0.500000
O O5 0.877382 0.398898 0.882590
O O6 0.675786 0.461856 0.727866
O O7 0.910894 0.603256 0.828557
O O8 0.970330 0.404018 0.821500
O O9 0.242276 0.713635 0.803886
O O10 0.526351 0.695491 0.907874
O O11 0.484687 0.696399 0.180540
O O12 0.406046 0.458186 0.145098
O O13 0.500000 0.876727 0.250000
O O14 0.699193 0.768274 0.895966
O O15 0.706999 0.886500 0.989485
#
# Coordination Sequence:
#
# PCOD9264776 Si02
#       7
#     8   8   8   8   8   8   8
#     4  11  18  35  61  94 123 165 203 255 321 386
#     4  10  20  36  58  92 119 165 209 260 307 380
#     4  10  19  35  63  86 121 159 204 258 318 372
#     4  10  21  36  63  88 126 163 208 259 325 367
#     4  11  22  39  61  87 122 165 213 256 313 383
#     4   9  18  29  59  89 118 151 211 253 300 364
#     4   9  16  35  56  88 117 162 201 257 308 363
#
# _framework density 23.626279
#
# number of rings (size 3 to 8) (size 9 to 14) (size 15 to 20)
#    0.000    2.000    4.286    0.857    0.000    0.000 
#    0.000    7.143    6.286    3.429    0.000    0.000 
#    0.000    0.000    0.000    0.000    0.000    0.000 
#
# Total GULP energy -155961.118119 kJ/mol
# GULP energy per Si atom -5570.039933 kJ/mol
# Density = 2.357251 g / cm^3
# Si number density = 23.626279 Si / 1000 Ang^3
#
#
#
# Elastic Constant Matrix: (Units=GPa)
#
#
# Indices 1 2 3 4 5 6 
#
# 1 34.9671 18.6601 19.9190 0.0000 9.4377 0.0000
# 2 18.6601 124.7344 49.4536 0.0000 -7.7764 0.0000
# 3 19.9190 49.4536 73.9119 0.0000 14.8954 0.0000
# 4 0.0000 0.0000 0.0000 40.4510 0.0000 1.8580
# 5 9.4377 -7.7764 14.8954 0.0000 31.4201 0.0000
# 6 0.0000 0.0000 0.0000 1.8580 0.0000 26.9145
#
#
#
# Elastic Compliance Matrix: (Units=1/GPa)
#
#
# Indices 1 2 3 4 5 6 
#
# 1 0.036205 -0.003918 -0.005250 0.000000 -0.009356 0.000000
# 2 -0.003918 0.012836 -0.009298 0.000000 0.008762 0.000000
# 3 -0.005250 -0.009298 0.023563 0.000000 -0.011895 0.000000
# 4 0.000000 0.000000 0.000000 0.024800 0.000000 -0.001712
# 5 -0.009356 0.008762 -0.011895 0.000000 0.042444 0.000000
# 6 0.000000 0.000000 0.000000 -0.001712 0.000000 0.037273
#
#
# Mechanical properties :
#
#
# Convention : Reuss Voigt Hill
#
# Bulk Modulus (GPa) = 28.03389 45.51988 36.77688
# Shear Modulus (GPa) = 22.12936 29.46249 25.79593
#
# Velocity S-wave (km/s) = 3.06378 3.53515 3.30787
# Velocity P-wave (km/s) = 4.94034 5.99763 5.49447
#
# Compressibility (1/GPa) = 0.03567112
#
# Stress axis : x y z
#
# Youngs Moduli (GPa) = 27.62049 77.90684 42.43945
#
# Poissons Ratio (x) = 0.30523 0.22282
# Poissons Ratio (y) = 0.10821 0.39461
# Poissons Ratio (z) = 0.14501 0.72439
#
# Static dielectric constant tensor:
#      x y z
#    x 2.077210 0.000000 -0.361260 
#    y 0.000000 2.020850 0.000000 
#    z -0.361260 0.000000 4.965430 
# 
# From -- ./inp_files/295955.got.cif
#   From: 2010.05.17/outbox.cif.g08.bks.cpg/sg15_148_cif.got.tgz:295955.got - 2010.06.03 18:47:42.
