data_PCOD9264474
_publ_section_title
;
Structure prediction by ZEFSAII (Michael W. Deem and Ramdas Pophale) SiO2 
 PCOD9264474
Probable space group: C 2/C
;
_chemical_formula_sum "Si O2"
_cell_formula_units_Z 56
_cell_length_a 14.817271
_cell_length_b 11.589592
_cell_length_c 18.528086
_cell_angle_alpha 90.000000
_cell_angle_beta 119.709277
_cell_angle_gamma 90.000000
_cell_volume 2763.518616
_symmetry_space_group_name_H-M "C 2/C"
_symmetry_group_IT_number 15
_symmetry_cell_setting 'monoclinic'
loop_
_space_group_symop_operation_xyz
x,y,z
-x,y,1/2-z
-x,-y,-z
x,-y,1/2+z
1/2+x,1/2+y,z
1/2-x,1/2+y,1/2-z
1/2-x,1/2-y,-z
1/2+x,1/2-y,1/2+z
loop_
_atom_site_type_symbol
_atom_site_label
_atom_site_fract_x
_atom_site_fract_y
_atom_site_fract_z
Si Si1 0.956833 0.591942 0.038786
Si Si2 0.769901 0.124804 0.544847
Si Si3 0.584129 0.152122 0.228746
Si Si4 0.255785 0.651866 0.710590
Si Si5 0.592064 0.548116 0.484868
Si Si6 0.766380 0.011910 0.343795
Si Si7 0.928786 0.778257 0.907857
O O1 0.026833 0.603424 0.136503
O O2 0.838996 0.560666 0.012669
O O3 0.951382 0.712350 0.991785
O O4 0.000000 0.500000 0.000000
O O5 0.750000 0.250000 0.500000
O O6 0.777739 0.134911 0.634275
O O7 0.864921 0.050852 0.551078
O O8 0.500000 0.204967 0.250000
O O9 0.668022 0.245403 0.236155
O O10 0.648951 0.056702 0.299112
O O11 0.279403 0.544298 0.770583
O O12 0.133714 0.687334 0.666764
O O13 0.500000 0.500000 0.500000
O O14 0.688934 0.572298 0.576908
O O15 0.534298 0.657486 0.426089
O O16 0.839029 0.124794 0.381280
#
# Coordination Sequence:
#
# PCOD9264474 Si02
#       7
#     8   8   8   8   8   8   8
#     4  11  22  39  61  85 118 161 201 246 303 369
#     4  11  21  38  61  90 120 155 204 254 301 365
#     4  11  21  33  55  88 116 142 190 252 302 346
#     4  10  21  36  58  86 116 150 198 253 301 355
#     4  10  19  35  59  85 119 159 196 243 301 364
#     4  10  20  36  57  84 118 155 193 243 301 358
#     4   9  20  37  57  82 114 156 200 237 295 367
#
# _framework density 20.264021
#
# number of rings (size 3 to 8) (size 9 to 14) (size 15 to 20)
#    0.000    1.714    0.000    8.571    0.000    3.429 
#    0.000    0.714    0.000   13.714    0.000    0.000 
#    0.000    0.000    0.000    0.000    0.000    0.000 
#
# Total GULP energy -156075.949778 kJ/mol
# GULP energy per Si atom -5574.141063 kJ/mol
# Density = 2.021790 g / cm^3
# Si number density = 20.264021 Si / 1000 Ang^3
#
#
#
# Elastic Constant Matrix: (Units=GPa)
#
#
# Indices 1 2 3 4 5 6 
#
# 1 85.5302 46.4626 24.3324 0.0000 13.1661 0.0000
# 2 46.4626 70.9840 43.2265 0.0000 -1.5904 0.0000
# 3 24.3324 43.2265 114.8695 0.0000 12.7874 0.0000
# 4 0.0000 0.0000 0.0000 27.1661 0.0000 -2.1013
# 5 13.1661 -1.5904 12.7874 0.0000 33.7118 0.0000
# 6 0.0000 0.0000 0.0000 -2.1013 0.0000 36.0135
#
#
#
# Elastic Compliance Matrix: (Units=1/GPa)
#
#
# Indices 1 2 3 4 5 6 
#
# 1 0.020844 -0.015358 0.002454 0.000000 -0.009796 0.000000
# 2 -0.015358 0.030025 -0.009262 0.000000 0.010928 0.000000
# 3 0.002454 -0.009262 0.012348 0.000000 -0.006079 0.000000
# 4 0.000000 0.000000 0.000000 0.036977 0.000000 0.002158
# 5 -0.009796 0.010928 -0.006079 0.000000 0.036311 0.000000
# 6 0.000000 0.000000 0.000000 0.002158 0.000000 0.027893
#
#
# Mechanical properties :
#
#
# Convention : Reuss Voigt Hill
#
# Bulk Modulus (GPa) = 52.94803 55.49186 54.21994
# Shear Modulus (GPa) = 23.25312 29.86910 26.56111
#
# Velocity S-wave (km/s) = 3.39116 3.84343 3.62436
# Velocity P-wave (km/s) = 6.44353 6.86584 6.65804
#
# Compressibility (1/GPa) = 0.01888644
#
# Stress axis : x y z
#
# Youngs Moduli (GPa) = 47.97468 33.30539 80.98633
#
# Poissons Ratio (x) = 0.51150 -0.19878
# Poissons Ratio (y) = 0.73679 0.75010
# Poissons Ratio (z) = -0.11775 0.30848
#
# Static dielectric constant tensor:
#      x y z
#    x 1.781320 0.000000 -0.027720 
#    y 0.000000 1.805600 0.000000 
#    z -0.027720 0.000000 1.813560 
# 
# From -- ./inp_files/204537.got.cif
#   From: 2010.05.17/outbox.cif.g08.bks.cpg/sg15_103_cif.got.tgz:204537.got - 2010.06.03 18:47:42.
