data_PCOD9264285
_publ_section_title
;
Structure prediction by ZEFSAII (Michael W. Deem and Ramdas Pophale) SiO2 
 PCOD9264285
Probable space group: C 2/C
;
_chemical_formula_sum "Si O2"
_cell_formula_units_Z 60
_cell_length_a 21.806914
_cell_length_b 15.255285
_cell_length_c 11.097063
_cell_angle_alpha 90.000000
_cell_angle_beta 115.296113
_cell_angle_gamma 90.000000
_cell_volume 3337.679264
_symmetry_space_group_name_H-M "C 2/C"
_symmetry_group_IT_number 15
_symmetry_cell_setting 'monoclinic'
loop_
_space_group_symop_operation_xyz
x,y,z
-x,y,1/2-z
-x,-y,-z
x,-y,1/2+z
1/2+x,1/2+y,z
1/2-x,1/2+y,1/2-z
1/2-x,1/2-y,-z
1/2+x,1/2-y,1/2+z
loop_
_atom_site_type_symbol
_atom_site_label
_atom_site_fract_x
_atom_site_fract_y
_atom_site_fract_z
Si Si1 0.678531 0.253355 0.872673
Si Si2 0.233300 0.456253 0.937771
Si Si3 0.077760 0.979055 0.590417
Si Si4 0.835208 0.818224 0.903379
Si Si5 0.116606 0.359085 0.982752
Si Si6 0.000000 0.543158 0.250000
Si Si7 0.620809 0.077489 0.754790
Si Si8 0.637188 0.442929 0.897115
O O1 0.691153 0.272810 0.741255
O O2 0.638994 0.161363 0.853493
O O3 0.637406 0.338364 0.882741
O O4 0.750000 0.250000 0.000000
O O5 0.277575 0.380432 0.911329
O O6 0.179113 0.413539 0.981229
O O7 0.186933 0.514841 0.810744
O O8 0.286457 0.519761 0.048713
O O9 0.102226 0.880724 0.580159
O O10 0.097071 0.986845 0.749509
O O11 0.115233 0.033897 0.515421
O O12 0.000000 0.000000 0.500000
O O13 0.863119 0.742456 0.013363
O O14 0.047161 0.392670 0.867214
O O15 0.109672 0.381385 0.116132
O O16 0.055230 0.479253 0.234452
#
# Coordination Sequence:
#
# PCOD9264285 Si02
#       8
#     8   8   8   8   8   4   8   8
#     4  10  19  35  57  87 117 143 189 242 296 336
#     4  10  20  34  61  85 112 149 193 238 299 347
#     4  10  21  39  58  83 118 159 194 237 291 350
#     4   9  21  36  56  84 118 145 191 244 287 343
#     4  10  21  38  58  81 115 151 190 242 288 347
#     4  10  22  40  56  82 112 156 202 222 294 356
#     4  10  21  36  60  83 116 152 189 247 292 348
#     4  10  21  36  60  87 117 152 197 240 291 356
#
# _framework density 17.976562000000001
#
# number of rings (size 3 to 8) (size 9 to 14) (size 15 to 20)
#    0.000    2.133    1.333    1.200    5.600    0.000 
#   12.000    0.000    0.000    0.000    0.000    0.000 
#    0.000    0.000    0.000    0.000    0.000    0.000 
#
# Total GULP energy -167022.654127 kJ/mol
# GULP energy per Si atom -5567.421804 kJ/mol
# Density = 1.793565 g / cm^3
# Si number density = 17.976562 Si / 1000 Ang^3
#
#
#
# Elastic Constant Matrix: (Units=GPa)
#
#
# Indices 1 2 3 4 5 6 
#
# 1 63.9853 33.4164 45.7019 0.0000 28.2627 0.0000
# 2 33.4164 108.2434 37.7609 0.0000 12.8809 0.0000
# 3 45.7019 37.7609 79.8640 0.0000 20.1905 0.0000
# 4 0.0000 0.0000 0.0000 26.0949 0.0000 1.7758
# 5 28.2627 12.8809 20.1905 0.0000 30.7704 0.0000
# 6 0.0000 0.0000 0.0000 1.7758 0.0000 21.1001
#
#
#
# Elastic Compliance Matrix: (Units=1/GPa)
#
#
# Indices 1 2 3 4 5 6 
#
# 1 0.038576 -0.004133 -0.013908 0.000000 -0.024577 0.000000
# 2 -0.004133 0.011559 -0.003401 0.000000 0.001189 0.000000
# 3 -0.013908 -0.003401 0.022178 0.000000 -0.000354 0.000000
# 4 0.000000 0.000000 0.000000 0.038542 0.000000 -0.003244
# 5 -0.024577 0.001189 -0.000354 0.000000 0.054807 0.000000
# 6 0.000000 0.000000 0.000000 -0.003244 0.000000 0.047666
#
#
# Mechanical properties :
#
#
# Convention : Reuss Voigt Hill
#
# Bulk Modulus (GPa) = 33.97904 53.98347 43.98126
# Shear Modulus (GPa) = 18.79542 24.60731 21.70136
#
# Velocity S-wave (km/s) = 3.23701 3.70382 3.47825
# Velocity P-wave (km/s) = 5.73706 6.95601 6.37573
#
# Compressibility (1/GPa) = 0.02942990
#
# Stress axis : x y z
#
# Youngs Moduli (GPa) = 25.92258 86.51083 45.09049
#
# Poissons Ratio (x) = 0.35752 0.62712
# Poissons Ratio (y) = 0.10713 0.15335
# Poissons Ratio (z) = 0.36053 0.29422
#
# Static dielectric constant tensor:
#      x y z
#    x 1.607800 0.000000 -0.017430 
#    y 0.000000 1.641780 0.000000 
#    z -0.017430 0.000000 1.635180 
# 
# From -- ./inp_files/112760.got.cif
#   From: 2010.05.17/outbox.cif.g08.bks.cpg/sg15_57_cif.got.tgz:112760.got - 2010.06.03 18:47:42.
