data_PCOD9264328
_publ_section_title
;
Structure prediction by ZEFSAII (Michael W. Deem and Ramdas Pophale) SiO2 
 PCOD9264328
Probable space group: C 2/C
;
_chemical_formula_sum "Si O2"
_cell_formula_units_Z 48
_cell_length_a 16.893379
_cell_length_b 8.979899
_cell_length_c 25.212032
_cell_angle_alpha 90.000000
_cell_angle_beta 47.842647
_cell_angle_gamma 90.000000
_cell_volume 2835.256726
_symmetry_space_group_name_H-M "C 2/C"
_symmetry_group_IT_number 15
_symmetry_cell_setting 'monoclinic'
loop_
_space_group_symop_operation_xyz
x,y,z
-x,y,1/2-z
-x,-y,-z
x,-y,1/2+z
1/2+x,1/2+y,z
1/2-x,1/2+y,1/2-z
1/2-x,1/2-y,-z
1/2+x,1/2-y,1/2+z
loop_
_atom_site_type_symbol
_atom_site_label
_atom_site_fract_x
_atom_site_fract_y
_atom_site_fract_z
Si Si1 0.018552 0.596243 0.571552
Si Si2 0.241321 0.838283 0.948399
Si Si3 0.674219 0.056213 0.918334
Si Si4 0.648235 0.636130 0.034357
Si Si5 0.927985 0.537926 0.832214
Si Si6 0.612675 0.624836 0.169334
O O1 0.112603 0.509662 0.497786
O O2 0.056277 0.766662 0.548744
O O3 0.017428 0.569274 0.635218
O O4 0.909049 0.554296 0.592409
O O5 0.197856 0.724960 0.924463
O O6 0.353263 0.899743 0.877858
O O7 0.250000 0.750000 0.000000
O O8 0.179145 0.991788 0.987492
O O9 0.782195 0.962918 0.858212
O O10 0.607331 0.581681 0.109897
O O11 0.750000 0.750000 0.000000
O O12 0.872360 0.695038 0.839996
O O13 0.000000 0.500983 0.750000
O O14 0.500000 0.597422 0.250000
#
# Coordination Sequence:
#
# PCOD9264328 Si02
#       6
#     8   8   8   8   8   8
#     4  10  20  37  58  83 116 151 182 237 293 339
#     4  12  19  33  58  86 114 147 197 241 274 339
#     4  11  21  34  57  89 116 143 188 243 290 330
#     4  11  17  36  59  79 112 152 197 229 272 351
#     4  10  20  37  59  80 109 158 198 227 284 355
#     4  10  19  35  58  82 107 157 194 226 281 355
#
# _framework density 16.929684000000002
#
# number of rings (size 3 to 8) (size 9 to 14) (size 15 to 20)
#    0.000    1.333    8.333    0.000    0.000    1.333 
#    0.000    5.000    0.000    4.000    0.000    0.000 
#    0.000    0.000    0.000    0.000    0.000    0.000 
#
# Total GULP energy -133626.284394 kJ/mol
# GULP energy per Si atom -5567.761850 kJ/mol
# Density = 1.689115 g / cm^3
# Si number density = 16.929684 Si / 1000 Ang^3
#
#
#
# Elastic Constant Matrix: (Units=GPa)
#
#
# Indices 1 2 3 4 5 6 
#
# 1 82.7725 53.8564 47.5929 0.0000 -10.7225 0.0001
# 2 53.8564 94.8490 52.6513 0.0000 -6.6378 0.0002
# 3 47.5929 52.6513 135.8055 0.0000 -6.3175 0.0000
# 4 0.0000 0.0000 0.0000 30.8400 0.0000 -1.8224
# 5 -10.7225 -6.6378 -6.3175 0.0000 20.1757 0.0000
# 6 0.0001 0.0002 0.0000 -1.8224 0.0000 25.8255
#
#
#
# Elastic Compliance Matrix: (Units=1/GPa)
#
#
# Indices 1 2 3 4 5 6 
#
# 1 0.021235 -0.009704 -0.003352 0.000000 0.007043 0.000000
# 2 -0.009704 0.018030 -0.003606 0.000000 -0.000354 0.000000
# 3 -0.003352 -0.003606 0.009943 0.000000 0.000146 0.000000
# 4 0.000000 0.000000 0.000000 0.032561 0.000000 0.002298
# 5 0.007043 -0.000354 0.000146 0.000000 0.053237 0.000000
# 6 0.000000 0.000000 0.000000 0.002298 0.000000 0.038884
#
#
# Mechanical properties :
#
#
# Convention : Reuss Voigt Hill
#
# Bulk Modulus (GPa) = 62.95524 69.06980 66.01252
# Shear Modulus (GPa) = 23.52862 25.99001 24.75932
#
# Velocity S-wave (km/s) = 3.73203 3.92238 3.82839
# Velocity P-wave (km/s) = 7.47246 7.83582 7.65630
#
# Compressibility (1/GPa) = 0.01588430
#
# Stress axis : x y z
#
# Youngs Moduli (GPa) = 47.09242 55.46358 100.57391
#
# Poissons Ratio (x) = 0.53821 0.33712
# Poissons Ratio (y) = 0.45697 0.36266
# Poissons Ratio (z) = 0.15785 0.20000
#
# Static dielectric constant tensor:
#      x y z
#    x 1.585340 0.000000 -0.022780 
#    y 0.000000 1.603660 0.000000 
#    z -0.022780 0.000000 1.517700 
# 
# From -- ./inp_files/276196.got.cif
#   From: 2010.05.17/outbox.cif.g08.bks.cpg/sg15_139_cif.got.tgz:276196.got - 2010.06.03 18:47:42.
