data_PCOD9264117
_publ_section_title
;
Structure prediction by ZEFSAII (Michael W. Deem and Ramdas Pophale) SiO2 
 PCOD9264117
Probable space group: C 2/C
;
_chemical_formula_sum "Si O2"
_cell_formula_units_Z 52
_cell_length_a 31.692653
_cell_length_b 21.295420
_cell_length_c 9.739929
_cell_angle_alpha 90.000000
_cell_angle_beta 153.358811
_cell_angle_gamma 90.000000
_cell_volume 2947.595670
_symmetry_space_group_name_H-M "C 2/C"
_symmetry_group_IT_number 15
_symmetry_cell_setting 'monoclinic'
loop_
_space_group_symop_operation_xyz
x,y,z
-x,y,1/2-z
-x,-y,-z
x,-y,1/2+z
1/2+x,1/2+y,z
1/2-x,1/2+y,1/2-z
1/2-x,1/2-y,-z
1/2+x,1/2-y,1/2+z
loop_
_atom_site_type_symbol
_atom_site_label
_atom_site_fract_x
_atom_site_fract_y
_atom_site_fract_z
Si Si1 0.620795 0.241415 0.761239
Si Si2 0.793677 0.838948 0.709123
Si Si3 0.892914 0.956605 0.887720
Si Si4 0.000000 0.172564 0.250000
Si Si5 0.240181 0.202073 0.843880
Si Si6 0.413491 0.738716 0.752554
Si Si7 0.368550 0.421605 0.497658
O O1 0.658981 0.293443 0.766763
O O2 0.507849 0.241917 0.445069
O O3 0.684314 0.180139 0.910884
O O4 0.658673 0.266059 0.016430
O O5 0.818480 0.908569 0.737514
O O6 0.855001 0.819117 0.018968
O O7 0.877686 0.949881 0.678425
O O8 0.873772 0.024401 0.898610
O O9 0.000000 0.939690 0.250000
O O10 0.061882 0.217591 0.522860
O O11 0.043711 0.124846 0.267235
O O12 0.214130 0.128562 0.778838
O O13 0.250000 0.250000 0.000000
O O14 0.336709 0.206574 0.038068
#
# Coordination Sequence:
#
# PCOD9264117 Si02
#       7
#     8   8   8   4   8   8   8
#     4  10  19  35  55  85 114 147 190 244 290 349
#     4  10  21  34  55  83 119 148 193 237 291 350
#     4  12  24  38  59  84 121 164 195 238 293 358
#     4  12  20  36  58  84 122 150 196 236 288 364
#     4  11  21  36  56  83 116 150 191 244 296 344
#     4  11  20  33  60  83 117 154 189 246 297 343
#     4  12  25  38  56  88 120 156 202 236 295 359
#
# _framework density 17.641496
#
# number of rings (size 3 to 8) (size 9 to 14) (size 15 to 20)
#    0.000    0.923    5.385    2.769    2.154    0.000 
#    0.000    0.000    0.000    0.923    0.000    0.000 
#    0.000    0.000    0.000    0.000    0.000    0.000 
#
# Total GULP energy -144755.989489 kJ/mol
# GULP energy per Si atom -5567.538057 kJ/mol
# Density = 1.760134 g / cm^3
# Si number density = 17.641496 Si / 1000 Ang^3
#
#
#
# Elastic Constant Matrix: (Units=GPa)
#
#
# Indices 1 2 3 4 5 6 
#
# 1 76.6240 27.4188 30.3013 0.0000 5.8160 0.0000
# 2 27.4188 78.3154 20.0960 0.0000 18.1040 0.0000
# 3 30.3013 20.0960 56.2078 0.0000 6.8217 0.0000
# 4 0.0000 0.0000 0.0000 16.8811 0.0000 7.8514
# 5 5.8160 18.1040 6.8217 0.0000 53.8103 0.0000
# 6 0.0000 0.0000 0.0000 7.8514 0.0000 36.0851
#
#
#
# Elastic Compliance Matrix: (Units=1/GPa)
#
#
# Indices 1 2 3 4 5 6 
#
# 1 0.017738 -0.004255 -0.008107 0.000000 0.000542 0.000000
# 2 -0.004255 0.016059 -0.002892 0.000000 -0.004576 0.000000
# 3 -0.008107 -0.002892 0.023330 0.000000 -0.001108 0.000000
# 4 0.000000 0.000000 0.000000 0.065907 0.000000 -0.014340
# 5 0.000542 -0.004576 -0.001108 0.000000 0.020205 0.000000
# 6 0.000000 0.000000 0.000000 -0.014340 0.000000 0.030832
#
#
# Mechanical properties :
#
#
# Convention : Reuss Voigt Hill
#
# Bulk Modulus (GPa) = 37.56821 40.75329 39.16075
# Shear Modulus (GPa) = 23.42429 30.24405 26.83417
#
# Velocity S-wave (km/s) = 3.64785 4.14499 3.90434
# Velocity P-wave (km/s) = 6.25172 6.78667 6.52468
#
# Compressibility (1/GPa) = 0.02661825
#
# Stress axis : x y z
#
# Youngs Moduli (GPa) = 56.37539 62.27154 42.86312
#
# Poissons Ratio (x) = 0.26499 0.34749
# Poissons Ratio (y) = 0.23990 0.12396
# Poissons Ratio (z) = 0.45703 0.18009
#
# Static dielectric constant tensor:
#      x y z
#    x 1.865170 0.000000 -0.075470 
#    y 0.000000 1.604410 0.000000 
#    z -0.075470 0.000000 1.688400 
# 
# From -- ./inp_files/70812.got.cif
#   From: 2010.05.17/outbox.cif.g08.bks.cpg/sg15_36_cif.got.tgz:70812.got - 2010.06.03 18:47:42.
