data_PCOD9264907
_publ_section_title
;
Structure prediction by ZEFSAII (Michael W. Deem and Ramdas Pophale) SiO2 
 PCOD9264907
Probable space group: C 2/C
;
_chemical_formula_sum "Si O2"
_cell_formula_units_Z 60
_cell_length_a 22.707317
_cell_length_b 23.665710
_cell_length_c 8.944274
_cell_angle_alpha 90.000000
_cell_angle_beta 42.370888
_cell_angle_gamma 90.000000
_cell_volume 3239.241823
_symmetry_space_group_name_H-M "C 2/C"
_symmetry_group_IT_number 15
_symmetry_cell_setting 'monoclinic'
loop_
_space_group_symop_operation_xyz
x,y,z
-x,y,1/2-z
-x,-y,-z
x,-y,1/2+z
1/2+x,1/2+y,z
1/2-x,1/2+y,1/2-z
1/2-x,1/2-y,-z
1/2+x,1/2-y,1/2+z
loop_
_atom_site_type_symbol
_atom_site_label
_atom_site_fract_x
_atom_site_fract_y
_atom_site_fract_z
Si Si1 0.696550 0.144116 0.939078
Si Si2 0.544982 0.219340 0.332339
Si Si3 0.000000 0.248232 0.250000
Si Si4 0.180307 0.791378 0.500828
Si Si5 0.908882 0.427608 0.351030
Si Si6 0.738604 0.833394 0.891465
Si Si7 0.591238 0.955568 0.495031
Si Si8 0.809339 0.195240 0.938709
O O1 0.732673 0.189833 0.752356
O O2 0.616516 0.169120 0.186100
O O3 0.662814 0.089006 0.919129
O O4 0.781358 0.143426 0.885564
O O5 0.500000 0.214783 0.250000
O O6 0.503908 0.218935 0.578994
O O7 0.594697 0.279373 0.238252
O O8 0.087981 0.210380 0.090506
O O9 0.184461 0.834244 0.631014
O O10 0.190243 0.725414 0.521270
O O11 0.831987 0.382368 0.484381
O O12 0.884732 0.481168 0.499896
O O13 0.000000 0.405554 0.250000
O O14 0.922732 0.449192 0.155485
O O15 0.780495 0.823453 0.654244
O O16 0.500000 0.942621 0.750000
O O17 0.750000 0.250000 0.000000
#
# Coordination Sequence:
#
# PCOD9264907 Si02
#       8
#     8   8   4   8   8   8   8   8
#     4  11  21  41  58  80 122 161 200 251 306 363
#     4  11  22  37  55  86 124 163 198 248 309 374
#     4  12  24  36  58  88 126 158 208 246 314 386
#     4  11  22  39  57  90 122 161 201 255 308 376
#     4  11  25  41  60  90 120 163 211 256 303 369
#     4  11  22  37  61  83 122 158 205 250 303 375
#     4  11  24  42  59  85 122 163 208 259 301 356
#     4  10  19  36  52  80 113 152 195 243 295 365
#
# _framework density 18.522852
#
# number of rings (size 3 to 8) (size 9 to 14) (size 15 to 20)
#    0.000    1.067    5.333    3.600    6.533    1.067 
#    0.000    0.000    0.000    0.000    0.000    0.933 
#    4.000    0.000    0.000    0.000    0.000    0.000 
#
# Total GULP energy -167005.320857 kJ/mol
# GULP energy per Si atom -5566.844029 kJ/mol
# Density = 1.848069 g / cm^3
# Si number density = 18.522852 Si / 1000 Ang^3
#
#
#
# Elastic Constant Matrix: (Units=GPa)
#
#
# Indices 1 2 3 4 5 6 
#
# 1 73.8833 30.2948 13.8270 0.0000 20.4209 0.0000
# 2 30.2948 74.6023 26.3762 0.0000 -3.3090 0.0000
# 3 13.8270 26.3762 80.8182 0.0000 27.0088 0.0000
# 4 0.0000 0.0000 0.0000 21.2363 0.0000 -3.0966
# 5 20.4209 -3.3090 27.0088 0.0000 40.9748 0.0000
# 6 0.0000 0.0000 0.0000 -3.0966 0.0000 25.3050
#
#
#
# Elastic Compliance Matrix: (Units=1/GPa)
#
#
# Indices 1 2 3 4 5 6 
#
# 1 0.021162 -0.010954 0.004841 0.000000 -0.014622 0.000000
# 2 -0.010954 0.021958 -0.009887 0.000000 0.013749 0.000000
# 3 0.004841 -0.009887 0.020322 0.000000 -0.016606 0.000000
# 4 0.000000 0.000000 0.000000 0.047945 0.000000 0.005867
# 5 -0.014622 0.013749 -0.016606 0.000000 0.043749 0.000000
# 6 0.000000 0.000000 0.000000 0.005867 0.000000 0.040236
#
#
# Mechanical properties :
#
#
# Convention : Reuss Voigt Hill
#
# Bulk Modulus (GPa) = 31.80496 41.14442 36.47469
# Shear Modulus (GPa) = 21.02153 28.09027 24.55590
#
# Velocity S-wave (km/s) = 3.37248 3.89848 3.64498
# Velocity P-wave (km/s) = 5.68971 6.52113 6.11956
#
# Compressibility (1/GPa) = 0.03144164
#
# Stress axis : x y z
#
# Youngs Moduli (GPa) = 47.25528 45.54139 49.20832
#
# Poissons Ratio (x) = 0.49884 -0.23821
# Poissons Ratio (y) = 0.51761 0.48654
# Poissons Ratio (z) = -0.22876 0.45028
#
# Static dielectric constant tensor:
#      x y z
#    x 1.846240 0.000000 0.067890 
#    y 0.000000 1.640050 0.000000 
#    z 0.067890 0.000000 1.703090 
# 
# From -- ./inp_files/63505.got.cif
#   From: 2010.05.17/outbox.cif.g08.bks.cpg/sg15_32_cif.got.tgz:63505.got - 2010.06.03 18:47:42.
