data_PCOD9264393
_publ_section_title
;
Structure prediction by ZEFSAII (Michael W. Deem and Ramdas Pophale) SiO2 
 PCOD9264393
Probable space group: C 2/C
;
_chemical_formula_sum "Si O2"
_cell_formula_units_Z 56
_cell_length_a 7.892140
_cell_length_b 18.276217
_cell_length_c 16.661884
_cell_angle_alpha 90.000000
_cell_angle_beta 111.572617
_cell_angle_gamma 90.000000
_cell_volume 2234.940024
_symmetry_space_group_name_H-M "C 2/C"
_symmetry_group_IT_number 15
_symmetry_cell_setting 'monoclinic'
loop_
_space_group_symop_operation_xyz
x,y,z
-x,y,1/2-z
-x,-y,-z
x,-y,1/2+z
1/2+x,1/2+y,z
1/2-x,1/2+y,1/2-z
1/2-x,1/2-y,-z
1/2+x,1/2-y,1/2+z
loop_
_atom_site_type_symbol
_atom_site_label
_atom_site_fract_x
_atom_site_fract_y
_atom_site_fract_z
Si Si1 0.205804 0.420421 0.758616
Si Si2 0.650950 0.682063 0.579623
Si Si3 0.046071 0.050107 0.666047
Si Si4 0.537950 0.846732 0.106907
Si Si5 0.303616 0.247373 0.254193
Si Si6 0.485300 0.984839 0.902964
Si Si7 0.780434 0.884266 0.004079
O O1 0.357066 0.473274 0.818805
O O2 0.238619 0.335744 0.776450
O O3 0.000000 0.441186 0.750000
O O4 0.187758 0.441346 0.660872
O O5 0.666115 0.613807 0.646189
O O6 0.853782 0.701282 0.809179
O O7 0.665106 0.748225 0.644674
O O8 0.830693 0.678968 0.557968
O O9 0.000000 0.068219 0.750000
O O10 0.873940 0.054915 0.577817
O O11 0.651268 0.841449 0.043812
O O12 0.526474 0.932148 0.131854
O O13 0.500000 0.266617 0.250000
O O14 0.547943 0.334326 0.492845
O O15 0.656128 0.928605 0.921102
O O16 0.500000 0.000000 0.000000
#
# Coordination Sequence:
#
# PCOD9264393 Si02
#       7
#     8   8   8   8   8   8   8
#     4  11  24  39  63  97 128 171 225 274 323 390
#     4  10  20  35  61  92 118 166 213 261 315 388
#     4  10  19  35  58  88 125 159 210 271 315 374
#     4  11  20  36  63  89 124 165 217 259 321 383
#     4  11  21  38  60  88 130 170 220 272 321 384
#     4  10  21  40  67  98 131 171 213 273 340 387
#     4   9  21  37  62  93 124 163 211 264 326 385
#
# _framework density 25.056601000000001
#
# number of rings (size 3 to 8) (size 9 to 14) (size 15 to 20)
#    0.857    0.857    1.429    5.143    0.000    1.714 
#    0.000    0.714    0.000    4.286    0.000    0.000 
#    0.000    0.000    0.000    0.000    0.000    0.000 
#
# Total GULP energy -156445.519276 kJ/mol
# GULP energy per Si atom -5587.339974 kJ/mol
# Density = 2.499957 g / cm^3
# Si number density = 25.056601 Si / 1000 Ang^3
#
#
#
# Elastic Constant Matrix: (Units=GPa)
#
#
# Indices 1 2 3 4 5 6 
#
# 1 123.5870 12.6655 16.3019 0.0000 11.1675 0.0000
# 2 12.6655 109.6586 -7.1169 0.0000 8.4837 0.0000
# 3 16.3019 -7.1169 58.3310 0.0000 16.0329 0.0000
# 4 0.0000 0.0000 0.0000 20.9978 0.0000 8.9701
# 5 11.1675 8.4837 16.0329 0.0000 21.8483 0.0000
# 6 0.0000 0.0000 0.0000 8.9701 0.0000 20.8465
#
#
#
# Elastic Compliance Matrix: (Units=1/GPa)
#
#
# Indices 1 2 3 4 5 6 
#
# 1 0.008668 -0.000900 -0.001767 0.000000 -0.002784 0.000000
# 2 -0.000900 0.009846 0.002978 0.000000 -0.005548 0.000000
# 3 -0.001767 0.002978 0.022636 0.000000 -0.016864 0.000000
# 4 0.000000 0.000000 0.000000 0.058350 0.000000 -0.025108
# 5 -0.002784 -0.005548 -0.016864 0.000000 0.061723 0.000000
# 6 0.000000 0.000000 0.000000 -0.025108 0.000000 0.058773
#
#
# Mechanical properties :
#
#
# Convention : Reuss Voigt Hill
#
# Bulk Modulus (GPa) = 23.94026 37.25306 30.59666
# Shear Modulus (GPa) = 21.43170 30.72025 26.07598
#
# Velocity S-wave (km/s) = 2.92778 3.50528 3.22946
# Velocity P-wave (km/s) = 4.58306 5.59307 5.11306
#
# Compressibility (1/GPa) = 0.04177064
#
# Stress axis : x y z
#
# Youngs Moduli (GPa) = 115.36087 101.56706 44.17742
#
# Poissons Ratio (x) = 0.09146 0.07807
# Poissons Ratio (y) = 0.10388 -0.13156
# Poissons Ratio (z) = 0.20386 -0.30245
#
# Static dielectric constant tensor:
#      x y z
#    x 2.070760 0.000000 -0.098760 
#    y 0.000000 1.971710 0.000000 
#    z -0.098760 0.000000 2.037960 
# 
# From -- ./inp_files/191044.got.cif
#   From: 2010.05.17/outbox.cif.g08.bks.cpg/sg15_96_cif.got.tgz:191044.got - 2010.06.03 18:47:42.
