data_PCOD9264766
_publ_section_title
;
Structure prediction by ZEFSAII (Michael W. Deem and Ramdas Pophale) SiO2 
 PCOD9264766
Probable space group: C 2/C
;
_chemical_formula_sum "Si O2"
_cell_formula_units_Z 56
_cell_length_a 11.977989
_cell_length_b 20.698119
_cell_length_c 11.080550
_cell_angle_alpha 90.000000
_cell_angle_beta 114.138074
_cell_angle_gamma 90.000000
_cell_volume 2506.910267
_symmetry_space_group_name_H-M "C 2/C"
_symmetry_group_IT_number 15
_symmetry_cell_setting 'monoclinic'
loop_
_space_group_symop_operation_xyz
x,y,z
-x,y,1/2-z
-x,-y,-z
x,-y,1/2+z
1/2+x,1/2+y,z
1/2-x,1/2+y,1/2-z
1/2-x,1/2-y,-z
1/2+x,1/2-y,1/2+z
loop_
_atom_site_type_symbol
_atom_site_label
_atom_site_fract_x
_atom_site_fract_y
_atom_site_fract_z
Si Si1 0.944888 0.719338 0.055865
Si Si2 0.855673 0.182610 0.179057
Si Si3 0.773936 0.048690 0.229525
Si Si4 0.670424 0.699024 0.593782
Si Si5 0.686944 0.673202 0.857922
Si Si6 0.220853 0.957768 0.482956
Si Si7 0.000528 0.425061 0.883750
O O1 0.890609 0.764884 0.135921
O O2 0.045366 0.760078 0.029931
O O3 0.004595 0.652518 0.122315
O O4 0.826457 0.696843 0.930104
O O5 0.823371 0.122226 0.249064
O O6 0.777012 0.247805 0.162129
O O7 0.000000 0.194575 0.250000
O O8 0.816096 0.162468 0.025363
O O9 0.787125 0.025561 0.376518
O O10 0.630858 0.054220 0.127255
O O11 0.828605 0.005989 0.143296
O O12 0.662370 0.655889 0.708948
O O13 0.662787 0.613073 0.934365
O O14 0.364571 0.943737 0.512704
O O15 0.000000 0.453058 0.750000
#
# Coordination Sequence:
#
# PCOD9264766 Si02
#       7
#     8   8   8   8   8   8   8
#     4  10  19  35  63 100 133 159 203 263 329 395
#     4  11  26  42  64  91 129 177 215 270 329 389
#     4  11  23  44  65  89 131 172 224 270 318 385
#     4  11  22  40  65  93 133 165 211 264 332 398
#     4  10  22  35  65 102 132 164 209 264 325 400
#     4  10  24  39  67  93 128 174 217 269 318 389
#     4   9  17  35  64  97 125 165 209 266 331 378
#
# _framework density 22.338256000000001
#
# number of rings (size 3 to 8) (size 9 to 14) (size 15 to 20)
#    0.000    1.714    1.429    2.571   10.000    0.000 
#    0.000    2.143    0.000    0.000    0.000    0.000 
#    0.000    0.000    0.000    0.000    0.000    0.000 
#
# Total GULP energy -156059.761543 kJ/mol
# GULP energy per Si atom -5573.562912 kJ/mol
# Density = 2.228741 g / cm^3
# Si number density = 22.338256 Si / 1000 Ang^3
#
#
#
# Elastic Constant Matrix: (Units=GPa)
#
#
# Indices 1 2 3 4 5 6 
#
# 1 59.8790 13.7437 6.1848 0.0000 1.0952 0.0000
# 2 13.7437 51.0520 40.2130 0.0000 -5.1348 0.0000
# 3 6.1848 40.2130 115.9092 0.0000 -26.3407 0.0000
# 4 0.0000 0.0000 0.0000 21.3162 0.0000 -10.9905
# 5 1.0952 -5.1348 -26.3407 0.0000 29.3483 0.0000
# 6 0.0000 0.0000 0.0000 -10.9905 0.0000 22.3562
#
#
#
# Elastic Compliance Matrix: (Units=1/GPa)
#
#
# Indices 1 2 3 4 5 6 
#
# 1 0.017903 -0.005492 0.000728 0.000000 -0.000975 0.000000
# 2 -0.005492 0.029146 -0.010820 0.000000 -0.004407 0.000000
# 3 0.000728 -0.010820 0.014957 0.000000 0.011504 0.000000
# 4 0.000000 0.000000 0.000000 0.062841 0.000000 0.030893
# 5 -0.000975 -0.004407 0.011504 0.000000 0.043664 0.000000
# 6 0.000000 0.000000 0.000000 0.030893 0.000000 0.059918
#
#
# Mechanical properties :
#
#
# Convention : Reuss Voigt Hill
#
# Bulk Modulus (GPa) = 32.42640 38.56926 35.49783
# Shear Modulus (GPa) = 18.52708 25.71738 22.12223
#
# Velocity S-wave (km/s) = 2.88303 3.39672 3.15036
# Velocity P-wave (km/s) = 5.06262 5.71726 5.39987
#
# Compressibility (1/GPa) = 0.03083907
#
# Stress axis : x y z
#
# Youngs Moduli (GPa) = 55.85532 34.31004 66.85927
#
# Poissons Ratio (x) = 0.18841 -0.04869
# Poissons Ratio (y) = 0.30673 0.72344
# Poissons Ratio (z) = -0.04068 0.37124
#
# Static dielectric constant tensor:
#      x y z
#    x 1.877940 0.000000 -0.006070 
#    y 0.000000 1.809020 0.000000 
#    z -0.006070 0.000000 1.917430 
# 
# From -- ./inp_files/89668.got.cif
#   From: 2010.05.17/outbox.cif.g08.bks.cpg/sg15_45_cif.got.tgz:89668.got - 2010.06.03 18:47:42.
