data_PCOD9264668
_publ_section_title
;
Structure prediction by ZEFSAII (Michael W. Deem and Ramdas Pophale) SiO2 
 PCOD9264668
Probable space group: C 2/C
;
_chemical_formula_sum "Si O2"
_cell_formula_units_Z 56
_cell_length_a 5.663039
_cell_length_b 28.160853
_cell_length_c 17.714325
_cell_angle_alpha 90.000000
_cell_angle_beta 114.606848
_cell_angle_gamma 90.000000
_cell_volume 2568.460390
_symmetry_space_group_name_H-M "C 2/C"
_symmetry_group_IT_number 15
_symmetry_cell_setting 'monoclinic'
loop_
_space_group_symop_operation_xyz
x,y,z
-x,y,1/2-z
-x,-y,-z
x,-y,1/2+z
1/2+x,1/2+y,z
1/2-x,1/2+y,1/2-z
1/2-x,1/2-y,-z
1/2+x,1/2-y,1/2+z
loop_
_atom_site_type_symbol
_atom_site_label
_atom_site_fract_x
_atom_site_fract_y
_atom_site_fract_z
Si Si1 0.565577 0.554583 0.491987
Si Si2 0.750942 0.149932 0.639148
Si Si3 0.054182 0.205278 0.482254
Si Si4 0.443718 0.756933 0.657640
Si Si5 0.266503 0.371444 0.369798
Si Si6 0.018161 0.601537 0.455804
Si Si7 0.188710 0.174522 0.342126
O O1 0.500000 0.500000 0.500000
O O2 0.702986 0.579556 0.581519
O O3 0.275973 0.577496 0.455732
O O4 0.776808 0.567731 0.453306
O O5 0.828077 0.205043 0.654458
O O6 0.536526 0.139405 0.673328
O O7 0.610219 0.132534 0.541905
O O8 0.031248 0.125679 0.671266
O O9 0.250000 0.250000 0.500000
O O10 0.121451 0.172431 0.562614
O O11 0.081515 0.172611 0.411918
O O12 0.761017 0.222366 0.430148
O O13 0.500000 0.776895 0.750000
O O14 0.717056 0.771093 0.657176
O O15 0.918505 0.637016 0.377991
O O16 0.000000 0.162216 0.250000
#
# Coordination Sequence:
#
# PCOD9264668 Si02
#       7
#     8   8   8   8   8   8   8
#     4  10  19  35  61  91 113 137 184 254 304 358
#     4  10  20  36  54  77 111 151 198 241 290 348
#     4  12  21  37  56  77 116 161 202 243 290 347
#     4  12  24  34  52  81 115 160 209 254 287 347
#     4  10  20  35  57  82 111 145 196 232 302 349
#     4  10  21  38  58  85 119 151 196 240 315 360
#     4  12  24  37  53  83 124 167 203 251 301 369
#
# _framework density 21.802945000000001
#
# number of rings (size 3 to 8) (size 9 to 14) (size 15 to 20)
#    0.000    1.143    5.714    3.000    0.000    1.714 
#    0.000    0.000    0.000    0.000    0.000   24.000 
#    0.000    0.000    0.000    0.000    0.000    0.000 
#
# Total GULP energy -155957.472285 kJ/mol
# GULP energy per Si atom -5569.909724 kJ/mol
# Density = 2.175332 g / cm^3
# Si number density = 21.802945 Si / 1000 Ang^3
#
#
#
# Elastic Constant Matrix: (Units=GPa)
#
#
# Indices 1 2 3 4 5 6 
#
# 1 159.5720 30.6223 47.2878 0.0000 10.5389 0.0000
# 2 30.6223 99.6846 27.1770 0.0000 14.7036 0.0000
# 3 47.2878 27.1770 122.8055 0.0000 19.1813 0.0000
# 4 0.0000 0.0000 0.0000 4.0560 0.0000 6.4459
# 5 10.5389 14.7036 19.1813 0.0000 37.6987 0.0000
# 6 0.0000 0.0000 0.0000 6.4459 0.0000 37.1404
#
#
#
# Elastic Compliance Matrix: (Units=1/GPa)
#
#
# Indices 1 2 3 4 5 6 
#
# 1 0.007299 -0.001549 -0.002437 0.000000 -0.000196 0.000000
# 2 -0.001549 0.011376 -0.001408 0.000000 -0.003288 0.000000
# 3 -0.002437 -0.001408 0.009995 0.000000 -0.003855 0.000000
# 4 0.000000 0.000000 0.000000 0.340445 0.000000 -0.059086
# 5 -0.000196 -0.003288 -0.003855 0.000000 0.029825 0.000000
# 6 0.000000 0.000000 0.000000 -0.059086 0.000000 0.037179
#
#
# Mechanical properties :
#
#
# Convention : Reuss Voigt Hill
#
# Bulk Modulus (GPa) = 55.91870 65.80404 60.86137
# Shear Modulus (GPa) = 11.04074 34.24404 22.64239
#
# Velocity S-wave (km/s) = 2.25275 3.96740 3.22608
# Velocity P-wave (km/s) = 5.69820 7.15778 6.46928
#
# Compressibility (1/GPa) = 0.01788310
#
# Stress axis : x y z
#
# Youngs Moduli (GPa) = 137.00112 87.90326 100.04890
#
# Poissons Ratio (x) = 0.13615 0.24384
# Poissons Ratio (y) = 0.21219 0.14083
# Poissons Ratio (z) = 0.33390 0.12373
#
# Static dielectric constant tensor:
#      x y z
#    x 1.936710 0.000000 0.011280 
#    y 0.000000 1.852640 0.000000 
#    z 0.011280 0.000000 1.882850 
# 
# From -- ./inp_files/186237.got.cif
#   From: 2010.05.17/outbox.cif.g08.bks.cpg/sg15_94_cif.got.tgz:186237.got - 2010.06.03 18:47:42.
