data_PCOD9264083
_publ_section_title
;
Structure prediction by ZEFSAII (Michael W. Deem and Ramdas Pophale) SiO2 
 PCOD9264083
Probable space group: C 2/C
;
_chemical_formula_sum "Si O2"
_cell_formula_units_Z 48
_cell_length_a 7.235601
_cell_length_b 28.549283
_cell_length_c 10.224043
_cell_angle_alpha 90.000000
_cell_angle_beta 95.896389
_cell_angle_gamma 90.000000
_cell_volume 2100.819107
_symmetry_space_group_name_H-M "C 2/C"
_symmetry_group_IT_number 15
_symmetry_cell_setting 'monoclinic'
loop_
_space_group_symop_operation_xyz
x,y,z
-x,y,1/2-z
-x,-y,-z
x,-y,1/2+z
1/2+x,1/2+y,z
1/2-x,1/2+y,1/2-z
1/2-x,1/2-y,-z
1/2+x,1/2-y,1/2+z
loop_
_atom_site_type_symbol
_atom_site_label
_atom_site_fract_x
_atom_site_fract_y
_atom_site_fract_z
Si Si1 0.307920 0.143402 0.963411
Si Si2 0.730718 0.960655 0.415921
Si Si3 0.723552 0.041326 0.615852
Si Si4 0.741659 0.139257 0.023719
Si Si5 0.712697 0.704649 0.717836
Si Si6 0.227192 0.310231 0.774938
O O1 0.219791 0.093215 0.926315
O O2 0.315387 0.172310 0.830374
O O3 0.519105 0.134248 0.019282
O O4 0.221013 0.173588 0.075029
O O5 0.503560 0.959160 0.399086
O O6 0.784834 0.967728 0.269034
O O7 0.802974 0.910660 0.472588
O O8 0.784262 0.002051 0.517937
O O9 0.803379 0.154358 0.171779
O O10 0.776734 0.180869 0.922798
O O11 0.500000 0.704024 0.750000
O O12 0.781207 0.757707 0.737848
O O13 0.000000 0.310096 0.750000
#
# Coordination Sequence:
#
# PCOD9264083 Si02
#       6
#     8   8   8   8   8   8
#     4  10  19  35  55  78 106 137 172 214 263 312
#     4   9  17  28  47  77 105 128 160 208 262 308
#     4   9  17  28  47  77 105 128 160 208 262 308
#     4  10  19  35  55  78 106 137 172 214 263 312
#     4  11  21  35  52  75 105 141 179 215 256 303
#     4   9  20  33  52  79 105 135 175 219 260 303
#
# _framework density 22.848233
#
# number of rings (size 3 to 8) (size 9 to 14) (size 15 to 20)
#    0.000    2.333    1.667    1.500    2.333    0.000 
#    0.000    2.500    0.000    1.000    0.000    0.000 
#    0.000    0.000    0.000    0.000    0.000    0.000 
#
# Total GULP energy -134184.287913 kJ/mol
# GULP energy per Si atom -5591.011996 kJ/mol
# Density = 2.279623 g / cm^3
# Si number density = 22.848233 Si / 1000 Ang^3
#
#
#
# Elastic Constant Matrix: (Units=GPa)
#
#
# Indices 1 2 3 4 5 6 
#
# 1 66.9302 7.2469 4.7541 0.0000 -11.6757 0.0000
# 2 7.2469 167.3561 96.2109 0.0000 -2.7008 0.0000
# 3 4.7541 96.2109 159.8398 0.0000 -6.8286 0.0000
# 4 0.0000 0.0000 0.0000 67.2323 0.0000 -14.9697
# 5 -11.6757 -2.7008 -6.8286 0.0000 17.1225 0.0000
# 6 0.0000 0.0000 0.0000 -14.9697 0.0000 -3.6871
#
#
#
# Elastic Compliance Matrix: (Units=1/GPa)
#
#
# Indices 1 2 3 4 5 6 
#
# 1 0.017034 -0.000833 0.000494 0.000000 0.011681 0.000000
# 2 -0.000833 0.009188 -0.005563 0.000000 -0.001337 0.000000
# 3 0.000494 -0.005563 0.009733 0.000000 0.003341 0.000000
# 4 0.000000 0.000000 0.000000 0.007812 0.000000 -0.031717
# 5 0.011681 -0.001337 0.003341 0.000000 0.067489 0.000000
# 6 0.000000 0.000000 0.000000 -0.031717 0.000000 -0.142447
#
#
# Mechanical properties :
#
#
# Convention : Reuss Voigt Hill
#
# Bulk Modulus (GPa) = 41.40732 67.83887 54.62309
# Shear Modulus (GPa) = -440.99872 35.19448 -202.90212
#
# Velocity S-wave (km/s) = -13.90795 3.92900 -9.43383
# Velocity P-wave (km/s) = 15.48374 7.09494 9.73160
#
# Compressibility (1/GPa) = 0.02415032
#
# Stress axis : x y z
#
# Youngs Moduli (GPa) = 58.70716 108.84200 102.74820
#
# Poissons Ratio (x) = 0.09066 -0.05073
# Poissons Ratio (y) = 0.04890 0.57154
# Poissons Ratio (z) = -0.02899 0.60544
#
# Static dielectric constant tensor:
#      x y z
#    x 1.318490 0.000000 -0.341120 
#    y 0.000000 1.807710 0.000000 
#    z -0.341120 0.000000 1.583950 
# 
# From -- ./inp_files/26142.got.cif
#   From: 2010.05.17/outbox.cif.g08.bks.cpg/sg15_14_cif.got.tgz:26142.got - 2010.06.03 18:47:42.
