data_PCOD9264173
_publ_section_title
;
Structure prediction by ZEFSAII (Michael W. Deem and Ramdas Pophale) SiO2 
 PCOD9264173
Probable space group: C 2/C
;
_chemical_formula_sum "Si O2"
_cell_formula_units_Z 64
_cell_length_a 19.099091
_cell_length_b 19.717860
_cell_length_c 19.041588
_cell_angle_alpha 90.000000
_cell_angle_beta 30.774822
_cell_angle_gamma 90.000000
_cell_volume 3669.117777
_symmetry_space_group_name_H-M "C 2/C"
_symmetry_group_IT_number 15
_symmetry_cell_setting 'monoclinic'
loop_
_space_group_symop_operation_xyz
x,y,z
-x,y,1/2-z
-x,-y,-z
x,-y,1/2+z
1/2+x,1/2+y,z
1/2-x,1/2+y,1/2-z
1/2-x,1/2-y,-z
1/2+x,1/2-y,1/2+z
loop_
_atom_site_type_symbol
_atom_site_label
_atom_site_fract_x
_atom_site_fract_y
_atom_site_fract_z
Si Si1 0.110286 0.473629 0.098801
Si Si2 0.070272 0.690634 0.389258
Si Si3 0.874394 0.807009 0.575810
Si Si4 0.388913 0.354216 0.403928
Si Si5 0.884511 0.448820 0.569060
Si Si6 0.410607 0.863772 0.892791
Si Si7 0.589473 0.483581 0.605057
Si Si8 0.422326 0.447343 0.616758
O O1 0.084797 0.554310 0.109693
O O2 0.000000 0.448038 0.250000
O O3 0.108387 0.445711 0.021489
O O4 0.256077 0.464553 0.010191
O O5 0.218853 0.712057 0.230969
O O6 0.091279 0.625638 0.420374
O O7 0.986755 0.750776 0.497648
O O8 0.975882 0.665166 0.406466
O O9 0.886865 0.817994 0.480935
O O10 0.905545 0.877101 0.589436
O O11 0.500000 0.334005 0.250000
O O12 0.244516 0.345075 0.489762
O O13 0.411034 0.434280 0.403302
O O14 0.730690 0.469811 0.726665
O O15 0.000000 0.500000 0.500000
O O16 0.500000 0.840518 0.750000
O O17 0.500000 0.468998 0.750000
O O18 0.519338 0.445661 0.601094
O O19 0.500000 0.500000 0.500000
#
# Coordination Sequence:
#
# PCOD9264173 Si02
#       8
#     8   8   8   8   8   8   8   8
#     4  10  21  35  61  91 121 150 191 246 306 354
#     4  11  25  41  59  81 122 162 202 242 291 351
#     4  11  25  42  56  84 120 164 200 243 294 347
#     4  10  21  33  56  87 119 151 197 234 286 356
#     4  11  23  39  61  93 121 156 198 249 303 354
#     4  10  19  35  56  83 119 157 193 237 284 348
#     4  10  19  37  59  90 120 151 193 249 298 353
#     4  11  23  38  64  90 121 156 201 250 298 353
#
# _framework density 17.442885
#
# number of rings (size 3 to 8) (size 9 to 14) (size 15 to 20)
#    0.000    1.500    5.000    0.000    3.500    2.000 
#    0.000    0.000    0.000    1.500    0.000    0.000 
#    0.000    0.000    0.000    0.000    0.000    0.000 
#
# Total GULP energy -178611.405391 kJ/mol
# GULP energy per Si atom -5581.606418 kJ/mol
# Density = 1.740318 g / cm^3
# Si number density = 17.442885 Si / 1000 Ang^3
#
#
#
# Elastic Constant Matrix: (Units=GPa)
#
#
# Indices 1 2 3 4 5 6 
#
# 1 101.4491 35.0422 57.1456 0.0016 6.9999 -0.0007
# 2 35.0422 51.6741 52.4069 0.0001 -5.6203 -0.0008
# 3 57.1456 52.4069 163.8416 -0.0005 -1.9784 -0.0006
# 4 0.0016 0.0001 -0.0005 20.4026 -0.0014 -2.1925
# 5 6.9999 -5.6203 -1.9784 -0.0014 24.3746 0.0011
# 6 -0.0007 -0.0008 -0.0006 -2.1925 0.0011 16.5688
#
#
#
# Elastic Compliance Matrix: (Units=1/GPa)
#
#
# Indices 1 2 3 4 5 6 
#
# 1 0.014458 -0.007824 -0.002615 -0.000002 -0.006168 0.000000
# 2 -0.007824 0.033741 -0.007951 0.000001 0.009382 0.000001
# 3 -0.002615 -0.007951 0.009555 0.000000 -0.000307 0.000000
# 4 -0.000002 0.000001 0.000000 0.049720 0.000003 0.006579
# 5 -0.006168 0.009382 -0.000307 0.000003 0.044936 -0.000002
# 6 0.000000 0.000001 0.000000 0.006579 -0.000002 0.061225
#
#
# Mechanical properties :
#
#
# Convention : Reuss Voigt Hill
#
# Bulk Modulus (GPa) = 47.67287 67.35046 57.51167
# Shear Modulus (GPa) = 19.42461 23.76054 21.59258
#
# Velocity S-wave (km/s) = 3.34070 3.69479 3.52220
# Velocity P-wave (km/s) = 6.50158 7.54306 7.04160
#
# Compressibility (1/GPa) = 0.02097629
#
# Stress axis : x y z
#
# Youngs Moduli (GPa) = 69.16561 29.63737 104.65922
#
# Poissons Ratio (x) = 0.23187 0.27366
# Poissons Ratio (y) = 0.54112 0.83210
# Poissons Ratio (z) = 0.18085 0.23563
#
# Static dielectric constant tensor:
#      x y z
#    x 1.585710 0.000000 -0.003460 
#    y 0.000000 1.605790 0.000000 
#    z -0.003460 0.000000 1.556820 
# 
# From -- ./inp_files/63441.got.cif
#   From: 2010.05.17/outbox.cif.g08.bks.cpg/sg15_32_cif.got.tgz:63441.got - 2010.06.03 18:47:42.
