data_PCOD9264450
_publ_section_title
;
Structure prediction by ZEFSAII (Michael W. Deem and Ramdas Pophale) SiO2 
 PCOD9264450
Probable space group: C 2/C
;
_chemical_formula_sum "Si O2"
_cell_formula_units_Z 64
_cell_length_a 14.761026
_cell_length_b 18.888735
_cell_length_c 22.092941
_cell_angle_alpha 90.000000
_cell_angle_beta 35.284257
_cell_angle_gamma 90.000000
_cell_volume 3558.157883
_symmetry_space_group_name_H-M "C 2/C"
_symmetry_group_IT_number 15
_symmetry_cell_setting 'monoclinic'
loop_
_space_group_symop_operation_xyz
x,y,z
-x,y,1/2-z
-x,-y,-z
x,-y,1/2+z
1/2+x,1/2+y,z
1/2-x,1/2+y,1/2-z
1/2-x,1/2-y,-z
1/2+x,1/2-y,1/2+z
loop_
_atom_site_type_symbol
_atom_site_label
_atom_site_fract_x
_atom_site_fract_y
_atom_site_fract_z
Si Si1 0.433111 0.386968 0.035779
Si Si2 0.169314 0.778251 0.323049
Si Si3 0.145689 0.705567 0.009600
Si Si4 0.657052 0.639966 0.703737
Si Si5 0.678296 0.634249 0.302755
Si Si6 0.043710 0.989081 0.794098
Si Si7 0.819283 0.022612 0.023996
Si Si8 0.498130 0.103016 0.315107
O O1 0.536332 0.350824 0.926601
O O2 0.563739 0.417772 0.011650
O O3 0.305903 0.338364 0.139741
O O4 0.350384 0.453918 0.048482
O O5 0.162620 0.813386 0.260667
O O6 0.268086 0.706299 0.260004
O O7 0.993894 0.755055 0.435495
O O8 0.074528 0.645685 0.090653
O O9 0.250000 0.750000 0.000000
O O10 0.217730 0.668150 0.912201
O O11 0.500000 0.648428 0.750000
O O12 0.654183 0.558318 0.726688
O O13 0.624221 0.574937 0.285142
O O14 0.820835 0.597709 0.263342
O O15 0.000000 0.968365 0.750000
O O16 0.891190 0.010209 0.917625
O O17 0.634814 0.042913 0.124095
O O18 0.500000 0.144164 0.250000
#
# Coordination Sequence:
#
# PCOD9264450 Si02
#       8
#     8   8   8   8   8   8   8   8
#     4  10  19  36  58  83 114 152 200 229 279 345
#     4  11  21  33  53  80 116 146 187 235 286 344
#     4  11  22  30  46  76 118 148 180 220 291 352
#     4  11  20  32  53  79 106 146 188 233 282 350
#     4  10  23  36  58  87 116 154 186 240 294 339
#     4  10  21  40  61  81 110 153 203 236 283 344
#     4  10  19  35  59  84 110 154 191 239 277 341
#     4  11  21  32  52  82 119 146 180 233 291 336
#
# _framework density 17.986834999999999
#
# number of rings (size 3 to 8) (size 9 to 14) (size 15 to 20)
#    0.000    1.500    3.750    3.000    3.500    0.000 
#    0.000    5.625    0.000    8.250    0.000    0.000 
#    0.000    0.000    0.000    0.000    0.000    0.000 
#
# Total GULP energy -178242.293747 kJ/mol
# GULP energy per Si atom -5570.071680 kJ/mol
# Density = 1.794590 g / cm^3
# Si number density = 17.986835 Si / 1000 Ang^3
#
#
#
# Elastic Constant Matrix: (Units=GPa)
#
#
# Indices 1 2 3 4 5 6 
#
# 1 40.5097 22.7296 19.7548 0.0003 14.5917 0.0000
# 2 22.7296 80.1237 50.2300 0.0006 9.8541 -0.0001
# 3 19.7548 50.2300 103.3292 -0.0017 32.2989 0.0006
# 4 0.0003 0.0006 -0.0017 30.5279 0.0004 7.7152
# 5 14.5917 9.8541 32.2989 0.0004 25.5698 -0.0001
# 6 0.0000 -0.0001 0.0006 7.7152 -0.0001 22.3718
#
#
#
# Elastic Compliance Matrix: (Units=1/GPa)
#
#
# Indices 1 2 3 4 5 6 
#
# 1 0.036786 -0.011213 0.005997 0.000001 -0.024246 -0.000001
# 2 -0.011213 0.022111 -0.013123 -0.000002 0.014454 0.000001
# 3 0.005997 -0.013123 0.023794 0.000002 -0.028421 -0.000002
# 4 0.000001 -0.000002 0.000002 0.035884 -0.000004 -0.012375
# 5 -0.024246 0.014454 -0.028421 -0.000004 0.083276 0.000003
# 6 -0.000001 0.000001 -0.000002 -0.012375 0.000003 0.048967
#
#
# Mechanical properties :
#
#
# Convention : Reuss Voigt Hill
#
# Bulk Modulus (GPa) = 21.73265 45.48793 33.61029
# Shear Modulus (GPa) = 16.51069 24.44378 20.47723
#
# Velocity S-wave (km/s) = 3.03303 3.69044 3.37776
# Velocity P-wave (km/s) = 4.93705 6.59572 5.82572
#
# Compressibility (1/GPa) = 0.04601372
#
# Stress axis : x y z
#
# Youngs Moduli (GPa) = 27.18405 45.22689 42.02658
#
# Poissons Ratio (x) = 0.50714 -0.25203
# Poissons Ratio (y) = 0.30482 0.55150
# Poissons Ratio (z) = -0.16302 0.59350
#
# Static dielectric constant tensor:
#      x y z
#    x 1.653680 0.000000 -0.036590 
#    y 0.000000 1.666690 0.000000 
#    z -0.036590 0.000000 1.609170 
# 
# From -- ./inp_files/206447.got.cif
#   From: 2010.05.17/outbox.cif.g08.bks.cpg/sg15_104_cif.got.tgz:206447.got - 2010.06.03 18:47:42.
