data_PCOD9264022
_publ_section_title
;
Structure prediction by ZEFSAII (Michael W. Deem and Ramdas Pophale) SiO2 
 PCOD9264022
Probable space group: C 2/C
;
_chemical_formula_sum "Si O2"
_cell_formula_units_Z 64
_cell_length_a 24.512942
_cell_length_b 21.094228
_cell_length_c 11.831505
_cell_angle_alpha 90.000000
_cell_angle_beta 29.344485
_cell_angle_gamma 90.000000
_cell_volume 2998.111482
_symmetry_space_group_name_H-M "C 2/C"
_symmetry_group_IT_number 15
_symmetry_cell_setting 'monoclinic'
loop_
_space_group_symop_operation_xyz
x,y,z
-x,y,1/2-z
-x,-y,-z
x,-y,1/2+z
1/2+x,1/2+y,z
1/2-x,1/2+y,1/2-z
1/2-x,1/2-y,-z
1/2+x,1/2-y,1/2+z
loop_
_atom_site_type_symbol
_atom_site_label
_atom_site_fract_x
_atom_site_fract_y
_atom_site_fract_z
Si Si1 0.124812 0.404396 0.072265
Si Si2 0.441666 0.796512 0.142068
Si Si3 0.624376 0.536389 0.040060
Si Si4 0.960203 0.831880 0.704397
Si Si5 0.807257 0.115419 0.782222
Si Si6 0.391150 0.129047 0.520622
Si Si7 0.834935 0.486830 0.287875
Si Si8 0.159655 0.621191 0.266228
O O1 0.159991 0.459434 0.095161
O O2 0.000000 0.417014 0.250000
O O3 0.119581 0.341858 0.158147
O O4 0.193933 0.390081 0.834314
O O5 0.410417 0.724505 0.223367
O O6 0.408054 0.814936 0.077603
O O7 0.571424 0.820850 0.919165
O O8 0.500000 0.509847 0.250000
O O9 0.606835 0.605958 0.133271
O O10 0.671175 0.550047 0.829031
O O11 0.708936 0.501186 0.969731
O O12 0.071715 0.854138 0.440802
O O13 0.000000 0.800407 0.750000
O O14 0.712522 0.144206 0.872145
O O15 0.755129 0.123651 0.999793
O O16 0.372450 0.066383 0.630636
O O17 0.500000 0.119004 0.250000
O O18 0.898569 0.553553 0.162766
#
# Coordination Sequence:
#
# PCOD9264022 Si02
#       8
#     8   8   8   8   8   8   8   8
#     4   9  21  35  49  82 117 151 182 212 284 342
#     4  10  20  35  54  81 114 148 182 227 277 349
#     4   8  18  39  63  81 101 146 206 236 271 328
#     4   9  18  38  62  76 105 146 191 237 273 330
#     4   9  19  35  56  84 103 144 190 233 283 329
#     4  10  19  35  53  82 116 141 187 225 281 341
#     4  10  22  35  57  81 113 153 185 232 275 340
#     4  11  21  33  53  81 117 140 180 228 281 339
#
# _framework density 21.346771
#
# number of rings (size 3 to 8) (size 9 to 14) (size 15 to 20)
#    0.000    2.750    1.250    1.125    3.500    6.500 
#    0.000   15.000    0.000    0.000    0.000    0.000 
#    0.000    0.000    0.000    0.000    0.000    0.000 
#
# Total GULP energy -178350.908242 kJ/mol
# GULP energy per Si atom -5573.465883 kJ/mol
# Density = 2.129818 g / cm^3
# Si number density = 21.346771 Si / 1000 Ang^3
#
#
#
# Elastic Constant Matrix: (Units=GPa)
#
#
# Indices 1 2 3 4 5 6 
#
# 1 84.8461 -1.7814 35.7046 0.0000 12.8897 0.0000
# 2 -1.7814 50.3473 12.2067 0.0000 0.7681 0.0000
# 3 35.7046 12.2067 120.8572 0.0000 40.6368 0.0000
# 4 0.0000 0.0000 0.0000 18.8363 0.0000 -2.5252
# 5 12.8897 0.7681 40.6368 0.0000 38.2938 0.0000
# 6 0.0000 0.0000 0.0000 -2.5252 0.0000 19.9054
#
#
#
# Elastic Compliance Matrix: (Units=1/GPa)
#
#
# Indices 1 2 3 4 5 6 
#
# 1 0.013569 0.001469 -0.004060 0.000000 -0.000288 0.000000
# 2 0.001469 0.020709 -0.003451 0.000000 0.002752 0.000000
# 3 -0.004060 -0.003451 0.014521 0.000000 -0.013973 0.000000
# 4 0.000000 0.000000 0.000000 0.054008 0.000000 0.006851
# 5 -0.000288 0.002752 -0.013973 0.000000 0.040984 0.000000
# 6 0.000000 0.000000 0.000000 0.006851 0.000000 0.051107
#
#
# Mechanical properties :
#
#
# Convention : Reuss Voigt Hill
#
# Bulk Modulus (GPa) = 27.23756 38.70116 32.96936
# Shear Modulus (GPa) = 22.80823 29.40182 26.10503
#
# Velocity S-wave (km/s) = 3.27228 3.71528 3.50080
# Velocity P-wave (km/s) = 5.20234 6.04761 5.64083
#
# Compressibility (1/GPa) = 0.03671400
#
# Stress axis : x y z
#
# Youngs Moduli (GPa) = 73.69597 48.28884 68.86782
#
# Poissons Ratio (x) = -0.07093 0.27961
# Poissons Ratio (y) = -0.10825 0.23766
# Poissons Ratio (z) = 0.29922 0.16665
#
# Static dielectric constant tensor:
#      x y z
#    x 1.758410 0.000000 -0.082260 
#    y 0.000000 1.803440 0.000000 
#    z -0.082260 0.000000 1.702650 
# 
# From -- ./inp_files/124440.got.cif
#   From: 2010.05.17/outbox.cif.g08.bks.cpg/sg15_63_cif.got.tgz:124440.got - 2010.06.03 18:47:42.
