data_PCOD9264237
_publ_section_title
;
Structure prediction by ZEFSAII (Michael W. Deem and Ramdas Pophale) SiO2 
 PCOD9264237
Probable space group: C 2/C
;
_chemical_formula_sum "Si O2"
_cell_formula_units_Z 60
_cell_length_a 23.614121
_cell_length_b 23.505610
_cell_length_c 13.766717
_cell_angle_alpha 90.000000
_cell_angle_beta 156.342667
_cell_angle_gamma 90.000000
_cell_volume 3066.237782
_symmetry_space_group_name_H-M "C 2/C"
_symmetry_group_IT_number 15
_symmetry_cell_setting 'monoclinic'
loop_
_space_group_symop_operation_xyz
x,y,z
-x,y,1/2-z
-x,-y,-z
x,-y,1/2+z
1/2+x,1/2+y,z
1/2-x,1/2+y,1/2-z
1/2-x,1/2-y,-z
1/2+x,1/2-y,1/2+z
loop_
_atom_site_type_symbol
_atom_site_label
_atom_site_fract_x
_atom_site_fract_y
_atom_site_fract_z
Si Si1 0.663983 0.956570 0.482930
Si Si2 0.835971 0.416002 0.508526
Si Si3 0.443161 0.087021 0.386047
Si Si4 0.354664 0.317159 0.255760
Si Si5 0.609098 0.376188 0.564111
Si Si6 0.500000 0.529522 0.750000
Si Si7 0.219916 0.691736 0.327052
Si Si8 0.700777 0.024235 0.809932
O O1 0.500000 0.946781 0.250000
O O2 0.763349 0.908472 0.682666
O O3 0.685791 0.961006 0.401047
O O4 0.700830 0.020090 0.580913
O O5 0.839643 0.418275 0.631696
O O6 0.731731 0.365148 0.321391
O O7 0.000000 0.402028 0.750000
O O8 0.410882 0.147646 0.379960
O O9 0.605225 0.074488 0.613800
O O10 0.385244 0.033238 0.355478
O O11 0.510699 0.340948 0.482399
O O12 0.332637 0.255879 0.269737
O O13 0.290773 0.310768 0.045586
O O14 0.520158 0.426792 0.371893
O O15 0.670434 0.333674 0.578467
O O16 0.361864 0.490355 0.541844
#
# Coordination Sequence:
#
# PCOD9264237 Si02
#       8
#     8   8   8   8   8   4   8   8
#     4  10  22  36  59  85 117 160 199 234 287 357
#     4   9  19  33  49  86 120 153 184 233 293 343
#     4   9  17  34  56  77 114 158 191 235 274 354
#     4  10  21  34  56  85 116 149 192 247 291 345
#     4  12  21  38  58  85 119 153 193 243 297 352
#     4  12  22  32  58  92 118 160 182 246 298 352
#     4  10  19  35  57  82 112 153 202 232 292 351
#     4  10  20  34  54  86 117 154 197 234 293 343
#
# _framework density 19.567955000000001
#
# number of rings (size 3 to 8) (size 9 to 14) (size 15 to 20)
#    0.000    1.867    2.667    2.400    5.600    5.333 
#    0.000    0.000    0.000    3.200    0.000    0.000 
#    0.000    0.000    0.000    0.000    0.000    0.000 
#
# Total GULP energy -167277.072989 kJ/mol
# GULP energy per Si atom -5575.902433 kJ/mol
# Density = 1.952342 g / cm^3
# Si number density = 19.567955 Si / 1000 Ang^3
#
#
#
# Elastic Constant Matrix: (Units=GPa)
#
#
# Indices 1 2 3 4 5 6 
#
# 1 53.7686 39.9351 28.2167 0.0000 19.3413 0.0000
# 2 39.9351 142.9889 63.7147 0.0000 30.3829 0.0000
# 3 28.2167 63.7147 91.8239 0.0000 26.7686 0.0000
# 4 0.0000 0.0000 0.0000 21.5913 0.0000 5.2987
# 5 19.3413 30.3829 26.7686 0.0000 38.1507 0.0000
# 6 0.0000 0.0000 0.0000 5.2987 0.0000 24.2231
#
#
#
# Elastic Compliance Matrix: (Units=1/GPa)
#
#
# Indices 1 2 3 4 5 6 
#
# 1 0.026111 -0.004444 -0.002656 0.000000 -0.007835 0.000000
# 2 -0.004444 0.011374 -0.005711 0.000000 -0.002798 0.000000
# 3 -0.002656 -0.005711 0.017538 0.000000 -0.006411 0.000000
# 4 0.000000 0.000000 0.000000 0.048942 0.000000 -0.010706
# 5 -0.007835 -0.002798 -0.006411 0.000000 0.036911 0.000000
# 6 0.000000 0.000000 0.000000 -0.010706 0.000000 0.043625
#
#
# Mechanical properties :
#
#
# Convention : Reuss Voigt Hill
#
# Bulk Modulus (GPa) = 34.01225 61.36825 47.69025
# Shear Modulus (GPa) = 22.73517 27.24066 24.98791
#
# Velocity S-wave (km/s) = 3.41230 3.73514 3.57736
# Velocity P-wave (km/s) = 5.73972 7.07329 6.44111
#
# Compressibility (1/GPa) = 0.02940117
#
# Stress axis : x y z
#
# Youngs Moduli (GPa) = 38.29788 87.91960 57.01837
#
# Poissons Ratio (x) = 0.39074 0.15144
# Poissons Ratio (y) = 0.17021 0.32562
# Poissons Ratio (z) = 0.10172 0.50209
#
# Static dielectric constant tensor:
#      x y z
#    x 1.811050 0.000000 -0.038520 
#    y 0.000000 1.694350 0.000000 
#    z -0.038520 0.000000 1.702680 
# 
# From -- ./inp_files/179133.got.cif
#   From: 2010.05.17/outbox.cif.g08.bks.cpg/sg15_90_cif.got.tgz:179133.got - 2010.06.03 18:47:42.
