data_PCOD9264167
_publ_section_title
;
Structure prediction by ZEFSAII (Michael W. Deem and Ramdas Pophale) SiO2 
 PCOD9264167
Probable space group: C 2/C
;
_chemical_formula_sum "Si O2"
_cell_formula_units_Z 56
_cell_length_a 17.530743
_cell_length_b 8.787377
_cell_length_c 14.621932
_cell_angle_alpha 90.000000
_cell_angle_beta 91.962427
_cell_angle_gamma 90.000000
_cell_volume 2251.176533
_symmetry_space_group_name_H-M "C 2/C"
_symmetry_group_IT_number 15
_symmetry_cell_setting 'monoclinic'
loop_
_space_group_symop_operation_xyz
x,y,z
-x,y,1/2-z
-x,-y,-z
x,-y,1/2+z
1/2+x,1/2+y,z
1/2-x,1/2+y,1/2-z
1/2-x,1/2-y,-z
1/2+x,1/2-y,1/2+z
loop_
_atom_site_type_symbol
_atom_site_label
_atom_site_fract_x
_atom_site_fract_y
_atom_site_fract_z
Si Si1 0.037624 0.279885 0.428187
Si Si2 0.757164 0.898655 0.840694
Si Si3 0.106161 0.709626 0.295256
Si Si4 0.635878 0.222220 0.079959
Si Si5 0.000000 0.561285 0.750000
Si Si6 0.500000 0.457627 0.250000
Si Si7 0.089965 0.064124 0.082373
Si Si8 0.706866 0.256858 0.853021
O O1 0.075531 0.370626 0.515712
O O2 0.118628 0.234402 0.381112
O O3 0.986719 0.347234 0.342616
O O4 0.976853 0.159061 0.466802
O O5 0.682231 0.799904 0.855503
O O6 0.827764 0.858837 0.907401
O O7 0.783647 0.850839 0.739893
O O8 0.732151 0.077817 0.841404
O O9 0.122491 0.724231 0.187506
O O10 0.064819 0.549051 0.291948
O O11 0.050986 0.847301 0.315331
O O12 0.614674 0.395482 0.050901
O O13 0.725124 0.179661 0.077963
O O14 0.555526 0.542498 0.183791
#
# Coordination Sequence:
#
# PCOD9264167 Si02
#       8
#     8   8   8   8   4   4   8   8
#     4  12  21  34  55  86 114 139 191 242 274 333
#     4  10  19  35  56  82 117 143 191 234 281 329
#     4   9  19  36  55  80 107 148 188 225 281 339
#     4   9  21  37  54  77 116 156 179 222 293 347
#     4  11  21  32  56  84 103 139 194 242 272 315
#     4   9  17  34  54  78 109 145 188 218 276 337
#     4  10  20  33  55  86 114 148 182 234 282 328
#     4  10  20  35  58  85 112 154 189 236 281 336
#
# _framework density 24.875882000000001
#
# number of rings (size 3 to 8) (size 9 to 14) (size 15 to 20)
#    0.000    2.000    1.429    3.857    0.000    0.571 
#    0.000    0.000    0.000    0.000    0.000    9.000 
#    0.000    0.000    0.000    0.000    0.000    0.000 
#
# Total GULP energy -155994.446522 kJ/mol
# GULP energy per Si atom -5571.230233 kJ/mol
# Density = 2.481926 g / cm^3
# Si number density = 24.875882 Si / 1000 Ang^3
#
#
#
# Elastic Constant Matrix: (Units=GPa)
#
#
# Indices 1 2 3 4 5 6 
#
# 1 137.0830 25.6062 11.0078 0.0000 36.9460 0.0000
# 2 25.6062 46.1577 3.4498 0.0000 6.8641 0.0000
# 3 11.0078 3.4498 53.8898 0.0000 15.3818 0.0000
# 4 0.0000 0.0000 0.0000 5.7459 0.0000 -4.1505
# 5 36.9460 6.8641 15.3818 0.0000 49.1432 0.0000
# 6 0.0000 0.0000 0.0000 -4.1505 0.0000 7.3381
#
#
#
# Elastic Compliance Matrix: (Units=1/GPa)
#
#
# Indices 1 2 3 4 5 6 
#
# 1 0.009997 -0.004529 0.000233 0.000000 -0.006956 0.000000
# 2 -0.004529 0.024193 -0.000693 0.000000 0.000242 0.000000
# 3 0.000233 -0.000693 0.020398 0.000000 -0.006463 0.000000
# 4 0.000000 0.000000 0.000000 0.294259 0.000000 0.166435
# 5 -0.006956 0.000242 -0.006463 0.000000 0.027567 0.000000
# 6 0.000000 0.000000 0.000000 0.166435 0.000000 0.230412
#
#
# Mechanical properties :
#
#
# Convention : Reuss Voigt Hill
#
# Bulk Modulus (GPa) = 22.41592 35.25090 28.83341
# Shear Modulus (GPa) = 7.91549 25.58322 16.74936
#
# Velocity S-wave (km/s) = 1.78575 3.21040 2.59765
# Velocity P-wave (km/s) = 3.64452 5.28618 4.54017
#
# Compressibility (1/GPa) = 0.04461115
#
# Stress axis : x y z
#
# Youngs Moduli (GPa) = 100.03160 41.33431 49.02479
#
# Poissons Ratio (x) = 0.18719 -0.01144
# Poissons Ratio (y) = 0.45302 0.03397
# Poissons Ratio (z) = -0.02335 0.02864
#
# Static dielectric constant tensor:
#      x y z
#    x 2.207500 0.000000 0.123420 
#    y 0.000000 2.108780 0.000000 
#    z 0.123420 0.000000 2.111810 
# 
# From -- ./inp_files/209672.got.cif
#   From: 2010.05.17/outbox.cif.g08.bks.cpg/sg15_105_cif.got.tgz:209672.got - 2010.06.03 18:47:42.
