data_PCOD9264011
_publ_section_title
;
Structure prediction by ZEFSAII (Michael W. Deem and Ramdas Pophale) SiO2 
 PCOD9264011
Probable space group: C 2/C
;
_chemical_formula_sum "Si O2"
_cell_formula_units_Z 60
_cell_length_a 12.458217
_cell_length_b 7.287495
_cell_length_c 28.409234
_cell_angle_alpha 90.000000
_cell_angle_beta 68.089783
_cell_angle_gamma 90.000000
_cell_volume 2392.951425
_symmetry_space_group_name_H-M "C 2/C"
_symmetry_group_IT_number 15
_symmetry_cell_setting 'monoclinic'
loop_
_space_group_symop_operation_xyz
x,y,z
-x,y,1/2-z
-x,-y,-z
x,-y,1/2+z
1/2+x,1/2+y,z
1/2-x,1/2+y,1/2-z
1/2-x,1/2-y,-z
1/2+x,1/2-y,1/2+z
loop_
_atom_site_type_symbol
_atom_site_label
_atom_site_fract_x
_atom_site_fract_y
_atom_site_fract_z
Si Si1 0.343560 0.858942 0.551873
Si Si2 0.500000 0.164804 0.750000
Si Si3 0.267156 0.461045 0.339775
Si Si4 0.280786 0.525053 0.079070
Si Si5 0.943672 0.223343 0.107527
Si Si6 0.247524 0.368086 0.191215
Si Si7 0.987381 0.000308 0.682107
Si Si8 0.918114 0.566029 0.447841
O O1 0.264870 0.960169 0.603211
O O2 0.297922 0.658758 0.546220
O O3 0.364982 0.991282 0.504829
O O4 0.467020 0.822980 0.557873
O O5 0.377524 0.063837 0.770845
O O6 0.495150 0.304447 0.706838
O O7 0.169501 0.308470 0.347108
O O8 0.256693 0.645856 0.310700
O O9 0.399938 0.393735 0.317909
O O10 0.393312 0.649953 0.066712
O O11 0.259150 0.447341 0.135805
O O12 0.178148 0.638906 0.071928
O O13 0.999698 0.056026 0.125777
O O14 0.030925 0.387513 0.087006
O O15 0.359233 0.416940 0.204215
#
# Coordination Sequence:
#
# PCOD9264011 Si02
#       8
#     8   4   8   8   8   8   8   8
#     4   9  19  34  53  78 109 146 183 224 271 309
#     4  10  20  36  58  82 108 132 166 218 268 316
#     4   9  19  37  55  75 107 144 178 216 264 314
#     4  10  20  35  54  79 106 141 183 218 264 320
#     4  10  21  34  55  81 104 142 185 217 262 319
#     4   9  20  38  58  79 106 139 171 213 267 318
#     4  10  21  38  57  80 108 137 174 216 263 320
#     4  10  19  35  53  76 112 145 181 228 268 308
#
# _framework density 25.073640000000001
#
# number of rings (size 3 to 8) (size 9 to 14) (size 15 to 20)
#    0.000    2.400    0.000    2.800    0.000    6.933 
#    0.000   12.667    0.000    1.600    0.000    0.000 
#    0.000    0.000    0.000    0.000    0.000    0.000 
#
# Total GULP energy -167634.488230 kJ/mol
# GULP energy per Si atom -5587.816274 kJ/mol
# Density = 2.501657 g / cm^3
# Si number density = 25.073640 Si / 1000 Ang^3
#
#
#
# Elastic Constant Matrix: (Units=GPa)
#
#
# Indices 1 2 3 4 5 6 
#
# 1 174.7156 14.2534 16.7703 0.0000 6.4507 0.0000
# 2 14.2534 51.6542 -10.5417 0.0000 4.1530 0.0000
# 3 16.7703 -10.5417 30.7302 0.0000 0.7060 0.0000
# 4 0.0000 0.0000 0.0000 -2.2686 0.0000 10.3156
# 5 6.4507 4.1530 0.7060 0.0000 32.5519 0.0000
# 6 0.0000 0.0000 0.0000 10.3156 0.0000 31.0693
#
#
#
# Elastic Compliance Matrix: (Units=1/GPa)
#
#
# Indices 1 2 3 4 5 6 
#
# 1 0.006383 -0.002581 -0.004349 0.000000 -0.000841 0.000000
# 2 -0.002581 0.022121 0.009055 0.000000 -0.002507 0.000000
# 3 -0.004349 0.009055 0.038047 0.000000 -0.001118 0.000000
# 4 0.000000 0.000000 0.000000 -0.175636 0.000000 0.058314
# 5 -0.000841 -0.002507 -0.001118 0.000000 0.031231 0.000000
# 6 0.000000 0.000000 0.000000 0.058314 0.000000 0.012825
#
#
# Mechanical properties :
#
#
# Convention : Reuss Voigt Hill
#
# Bulk Modulus (GPa) = 14.12453 33.11824 23.62139
# Shear Modulus (GPa) = -109.46117 28.04505 -40.70806
#
# Velocity S-wave (km/s) = -6.61443 3.34804 -4.03369
# Velocity P-wave (km/s) = 7.25870 5.30875 3.50042
#
# Compressibility (1/GPa) = 0.07079880
#
# Stress axis : x y z
#
# Youngs Moduli (GPa) = 156.67348 45.20540 26.28356
#
# Poissons Ratio (x) = 0.11669 0.11432
# Poissons Ratio (y) = 0.40441 -0.23799
# Poissons Ratio (z) = 0.68143 -0.40932
#
# Static dielectric constant tensor:
#      x y z
#    x 2.025960 0.000000 0.020440 
#    y 0.000000 1.959530 0.000000 
#    z 0.020440 0.000000 2.042410 
# 
# From -- ./inp_files/309968.got.cif
#   From: 2010.05.17/outbox.cif.g08.bks.cpg/sg15_155_cif.got.tgz:309968.got - 2010.06.03 18:47:42.
