data_PCOD9264036
_publ_section_title
;
Structure prediction by ZEFSAII (Michael W. Deem and Ramdas Pophale) SiO2 
 PCOD9264036
Probable space group: C 2/C
;
_chemical_formula_sum "Si O2"
_cell_formula_units_Z 40
_cell_length_a 25.357075
_cell_length_b 4.918008
_cell_length_c 21.121572
_cell_angle_alpha 90.000000
_cell_angle_beta 127.132007
_cell_angle_gamma 90.000000
_cell_volume 2099.942621
_symmetry_space_group_name_H-M "C 2/C"
_symmetry_group_IT_number 15
_symmetry_cell_setting 'monoclinic'
loop_
_space_group_symop_operation_xyz
x,y,z
-x,y,1/2-z
-x,-y,-z
x,-y,1/2+z
1/2+x,1/2+y,z
1/2-x,1/2+y,1/2-z
1/2-x,1/2-y,-z
1/2+x,1/2-y,1/2+z
loop_
_atom_site_type_symbol
_atom_site_label
_atom_site_fract_x
_atom_site_fract_y
_atom_site_fract_z
Si Si1 0.422627 0.823150 0.913489
Si Si2 0.238526 0.003037 0.906026
Si Si3 0.438590 0.681548 0.513610
Si Si4 0.289319 0.395117 0.255382
Si Si5 0.320214 0.515818 0.004377
O O1 0.440585 0.613325 0.982477
O O2 0.358013 0.720803 0.831060
O O3 0.412587 0.112201 0.940215
O O4 0.488846 0.801242 0.918630
O O5 0.300525 0.794716 0.954755
O O6 0.207682 0.003141 0.814491
O O7 0.264809 0.302369 0.941334
O O8 0.189499 0.929373 0.928133
O O9 0.388449 0.627052 0.534473
O O10 0.262763 0.647439 0.277170
#
# Coordination Sequence:
#
# PCOD9264036 Si02
#       5
#     8   8   8   8   8
#     4  10  21  33  52  79 103 134 177 214 261 322
#     4  10  21  33  52  79 103 134 177 214 261 322
#     4  10  19  35  54  74 103 138 175 216 258 312
#     4  12  22  34  53  78 109 136 168 222 276 318
#     4  10  19  35  54  74 103 138 175 216 258 312
#
# _framework density 19.048138000000002
#
# number of rings (size 3 to 8) (size 9 to 14) (size 15 to 20)
#    0.000    1.600    0.000    7.200    0.000    0.000 
#    0.000    1.000    0.000    0.000    0.000   19.600 
#    0.000    0.000    0.000    0.000    0.000    0.000 
#
# Total GULP energy -111597.769720 kJ/mol
# GULP energy per Si atom -5579.888486 kJ/mol
# Density = 1.900478 g / cm^3
# Si number density = 19.048138 Si / 1000 Ang^3
#
#
#
# Elastic Constant Matrix: (Units=GPa)
#
#
# Indices 1 2 3 4 5 6 
#
# 1 120.1424 7.2422 41.6354 0.0001 9.4702 -0.0027
# 2 7.2422 87.2017 3.0217 -0.0011 2.5755 -0.0006
# 3 41.6354 3.0217 77.6077 0.0009 7.3887 -0.0017
# 4 0.0001 -0.0011 0.0009 22.4686 0.0000 -0.6673
# 5 9.4702 2.5755 7.3887 0.0000 23.6558 0.0003
# 6 -0.0027 -0.0006 -0.0017 -0.6673 0.0003 22.9210
#
#
#
# Elastic Compliance Matrix: (Units=1/GPa)
#
#
# Indices 1 2 3 4 5 6 
#
# 1 0.010396 -0.000607 -0.005322 0.000000 -0.002434 0.000001
# 2 -0.000607 0.011549 -0.000028 0.000001 -0.001005 0.000000
# 3 -0.005322 -0.000028 0.016015 -0.000001 -0.002868 0.000001
# 4 0.000000 0.000001 -0.000001 0.044545 0.000000 0.001297
# 5 -0.002434 -0.001005 -0.002868 0.000000 0.044253 -0.000001
# 6 0.000001 0.000000 0.000001 0.001297 -0.000001 0.043666
#
#
# Mechanical properties :
#
#
# Convention : Reuss Voigt Hill
#
# Bulk Modulus (GPa) = 38.39531 43.19449 40.79490
# Shear Modulus (GPa) = 26.17528 29.34590 27.76059
#
# Velocity S-wave (km/s) = 3.71099 3.92933 3.82172
# Velocity P-wave (km/s) = 6.20989 6.58118 6.39823
#
# Compressibility (1/GPa) = 0.02604485
#
# Stress axis : x y z
#
# Youngs Moduli (GPa) = 96.18843 86.58934 62.44246
#
# Poissons Ratio (x) = 0.05257 0.33233
# Poissons Ratio (y) = 0.05840 0.00176
# Poissons Ratio (z) = 0.51193 0.00244
#
# Static dielectric constant tensor:
#      x y z
#    x 1.765540 0.000000 0.019220 
#    y 0.000000 1.671190 0.000000 
#    z 0.019220 0.000000 1.631400 
# 
# From -- ./inp_files/253901.got.cif
#   From: 2010.05.17/outbox.cif.g08.bks.cpg/sg15_127_cif.got.tgz:253901.got - 2010.06.03 18:47:42.
