data_PCOD9264691
_publ_section_title
;
Structure prediction by ZEFSAII (Michael W. Deem and Ramdas Pophale) SiO2 
 PCOD9264691
Probable space group: C 2/C
;
_chemical_formula_sum "Si O2"
_cell_formula_units_Z 52
_cell_length_a 5.179968
_cell_length_b 18.771155
_cell_length_c 20.599871
_cell_angle_alpha 90.000000
_cell_angle_beta 89.320662
_cell_angle_gamma 90.000000
_cell_volume 2002.866700
_symmetry_space_group_name_H-M "C 2/C"
_symmetry_group_IT_number 15
_symmetry_cell_setting 'monoclinic'
loop_
_space_group_symop_operation_xyz
x,y,z
-x,y,1/2-z
-x,-y,-z
x,-y,1/2+z
1/2+x,1/2+y,z
1/2-x,1/2+y,1/2-z
1/2-x,1/2-y,-z
1/2+x,1/2-y,1/2+z
loop_
_atom_site_type_symbol
_atom_site_label
_atom_site_fract_x
_atom_site_fract_y
_atom_site_fract_z
Si Si1 0.000000 0.412072 0.250000
Si Si2 0.129951 0.386739 0.388392
Si Si3 0.492387 0.617352 0.504912
Si Si4 0.715809 0.008398 0.062326
Si Si5 0.237955 0.302859 0.706166
Si Si6 0.928479 0.246561 0.064513
Si Si7 0.313244 0.459402 0.693858
O O1 0.121550 0.373855 0.311441
O O2 0.202642 0.466905 0.219708
O O3 0.403020 0.371435 0.422045
O O4 0.955231 0.324489 0.421947
O O5 0.023127 0.466366 0.403776
O O6 0.757797 0.584752 0.471529
O O7 0.305846 0.550060 0.510364
O O8 0.396850 0.680460 0.459058
O O9 0.908720 0.021583 0.122306
O O10 0.500000 0.295467 0.750000
O O11 0.294883 0.272486 0.633741
O O12 0.155386 0.385783 0.689304
O O13 0.000000 0.273341 0.750000
O O14 0.750000 0.250000 0.000000
O O15 0.500000 0.438393 0.750000
#
# Coordination Sequence:
#
# PCOD9264691 Si02
#       7
#     4   8   8   8   8   8   8
#     4  10  20  36  60  88 126 160 226 280 362 418
#     4  10  22  38  58  86 125 169 217 283 347 423
#     4  10  20  39  59  88 126 166 227 277 352 412
#     4  10  20  36  60  90 124 165 226 279 350 408
#     4  11  24  47  72 105 140 189 242 302 362 440
#     4  10  23  46  64  96 138 185 242 293 369 440
#     4  10  19  35  61  94 127 167 223 287 356 416
#
# _framework density 25.962783999999999
#
# number of rings (size 3 to 8) (size 9 to 14) (size 15 to 20)
#    0.000    1.846    2.308    1.385    1.077    0.615 
#   11.077    0.769    0.000    0.000    0.000    0.000 
#    0.000    0.000    0.000    0.000    0.000    0.000 
#
# Total GULP energy -144744.305440 kJ/mol
# GULP energy per Si atom -5567.088671 kJ/mol
# Density = 2.590369 g / cm^3
# Si number density = 25.962784 Si / 1000 Ang^3
#
#
#
# Elastic Constant Matrix: (Units=GPa)
#
#
# Indices 1 2 3 4 5 6 
#
# 1 61.6457 -7.3052 34.1402 0.0000 -1.4693 0.0000
# 2 -7.3052 98.0542 39.7953 0.0000 4.3778 0.0000
# 3 34.1402 39.7953 216.1137 0.0000 9.7874 0.0000
# 4 0.0000 0.0000 0.0000 -34.5629 0.0000 24.8870
# 5 -1.4693 4.3778 9.7874 0.0000 31.2303 0.0000
# 6 0.0000 0.0000 0.0000 24.8870 0.0000 14.4830
#
#
#
# Elastic Compliance Matrix: (Units=1/GPa)
#
#
# Indices 1 2 3 4 5 6 
#
# 1 0.018522 0.002730 -0.003500 0.000000 0.001586 0.000000
# 2 0.002730 0.011451 -0.002508 0.000000 -0.000691 0.000000
# 3 -0.003500 -0.002508 0.005715 0.000000 -0.001604 0.000000
# 4 0.000000 0.000000 0.000000 -0.012932 0.000000 0.022222
# 5 0.001586 -0.000691 -0.001604 0.000000 0.032694 0.000000
# 6 0.000000 0.000000 0.000000 0.022222 0.000000 0.030861
#
#
# Mechanical properties :
#
#
# Convention : Reuss Voigt Hill
#
# Bulk Modulus (GPa) = 34.33045 56.56380 45.44712
# Shear Modulus (GPa) = 48.74312 22.84230 35.79271
#
# Velocity S-wave (km/s) = 4.33762 2.96938 3.71700
# Velocity P-wave (km/s) = 6.19179 5.79569 5.99701
#
# Compressibility (1/GPa) = 0.02912866
#
# Stress axis : x y z
#
# Youngs Moduli (GPa) = 53.99119 87.33087 174.98689
#
# Poissons Ratio (x) = -0.23839 0.61252
# Poissons Ratio (y) = -0.14738 0.43895
# Poissons Ratio (z) = 0.18899 0.21907
#
# Static dielectric constant tensor:
#      x y z
#    x 2.150410 0.000000 -0.046310 
#    y 0.000000 2.209830 0.000000 
#    z -0.046310 0.000000 1.867220 
# 
# From -- ./inp_files/227554.got.cif
#   From: 2010.05.17/outbox.cif.g08.bks.cpg/sg15_114_cif.got.tgz:227554.got - 2010.06.03 18:47:42.
