data_PCOD9264555
_publ_section_title
;
Structure prediction by ZEFSAII (Michael W. Deem and Ramdas Pophale) SiO2 
 PCOD9264555
Probable space group: C 2/C
;
_chemical_formula_sum "Si O2"
_cell_formula_units_Z 44
_cell_length_a 10.475674
_cell_length_b 9.444000
_cell_length_c 25.243201
_cell_angle_alpha 90.000000
_cell_angle_beta 118.617740
_cell_angle_gamma 90.000000
_cell_volume 2192.275512
_symmetry_space_group_name_H-M "C 2/C"
_symmetry_group_IT_number 15
_symmetry_cell_setting 'monoclinic'
loop_
_space_group_symop_operation_xyz
x,y,z
-x,y,1/2-z
-x,-y,-z
x,-y,1/2+z
1/2+x,1/2+y,z
1/2-x,1/2+y,1/2-z
1/2-x,1/2-y,-z
1/2+x,1/2-y,1/2+z
loop_
_atom_site_type_symbol
_atom_site_label
_atom_site_fract_x
_atom_site_fract_y
_atom_site_fract_z
Si Si1 0.301627 0.475937 0.934287
Si Si2 0.541461 0.027171 0.150976
Si Si3 0.262245 0.053763 0.464430
Si Si4 0.000000 0.604318 0.750000
Si Si5 0.061151 0.317854 0.063138
Si Si6 0.247556 0.757587 0.865353
O O1 0.390394 0.342171 0.932174
O O2 0.323466 0.619642 0.905790
O O3 0.129098 0.441723 0.892653
O O4 0.324495 0.506688 0.001029
O O5 0.639330 0.149148 0.145296
O O6 0.566714 0.994361 0.217337
O O7 0.573958 0.885064 0.123872
O O8 0.397014 0.150381 0.511697
O O9 0.191658 0.144668 0.403161
O O10 0.335753 0.914563 0.453615
O O11 0.880819 0.700180 0.697009
#
# Coordination Sequence:
#
# PCOD9264555 Si02
#       6
#     8   8   8   4   8   8
#     4  10  19  35  60  83 113 151 176 216 282 335
#     4   9  21  40  56  79 111 143 188 235 275 326
#     4   9  18  34  55  86 120 144 176 221 272 334
#     4  10  22  40  60  74 106 152 188 236 286 314
#     4   9  18  34  58  86 117 147 176 221 276 333
#     4  10  21  38  58  81 110 145 188 233 272 324
#
# _framework density 20.070468999999999
#
# number of rings (size 3 to 8) (size 9 to 14) (size 15 to 20)
#    0.000    2.545    0.000    2.182    0.000    3.636 
#    0.000   16.364    0.000    2.182    0.000    0.000 
#    0.000    0.000    0.000    0.000    0.000    0.000 
#
# Total GULP energy -122979.692509 kJ/mol
# GULP energy per Si atom -5589.986023 kJ/mol
# Density = 2.002479 g / cm^3
# Si number density = 20.070469 Si / 1000 Ang^3
#
#
#
# Elastic Constant Matrix: (Units=GPa)
#
#
# Indices 1 2 3 4 5 6 
#
# 1 68.8080 51.3695 35.4689 0.0000 -20.7664 0.0000
# 2 51.3695 102.0818 31.1909 0.0000 -13.8805 0.0000
# 3 35.4689 31.1909 109.3197 0.0000 -30.5584 0.0000
# 4 0.0000 0.0000 0.0000 20.0290 0.0000 -3.9593
# 5 -20.7664 -13.8805 -30.5584 0.0000 31.8588 0.0000
# 6 0.0000 0.0000 0.0000 -3.9593 0.0000 40.9516
#
#
#
# Elastic Compliance Matrix: (Units=1/GPa)
#
#
# Indices 1 2 3 4 5 6 
#
# 1 0.027891 -0.011772 -0.002791 0.000000 0.010375 0.000000
# 2 -0.011772 0.015834 -0.001250 0.000000 -0.001974 0.000000
# 3 -0.002791 -0.001250 0.013320 0.000000 0.010413 0.000000
# 4 0.000000 0.000000 0.000000 0.050900 0.000000 0.004921
# 5 0.010375 -0.001974 0.010413 0.000000 0.047279 0.000000
# 6 0.000000 0.000000 0.000000 0.004921 0.000000 0.024895
#
#
# Mechanical properties :
#
#
# Convention : Reuss Voigt Hill
#
# Bulk Modulus (GPa) = 39.33873 57.36312 48.35092
# Shear Modulus (GPa) = 22.70475 29.37988 26.04232
#
# Velocity S-wave (km/s) = 3.36706 3.83016 3.60605
# Velocity P-wave (km/s) = 5.89567 6.94284 6.44058
#
# Compressibility (1/GPa) = 0.02542024
#
# Stress axis : x y z
#
# Youngs Moduli (GPa) = 35.85332 63.15705 75.07347
#
# Poissons Ratio (x) = 0.74349 0.20949
# Poissons Ratio (y) = 0.42207 0.09383
# Poissons Ratio (z) = 0.10005 0.07894
#
# Static dielectric constant tensor:
#      x y z
#    x 1.733330 0.000000 -0.004930 
#    y 0.000000 1.693740 0.000000 
#    z -0.004930 0.000000 1.706090 
# 
# From -- ./inp_files/236114.got.cif
#   From: 2010.05.17/outbox.cif.g08.bks.cpg/sg15_119_cif.got.tgz:236114.got - 2010.06.03 18:47:42.
