data_PCOD9264389
_publ_section_title
;
Structure prediction by ZEFSAII (Michael W. Deem and Ramdas Pophale) SiO2 
 PCOD9264389
Probable space group: C 2/C
;
_chemical_formula_sum "Si O2"
_cell_formula_units_Z 40
_cell_length_a 12.663310
_cell_length_b 14.403245
_cell_length_c 14.678221
_cell_angle_alpha 90.000000
_cell_angle_beta 32.327430
_cell_angle_gamma 90.000000
_cell_volume 1431.651947
_symmetry_space_group_name_H-M "C 2/C"
_symmetry_group_IT_number 15
_symmetry_cell_setting 'monoclinic'
loop_
_space_group_symop_operation_xyz
x,y,z
-x,y,1/2-z
-x,-y,-z
x,-y,1/2+z
1/2+x,1/2+y,z
1/2-x,1/2+y,1/2-z
1/2-x,1/2-y,-z
1/2+x,1/2-y,1/2+z
loop_
_atom_site_type_symbol
_atom_site_label
_atom_site_fract_x
_atom_site_fract_y
_atom_site_fract_z
Si Si1 0.219454 0.888061 0.187786
Si Si2 0.735588 0.390893 0.366429
Si Si3 0.693407 0.299190 0.636711
Si Si4 0.769590 0.830121 0.697057
Si Si5 0.244556 0.062471 0.473070
O O1 0.281178 0.938255 0.236564
O O2 0.238141 0.777338 0.190392
O O3 0.315591 0.914423 0.022298
O O4 0.987933 0.913687 0.352566
O O5 0.862521 0.298063 0.272694
O O6 0.504121 0.358751 0.533537
O O7 0.774896 0.456143 0.422667
O O8 0.500000 0.356879 0.750000
O O9 0.750000 0.250000 0.500000
O O10 0.803636 0.344617 0.643680
O O11 0.689820 0.882976 0.665711
#
# Coordination Sequence:
#
# PCOD9264389 Si02
#       5
#     8   8   8   8   8
#     4   9  19  33  58  88 119 157 206 255 299 369
#     4  10  21  37  61  90 121 159 210 257 306 372
#     4  11  22  38  62  89 120 163 207 255 309 369
#     4  10  19  35  58  88 118 155 207 250 301 363
#     4  10  20  36  59  89 120 162 207 253 313 370
#
# _framework density 27.93975
#
# number of rings (size 3 to 8) (size 9 to 14) (size 15 to 20)
#    0.000    2.000    2.000    3.000    0.000    4.800 
#    0.000    0.000   17.600    3.600    0.000    0.000 
#    0.000    0.000    0.000    0.000    0.000    0.000 
#
# Total GULP energy -111538.490103 kJ/mol
# GULP energy per Si atom -5576.924505 kJ/mol
# Density = 2.787616 g / cm^3
# Si number density = 27.939750 Si / 1000 Ang^3
#
#
#
# Elastic Constant Matrix: (Units=GPa)
#
#
# Indices 1 2 3 4 5 6 
#
# 1 117.9157 0.0700 63.4706 -0.0042 53.9788 0.0017
# 2 0.0700 88.1984 12.1874 -0.0028 11.6346 0.0024
# 3 63.4706 12.1874 169.9192 -0.0050 38.2932 0.0040
# 4 -0.0042 -0.0028 -0.0050 87.3981 0.0028 37.1002
# 5 53.9788 11.6346 38.2932 0.0028 81.8230 -0.0022
# 6 0.0017 0.0024 0.0040 37.1002 -0.0022 47.2024
#
#
#
# Elastic Compliance Matrix: (Units=1/GPa)
#
#
# Indices 1 2 3 4 5 6 
#
# 1 0.013947 0.001504 -0.003573 0.000002 -0.007743 -0.000002
# 2 0.001504 0.011757 -0.000900 0.000001 -0.002243 -0.000002
# 3 -0.003573 -0.000900 0.007517 0.000001 -0.001033 -0.000001
# 4 0.000002 0.000001 0.000001 0.017171 -0.000002 -0.013496
# 5 -0.007743 -0.002243 -0.001033 -0.000002 0.018132 0.000003
# 6 -0.000002 -0.000002 -0.000001 -0.013496 0.000003 0.031793
#
#
# Mechanical properties :
#
#
# Convention : Reuss Voigt Hill
#
# Bulk Modulus (GPa) = 36.65044 58.60995 47.63019
# Shear Modulus (GPa) = 43.34680 63.30506 53.32593
#
# Velocity S-wave (km/s) = 3.94310 4.76518 4.37350
# Velocity P-wave (km/s) = 5.82039 7.16231 6.52593
#
# Compressibility (1/GPa) = 0.02728480
#
# Stress axis : x y z
#
# Youngs Moduli (GPa) = 71.69824 85.05522 133.03114
#
# Poissons Ratio (x) = -0.12792 0.47528
# Poissons Ratio (y) = -0.10783 0.11967
# Poissons Ratio (z) = 0.25616 0.07652
#
# Static dielectric constant tensor:
#      x y z
#    x 2.326680 0.000000 0.012150 
#    y 0.000000 2.148600 0.000000 
#    z 0.012150 0.000000 2.280280 
# 
# From -- ./inp_files/153734.got.cif
#   From: 2010.05.17/outbox.cif.g08.bks.cpg/sg15_77_cif.got.tgz:153734.got - 2010.06.03 18:47:42.
