data_PCOD9264403
_publ_section_title
;
Structure prediction by ZEFSAII (Michael W. Deem and Ramdas Pophale) SiO2 
 PCOD9264403
Probable space group: C 2/C
;
_chemical_formula_sum "Si O2"
_cell_formula_units_Z 60
_cell_length_a 8.380559
_cell_length_b 20.488039
_cell_length_c 18.495407
_cell_angle_alpha 90.000000
_cell_angle_beta 60.630531
_cell_angle_gamma 90.000000
_cell_volume 2767.530030
_symmetry_space_group_name_H-M "C 2/C"
_symmetry_group_IT_number 15
_symmetry_cell_setting 'monoclinic'
loop_
_space_group_symop_operation_xyz
x,y,z
-x,y,1/2-z
-x,-y,-z
x,-y,1/2+z
1/2+x,1/2+y,z
1/2-x,1/2+y,1/2-z
1/2-x,1/2-y,-z
1/2+x,1/2-y,1/2+z
loop_
_atom_site_type_symbol
_atom_site_label
_atom_site_fract_x
_atom_site_fract_y
_atom_site_fract_z
Si Si1 0.612056 0.067881 0.483469
Si Si2 0.500000 0.068610 0.250000
Si Si3 0.932985 0.978351 0.437767
Si Si4 0.633092 0.283140 0.291109
Si Si5 0.820421 0.167606 0.953392
Si Si6 0.870520 0.635493 0.645922
Si Si7 0.325058 0.488367 0.247492
Si Si8 0.980641 0.656942 0.380266
O O1 0.556308 0.103412 0.571838
O O2 0.569851 0.115241 0.425447
O O3 0.500000 0.000000 0.500000
O O4 0.815309 0.039951 0.437001
O O5 0.407100 0.112786 0.331577
O O6 0.648827 0.029372 0.263570
O O7 0.823769 0.910701 0.467398
O O8 0.094638 0.964744 0.346219
O O9 0.000000 0.000000 0.500000
O O10 0.500000 0.291557 0.250000
O O11 0.525754 0.313651 0.384113
O O12 0.822591 0.317954 0.225030
O O13 0.626629 0.206961 0.313161
O O14 0.701426 0.174656 0.907333
O O15 0.695952 0.193756 0.046702
O O16 0.742002 0.572619 0.689937
O O17 0.500000 0.518895 0.250000
#
# Coordination Sequence:
#
# PCOD9264403 Si02
#       8
#     8   4   8   8   8   8   8   8
#     4  11  21  39  64  93 135 169 214 275 353 399
#     4  12  26  36  60 104 136 168 226 276 352 406
#     4  12  23  37  61  99 129 169 218 276 346 408
#     4  10  19  36  58  92 128 168 230 269 318 400
#     4  10  19  35  58  90 125 166 220 267 333 393
#     4  10  19  36  63  90 125 175 224 270 325 406
#     4  12  22  40  62  95 136 178 214 277 346 406
#     4  11  21  37  58  94 133 169 216 282 326 403
#
# _framework density 21.679981999999999
#
# number of rings (size 3 to 8) (size 9 to 14) (size 15 to 20)
#    0.000    1.067    6.000    3.200    1.867    0.000 
#    0.000    0.000    0.000    0.800   12.133    0.000 
#    0.000    0.000    0.000    0.000    0.000    0.000 
#
# Total GULP energy -167116.679270 kJ/mol
# GULP energy per Si atom -5570.555976 kJ/mol
# Density = 2.163064 g / cm^3
# Si number density = 21.679982 Si / 1000 Ang^3
#
#
#
# Elastic Constant Matrix: (Units=GPa)
#
#
# Indices 1 2 3 4 5 6 
#
# 1 43.9441 22.1991 13.6199 0.0000 15.0545 0.0000
# 2 22.1991 74.9357 25.2374 0.0000 1.3208 0.0000
# 3 13.6199 25.2374 131.6470 0.0000 -2.7094 0.0000
# 4 0.0000 0.0000 0.0000 54.1701 0.0000 -0.5865
# 5 15.0545 1.3208 -2.7094 0.0000 21.1349 0.0000
# 6 0.0000 0.0000 0.0000 -0.5865 0.0000 11.9020
#
#
#
# Elastic Compliance Matrix: (Units=1/GPa)
#
#
# Indices 1 2 3 4 5 6 
#
# 1 0.037570 -0.009803 -0.002552 0.000000 -0.026476 0.000000
# 2 -0.009803 0.016857 -0.002101 0.000000 0.005660 0.000000
# 3 -0.002552 -0.002101 0.008325 0.000000 0.003017 0.000000
# 4 0.000000 0.000000 0.000000 0.018470 0.000000 0.000910
# 5 -0.026476 0.005660 0.003017 0.000000 0.066207 0.000000
# 6 0.000000 0.000000 0.000000 0.000910 0.000000 0.084064
#
#
# Mechanical properties :
#
#
# Convention : Reuss Voigt Hill
#
# Bulk Modulus (GPa) = 29.55246 41.40440 35.47843
# Shear Modulus (GPa) = 18.40361 30.07275 24.23818
#
# Velocity S-wave (km/s) = 2.91671 3.72845 3.34728
# Velocity P-wave (km/s) = 5.00037 6.13796 5.59814
#
# Compressibility (1/GPa) = 0.03383814
#
# Stress axis : x y z
#
# Youngs Moduli (GPa) = 26.61715 59.32347 120.12090
#
# Poissons Ratio (x) = 0.58158 0.30659
# Poissons Ratio (y) = 0.26094 0.25235
# Poissons Ratio (z) = 0.06794 0.12463
#
# Static dielectric constant tensor:
#      x y z
#    x 1.693080 0.000000 -0.018490 
#    y 0.000000 1.883070 0.000000 
#    z -0.018490 0.000000 1.838030 
# 
# From -- ./inp_files/192516.got.cif
#   From: 2010.05.17/outbox.cif.g08.bks.cpg/sg15_97_cif.got.tgz:192516.got - 2010.06.03 18:47:42.
