data_PCOD9264702
_publ_section_title
;
Structure prediction by ZEFSAII (Michael W. Deem and Ramdas Pophale) SiO2 
 PCOD9264702
Probable space group: C 2/C
;
_chemical_formula_sum "Si O2"
_cell_formula_units_Z 48
_cell_length_a 8.351531
_cell_length_b 14.799941
_cell_length_c 24.649705
_cell_angle_alpha 90.000000
_cell_angle_beta 134.281889
_cell_angle_gamma 90.000000
_cell_volume 2181.214310
_symmetry_space_group_name_H-M "C 2/C"
_symmetry_group_IT_number 15
_symmetry_cell_setting 'monoclinic'
loop_
_space_group_symop_operation_xyz
x,y,z
-x,y,1/2-z
-x,-y,-z
x,-y,1/2+z
1/2+x,1/2+y,z
1/2-x,1/2+y,1/2-z
1/2-x,1/2-y,-z
1/2+x,1/2-y,1/2+z
loop_
_atom_site_type_symbol
_atom_site_label
_atom_site_fract_x
_atom_site_fract_y
_atom_site_fract_z
Si Si1 0.619952 0.115294 0.986875
Si Si2 0.304831 0.585365 0.538851
Si Si3 0.741362 0.020622 0.821870
Si Si4 0.010681 0.755945 0.618600
Si Si5 0.809592 0.864781 0.747313
Si Si6 0.803731 0.635930 0.103584
O O1 0.392990 0.113087 0.967604
O O2 0.560835 0.155751 0.914175
O O3 0.792949 0.181754 0.057696
O O4 0.738413 0.019060 0.011039
O O5 0.549014 0.586437 0.623107
O O6 0.298221 0.636487 0.480237
O O7 0.500000 0.060719 0.750000
O O8 0.787541 0.945213 0.786211
O O9 0.729136 0.960668 0.874033
O O10 0.113994 0.776998 0.700916
O O11 0.187209 0.791871 0.615422
O O12 0.569397 0.850250 0.663715
O O13 0.000000 0.888916 0.750000
#
# Coordination Sequence:
#
# PCOD9264702 Si02
#       6
#     8   8   8   8   8   8
#     4  10  22  34  62  85 126 149 201 254 304 356
#     4  11  20  37  61  98 117 155 204 254 299 368
#     4   9  19  35  57  90 122 158 196 249 304 360
#     4  10  20  40  56  88 117 166 196 252 307 366
#     4  10  19  35  62  84 114 165 214 242 296 375
#     4  10  20  33  65  85 119 162 204 244 300 366
#
# _framework density 22.006091999999999
#
# number of rings (size 3 to 8) (size 9 to 14) (size 15 to 20)
#    0.000    2.000    3.333    3.000    2.333    0.667 
#    0.000    0.000   14.667    2.000    0.000    0.000 
#    0.000    0.000    0.000    0.000    0.000    0.000 
#
# Total GULP energy -134215.596821 kJ/mol
# GULP energy per Si atom -5592.316534 kJ/mol
# Density = 2.195601 g / cm^3
# Si number density = 22.006092 Si / 1000 Ang^3
#
#
#
# Elastic Constant Matrix: (Units=GPa)
#
#
# Indices 1 2 3 4 5 6 
#
# 1 88.8597 15.3991 51.7959 0.0000 28.8275 0.0000
# 2 15.3991 24.1112 6.2535 0.0000 0.3969 0.0000
# 3 51.7959 6.2535 115.9447 0.0000 29.0502 0.0000
# 4 0.0000 0.0000 0.0000 11.3945 0.0000 -11.6249
# 5 28.8275 0.3969 29.0502 0.0000 45.6861 0.0000
# 6 0.0000 0.0000 0.0000 -11.6249 0.0000 1.6484
#
#
#
# Elastic Compliance Matrix: (Units=1/GPa)
#
#
# Indices 1 2 3 4 5 6 
#
# 1 0.019244 -0.010610 -0.005954 0.000000 -0.008265 0.000000
# 2 -0.010610 0.047976 0.000689 0.000000 0.005840 0.000000
# 3 -0.005954 0.000689 0.012261 0.000000 -0.004046 0.000000
# 4 0.000000 0.000000 0.000000 -0.014167 0.000000 -0.099909
# 5 -0.008265 0.005840 -0.004046 0.000000 0.029625 0.000000
# 6 0.000000 0.000000 0.000000 -0.099909 0.000000 -0.097929
#
#
# Mechanical properties :
#
#
# Convention : Reuss Voigt Hill
#
# Bulk Modulus (GPa) = 20.95075 41.75695 31.35385
# Shear Modulus (GPa) = 111.92813 22.11027 67.01920
#
# Velocity S-wave (km/s) = 7.13952 3.17319 5.52458
# Velocity P-wave (km/s) = 8.80368 5.69578 7.41440
#
# Compressibility (1/GPa) = 0.04773098
#
# Stress axis : x y z
#
# Youngs Moduli (GPa) = 51.96376 20.84369 81.55930
#
# Poissons Ratio (x) = 0.22116 0.48559
# Poissons Ratio (y) = 0.55136 -0.05620
# Poissons Ratio (z) = 0.30939 -0.01436
#
# Static dielectric constant tensor:
#      x y z
#    x 1.778150 0.000000 0.002260 
#    y 0.000000 1.830530 0.000000 
#    z 0.002260 0.000000 1.794120 
# 
# From -- ./inp_files/265348.got.cif
#   From: 2010.05.17/outbox.cif.g08.bks.cpg/sg15_133_cif.got.tgz:265348.got - 2010.06.03 18:47:42.
