data_PCOD9264197
_publ_section_title
;
Structure prediction by ZEFSAII (Michael W. Deem and Ramdas Pophale) SiO2 
 PCOD9264197
Probable space group: C 2/C
;
_chemical_formula_sum "Si O2"
_cell_formula_units_Z 44
_cell_length_a 17.545228
_cell_length_b 25.025425
_cell_length_c 6.102731
_cell_angle_alpha 90.000000
_cell_angle_beta 132.199030
_cell_angle_gamma 90.000000
_cell_volume 1985.066408
_symmetry_space_group_name_H-M "C 2/C"
_symmetry_group_IT_number 15
_symmetry_cell_setting 'monoclinic'
loop_
_space_group_symop_operation_xyz
x,y,z
-x,y,1/2-z
-x,-y,-z
x,-y,1/2+z
1/2+x,1/2+y,z
1/2-x,1/2+y,1/2-z
1/2-x,1/2-y,-z
1/2+x,1/2-y,1/2+z
loop_
_atom_site_type_symbol
_atom_site_label
_atom_site_fract_x
_atom_site_fract_y
_atom_site_fract_z
Si Si1 0.000000 0.917458 0.750000
Si Si2 0.718954 0.474524 0.142453
Si Si3 0.241200 0.196830 0.124963
Si Si4 0.572670 0.205276 0.706347
Si Si5 0.290973 0.860105 0.319394
Si Si6 0.417284 0.674909 0.342955
O O1 0.010006 0.875022 0.568504
O O2 0.899098 0.953564 0.570077
O O3 0.733024 0.498726 0.422198
O O4 0.790315 0.422008 0.263487
O O5 0.316844 0.209706 0.467057
O O6 0.133334 0.180253 0.017445
O O7 0.250000 0.250000 0.000000
O O8 0.282228 0.148702 0.059961
O O9 0.500000 0.179886 0.750000
O O10 0.607669 0.171324 0.565440
O O11 0.536011 0.265941 0.598533
O O12 0.182252 0.836754 0.009734
#
# Coordination Sequence:
#
# PCOD9264197 Si02
#       6
#     4   8   8   8   8   8
#     4  10  22  40  62  94 138 170 206 268 332 390
#     4  11  26  46  68  94 126 175 233 281 322 377
#     4  11  19  35  59  83 124 173 213 247 316 406
#     4  11  21  35  57  92 132 158 205 261 321 401
#     4  10  22  39  61  84 119 171 209 263 321 379
#     4  10  19  35  56  89 130 168 202 242 319 403
#
# _framework density 22.165503000000001
#
# number of rings (size 3 to 8) (size 9 to 14) (size 15 to 20)
#    0.000    1.455    4.545    1.636    7.636    0.727 
#    3.273    3.636    0.000    1.091    0.000    0.000 
#    0.000    0.000    0.000    0.000    0.000    0.000 
#
# Total GULP energy -122517.319673 kJ/mol
# GULP energy per Si atom -5568.969076 kJ/mol
# Density = 2.211505 g / cm^3
# Si number density = 22.165503 Si / 1000 Ang^3
#
#
#
# Elastic Constant Matrix: (Units=GPa)
#
#
# Indices 1 2 3 4 5 6 
#
# 1 124.4858 20.0463 4.4685 0.0000 -40.2201 0.0000
# 2 20.0463 90.9684 22.0185 0.0000 -17.2035 0.0000
# 3 4.4685 22.0185 70.0574 0.0000 -13.2644 0.0000
# 4 0.0000 0.0000 0.0000 16.8316 0.0000 -10.0756
# 5 -40.2201 -17.2035 -13.2644 0.0000 33.3098 0.0000
# 6 0.0000 0.0000 0.0000 -10.0756 0.0000 26.9582
#
#
#
# Elastic Compliance Matrix: (Units=1/GPa)
#
#
# Indices 1 2 3 4 5 6 
#
# 1 0.013548 -0.000341 0.002495 0.000000 0.017176 0.000000
# 2 -0.000341 0.012742 -0.003045 0.000000 0.004957 0.000000
# 3 0.002495 -0.003045 0.016596 0.000000 0.008049 0.000000
# 4 0.000000 0.000000 0.000000 0.076536 0.000000 0.028605
# 5 0.017176 0.004957 0.008049 0.000000 0.056525 0.000000
# 6 0.000000 0.000000 0.000000 0.028605 0.000000 0.047786
#
#
# Mechanical properties :
#
#
# Convention : Reuss Voigt Hill
#
# Bulk Modulus (GPa) = 24.32839 42.06426 33.19633
# Shear Modulus (GPa) = 20.90170 31.35179 26.12675
#
# Velocity S-wave (km/s) = 3.07413 3.76499 3.43696
# Velocity P-wave (km/s) = 4.85799 6.15782 5.54611
#
# Compressibility (1/GPa) = 0.04110424
#
# Stress axis : x y z
#
# Youngs Moduli (GPa) = 73.81345 78.47867 60.25654
#
# Poissons Ratio (x) = 0.02678 -0.15034
# Poissons Ratio (y) = 0.02519 0.18346
# Poissons Ratio (z) = -0.18417 0.23894
#
# Static dielectric constant tensor:
#      x y z
#    x 1.948160 0.000000 -0.004950 
#    y 0.000000 1.861800 0.000000 
#    z -0.004950 0.000000 1.951560 
# 
# From -- ./inp_files/7564.got.cif
#   From: 2010.05.17/outbox.cif.g08.bks.cpg/sg15_4_cif.got.tgz:7564.got - 2010.06.03 18:47:42.
