data_PCOD9264108
_publ_section_title
;
Structure prediction by ZEFSAII (Michael W. Deem and Ramdas Pophale) SiO2 
 PCOD9264108
Probable space group: C 2/C
;
_chemical_formula_sum "Si O2"
_cell_formula_units_Z 28
_cell_length_a 12.929427
_cell_length_b 18.101437
_cell_length_c 12.878946
_cell_angle_alpha 90.000000
_cell_angle_beta 158.026405
_cell_angle_gamma 90.000000
_cell_volume 1127.852645
_symmetry_space_group_name_H-M "C 2/C"
_symmetry_group_IT_number 15
_symmetry_cell_setting 'monoclinic'
loop_
_space_group_symop_operation_xyz
x,y,z
-x,y,1/2-z
-x,-y,-z
x,-y,1/2+z
1/2+x,1/2+y,z
1/2-x,1/2+y,1/2-z
1/2-x,1/2-y,-z
1/2+x,1/2-y,1/2+z
loop_
_atom_site_type_symbol
_atom_site_label
_atom_site_fract_x
_atom_site_fract_y
_atom_site_fract_z
Si Si1 0.500000 0.805739 0.250000
Si Si2 0.347970 0.490717 0.702867
Si Si3 0.698468 0.075173 0.278927
Si Si4 0.588106 0.801045 0.105861
O O1 0.529716 0.840925 0.163410
O O2 0.750000 0.750000 0.500000
O O3 0.500000 0.449685 0.750000
O O4 0.341765 0.444167 0.802424
O O5 0.033115 0.516523 0.400432
O O6 0.548414 0.562295 0.907781
O O7 0.513946 0.146482 0.081625
O O8 0.898996 0.771825 0.409723
#
# Coordination Sequence:
#
# PCOD9264108 Si02
#       4
#     4   8   8   8
#     4   8  16  30  46  74 110 144 178 210 270 338
#     4  10  21  40  60  84 114 149 195 245 285 330
#     4  10  21  38  60  88 112 151 196 230 292 348
#     4  10  19  35  55  83 118 151 183 232 287 345
#
# _framework density 24.825937
#
# number of rings (size 3 to 8) (size 9 to 14) (size 15 to 20)
#    0.000    2.286    0.000    2.571    0.000    0.000 
#   30.857    0.000    0.000   17.143    0.000    0.000 
#    0.000    0.000    0.000    0.000    0.000    0.000 
#
# Total GULP energy -78036.339898 kJ/mol
# GULP energy per Si atom -5574.024278 kJ/mol
# Density = 2.476943 g / cm^3
# Si number density = 24.825937 Si / 1000 Ang^3
#
#
#
# Elastic Constant Matrix: (Units=GPa)
#
#
# Indices 1 2 3 4 5 6 
#
# 1 104.2485 2.3132 26.6574 0.0001 8.4208 0.0002
# 2 2.3132 53.8040 9.8112 -0.0002 -6.6677 0.0002
# 3 26.6574 9.8112 152.8064 0.0009 4.9221 0.0013
# 4 0.0001 -0.0002 0.0009 32.4212 0.0003 -2.6650
# 5 8.4208 -6.6677 4.9221 0.0003 41.2793 0.0004
# 6 0.0002 0.0002 0.0013 -2.6650 0.0004 15.4199
#
#
#
# Elastic Compliance Matrix: (Units=1/GPa)
#
#
# Indices 1 2 3 4 5 6 
#
# 1 0.010190 -0.000370 -0.001691 0.000000 -0.001937 0.000000
# 2 -0.000370 0.019249 -0.001279 0.000000 0.003337 0.000000
# 3 -0.001691 -0.001279 0.006944 0.000000 -0.000689 -0.000001
# 4 0.000000 0.000000 0.000000 0.031289 0.000000 0.005408
# 5 -0.001937 0.003337 -0.000689 0.000000 0.025242 -0.000001
# 6 0.000000 0.000000 -0.000001 0.005408 -0.000001 0.065786
#
#
# Mechanical properties :
#
#
# Convention : Reuss Voigt Hill
#
# Bulk Modulus (GPa) = 33.66796 43.15806 38.41301
# Shear Modulus (GPa) = 28.52602 35.96255 32.24428
#
# Velocity S-wave (km/s) = 3.39343 3.81016 3.60782
# Velocity P-wave (km/s) = 5.38004 6.06452 5.73251
#
# Compressibility (1/GPa) = 0.02970183
#
# Stress axis : x y z
#
# Youngs Moduli (GPa) = 98.13893 51.95177 144.01679
#
# Poissons Ratio (x) = 0.01920 0.24360
# Poissons Ratio (y) = 0.03628 0.18418
# Poissons Ratio (z) = 0.16600 0.06644
#
# Static dielectric constant tensor:
#      x y z
#    x 2.056040 0.000000 -0.025590 
#    y 0.000000 2.056370 0.000000 
#    z -0.025590 0.000000 1.918760 
# 
# From -- ./inp_files/3462.got.cif
#   From: 2010.05.17/outbox.cif.g08.bks.cpg/sg15_2_cif.got.tgz:3462.got - 2010.06.03 18:47:42.
