data_PCOD9264188
_publ_section_title
;
Structure prediction by ZEFSAII (Michael W. Deem and Ramdas Pophale) SiO2 
 PCOD9264188
Probable space group: C 2/C
;
_chemical_formula_sum "Si O2"
_cell_formula_units_Z 32
_cell_length_a 18.279315
_cell_length_b 5.294748
_cell_length_c 20.643777
_cell_angle_alpha 90.000000
_cell_angle_beta 139.924359
_cell_angle_gamma 90.000000
_cell_volume 1286.305845
_symmetry_space_group_name_H-M "C 2/C"
_symmetry_group_IT_number 15
_symmetry_cell_setting 'monoclinic'
loop_
_space_group_symop_operation_xyz
x,y,z
-x,y,1/2-z
-x,-y,-z
x,-y,1/2+z
1/2+x,1/2+y,z
1/2-x,1/2+y,1/2-z
1/2-x,1/2-y,-z
1/2+x,1/2-y,1/2+z
loop_
_atom_site_type_symbol
_atom_site_label
_atom_site_fract_x
_atom_site_fract_y
_atom_site_fract_z
Si Si1 0.820159 0.551648 0.789782
Si Si2 0.082319 0.202760 0.024755
Si Si3 0.155590 0.444626 0.961479
Si Si4 0.702067 0.853109 0.363242
O O1 0.781058 0.259913 0.765730
O O2 0.897008 0.597555 0.904430
O O3 0.862897 0.656421 0.749080
O O4 0.201802 0.059904 0.090493
O O5 0.057164 0.313721 0.936408
O O6 0.000000 0.000000 0.000000
O O7 0.126303 0.582180 0.874603
O O8 0.250000 0.250000 0.000000
O O9 0.221909 0.622627 0.057771
#
# Coordination Sequence:
#
# PCOD9264188 Si02
#       4
#     8   8   8   8
#     4  10  19  35  56  87 112 153 200 246 293 359
#     4  10  20  33  55  89 119 148 195 256 306 344
#     4   9  17  33  55  80 109 151 198 232 292 357
#     4   9  18  33  57  80 109 156 201 236 286 372
#
# _framework density 24.877445000000002
#
# number of rings (size 3 to 8) (size 9 to 14) (size 15 to 20)
#    0.000    2.500    2.500    0.000    0.000    1.000 
#    0.000    0.000    0.000   16.500    0.000    0.000 
#    0.000    0.000    0.000    0.000    0.000    0.000 
#
# Total GULP energy -89217.185285 kJ/mol
# GULP energy per Si atom -5576.074080 kJ/mol
# Density = 2.482082 g / cm^3
# Si number density = 24.877445 Si / 1000 Ang^3
#
#
#
# Elastic Constant Matrix: (Units=GPa)
#
#
# Indices 1 2 3 4 5 6 
#
# 1 204.6055 30.8365 54.2108 -0.0006 -55.0531 -0.0017
# 2 30.8365 54.2622 13.6295 -0.0003 -12.7273 -0.0015
# 3 54.2108 13.6295 100.1303 -0.0006 -41.6172 -0.0009
# 4 -0.0006 -0.0003 -0.0006 32.3322 0.0002 -13.2929
# 5 -55.0531 -12.7273 -41.6172 0.0002 53.7456 0.0005
# 6 -0.0017 -0.0015 -0.0009 -13.2929 0.0005 66.4135
#
#
#
# Elastic Compliance Matrix: (Units=1/GPa)
#
#
# Indices 1 2 3 4 5 6 
#
# 1 0.007119 -0.002393 -0.001081 0.000000 0.005888 0.000000
# 2 -0.002393 0.020397 -0.000726 0.000000 0.001817 0.000000
# 3 -0.001081 -0.000726 0.014951 0.000000 0.010298 0.000000
# 4 0.000000 0.000000 0.000000 0.033702 0.000000 0.006746
# 5 0.005888 0.001817 0.010298 0.000000 0.033042 0.000000
# 6 0.000000 0.000000 0.000000 0.006746 0.000000 0.016407
#
#
# Mechanical properties :
#
#
# Convention : Reuss Voigt Hill
#
# Bulk Modulus (GPa) = 29.35286 61.81683 45.58485
# Shear Modulus (GPa) = 34.39385 47.85299 41.12342
#
# Velocity S-wave (km/s) = 3.72227 4.39059 4.07017
# Velocity P-wave (km/s) = 5.50440 7.11375 6.36018
#
# Compressibility (1/GPa) = 0.03406823
#
# Stress axis : x y z
#
# Youngs Moduli (GPa) = 140.47126 49.02589 66.88399
#
# Poissons Ratio (x) = 0.11731 0.07231
# Poissons Ratio (y) = 0.33613 0.04853
# Poissons Ratio (z) = 0.15187 0.03557
#
# Static dielectric constant tensor:
#      x y z
#    x 2.000220 0.000000 -0.005040 
#    y 0.000000 2.051040 0.000000 
#    z -0.005040 0.000000 2.114870 
# 
# From -- ./inp_files/158039.got.cif
#   From: 2010.05.17/outbox.cif.g08.bks.cpg/sg15_80_cif.got.tgz:158039.got - 2010.06.03 18:47:42.
