data_PCOD9264376
_publ_section_title
;
Structure prediction by ZEFSAII (Michael W. Deem and Ramdas Pophale) SiO2 
 PCOD9264376
Probable space group: C 2/C
;
_chemical_formula_sum "Si O2"
_cell_formula_units_Z 40
_cell_length_a 5.283739
_cell_length_b 29.524123
_cell_length_c 14.245681
_cell_angle_alpha 90.000000
_cell_angle_beta 125.179353
_cell_angle_gamma 90.000000
_cell_volume 1816.397974
_symmetry_space_group_name_H-M "C 2/C"
_symmetry_group_IT_number 15
_symmetry_cell_setting 'monoclinic'
loop_
_space_group_symop_operation_xyz
x,y,z
-x,y,1/2-z
-x,-y,-z
x,-y,1/2+z
1/2+x,1/2+y,z
1/2-x,1/2+y,1/2-z
1/2-x,1/2-y,-z
1/2+x,1/2-y,1/2+z
loop_
_atom_site_type_symbol
_atom_site_label
_atom_site_fract_x
_atom_site_fract_y
_atom_site_fract_z
Si Si1 0.234561 0.026866 0.624112
Si Si2 0.655748 0.895063 0.680807
Si Si3 0.882052 0.550992 0.952328
Si Si4 0.832288 0.294425 0.895213
Si Si5 0.782584 0.265099 0.360477
O O1 0.500000 0.004611 0.750000
O O2 0.419188 0.061696 0.597255
O O3 0.983437 0.049282 0.637705
O O4 0.000000 0.000000 0.500000
O O5 0.500000 0.896512 0.750000
O O6 0.456164 0.919605 0.559166
O O7 0.695671 0.843475 0.655200
O O8 0.000000 0.916353 0.750000
O O9 0.000000 0.500000 0.000000
O O10 0.515305 0.266640 0.849494
O O11 0.078415 0.267682 0.883430
O O12 0.997223 0.296781 0.031890
O O13 0.500000 0.290689 0.250000
#
# Coordination Sequence:
#
# PCOD9264376 Si02
#       5
#     8   8   8   8   8
#     4  10  21  39  63  90 120 157 204 258 316 382
#     4  12  24  40  64  93 126 163 213 274 324 372
#     4  10  23  39  59  89 122 161 209 260 322 382
#     4  10  21  35  58  90 119 156 207 249 302 371
#     4  10  19  35  58  86 124 163 195 242 305 374
#
# _framework density 22.021608000000001
#
# number of rings (size 3 to 8) (size 9 to 14) (size 15 to 20)
#    0.000    1.600    0.000    5.400    0.000    9.600 
#    0.000    2.000    0.000    0.000    0.000    0.000 
#    0.000    0.000    0.000    0.000    0.000    0.000 
#
# Total GULP energy -111386.148330 kJ/mol
# GULP energy per Si atom -5569.307416 kJ/mol
# Density = 2.197149 g / cm^3
# Si number density = 22.021608 Si / 1000 Ang^3
#
#
#
# Elastic Constant Matrix: (Units=GPa)
#
#
# Indices 1 2 3 4 5 6 
#
# 1 223.6590 26.2307 64.3636 0.0000 2.9878 0.0000
# 2 26.2307 40.0531 20.6360 0.0000 -7.8796 0.0000
# 3 64.3636 20.6360 160.1374 0.0000 15.7082 0.0000
# 4 0.0000 0.0000 0.0000 7.1559 0.0000 -2.0625
# 5 2.9878 -7.8796 15.7082 0.0000 47.1579 0.0000
# 6 0.0000 0.0000 0.0000 -2.0625 0.0000 8.3742
#
#
#
# Elastic Compliance Matrix: (Units=1/GPa)
#
#
# Indices 1 2 3 4 5 6 
#
# 1 0.005287 -0.002582 -0.001775 0.000000 -0.000175 0.000000
# 2 -0.002582 0.029635 -0.003394 0.000000 0.006246 0.000000
# 3 -0.001775 -0.003394 0.007691 0.000000 -0.003017 0.000000
# 4 0.000000 0.000000 0.000000 0.150423 0.000000 0.037048
# 5 -0.000175 0.006246 -0.003017 0.000000 0.023265 0.000000
# 6 0.000000 0.000000 0.000000 0.037048 0.000000 0.128539
#
#
# Mechanical properties :
#
#
# Convention : Reuss Voigt Hill
#
# Bulk Modulus (GPa) = 36.88485 71.81222 54.34854
# Shear Modulus (GPa) = 13.53621 33.37889 23.45755
#
# Velocity S-wave (km/s) = 2.48196 3.89747 3.26729
# Velocity P-wave (km/s) = 4.99993 7.27560 6.24234
#
# Compressibility (1/GPa) = 0.02711140
#
# Stress axis : x y z
#
# Youngs Moduli (GPa) = 189.13874 33.74359 130.01700
#
# Poissons Ratio (x) = 0.08714 0.23079
# Poissons Ratio (y) = 0.48844 0.44123
# Poissons Ratio (z) = 0.33573 0.11451
#
# Static dielectric constant tensor:
#      x y z
#    x 1.869520 0.000000 -0.001520 
#    y 0.000000 1.775470 0.000000 
#    z -0.001520 0.000000 1.958520 
# 
# From -- ./inp_files/130552.got.cif
#   From: 2010.05.17/outbox.cif.g08.bks.cpg/sg15_66_cif.got.tgz:130552.got - 2010.06.03 18:47:42.
