data_PCOD9264697
_publ_section_title
;
Structure prediction by ZEFSAII (Michael W. Deem and Ramdas Pophale) SiO2 
 PCOD9264697
Probable space group: C 2/C
;
_chemical_formula_sum "Si O2"
_cell_formula_units_Z 60
_cell_length_a 19.723503
_cell_length_b 15.993126
_cell_length_c 14.567503
_cell_angle_alpha 90.000000
_cell_angle_beta 149.550264
_cell_angle_gamma 90.000000
_cell_volume 2328.755804
_symmetry_space_group_name_H-M "C 2/C"
_symmetry_group_IT_number 15
_symmetry_cell_setting 'monoclinic'
loop_
_space_group_symop_operation_xyz
x,y,z
-x,y,1/2-z
-x,-y,-z
x,-y,1/2+z
1/2+x,1/2+y,z
1/2-x,1/2+y,1/2-z
1/2-x,1/2-y,-z
1/2+x,1/2-y,1/2+z
loop_
_atom_site_type_symbol
_atom_site_label
_atom_site_fract_x
_atom_site_fract_y
_atom_site_fract_z
Si Si1 0.211366 0.095094 0.400011
Si Si2 0.960762 0.413866 0.541558
Si Si3 0.578196 0.728321 0.989380
Si Si4 0.500000 0.044968 0.750000
Si Si5 0.174220 0.357896 0.650454
Si Si6 0.965224 0.940635 0.332022
Si Si7 0.672838 0.565468 0.630117
Si Si8 0.004338 0.218097 0.391949
O O1 0.232357 0.093805 0.312819
O O2 0.122556 0.178990 0.309267
O O3 0.360174 0.090137 0.612951
O O4 0.128801 0.010080 0.326394
O O5 0.946181 0.322200 0.571308
O O6 0.969139 0.484732 0.627603
O O7 0.915696 0.591196 0.384029
O O8 0.827968 0.424867 0.326343
O O9 0.734072 0.703093 0.180449
O O10 0.536226 0.726740 0.048094
O O11 0.495470 0.655232 0.842673
O O12 0.078345 0.305952 0.468382
O O13 0.898044 0.932071 0.353342
O O14 0.109813 0.984701 0.508778
O O15 0.615707 0.646383 0.511762
#
# Coordination Sequence:
#
# PCOD9264697 Si02
#       8
#     8   8   8   4   8   8   8   8
#     4  10  21  39  60  87 119 163 201 235 300 372
#     4  11  22  35  56  89 124 153 195 252 297 352
#     4   9  18  33  57  89 120 145 195 255 303 345
#     4  12  26  40  52  82 130 176 192 220 308 380
#     4  10  19  35  61  97 115 137 204 270 295 321
#     4   9  17  33  58  83 110 158 196 243 295 357
#     4   9  14  29  54  86 106 144 192 248 293 338
#     4   8  16  31  60  89 112 140 194 257 294 336
#
# _framework density 25.764832999999999
#
# number of rings (size 3 to 8) (size 9 to 14) (size 15 to 20)
#    0.000    2.400    2.667    2.400    0.000    0.533 
#    0.000    3.333    0.000    0.000    0.000    0.000 
#    0.000    0.000    0.000    0.000    0.000    0.000 
#
# Total GULP energy -167701.961001 kJ/mol
# GULP energy per Si atom -5590.065367 kJ/mol
# Density = 2.570619 g / cm^3
# Si number density = 25.764833 Si / 1000 Ang^3
#
#
#
# Elastic Constant Matrix: (Units=GPa)
#
#
# Indices 1 2 3 4 5 6 
#
# 1 83.8340 8.7696 26.5557 0.0000 -4.3355 0.0000
# 2 8.7696 117.4638 37.9735 0.0000 14.3344 0.0000
# 3 26.5557 37.9735 116.6000 0.0000 30.1614 0.0000
# 4 0.0000 0.0000 0.0000 34.3773 0.0000 22.7530
# 5 -4.3355 14.3344 30.1614 0.0000 35.8843 0.0000
# 6 0.0000 0.0000 0.0000 22.7530 0.0000 16.2181
#
#
#
# Elastic Compliance Matrix: (Units=1/GPa)
#
#
# Indices 1 2 3 4 5 6 
#
# 1 0.013646 -0.000251 -0.004445 0.000000 0.005485 0.000000
# 2 -0.000251 0.009586 -0.002640 0.000000 -0.001640 0.000000
# 3 -0.004445 -0.002640 0.013180 0.000000 -0.010561 0.000000
# 4 0.000000 0.000000 0.000000 0.407095 0.000000 -0.571127
# 5 0.005485 -0.001640 -0.010561 0.000000 0.038062 0.000000
# 6 0.000000 0.000000 0.000000 -0.571127 0.000000 0.862912
#
#
# Mechanical properties :
#
#
# Convention : Reuss Voigt Hill
#
# Bulk Modulus (GPa) = 45.99965 51.61061 48.80513
# Shear Modulus (GPa) = 3.65925 33.60255 18.63090
#
# Velocity S-wave (km/s) = 1.19304 3.61529 2.69199
# Velocity P-wave (km/s) = 4.44862 6.12389 5.35221
#
# Compressibility (1/GPa) = 0.02173929
#
# Stress axis : x y z
#
# Youngs Moduli (GPa) = 73.27989 104.32163 75.87057
#
# Poissons Ratio (x) = 0.02621 0.33725
# Poissons Ratio (y) = 0.01841 0.20032
# Poissons Ratio (z) = 0.32573 0.27544
#
# Static dielectric constant tensor:
#      x y z
#    x 2.002810 0.000000 -0.000200 
#    y 0.000000 2.112250 0.000000 
#    z -0.000200 0.000000 2.042230 
# 
# From -- ./inp_files/259405.got.cif
#   From: 2010.05.17/outbox.cif.g08.bks.cpg/sg15_130_cif.got.tgz:259405.got - 2010.06.03 18:47:42.
