data_PCOD9264526
_publ_section_title
;
Structure prediction by ZEFSAII (Michael W. Deem and Ramdas Pophale) SiO2 
 PCOD9264526
Probable space group: C 2/C
;
_chemical_formula_sum "Si O2"
_cell_formula_units_Z 44
_cell_length_a 13.088135
_cell_length_b 20.170454
_cell_length_c 8.071608
_cell_angle_alpha 90.000000
_cell_angle_beta 114.590694
_cell_angle_gamma 90.000000
_cell_volume 1937.592588
_symmetry_space_group_name_H-M "C 2/C"
_symmetry_group_IT_number 15
_symmetry_cell_setting 'monoclinic'
loop_
_space_group_symop_operation_xyz
x,y,z
-x,y,1/2-z
-x,-y,-z
x,-y,1/2+z
1/2+x,1/2+y,z
1/2-x,1/2+y,1/2-z
1/2-x,1/2-y,-z
1/2+x,1/2-y,1/2+z
loop_
_atom_site_type_symbol
_atom_site_label
_atom_site_fract_x
_atom_site_fract_y
_atom_site_fract_z
Si Si1 0.382457 0.299710 0.207692
Si Si2 0.847973 0.396500 0.960949
Si Si3 0.776887 0.517423 0.124259
Si Si4 0.500000 0.202913 0.750000
Si Si5 0.884105 0.054240 0.755769
Si Si6 0.192950 0.208647 0.216828
O O1 0.500000 0.263951 0.250000
O O2 0.405575 0.369246 0.315118
O O3 0.298214 0.257297 0.258669
O O4 0.336996 0.312557 0.991044
O O5 0.833417 0.450329 0.096254
O O6 0.944793 0.345620 0.075874
O O7 0.854815 0.439313 0.796570
O O8 0.735543 0.352798 0.854707
O O9 0.661507 0.495283 0.137559
O O10 0.727569 0.556243 0.934855
O O11 0.405710 0.249690 0.766498
O O12 0.000000 0.031173 0.750000
#
# Coordination Sequence:
#
# PCOD9264526 Si02
#       6
#     8   8   8   4   8   8
#     4  10  21  39  66  95 130 172 221 281 342 391
#     4  11  24  45  66  97 132 177 227 279 335 399
#     4  10  22  40  63  91 134 175 221 282 326 401
#     4  12  26  42  70 100 136 182 226 276 346 394
#     4  10  19  35  59  91 125 168 223 273 340 394
#     4  11  23  42  66  99 135 173 224 282 334 404
#
# _framework density 22.708591999999999
#
# number of rings (size 3 to 8) (size 9 to 14) (size 15 to 20)
#    0.000    1.455    1.818    3.273    0.000    3.636 
#    6.545    0.000    2.000    0.000    0.000    0.000 
#    0.000    0.000    0.000    0.000    0.000    0.000 
#
# Total GULP energy -122874.542855 kJ/mol
# GULP energy per Si atom -5585.206493 kJ/mol
# Density = 2.265691 g / cm^3
# Si number density = 22.708592 Si / 1000 Ang^3
#
#
#
# Elastic Constant Matrix: (Units=GPa)
#
#
# Indices 1 2 3 4 5 6 
#
# 1 85.3199 38.5407 3.8072 0.0000 3.4020 0.0000
# 2 38.5407 109.5527 41.3253 0.0000 4.5379 0.0000
# 3 3.8072 41.3253 88.4741 0.0000 4.9686 0.0000
# 4 0.0000 0.0000 0.0000 1.6585 0.0000 -27.4069
# 5 3.4020 4.5379 4.9686 0.0000 17.6267 0.0000
# 6 0.0000 0.0000 0.0000 -27.4069 0.0000 -3.2612
#
#
#
# Elastic Compliance Matrix: (Units=1/GPa)
#
#
# Indices 1 2 3 4 5 6 
#
# 1 0.014310 -0.005783 0.002191 0.000000 -0.001891 0.000000
# 2 -0.005783 0.013452 -0.005998 0.000000 -0.000656 0.000000
# 3 0.002191 -0.005998 0.014171 0.000000 -0.002873 0.000000
# 4 0.000000 0.000000 0.000000 0.004311 0.000000 -0.036226
# 5 -0.001891 -0.000656 -0.002873 0.000000 0.058076 0.000000
# 6 0.000000 0.000000 0.000000 -0.036226 0.000000 -0.002192
#
#
# Mechanical properties :
#
#
# Convention : Reuss Voigt Hill
#
# Bulk Modulus (GPa) = 43.94476 50.07702 47.01089
# Shear Modulus (GPa) = 38.79253 16.51639 27.65446
#
# Velocity S-wave (km/s) = 4.13761 2.69981 3.49348
# Velocity P-wave (km/s) = 6.49770 5.64079 6.08435
#
# Compressibility (1/GPa) = 0.02275584
#
# Stress axis : x y z
#
# Youngs Moduli (GPa) = 69.87942 74.33851 70.56565
#
# Poissons Ratio (x) = 0.42988 -0.15464
# Poissons Ratio (y) = 0.40409 0.42322
# Poissons Ratio (z) = -0.15314 0.44585
#
# Static dielectric constant tensor:
#      x y z
#    x 1.821020 0.000000 -0.014040 
#    y 0.000000 1.851360 0.000000 
#    z -0.014040 0.000000 1.917010 
# 
# From -- ./inp_files/39743.got.cif
#   From: 2010.05.17/outbox.cif.g08.bks.cpg/sg15_20_cif.got.tgz:39743.got - 2010.06.03 18:47:42.
