data_PCOD9264239
_publ_section_title
;
Structure prediction by ZEFSAII (Michael W. Deem and Ramdas Pophale) SiO2 
 PCOD9264239
Probable space group: C 2/C
;
_chemical_formula_sum "Si O2"
_cell_formula_units_Z 44
_cell_length_a 6.275050
_cell_length_b 12.599454
_cell_length_c 27.001356
_cell_angle_alpha 90.000000
_cell_angle_beta 100.342685
_cell_angle_gamma 90.000000
_cell_volume 2100.099754
_symmetry_space_group_name_H-M "C 2/C"
_symmetry_group_IT_number 15
_symmetry_cell_setting 'monoclinic'
loop_
_space_group_symop_operation_xyz
x,y,z
-x,y,1/2-z
-x,-y,-z
x,-y,1/2+z
1/2+x,1/2+y,z
1/2-x,1/2+y,1/2-z
1/2-x,1/2-y,-z
1/2+x,1/2-y,1/2+z
loop_
_atom_site_type_symbol
_atom_site_label
_atom_site_fract_x
_atom_site_fract_y
_atom_site_fract_z
Si Si1 0.825052 0.655187 0.842985
Si Si2 0.414678 0.513680 0.795396
Si Si3 0.500000 0.842918 0.250000
Si Si4 0.245678 0.530647 0.887775
Si Si5 0.422609 0.291968 0.074321
Si Si6 0.350243 0.085884 0.019818
O O1 0.611284 0.593424 0.815794
O O2 0.928659 0.711340 0.798771
O O3 0.745347 0.721246 0.887047
O O4 0.998003 0.566109 0.868086
O O5 0.500000 0.452627 0.750000
O O6 0.343623 0.466326 0.845221
O O7 0.202470 0.581889 0.772344
O O8 0.375076 0.641293 0.897883
O O9 0.272351 0.469886 0.940107
O O10 0.481730 0.181148 0.051585
O O11 0.303538 0.361464 0.027366
O O12 0.500000 0.000000 0.000000
#
# Coordination Sequence:
#
# PCOD9264239 Si02
#       6
#     8   8   4   8   8   8
#     4   9  16  32  53  84 112 146 189 228 282 337
#     4   8  15  28  53  86 112 145 188 228 281 340
#     4   8  14  26  54  86 110 146 184 226 284 336
#     4  10  19  35  57  82 113 153 188 232 288 331
#     4  10  22  38  56  82 114 149 192 236 278 338
#     4  11  22  39  57  82 115 152 192 237 280 333
#
# _framework density 20.951384999999998
#
# number of rings (size 3 to 8) (size 9 to 14) (size 15 to 20)
#    0.000    2.545    1.818    0.545    0.000    0.727 
#    3.273    0.000    2.000    0.000  118.182    0.000 
#    0.000    0.000    0.000    0.000    0.000    0.000 
#
# Total GULP energy -122528.123411 kJ/mol
# GULP energy per Si atom -5569.460155 kJ/mol
# Density = 2.090370 g / cm^3
# Si number density = 20.951385 Si / 1000 Ang^3
#
#
#
# Elastic Constant Matrix: (Units=GPa)
#
#
# Indices 1 2 3 4 5 6 
#
# 1 97.9892 25.2376 51.9653 0.0000 -8.3552 0.0000
# 2 25.2376 64.5948 35.3515 0.0000 -19.4378 0.0000
# 3 51.9653 35.3515 156.9418 0.0000 -48.4504 0.0000
# 4 0.0000 0.0000 0.0000 10.7040 0.0000 -9.8306
# 5 -8.3552 -19.4378 -48.4504 0.0000 49.1694 0.0000
# 6 0.0000 0.0000 0.0000 -9.8306 0.0000 13.4991
#
#
#
# Elastic Compliance Matrix: (Units=1/GPa)
#
#
# Indices 1 2 3 4 5 6 
#
# 1 0.013391 -0.003795 -0.004800 0.000000 -0.003954 0.000000
# 2 -0.003795 0.019421 -0.001361 0.000000 0.005692 0.000000
# 3 -0.004800 -0.001361 0.011282 0.000000 0.009763 0.000000
# 4 0.000000 0.000000 0.000000 0.282099 0.000000 0.205437
# 5 -0.003954 0.005692 0.009763 0.000000 0.031536 0.000000
# 6 0.000000 0.000000 0.000000 0.205437 0.000000 0.223687
#
#
# Mechanical properties :
#
#
# Convention : Reuss Voigt Hill
#
# Bulk Modulus (GPa) = 41.35264 60.51498 50.93381
# Shear Modulus (GPa) = 8.20494 28.47257 18.33876
#
# Velocity S-wave (km/s) = 1.98108 3.69044 2.96176
# Velocity P-wave (km/s) = 5.00132 6.86333 6.00494
#
# Compressibility (1/GPa) = 0.02418225
#
# Stress axis : x y z
#
# Youngs Moduli (GPa) = 74.67759 51.48936 88.63959
#
# Poissons Ratio (x) = 0.19540 0.42546
# Poissons Ratio (y) = 0.28340 0.12064
# Poissons Ratio (z) = 0.35844 0.07008
#
# Static dielectric constant tensor:
#      x y z
#    x 1.741770 0.000000 -0.050760 
#    y 0.000000 1.736640 0.000000 
#    z -0.050760 0.000000 1.823710 
# 
# From -- ./inp_files/285478.got.cif
#   From: 2010.05.17/outbox.cif.g08.bks.cpg/sg15_143_cif.got.tgz:285478.got - 2010.06.03 18:47:42.
