data_PCOD9264219
_publ_section_title
;
Structure prediction by ZEFSAII (Michael W. Deem and Ramdas Pophale) SiO2 
 PCOD9264219
Probable space group: C 2/C
;
_chemical_formula_sum "Si O2"
_cell_formula_units_Z 40
_cell_length_a 11.463228
_cell_length_b 11.673938
_cell_length_c 12.415528
_cell_angle_alpha 90.000000
_cell_angle_beta 104.207344
_cell_angle_gamma 90.000000
_cell_volume 1610.640995
_symmetry_space_group_name_H-M "C 2/C"
_symmetry_group_IT_number 15
_symmetry_cell_setting 'monoclinic'
loop_
_space_group_symop_operation_xyz
x,y,z
-x,y,1/2-z
-x,-y,-z
x,-y,1/2+z
1/2+x,1/2+y,z
1/2-x,1/2+y,1/2-z
1/2-x,1/2-y,-z
1/2+x,1/2-y,1/2+z
loop_
_atom_site_type_symbol
_atom_site_label
_atom_site_fract_x
_atom_site_fract_y
_atom_site_fract_z
Si Si1 0.086466 0.699033 0.360470
Si Si2 0.740528 0.342480 0.260965
Si Si3 0.994025 0.664630 0.922048
Si Si4 0.726945 0.989884 0.436623
Si Si5 0.821323 0.824375 0.607814
O O1 0.134292 0.815816 0.318974
O O2 0.015996 0.701269 0.456280
O O3 0.203330 0.622260 0.413035
O O4 0.000000 0.645189 0.250000
O O5 0.865393 0.372005 0.347846
O O6 0.720473 0.432313 0.159929
O O7 0.764541 0.220243 0.204913
O O8 0.092704 0.565183 0.924797
O O9 0.045240 0.775464 0.872037
O O10 0.801095 0.950581 0.558310
O O11 0.750000 0.750000 0.500000
#
# Coordination Sequence:
#
# PCOD9264219 Si02
#       5
#     8   8   8   8   8
#     4  12  22  34  56  87 113 144 186 233 275 323
#     4  10  20  35  54  82 114 146 181 228 280 329
#     4  10  19  35  57  80 109 145 183 229 277 327
#     4  10  20  36  58  82 110 147 187 228 276 328
#     4   8  16  34  55  75 105 146 179 218 273 327
#
# _framework density 24.834834000000001
#
# number of rings (size 3 to 8) (size 9 to 14) (size 15 to 20)
#    0.000    2.400    0.000    8.400    0.000    1.600 
#    0.000    1.000    0.000   12.000    0.000    0.000 
#    0.000    0.000    0.000    0.000    0.000    0.000 
#
# Total GULP energy -111796.894688 kJ/mol
# GULP energy per Si atom -5589.844734 kJ/mol
# Density = 2.477831 g / cm^3
# Si number density = 24.834834 Si / 1000 Ang^3
#
#
#
# Elastic Constant Matrix: (Units=GPa)
#
#
# Indices 1 2 3 4 5 6 
#
# 1 40.3799 20.1844 8.6729 0.0000 -13.5722 0.0000
# 2 20.1844 63.3250 16.4049 0.0000 -14.2273 0.0000
# 3 8.6729 16.4049 111.8354 0.0000 -22.7047 0.0000
# 4 0.0000 0.0000 0.0000 25.7756 0.0000 3.4120
# 5 -13.5722 -14.2273 -22.7047 0.0000 37.5317 0.0000
# 6 0.0000 0.0000 0.0000 3.4120 0.0000 25.7911
#
#
#
# Elastic Compliance Matrix: (Units=1/GPa)
#
#
# Indices 1 2 3 4 5 6 
#
# 1 0.031703 -0.008299 0.000510 0.000000 0.008627 0.000000
# 2 -0.008299 0.019621 -0.001521 0.000000 0.003517 0.000000
# 3 0.000510 -0.001521 0.010312 0.000000 0.005846 0.000000
# 4 0.000000 0.000000 0.000000 0.039488 0.000000 -0.005224
# 5 0.008627 0.003517 0.005846 0.000000 0.034634 0.000000
# 6 0.000000 0.000000 0.000000 -0.005224 0.000000 0.039464
#
#
# Mechanical properties :
#
#
# Convention : Reuss Voigt Hill
#
# Bulk Modulus (GPa) = 23.24641 34.00721 28.62681
# Shear Modulus (GPa) = 24.01766 29.17156 26.59461
#
# Velocity S-wave (km/s) = 3.11319 3.43100 3.27595
# Velocity P-wave (km/s) = 4.72264 5.42390 5.08537
#
# Compressibility (1/GPa) = 0.04301740
#
# Stress axis : x y z
#
# Youngs Moduli (GPa) = 31.54245 50.96609 96.97326
#
# Poissons Ratio (x) = 0.42297 -0.04948
# Poissons Ratio (y) = 0.26178 0.14746
# Poissons Ratio (z) = -0.01609 0.07750
#
# Static dielectric constant tensor:
#      x y z
#    x 1.972750 0.000000 0.004280 
#    y 0.000000 2.068200 0.000000 
#    z 0.004280 0.000000 1.978080 
# 
# From -- ./inp_files/85699.got.cif
#   From: 2010.05.17/outbox.cif.g08.bks.cpg/sg15_43_cif.got.tgz:85699.got - 2010.06.03 18:47:42.
