data_PCOD9264696
_publ_section_title
;
Structure prediction by ZEFSAII (Michael W. Deem and Ramdas Pophale) SiO2 
 PCOD9264696
Probable space group: C 2/C
;
_chemical_formula_sum "Si O2"
_cell_formula_units_Z 44
_cell_length_a 11.756412
_cell_length_b 24.363205
_cell_length_c 12.807912
_cell_angle_alpha 90.000000
_cell_angle_beta 25.651947
_cell_angle_gamma 90.000000
_cell_volume 1588.101888
_symmetry_space_group_name_H-M "C 2/C"
_symmetry_group_IT_number 15
_symmetry_cell_setting 'monoclinic'
loop_
_space_group_symop_operation_xyz
x,y,z
-x,y,1/2-z
-x,-y,-z
x,-y,1/2+z
1/2+x,1/2+y,z
1/2-x,1/2+y,1/2-z
1/2-x,1/2-y,-z
1/2+x,1/2-y,1/2+z
loop_
_atom_site_type_symbol
_atom_site_label
_atom_site_fract_x
_atom_site_fract_y
_atom_site_fract_z
Si Si1 0.242513 0.722449 0.352653
Si Si2 0.500000 0.091219 0.750000
Si Si3 0.774375 0.006561 0.365915
Si Si4 0.035264 0.888057 0.888420
Si Si5 0.007521 0.595161 0.127459
Si Si6 0.903394 0.297167 0.934944
O O1 0.313665 0.658289 0.306271
O O2 0.019642 0.746039 0.612800
O O3 0.105448 0.728453 0.349601
O O4 0.626569 0.051217 0.559339
O O5 0.730943 0.123907 0.619202
O O6 0.934842 0.047124 0.158190
O O7 0.000000 0.978360 0.250000
O O8 0.591022 0.956189 0.485816
O O9 0.211786 0.883850 0.845615
O O10 0.000000 0.570612 0.250000
O O11 0.197071 0.646266 0.932382
O O12 0.000000 0.328242 0.750000
O O13 0.750000 0.250000 0.000000
#
# Coordination Sequence:
#
# PCOD9264696 Si02
#       6
#     8   4   8   8   8   8
#     4  11  24  42  66 102 140 181 245 290 360 434
#     4  10  22  44  70  88 134 176 236 296 364 408
#     4  10  21  42  65  97 133 180 237 291 359 422
#     4  10  24  43  70  97 133 189 231 298 359 423
#     4  10  21  40  62 104 142 177 237 282 359 438
#     4  10  19  35  61  96 142 194 227 282 353 434
#
# _framework density 27.706030999999999
#
# number of rings (size 3 to 8) (size 9 to 14) (size 15 to 20)
#    0.000    1.818    2.727    0.545    2.545    1.455 
#    3.273    0.909    0.000    0.000    0.000    0.000 
#    0.000    0.000    0.000    0.000    0.000    0.000 
#
# Total GULP energy -122565.098979 kJ/mol
# GULP energy per Si atom -5571.140863 kJ/mol
# Density = 2.764297 g / cm^3
# Si number density = 27.706031 Si / 1000 Ang^3
#
#
#
# Elastic Constant Matrix: (Units=GPa)
#
#
# Indices 1 2 3 4 5 6 
#
# 1 124.5513 7.2015 37.5242 0.0122 -36.5738 -0.0064
# 2 7.2015 180.7187 52.3750 -0.0038 -23.9215 -0.0022
# 3 37.5242 52.3750 133.3500 0.0021 -28.4997 -0.0121
# 4 0.0122 -0.0038 0.0021 29.4311 -0.0092 -12.3405
# 5 -36.5738 -23.9215 -28.4997 -0.0092 37.4855 0.0082
# 6 -0.0064 -0.0022 -0.0121 -12.3405 0.0082 20.4624
#
#
#
# Elastic Compliance Matrix: (Units=1/GPa)
#
#
# Indices 1 2 3 4 5 6 
#
# 1 0.011673 0.001440 -0.001456 -0.000002 0.011201 -0.000003
# 2 0.001440 0.006630 -0.002155 0.000001 0.003997 -0.000001
# 3 -0.001456 -0.002155 0.009740 0.000003 0.004609 0.000005
# 4 -0.000002 0.000001 0.000003 0.045478 0.000006 0.027427
# 5 0.011201 0.003997 0.004609 0.000006 0.043661 -0.000007
# 6 -0.000003 -0.000001 0.000005 0.027427 -0.000007 0.065411
#
#
# Mechanical properties :
#
#
# Convention : Reuss Voigt Hill
#
# Bulk Modulus (GPa) = 42.19351 70.31348 56.25350
# Shear Modulus (GPa) = 25.66262 40.24374 32.95318
#
# Velocity S-wave (km/s) = 3.04673 3.81534 3.45249
# Velocity P-wave (km/s) = 5.25726 6.69646 6.02002
#
# Compressibility (1/GPa) = 0.02370033
#
# Stress axis : x y z
#
# Youngs Moduli (GPa) = 85.66442 150.83743 102.66608
#
# Poissons Ratio (x) = -0.21714 0.14952
# Poissons Ratio (y) = -0.12332 0.22122
# Poissons Ratio (z) = 0.12476 0.32501
#
# Static dielectric constant tensor:
#      x y z
#    x 1.587160 0.000010 0.148860 
#    y 0.000010 2.361330 0.000020 
#    z 0.148860 0.000020 2.475950 
# 
# From -- ./inp_files/207295.got.cif
#   From: 2010.05.17/outbox.cif.g08.bks.cpg/sg15_104_cif.got.tgz:207295.got - 2010.06.03 18:47:42.
