data_PCOD9264307
_publ_section_title
;
Structure prediction by ZEFSAII (Michael W. Deem and Ramdas Pophale) SiO2 
 PCOD9264307
Probable space group: C 2/C
;
_chemical_formula_sum "Si O2"
_cell_formula_units_Z 56
_cell_length_a 8.201274
_cell_length_b 11.847933
_cell_length_c 26.103245
_cell_angle_alpha 90.000000
_cell_angle_beta 62.310770
_cell_angle_gamma 90.000000
_cell_volume 2245.937422
_symmetry_space_group_name_H-M "C 2/C"
_symmetry_group_IT_number 15
_symmetry_cell_setting 'monoclinic'
loop_
_space_group_symop_operation_xyz
x,y,z
-x,y,1/2-z
-x,-y,-z
x,-y,1/2+z
1/2+x,1/2+y,z
1/2-x,1/2+y,1/2-z
1/2-x,1/2-y,-z
1/2+x,1/2-y,1/2+z
loop_
_atom_site_type_symbol
_atom_site_label
_atom_site_fract_x
_atom_site_fract_y
_atom_site_fract_z
Si Si1 0.978998 0.993315 0.101787
Si Si2 0.139961 0.393512 0.978426
Si Si3 0.845617 0.660839 0.312780
Si Si4 0.474872 0.769038 0.195795
Si Si5 0.887296 0.991253 0.814428
Si Si6 0.706483 0.894817 0.076815
Si Si7 0.511530 0.112494 0.388934
O O1 0.803210 0.065747 0.147962
O O2 0.148379 0.068082 0.057475
O O3 0.062004 0.942625 0.141787
O O4 0.913364 0.909759 0.067084
O O5 0.085717 0.337791 0.931788
O O6 0.135591 0.336768 0.034934
O O7 0.000000 0.500000 0.000000
O O8 0.727224 0.755581 0.300007
O O9 0.000000 0.619806 0.250000
O O10 0.948000 0.689287 0.351172
O O11 0.500000 0.813485 0.250000
O O12 0.545939 0.639539 0.188536
O O13 0.598708 0.839334 0.139287
O O14 0.670569 0.970548 0.843036
O O15 0.000000 0.035258 0.750000
O O16 0.651117 0.025445 0.074942
#
# Coordination Sequence:
#
# PCOD9264307 Si02
#       7
#     8   8   8   8   8   8   8
#     4   9  18  32  57  82 102 144 197 226 264 340
#     4   9  18  35  55  80 114 145 178 234 292 331
#     4  10  19  35  58  79 106 148 190 231 281 340
#     4  10  21  35  51  78 114 145 177 230 294 337
#     4   9  17  33  52  73 104 141 179 229 277 325
#     4  10  20  34  54  80 111 143 179 228 281 334
#     4   9  18  34  56  78 101 142 193 226 262 337
#
# _framework density 24.933909
#
# number of rings (size 3 to 8) (size 9 to 14) (size 15 to 20)
#    0.000    2.571    0.000    3.000    0.000    3.429 
#    0.000   16.429    0.000    0.000    0.000    0.000 
#    0.000    0.000    0.000    0.000    0.000    0.000 
#
# Total GULP energy -156166.024324 kJ/mol
# GULP energy per Si atom -5577.358012 kJ/mol
# Density = 2.487716 g / cm^3
# Si number density = 24.933909 Si / 1000 Ang^3
#
#
#
# Elastic Constant Matrix: (Units=GPa)
#
#
# Indices 1 2 3 4 5 6 
#
# 1 157.2999 29.8498 62.3538 0.0000 36.4878 0.0000
# 2 29.8498 75.8542 23.3985 0.0000 5.2929 0.0000
# 3 62.3538 23.3985 140.3938 0.0000 39.6745 0.0000
# 4 0.0000 0.0000 0.0000 -1.3028 0.0000 -11.7375
# 5 36.4878 5.2929 39.6745 0.0000 68.4373 0.0000
# 6 0.0000 0.0000 0.0000 -11.7375 0.0000 -4.5214
#
#
#
# Elastic Compliance Matrix: (Units=1/GPa)
#
#
# Indices 1 2 3 4 5 6 
#
# 1 0.008483 -0.002346 -0.002571 0.000000 -0.002851 0.000000
# 2 -0.002346 0.014552 -0.001697 0.000000 0.001109 0.000000
# 3 -0.002571 -0.001697 0.009714 0.000000 -0.004130 0.000000
# 4 0.000000 0.000000 0.000000 0.034285 0.000000 -0.089003
# 5 -0.002851 0.001109 -0.004130 0.000000 0.018440 0.000000
# 6 0.000000 0.000000 0.000000 -0.089003 0.000000 0.009879
#
#
# Mechanical properties :
#
#
# Convention : Reuss Voigt Hill
#
# Bulk Modulus (GPa) = 51.22379 67.19469 59.20924
# Shear Modulus (GPa) = 43.44451 29.71900 36.58175
#
# Velocity S-wave (km/s) = 4.17872 3.45615 3.83449
# Velocity P-wave (km/s) = 6.62349 6.55242 6.58806
#
# Compressibility (1/GPa) = 0.01952218
#
# Stress axis : x y z
#
# Youngs Moduli (GPa) = 117.88411 68.71693 102.93915
#
# Poissons Ratio (x) = 0.16122 0.26465
# Poissons Ratio (y) = 0.27658 0.17466
# Poissons Ratio (z) = 0.30307 0.11659
#
# Static dielectric constant tensor:
#      x y z
#    x 2.073150 0.000000 0.027420 
#    y 0.000000 1.991050 0.000000 
#    z 0.027420 0.000000 2.100170 
# 
# From -- ./inp_files/289248.got.cif
#   From: 2010.05.17/outbox.cif.g08.bks.cpg/sg15_145_cif.got.tgz:289248.got - 2010.06.03 18:47:42.
