data_PCOD9264659
_publ_section_title
;
Structure prediction by ZEFSAII (Michael W. Deem and Ramdas Pophale) SiO2 
 PCOD9264659
Probable space group: C 2/C
;
_chemical_formula_sum "Si O2"
_cell_formula_units_Z 60
_cell_length_a 28.158359
_cell_length_b 10.718270
_cell_length_c 9.020746
_cell_angle_alpha 90.000000
_cell_angle_beta 110.350412
_cell_angle_gamma 90.000000
_cell_volume 2552.609380
_symmetry_space_group_name_H-M "C 2/C"
_symmetry_group_IT_number 15
_symmetry_cell_setting 'monoclinic'
loop_
_space_group_symop_operation_xyz
x,y,z
-x,y,1/2-z
-x,-y,-z
x,-y,1/2+z
1/2+x,1/2+y,z
1/2-x,1/2+y,1/2-z
1/2-x,1/2-y,-z
1/2+x,1/2-y,1/2+z
loop_
_atom_site_type_symbol
_atom_site_label
_atom_site_fract_x
_atom_site_fract_y
_atom_site_fract_z
Si Si1 0.816923 0.793650 0.922920
Si Si2 0.389254 0.517783 0.663438
Si Si3 0.207124 0.641366 0.310979
Si Si4 0.500000 0.619129 0.750000
Si Si5 0.463496 0.819494 0.915653
Si Si6 0.135161 0.403312 0.209837
Si Si7 0.364388 0.332169 0.406578
Si Si8 0.065017 0.489548 0.376298
O O1 0.766501 0.874808 0.846960
O O2 0.835379 0.720352 0.800377
O O3 0.861951 0.871401 0.043759
O O4 0.801702 0.690026 0.030818
O O5 0.449448 0.538000 0.711045
O O6 0.372456 0.387453 0.576830
O O7 0.369713 0.545893 0.806730
O O8 0.174452 0.517906 0.254785
O O9 0.185036 0.751449 0.182263
O O10 0.500367 0.711805 0.894149
O O11 0.411114 0.751924 0.900552
O O12 0.452741 0.911093 0.765776
O O13 0.473983 0.902916 0.072490
O O14 0.104643 0.404205 0.329872
O O15 0.095124 0.434008 0.035234
#
# Coordination Sequence:
#
# PCOD9264659 Si02
#       8
#     8   8   8   4   8   8   8   8
#     4  10  22  38  59  90 126 167 214 257 322 386
#     4  10  23  40  65  89 126 171 210 265 315 380
#     4  10  20  37  61  88 125 171 203 262 325 381
#     4  10  22  42  66  94 124 168 222 264 332 368
#     4  10  21  38  64  90 127 162 209 272 312 385
#     4  11  18  36  60  88 121 170 203 255 320 386
#     4  10  20  41  61  91 126 164 212 265 317 377
#     4  10  19  35  61  88 119 164 204 249 327 368
#
# _framework density 23.50536
#
# number of rings (size 3 to 8) (size 9 to 14) (size 15 to 20)
#    0.000    1.867    4.000    1.600    1.867    3.733 
#    0.000    0.667    0.000   10.400    0.000    0.000 
#    0.000    0.000    0.000    0.000    0.000    0.000 
#
# Total GULP energy -167818.149931 kJ/mol
# GULP energy per Si atom -5593.938331 kJ/mol
# Density = 2.345186 g / cm^3
# Si number density = 23.505360 Si / 1000 Ang^3
#
#
#
# Elastic Constant Matrix: (Units=GPa)
#
#
# Indices 1 2 3 4 5 6 
#
# 1 77.7560 8.6818 23.7059 0.0000 -4.4289 0.0000
# 2 8.6818 40.4800 35.5099 0.0000 -17.8074 0.0000
# 3 23.7059 35.5099 89.1759 0.0000 -17.2680 0.0000
# 4 0.0000 0.0000 0.0000 39.7613 0.0000 -8.0863
# 5 -4.4289 -17.8074 -17.2680 0.0000 29.6761 0.0000
# 6 0.0000 0.0000 0.0000 -8.0863 0.0000 18.5232
#
#
#
# Elastic Compliance Matrix: (Units=1/GPa)
#
#
# Indices 1 2 3 4 5 6 
#
# 1 0.013999 0.000444 -0.003879 0.000000 0.000098 0.000000
# 2 0.000444 0.045881 -0.014700 0.000000 0.019044 0.000000
# 3 -0.003879 -0.014700 0.018346 0.000000 0.001275 0.000000
# 4 0.000000 0.000000 0.000000 0.027601 0.000000 0.012049
# 5 0.000098 0.019044 0.001275 0.000000 0.045881 0.000000
# 6 0.000000 0.000000 0.000000 0.012049 0.000000 0.059247
#
#
# Mechanical properties :
#
#
# Convention : Reuss Voigt Hill
#
# Bulk Modulus (GPa) = 23.83519 38.13411 30.98465
# Shear Modulus (GPa) = 19.14162 26.89306 23.01734
#
# Velocity S-wave (km/s) = 2.85678 3.38616 3.13267
# Velocity P-wave (km/s) = 4.58737 5.61666 5.12791
#
# Compressibility (1/GPa) = 0.04195477
#
# Stress axis : x y z
#
# Youngs Moduli (GPa) = 71.43134 21.79538 54.50916
#
# Poissons Ratio (x) = -0.00967 0.21145
# Poissons Ratio (y) = -0.03169 0.80130
# Poissons Ratio (z) = 0.27709 0.32040
#
# Static dielectric constant tensor:
#      x y z
#    x 1.879070 0.000000 -0.003540 
#    y 0.000000 1.898260 0.000000 
#    z -0.003540 0.000000 1.911570 
# 
# From -- ./inp_files/69406.got.cif
#   From: 2010.05.17/outbox.cif.g08.bks.cpg/sg15_35_cif.got.tgz:69406.got - 2010.06.03 18:47:42.
