data_PCOD9264133
_publ_section_title
;
Structure prediction by ZEFSAII (Michael W. Deem and Ramdas Pophale) SiO2 
 PCOD9264133
Probable space group: C 2/C
;
_chemical_formula_sum "Si O2"
_cell_formula_units_Z 52
_cell_length_a 29.100260
_cell_length_b 18.068276
_cell_length_c 8.796390
_cell_angle_alpha 90.000000
_cell_angle_beta 38.714432
_cell_angle_gamma 90.000000
_cell_volume 2892.698498
_symmetry_space_group_name_H-M "C 2/C"
_symmetry_group_IT_number 15
_symmetry_cell_setting 'monoclinic'
loop_
_space_group_symop_operation_xyz
x,y,z
-x,y,1/2-z
-x,-y,-z
x,-y,1/2+z
1/2+x,1/2+y,z
1/2-x,1/2+y,1/2-z
1/2-x,1/2-y,-z
1/2+x,1/2-y,1/2+z
loop_
_atom_site_type_symbol
_atom_site_label
_atom_site_fract_x
_atom_site_fract_y
_atom_site_fract_z
Si Si1 0.500000 0.816832 0.250000
Si Si2 0.130115 0.239811 0.726043
Si Si3 0.188435 0.728565 0.534913
Si Si4 0.342934 0.941591 0.906389
Si Si5 0.083549 0.682956 0.069355
Si Si6 0.222516 0.841179 0.194751
Si Si7 0.370275 0.096915 0.982269
O O1 0.436467 0.769894 0.497518
O O2 0.548077 0.867907 0.237927
O O3 0.098398 0.246264 0.639849
O O4 0.164926 0.166333 0.706862
O O5 0.202347 0.293825 0.534694
O O6 0.250000 0.750000 0.500000
O O7 0.185270 0.799378 0.432982
O O8 0.189808 0.658635 0.414531
O O9 0.122989 0.702419 0.811439
O O10 0.383962 0.886878 0.920202
O O11 0.362965 0.926007 0.678672
O O12 0.360541 0.024922 0.905499
O O13 0.256581 0.920531 0.142793
O O14 0.000000 0.669345 0.250000
#
# Coordination Sequence:
#
# PCOD9264133 Si02
#       7
#     4   8   8   8   8   8   8
#     4  12  20  36  58  82 118 164 194 234 290 350
#     4  10  19  35  56  76 110 153 199 240 287 331
#     4  12  21  36  61  80 113 152 200 247 286 338
#     4  11  24  39  55  79 122 164 196 236 287 347
#     4  11  22  35  53  87 118 151 191 240 287 355
#     4  10  19  39  55  78 107 162 198 245 280 336
#     4  12  25  38  55  84 119 162 197 236 291 358
#
# _framework density 17.976295
#
# number of rings (size 3 to 8) (size 9 to 14) (size 15 to 20)
#    0.000    0.923    7.692    2.769    1.077    0.615 
#    0.000    0.000    0.000    0.000    0.000    0.000 
#    2.308    6.769    0.308    0.000    0.000    0.000 
#
# Total GULP energy -144744.371868 kJ/mol
# GULP energy per Si atom -5567.091226 kJ/mol
# Density = 1.793538 g / cm^3
# Si number density = 17.976295 Si / 1000 Ang^3
#
#
#
# Elastic Constant Matrix: (Units=GPa)
#
#
# Indices 1 2 3 4 5 6 
#
# 1 110.6658 56.2427 19.6482 0.0000 3.5299 0.0000
# 2 56.2427 43.4165 23.7137 0.0000 -18.1298 0.0000
# 3 19.6482 23.7137 76.5904 0.0000 16.3410 0.0000
# 4 0.0000 0.0000 0.0000 17.2116 0.0000 3.3980
# 5 3.5299 -18.1298 16.3410 0.0000 26.0539 0.0000
# 6 0.0000 0.0000 0.0000 3.3980 0.0000 35.8423
#
#
#
# Elastic Compliance Matrix: (Units=1/GPa)
#
#
# Indices 1 2 3 4 5 6 
#
# 1 -0.010604 0.042843 -0.019871 0.000000 0.043712 0.000000
# 2 0.042843 -0.091442 0.037100 0.000000 -0.092705 0.000000
# 3 -0.019871 0.037100 0.000675 0.000000 0.028085 0.000000
# 4 0.000000 0.000000 0.000000 0.059208 0.000000 -0.005613
# 5 0.043712 -0.092705 0.028085 0.000000 -0.049665 0.000000
# 6 0.000000 0.000000 0.000000 -0.005613 0.000000 0.028432
#
#
# Mechanical properties :
#
#
# Convention : Reuss Voigt Hill
#
# Bulk Modulus (GPa) = 53.26580 47.76464 50.51522
# Shear Modulus (GPa) = -28.20372 24.55942 -1.82215
#
# Velocity S-wave (km/s) = -3.96528 3.70024 -1.00789
# Velocity P-wave (km/s) = 2.95480 6.69957 5.17760
#
# Compressibility (1/GPa) = 0.01877377
#
# Stress axis : x y z
#
# Youngs Moduli (GPa) = -94.30672 -10.93587 1481.62898
#
# Poissons Ratio (x) = 0.46852 29.44128
# Poissons Ratio (y) = 4.04037 -54.96907
# Poissons Ratio (z) = -1.87396 0.40573
#
# Static dielectric constant tensor:
#      x y z
#    x 1.652820 0.000000 -0.000720 
#    y 0.000000 1.659330 0.000000 
#    z -0.000720 0.000000 1.539810 
# 
# From -- ./inp_files/70378.got.cif
#   From: 2010.05.17/outbox.cif.g08.bks.cpg/sg15_36_cif.got.tgz:70378.got - 2010.06.03 18:47:42.
