data_PCOD9264471
_publ_section_title
;
Structure prediction by ZEFSAII (Michael W. Deem and Ramdas Pophale) SiO2 
 PCOD9264471
Probable space group: C 2/C
;
_chemical_formula_sum "Si O2"
_cell_formula_units_Z 48
_cell_length_a 8.632461
_cell_length_b 14.647842
_cell_length_c 20.975496
_cell_angle_alpha 90.000000
_cell_angle_beta 115.417455
_cell_angle_gamma 90.000000
_cell_volume 2395.557727
_symmetry_space_group_name_H-M "C 2/C"
_symmetry_group_IT_number 15
_symmetry_cell_setting 'monoclinic'
loop_
_space_group_symop_operation_xyz
x,y,z
-x,y,1/2-z
-x,-y,-z
x,-y,1/2+z
1/2+x,1/2+y,z
1/2-x,1/2+y,1/2-z
1/2-x,1/2-y,-z
1/2+x,1/2-y,1/2+z
loop_
_atom_site_type_symbol
_atom_site_label
_atom_site_fract_x
_atom_site_fract_y
_atom_site_fract_z
Si Si1 0.514561 0.588625 0.327755
Si Si2 0.469719 0.891156 0.174076
Si Si3 0.742379 0.246213 0.074076
Si Si4 0.063551 0.626246 0.449983
Si Si5 0.195156 0.550217 0.602122
Si Si6 0.142169 0.598966 0.323528
O O1 0.500000 0.601600 0.250000
O O2 0.627481 0.669055 0.377791
O O3 0.617783 0.494214 0.357472
O O4 0.326218 0.594048 0.323650
O O5 0.500000 0.850681 0.250000
O O6 0.310949 0.840205 0.114107
O O7 0.627694 0.892331 0.151504
O O8 0.420798 0.995687 0.176565
O O9 0.554455 0.214114 0.060284
O O10 0.750000 0.250000 0.000000
O O11 0.175177 0.604981 0.532461
O O12 0.151174 0.637731 0.396756
O O13 0.934786 0.537721 0.423594
O O14 0.000000 0.641439 0.250000
#
# Coordination Sequence:
#
# PCOD9264471 Si02
#       6
#     8   8   8   8   8   8
#     4  11  22  38  61  88 114 151 201 246 297 359
#     4  10  19  35  59  85 117 155 195 241 294 348
#     4  11  21  37  59  87 118 159 197 231 296 364
#     4   9  18  35  57  82 117 153 191 236 284 350
#     4   9  18  34  58  83 113 151 194 238 284 346
#     4  10  21  38  60  86 114 153 197 251 301 347
#
# _framework density 20.037087
#
# number of rings (size 3 to 8) (size 9 to 14) (size 15 to 20)
#    0.000    2.000    1.667    4.500    2.333    0.667 
#    0.000    2.500    0.000    4.000    0.000    0.000 
#    0.000    0.000    0.000    0.000    0.000    0.000 
#
# Total GULP energy -133911.701216 kJ/mol
# GULP energy per Si atom -5579.654217 kJ/mol
# Density = 1.999148 g / cm^3
# Si number density = 20.037087 Si / 1000 Ang^3
#
#
#
# Elastic Constant Matrix: (Units=GPa)
#
#
# Indices 1 2 3 4 5 6 
#
# 1 141.1519 4.5935 76.5758 0.0000 -29.8333 0.0000
# 2 4.5935 9.6320 19.4440 0.0000 -5.0712 0.0000
# 3 76.5758 19.4440 177.4010 0.0000 -29.4423 0.0000
# 4 0.0000 0.0000 0.0000 -53.1040 0.0000 -0.3345
# 5 -29.8333 -5.0712 -29.4423 0.0000 37.0496 0.0000
# 6 0.0000 0.0000 0.0000 -0.3345 0.0000 20.3988
#
#
#
# Elastic Compliance Matrix: (Units=1/GPa)
#
#
# Indices 1 2 3 4 5 6 
#
# 1 0.010429 0.006743 -0.004255 0.000000 0.005939 0.000000
# 2 0.006743 0.139583 -0.016285 0.000000 0.011593 0.000000
# 3 -0.004255 -0.016285 0.009584 0.000000 0.001961 0.000000
# 4 0.000000 0.000000 0.000000 -0.018829 0.000000 -0.000309
# 5 0.005939 0.011593 0.001961 0.000000 0.034918 0.000000
# 6 0.000000 0.000000 0.000000 -0.000309 0.000000 0.049018
#
#
# Mechanical properties :
#
#
# Convention : Reuss Voigt Hill
#
# Bulk Modulus (GPa) = 7.57570 58.82351 33.19960
# Shear Modulus (GPa) = 16.87488 16.04030 16.45759
#
# Velocity S-wave (km/s) = 2.90519 2.83243 2.86904
# Velocity P-wave (km/s) = 3.87847 6.33387 5.25169
#
# Compressibility (1/GPa) = 0.13200094
#
# Stress axis : x y z
#
# Youngs Moduli (GPa) = 95.88874 7.16418 104.34042
#
# Poissons Ratio (x) = -0.04831 0.44397
# Poissons Ratio (y) = -0.64656 1.69923
# Poissons Ratio (z) = 0.40800 0.11667
#
# Static dielectric constant tensor:
#      x y z
#    x 1.697160 0.000000 -0.006530 
#    y 0.000000 1.715410 0.000000 
#    z -0.006530 0.000000 1.740370 
# 
# From -- ./inp_files/190625.got.cif
#   From: 2010.05.17/outbox.cif.g08.bks.cpg/sg15_96_cif.got.tgz:190625.got - 2010.06.03 18:47:42.
