data_PCOD9264495
_publ_section_title
;
Structure prediction by ZEFSAII (Michael W. Deem and Ramdas Pophale) SiO2 
 PCOD9264495
Probable space group: C 2/C
;
_chemical_formula_sum "Si O2"
_cell_formula_units_Z 56
_cell_length_a 23.921948
_cell_length_b 19.805775
_cell_length_c 10.391114
_cell_angle_alpha 90.000000
_cell_angle_beta 144.519618
_cell_angle_gamma 90.000000
_cell_volume 2857.564100
_symmetry_space_group_name_H-M "C 2/C"
_symmetry_group_IT_number 15
_symmetry_cell_setting 'monoclinic'
loop_
_space_group_symop_operation_xyz
x,y,z
-x,y,1/2-z
-x,-y,-z
x,-y,1/2+z
1/2+x,1/2+y,z
1/2-x,1/2+y,1/2-z
1/2-x,1/2-y,-z
1/2+x,1/2-y,1/2+z
loop_
_atom_site_type_symbol
_atom_site_label
_atom_site_fract_x
_atom_site_fract_y
_atom_site_fract_z
Si Si1 0.000000 0.650465 0.250000
Si Si2 0.448138 0.815071 0.365097
Si Si3 0.658954 0.494191 0.244604
Si Si4 0.256665 0.115460 0.546576
Si Si5 0.519331 0.427696 0.150646
Si Si6 0.000000 0.423329 0.250000
Si Si7 0.948192 0.163718 0.281853
Si Si8 0.156966 0.458520 0.058623
O O1 0.024954 0.686060 0.432173
O O2 0.088450 0.601153 0.381817
O O3 0.334162 0.831365 0.143731
O O4 0.495647 0.874869 0.367860
O O5 0.468374 0.742305 0.344300
O O6 0.706004 0.567823 0.348465
O O7 0.624033 0.458295 0.311370
O O8 0.741864 0.456083 0.325533
O O9 0.556788 0.509980 0.987117
O O10 0.166136 0.150649 0.444782
O O11 0.316339 0.062561 0.746176
O O12 0.500000 0.392360 0.250000
O O13 0.490013 0.378516 0.979963
O O14 0.093673 0.473019 0.429719
O O15 0.000000 0.141219 0.250000
#
# Coordination Sequence:
#
# PCOD9264495 Si02
#       8
#     4   8   8   8   8   4   8   8
#     4   9  24  36  60  88 122 157 190 248 302 355
#     4  11  22  42  59  88 121 159 204 238 295 359
#     4  10  19  35  59  87 121 154 190 245 302 358
#     4  10  21  36  61  87 116 155 194 241 302 351
#     4  10  22  37  58  90 119 155 201 247 303 349
#     4  11  22  36  66  92 118 157 198 244 300 361
#     4  11  23  40  63  83 117 164 203 246 291 357
#     4  10  20  35  60  90 122 148 192 248 305 355
#
# _framework density 19.597111000000002
#
# number of rings (size 3 to 8) (size 9 to 14) (size 15 to 20)
#    0.000    1.714    2.143    2.143    3.000    5.714 
#    0.000    0.000    0.000    2.571    0.000    0.000 
#    0.000    0.000    0.000    0.000    0.000    0.000 
#
# Total GULP energy -156019.928871 kJ/mol
# GULP energy per Si atom -5572.140317 kJ/mol
# Density = 1.955251 g / cm^3
# Si number density = 19.597111 Si / 1000 Ang^3
#
#
#
# Elastic Constant Matrix: (Units=GPa)
#
#
# Indices 1 2 3 4 5 6 
#
# 1 121.4762 27.7325 28.3914 0.0000 4.3120 0.0000
# 2 27.7325 73.6921 22.0442 0.0000 -7.4534 0.0000
# 3 28.3914 22.0442 55.5810 0.0000 8.1663 0.0000
# 4 0.0000 0.0000 0.0000 15.8842 0.0000 2.6105
# 5 4.3120 -7.4534 8.1663 0.0000 39.5697 0.0000
# 6 0.0000 0.0000 0.0000 2.6105 0.0000 24.7823
#
#
#
# Elastic Compliance Matrix: (Units=1/GPa)
#
#
# Indices 1 2 3 4 5 6 
#
# 1 0.009749 -0.002598 -0.003838 0.000000 -0.000760 0.000000
# 2 -0.002598 0.016829 -0.006038 0.000000 0.004699 0.000000
# 3 -0.003838 -0.006038 0.023155 0.000000 -0.005498 0.000000
# 4 0.000000 0.000000 0.000000 0.064065 0.000000 -0.006748
# 5 -0.000760 0.004699 -0.005498 0.000000 0.027374 0.000000
# 6 0.000000 0.000000 0.000000 -0.006748 0.000000 0.041062
#
#
# Mechanical properties :
#
#
# Convention : Reuss Voigt Hill
#
# Bulk Modulus (GPa) = 40.34650 45.23171 42.78910
# Shear Modulus (GPa) = 23.20791 27.55267 25.38029
#
# Velocity S-wave (km/s) = 3.44503 3.75368 3.60266
# Velocity P-wave (km/s) = 6.03796 6.47439 6.25998
#
# Compressibility (1/GPa) = 0.02478530
#
# Stress axis : x y z
#
# Youngs Moduli (GPa) = 102.57375 59.42107 43.18743
#
# Poissons Ratio (x) = 0.15435 0.16576
# Poissons Ratio (y) = 0.26644 0.26077
# Poissons Ratio (z) = 0.39369 0.35880
#
# Static dielectric constant tensor:
#      x y z
#    x 1.750310 0.000000 -0.024430 
#    y 0.000000 1.702120 0.000000 
#    z -0.024430 0.000000 1.739800 
# 
# From -- ./inp_files/119889.got.cif
#   From: 2010.05.17/outbox.cif.g08.bks.cpg/sg15_60_cif.got.tgz:119889.got - 2010.06.03 18:47:42.
