data_PCOD9264182
_publ_section_title
;
Structure prediction by ZEFSAII (Michael W. Deem and Ramdas Pophale) SiO2 
 PCOD9264182
Probable space group: C 2/C
;
_chemical_formula_sum "Si O2"
_cell_formula_units_Z 44
_cell_length_a 15.981457
_cell_length_b 7.908657
_cell_length_c 24.735474
_cell_angle_alpha 90.000000
_cell_angle_beta 149.804828
_cell_angle_gamma 90.000000
_cell_volume 1572.395062
_symmetry_space_group_name_H-M "C 2/C"
_symmetry_group_IT_number 15
_symmetry_cell_setting 'monoclinic'
loop_
_space_group_symop_operation_xyz
x,y,z
-x,y,1/2-z
-x,-y,-z
x,-y,1/2+z
1/2+x,1/2+y,z
1/2-x,1/2+y,1/2-z
1/2-x,1/2-y,-z
1/2+x,1/2-y,1/2+z
loop_
_atom_site_type_symbol
_atom_site_label
_atom_site_fract_x
_atom_site_fract_y
_atom_site_fract_z
Si Si1 0.251998 0.938811 0.977942
Si Si2 0.466962 0.407963 0.073348
Si Si3 0.426564 0.191153 0.883165
Si Si4 0.745591 0.130612 0.827861
Si Si5 0.000000 0.869864 0.750000
Si Si6 0.115817 0.744885 0.262990
O O1 0.223589 0.061229 0.013786
O O2 0.084817 0.955753 0.849147
O O3 0.250000 0.750000 0.000000
O O4 0.416394 0.934425 0.033677
O O5 0.526224 0.607491 0.098281
O O6 0.557138 0.338713 0.069679
O O7 0.531601 0.284780 0.157775
O O8 0.290779 0.153641 0.853812
O O9 0.329867 0.155621 0.773465
O O10 0.685127 0.944475 0.808851
O O11 0.652507 0.257321 0.814673
O O12 0.000000 0.772302 0.250000
#
# Coordination Sequence:
#
# PCOD9264182 Si02
#       6
#     8   8   8   8   4   8
#     4  10  20  38  62  87 112 150 208 238 274 339
#     4   9  19  34  57  80 114 154 184 237 291 330
#     4   9  19  40  60  77 115 156 195 236 274 350
#     4  10  19  35  56  86 112 157 189 232 292 343
#     4  12  20  34  66  88 108 158 204 236 280 348
#     4  10  20  33  57  88 121 146 184 243 300 335
#
# _framework density 27.982787999999999
#
# number of rings (size 3 to 8) (size 9 to 14) (size 15 to 20)
#    0.000    2.182    4.545    0.000    1.273    0.000 
#    0.000   11.818    0.000    0.000    0.000    0.000 
#    0.000    0.000    0.000    0.000    0.000    0.000 
#
# Total GULP energy -122707.938413 kJ/mol
# GULP energy per Si atom -5577.633564 kJ/mol
# Density = 2.791910 g / cm^3
# Si number density = 27.982788 Si / 1000 Ang^3
#
#
#
# Elastic Constant Matrix: (Units=GPa)
#
#
# Indices 1 2 3 4 5 6 
#
# 1 228.4177 40.7083 35.3358 0.0000 49.3854 0.0000
# 2 40.7083 60.7859 17.3500 0.0000 2.0362 -0.0001
# 3 35.3358 17.3500 70.2168 0.0005 0.4542 0.0000
# 4 0.0000 0.0000 0.0005 32.9069 0.0000 -5.9405
# 5 49.3854 2.0362 0.4542 0.0000 58.4077 0.0000
# 6 0.0000 -0.0001 0.0000 -5.9405 0.0000 -5.1281
#
#
#
# Elastic Compliance Matrix: (Units=1/GPa)
#
#
# Indices 1 2 3 4 5 6 
#
# 1 0.006539 -0.003517 -0.002387 0.000000 -0.005388 0.000000
# 2 -0.003517 0.019611 -0.003091 0.000000 0.002314 0.000000
# 3 -0.002387 -0.003091 0.016193 0.000000 0.002000 0.000000
# 4 0.000000 0.000000 0.000000 0.025133 0.000000 -0.029114
# 5 -0.005388 0.002314 0.002000 0.000000 0.021580 0.000000
# 6 0.000000 0.000000 0.000000 -0.029114 0.000000 -0.161276
#
#
# Mechanical properties :
#
#
# Convention : Reuss Voigt Hill
#
# Bulk Modulus (GPa) = 41.06063 60.68985 50.87524
# Shear Modulus (GPa) = -108.43305 34.97238 -36.73034
#
# Velocity S-wave (km/s) = -6.23170 3.53906 -3.62692
# Velocity P-wave (km/s) = 6.08879 6.19962 0.82522
#
# Compressibility (1/GPa) = 0.02435423
#
# Stress axis : x y z
#
# Youngs Moduli (GPa) = 152.93213 50.99065 61.75350
#
# Poissons Ratio (x) = 0.17935 0.14738
# Poissons Ratio (y) = 0.53792 0.19086
# Poissons Ratio (z) = 0.36499 0.15760
#
# Static dielectric constant tensor:
#      x y z
#    x 2.277500 0.000000 0.065150 
#    y 0.000000 2.292320 0.000000 
#    z 0.065150 0.000000 2.257440 
# 
# From -- ./inp_files/295313.got.cif
#   From: 2010.05.17/outbox.cif.g08.bks.cpg/sg15_148_cif.got.tgz:295313.got - 2010.06.03 18:47:42.
