data_PCOD9264518
_publ_section_title
;
Structure prediction by ZEFSAII (Michael W. Deem and Ramdas Pophale) SiO2 
 PCOD9264518
Probable space group: C 2/C
;
_chemical_formula_sum "Si O2"
_cell_formula_units_Z 52
_cell_length_a 7.762037
_cell_length_b 32.030518
_cell_length_c 11.751585
_cell_angle_alpha 90.000000
_cell_angle_beta 55.623896
_cell_angle_gamma 90.000000
_cell_volume 2411.425087
_symmetry_space_group_name_H-M "C 2/C"
_symmetry_group_IT_number 15
_symmetry_cell_setting 'monoclinic'
loop_
_space_group_symop_operation_xyz
x,y,z
-x,y,1/2-z
-x,-y,-z
x,-y,1/2+z
1/2+x,1/2+y,z
1/2-x,1/2+y,1/2-z
1/2-x,1/2-y,-z
1/2+x,1/2-y,1/2+z
loop_
_atom_site_type_symbol
_atom_site_label
_atom_site_fract_x
_atom_site_fract_y
_atom_site_fract_z
Si Si1 0.505978 0.333721 0.885014
Si Si2 0.474317 0.846084 0.450560
Si Si3 0.500000 0.092665 0.750000
Si Si4 0.744844 0.516064 0.158103
Si Si5 0.655245 0.103599 0.288507
Si Si6 0.243803 0.985207 0.406092
Si Si7 0.505603 0.243833 0.612614
O O1 0.500000 0.330130 0.750000
O O2 0.658589 0.372394 0.845815
O O3 0.589083 0.288197 0.891923
O O4 0.265826 0.341630 0.006548
O O5 0.577712 0.878265 0.324546
O O6 0.456464 0.864426 0.583533
O O7 0.567005 0.799519 0.414606
O O8 0.685634 0.063265 0.631338
O O9 0.500000 0.505240 0.250000
O O10 0.765953 0.566007 0.162333
O O11 0.819976 0.500275 0.253207
O O12 0.818806 0.501156 0.005336
O O13 0.500000 0.087786 0.250000
O O14 0.000000 0.000000 0.500000
O O15 0.500000 0.238537 0.750000
O O16 0.750000 0.250000 0.500000
#
# Coordination Sequence:
#
# PCOD9264518 Si02
#       7
#     8   8   4   8   8   8   8
#     4   8  17  33  58  87 121 160 201 249 302 365
#     4  10  19  35  59  90 121 154 204 253 307 360
#     4  12  22  36  62  90 120 152 200 262 308 360
#     4  10  21  42  63  86 115 160 199 252 309 375
#     4  11  22  36  60  89 120 161 205 252 304 376
#     4  10  24  40  62  88 122 158 203 252 318 373
#     4   9  16  30  56  92 120 154 202 253 298 361
#
# _framework density 21.564012000000002
#
# number of rings (size 3 to 8) (size 9 to 14) (size 15 to 20)
#    0.000    2.154    2.308    2.308    3.231    1.846 
#    0.000    0.769    0.000    0.000    0.000    0.000 
#    0.000    0.000    0.000    0.000    0.000    0.000 
#
# Total GULP energy -144758.198948 kJ/mol
# GULP energy per Si atom -5567.623036 kJ/mol
# Density = 2.151493 g / cm^3
# Si number density = 21.564012 Si / 1000 Ang^3
#
#
#
# Elastic Constant Matrix: (Units=GPa)
#
#
# Indices 1 2 3 4 5 6 
#
# 1 65.6081 6.4678 28.2504 0.0000 24.2398 0.0000
# 2 6.4678 82.7621 15.6543 0.0000 8.8491 0.0000
# 3 28.2504 15.6543 144.9323 0.0000 13.4350 0.0000
# 4 0.0000 0.0000 0.0000 34.3157 0.0000 1.1586
# 5 24.2398 8.8491 13.4350 0.0000 26.7646 0.0000
# 6 0.0000 0.0000 0.0000 1.1586 0.0000 8.5676
#
#
#
# Elastic Compliance Matrix: (Units=1/GPa)
#
#
# Indices 1 2 3 4 5 6 
#
# 1 0.023992 0.000867 -0.002863 0.000000 -0.020579 0.000000
# 2 0.000867 0.012701 -0.001131 0.000000 -0.004416 0.000000
# 3 -0.002863 -0.001131 0.007661 0.000000 -0.000879 0.000000
# 4 0.000000 0.000000 0.000000 0.029275 0.000000 -0.003959
# 5 -0.020579 -0.004416 -0.000879 0.000000 0.057902 0.000000
# 6 0.000000 0.000000 0.000000 -0.003959 0.000000 0.117254
#
#
# Mechanical properties :
#
#
# Convention : Reuss Voigt Hill
#
# Bulk Modulus (GPa) = 26.24636 43.78307 35.01472
# Shear Modulus (GPa) = 18.67481 30.12490 24.39985
#
# Velocity S-wave (km/s) = 2.94601 3.74170 3.36744
# Velocity P-wave (km/s) = 4.87542 6.24619 5.60289
#
# Compressibility (1/GPa) = 0.03810051
#
# Stress axis : x y z
#
# Youngs Moduli (GPa) = 41.68002 78.73206 130.52334
#
# Poissons Ratio (x) = -0.06824 0.37364
# Poissons Ratio (y) = -0.03613 0.14768
# Poissons Ratio (z) = 0.11931 0.08908
#
# Static dielectric constant tensor:
#      x y z
#    x 1.797650 0.000000 -0.049060 
#    y 0.000000 1.890520 0.000000 
#    z -0.049060 0.000000 1.810450 
# 
# From -- ./inp_files/82078.got.cif
#   From: 2010.05.17/outbox.cif.g08.bks.cpg/sg15_42_cif.got.tgz:82078.got - 2010.06.03 18:47:42.
