data_PCOD9264774
_publ_section_title
;
Structure prediction by ZEFSAII (Michael W. Deem and Ramdas Pophale) SiO2 
 PCOD9264774
Probable space group: C 2/C
;
_chemical_formula_sum "Si O2"
_cell_formula_units_Z 44
_cell_length_a 9.685071
_cell_length_b 21.165542
_cell_length_c 11.907963
_cell_angle_alpha 90.000000
_cell_angle_beta 118.147349
_cell_angle_gamma 90.000000
_cell_volume 2152.330221
_symmetry_space_group_name_H-M "C 2/C"
_symmetry_group_IT_number 15
_symmetry_cell_setting 'monoclinic'
loop_
_space_group_symop_operation_xyz
x,y,z
-x,y,1/2-z
-x,-y,-z
x,-y,1/2+z
1/2+x,1/2+y,z
1/2-x,1/2+y,1/2-z
1/2-x,1/2-y,-z
1/2+x,1/2-y,1/2+z
loop_
_atom_site_type_symbol
_atom_site_label
_atom_site_fract_x
_atom_site_fract_y
_atom_site_fract_z
Si Si1 0.092143 0.196788 0.054952
Si Si2 0.924922 0.687096 0.112875
Si Si3 0.500000 0.755174 0.250000
Si Si4 0.235861 0.859644 0.096015
Si Si5 0.632509 0.913558 0.571236
Si Si6 0.382297 0.970061 0.300088
O O1 0.254108 0.163186 0.085020
O O2 0.065360 0.212169 0.174953
O O3 0.098459 0.265171 0.998094
O O4 0.939554 0.162201 0.950379
O O5 0.000000 0.721086 0.250000
O O6 0.048356 0.635092 0.121580
O O7 0.359240 0.801998 0.157557
O O8 0.284745 0.916133 0.198845
O O9 0.250396 0.882425 0.972517
O O10 0.491868 0.937570 0.435818
O O11 0.699618 0.972077 0.668039
O O12 0.500000 0.996656 0.250000
#
# Coordination Sequence:
#
# PCOD9264774 Si02
#       6
#     8   8   4   8   8   8
#     4  11  25  37  62  95 133 164 208 259 326 382
#     4  11  23  40  58  94 128 168 204 259 322 393
#     4  12  20  40  62  92 130 170 200 254 320 406
#     4  11  20  38  64  95 122 164 215 263 312 377
#     4  10  19  35  63  86 119 167 214 250 315 372
#     4   9  18  36  60  89 117 164 216 260 304 376
#
# _framework density 20.442959999999999
#
# number of rings (size 3 to 8) (size 9 to 14) (size 15 to 20)
#    0.000    1.455    4.545    2.182    2.545    1.455 
#    0.000    0.000    0.000   26.182    0.000    0.000 
#    0.000    0.000    0.000    0.000    0.000    0.000 
#
# Total GULP energy -122852.516560 kJ/mol
# GULP energy per Si atom -5584.205298 kJ/mol
# Density = 2.039643 g / cm^3
# Si number density = 20.442960 Si / 1000 Ang^3
#
#
#
# Elastic Constant Matrix: (Units=GPa)
#
#
# Indices 1 2 3 4 5 6 
#
# 1 100.1188 21.6377 29.7274 0.0000 5.1244 0.0000
# 2 21.6377 46.5178 14.0494 0.0000 -7.6771 0.0000
# 3 29.7274 14.0494 71.4124 0.0000 -21.8076 0.0000
# 4 0.0000 0.0000 0.0000 27.9870 0.0000 -16.9688
# 5 5.1244 -7.6771 -21.8076 0.0000 30.2125 0.0000
# 6 0.0000 0.0000 0.0000 -16.9688 0.0000 0.2236
#
#
#
# Elastic Compliance Matrix: (Units=1/GPa)
#
#
# Indices 1 2 3 4 5 6 
#
# 1 0.013922 -0.005737 -0.007482 0.000000 -0.009220 0.000000
# 2 -0.005737 0.025477 -0.000449 0.000000 0.007123 0.000000
# 3 -0.007482 -0.000449 0.022523 0.000000 0.017413 0.000000
# 4 0.000000 0.000000 0.000000 -0.000794 0.000000 -0.060241
# 5 -0.009220 0.007123 0.017413 0.000000 0.049041 0.000000
# 6 0.000000 0.000000 0.000000 -0.060241 0.000000 -0.099358
#
#
# Mechanical properties :
#
#
# Convention : Reuss Voigt Hill
#
# Bulk Modulus (GPa) = 28.91360 38.76424 33.83892
# Shear Modulus (GPa) = 100.65146 21.86025 61.25585
#
# Velocity S-wave (km/s) = 7.02440 3.27361 5.47990
# Velocity P-wave (km/s) = 8.94225 5.76992 7.52515
#
# Compressibility (1/GPa) = 0.03458580
#
# Stress axis : x y z
#
# Youngs Moduli (GPa) = 71.83093 39.25112 44.39826
#
# Poissons Ratio (x) = 0.22520 0.33219
# Poissons Ratio (y) = 0.41213 0.01992
# Poissons Ratio (z) = 0.53744 0.01761
#
# Static dielectric constant tensor:
#      x y z
#    x 1.731070 0.000000 -0.016240 
#    y 0.000000 1.733680 0.000000 
#    z -0.016240 0.000000 1.747650 
# 
# From -- ./inp_files/79474.got.cif
#   From: 2010.05.17/outbox.cif.g08.bks.cpg/sg15_40_cif.got.tgz:79474.got - 2010.06.03 18:47:42.
