data_PCOD9264164
_publ_section_title
;
Structure prediction by ZEFSAII (Michael W. Deem and Ramdas Pophale) SiO2 
 PCOD9264164
Probable space group: C 2/C
;
_chemical_formula_sum "Si O2"
_cell_formula_units_Z 48
_cell_length_a 12.455582
_cell_length_b 14.947298
_cell_length_c 27.885042
_cell_angle_alpha 90.000000
_cell_angle_beta 151.959592
_cell_angle_gamma 90.000000
_cell_volume 2440.522777
_symmetry_space_group_name_H-M "C 2/C"
_symmetry_group_IT_number 15
_symmetry_cell_setting 'monoclinic'
loop_
_space_group_symop_operation_xyz
x,y,z
-x,y,1/2-z
-x,-y,-z
x,-y,1/2+z
1/2+x,1/2+y,z
1/2-x,1/2+y,1/2-z
1/2-x,1/2-y,-z
1/2+x,1/2-y,1/2+z
loop_
_atom_site_type_symbol
_atom_site_label
_atom_site_fract_x
_atom_site_fract_y
_atom_site_fract_z
Si Si1 0.860796 0.664671 0.515642
Si Si2 0.734156 0.191999 0.134293
Si Si3 0.001890 0.071235 0.429257
Si Si4 0.041961 0.889095 0.054842
Si Si5 0.918030 0.320407 0.590670
Si Si6 0.195073 0.255805 0.787716
O O1 0.750000 0.750000 0.500000
O O2 0.827798 0.672491 0.445500
O O3 0.716430 0.581779 0.478513
O O4 0.123874 0.676063 0.633929
O O5 0.669788 0.296889 0.116369
O O6 0.575241 0.140383 0.110252
O O7 0.000000 0.177089 0.250000
O O8 0.825669 0.150316 0.348273
O O9 0.085748 0.089219 0.516548
O O10 0.891678 0.973296 0.386383
O O11 0.765636 0.880097 0.952928
O O12 0.750000 0.250000 0.500000
O O13 0.081552 0.267724 0.691470
O O14 0.000000 0.245540 0.750000
#
# Coordination Sequence:
#
# PCOD9264164 Si02
#       6
#     8   8   8   8   8   8
#     4  10  19  35  56  82 109 150 194 231 280 347
#     4  11  20  35  59  84 112 147 192 242 282 337
#     4  10  20  35  56  81 115 145 184 237 287 345
#     4  10  20  37  52  83 114 145 184 235 292 334
#     4  10  21  36  54  82 115 149 189 237 286 339
#     4  11  18  34  58  84 109 150 193 235 286 342
#
# _framework density 19.667916999999999
#
# number of rings (size 3 to 8) (size 9 to 14) (size 15 to 20)
#    0.000    1.667    5.000    3.000    0.000    0.667 
#    0.000    0.833    0.000    1.000    0.000    0.000 
#    0.000    0.000    0.000    0.000    0.000    0.000 
#
# Total GULP energy -133777.314581 kJ/mol
# GULP energy per Si atom -5574.054774 kJ/mol
# Density = 1.962315 g / cm^3
# Si number density = 19.667917 Si / 1000 Ang^3
#
#
#
# Elastic Constant Matrix: (Units=GPa)
#
#
# Indices 1 2 3 4 5 6 
#
# 1 149.0936 4.3698 37.1365 -0.0001 4.6011 -0.0001
# 2 4.3698 32.4181 -8.4317 -0.0002 1.1442 -0.0001
# 3 37.1365 -8.4317 81.1270 -0.0005 2.4592 -0.0002
# 4 -0.0001 -0.0002 -0.0005 10.4017 -0.0001 -2.5779
# 5 4.6011 1.1442 2.4592 -0.0001 41.0504 0.0000
# 6 -0.0001 -0.0001 -0.0002 -2.5779 0.0000 20.6331
#
#
#
# Elastic Compliance Matrix: (Units=1/GPa)
#
#
# Indices 1 2 3 4 5 6 
#
# 1 0.007709 -0.001985 -0.003718 0.000000 -0.000586 0.000000
# 2 -0.001985 0.032263 0.004290 0.000001 -0.000934 0.000000
# 3 -0.003718 0.004290 0.014491 0.000001 -0.000571 0.000000
# 4 0.000000 0.000001 0.000001 0.099210 0.000000 0.012395
# 5 -0.000586 -0.000934 -0.000571 0.000000 0.024486 0.000000
# 6 0.000000 0.000000 0.000000 0.012395 0.000000 0.050014
#
#
# Mechanical properties :
#
#
# Convention : Reuss Voigt Hill
#
# Bulk Modulus (GPa) = 19.36532 36.53200 27.94866
# Shear Modulus (GPa) = 20.14395 29.72132 24.93263
#
# Velocity S-wave (km/s) = 3.20379 3.89158 3.56431
# Velocity P-wave (km/s) = 4.85317 6.22955 5.58393
#
# Compressibility (1/GPa) = 0.05163871
#
# Stress axis : x y z
#
# Youngs Moduli (GPa) = 129.71046 30.99488 69.00668
#
# Poissons Ratio (x) = 0.06154 0.25654
# Poissons Ratio (y) = 0.25753 -0.29606
# Poissons Ratio (z) = 0.48222 -0.13298
#
# Static dielectric constant tensor:
#      x y z
#    x 1.744250 0.000000 0.023960 
#    y 0.000000 1.729730 0.000000 
#    z 0.023960 0.000000 1.700380 
# 
# From -- ./inp_files/87349.got.cif
#   From: 2010.05.17/outbox.cif.g08.bks.cpg/sg15_44_cif.got.tgz:87349.got - 2010.06.03 18:47:42.
