data_PCOD9264301
_publ_section_title
;
Structure prediction by ZEFSAII (Michael W. Deem and Ramdas Pophale) SiO2 
 PCOD9264301
Probable space group: C 2/C
;
_chemical_formula_sum "Si O2"
_cell_formula_units_Z 60
_cell_length_a 19.941077
_cell_length_b 6.842546
_cell_length_c 23.714144
_cell_angle_alpha 90.000000
_cell_angle_beta 120.794559
_cell_angle_gamma 90.000000
_cell_volume 2779.529319
_symmetry_space_group_name_H-M "C 2/C"
_symmetry_group_IT_number 15
_symmetry_cell_setting 'monoclinic'
loop_
_space_group_symop_operation_xyz
x,y,z
-x,y,1/2-z
-x,-y,-z
x,-y,1/2+z
1/2+x,1/2+y,z
1/2-x,1/2+y,1/2-z
1/2-x,1/2-y,-z
1/2+x,1/2-y,1/2+z
loop_
_atom_site_type_symbol
_atom_site_label
_atom_site_fract_x
_atom_site_fract_y
_atom_site_fract_z
Si Si1 0.548943 0.961246 0.433564
Si Si2 0.457865 0.394520 0.847507
Si Si3 0.889817 0.864908 0.697634
Si Si4 0.756512 0.154056 0.817435
Si Si5 0.702663 0.751865 0.170046
Si Si6 0.441581 0.706725 0.635000
Si Si7 0.500000 0.996810 0.750000
Si Si8 0.613245 0.096739 0.079184
O O1 0.514889 0.789483 0.379867
O O2 0.469358 0.049338 0.426849
O O3 0.597368 0.125822 0.420442
O O4 0.597305 0.874618 0.506450
O O5 0.435281 0.436653 0.773015
O O6 0.377755 0.344714 0.842682
O O7 0.507559 0.579202 0.886478
O O8 0.803065 0.803220 0.678309
O O9 0.929059 0.648053 0.709355
O O10 0.898119 0.039717 0.654788
O O11 0.742173 0.160522 0.743632
O O12 0.841605 0.228328 0.871250
O O13 0.745983 0.927639 0.830266
O O14 0.671291 0.912804 0.113964
O O15 0.497628 0.845650 0.697057
#
# Coordination Sequence:
#
# PCOD9264301 Si02
#       8
#     8   8   8   8   8   8   4   8
#     4  10  22  38  66  87 128 160 200 259 305 372
#     4  10  19  35  57  91 118 148 202 252 302 369
#     4  11  22  35  55  93 123 152 208 256 306 370
#     4  11  22  37  59  87 128 160 195 258 308 373
#     4  10  21  35  59  89 121 155 197 247 312 364
#     4  12  20  36  61  89 118 162 201 257 311 352
#     4  12  20  36  56  86 122 152 202 262 308 350
#     4  10  22  42  59  95 121 163 206 243 316 383
#
# _framework density 21.586387999999999
#
# number of rings (size 3 to 8) (size 9 to 14) (size 15 to 20)
#    0.000    1.333    5.333    0.800    0.000    3.200 
#    0.000    4.667    0.000    4.000    0.000    0.000 
#    0.000    0.000    0.000    0.000    0.000    0.000 
#
# Total GULP energy -167080.286312 kJ/mol
# GULP energy per Si atom -5569.342877 kJ/mol
# Density = 2.153726 g / cm^3
# Si number density = 21.586388 Si / 1000 Ang^3
#
#
#
# Elastic Constant Matrix: (Units=GPa)
#
#
# Indices 1 2 3 4 5 6 
#
# 1 54.1460 21.4855 19.4509 0.0000 -8.4991 0.0000
# 2 21.4855 113.8804 12.0457 0.0000 -4.9518 0.0000
# 3 19.4509 12.0457 63.6858 0.0000 4.6555 0.0000
# 4 0.0000 0.0000 0.0000 17.8153 0.0000 1.0547
# 5 -8.4991 -4.9518 4.6555 0.0000 32.0857 0.0000
# 6 0.0000 0.0000 0.0000 1.0547 0.0000 30.3536
#
#
#
# Elastic Compliance Matrix: (Units=1/GPa)
#
#
# Indices 1 2 3 4 5 6 
#
# 1 0.023368 -0.003379 -0.006986 0.000000 0.006682 0.000000
# 2 -0.003379 0.009536 -0.000822 0.000000 0.000696 0.000000
# 3 -0.006986 -0.000822 0.018330 0.000000 -0.004637 0.000000
# 4 0.000000 0.000000 0.000000 0.056247 0.000000 -0.001954
# 5 0.006682 0.000696 -0.004637 0.000000 0.033717 0.000000
# 6 0.000000 0.000000 0.000000 -0.001954 0.000000 0.033013
#
#
# Mechanical properties :
#
#
# Convention : Reuss Voigt Hill
#
# Bulk Modulus (GPa) = 34.65207 37.51960 36.08584
# Shear Modulus (GPa) = 24.24751 27.96628 26.10689
#
# Velocity S-wave (km/s) = 3.35517 3.60328 3.48144
# Velocity P-wave (km/s) = 5.57648 5.89325 5.73705
#
# Compressibility (1/GPa) = 0.02885830
#
# Stress axis : x y z
#
# Youngs Moduli (GPa) = 42.79349 104.86636 54.55413
#
# Poissons Ratio (x) = 0.35437 0.38114
# Poissons Ratio (y) = 0.14461 0.04487
# Poissons Ratio (z) = 0.29897 0.08625
#
# Static dielectric constant tensor:
#      x y z
#    x 1.887390 0.000000 -0.014550 
#    y 0.000000 1.830550 0.000000 
#    z -0.014550 0.000000 1.776380 
# 
# From -- ./inp_files/302832.got.cif
#   From: 2010.05.17/outbox.cif.g08.bks.cpg/sg15_152_cif.got.tgz:302832.got - 2010.06.03 18:47:42.
