data_PCOD9264360
_publ_section_title
;
Structure prediction by ZEFSAII (Michael W. Deem and Ramdas Pophale) SiO2 
 PCOD9264360
Probable space group: C 2/C
;
_chemical_formula_sum "Si O2"
_cell_formula_units_Z 36
_cell_length_a 11.786718
_cell_length_b 8.026224
_cell_length_c 13.233766
_cell_angle_alpha 90.000000
_cell_angle_beta 101.098725
_cell_angle_gamma 90.000000
_cell_volume 1228.536513
_symmetry_space_group_name_H-M "C 2/C"
_symmetry_group_IT_number 15
_symmetry_cell_setting 'monoclinic'
loop_
_space_group_symop_operation_xyz
x,y,z
-x,y,1/2-z
-x,-y,-z
x,-y,1/2+z
1/2+x,1/2+y,z
1/2-x,1/2+y,1/2-z
1/2-x,1/2-y,-z
1/2+x,1/2-y,1/2+z
loop_
_atom_site_type_symbol
_atom_site_label
_atom_site_fract_x
_atom_site_fract_y
_atom_site_fract_z
Si Si1 0.911424 0.699770 0.085466
Si Si2 0.282693 0.492040 0.332939
Si Si3 0.131792 0.518535 0.627645
Si Si4 0.857699 0.085829 0.061455
Si Si5 0.500000 0.357632 0.750000
O O1 0.801582 0.628660 0.128370
O O2 0.908063 0.898956 0.089165
O O3 0.026726 0.602742 0.138959
O O4 0.899179 0.646345 0.966375
O O5 0.193728 0.408401 0.237842
O O6 0.340411 0.403688 0.439297
O O7 0.390445 0.550218 0.283126
O O8 0.232228 0.414861 0.589430
O O9 0.937697 0.213234 0.137992
#
# Coordination Sequence:
#
# PCOD9264360 Si02
#       5
#     8   8   8   8   4
#     4  10  20  37  63  87 119 156 207 249 304 372
#     4  10  19  35  58  84 117 155 196 248 302 364
#     4   9  19  34  59  90 114 154 201 249 305 360
#     4  10  21  38  63  87 119 160 207 245 307 376
#     4  10  22  36  60  84 116 164 198 240 324 358
#
# _framework density 29.303159000000001
#
# number of rings (size 3 to 8) (size 9 to 14) (size 15 to 20)
#    0.000    2.222    0.000    4.000    3.111    0.000 
#    0.000    0.000   58.667   14.667    0.000    0.000 
#    0.000    0.000    0.000    0.000    0.000    0.000 
#
# Total GULP energy -100836.980201 kJ/mol
# GULP energy per Si atom -5602.054456 kJ/mol
# Density = 2.923646 g / cm^3
# Si number density = 29.303159 Si / 1000 Ang^3
#
#
#
# Elastic Constant Matrix: (Units=GPa)
#
#
# Indices 1 2 3 4 5 6 
#
# 1 226.0044 67.5026 88.5402 0.0000 -13.1621 0.0000
# 2 67.5026 120.1640 37.0643 0.0000 -31.8729 0.0000
# 3 88.5402 37.0643 264.4208 0.0000 -5.6600 0.0000
# 4 0.0000 0.0000 0.0000 16.5829 0.0000 -23.0912
# 5 -13.1621 -31.8729 -5.6600 0.0000 50.3360 0.0000
# 6 0.0000 0.0000 0.0000 -23.0912 0.0000 28.3116
#
#
#
# Elastic Compliance Matrix: (Units=1/GPa)
#
#
# Indices 1 2 3 4 5 6 
#
# 1 0.005895 -0.002963 -0.001569 0.000000 -0.000511 0.000000
# 2 -0.002963 0.011935 -0.000537 0.000000 0.006722 0.000000
# 3 -0.001569 -0.000537 0.004377 0.000000 -0.000258 0.000000
# 4 0.000000 0.000000 0.000000 -0.444345 0.000000 -0.362412
# 5 -0.000511 0.006722 -0.000258 0.000000 0.023960 0.000000
# 6 0.000000 0.000000 0.000000 -0.362412 0.000000 -0.260265
#
#
# Mechanical properties :
#
#
# Convention : Reuss Voigt Hill
#
# Bulk Modulus (GPa) = 82.86191 110.75596 96.80893
# Shear Modulus (GPa) = -7.76058 46.87825 19.55884
#
# Velocity S-wave (km/s) = -1.62915 4.00405 2.58634
# Velocity P-wave (km/s) = 4.97996 7.69774 6.48287
#
# Compressibility (1/GPa) = 0.01206827
#
# Stress axis : x y z
#
# Youngs Moduli (GPa) = 169.64323 83.78711 228.46104
#
# Poissons Ratio (x) = 0.24825 0.35856
# Poissons Ratio (y) = 0.50263 0.12267
# Poissons Ratio (z) = 0.26625 0.04499
#
# Static dielectric constant tensor:
#      x y z
#    x 2.203230 0.000000 0.071660 
#    y 0.000000 2.262250 0.000000 
#    z 0.071660 0.000000 2.290780 
# 
# From -- ./inp_files/84494.got.cif
#   From: 2010.05.17/outbox.cif.g08.bks.cpg/sg15_43_cif.got.tgz:84494.got - 2010.06.03 18:47:42.
