data_PCOD9264176
_publ_section_title
;
Structure prediction by ZEFSAII (Michael W. Deem and Ramdas Pophale) SiO2 
 PCOD9264176
Probable space group: C 2/C
;
_chemical_formula_sum "Si O2"
_cell_formula_units_Z 64
_cell_length_a 11.606175
_cell_length_b 17.883007
_cell_length_c 22.171021
_cell_angle_alpha 90.000000
_cell_angle_beta 144.120320
_cell_angle_gamma 90.000000
_cell_volume 2696.969214
_symmetry_space_group_name_H-M "C 2/C"
_symmetry_group_IT_number 15
_symmetry_cell_setting 'monoclinic'
loop_
_space_group_symop_operation_xyz
x,y,z
-x,y,1/2-z
-x,-y,-z
x,-y,1/2+z
1/2+x,1/2+y,z
1/2-x,1/2+y,1/2-z
1/2-x,1/2-y,-z
1/2+x,1/2-y,1/2+z
loop_
_atom_site_type_symbol
_atom_site_label
_atom_site_fract_x
_atom_site_fract_y
_atom_site_fract_z
Si Si1 0.379393 0.179590 0.988951
Si Si2 0.637078 0.369582 0.694147
Si Si3 0.519027 0.327447 0.114257
Si Si4 0.380582 0.202496 0.848824
Si Si5 0.057291 0.564447 0.336824
Si Si6 0.415135 0.944401 0.051070
Si Si7 0.282121 0.945593 0.869110
Si Si8 0.973936 0.912379 0.981449
O O1 0.181102 0.149862 0.935929
O O2 0.350388 0.210324 0.908419
O O3 0.469823 0.244925 0.068406
O O4 0.538230 0.113997 0.054662
O O5 0.590443 0.281537 0.672668
O O6 0.631750 0.411280 0.756542
O O7 0.510467 0.397283 0.582970
O O8 0.867066 0.387685 0.774664
O O9 0.687751 0.329463 0.235283
O O10 0.588246 0.372406 0.084020
O O11 0.552606 0.141045 0.916070
O O12 0.117669 0.501245 0.408969
O O13 0.250095 0.612055 0.404222
O O14 0.000000 0.525576 0.250000
O O15 0.626980 0.976272 0.115907
O O16 0.259243 0.953814 0.931192
O O17 0.000000 0.000000 0.000000
#
# Coordination Sequence:
#
# PCOD9264176 Si02
#       8
#     8   8   8   8   8   8   8   8
#     4  10  20  33  49  80 114 151 180 220 280 339
#     4  10  19  35  56  84 113 150 183 224 287 335
#     4  11  21  30  51  78 117 147 179 226 284 332
#     4  11  21  32  53  85 118 144 181 228 276 346
#     4   9  20  36  59  80 112 153 190 229 279 340
#     4   9  19  33  56  80 106 145 196 222 265 327
#     4   9  17  34  53  75 107 149 188 224 259 337
#     4  11  24  37  57  83 114 146 191 241 284 327
#
# _framework density 23.730343000000001
#
# number of rings (size 3 to 8) (size 9 to 14) (size 15 to 20)
#    0.000    2.000    2.500    1.875    7.000    1.000 
#    0.000    0.000    0.000    0.750    0.000    0.000 
#    0.000    0.000    0.000    0.000    0.000    0.000 
#
# Total GULP energy -178654.777838 kJ/mol
# GULP energy per Si atom -5582.961807 kJ/mol
# Density = 2.367633 g / cm^3
# Si number density = 23.730343 Si / 1000 Ang^3
#
#
#
# Elastic Constant Matrix: (Units=GPa)
#
#
# Indices 1 2 3 4 5 6 
#
# 1 64.1076 5.3821 38.6945 0.0000 -24.6357 0.0000
# 2 5.3821 108.1728 34.8817 0.0000 -8.8395 0.0000
# 3 38.6945 34.8817 155.2548 0.0001 -40.7638 0.0001
# 4 0.0000 0.0000 0.0001 39.8481 0.0000 -19.8336
# 5 -24.6357 -8.8395 -40.7638 0.0000 44.5865 0.0000
# 6 0.0000 0.0000 0.0001 -19.8336 0.0000 12.8874
#
#
#
# Elastic Compliance Matrix: (Units=1/GPa)
#
#
# Indices 1 2 3 4 5 6 
#
# 1 0.020756 0.000657 -0.002994 0.000000 0.008861 0.000000
# 2 0.000657 0.009988 -0.002359 0.000000 0.000187 0.000000
# 3 -0.002994 -0.002359 0.009422 0.000000 0.006492 0.000000
# 4 0.000000 0.000000 0.000000 0.107244 0.000000 0.165047
# 5 0.008861 0.000187 0.006492 0.000000 0.033297 -0.000001
# 6 0.000000 0.000000 0.000000 0.165047 -0.000001 0.331600
#
#
# Mechanical properties :
#
#
# Convention : Reuss Voigt Hill
#
# Bulk Modulus (GPa) = 32.49520 53.93909 43.21715
# Shear Modulus (GPa) = 9.39928 36.03621 22.71775
#
# Velocity S-wave (km/s) = 1.99235 3.90111 3.09743
# Velocity P-wave (km/s) = 4.36072 6.56284 5.57166
#
# Compressibility (1/GPa) = 0.03077377
#
# Stress axis : x y z
#
# Youngs Moduli (GPa) = 48.17859 100.12401 106.13798
#
# Poissons Ratio (x) = -0.06577 0.31778
# Poissons Ratio (y) = -0.03165 0.25035
# Poissons Ratio (z) = 0.14425 0.23616
#
# Static dielectric constant tensor:
#      x y z
#    x 2.015430 0.000000 -0.007650 
#    y 0.000000 1.882320 0.000000 
#    z -0.007650 0.000000 1.931410 
# 
# From -- ./inp_files/274856.got.cif
#   From: 2010.05.17/outbox.cif.g08.bks.cpg/sg15_138_cif.got.tgz:274856.got - 2010.06.03 18:47:42.
