data_PCOD9264767
_publ_section_title
;
Structure prediction by ZEFSAII (Michael W. Deem and Ramdas Pophale) SiO2 
 PCOD9264767
Probable space group: C 2/C
;
_chemical_formula_sum "Si O2"
_cell_formula_units_Z 24
_cell_length_a 7.963975
_cell_length_b 25.657855
_cell_length_c 5.170759
_cell_angle_alpha 90.000000
_cell_angle_beta 91.818964
_cell_angle_gamma 90.000000
_cell_volume 1056.052816
_symmetry_space_group_name_H-M "C 2/C"
_symmetry_group_IT_number 15
_symmetry_cell_setting 'monoclinic'
loop_
_space_group_symop_operation_xyz
x,y,z
-x,y,1/2-z
-x,-y,-z
x,-y,1/2+z
1/2+x,1/2+y,z
1/2-x,1/2+y,1/2-z
1/2-x,1/2-y,-z
1/2+x,1/2-y,1/2+z
loop_
_atom_site_type_symbol
_atom_site_label
_atom_site_fract_x
_atom_site_fract_y
_atom_site_fract_z
Si Si1 0.691331 0.023081 0.020241
Si Si2 0.318868 0.854901 0.862403
Si Si3 0.685189 0.303575 0.372335
O O1 0.684960 0.084197 0.068157
O O2 0.774311 0.992220 0.257244
O O3 0.500000 0.000000 0.000000
O O4 0.500000 0.842067 0.750000
O O5 0.194202 0.842684 0.617567
O O6 0.288641 0.823289 0.126191
O O7 0.500000 0.297250 0.250000
O O8 0.750000 0.250000 0.500000
#
# Coordination Sequence:
#
# PCOD9264767 Si02
#       3
#     8   8   8
#     4  10  19  35  63 108 145 169 233 296 333 413
#     4  12  24  42  77 110 137 189 242 297 361 416
#     4  12  28  50  69 100 147 189 245 304 366 431
#
# _framework density 22.726133999999998
#
# number of rings (size 3 to 8) (size 9 to 14) (size 15 to 20)
#    0.000    0.667    3.333    6.000    4.667    2.667 
#    0.000    0.000    0.000   20.000    0.000    0.000 
#    0.000    0.000    0.000    0.000    0.000    0.000 
#
# Total GULP energy -67116.644281 kJ/mol
# GULP energy per Si atom -5593.053690 kJ/mol
# Density = 2.267441 g / cm^3
# Si number density = 22.726134 Si / 1000 Ang^3
#
#
#
# Elastic Constant Matrix: (Units=GPa)
#
#
# Indices 1 2 3 4 5 6 
#
# 1 90.0085 64.3527 62.7704 0.0000 12.7020 0.0000
# 2 64.3527 181.0723 108.2254 0.0000 4.4229 0.0000
# 3 62.7704 108.2254 264.9812 0.0000 6.5016 0.0000
# 4 0.0000 0.0000 0.0000 52.0150 0.0000 10.7436
# 5 12.7020 4.4229 6.5016 0.0000 38.2885 0.0000
# 6 0.0000 0.0000 0.0000 10.7436 0.0000 15.0941
#
#
#
# Elastic Compliance Matrix: (Units=1/GPa)
#
#
# Indices 1 2 3 4 5 6 
#
# 1 0.016339 -0.004563 -0.001895 0.000000 -0.004571 0.000000
# 2 -0.004563 0.008585 -0.002448 0.000000 0.000938 0.000000
# 3 -0.001895 -0.002448 0.005222 0.000000 0.000025 0.000000
# 4 0.000000 0.000000 0.000000 0.022539 0.000000 -0.016043
# 5 -0.004571 0.000938 0.000025 0.000000 0.027522 0.000000
# 6 0.000000 0.000000 0.000000 -0.016043 0.000000 0.077670
#
#
# Mechanical properties :
#
#
# Convention : Reuss Voigt Hill
#
# Bulk Modulus (GPa) = 81.07724 111.86210 96.46967
# Shear Modulus (GPa) = 27.80895 41.12708 34.46802
#
# Velocity S-wave (km/s) = 3.50187 4.25865 3.89867
# Velocity P-wave (km/s) = 7.21831 8.57380 7.92509
#
# Compressibility (1/GPa) = 0.01233392
#
# Stress axis : x y z
#
# Youngs Moduli (GPa) = 61.20473 116.48670 191.49445
#
# Poissons Ratio (x) = 0.53148 0.36283
# Poissons Ratio (y) = 0.27925 0.46886
# Poissons Ratio (z) = 0.11597 0.28521
#
# Static dielectric constant tensor:
#      x y z
#    x 1.837290 0.000000 0.008350 
#    y 0.000000 1.839560 0.000000 
#    z 0.008350 0.000000 1.344590 
# 
# From -- ./inp_files/1627.got.cif
#   From: 2010.05.17/outbox.cif.g08.bks.cpg/sg15_1_cif.got.tgz:1627.got - 2010.06.03 18:47:42.
