data_PCOD9264053
_publ_section_title
;
Structure prediction by ZEFSAII (Michael W. Deem and Ramdas Pophale) SiO2 
 PCOD9264053
Probable space group: C 2/C
;
_chemical_formula_sum "Si O2"
_cell_formula_units_Z 56
_cell_length_a 11.816171
_cell_length_b 30.078926
_cell_length_c 8.718417
_cell_angle_alpha 90.000000
_cell_angle_beta 73.010576
_cell_angle_gamma 90.000000
_cell_volume 2963.449606
_symmetry_space_group_name_H-M "C 2/C"
_symmetry_group_IT_number 15
_symmetry_cell_setting 'monoclinic'
loop_
_space_group_symop_operation_xyz
x,y,z
-x,y,1/2-z
-x,-y,-z
x,-y,1/2+z
1/2+x,1/2+y,z
1/2-x,1/2+y,1/2-z
1/2-x,1/2-y,-z
1/2+x,1/2-y,1/2+z
loop_
_atom_site_type_symbol
_atom_site_label
_atom_site_fract_x
_atom_site_fract_y
_atom_site_fract_z
Si Si1 0.199121 0.692725 0.408961
Si Si2 0.636864 0.289058 0.379519
Si Si3 0.425205 0.337885 0.641845
Si Si4 0.940623 0.396544 0.604003
Si Si5 0.641866 0.978297 0.713416
Si Si6 0.674399 0.064420 0.878776
Si Si7 0.630963 0.366069 0.152384
O O1 0.247618 0.700366 0.562051
O O2 0.130176 0.736008 0.376361
O O3 0.318680 0.688655 0.261547
O O4 0.124729 0.647715 0.423274
O O5 0.522071 0.308092 0.514049
O O6 0.645011 0.316648 0.218774
O O7 0.500000 0.360320 0.750000
O O8 0.365636 0.366794 0.532666
O O9 0.851935 0.438122 0.665800
O O10 0.000000 0.388477 0.750000
O O11 0.044709 0.413299 0.450198
O O12 0.500000 0.984056 0.750000
O O13 0.692830 0.960423 0.534607
O O14 0.685340 0.025792 0.750443
O O15 0.769210 0.102752 0.818995
O O16 0.500000 0.381457 0.250000
#
# Coordination Sequence:
#
# PCOD9264053 Si02
#       7
#     8   8   8   8   8   8   8
#     4  10  19  35  54  80 109 143 187 221 262 326
#     4   9  21  34  51  79 113 144 179 228 272 312
#     4   9  18  35  55  72 103 147 179 219 272 315
#     4   9  18  31  53  82 107 136 178 221 265 326
#     4   9  18  34  53  79 110 137 167 216 278 329
#     4  10  20  35  56  80 108 140 177 222 274 331
#     4  10  21  38  55  78 107 141 183 224 269 322
#
# _framework density 18.896895000000001
#
# number of rings (size 3 to 8) (size 9 to 14) (size 15 to 20)
#    0.000    2.857    0.000    3.429    0.000    5.714 
#    0.000    3.571    0.000    2.571    0.000    0.000 
#    0.000    0.000    0.000    0.000    0.000    0.000 
#
# Total GULP energy -156031.048841 kJ/mol
# GULP energy per Si atom -5572.537459 kJ/mol
# Density = 1.885388 g / cm^3
# Si number density = 18.896895 Si / 1000 Ang^3
#
#
#
# Elastic Constant Matrix: (Units=GPa)
#
#
# Indices 1 2 3 4 5 6 
#
# 1 35.4943 35.5892 4.1906 0.0000 6.5894 0.0000
# 2 35.5892 111.1387 8.6764 0.0000 13.3035 0.0000
# 3 4.1906 8.6764 39.7646 0.0000 10.6043 0.0000
# 4 0.0000 0.0000 0.0000 11.8656 0.0000 7.7696
# 5 6.5894 13.3035 10.6043 0.0000 16.0173 0.0000
# 6 0.0000 0.0000 0.0000 7.7696 0.0000 23.8724
#
#
#
# Elastic Compliance Matrix: (Units=1/GPa)
#
#
# Indices 1 2 3 4 5 6 
#
# 1 0.042157 -0.012684 0.000171 0.000000 -0.006920 0.000000
# 2 -0.012684 0.013808 -0.000011 0.000000 -0.006243 0.000000
# 3 0.000171 -0.000011 0.030541 0.000000 -0.020281 0.000000
# 4 0.000000 0.000000 0.000000 0.107102 0.000000 -0.034858
# 5 -0.006920 -0.006243 -0.020281 0.000000 0.083891 0.000000
# 6 0.000000 0.000000 0.000000 -0.034858 0.000000 0.053234
#
#
# Mechanical properties :
#
#
# Convention : Reuss Voigt Hill
#
# Bulk Modulus (GPa) = 16.27212 31.47890 23.87551
# Shear Modulus (GPa) = 13.28838 19.54712 16.41775
#
# Velocity S-wave (km/s) = 2.65468 3.21971 2.95075
# Velocity P-wave (km/s) = 4.24572 5.52417 4.92659
#
# Compressibility (1/GPa) = 0.06145481
#
# Stress axis : x y z
#
# Youngs Moduli (GPa) = 23.72109 72.42300 32.74303
#
# Poissons Ratio (x) = 0.91865 -0.00558
# Poissons Ratio (y) = 0.30089 0.00037
# Poissons Ratio (z) = -0.00405 0.00082
#
# Static dielectric constant tensor:
#      x y z
#    x 1.677810 0.000000 0.039540 
#    y 0.000000 1.655600 0.000000 
#    z 0.039540 0.000000 1.698420 
# 
# From -- ./inp_files/35156.got.cif
#   From: 2010.05.17/outbox.cif.g08.bks.cpg/sg15_18_cif.got.tgz:35156.got - 2010.06.03 18:47:42.
