data_PCOD9264765
_publ_section_title
;
Structure prediction by ZEFSAII (Michael W. Deem and Ramdas Pophale) SiO2 
 PCOD9264765
Probable space group: C 2/C
;
_chemical_formula_sum "Si O2"
_cell_formula_units_Z 48
_cell_length_a 5.512745
_cell_length_b 13.950769
_cell_length_c 26.225603
_cell_angle_alpha 90.000000
_cell_angle_beta 111.555737
_cell_angle_gamma 90.000000
_cell_volume 1875.870181
_symmetry_space_group_name_H-M "C 2/C"
_symmetry_group_IT_number 15
_symmetry_cell_setting 'monoclinic'
loop_
_space_group_symop_operation_xyz
x,y,z
-x,y,1/2-z
-x,-y,-z
x,-y,1/2+z
1/2+x,1/2+y,z
1/2-x,1/2+y,1/2-z
1/2-x,1/2-y,-z
1/2+x,1/2-y,1/2+z
loop_
_atom_site_type_symbol
_atom_site_label
_atom_site_fract_x
_atom_site_fract_y
_atom_site_fract_z
Si Si1 0.274654 0.705540 0.946037
Si Si2 0.493455 0.371073 0.619214
Si Si3 0.184137 0.091560 0.022906
Si Si4 0.304474 0.987504 0.780449
Si Si5 0.230998 0.780979 0.738678
Si Si6 0.890498 0.528504 0.901072
O O1 0.234025 0.790656 0.903291
O O2 0.039044 0.628515 0.923085
O O3 0.250000 0.750000 0.000000
O O4 0.566633 0.660340 0.970160
O O5 0.637724 0.367154 0.576023
O O6 0.648166 0.331704 0.679562
O O7 0.399813 0.481713 0.617487
O O8 0.466384 0.045137 0.048943
O O9 0.000000 0.000000 0.000000
O O10 0.500000 0.012615 0.750000
O O11 0.427370 0.018855 0.843218
O O12 0.000000 0.015914 0.750000
O O13 0.291181 0.871320 0.779895
O O14 0.500000 0.726784 0.750000
O O15 0.000000 0.727347 0.750000
#
# Coordination Sequence:
#
# PCOD9264765 Si02
#       6
#     8   8   8   8   8   8
#     4   9  22  41  59  94 131 163 231 287 333 419
#     4  11  21  38  65  90 128 175 215 281 344 407
#     4   9  20  37  60  88 122 167 216 272 326 405
#     4  10  19  35  63 100 128 168 227 275 329 419
#     4  10  19  35  63  97 128 170 222 270 336 412
#     4  11  21  38  67  91 125 182 218 275 354 408
#
# _framework density 25.588125000000002
#
# number of rings (size 3 to 8) (size 9 to 14) (size 15 to 20)
#    0.000    2.000    3.333    2.000    0.000    6.667 
#    0.000    6.667    0.000    0.000    0.000    0.000 
#    0.000    0.000    0.000    0.000    0.000    0.000 
#
# Total GULP energy -133818.206729 kJ/mol
# GULP energy per Si atom -5575.758614 kJ/mol
# Density = 2.552988 g / cm^3
# Si number density = 25.588125 Si / 1000 Ang^3
#
#
#
# Elastic Constant Matrix: (Units=GPa)
#
#
# Indices 1 2 3 4 5 6 
#
# 1 138.5779 14.3466 45.4460 0.0000 3.4706 0.0000
# 2 14.3466 103.7730 17.2492 0.0000 10.6794 0.0000
# 3 45.4460 17.2492 130.7258 0.0000 0.5292 0.0000
# 4 0.0000 0.0000 0.0000 -7.6161 0.0000 -16.8748
# 5 3.4706 10.6794 0.5292 0.0000 36.1161 0.0000
# 6 0.0000 0.0000 0.0000 -16.8748 0.0000 -13.7134
#
#
#
# Elastic Compliance Matrix: (Units=1/GPa)
#
#
# Indices 1 2 3 4 5 6 
#
# 1 0.008202 -0.000616 -0.002768 0.000000 -0.000566 0.000000
# 2 -0.000616 0.010211 -0.001121 0.000000 -0.002944 0.000000
# 3 -0.002768 -0.001121 0.008758 0.000000 0.000469 0.000000
# 4 0.000000 0.000000 0.000000 0.076052 0.000000 -0.093585
# 5 -0.000566 -0.002944 0.000469 0.000000 0.028606 0.000000
# 6 0.000000 0.000000 0.000000 -0.093585 0.000000 0.042238
#
#
# Mechanical properties :
#
#
# Convention : Reuss Voigt Hill
#
# Bulk Modulus (GPa) = 55.06328 58.57335 56.81832
# Shear Modulus (GPa) = 26.43688 22.69299 24.56494
#
# Velocity S-wave (km/s) = 3.21778 2.98124 3.10177
# Velocity P-wave (km/s) = 5.94738 5.89839 5.92293
#
# Compressibility (1/GPa) = 0.01816092
#
# Stress axis : x y z
#
# Youngs Moduli (GPa) = 121.92550 97.93493 114.18320
#
# Poissons Ratio (x) = 0.06029 0.31603
# Poissons Ratio (y) = 0.07506 0.12804
# Poissons Ratio (z) = 0.33746 0.10982
#
# Static dielectric constant tensor:
#      x y z
#    x 2.205080 0.000000 0.110360 
#    y 0.000000 2.071760 0.000000 
#    z 0.110360 0.000000 2.018330 
# 
# From -- ./inp_files/305487.got.cif
#   From: 2010.05.17/outbox.cif.g08.bks.cpg/sg15_153_cif.got.tgz:305487.got - 2010.06.03 18:47:42.
