data_PCOD9264721
_publ_section_title
;
Structure prediction by ZEFSAII (Michael W. Deem and Ramdas Pophale) SiO2 
 PCOD9264721
Probable space group: C 2/C
;
_chemical_formula_sum "Si O2"
_cell_formula_units_Z 52
_cell_length_a 9.172519
_cell_length_b 21.963523
_cell_length_c 17.405704
_cell_angle_alpha 90.000000
_cell_angle_beta 129.685184
_cell_angle_gamma 90.000000
_cell_volume 2698.530675
_symmetry_space_group_name_H-M "C 2/C"
_symmetry_group_IT_number 15
_symmetry_cell_setting 'monoclinic'
loop_
_space_group_symop_operation_xyz
x,y,z
-x,y,1/2-z
-x,-y,-z
x,-y,1/2+z
1/2+x,1/2+y,z
1/2-x,1/2+y,1/2-z
1/2-x,1/2-y,-z
1/2+x,1/2-y,1/2+z
loop_
_atom_site_type_symbol
_atom_site_label
_atom_site_fract_x
_atom_site_fract_y
_atom_site_fract_z
Si Si1 0.584553 0.782263 0.992205
Si Si2 0.360092 0.899508 0.589752
Si Si3 0.500000 0.560385 0.250000
Si Si4 0.775204 0.155152 0.690147
Si Si5 0.215434 0.255227 0.294476
Si Si6 0.749496 0.630152 0.217479
Si Si7 0.296820 0.968601 0.424017
O O1 0.582298 0.847616 0.951032
O O2 0.379562 0.752159 0.913886
O O3 0.750000 0.750000 0.000000
O O4 0.657690 0.795565 0.101314
O O5 0.568106 0.910920 0.695795
O O6 0.239804 0.875719 0.622029
O O7 0.256664 0.946863 0.498607
O O8 0.580391 0.602397 0.209383
O O9 0.653899 0.517245 0.341329
O O10 0.740387 0.178441 0.764361
O O11 0.711791 0.089084 0.637574
O O12 0.000000 0.159926 0.750000
O O13 0.268070 0.200237 0.252097
O O14 0.000000 0.247330 0.250000
O O15 0.500000 0.000000 0.500000
#
# Coordination Sequence:
#
# PCOD9264721 Si02
#       7
#     8   8   4   8   8   8   8
#     4  10  19  35  62  88 122 165 205 257 311 388
#     4   9  20  36  60  87 118 160 215 250 305 379
#     4  12  22  38  66  88 128 168 212 264 324 376
#     4  11  22  39  65  93 123 171 219 256 321 394
#     4  11  23  39  60  96 135 164 206 276 334 385
#     4  10  20  37  61  92 122 167 208 257 317 393
#     4  11  23  42  63  91 125 167 213 275 320 380
#
# _framework density 19.269745
#
# number of rings (size 3 to 8) (size 9 to 14) (size 15 to 20)
#    0.000    1.538    4.615    0.923    2.154    1.231 
#    0.000    3.077    0.000    0.000    0.000    0.000 
#    0.000    0.000    0.000    0.000    0.000    0.000 
#
# Total GULP energy -144743.054698 kJ/mol
# GULP energy per Si atom -5567.040565 kJ/mol
# Density = 1.922589 g / cm^3
# Si number density = 19.269745 Si / 1000 Ang^3
#
#
#
# Elastic Constant Matrix: (Units=GPa)
#
#
# Indices 1 2 3 4 5 6 
#
# 1 70.2280 7.8765 20.5091 0.0000 10.7631 0.0000
# 2 7.8765 54.7676 26.2119 0.0000 2.6818 0.0000
# 3 20.5091 26.2119 102.4625 0.0000 17.7725 0.0000
# 4 0.0000 0.0000 0.0000 29.3304 0.0000 -9.6284
# 5 10.7631 2.6818 17.7725 0.0000 34.7734 0.0000
# 6 0.0000 0.0000 0.0000 -9.6284 0.0000 14.4413
#
#
#
# Elastic Compliance Matrix: (Units=1/GPa)
#
#
# Indices 1 2 3 4 5 6 
#
# 1 0.015555 -0.000991 -0.002236 0.000000 -0.003595 0.000000
# 2 -0.000991 0.020917 -0.005405 0.000000 0.001456 0.000000
# 3 -0.002236 -0.005405 0.012506 0.000000 -0.005283 0.000000
# 4 0.000000 0.000000 0.000000 0.043647 0.000000 0.029101
# 5 -0.003595 0.001456 -0.005283 0.000000 0.032458 0.000000
# 6 0.000000 0.000000 0.000000 0.029101 0.000000 0.088648
#
#
# Mechanical properties :
#
#
# Convention : Reuss Voigt Hill
#
# Bulk Modulus (GPa) = 31.53238 37.40591 34.46915
# Shear Modulus (GPa) = 20.69816 27.23305 23.96560
#
# Velocity S-wave (km/s) = 3.28094 3.76341 3.53043
# Velocity P-wave (km/s) = 5.54545 6.19178 5.87751
#
# Compressibility (1/GPa) = 0.03171343
#
# Stress axis : x y z
#
# Youngs Moduli (GPa) = 64.28992 47.80771 79.95880
#
# Poissons Ratio (x) = 0.04736 0.17882
# Poissons Ratio (y) = 0.06369 0.43220
# Poissons Ratio (z) = 0.14378 0.25841
#
# Static dielectric constant tensor:
#      x y z
#    x 1.656440 0.000000 -0.006220 
#    y 0.000000 1.931410 0.000000 
#    z -0.006220 0.000000 1.737990 
# 
# From -- ./inp_files/137202.got.cif
#   From: 2010.05.17/outbox.cif.g08.bks.cpg/sg15_69_cif.got.tgz:137202.got - 2010.06.03 18:47:42.
