data_PCOD9264458
_publ_section_title
;
Structure prediction by ZEFSAII (Michael W. Deem and Ramdas Pophale) SiO2 
 PCOD9264458
Probable space group: C 2/C
;
_chemical_formula_sum "Si O2"
_cell_formula_units_Z 56
_cell_length_a 18.661726
_cell_length_b 8.287993
_cell_length_c 18.730175
_cell_angle_alpha 90.000000
_cell_angle_beta 129.356241
_cell_angle_gamma 90.000000
_cell_volume 2239.984639
_symmetry_space_group_name_H-M "C 2/C"
_symmetry_group_IT_number 15
_symmetry_cell_setting 'monoclinic'
loop_
_space_group_symop_operation_xyz
x,y,z
-x,y,1/2-z
-x,-y,-z
x,-y,1/2+z
1/2+x,1/2+y,z
1/2-x,1/2+y,1/2-z
1/2-x,1/2-y,-z
1/2+x,1/2-y,1/2+z
loop_
_atom_site_type_symbol
_atom_site_label
_atom_site_fract_x
_atom_site_fract_y
_atom_site_fract_z
Si Si1 0.888382 0.892261 0.832064
Si Si2 0.837806 0.081775 0.134755
Si Si3 0.603507 0.928577 0.333331
Si Si4 0.134992 0.321587 0.727923
Si Si5 0.177833 0.644639 0.500553
Si Si6 0.542936 0.398312 0.410728
Si Si7 0.781774 0.420814 0.294183
O O1 0.879826 0.915719 0.740584
O O2 0.860943 0.707676 0.824071
O O3 0.806615 0.011391 0.808989
O O4 0.989456 0.955563 0.915630
O O5 0.835759 0.270480 0.113965
O O6 0.900812 0.979265 0.119554
O O7 0.736648 0.999127 0.073244
O O8 0.500000 0.872106 0.250000
O O9 0.632267 0.038464 0.284731
O O10 0.610435 0.048095 0.404387
O O11 0.161992 0.409903 0.670305
O O12 0.218541 0.202260 0.800890
O O13 0.041061 0.219919 0.665974
O O14 0.250000 0.750000 0.500000
O O15 0.113828 0.780634 0.497428
#
# Coordination Sequence:
#
# PCOD9264458 Si02
#       7
#     8   8   8   8   8   8   8
#     4  10  19  35  59  84 117 148 206 244 293 342
#     4  11  23  37  58  93 122 156 185 249 313 359
#     4  12  22  37  62  93 119 152 200 244 298 360
#     4  10  20  35  60  88 119 147 204 248 292 337
#     4  10  24  37  55  90 125 158 189 232 321 363
#     4  10  21  35  59  87 118 149 193 247 294 356
#     4   9  20  34  54  91 111 154 197 260 280 337
#
# _framework density 25.000173
#
# number of rings (size 3 to 8) (size 9 to 14) (size 15 to 20)
#    0.000    1.714    2.857    1.714   10.000    0.000 
#    0.000    0.000    0.000    8.571    3.714    0.000 
#    0.000    0.000    0.000    0.000    0.000    0.000 
#
# Total GULP energy -155983.639249 kJ/mol
# GULP energy per Si atom -5570.844259 kJ/mol
# Density = 2.494327 g / cm^3
# Si number density = 25.000173 Si / 1000 Ang^3
#
#
#
# Elastic Constant Matrix: (Units=GPa)
#
#
# Indices 1 2 3 4 5 6 
#
# 1 47.5386 14.4529 -8.2663 0.0000 6.4029 0.0000
# 2 14.4529 143.5329 -2.1935 0.0000 9.9504 0.0000
# 3 -8.2663 -2.1935 39.4029 0.0000 1.5222 0.0000
# 4 0.0000 0.0000 0.0000 15.2000 0.0000 11.7339
# 5 6.4029 9.9504 1.5222 0.0000 31.3247 0.0000
# 6 0.0000 0.0000 0.0000 11.7339 0.0000 60.7378
#
#
#
# Elastic Compliance Matrix: (Units=1/GPa)
#
#
# Indices 1 2 3 4 5 6 
#
# 1 0.023063 -0.001947 0.004897 0.000000 -0.004334 0.000000
# 2 -0.001947 0.007298 0.000072 0.000000 -0.001924 0.000000
# 3 0.004897 0.000072 0.026500 0.000000 -0.002312 0.000000
# 4 0.000000 0.000000 0.000000 0.077321 0.000000 -0.014938
# 5 -0.004334 -0.001924 -0.002312 0.000000 0.033533 0.000000
# 6 0.000000 0.000000 0.000000 -0.014938 0.000000 0.019350
#
#
# Mechanical properties :
#
#
# Convention : Reuss Voigt Hill
#
# Bulk Modulus (GPa) = 15.89707 26.49563 21.19635
# Shear Modulus (GPa) = 24.75405 36.55126 30.65265
#
# Velocity S-wave (km/s) = 3.15009 3.82781 3.50537
# Velocity P-wave (km/s) = 4.42756 5.49157 4.98802
#
# Compressibility (1/GPa) = 0.06290468
#
# Stress axis : x y z
#
# Youngs Moduli (GPa) = 43.35997 137.03227 37.73648
#
# Poissons Ratio (x) = 0.26680 -0.18481
# Poissons Ratio (y) = 0.08442 -0.00272
# Poissons Ratio (z) = -0.21235 -0.00988
#
# Static dielectric constant tensor:
#      x y z
#    x 2.247840 0.000000 -0.197670 
#    y 0.000000 1.998460 0.000000 
#    z -0.197670 0.000000 2.159740 
# 
# From -- ./inp_files/279413.got.cif
#   From: 2010.05.17/outbox.cif.g08.bks.cpg/sg15_140_cif.got.tgz:279413.got - 2010.06.03 18:47:42.
