data_PCOD9264043
_publ_section_title
;
Structure prediction by ZEFSAII (Michael W. Deem and Ramdas Pophale) SiO2 
 PCOD9264043
Probable space group: C 2/C
;
_chemical_formula_sum "Si O2"
_cell_formula_units_Z 44
_cell_length_a 19.937016
_cell_length_b 10.907792
_cell_length_c 17.323585
_cell_angle_alpha 90.000000
_cell_angle_beta 33.539716
_cell_angle_gamma 90.000000
_cell_volume 2081.511221
_symmetry_space_group_name_H-M "C 2/C"
_symmetry_group_IT_number 15
_symmetry_cell_setting 'monoclinic'
loop_
_space_group_symop_operation_xyz
x,y,z
-x,y,1/2-z
-x,-y,-z
x,-y,1/2+z
1/2+x,1/2+y,z
1/2-x,1/2+y,1/2-z
1/2-x,1/2-y,-z
1/2+x,1/2-y,1/2+z
loop_
_atom_site_type_symbol
_atom_site_label
_atom_site_fract_x
_atom_site_fract_y
_atom_site_fract_z
Si Si1 0.123049 0.410032 0.772623
Si Si2 0.892381 0.084497 0.965327
Si Si3 0.000000 0.279699 0.750000
Si Si4 0.468461 0.692342 0.536227
Si Si5 0.345954 0.318104 0.999973
Si Si6 0.914896 0.306483 0.209802
O O1 0.267158 0.394800 0.630168
O O2 0.090428 0.552429 0.810614
O O3 0.073766 0.363167 0.737825
O O4 0.065566 0.320588 0.890836
O O5 0.915095 0.190332 0.881639
O O6 0.998610 0.098043 0.927652
O O7 0.880203 0.952491 0.936243
O O8 0.361952 0.660210 0.578322
O O9 0.579451 0.719133 0.371007
O O10 0.205969 0.282151 0.124353
O O11 0.453559 0.223313 0.879036
#
# Coordination Sequence:
#
# PCOD9264043 Si02
#       6
#     8   8   4   8   8   8
#     4  10  19  35  54  77 108 140 180 221 261 316
#     4  10  19  35  54  77 108 140 180 221 261 316
#     4  10  22  36  54  74 100 142 186 224 266 306
#     4   9  18  31  54  83 106 139 166 214 272 315
#     4   9  19  33  53  82 112 140 173 215 267 321
#     4   9  19  33  53  82 112 140 173 215 267 321
#
# _framework density 21.138487999999999
#
# number of rings (size 3 to 8) (size 9 to 14) (size 15 to 20)
#    1.091    1.455    0.000    2.727    0.000    0.000 
#    0.000   10.000    0.000    4.364    0.000    0.000 
#    0.000    0.000    0.000    0.000    0.000    0.000 
#
# Total GULP energy -122587.084446 kJ/mol
# GULP energy per Si atom -5572.140202 kJ/mol
# Density = 2.109038 g / cm^3
# Si number density = 21.138488 Si / 1000 Ang^3
#
#
#
# Elastic Constant Matrix: (Units=GPa)
#
#
# Indices 1 2 3 4 5 6 
#
# 1 56.5327 -2.6554 8.0445 0.0000 -6.6953 0.0000
# 2 -2.6554 56.5817 23.6623 0.0000 -10.6475 0.0000
# 3 8.0445 23.6623 95.8172 0.0000 -21.2510 0.0000
# 4 0.0000 0.0000 0.0000 21.6595 0.0000 5.9228
# 5 -6.6953 -10.6475 -21.2510 0.0000 33.9771 0.0000
# 6 0.0000 0.0000 0.0000 5.9228 0.0000 -5.9188
#
#
#
# Elastic Compliance Matrix: (Units=1/GPa)
#
#
# Indices 1 2 3 4 5 6 
#
# 1 0.018378 0.002050 -0.001281 0.000000 0.003462 0.000000
# 2 0.002050 0.020332 -0.004285 0.000000 0.004096 0.000000
# 3 -0.001281 -0.004285 0.013060 0.000000 0.006573 0.000000
# 4 0.000000 0.000000 0.000000 0.036250 0.000000 0.036274
# 5 0.003462 0.004096 0.006573 0.000000 0.035508 0.000000
# 6 0.000000 0.000000 0.000000 0.036274 0.000000 -0.132654
#
#
# Mechanical properties :
#
#
# Convention : Reuss Voigt Hill
#
# Bulk Modulus (GPa) = 22.35265 29.67048 26.01157
# Shear Modulus (GPa) = 390.03928 21.93557 205.98743
#
# Velocity S-wave (km/s) = 13.59841 3.22484 9.88221
# Velocity P-wave (km/s) = 16.03599 5.28515 11.93913
#
# Compressibility (1/GPa) = 0.04473742
#
# Stress axis : x y z
#
# Youngs Moduli (GPa) = 54.41433 49.18261 76.56885
#
# Poissons Ratio (x) = -0.10082 0.09810
# Poissons Ratio (y) = -0.11154 0.32809
# Poissons Ratio (z) = 0.06972 0.21074
#
# Static dielectric constant tensor:
#      x y z
#    x 1.786210 0.000000 -0.004880 
#    y 0.000000 1.751960 0.000000 
#    z -0.004880 0.000000 1.746120 
# 
# From -- ./inp_files/255245.got.cif
#   From: 2010.05.17/outbox.cif.g08.bks.cpg/sg15_128_cif.got.tgz:255245.got - 2010.06.03 18:47:42.
