data_PCOD9264248
_publ_section_title
;
Structure prediction by ZEFSAII (Michael W. Deem and Ramdas Pophale) SiO2 
 PCOD9264248
Probable space group: C 2/C
;
_chemical_formula_sum "Si O2"
_cell_formula_units_Z 48
_cell_length_a 13.939531
_cell_length_b 18.595445
_cell_length_c 13.191923
_cell_angle_alpha 90.000000
_cell_angle_beta 31.718672
_cell_angle_gamma 90.000000
_cell_volume 1797.799320
_symmetry_space_group_name_H-M "C 2/C"
_symmetry_group_IT_number 15
_symmetry_cell_setting 'monoclinic'
loop_
_space_group_symop_operation_xyz
x,y,z
-x,y,1/2-z
-x,-y,-z
x,-y,1/2+z
1/2+x,1/2+y,z
1/2-x,1/2+y,1/2-z
1/2-x,1/2-y,-z
1/2+x,1/2-y,1/2+z
loop_
_atom_site_type_symbol
_atom_site_label
_atom_site_fract_x
_atom_site_fract_y
_atom_site_fract_z
Si Si1 0.510714 0.510641 0.870560
Si Si2 0.871415 0.318342 0.053209
Si Si3 0.017553 0.375655 0.113454
Si Si4 0.537430 0.662105 0.558891
Si Si5 0.445569 0.355893 0.696314
Si Si6 0.062406 0.467703 0.578017
O O1 0.396583 0.584564 0.959050
O O2 0.445872 0.432519 0.891825
O O3 0.720506 0.519202 0.642183
O O4 0.500000 0.500000 0.000000
O O5 0.665744 0.337748 0.218017
O O6 0.905537 0.320487 0.144212
O O7 0.988323 0.386800 0.911446
O O8 0.892061 0.241416 0.982915
O O9 0.968535 0.457920 0.123541
O O10 0.000000 0.368167 0.250000
O O11 0.228699 0.363882 0.898066
O O12 0.524442 0.663428 0.447686
O O13 0.500000 0.313461 0.750000
O O14 0.000000 0.469593 0.750000
#
# Coordination Sequence:
#
# PCOD9264248 Si02
#       6
#     8   8   8   8   8   8
#     4   8  17  35  56  78 109 144 184 230 282 338
#     4  11  21  37  56  79 114 153 186 233 284 337
#     4  10  20  35  57  86 112 144 187 232 285 344
#     4  10  21  36  54  79 110 148 190 229 280 343
#     4  10  19  35  57  83 111 142 182 236 288 341
#     4   9  19  36  58  85 113 145 191 238 283 339
#
# _framework density 26.699310000000001
#
# number of rings (size 3 to 8) (size 9 to 14) (size 15 to 20)
#    0.000    2.333    0.000    2.500    0.000    0.667 
#    0.000   24.167    0.000    0.000    0.000    0.000 
#    0.000    0.000    0.000    0.000    0.000    0.000 
#
# Total GULP energy -133891.913206 kJ/mol
# GULP energy per Si atom -5578.829717 kJ/mol
# Density = 2.663854 g / cm^3
# Si number density = 26.699310 Si / 1000 Ang^3
#
#
#
# Elastic Constant Matrix: (Units=GPa)
#
#
# Indices 1 2 3 4 5 6 
#
# 1 39.6973 -0.9642 5.6072 -0.0142 14.1849 -0.0021
# 2 -0.9642 131.1149 20.8936 -0.0291 4.1149 -0.0046
# 3 5.6072 20.8936 112.5249 -0.0309 9.2428 0.0098
# 4 -0.0142 -0.0291 -0.0309 24.6313 0.0156 0.6066
# 5 14.1849 4.1149 9.2428 0.0156 40.8778 -0.0036
# 6 -0.0021 -0.0046 0.0098 0.6066 -0.0036 11.1439
#
#
#
# Elastic Compliance Matrix: (Units=1/GPa)
#
#
# Indices 1 2 3 4 5 6 
#
# 1 0.028852 0.000642 -0.000743 0.000023 -0.009908 0.000002
# 2 0.000642 0.007883 -0.001439 0.000008 -0.000691 0.000004
# 3 -0.000743 -0.001439 0.009331 0.000011 -0.001707 -0.000010
# 4 0.000023 0.000008 0.000011 0.040653 -0.000027 -0.002213
# 5 -0.009908 -0.000691 -0.001707 -0.000027 0.028357 0.000010
# 6 0.000002 0.000004 -0.000010 -0.002213 0.000010 0.089855
#
#
# Mechanical properties :
#
#
# Convention : Reuss Voigt Hill
#
# Bulk Modulus (GPa) = 23.26386 37.15669 30.21028
# Shear Modulus (GPa) = 22.48807 32.51732 27.50270
#
# Velocity S-wave (km/s) = 2.90534 3.49364 3.21298
# Velocity P-wave (km/s) = 4.47067 5.49736 5.01038
#
# Compressibility (1/GPa) = 0.04298512
#
# Stress axis : x y z
#
# Youngs Moduli (GPa) = 34.66000 126.86196 107.16560
#
# Poissons Ratio (x) = -0.08139 0.07962
# Poissons Ratio (y) = -0.02224 0.15420
# Poissons Ratio (z) = 0.02575 0.18254
#
# Static dielectric constant tensor:
#      x y z
#    x 2.176640 0.000010 0.127630 
#    y 0.000010 2.234890 0.000060 
#    z 0.127630 0.000060 2.203460 
# 
# From -- ./inp_files/48383.got.cif
#   From: 2010.05.17/outbox.cif.g08.bks.cpg/sg15_25_cif.got.tgz:48383.got - 2010.06.03 18:47:42.
