data_PCOD9264503
_publ_section_title
;
Structure prediction by ZEFSAII (Michael W. Deem and Ramdas Pophale) SiO2 
 PCOD9264503
Probable space group: C 2/C
;
_chemical_formula_sum "Si O2"
_cell_formula_units_Z 48
_cell_length_a 19.960067
_cell_length_b 21.771231
_cell_length_c 9.558151
_cell_angle_alpha 90.000000
_cell_angle_beta 33.812426
_cell_angle_gamma 90.000000
_cell_volume 2311.347090
_symmetry_space_group_name_H-M "C 2/C"
_symmetry_group_IT_number 15
_symmetry_cell_setting 'monoclinic'
loop_
_space_group_symop_operation_xyz
x,y,z
-x,y,1/2-z
-x,-y,-z
x,-y,1/2+z
1/2+x,1/2+y,z
1/2-x,1/2+y,1/2-z
1/2-x,1/2-y,-z
1/2+x,1/2-y,1/2+z
loop_
_atom_site_type_symbol
_atom_site_label
_atom_site_fract_x
_atom_site_fract_y
_atom_site_fract_z
Si Si1 0.546991 0.268006 0.341944
Si Si2 0.464287 0.398567 0.551284
Si Si3 0.242853 0.270455 0.290207
Si Si4 0.394957 0.813027 0.318847
Si Si5 0.119798 0.012469 0.947506
Si Si6 0.255728 0.607777 0.607955
O O1 0.500390 0.337435 0.411758
O O2 0.653826 0.268529 0.272319
O O3 0.450612 0.224721 0.590376
O O4 0.618096 0.249362 0.078007
O O5 0.373897 0.445062 0.628740
O O6 0.579624 0.439120 0.396922
O O7 0.389707 0.378507 0.816910
O O8 0.231744 0.340836 0.264295
O O9 0.293781 0.227411 0.076108
O O10 0.500000 0.824398 0.250000
O O11 0.336511 0.874604 0.355121
O O12 0.228194 0.041054 0.849328
O O13 0.000000 0.008432 0.250000
#
# Coordination Sequence:
#
# PCOD9264503 Si02
#       6
#     8   8   8   8   8   8
#     4  10  20  35  58  91 136 161 205 251 312 387
#     4  10  19  35  59  88 125 163 200 258 311 377
#     4  10  20  34  57  94 125 174 199 247 321 382
#     4  10  22  38  57  87 124 169 209 252 317 372
#     4   9  20  35  57  88 120 164 206 252 323 364
#     4  11  20  37  61  86 126 166 207 254 317 380
#
# _framework density 20.767109999999999
#
# number of rings (size 3 to 8) (size 9 to 14) (size 15 to 20)
#    0.000    2.000    3.333    0.500    0.000    2.000 
#    0.000    0.000    0.000    1.000    0.000    0.000 
#    0.000    0.000    0.000    0.000    0.000    0.000 
#
# Total GULP energy -133892.454312 kJ/mol
# GULP energy per Si atom -5578.852263 kJ/mol
# Density = 2.071984 g / cm^3
# Si number density = 20.767110 Si / 1000 Ang^3
#
#
#
# Elastic Constant Matrix: (Units=GPa)
#
#
# Indices 1 2 3 4 5 6 
#
# 1 99.0574 46.8097 44.9254 0.0001 1.6925 0.0000
# 2 46.8097 120.7184 55.7250 0.0000 3.9903 0.0000
# 3 44.9254 55.7250 106.0654 0.0002 7.6778 0.0000
# 4 0.0001 0.0000 0.0002 24.0484 -0.0001 -0.4303
# 5 1.6925 3.9903 7.6778 -0.0001 38.7047 0.0000
# 6 0.0000 0.0000 0.0000 -0.4303 0.0000 26.9335
#
#
#
# Elastic Compliance Matrix: (Units=1/GPa)
#
#
# Indices 1 2 3 4 5 6 
#
# 1 0.013500 -0.003426 -0.003958 0.000000 0.000548 0.000000
# 2 -0.003426 0.011805 -0.004742 0.000000 -0.000127 0.000000
# 3 -0.003958 -0.004742 0.013745 0.000000 -0.002065 0.000000
# 4 0.000000 0.000000 0.000000 0.041595 0.000000 0.000665
# 5 0.000548 -0.000127 -0.002065 0.000000 0.026235 0.000000
# 6 0.000000 0.000000 0.000000 0.000665 0.000000 0.037139
#
#
# Mechanical properties :
#
#
# Convention : Reuss Voigt Hill
#
# Bulk Modulus (GPa) = 67.57206 68.97349 68.27277
# Shear Modulus (GPa) = 28.86773 29.82939 29.34856
#
# Velocity S-wave (km/s) = 3.73241 3.79407 3.76336
# Velocity P-wave (km/s) = 7.15424 7.24418 7.19935
#
# Compressibility (1/GPa) = 0.01479902
#
# Stress axis : x y z
#
# Youngs Moduli (GPa) = 74.07622 84.70753 72.75155
#
# Poissons Ratio (x) = 0.29019 0.28793
# Poissons Ratio (y) = 0.25377 0.34500
# Poissons Ratio (z) = 0.29318 0.40169
#
# Static dielectric constant tensor:
#      x y z
#    x 1.894110 0.000000 0.018540 
#    y 0.000000 1.733130 0.000000 
#    z 0.018540 0.000000 1.748270 
# 
# From -- ./inp_files/119378.got.cif
#   From: 2010.05.17/outbox.cif.g08.bks.cpg/sg15_60_cif.got.tgz:119378.got - 2010.06.03 18:47:42.
