data_PCOD9264234
_publ_section_title
;
Structure prediction by ZEFSAII (Michael W. Deem and Ramdas Pophale) SiO2 
 PCOD9264234
Probable space group: C 2/C
;
_chemical_formula_sum "Si O2"
_cell_formula_units_Z 60
_cell_length_a 19.313988
_cell_length_b 19.215336
_cell_length_c 9.856542
_cell_angle_alpha 90.000000
_cell_angle_beta 55.281993
_cell_angle_gamma 90.000000
_cell_volume 3006.753935
_symmetry_space_group_name_H-M "C 2/C"
_symmetry_group_IT_number 15
_symmetry_cell_setting 'monoclinic'
loop_
_space_group_symop_operation_xyz
x,y,z
-x,y,1/2-z
-x,-y,-z
x,-y,1/2+z
1/2+x,1/2+y,z
1/2-x,1/2+y,1/2-z
1/2-x,1/2-y,-z
1/2+x,1/2-y,1/2+z
loop_
_atom_site_type_symbol
_atom_site_label
_atom_site_fract_x
_atom_site_fract_y
_atom_site_fract_z
Si Si1 0.500000 0.051007 0.250000
Si Si2 0.474026 0.157901 0.480593
Si Si3 0.371648 0.708092 0.475182
Si Si4 0.801498 0.942758 0.032047
Si Si5 0.057640 0.800322 0.898194
Si Si6 0.832102 0.928173 0.676824
Si Si7 0.657382 0.855586 0.877234
Si Si8 0.111054 0.570026 0.705915
O O1 0.445125 0.101487 0.404366
O O2 0.444059 0.999057 0.224826
O O3 0.442230 0.236017 0.498007
O O4 0.575868 0.152442 0.371861
O O5 0.437589 0.131338 0.663703
O O6 0.325904 0.635164 0.548587
O O7 0.385397 0.715181 0.298167
O O8 0.462967 0.700034 0.444268
O O9 0.328477 0.777825 0.579037
O O10 0.701650 0.946796 0.164584
O O11 0.843396 0.003809 0.072365
O O12 0.822066 0.947920 0.847954
O O13 0.091946 0.872712 0.917027
O O14 0.745175 0.888558 0.731232
O O15 0.626422 0.904843 0.035241
#
# Coordination Sequence:
#
# PCOD9264234 Si02
#       8
#     4   8   8   8   8   8   8   8
#     4  12  24  32  52  84 120 154 172 216 284 342
#     4  11  21  36  54  81 115 147 186 222 272 338
#     4   9  18  36  59  86 105 140 192 243 269 318
#     4  10  23  36  57  84 115 143 192 234 284 327
#     4   9  19  36  61  81 106 143 194 234 274 320
#     4  10  22  38  56  86 113 148 186 238 280 333
#     4  10  19  35  57  82 112 138 186 232 276 318
#     4  11  21  33  56  80 111 153 179 223 271 332
#
# _framework density 19.955075000000001
#
# number of rings (size 3 to 8) (size 9 to 14) (size 15 to 20)
#    0.000    1.867    2.667    1.200    5.600    2.133 
#    0.000    2.667    0.000    2.400    0.000    0.000 
#    0.000    0.000    0.000    0.000    0.000    0.000 
#
# Total GULP energy -167415.074393 kJ/mol
# GULP energy per Si atom -5580.502480 kJ/mol
# Density = 1.990966 g / cm^3
# Si number density = 19.955075 Si / 1000 Ang^3
#
#
#
# Elastic Constant Matrix: (Units=GPa)
#
#
# Indices 1 2 3 4 5 6 
#
# 1 26.3904 27.2748 5.9927 0.0000 0.3079 0.0000
# 2 27.2748 150.7904 26.6245 0.0000 6.5983 0.0000
# 3 5.9927 26.6245 22.6266 0.0000 -3.1428 0.0000
# 4 0.0000 0.0000 0.0000 28.3137 0.0000 6.8579
# 5 0.3079 6.5983 -3.1428 0.0000 9.2155 0.0000
# 6 0.0000 0.0000 0.0000 6.8579 0.0000 13.4394
#
#
#
# Elastic Compliance Matrix: (Units=1/GPa)
#
#
# Indices 1 2 3 4 5 6 
#
# 1 0.046874 -0.008244 -0.002217 0.000000 0.003580 0.000000
# 2 -0.008244 0.010762 -0.012085 0.000000 -0.011551 0.000000
# 3 -0.002217 -0.012085 0.063209 0.000000 0.030283 0.000000
# 4 0.000000 0.000000 0.000000 0.040299 0.000000 -0.020564
# 5 0.003580 -0.011551 0.030283 0.000000 0.126991 0.000000
# 6 0.000000 0.000000 0.000000 -0.020564 0.000000 0.084902
#
#
# Mechanical properties :
#
#
# Convention : Reuss Voigt Hill
#
# Bulk Modulus (GPa) = 13.20052 35.51013 24.35532
# Shear Modulus (GPa) = 11.27700 19.52141 15.39920
#
# Velocity S-wave (km/s) = 2.37980 3.13112 2.78095
# Velocity P-wave (km/s) = 3.76573 5.55928 4.74796
#
# Compressibility (1/GPa) = 0.07575460
#
# Stress axis : x y z
#
# Youngs Moduli (GPa) = 21.33366 92.91885 15.82049
#
# Poissons Ratio (x) = 0.76601 0.03507
# Poissons Ratio (y) = 0.17587 0.19119
# Poissons Ratio (z) = 0.04730 1.12290
#
# Static dielectric constant tensor:
#      x y z
#    x 1.745790 0.000000 0.017630 
#    y 0.000000 1.695010 0.000000 
#    z 0.017630 0.000000 1.712080 
# 
# From -- ./inp_files/112706.got.cif
#   From: 2010.05.17/outbox.cif.g08.bks.cpg/sg15_57_cif.got.tgz:112706.got - 2010.06.03 18:47:42.
