data_PCOD9264099
_publ_section_title
;
Structure prediction by ZEFSAII (Michael W. Deem and Ramdas Pophale) SiO2 
 PCOD9264099
Probable space group: C 2/C
;
_chemical_formula_sum "Si O2"
_cell_formula_units_Z 44
_cell_length_a 9.414348
_cell_length_b 16.158716
_cell_length_c 13.902848
_cell_angle_alpha 90.000000
_cell_angle_beta 96.040123
_cell_angle_gamma 90.000000
_cell_volume 2103.212464
_symmetry_space_group_name_H-M "C 2/C"
_symmetry_group_IT_number 15
_symmetry_cell_setting 'monoclinic'
loop_
_space_group_symop_operation_xyz
x,y,z
-x,y,1/2-z
-x,-y,-z
x,-y,1/2+z
1/2+x,1/2+y,z
1/2-x,1/2+y,1/2-z
1/2-x,1/2-y,-z
1/2+x,1/2-y,1/2+z
loop_
_atom_site_type_symbol
_atom_site_label
_atom_site_fract_x
_atom_site_fract_y
_atom_site_fract_z
Si Si1 0.741846 0.878346 0.981861
Si Si2 0.476308 0.442537 0.135960
Si Si3 0.997897 0.866463 0.862616
Si Si4 0.000000 0.609872 0.750000
Si Si5 0.011314 0.301064 0.442484
Si Si6 0.206532 0.443427 0.417959
O O1 0.617581 0.812887 0.992490
O O2 0.856156 0.888000 0.076365
O O3 0.551499 0.833575 0.165040
O O4 0.675611 0.970048 0.966936
O O5 0.500000 0.425240 0.250000
O O6 0.440992 0.540795 0.122237
O O7 0.627108 0.432648 0.092525
O O8 0.065052 0.790912 0.926765
O O9 0.000000 0.848476 0.750000
O O10 0.836424 0.866759 0.893083
O O11 0.125249 0.557851 0.808585
O O12 0.136486 0.366822 0.469134
#
# Coordination Sequence:
#
# PCOD9264099 Si02
#       6
#     8   8   8   4   8   8
#     4  11  21  35  58  87 109 144 190 233 270 327
#     4  10  21  36  57  82 112 146 189 230 275 326
#     4  10  19  35  55  82 112 150 182 222 278 338
#     4   8  18  30  58  76 110 142 188 210 278 314
#     4  10  19  35  57  82 109 150 186 223 275 331
#     4   9  18  34  53  83 108 145 183 224 273 323
#
# _framework density 20.920377999999999
#
# number of rings (size 3 to 8) (size 9 to 14) (size 15 to 20)
#    1.091    1.091    0.909    4.364    0.000    0.000 
#    0.000    3.636    0.000    0.000   30.727    0.000 
#    0.000    0.000    0.000    0.000    0.000    0.000 
#
# Total GULP energy -122646.551286 kJ/mol
# GULP energy per Si atom -5574.843240 kJ/mol
# Density = 2.087276 g / cm^3
# Si number density = 20.920378 Si / 1000 Ang^3
#
#
#
# Elastic Constant Matrix: (Units=GPa)
#
#
# Indices 1 2 3 4 5 6 
#
# 1 48.7107 30.2281 28.0585 0.0000 -6.5145 0.0000
# 2 30.2281 82.4096 21.3609 0.0000 0.2167 0.0000
# 3 28.0585 21.3609 92.3578 0.0000 -8.4249 0.0000
# 4 0.0000 0.0000 0.0000 21.2646 0.0000 -4.3625
# 5 -6.5145 0.2167 -8.4249 0.0000 37.9708 0.0000
# 6 0.0000 0.0000 0.0000 -4.3625 0.0000 27.3705
#
#
#
# Elastic Compliance Matrix: (Units=1/GPa)
#
#
# Indices 1 2 3 4 5 6 
#
# 1 0.030923 -0.009583 -0.006827 0.000000 0.003845 0.000000
# 2 -0.009583 0.015899 -0.000943 0.000000 -0.001944 0.000000
# 3 -0.006827 -0.000943 0.013282 0.000000 0.001781 0.000000
# 4 0.000000 0.000000 0.000000 0.048616 0.000000 0.007749
# 5 0.003845 -0.001944 0.001781 0.000000 0.027402 0.000000
# 6 0.000000 0.000000 0.000000 0.007749 0.000000 0.037771
#
#
# Mechanical properties :
#
#
# Convention : Reuss Voigt Hill
#
# Bulk Modulus (GPa) = 39.37428 42.53034 40.95231
# Shear Modulus (GPa) = 23.03434 26.90987 24.97211
#
# Velocity S-wave (km/s) = 3.32180 3.59039 3.45871
# Velocity P-wave (km/s) = 5.79434 6.12876 5.96389
#
# Compressibility (1/GPa) = 0.02539729
#
# Stress axis : x y z
#
# Youngs Moduli (GPa) = 32.33807 62.89610 75.28848
#
# Poissons Ratio (x) = 0.60275 0.51402
# Poissons Ratio (y) = 0.30990 0.07101
# Poissons Ratio (z) = 0.22078 0.05932
#
# Static dielectric constant tensor:
#      x y z
#    x 1.749630 0.000000 -0.001820 
#    y 0.000000 1.811800 0.000000 
#    z -0.001820 0.000000 1.749540 
# 
# From -- ./inp_files/134519.got.cif
#   From: 2010.05.17/outbox.cif.g08.bks.cpg/sg15_68_cif.got.tgz:134519.got - 2010.06.03 18:47:42.
