data_PCOD9264733
_publ_section_title
;
Structure prediction by ZEFSAII (Michael W. Deem and Ramdas Pophale) SiO2 
 PCOD9264733
Probable space group: C 2/C
;
_chemical_formula_sum "Si O2"
_cell_formula_units_Z 56
_cell_length_a 22.639362
_cell_length_b 14.175061
_cell_length_c 13.411508
_cell_angle_alpha 90.000000
_cell_angle_beta 31.119284
_cell_angle_gamma 90.000000
_cell_volume 2224.371385
_symmetry_space_group_name_H-M "C 2/C"
_symmetry_group_IT_number 15
_symmetry_cell_setting 'monoclinic'
loop_
_space_group_symop_operation_xyz
x,y,z
-x,y,1/2-z
-x,-y,-z
x,-y,1/2+z
1/2+x,1/2+y,z
1/2-x,1/2+y,1/2-z
1/2-x,1/2-y,-z
1/2+x,1/2-y,1/2+z
loop_
_atom_site_type_symbol
_atom_site_label
_atom_site_fract_x
_atom_site_fract_y
_atom_site_fract_z
Si Si1 0.424117 0.104550 0.546520
Si Si2 0.757248 0.348389 0.436017
Si Si3 0.916858 0.773438 0.963114
Si Si4 0.846108 0.873295 0.371037
Si Si5 0.951246 0.947058 0.707031
Si Si6 0.377250 0.175754 0.423368
Si Si7 0.340548 0.094040 0.198744
O O1 0.381627 0.123486 0.721349
O O2 0.375466 0.185599 0.545551
O O3 0.560164 0.098036 0.360071
O O4 0.365610 0.003937 0.605983
O O5 0.750000 0.250000 0.500000
O O6 0.683295 0.332554 0.443807
O O7 0.684109 0.423083 0.602990
O O8 0.000000 0.742814 0.750000
O O9 0.987122 0.853053 0.923329
O O10 0.864677 0.686074 0.097783
O O11 0.743690 0.863592 0.439003
O O12 0.891079 0.770667 0.338884
O O13 0.779662 0.906209 0.569186
O O14 0.945449 0.942949 0.189112
O O15 0.000000 0.949601 0.750000
O O16 0.500000 0.120097 0.250000
#
# Coordination Sequence:
#
# PCOD9264733 Si02
#       7
#     8   8   8   8   8   8   8
#     4  11  22  38  59  91 130 163 217 272 337 399
#     4  10  19  35  62  90 124 166 211 272 333 388
#     4   9  20  37  60  94 125 165 215 275 329 391
#     4  11  22  42  67  87 127 179 225 267 341 399
#     4   9  19  38  63  89 126 165 218 272 328 389
#     4  11  24  41  63  92 127 174 222 273 326 406
#     4  11  22  38  62  91 129 170 211 278 337 392
#
# _framework density 25.175650999999998
#
# number of rings (size 3 to 8) (size 9 to 14) (size 15 to 20)
#    0.000    2.000    2.857    3.000    0.000    1.714 
#    0.000    1.429    0.000    3.429    0.000    0.000 
#    0.000    0.000    0.000    0.000    0.000    0.000 
#
# Total GULP energy -156042.175446 kJ/mol
# GULP energy per Si atom -5572.934837 kJ/mol
# Density = 2.511835 g / cm^3
# Si number density = 25.175651 Si / 1000 Ang^3
#
#
#
# Elastic Constant Matrix: (Units=GPa)
#
#
# Indices 1 2 3 4 5 6 
#
# 1 59.9163 16.6610 -1.6661 0.0000 -12.9326 0.0000
# 2 16.6610 147.6586 12.2117 0.0000 5.0189 0.0000
# 3 -1.6661 12.2117 64.6707 0.0000 -6.8171 0.0000
# 4 0.0000 0.0000 0.0000 42.4869 0.0000 6.1155
# 5 -12.9326 5.0189 -6.8171 0.0000 24.8496 0.0000
# 6 0.0000 0.0000 0.0000 6.1155 0.0000 31.2613
#
#
#
# Elastic Compliance Matrix: (Units=1/GPa)
#
#
# Indices 1 2 3 4 5 6 
#
# 1 0.020058 -0.002847 0.002281 0.000000 0.011640 0.000000
# 2 -0.002847 0.007363 -0.001830 0.000000 -0.003471 0.000000
# 3 0.002281 -0.001830 0.016509 0.000000 0.006086 0.000000
# 4 0.000000 0.000000 0.000000 0.024219 0.000000 -0.004738
# 5 0.011640 -0.003471 0.006086 0.000000 0.048670 0.000000
# 6 0.000000 0.000000 0.000000 -0.004738 0.000000 0.032915
#
#
# Mechanical properties :
#
#
# Convention : Reuss Voigt Hill
#
# Bulk Modulus (GPa) = 25.55075 36.29543 30.92309
# Shear Modulus (GPa) = 29.83817 36.05549 32.94683
#
# Velocity S-wave (km/s) = 3.44641 3.78849 3.62149
# Velocity P-wave (km/s) = 5.09980 5.79526 5.45862
#
# Compressibility (1/GPa) = 0.03913779
#
# Stress axis : x y z
#
# Youngs Moduli (GPa) = 49.85663 135.81492 60.57409
#
# Poissons Ratio (x) = 0.38673 -0.13819
# Poissons Ratio (y) = 0.14197 0.11082
# Poissons Ratio (z) = -0.11374 0.24848
#
# Static dielectric constant tensor:
#      x y z
#    x 2.629080 0.000000 0.110150 
#    y 0.000000 2.089630 0.000000 
#    z 0.110150 0.000000 2.302060 
# 
# From -- ./inp_files/173804.got.cif
#   From: 2010.05.17/outbox.cif.g08.bks.cpg/sg15_87_cif.got.tgz:173804.got - 2010.06.03 18:47:42.
