data_PCOD9264042
_publ_section_title
;
Structure prediction by ZEFSAII (Michael W. Deem and Ramdas Pophale) SiO2 
 PCOD9264042
Probable space group: C 2/C
;
_chemical_formula_sum "Si O2"
_cell_formula_units_Z 64
_cell_length_a 8.700416
_cell_length_b 21.700986
_cell_length_c 22.840147
_cell_angle_alpha 90.000000
_cell_angle_beta 44.915308
_cell_angle_gamma 90.000000
_cell_volume 3044.811968
_symmetry_space_group_name_H-M "C 2/C"
_symmetry_group_IT_number 15
_symmetry_cell_setting 'monoclinic'
loop_
_space_group_symop_operation_xyz
x,y,z
-x,y,1/2-z
-x,-y,-z
x,-y,1/2+z
1/2+x,1/2+y,z
1/2-x,1/2+y,1/2-z
1/2-x,1/2-y,-z
1/2+x,1/2-y,1/2+z
loop_
_atom_site_type_symbol
_atom_site_label
_atom_site_fract_x
_atom_site_fract_y
_atom_site_fract_z
Si Si1 0.468787 0.782156 0.513624
Si Si2 0.067396 0.805557 0.079665
Si Si3 0.261472 0.460913 0.666697
Si Si4 0.689906 0.633653 0.245837
Si Si5 0.164615 0.328120 0.057369
Si Si6 0.690117 0.136701 0.096796
Si Si7 0.758138 0.257913 0.816706
Si Si8 0.230712 0.401215 0.156322
O O1 0.726915 0.793328 0.435013
O O2 0.470719 0.758857 0.580644
O O3 0.356998 0.721046 0.516856
O O4 0.347376 0.836299 0.510468
O O5 0.874784 0.849326 0.149505
O O6 0.182561 0.842242 0.994849
O O7 0.355365 0.420836 0.694798
O O8 0.295203 0.423259 0.597978
O O9 0.329996 0.531227 0.639344
O O10 0.000000 0.460358 0.750000
O O11 0.500000 0.634921 0.250000
O O12 0.705175 0.698973 0.274996
O O13 0.934830 0.623009 0.155229
O O14 0.197671 0.380756 0.096984
O O15 0.938670 0.291182 0.129714
O O16 0.712774 0.188586 0.141284
O O17 0.000000 0.228938 0.750000
O O18 0.000000 0.401156 0.250000
#
# Coordination Sequence:
#
# PCOD9264042 Si02
#       8
#     8   8   8   8   8   8   8   8
#     4   9  20  34  53  77 109 146 173 217 276 322
#     4  10  19  35  56  77 111 144 179 222 275 320
#     4   8  17  37  56  73 111 144 179 224 272 324
#     4   9  18  31  54  87 106 138 178 231 286 313
#     4  10  19  35  54  77 107 146 181 213 262 328
#     4   9  17  33  56  80 106 141 178 218 282 320
#     4   9  18  31  50  82 117 137 169 226 276 325
#     4  10  22  38  54  77 105 147 189 216 261 331
#
# _framework density 21.019359999999999
#
# number of rings (size 3 to 8) (size 9 to 14) (size 15 to 20)
#    0.000    2.750    1.250    1.500    1.750    2.000 
#    4.500    3.750    0.000    2.250    0.000    0.000 
#    0.000    0.000    0.000    0.000    0.000    0.000 
#
# Total GULP energy -178176.881608 kJ/mol
# GULP energy per Si atom -5568.027550 kJ/mol
# Density = 2.097152 g / cm^3
# Si number density = 21.019360 Si / 1000 Ang^3
#
#
#
# Elastic Constant Matrix: (Units=GPa)
#
#
# Indices 1 2 3 4 5 6 
#
# 1 162.8922 34.2856 18.1291 0.0000 -5.2495 0.0002
# 2 34.2856 92.6828 23.8093 0.0000 -0.4199 0.0000
# 3 18.1291 23.8093 53.4252 0.0000 -7.7205 0.0000
# 4 0.0000 0.0000 0.0000 29.7054 0.0000 3.5367
# 5 -5.2495 -0.4199 -7.7205 0.0000 29.8841 -0.0001
# 6 0.0002 0.0000 0.0000 3.5367 -0.0001 17.4301
#
#
#
# Elastic Compliance Matrix: (Units=1/GPa)
#
#
# Indices 1 2 3 4 5 6 
#
# 1 0.006760 -0.002190 -0.001196 0.000000 0.000848 0.000000
# 2 -0.002190 0.012941 -0.005249 0.000000 -0.001559 0.000000
# 3 -0.001196 -0.005249 0.022253 0.000000 0.005465 0.000000
# 4 0.000000 0.000000 0.000000 0.034497 0.000000 -0.007000
# 5 0.000848 -0.001559 0.005465 0.000000 0.035002 0.000000
# 6 0.000000 0.000000 0.000000 -0.007000 0.000000 0.058792
#
#
# Mechanical properties :
#
#
# Convention : Reuss Voigt Hill
#
# Bulk Modulus (GPa) = 40.51157 51.27202 45.89180
# Shear Modulus (GPa) = 25.54370 30.92234 28.23302
#
# Velocity S-wave (km/s) = 3.48982 3.83970 3.66893
# Velocity P-wave (km/s) = 5.96270 6.64104 6.31099
#
# Compressibility (1/GPa) = 0.02468430
#
# Stress axis : x y z
#
# Youngs Moduli (GPa) = 147.92167 77.27356 44.93834
#
# Poissons Ratio (x) = 0.16922 0.05373
# Poissons Ratio (y) = 0.32392 0.23590
# Poissons Ratio (z) = 0.17685 0.40565
#
# Static dielectric constant tensor:
#      x y z
#    x 1.824560 0.000000 0.069190 
#    y 0.000000 1.759380 0.000000 
#    z 0.069190 0.000000 1.920820 
# 
# From -- ./inp_files/193004.got.cif
#   From: 2010.05.17/outbox.cif.g08.bks.cpg/sg15_97_cif.got.tgz:193004.got - 2010.06.03 18:47:42.
