data_PCOD9264539
_publ_section_title
;
Structure prediction by ZEFSAII (Michael W. Deem and Ramdas Pophale) SiO2 
 PCOD9264539
Probable space group: C 2/C
;
_chemical_formula_sum "Si O2"
_cell_formula_units_Z 56
_cell_length_a 9.229990
_cell_length_b 26.722464
_cell_length_c 20.385110
_cell_angle_alpha 90.000000
_cell_angle_beta 142.714539
_cell_angle_gamma 90.000000
_cell_volume 3045.863246
_symmetry_space_group_name_H-M "C 2/C"
_symmetry_group_IT_number 15
_symmetry_cell_setting 'monoclinic'
loop_
_space_group_symop_operation_xyz
x,y,z
-x,y,1/2-z
-x,-y,-z
x,-y,1/2+z
1/2+x,1/2+y,z
1/2-x,1/2+y,1/2-z
1/2-x,1/2-y,-z
1/2+x,1/2-y,1/2+z
loop_
_atom_site_type_symbol
_atom_site_label
_atom_site_fract_x
_atom_site_fract_y
_atom_site_fract_z
Si Si1 0.200942 0.725534 0.777880
Si Si2 0.604280 0.658681 0.855962
Si Si3 0.824665 0.584825 0.246195
Si Si4 0.726498 0.698627 0.172285
Si Si5 0.377823 0.525530 0.134516
Si Si6 0.409457 0.930384 0.521172
Si Si7 0.919477 0.746039 0.997028
O O1 0.390149 0.685082 0.818954
O O2 0.138915 0.762041 0.695300
O O3 0.000000 0.700311 0.750000
O O4 0.328162 0.761092 0.878137
O O5 0.500000 0.639771 0.750000
O O6 0.804566 0.701151 0.915009
O O7 0.744820 0.616422 0.944805
O O8 0.741591 0.642488 0.205286
O O9 0.588833 0.551193 0.169407
O O10 0.000000 0.571514 0.250000
O O11 0.986418 0.577157 0.368860
O O12 0.584201 0.706714 0.053018
O O13 0.000000 0.711939 0.250000
O O14 0.500000 0.512971 0.250000
O O15 0.153410 0.562630 0.066822
O O16 0.255993 0.478449 0.054514
O O17 0.750000 0.750000 0.000000
#
# Coordination Sequence:
#
# PCOD9264539 Si02
#       7
#     8   8   8   8   8   8   8
#     4  11  23  36  53  82 121 152 195 247 290 348
#     4  11  20  38  58  85 111 154 197 241 296 359
#     4  10  23  36  61  92 122 152 195 241 302 359
#     4  11  19  38  58  84 114 161 203 238 282 359
#     4   9  20  43  62  91 115 146 204 252 287 355
#     4  10  21  38  68  84 114 159 197 246 299 343
#     4  10  19  35  60  75 112 158 195 235 284 344
#
# _framework density 18.385591999999999
#
# number of rings (size 3 to 8) (size 9 to 14) (size 15 to 20)
#    0.000    1.714    4.286    1.286    6.000    4.000 
#    2.571    0.714    0.000    0.000    0.000    0.000 
#    0.000    0.000    0.000    0.000    0.000    0.000 
#
# Total GULP energy -155930.067744 kJ/mol
# GULP energy per Si atom -5568.930991 kJ/mol
# Density = 1.834375 g / cm^3
# Si number density = 18.385592 Si / 1000 Ang^3
#
#
#
# Elastic Constant Matrix: (Units=GPa)
#
#
# Indices 1 2 3 4 5 6 
#
# 1 125.5267 59.0456 47.5261 0.0000 2.8476 0.0000
# 2 59.0456 76.5527 30.5192 -0.0001 2.1780 0.0000
# 3 47.5261 30.5192 87.3974 -0.0004 -9.2666 -0.0001
# 4 0.0000 -0.0001 -0.0004 21.6730 -0.0002 -1.7505
# 5 2.8476 2.1780 -9.2666 -0.0002 16.9354 -0.0001
# 6 0.0000 0.0000 -0.0001 -1.7505 -0.0001 14.3725
#
#
#
# Elastic Compliance Matrix: (Units=1/GPa)
#
#
# Indices 1 2 3 4 5 6 
#
# 1 0.014067 -0.008734 -0.005023 0.000000 -0.003990 0.000000
# 2 -0.008734 0.021034 -0.002894 0.000000 -0.002820 0.000000
# 3 -0.005023 -0.002894 0.016256 0.000000 0.010112 0.000000
# 4 0.000000 0.000000 0.000000 0.046599 0.000001 0.005676
# 5 -0.003990 -0.002820 0.010112 0.000001 0.065615 0.000000
# 6 0.000000 0.000000 0.000000 0.005676 0.000000 0.070269
#
#
# Mechanical properties :
#
#
# Convention : Reuss Voigt Hill
#
# Bulk Modulus (GPa) = 55.38804 62.62870 59.00837
# Shear Modulus (GPa) = 18.30435 20.75524 19.52979
#
# Velocity S-wave (km/s) = 3.15871 3.36353 3.26273
# Velocity P-wave (km/s) = 6.59503 7.01587 6.80870
#
# Compressibility (1/GPa) = 0.01805444
#
# Stress axis : x y z
#
# Youngs Moduli (GPa) = 71.08873 47.54277 61.51515
#
# Poissons Ratio (x) = 0.41524 0.30897
# Poissons Ratio (y) = 0.62089 0.17806
# Poissons Ratio (z) = 0.35705 0.13761
#
# Static dielectric constant tensor:
#      x y z
#    x 1.678980 0.000000 0.017680 
#    y 0.000000 1.650630 0.000000 
#    z 0.017680 0.000000 1.716480 
# 
# From -- ./inp_files/138530.got.cif
#   From: 2010.05.17/outbox.cif.g08.bks.cpg/sg15_70_cif.got.tgz:138530.got - 2010.06.03 18:47:42.
