data_PCOD9264246
_publ_section_title
;
Structure prediction by ZEFSAII (Michael W. Deem and Ramdas Pophale) SiO2 
 PCOD9264246
Probable space group: C 2/C
;
_chemical_formula_sum "Si O2"
_cell_formula_units_Z 52
_cell_length_a 11.850588
_cell_length_b 15.317747
_cell_length_c 18.841096
_cell_angle_alpha 90.000000
_cell_angle_beta 134.565624
_cell_angle_gamma 90.000000
_cell_volume 2436.652701
_symmetry_space_group_name_H-M "C 2/C"
_symmetry_group_IT_number 15
_symmetry_cell_setting 'monoclinic'
loop_
_space_group_symop_operation_xyz
x,y,z
-x,y,1/2-z
-x,-y,-z
x,-y,1/2+z
1/2+x,1/2+y,z
1/2-x,1/2+y,1/2-z
1/2-x,1/2-y,-z
1/2+x,1/2-y,1/2+z
loop_
_atom_site_type_symbol
_atom_site_label
_atom_site_fract_x
_atom_site_fract_y
_atom_site_fract_z
Si Si1 0.500000 0.273347 0.750000
Si Si2 0.630183 0.668129 0.453674
Si Si3 0.610767 0.236018 0.567444
Si Si4 0.215167 0.497604 0.020121
Si Si5 0.910378 0.173803 0.634846
Si Si6 0.095498 0.590412 0.103054
Si Si7 0.277484 0.259332 0.287094
O O1 0.458311 0.328594 0.661846
O O2 0.341306 0.220628 0.700838
O O3 0.750000 0.750000 0.500000
O O4 0.505003 0.685788 0.460985
O O5 0.720486 0.577332 0.497139
O O6 0.766509 0.242246 0.586742
O O7 0.502273 0.158113 0.490238
O O8 0.686003 0.210635 0.676707
O O9 0.330110 0.415025 0.073777
O O10 0.194894 0.532099 0.092526
O O11 0.039886 0.466663 0.920007
O O12 0.000000 0.162132 0.750000
O O13 0.045190 0.204170 0.639893
O O14 0.194662 0.654275 0.196883
#
# Coordination Sequence:
#
# PCOD9264246 Si02
#       7
#     4   8   8   8   8   8   8
#     4  10  20  32  58  84 102 146 190 220 268 334
#     4  11  19  34  56  86 112 144 184 230 270 327
#     4   9  19  33  54  83 110 148 180 223 270 331
#     4  10  20  31  55  88 110 139 181 241 273 309
#     4   9  20  35  54  85 116 138 181 233 276 319
#     4  10  19  36  55  86 114 135 187 234 275 316
#     4  10  19  35  57  83 109 148 178 228 276 333
#
# _framework density 21.340751000000001
#
# number of rings (size 3 to 8) (size 9 to 14) (size 15 to 20)
#    0.000    2.154    3.077    0.000    1.077    2.462 
#    0.000    0.000    0.000    8.308    4.000    0.000 
#    0.000    0.000    0.000    0.000    0.000    0.000 
#
# Total GULP energy -145022.531384 kJ/mol
# GULP energy per Si atom -5577.789669 kJ/mol
# Density = 2.129218 g / cm^3
# Si number density = 21.340751 Si / 1000 Ang^3
#
#
#
# Elastic Constant Matrix: (Units=GPa)
#
#
# Indices 1 2 3 4 5 6 
#
# 1 188.6741 63.7396 22.1928 0.0000 36.2945 0.0000
# 2 63.7396 92.4193 16.0067 0.0000 20.7971 0.0000
# 3 22.1928 16.0067 61.2801 0.0000 4.3026 0.0000
# 4 0.0000 0.0000 0.0000 17.5107 0.0000 4.7907
# 5 36.2945 20.7971 4.3026 0.0000 40.5976 0.0000
# 6 0.0000 0.0000 0.0000 4.7907 0.0000 44.2677
#
#
#
# Elastic Compliance Matrix: (Units=1/GPa)
#
#
# Indices 1 2 3 4 5 6 
#
# 1 0.007732 -0.004030 -0.001418 0.000000 -0.004698 0.000000
# 2 -0.004030 0.014818 -0.002147 0.000000 -0.003760 0.000000
# 3 -0.001418 -0.002147 0.017356 0.000000 0.000528 0.000000
# 4 0.000000 0.000000 0.000000 0.058850 0.000000 -0.006369
# 5 -0.004698 -0.003760 0.000528 0.000000 0.030702 0.000000
# 6 0.000000 0.000000 0.000000 -0.006369 0.000000 0.023279
#
#
# Mechanical properties :
#
#
# Convention : Reuss Voigt Hill
#
# Bulk Modulus (GPa) = 40.45944 60.69465 50.57704
# Shear Modulus (GPa) = 28.38251 36.50417 32.44334
#
# Velocity S-wave (km/s) = 3.65083 4.14035 3.90327
# Velocity P-wave (km/s) = 6.06394 7.16653 6.63817
#
# Compressibility (1/GPa) = 0.02471611
#
# Stress axis : x y z
#
# Youngs Moduli (GPa) = 129.33221 67.48710 57.61807
#
# Poissons Ratio (x) = 0.27197 0.08169
# Poissons Ratio (y) = 0.52120 0.12371
# Poissons Ratio (z) = 0.18335 0.14489
#
# Static dielectric constant tensor:
#      x y z
#    x 1.835550 0.000000 0.029000 
#    y 0.000000 1.753220 0.000000 
#    z 0.029000 0.000000 1.849450 
# 
# From -- ./inp_files/225456.got.cif
#   From: 2010.05.17/outbox.cif.g08.bks.cpg/sg15_113_cif.got.tgz:225456.got - 2010.06.03 18:47:42.
