data_PCOD9264955
_publ_section_title
;
Structure prediction by ZEFSAII (Michael W. Deem and Ramdas Pophale) SiO2 
 PCOD9264955
Probable space group: C 2/C
;
_chemical_formula_sum "Si O2"
_cell_formula_units_Z 60
_cell_length_a 18.018756
_cell_length_b 20.908658
_cell_length_c 8.748647
_cell_angle_alpha 90.000000
_cell_angle_beta 62.554230
_cell_angle_gamma 90.000000
_cell_volume 2925.058229
_symmetry_space_group_name_H-M "C 2/C"
_symmetry_group_IT_number 15
_symmetry_cell_setting 'monoclinic'
loop_
_space_group_symop_operation_xyz
x,y,z
-x,y,1/2-z
-x,-y,-z
x,-y,1/2+z
1/2+x,1/2+y,z
1/2-x,1/2+y,1/2-z
1/2-x,1/2-y,-z
1/2+x,1/2-y,1/2+z
loop_
_atom_site_type_symbol
_atom_site_label
_atom_site_fract_x
_atom_site_fract_y
_atom_site_fract_z
Si Si1 0.844845 0.725327 0.868542
Si Si2 0.646670 0.822263 0.816642
Si Si3 0.737467 0.314877 0.226535
Si Si4 0.289171 0.610630 0.058110
Si Si5 0.940857 0.816541 0.574077
Si Si6 0.599430 0.596726 0.000604
Si Si7 0.094223 0.987296 0.211486
Si Si8 0.000000 0.279957 0.750000
O O1 0.825225 0.687732 0.730735
O O2 0.906344 0.781121 0.757285
O O3 0.750000 0.750000 0.000000
O O4 0.878879 0.687418 0.981837
O O5 0.699934 0.756298 0.738925
O O6 0.707439 0.883150 0.740764
O O7 0.572497 0.820278 0.764552
O O8 0.676103 0.357138 0.390314
O O9 0.737562 0.348652 0.064599
O O10 0.364097 0.645390 0.074108
O O11 0.330852 0.547150 0.950913
O O12 0.967975 0.766389 0.416596
O O13 0.018449 0.861788 0.537669
O O14 0.600483 0.537766 0.878039
O O15 0.600729 0.561997 0.162958
O O16 0.000000 0.967568 0.250000
#
# Coordination Sequence:
#
# PCOD9264955 Si02
#       8
#     8   8   8   8   8   8   8   4
#     4  10  22  35  52  84 115 148 196 246 310 360
#     4  11  21  37  55  86 110 150 201 248 311 361
#     4  10  19  36  55  80 111 157 199 246 292 358
#     4  11  20  35  58  73 112 164 204 244 289 356
#     4  12  20  36  57  78 119 160 201 247 301 354
#     4  11  24  38  56  83 123 164 209 246 290 342
#     4  11  23  37  52  81 116 166 211 242 282 347
#     4  12  22  36  60  86 114 154 206 246 304 374
#
# _framework density 20.512412000000001
#
# number of rings (size 3 to 8) (size 9 to 14) (size 15 to 20)
#    0.000    1.067    6.667    2.400    0.000    3.733 
#    0.000    0.000    0.000    0.000    0.000    0.000 
#    0.000   17.067    0.267    0.133    0.000    0.400 
#
# Total GULP energy -167637.112913 kJ/mol
# GULP energy per Si atom -5587.903764 kJ/mol
# Density = 2.046573 g / cm^3
# Si number density = 20.512412 Si / 1000 Ang^3
#
#
#
# Elastic Constant Matrix: (Units=GPa)
#
#
# Indices 1 2 3 4 5 6 
#
# 1 103.2110 39.1055 21.5993 0.0000 7.9961 0.0000
# 2 39.1055 48.6453 33.0799 0.0000 0.4374 0.0000
# 3 21.5993 33.0799 90.5480 0.0000 2.5071 0.0000
# 4 0.0000 0.0000 0.0000 42.7415 0.0000 1.8234
# 5 7.9961 0.4374 2.5071 0.0000 25.1884 0.0000
# 6 0.0000 0.0000 0.0000 1.8234 0.0000 23.9266
#
#
#
# Elastic Compliance Matrix: (Units=1/GPa)
#
#
# Indices 1 2 3 4 5 6 
#
# 1 0.014497 -0.012436 0.001210 0.000000 -0.004506 0.000000
# 2 -0.012436 0.038027 -0.011047 0.000000 0.004387 0.000000
# 3 0.001210 -0.011047 0.014837 0.000000 -0.001669 0.000000
# 4 0.000000 0.000000 0.000000 0.023473 0.000000 -0.001789
# 5 -0.004506 0.004387 -0.001669 0.000000 0.041221 0.000000
# 6 0.000000 0.000000 0.000000 -0.001789 0.000000 0.041931
#
#
# Mechanical properties :
#
#
# Convention : Reuss Voigt Hill
#
# Bulk Modulus (GPa) = 43.83212 47.77485 45.80349
# Shear Modulus (GPa) = 22.11038 28.27927 25.19483
#
# Velocity S-wave (km/s) = 3.28670 3.71704 3.50847
# Velocity P-wave (km/s) = 5.98483 6.46243 6.22821
#
# Compressibility (1/GPa) = 0.02281432
#
# Stress axis : x y z
#
# Youngs Moduli (GPa) = 68.98132 26.29695 67.39720
#
# Poissons Ratio (x) = 0.32703 -0.08155
# Poissons Ratio (y) = 0.85785 0.74457
# Poissons Ratio (z) = -0.08347 0.29051
#
# Static dielectric constant tensor:
#      x y z
#    x 1.731830 0.000000 0.017330 
#    y 0.000000 1.739160 0.000000 
#    z 0.017330 0.000000 1.846260 
# 
# From -- ./inp_files/50644.got.cif
#   From: 2010.05.17/outbox.cif.g08.bks.cpg/sg15_26_cif.got.tgz:50644.got - 2010.06.03 18:47:42.
