data_PCOD9264809
_publ_section_title
;
Structure prediction by ZEFSAII (Michael W. Deem and Ramdas Pophale) SiO2 
 PCOD9264809
Probable space group: C 2/C
;
_chemical_formula_sum "Si O2"
_cell_formula_units_Z 56
_cell_length_a 19.185817
_cell_length_b 11.491445
_cell_length_c 10.487615
_cell_angle_alpha 90.000000
_cell_angle_beta 84.097606
_cell_angle_gamma 90.000000
_cell_volume 2299.975177
_symmetry_space_group_name_H-M "C 2/C"
_symmetry_group_IT_number 15
_symmetry_cell_setting 'monoclinic'
loop_
_space_group_symop_operation_xyz
x,y,z
-x,y,1/2-z
-x,-y,-z
x,-y,1/2+z
1/2+x,1/2+y,z
1/2-x,1/2+y,1/2-z
1/2-x,1/2-y,-z
1/2+x,1/2-y,1/2+z
loop_
_atom_site_type_symbol
_atom_site_label
_atom_site_fract_x
_atom_site_fract_y
_atom_site_fract_z
Si Si1 0.583096 0.588468 0.719067
Si Si2 0.022512 0.249751 0.112968
Si Si3 0.715388 0.287439 0.796869
Si Si4 0.222297 0.050184 0.829592
Si Si5 0.145398 0.884240 0.562181
Si Si6 0.885286 0.284086 0.965186
Si Si7 0.455580 0.005797 0.378177
O O1 0.500000 0.581656 0.750000
O O2 0.637985 0.546237 0.815757
O O3 0.607680 0.504996 0.599867
O O4 0.604431 0.715708 0.667573
O O5 0.082736 0.192393 0.016977
O O6 0.055755 0.371933 0.152229
O O7 0.000000 0.187595 0.250000
O O8 0.954075 0.262791 0.039736
O O9 0.749494 0.161765 0.753919
O O10 0.750142 0.418502 0.802777
O O11 0.663709 0.315687 0.688837
O O12 0.677873 0.261761 0.938138
O O13 0.217676 0.091071 0.976662
O O14 0.888520 0.419213 0.927252
O O15 0.500000 0.055537 0.250000
O O16 0.500000 0.000000 0.500000
#
# Coordination Sequence:
#
# PCOD9264809 Si02
#       7
#     8   8   8   8   8   8   8
#     4  11  24  40  68 102 133 167 215 287 351 408
#     4  10  19  35  63  99 136 169 216 281 342 407
#     4  11  25  46  67  96 134 183 235 282 332 416
#     4  11  26  47  67  97 138 179 236 279 344 410
#     4  11  22  41  68  99 129 173 229 283 341 408
#     4  11  21  40  64  97 138 175 222 275 348 409
#     4   9  20  36  59  93 141 179 224 275 338 417
#
# _framework density 24.348091
#
# number of rings (size 3 to 8) (size 9 to 14) (size 15 to 20)
#    0.000    1.429    2.857    2.143    2.000    4.000 
#    2.571    1.429    0.000    0.000    0.000    0.000 
#    0.000    0.000    0.000    0.000    0.000    0.000 
#
# Total GULP energy -156070.810244 kJ/mol
# GULP energy per Si atom -5573.957509 kJ/mol
# Density = 2.429267 g / cm^3
# Si number density = 24.348091 Si / 1000 Ang^3
#
#
#
# Elastic Constant Matrix: (Units=GPa)
#
#
# Indices 1 2 3 4 5 6 
#
# 1 67.5291 18.2526 1.0510 0.0000 -0.5231 0.0000
# 2 18.2526 155.8044 29.9332 0.0000 -31.0529 0.0000
# 3 1.0510 29.9332 88.1964 0.0000 -16.0758 0.0000
# 4 0.0000 0.0000 0.0000 35.1331 0.0000 -10.9567
# 5 -0.5231 -31.0529 -16.0758 0.0000 21.6555 0.0000
# 6 0.0000 0.0000 0.0000 -10.9567 0.0000 26.6667
#
#
#
# Elastic Compliance Matrix: (Units=1/GPa)
#
#
# Indices 1 2 3 4 5 6 
#
# 1 0.015441 -0.002434 0.000085 0.000000 -0.003054 0.000000
# 2 -0.002434 0.009421 -0.000829 0.000000 0.012835 0.000000
# 3 0.000085 -0.000829 0.013187 0.000000 0.008602 0.000000
# 4 0.000000 0.000000 0.000000 0.032646 0.000000 0.013414
# 5 -0.003054 0.012835 0.008602 0.000000 0.070894 0.000000
# 6 0.000000 0.000000 0.000000 0.013414 0.000000 0.043011
#
#
# Mechanical properties :
#
#
# Convention : Reuss Voigt Hill
#
# Bulk Modulus (GPa) = 31.55198 45.55594 38.55396
# Shear Modulus (GPa) = 24.81139 34.17726 29.49432
#
# Velocity S-wave (km/s) = 3.19569 3.75065 3.48424
# Velocity P-wave (km/s) = 5.15785 6.12433 5.66175
#
# Compressibility (1/GPa) = 0.03169374
#
# Stress axis : x y z
#
# Youngs Moduli (GPa) = 64.76117 106.14859 75.83440
#
# Poissons Ratio (x) = 0.25837 -0.00648
# Poissons Ratio (y) = 0.15763 0.06286
# Poissons Ratio (z) = -0.00553 0.08799
#
# Static dielectric constant tensor:
#      x y z
#    x 1.976260 0.000000 -0.001120 
#    y 0.000000 1.998290 0.000000 
#    z -0.001120 0.000000 2.035840 
# 
# From -- ./inp_files/117483.got.cif
#   From: 2010.05.17/outbox.cif.g08.bks.cpg/sg15_59_cif.got.tgz:117483.got - 2010.06.03 18:47:42.
