data_PCOD9264363
_publ_section_title
;
Structure prediction by ZEFSAII (Michael W. Deem and Ramdas Pophale) SiO2 
 PCOD9264363
Probable space group: C 2/C
;
_chemical_formula_sum "Si O2"
_cell_formula_units_Z 40
_cell_length_a 6.866057
_cell_length_b 15.723834
_cell_length_c 20.021385
_cell_angle_alpha 90.000000
_cell_angle_beta 64.902274
_cell_angle_gamma 90.000000
_cell_volume 1957.444675
_symmetry_space_group_name_H-M "C 2/C"
_symmetry_group_IT_number 15
_symmetry_cell_setting 'monoclinic'
loop_
_space_group_symop_operation_xyz
x,y,z
-x,y,1/2-z
-x,-y,-z
x,-y,1/2+z
1/2+x,1/2+y,z
1/2-x,1/2+y,1/2-z
1/2-x,1/2-y,-z
1/2+x,1/2-y,1/2+z
loop_
_atom_site_type_symbol
_atom_site_label
_atom_site_fract_x
_atom_site_fract_y
_atom_site_fract_z
Si Si1 0.981569 0.068089 0.420747
Si Si2 0.680358 0.704132 0.167452
Si Si3 0.196366 0.329752 0.054203
Si Si4 0.645078 0.955537 0.421062
Si Si5 0.016604 0.575403 0.168454
O O1 0.115240 0.021384 0.590991
O O2 0.235348 0.073710 0.388730
O O3 0.906238 0.136560 0.375302
O O4 0.860545 0.097272 0.505983
O O5 0.500000 0.710820 0.250000
O O6 0.715718 0.793739 0.125590
O O7 0.896014 0.662490 0.165861
O O8 0.955838 0.362739 0.072816
O O9 0.250000 0.250000 0.000000
O O10 0.500000 0.000000 0.500000
O O11 0.599848 0.002517 0.357639
O O12 0.000000 0.562421 0.250000
#
# Coordination Sequence:
#
# PCOD9264363 Si02
#       5
#     8   8   8   8   8
#     4   9  19  37  59  83 117 157 212 253 308 379
#     4  10  19  35  58  84 122 159 202 260 318 381
#     4   9  19  36  58  84 119 159 194 253 320 372
#     4   9  20  37  57  84 115 153 204 261 307 367
#     4  11  21  35  62  87 116 165 216 256 316 372
#
# _framework density 20.434805999999998
#
# number of rings (size 3 to 8) (size 9 to 14) (size 15 to 20)
#    0.000    2.400    2.000    1.200    0.000    4.800 
#    0.000    4.000    0.000    2.400    0.000    0.000 
#    0.000    0.000    0.000    0.000    0.000    0.000 
#
# Total GULP energy -111563.214064 kJ/mol
# GULP energy per Si atom -5578.160703 kJ/mol
# Density = 2.038830 g / cm^3
# Si number density = 20.434806 Si / 1000 Ang^3
#
#
#
# Elastic Constant Matrix: (Units=GPa)
#
#
# Indices 1 2 3 4 5 6 
#
# 1 151.1280 52.7629 44.2855 0.0000 -12.7863 0.0000
# 2 52.7629 85.0917 39.5887 0.0000 1.8563 0.0000
# 3 44.2855 39.5887 118.7633 0.0000 7.6363 0.0000
# 4 0.0000 0.0000 0.0000 30.0540 0.0000 9.1858
# 5 -12.7863 1.8563 7.6363 0.0000 34.6726 0.0000
# 6 0.0000 0.0000 0.0000 9.1858 0.0000 26.5674
#
#
#
# Elastic Compliance Matrix: (Units=1/GPa)
#
#
# Indices 1 2 3 4 5 6 
#
# 1 0.009284 -0.004868 -0.002106 0.000000 0.004148 0.000000
# 2 -0.004868 0.016464 -0.003551 0.000000 -0.001894 0.000000
# 3 -0.002106 -0.003551 0.010577 0.000000 -0.002916 0.000000
# 4 0.000000 0.000000 0.000000 0.037205 0.000000 -0.012864
# 5 0.004148 -0.001894 -0.002916 0.000000 0.031115 0.000000
# 6 0.000000 0.000000 0.000000 -0.012864 0.000000 0.042088
#
#
# Mechanical properties :
#
#
# Convention : Reuss Voigt Hill
#
# Bulk Modulus (GPa) = 65.46656 69.80635 67.63646
# Shear Modulus (GPa) = 28.92273 32.81519 30.86896
#
# Velocity S-wave (km/s) = 3.76622 4.01165 3.89087
# Velocity P-wave (km/s) = 7.14275 7.46274 7.30450
#
# Compressibility (1/GPa) = 0.01527497
#
# Stress axis : x y z
#
# Youngs Moduli (GPa) = 107.70644 60.73936 94.54700
#
# Poissons Ratio (x) = 0.29566 0.19914
# Poissons Ratio (y) = 0.52427 0.33575
# Poissons Ratio (z) = 0.22686 0.21570
#
# Static dielectric constant tensor:
#      x y z
#    x 1.734570 0.000000 0.008790 
#    y 0.000000 1.764990 0.000000 
#    z 0.008790 0.000000 1.740850 
# 
# From -- ./inp_files/184251.got.cif
#   From: 2010.05.17/outbox.cif.g08.bks.cpg/sg15_93_cif.got.tgz:184251.got - 2010.06.03 18:47:42.
