data_PCOD9264158
_publ_section_title
;
Structure prediction by ZEFSAII (Michael W. Deem and Ramdas Pophale) SiO2 
 PCOD9264158
Probable space group: C 2/C
;
_chemical_formula_sum "Si O2"
_cell_formula_units_Z 60
_cell_length_a 8.827627
_cell_length_b 11.795026
_cell_length_c 33.260535
_cell_angle_alpha 90.000000
_cell_angle_beta 65.724282
_cell_angle_gamma 90.000000
_cell_volume 3156.935798
_symmetry_space_group_name_H-M "C 2/C"
_symmetry_group_IT_number 15
_symmetry_cell_setting 'monoclinic'
loop_
_space_group_symop_operation_xyz
x,y,z
-x,y,1/2-z
-x,-y,-z
x,-y,1/2+z
1/2+x,1/2+y,z
1/2-x,1/2+y,1/2-z
1/2-x,1/2-y,-z
1/2+x,1/2-y,1/2+z
loop_
_atom_site_type_symbol
_atom_site_label
_atom_site_fract_x
_atom_site_fract_y
_atom_site_fract_z
Si Si1 0.932612 0.758818 0.635235
Si Si2 0.514789 0.978913 0.546005
Si Si3 0.691449 0.206486 0.674014
Si Si4 0.710882 0.800290 0.047537
Si Si5 0.500000 0.618576 0.250000
Si Si6 0.870506 0.988432 0.685743
Si Si7 0.799760 0.909059 0.387450
Si Si8 0.488394 0.261444 0.080234
O O1 0.794036 0.679582 0.630954
O O2 0.040208 0.697987 0.658564
O O3 0.072746 0.776372 0.585466
O O4 0.852833 0.872630 0.662025
O O5 0.564840 0.855074 0.555480
O O6 0.500000 0.000000 0.500000
O O7 0.631094 0.076327 0.551128
O O8 0.332236 0.998553 0.584239
O O9 0.627526 0.300036 0.712232
O O10 0.739008 0.086654 0.689304
O O11 0.854833 0.248533 0.631623
O O12 0.875319 0.807219 0.056368
O O13 0.750000 0.750000 0.000000
O O14 0.604650 0.545191 0.270575
O O15 0.047845 0.036393 0.652235
O O16 0.871105 0.844316 0.418552
#
# Coordination Sequence:
#
# PCOD9264158 Si02
#       8
#     8   8   8   8   4   8   8   8
#     4   9  20  37  58  80 113 152 192 228 282 332
#     4  11  21  35  57  79 113 150 187 236 290 319
#     4   9  20  39  61  83 117 149 186 233 280 350
#     4  10  19  35  56  81 112 148 190 241 278 330
#     4  10  20  36  60  92 114 142 182 236 284 338
#     4  10  21  39  62  83 117 151 186 227 292 338
#     4  10  22  37  58  83 110 151 194 233 273 344
#     4  10  21  39  57  80 114 151 193 231 286 336
#
# _framework density 19.005769999999998
#
# number of rings (size 3 to 8) (size 9 to 14) (size 15 to 20)
#    0.000    2.133    1.333    2.400    0.000    6.933 
#    0.000    4.667    0.000    0.000    0.000    0.000 
#    0.000    0.000    0.000    0.000    0.000    0.000 
#
# Total GULP energy -167412.438390 kJ/mol
# GULP energy per Si atom -5580.414613 kJ/mol
# Density = 1.896251 g / cm^3
# Si number density = 19.005770 Si / 1000 Ang^3
#
#
#
# Elastic Constant Matrix: (Units=GPa)
#
#
# Indices 1 2 3 4 5 6 
#
# 1 33.2559 6.9645 8.1605 0.0000 4.0628 0.0000
# 2 6.9645 51.8482 16.7734 0.0000 11.2397 0.0000
# 3 8.1605 16.7734 77.2122 0.0000 27.0685 0.0000
# 4 0.0000 0.0000 0.0000 30.2761 0.0000 5.0796
# 5 4.0628 11.2397 27.0685 0.0000 16.2880 0.0000
# 6 0.0000 0.0000 0.0000 5.0796 0.0000 31.8831
#
#
#
# Elastic Compliance Matrix: (Units=1/GPa)
#
#
# Indices 1 2 3 4 5 6 
#
# 1 0.031475 -0.003037 -0.001555 0.000000 -0.003170 0.000000
# 2 -0.003037 0.023031 0.001494 0.000000 -0.017619 0.000000
# 3 -0.001555 0.001494 0.031185 0.000000 -0.052470 0.000000
# 4 0.000000 0.000000 0.000000 0.033937 0.000000 -0.005407
# 5 -0.003170 -0.017619 -0.052470 0.000000 0.161542 0.000000
# 6 0.000000 0.000000 0.000000 -0.005407 0.000000 0.032226
#
#
# Mechanical properties :
#
#
# Convention : Reuss Voigt Hill
#
# Bulk Modulus (GPa) = 12.57945 25.12370 18.85157
# Shear Modulus (GPa) = 14.44709 24.38395 19.41552
#
# Velocity S-wave (km/s) = 2.76006 3.58575 3.19965
# Velocity P-wave (km/s) = 4.09760 5.51282 4.85703
#
# Compressibility (1/GPa) = 0.07949476
#
# Stress axis : x y z
#
# Youngs Moduli (GPa) = 31.77129 43.41977 32.06619
#
# Poissons Ratio (x) = 0.13189 0.04987
# Poissons Ratio (y) = 0.09651 -0.04792
# Poissons Ratio (z) = 0.04941 -0.06489
#
# Static dielectric constant tensor:
#      x y z
#    x 1.638980 0.000000 -0.005900 
#    y 0.000000 1.609860 0.000000 
#    z -0.005900 0.000000 1.669670 
# 
# From -- ./inp_files/307117.got.cif
#   From: 2010.05.17/outbox.cif.g08.bks.cpg/sg15_154_cif.got.tgz:307117.got - 2010.06.03 18:47:42.
