data_PCOD9264984
_publ_section_title
;
Structure prediction by ZEFSAII (Michael W. Deem and Ramdas Pophale) SiO2 
 PCOD9264984
Probable space group: C 2/C
;
_chemical_formula_sum "Si O2"
_cell_formula_units_Z 48
_cell_length_a 7.362639
_cell_length_b 14.766579
_cell_length_c 17.941617
_cell_angle_alpha 90.000000
_cell_angle_beta 65.751148
_cell_angle_gamma 90.000000
_cell_volume 1778.526785
_symmetry_space_group_name_H-M "C 2/C"
_symmetry_group_IT_number 15
_symmetry_cell_setting 'monoclinic'
loop_
_space_group_symop_operation_xyz
x,y,z
-x,y,1/2-z
-x,-y,-z
x,-y,1/2+z
1/2+x,1/2+y,z
1/2-x,1/2+y,1/2-z
1/2-x,1/2-y,-z
1/2+x,1/2-y,1/2+z
loop_
_atom_site_type_symbol
_atom_site_label
_atom_site_fract_x
_atom_site_fract_y
_atom_site_fract_z
Si Si1 0.875819 0.704734 0.368947
Si Si2 0.073669 0.378014 0.041674
Si Si3 0.050321 0.765282 0.824593
Si Si4 0.136362 0.129868 0.539809
Si Si5 0.064272 0.483534 0.821094
Si Si6 0.605634 0.455694 0.625443
O O1 0.775414 0.751570 0.314566
O O2 0.964174 0.782856 0.405927
O O3 0.689710 0.658251 0.446742
O O4 0.022939 0.623227 0.330468
O O5 0.082981 0.289949 0.092861
O O6 0.858510 0.375455 0.038086
O O7 0.072439 0.463062 0.097591
O O8 0.231915 0.401823 0.952310
O O9 0.036820 0.874381 0.828197
O O10 0.000000 0.735066 0.750000
O O11 0.033850 0.037843 0.584604
O O12 0.282617 0.496284 0.820464
O O13 0.000000 0.514286 0.750000
#
# Coordination Sequence:
#
# PCOD9264984 Si02
#       6
#     8   8   8   8   8   8
#     4  10  19  36  56  79 109 143 180 219 280 322
#     4  10  19  38  59  81 106 146 192 225 263 325
#     4  11  24  37  52  81 120 147 171 226 291 324
#     4   9  18  35  60  80 105 141 183 229 265 319
#     4  11  20  35  60  84 109 143 189 231 266 318
#     4  11  20  38  58  83 108 144 190 227 261 328
#
# _framework density 26.988630000000001
#
# number of rings (size 3 to 8) (size 9 to 14) (size 15 to 20)
#    0.000    1.667    3.333    3.000    0.000    0.667 
#    0.000    0.833    0.000    0.000    0.000    0.000 
#    0.000    0.000    0.000    0.000    0.000    0.000 
#
# Total GULP energy -134356.912702 kJ/mol
# GULP energy per Si atom -5598.204696 kJ/mol
# Density = 2.692720 g / cm^3
# Si number density = 26.988630 Si / 1000 Ang^3
#
#
#
# Elastic Constant Matrix: (Units=GPa)
#
#
# Indices 1 2 3 4 5 6 
#
# 1 71.7709 0.3702 31.5819 0.0000 17.2252 0.0000
# 2 0.3702 142.5525 13.9103 0.0000 -1.3214 0.0000
# 3 31.5819 13.9103 139.0150 0.0000 35.7916 0.0000
# 4 0.0000 0.0000 0.0000 33.1575 0.0000 -7.4038
# 5 17.2252 -1.3214 35.7916 0.0000 38.6202 0.0000
# 6 0.0000 0.0000 0.0000 -7.4038 0.0000 22.0030
#
#
#
# Elastic Compliance Matrix: (Units=1/GPa)
#
#
# Indices 1 2 3 4 5 6 
#
# 1 0.016189 0.000147 -0.002410 0.000000 -0.004982 0.000000
# 2 0.000147 0.007127 -0.001041 0.000000 0.001143 0.000000
# 3 -0.002410 -0.001041 0.009952 0.000000 -0.008184 0.000000
# 4 0.000000 0.000000 0.000000 0.032609 0.000000 0.010973
# 5 -0.004982 0.001143 -0.008184 0.000000 0.035739 0.000000
# 6 0.000000 0.000000 0.000000 0.010973 0.000000 0.049141
#
#
# Mechanical properties :
#
#
# Convention : Reuss Voigt Hill
#
# Bulk Modulus (GPa) = 37.50895 49.45148 43.48021
# Shear Modulus (GPa) = 30.07517 39.25454 34.66486
#
# Velocity S-wave (km/s) = 3.34183 3.81791 3.58777
# Velocity P-wave (km/s) = 5.36830 6.14801 5.77134
#
# Compressibility (1/GPa) = 0.02666030
#
# Stress axis : x y z
#
# Youngs Moduli (GPa) = 61.77204 140.31682 100.48044
#
# Poissons Ratio (x) = -0.02062 0.24213
# Poissons Ratio (y) = -0.00908 0.10457
# Poissons Ratio (z) = 0.14886 0.14603
#
# Static dielectric constant tensor:
#      x y z
#    x 2.092420 0.000000 -0.013910 
#    y 0.000000 2.095630 0.000000 
#    z -0.013910 0.000000 2.168560 
# 
# From -- ./inp_files/189221.got.cif
#   From: 2010.05.17/outbox.cif.g08.bks.cpg/sg15_95_cif.got.tgz:189221.got - 2010.06.03 18:47:42.
