data_PCOD9264895
_publ_section_title
;
Structure prediction by ZEFSAII (Michael W. Deem and Ramdas Pophale) SiO2 
 PCOD9264895
Probable space group: C 2/C
;
_chemical_formula_sum "Si O2"
_cell_formula_units_Z 64
_cell_length_a 17.949433
_cell_length_b 23.737414
_cell_length_c 9.614214
_cell_angle_alpha 90.000000
_cell_angle_beta 76.259786
_cell_angle_gamma 90.000000
_cell_volume 3979.131268
_symmetry_space_group_name_H-M "C 2/C"
_symmetry_group_IT_number 15
_symmetry_cell_setting 'monoclinic'
loop_
_space_group_symop_operation_xyz
x,y,z
-x,y,1/2-z
-x,-y,-z
x,-y,1/2+z
1/2+x,1/2+y,z
1/2-x,1/2+y,1/2-z
1/2-x,1/2-y,-z
1/2+x,1/2-y,1/2+z
loop_
_atom_site_type_symbol
_atom_site_label
_atom_site_fract_x
_atom_site_fract_y
_atom_site_fract_z
Si Si1 0.424406 0.767220 0.867307
Si Si2 0.056596 0.065199 0.094598
Si Si3 0.946745 0.063151 0.908176
Si Si4 0.823875 0.156190 0.365134
Si Si5 0.773335 0.311981 0.820609
Si Si6 0.333899 0.342290 0.379159
Si Si7 0.580014 0.239322 0.794858
Si Si8 0.740932 0.193744 0.679762
O O1 0.500000 0.782575 0.750000
O O2 0.357670 0.809873 0.846959
O O3 0.399182 0.704754 0.826853
O O4 0.430599 0.764560 0.032860
O O5 0.128999 0.102970 0.100483
O O6 0.000000 0.062365 0.250000
O O7 0.075966 0.000908 0.042784
O O8 0.002516 0.089976 0.998492
O O9 0.873758 0.101185 0.911640
O O10 0.000000 0.060270 0.750000
O O11 0.759629 0.143620 0.276279
O O12 0.884999 0.199865 0.268516
O O13 0.780431 0.185286 0.513882
O O14 0.763303 0.253421 0.741078
O O15 0.717366 0.315401 0.976533
O O16 0.280420 0.349842 0.268570
O O17 0.500000 0.230458 0.750000
O O18 0.648550 0.196177 0.720731
#
# Coordination Sequence:
#
# PCOD9264895 Si02
#       8
#     8   8   8   8   8   8   8   8
#     4  11  22  32  49  73 102 131 172 206 244 305
#     4  10  21  36  48  75 107 129 170 218 247 284
#     4  10  21  34  52  73 102 135 169 213 251 285
#     4  11  21  32  53  69  99 140 170 201 252 301
#     4  10  19  36  48  68  99 133 167 212 246 291
#     4  11  18  34  52  67  97 139 173 200 249 297
#     4  11  22  32  47  74 102 133 166 208 250 296
#     4  10  20  34  47  69 100 130 171 209 244 300
#
# _framework density 16.083912999999999
#
# number of rings (size 3 to 8) (size 9 to 14) (size 15 to 20)
#    0.000    1.500    3.750    4.500    7.000    0.000 
#    0.000    0.000    0.000    0.000    0.000    0.000 
#    0.000    6.000    0.000    0.000    0.000    0.000 
#
# Total GULP energy -178328.743057 kJ/mol
# GULP energy per Si atom -5572.773221 kJ/mol
# Density = 1.604731 g / cm^3
# Si number density = 16.083913 Si / 1000 Ang^3
#
#
#
# Elastic Constant Matrix: (Units=GPa)
#
#
# Indices 1 2 3 4 5 6 
#
# 1 139.7434 38.9713 48.9007 0.0000 15.1803 0.0000
# 2 38.9713 44.6702 6.2370 0.0000 4.0442 0.0000
# 3 48.9007 6.2370 102.3902 0.0000 8.0724 0.0000
# 4 0.0000 0.0000 0.0000 16.2404 0.0000 2.3173
# 5 15.1803 4.0442 8.0724 0.0000 33.8830 0.0000
# 6 0.0000 0.0000 0.0000 2.3173 0.0000 31.6434
#
#
#
# Elastic Compliance Matrix: (Units=1/GPa)
#
#
# Indices 1 2 3 4 5 6 
#
# 1 0.011768 -0.009321 -0.004815 0.000000 -0.003012 0.000000
# 2 -0.009321 0.030157 0.002619 0.000000 -0.000047 0.000000
# 3 -0.004815 0.002619 0.011986 0.000000 -0.001011 0.000000
# 4 0.000000 0.000000 0.000000 0.062225 0.000000 -0.004557
# 5 -0.003012 -0.000047 -0.001011 0.000000 0.031109 0.000000
# 6 0.000000 0.000000 0.000000 -0.004557 0.000000 0.031936
#
#
# Mechanical properties :
#
#
# Convention : Reuss Voigt Hill
#
# Bulk Modulus (GPa) = 32.38788 52.78020 42.58404
# Shear Modulus (GPa) = 23.52850 29.19970 26.36410
#
# Velocity S-wave (km/s) = 3.82888 4.26544 4.05305
# Velocity P-wave (km/s) = 6.30299 7.55946 6.95964
#
# Compressibility (1/GPa) = 0.03087575
#
# Stress axis : x y z
#
# Youngs Moduli (GPa) = 84.97937 33.15971 83.42878
#
# Poissons Ratio (x) = 0.30909 0.40169
# Poissons Ratio (y) = 0.79212 -0.21846
# Poissons Ratio (z) = 0.40916 -0.08683
#
# Static dielectric constant tensor:
#      x y z
#    x 1.570800 0.000000 0.030970 
#    y 0.000000 1.557310 0.000000 
#    z 0.030970 0.000000 1.565190 
# 
# From -- ./inp_files/51238.got.cif
#   From: 2010.05.17/outbox.cif.g08.bks.cpg/sg15_26_cif.got.tgz:51238.got - 2010.06.03 18:47:42.
