data_PCOD9264795
_publ_section_title
;
Structure prediction by ZEFSAII (Michael W. Deem and Ramdas Pophale) SiO2 
 PCOD9264795
Probable space group: C 2/C
;
_chemical_formula_sum "Si O2"
_cell_formula_units_Z 48
_cell_length_a 29.030534
_cell_length_b 7.185785
_cell_length_c 22.946238
_cell_angle_alpha 90.000000
_cell_angle_beta 26.986953
_cell_angle_gamma 90.000000
_cell_volume 2172.167722
_symmetry_space_group_name_H-M "C 2/C"
_symmetry_group_IT_number 15
_symmetry_cell_setting 'monoclinic'
loop_
_space_group_symop_operation_xyz
x,y,z
-x,y,1/2-z
-x,-y,-z
x,-y,1/2+z
1/2+x,1/2+y,z
1/2-x,1/2+y,1/2-z
1/2-x,1/2-y,-z
1/2+x,1/2-y,1/2+z
loop_
_atom_site_type_symbol
_atom_site_label
_atom_site_fract_x
_atom_site_fract_y
_atom_site_fract_z
Si Si1 0.658797 0.787845 0.287089
Si Si2 0.936288 0.176657 0.399373
Si Si3 0.250570 0.685908 0.195157
Si Si4 0.950468 0.160518 0.517176
Si Si5 0.837889 0.906054 0.898326
Si Si6 0.280451 0.996729 0.070683
O O1 0.675604 0.706358 0.332882
O O2 0.539805 0.813216 0.410854
O O3 0.706295 0.639323 0.189154
O O4 0.718148 0.979831 0.214581
O O5 0.926703 0.113801 0.476892
O O6 0.873916 0.050206 0.423335
O O7 0.884313 0.381495 0.449271
O O8 0.055715 0.167556 0.248911
O O9 0.146683 0.768326 0.339505
O O10 0.290622 0.815850 0.098733
O O11 0.000000 0.000000 0.500000
O O12 0.781425 0.048525 0.918770
O O13 0.750000 0.750000 0.000000
#
# Coordination Sequence:
#
# PCOD9264795 Si02
#       6
#     8   8   8   8   8   8
#     4  12  22  36  59  89 126 169 201 253 310 373
#     4  10  19  35  63  93 121 166 213 254 319 377
#     4  12  23  39  57  91 131 164 207 255 316 380
#     4  12  21  36  60  93 126 162 205 253 314 383
#     4   9  19  36  63  94 115 163 217 261 312 380
#     4  11  21  39  61  89 126 162 209 259 312 376
#
# _framework density 22.097740999999999
#
# number of rings (size 3 to 8) (size 9 to 14) (size 15 to 20)
#    0.000    1.000    6.667    0.500    0.000    0.000 
#    0.000    0.000    0.000    9.000    8.667    0.000 
#    0.000    0.000    0.000    0.000    0.000    0.000 
#
# Total GULP energy -134026.565906 kJ/mol
# GULP energy per Si atom -5584.440246 kJ/mol
# Density = 2.204745 g / cm^3
# Si number density = 22.097741 Si / 1000 Ang^3
#
#
#
# Elastic Constant Matrix: (Units=GPa)
#
#
# Indices 1 2 3 4 5 6 
#
# 1 170.4919 35.9072 29.2097 0.0034 -6.7631 -0.0027
# 2 35.9072 59.3210 0.7813 -0.0157 14.3322 0.0084
# 3 29.2097 0.7813 96.4721 -0.0253 -15.8112 0.0094
# 4 0.0034 -0.0157 -0.0253 20.4813 0.0113 2.3822
# 5 -6.7631 14.3322 -15.8112 0.0113 34.1178 -0.0048
# 6 -0.0027 0.0084 0.0094 2.3822 -0.0048 20.8529
#
#
#
# Elastic Compliance Matrix: (Units=1/GPa)
#
#
# Indices 1 2 3 4 5 6 
#
# 1 0.007346 -0.005100 -0.001724 -0.000009 0.002800 0.000005
# 2 -0.005100 0.022523 -0.000384 0.000025 -0.010650 -0.000015
# 3 -0.001724 -0.000384 0.011754 0.000012 0.005267 -0.000006
# 4 -0.000009 0.000025 0.000012 0.049483 -0.000024 -0.005653
# 5 0.002800 -0.010650 0.005267 -0.000024 0.036780 0.000014
# 6 0.000005 -0.000015 -0.000006 -0.005653 0.000014 0.048601
#
#
# Mechanical properties :
#
#
# Convention : Reuss Voigt Hill
#
# Bulk Modulus (GPa) = 36.75545 50.89793 43.82669
# Shear Modulus (GPa) = 25.00366 32.44952 28.72659
#
# Velocity S-wave (km/s) = 3.36743 3.83620 3.60943
# Velocity P-wave (km/s) = 5.63815 6.53491 6.10302
#
# Compressibility (1/GPa) = 0.02720685
#
# Stress axis : x y z
#
# Youngs Moduli (GPa) = 136.12889 44.39943 85.07767
#
# Poissons Ratio (x) = 0.22645 0.14668
# Poissons Ratio (y) = 0.69429 0.03264
# Poissons Ratio (z) = 0.23469 0.01703
#
# Static dielectric constant tensor:
#      x y z
#    x 1.892380 -0.000010 -0.017650 
#    y -0.000010 1.822100 0.000010 
#    z -0.017650 0.000010 1.879450 
# 
# From -- ./inp_files/284153.got.cif
#   From: 2010.05.17/outbox.cif.g08.bks.cpg/sg15_143_cif.got.tgz:284153.got - 2010.06.03 18:47:42.
