data_PCOD9264494
_publ_section_title
;
Structure prediction by ZEFSAII (Michael W. Deem and Ramdas Pophale) SiO2 
 PCOD9264494
Probable space group: C 2/C
;
_chemical_formula_sum "Si O2"
_cell_formula_units_Z 64
_cell_length_a 9.327698
_cell_length_b 22.774620
_cell_length_c 14.449484
_cell_angle_alpha 90.000000
_cell_angle_beta 88.661315
_cell_angle_gamma 90.000000
_cell_volume 3068.735119
_symmetry_space_group_name_H-M "C 2/C"
_symmetry_group_IT_number 15
_symmetry_cell_setting 'monoclinic'
loop_
_space_group_symop_operation_xyz
x,y,z
-x,y,1/2-z
-x,-y,-z
x,-y,1/2+z
1/2+x,1/2+y,z
1/2-x,1/2+y,1/2-z
1/2-x,1/2-y,-z
1/2+x,1/2-y,1/2+z
loop_
_atom_site_type_symbol
_atom_site_label
_atom_site_fract_x
_atom_site_fract_y
_atom_site_fract_z
Si Si1 0.872917 0.164760 0.859694
Si Si2 0.874907 0.965692 0.392342
Si Si3 0.166614 0.505649 0.734999
Si Si4 0.155939 0.364435 0.201143
Si Si5 0.122744 0.057241 0.394146
Si Si6 0.857408 0.188129 0.069240
Si Si7 0.046638 0.709970 0.150425
Si Si8 0.895739 0.283009 0.471302
O O1 0.934816 0.098931 0.864203
O O2 0.762285 0.162352 0.776765
O O3 0.980053 0.219249 0.848487
O O4 0.807486 0.176895 0.963131
O O5 0.737953 0.980656 0.332882
O O6 0.838844 0.961377 0.501270
O O7 0.991036 0.015391 0.370946
O O8 0.191411 0.567496 0.681329
O O9 0.249145 0.455664 0.678005
O O10 0.000000 0.493439 0.750000
O O11 0.144101 0.327529 0.108760
O O12 0.000000 0.365194 0.250000
O O13 0.083834 0.125718 0.396838
O O14 0.716294 0.203643 0.129617
O O15 0.980761 0.237315 0.064878
O O16 0.000000 0.685733 0.250000
O O17 0.960749 0.687143 0.062867
O O18 0.750000 0.250000 0.500000
#
# Coordination Sequence:
#
# PCOD9264494 Si02
#       8
#     8   8   8   8   8   8   8   8
#     4   9  18  36  62  84 111 152 202 250 289 338
#     4   9  20  38  62  88 112 152 205 250 294 346
#     4  10  22  38  59  89 119 154 200 249 301 353
#     4  10  19  35  59  87 118 152 198 254 299 341
#     4  10  21  40  63  87 119 159 201 246 297 357
#     4  10  22  41  61  85 122 163 195 237 302 368
#     4  11  22  38  59  87 122 163 202 240 297 362
#     4  11  23  38  60  91 122 155 204 255 300 355
#
# _framework density 20.855498999999998
#
# number of rings (size 3 to 8) (size 9 to 14) (size 15 to 20)
#    0.000    2.000    0.000    4.125    0.000    8.000 
#    0.000    8.750    0.000    0.000    0.000    0.000 
#    0.000    0.000    0.000    0.000    0.000    0.000 
#
# Total GULP energy -178758.531145 kJ/mol
# GULP energy per Si atom -5586.204098 kJ/mol
# Density = 2.080803 g / cm^3
# Si number density = 20.855499 Si / 1000 Ang^3
#
#
#
# Elastic Constant Matrix: (Units=GPa)
#
#
# Indices 1 2 3 4 5 6 
#
# 1 74.8739 4.0475 17.3803 0.0000 1.6018 0.0000
# 2 4.0475 54.1261 19.1637 0.0000 13.3848 0.0000
# 3 17.3803 19.1637 78.2195 0.0000 5.0351 0.0000
# 4 0.0000 0.0000 0.0000 26.1417 0.0000 2.3297
# 5 1.6018 13.3848 5.0351 0.0000 35.0360 0.0000
# 6 0.0000 0.0000 0.0000 2.3297 0.0000 22.6323
#
#
#
# Elastic Compliance Matrix: (Units=1/GPa)
#
#
# Indices 1 2 3 4 5 6 
#
# 1 0.014084 0.000118 -0.003143 0.000000 -0.000237 0.000000
# 2 0.000118 0.022136 -0.004951 0.000000 -0.007751 0.000000
# 3 -0.003143 -0.004951 0.014701 0.000000 -0.000078 0.000000
# 4 0.000000 0.000000 0.000000 0.038607 0.000000 -0.003974
# 5 -0.000237 -0.007751 -0.000078 0.000000 0.031525 0.000000
# 6 0.000000 0.000000 0.000000 -0.003974 0.000000 0.044594
#
#
# Mechanical properties :
#
#
# Convention : Reuss Voigt Hill
#
# Bulk Modulus (GPa) = 28.59598 32.04472 30.32035
# Shear Modulus (GPa) = 25.87263 27.87055 26.87159
#
# Velocity S-wave (km/s) = 3.52599 3.65960 3.59341
# Velocity P-wave (km/s) = 5.50618 5.76675 5.63797
#
# Compressibility (1/GPa) = 0.03496994
#
# Stress axis : x y z
#
# Youngs Moduli (GPa) = 71.00207 45.17532 68.02318
#
# Poissons Ratio (x) = -0.00535 0.21381
# Poissons Ratio (y) = -0.00841 0.33676
# Poissons Ratio (z) = 0.22317 0.22365
#
# Static dielectric constant tensor:
#      x y z
#    x 1.737570 0.000000 -0.004600 
#    y 0.000000 1.792230 0.000000 
#    z -0.004600 0.000000 1.763510 
# 
# From -- ./inp_files/137867.got.cif
#   From: 2010.05.17/outbox.cif.g08.bks.cpg/sg15_69_cif.got.tgz:137867.got - 2010.06.03 18:47:42.
