data_PCOD9264841
_publ_section_title
;
Structure prediction by ZEFSAII (Michael W. Deem and Ramdas Pophale) SiO2 
 PCOD9264841
Probable space group: C 2/C
;
_chemical_formula_sum "Si O2"
_cell_formula_units_Z 56
_cell_length_a 13.854264
_cell_length_b 11.950290
_cell_length_c 27.038780
_cell_angle_alpha 90.000000
_cell_angle_beta 150.580879
_cell_angle_gamma 90.000000
_cell_volume 2198.884743
_symmetry_space_group_name_H-M "C 2/C"
_symmetry_group_IT_number 15
_symmetry_cell_setting 'monoclinic'
loop_
_space_group_symop_operation_xyz
x,y,z
-x,y,1/2-z
-x,-y,-z
x,-y,1/2+z
1/2+x,1/2+y,z
1/2-x,1/2+y,1/2-z
1/2-x,1/2-y,-z
1/2+x,1/2-y,1/2+z
loop_
_atom_site_type_symbol
_atom_site_label
_atom_site_fract_x
_atom_site_fract_y
_atom_site_fract_z
Si Si1 0.743954 0.965078 0.928343
Si Si2 0.162125 0.711555 0.723794
Si Si3 0.895189 0.397656 0.840026
Si Si4 0.892406 0.277066 0.490655
Si Si5 0.546731 0.440994 0.376803
Si Si6 0.500000 0.562867 0.750000
Si Si7 0.585118 0.120675 0.594557
Si Si8 0.500000 0.115305 0.750000
O O1 0.532619 0.933888 0.857267
O O2 0.838235 0.848551 0.952718
O O3 0.683061 0.044512 0.855727
O O4 0.869411 0.993315 0.034746
O O5 0.201235 0.843507 0.732125
O O6 0.331246 0.613909 0.788930
O O7 0.018757 0.681123 0.614069
O O8 0.074084 0.687706 0.737406
O O9 0.916141 0.490912 0.891396
O O10 0.963859 0.284427 0.898495
O O11 0.705619 0.344064 0.431144
O O12 0.006725 0.335530 0.496427
O O13 0.541072 0.501522 0.319817
O O14 0.313876 0.640282 0.680557
#
# Coordination Sequence:
#
# PCOD9264841 Si02
#       8
#     8   8   8   8   8   4   8   4
#     4  11  21  38  63  94 119 163 210 261 300 367
#     4  11  22  40  58  87 125 165 200 255 309 378
#     4  11  20  39  62  88 126 158 199 257 314 364
#     4  10  19  35  64  97 115 152 207 264 302 356
#     4   9  17  36  61  89 121 151 205 254 310 348
#     4   8  18  32  58  90 118 156 198 252 298 372
#     4  10  21  34  60  94 120 155 205 255 310 365
#     4  12  28  38  58  90 130 168 208 248 320 372
#
# _framework density 25.467455000000001
#
# number of rings (size 3 to 8) (size 9 to 14) (size 15 to 20)
#    0.000    1.714    4.286    1.286    2.000    1.714 
#    0.000    0.000    0.000    0.857    0.000    0.000 
#    0.000    0.000    0.000    0.000    0.000    0.000 
#
# Total GULP energy -155916.393379 kJ/mol
# GULP energy per Si atom -5568.442621 kJ/mol
# Density = 2.540949 g / cm^3
# Si number density = 25.467455 Si / 1000 Ang^3
#
#
#
# Elastic Constant Matrix: (Units=GPa)
#
#
# Indices 1 2 3 4 5 6 
#
# 1 121.6665 22.1270 16.9642 0.0000 -42.5124 0.0000
# 2 22.1270 56.7856 2.9320 0.0001 -17.2181 0.0000
# 3 16.9642 2.9320 56.1629 0.0008 -36.5831 -0.0001
# 4 0.0000 0.0001 0.0008 4.7304 0.0001 12.0383
# 5 -42.5124 -17.2181 -36.5831 0.0001 52.4290 -0.0001
# 6 0.0000 0.0000 -0.0001 12.0383 -0.0001 15.0867
#
#
#
# Elastic Compliance Matrix: (Units=1/GPa)
#
#
# Indices 1 2 3 4 5 6 
#
# 1 0.012265 -0.001114 0.004754 0.000001 0.012896 -0.000001
# 2 -0.001114 0.020746 0.005688 0.000001 0.009879 -0.000001
# 3 0.004754 0.005688 0.036298 0.000008 0.031050 -0.000006
# 4 0.000001 0.000001 0.000008 -0.205104 0.000008 0.163662
# 5 0.012896 0.009879 0.031050 0.000008 0.054440 -0.000006
# 6 -0.000001 -0.000001 -0.000006 0.163662 -0.000006 -0.064309
#
#
# Mechanical properties :
#
#
# Convention : Reuss Voigt Hill
#
# Bulk Modulus (GPa) = 11.36827 35.40683 23.38755
# Shear Modulus (GPa) = -37.03753 27.28867 -4.87443
#
# Velocity S-wave (km/s) = -3.81768 3.27695 -1.38497
# Velocity P-wave (km/s) = 3.86773 5.31515 2.57793
#
# Compressibility (1/GPa) = 0.08796416
#
# Stress axis : x y z
#
# Youngs Moduli (GPa) = 81.53111 48.20229 27.55003
#
# Poissons Ratio (x) = 0.05371 -0.13097
# Poissons Ratio (y) = 0.09085 -0.15671
# Poissons Ratio (z) = -0.38759 -0.27418
#
# Static dielectric constant tensor:
#      x y z
#    x 2.027790 0.000000 0.064340 
#    y 0.000000 2.155470 0.000000 
#    z 0.064340 0.000000 2.358320 
# 
# From -- ./inp_files/204148.got.cif
#   From: 2010.05.17/outbox.cif.g08.bks.cpg/sg15_103_cif.got.tgz:204148.got - 2010.06.03 18:47:42.
