data_PCOD9264579
_publ_section_title
;
Structure prediction by ZEFSAII (Michael W. Deem and Ramdas Pophale) SiO2 
 PCOD9264579
Probable space group: C 2/C
;
_chemical_formula_sum "Si O2"
_cell_formula_units_Z 56
_cell_length_a 20.313499
_cell_length_b 7.060838
_cell_length_c 16.051047
_cell_angle_alpha 90.000000
_cell_angle_beta 59.264298
_cell_angle_gamma 90.000000
_cell_volume 1978.825050
_symmetry_space_group_name_H-M "C 2/C"
_symmetry_group_IT_number 15
_symmetry_cell_setting 'monoclinic'
loop_
_space_group_symop_operation_xyz
x,y,z
-x,y,1/2-z
-x,-y,-z
x,-y,1/2+z
1/2+x,1/2+y,z
1/2-x,1/2+y,1/2-z
1/2-x,1/2-y,-z
1/2+x,1/2-y,1/2+z
loop_
_atom_site_type_symbol
_atom_site_label
_atom_site_fract_x
_atom_site_fract_y
_atom_site_fract_z
Si Si1 0.144197 0.497674 0.853585
Si Si2 0.284099 0.053971 0.514162
Si Si3 0.080500 0.332355 0.662586
Si Si4 0.529574 0.269663 0.880198
Si Si5 0.713848 0.588998 0.824782
Si Si6 0.406146 0.462076 0.493640
Si Si7 0.645294 0.462860 0.700579
O O1 0.173610 0.581518 0.922692
O O2 0.058154 0.560940 0.886910
O O3 0.195595 0.583921 0.745406
O O4 0.164868 0.279368 0.847423
O O5 0.250000 0.250000 0.500000
O O6 0.355537 0.016235 0.406464
O O7 0.210627 0.926496 0.588527
O O8 0.115478 0.177173 0.703251
O O9 0.000000 0.403905 0.750000
O O10 0.069843 0.194286 0.588984
O O11 0.443019 0.340084 0.938774
O O12 0.571581 0.337446 0.768986
O O13 0.563205 0.395389 0.935903
O O14 0.691013 0.472577 0.757529
O O15 0.682946 0.498697 0.929043
#
# Coordination Sequence:
#
# PCOD9264579 Si02
#       7
#     8   8   8   8   8   8   8
#     4  11  20  37  61  85 118 158 196 259 298 354
#     4   9  19  32  55  83 115 146 200 240 285 350
#     4  11  19  34  60  84 117 162 199 238 297 354
#     4  10  19  35  60  87 118 149 203 247 302 349
#     4  10  22  35  60  88 119 152 206 250 305 348
#     4  10  20  35  57  89 115 153 200 251 294 365
#     4   9  19  35  57  89 116 153 196 251 290 361
#
# _framework density 28.299624000000001
#
# number of rings (size 3 to 8) (size 9 to 14) (size 15 to 20)
#    0.000    2.000    2.857    2.571    2.000    0.571 
#    0.000    0.000    9.429    6.000    0.000    0.000 
#    0.000    0.000    0.000    0.000    0.000    0.000 
#
# Total GULP energy -156534.950444 kJ/mol
# GULP energy per Si atom -5590.533944 kJ/mol
# Density = 2.823521 g / cm^3
# Si number density = 28.299624 Si / 1000 Ang^3
#
#
#
# Elastic Constant Matrix: (Units=GPa)
#
#
# Indices 1 2 3 4 5 6 
#
# 1 64.2480 12.1138 60.2140 0.0003 3.3264 -0.0014
# 2 12.1138 114.2321 36.1043 0.0008 -5.7323 -0.0023
# 3 60.2140 36.1043 228.7449 0.0001 -23.9643 -0.0004
# 4 0.0003 0.0008 0.0001 37.0017 -0.0001 0.4542
# 5 3.3264 -5.7323 -23.9643 -0.0001 52.6225 0.0008
# 6 -0.0014 -0.0023 -0.0004 0.4542 0.0008 34.0066
#
#
#
# Elastic Compliance Matrix: (Units=1/GPa)
#
#
# Indices 1 2 3 4 5 6 
#
# 1 0.021523 -0.000592 -0.006008 0.000000 -0.004161 0.000001
# 2 -0.000592 0.009236 -0.001252 0.000000 0.000473 0.000001
# 3 -0.006008 -0.001252 0.006486 0.000000 0.003197 0.000000
# 4 0.000000 0.000000 0.000000 0.027030 0.000000 -0.000361
# 5 -0.004161 0.000473 0.003197 0.000000 0.020774 -0.000001
# 6 0.000001 0.000001 0.000000 -0.000361 -0.000001 0.029411
#
#
# Mechanical properties :
#
#
# Convention : Reuss Voigt Hill
#
# Bulk Modulus (GPa) = 46.42610 69.34323 57.88467
# Shear Modulus (GPa) = 36.40473 44.64569 40.52521
#
# Velocity S-wave (km/s) = 3.59054 3.97622 3.78829
# Velocity P-wave (km/s) = 5.79915 6.75551 6.29551
#
# Compressibility (1/GPa) = 0.02153961
#
# Stress axis : x y z
#
# Youngs Moduli (GPa) = 46.46291 108.26627 154.18307
#
# Poissons Ratio (x) = 0.06412 0.92633
# Poissons Ratio (y) = 0.02752 0.19309
# Poissons Ratio (z) = 0.27915 0.13559
#
# Static dielectric constant tensor:
#      x y z
#    x 2.307280 0.000000 -0.063760 
#    y 0.000000 2.187410 0.000000 
#    z -0.063760 0.000000 2.218150 
# 
# From -- ./inp_files/221644.got.cif
#   From: 2010.05.17/outbox.cif.g08.bks.cpg/sg15_111_cif.got.tgz:221644.got - 2010.06.03 18:47:42.
