data_PCOD9264647
_publ_section_title
;
Structure prediction by ZEFSAII (Michael W. Deem and Ramdas Pophale) SiO2 
 PCOD9264647
Probable space group: C 2/C
;
_chemical_formula_sum "Si O2"
_cell_formula_units_Z 56
_cell_length_a 16.300704
_cell_length_b 28.913291
_cell_length_c 12.052288
_cell_angle_alpha 90.000000
_cell_angle_beta 25.428272
_cell_angle_gamma 90.000000
_cell_volume 2439.023771
_symmetry_space_group_name_H-M "C 2/C"
_symmetry_group_IT_number 15
_symmetry_cell_setting 'monoclinic'
loop_
_space_group_symop_operation_xyz
x,y,z
-x,y,1/2-z
-x,-y,-z
x,-y,1/2+z
1/2+x,1/2+y,z
1/2-x,1/2+y,1/2-z
1/2-x,1/2-y,-z
1/2+x,1/2-y,1/2+z
loop_
_atom_site_type_symbol
_atom_site_label
_atom_site_fract_x
_atom_site_fract_y
_atom_site_fract_z
Si Si1 0.203848 0.015506 0.796459
Si Si2 0.706819 0.686695 0.680504
Si Si3 0.500000 0.044367 0.250000
Si Si4 0.216315 0.422296 0.682681
Si Si5 0.694359 0.269388 0.803430
Si Si6 0.000000 0.142991 0.750000
Si Si7 0.180858 0.386455 0.273907
Si Si8 0.084083 0.303518 0.269980
O O1 0.365444 0.017633 0.502189
O O2 0.202657 0.066179 0.854316
O O3 0.254489 0.975130 0.819660
O O4 0.000000 0.000000 0.000000
O O5 0.821670 0.732596 0.575927
O O6 0.667498 0.672983 0.601700
O O7 0.786575 0.644578 0.655868
O O8 0.491058 0.699422 0.982079
O O9 0.356165 0.075576 0.355035
O O10 0.402882 0.390860 0.458509
O O11 0.038642 0.402618 0.966940
O O12 0.886437 0.298749 0.582118
O O13 0.704221 0.237969 0.679458
O O14 0.203745 0.350019 0.146571
O O15 0.000000 0.302265 0.250000
#
# Coordination Sequence:
#
# PCOD9264647 Si02
#       8
#     8   8   4   8   8   4   8   8
#     4  11  23  41  65  90 127 169 219 268 319 379
#     4  10  21  37  60  87 123 156 207 251 316 385
#     4  10  20  38  64  87 118 164 214 253 324 378
#     4  11  22  40  62  90 123 163 209 263 314 377
#     4   9  20  38  58  86 123 163 194 262 317 375
#     4  12  22  36  66  93 118 168 212 251 328 382
#     4  10  21  39  59  87 123 162 200 265 310 365
#     4  10  19  35  61  86 119 158 208 247 317 384
#
# _framework density 22.960007000000001
#
# number of rings (size 3 to 8) (size 9 to 14) (size 15 to 20)
#    0.000    1.714    0.000    6.429    0.000    0.571 
#    5.143    0.000    9.429    0.000    0.000    0.000 
#    0.000    0.000    0.000    0.000    0.000    0.000 
#
# Total GULP energy -156275.877168 kJ/mol
# GULP energy per Si atom -5581.281327 kJ/mol
# Density = 2.290775 g / cm^3
# Si number density = 22.960007 Si / 1000 Ang^3
#
#
#
# Elastic Constant Matrix: (Units=GPa)
#
#
# Indices 1 2 3 4 5 6 
#
# 1 84.0139 40.2974 8.3083 -0.0078 -7.0945 0.0011
# 2 40.2974 150.5644 22.9003 -0.0047 -7.8502 -0.0004
# 3 8.3083 22.9003 53.0842 0.0241 -20.8128 -0.0136
# 4 -0.0078 -0.0047 0.0241 17.5860 0.0006 -6.0146
# 5 -7.0945 -7.8502 -20.8128 0.0006 32.2042 0.0007
# 6 0.0011 -0.0004 -0.0136 -6.0146 0.0007 23.8879
#
#
#
# Elastic Compliance Matrix: (Units=1/GPa)
#
#
# Indices 1 2 3 4 5 6 
#
# 1 0.013808 -0.003622 0.000332 0.000005 0.002373 0.000001
# 2 -0.003622 0.008061 -0.003286 0.000005 -0.000956 0.000000
# 3 0.000332 -0.003286 0.026678 -0.000036 0.016514 0.000006
# 4 0.000005 0.000005 -0.000036 0.062221 -0.000023 0.015666
# 5 0.002373 -0.000956 0.016514 -0.000023 0.042014 0.000002
# 6 0.000001 0.000000 0.000006 0.015666 0.000002 0.045807
#
#
# Mechanical properties :
#
#
# Convention : Reuss Voigt Hill
#
# Bulk Modulus (GPa) = 28.25232 47.85274 38.05253
# Shear Modulus (GPa) = 22.36748 29.14605 25.75677
#
# Velocity S-wave (km/s) = 3.12459 3.56677 3.35298
# Velocity P-wave (km/s) = 5.03480 6.15219 5.62133
#
# Compressibility (1/GPa) = 0.03539533
#
# Stress axis : x y z
#
# Youngs Moduli (GPa) = 72.42273 124.05379 37.48418
#
# Poissons Ratio (x) = 0.44936 -0.01245
# Poissons Ratio (y) = 0.26234 0.12316
# Poissons Ratio (z) = -0.02405 0.40758
#
# Static dielectric constant tensor:
#      x y z
#    x 1.953050 0.000000 0.005230 
#    y 0.000000 1.896670 0.000000 
#    z 0.005230 0.000000 1.887200 
# 
# From -- ./inp_files/101792.got.cif
#   From: 2010.05.17/outbox.cif.g08.bks.cpg/sg15_51_cif.got.tgz:101792.got - 2010.06.03 18:47:42.
