data_PCOD9264425
_publ_section_title
;
Structure prediction by ZEFSAII (Michael W. Deem and Ramdas Pophale) SiO2 
 PCOD9264425
Probable space group: C 2/C
;
_chemical_formula_sum "Si O2"
_cell_formula_units_Z 56
_cell_length_a 8.690722
_cell_length_b 27.426347
_cell_length_c 16.744745
_cell_angle_alpha 90.000000
_cell_angle_beta 130.060468
_cell_angle_gamma 90.000000
_cell_volume 3054.719408
_symmetry_space_group_name_H-M "C 2/C"
_symmetry_group_IT_number 15
_symmetry_cell_setting 'monoclinic'
loop_
_space_group_symop_operation_xyz
x,y,z
-x,y,1/2-z
-x,-y,-z
x,-y,1/2+z
1/2+x,1/2+y,z
1/2-x,1/2+y,1/2-z
1/2-x,1/2-y,-z
1/2+x,1/2-y,1/2+z
loop_
_atom_site_type_symbol
_atom_site_label
_atom_site_fract_x
_atom_site_fract_y
_atom_site_fract_z
Si Si1 0.628330 0.147182 0.866882
Si Si2 0.545924 0.067629 0.966631
Si Si3 0.226701 0.010619 0.324154
Si Si4 0.579519 0.332352 0.545908
Si Si5 0.026312 0.729711 0.942211
Si Si6 0.165649 0.111642 0.234541
Si Si7 0.950178 0.348686 0.553751
O O1 0.500000 0.129198 0.750000
O O2 0.640228 0.104652 0.935934
O O3 0.499064 0.192074 0.860583
O O4 0.858314 0.163972 0.931878
O O5 0.435812 0.102593 0.994347
O O6 0.391741 0.031232 0.872249
O O7 0.710503 0.037311 0.071677
O O8 0.225042 0.054473 0.259223
O O9 0.000000 0.991112 0.250000
O O10 0.603550 0.278157 0.591091
O O11 0.593137 0.369622 0.624869
O O12 0.751518 0.341267 0.538853
O O13 0.001449 0.696554 0.012732
O O14 0.250000 0.750000 0.000000
O O15 0.361002 0.141981 0.325526
O O16 0.000000 0.118402 0.250000
#
# Coordination Sequence:
#
# PCOD9264425 Si02
#       7
#     8   8   8   8   8   8   8
#     4  10  21  37  54  75 108 148 186 220 265 327
#     4   9  19  36  55  78 107 141 180 223 272 333
#     4   9  17  33  59  81 101 138 183 224 275 328
#     4  11  21  34  55  84 112 140 182 230 271 317
#     4   9  19  36  56  78 108 148 186 218 265 328
#     4  10  19  35  59  81 107 143 180 223 276 331
#     4  10  20  35  55  82 114 140 176 229 276 321
#
# _framework density 18.332288999999999
#
# number of rings (size 3 to 8) (size 9 to 14) (size 15 to 20)
#    0.000    2.286    0.000    5.143    0.000    4.000 
#    0.000    7.857    0.000   12.857    0.000    0.000 
#    0.000    0.000    0.000    0.000    0.000    0.000 
#
# Total GULP energy -156021.915198 kJ/mol
# GULP energy per Si atom -5572.211257 kJ/mol
# Density = 1.829056 g / cm^3
# Si number density = 18.332289 Si / 1000 Ang^3
#
#
#
# Elastic Constant Matrix: (Units=GPa)
#
#
# Indices 1 2 3 4 5 6 
#
# 1 114.0236 24.1009 36.6646 0.0000 12.0092 0.0000
# 2 24.1009 67.7735 25.3003 0.0000 10.2652 0.0000
# 3 36.6646 25.3003 70.6235 0.0000 14.2026 0.0000
# 4 0.0000 0.0000 0.0000 24.8968 0.0000 9.6055
# 5 12.0092 10.2652 14.2026 0.0000 23.0135 0.0000
# 6 0.0000 0.0000 0.0000 9.6055 0.0000 11.3280
#
#
#
# Elastic Compliance Matrix: (Units=1/GPa)
#
#
# Indices 1 2 3 4 5 6 
#
# 1 0.010839 -0.001847 -0.004560 0.000000 -0.002019 0.000000
# 2 -0.001847 0.017742 -0.004566 0.000000 -0.004132 0.000000
# 3 -0.004560 -0.004566 0.019722 0.000000 -0.007755 0.000000
# 4 0.000000 0.000000 0.000000 0.059695 0.000000 -0.050618
# 5 -0.002019 -0.004132 -0.007755 0.000000 0.051135 0.000000
# 6 0.000000 0.000000 0.000000 -0.050618 0.000000 0.131199
#
#
# Mechanical properties :
#
#
# Convention : Reuss Voigt Hill
#
# Bulk Modulus (GPa) = 37.93873 47.17247 42.55560
# Shear Modulus (GPa) = 15.57319 22.93797 19.25558
#
# Velocity S-wave (km/s) = 2.91777 3.54112 3.24445
# Velocity P-wave (km/s) = 5.66491 6.51975 6.10730
#
# Compressibility (1/GPa) = 0.02635829
#
# Stress axis : x y z
#
# Youngs Moduli (GPa) = 92.25748 56.36271 50.70410
#
# Poissons Ratio (x) = 0.10408 0.23120
# Poissons Ratio (y) = 0.17036 0.23153
# Poissons Ratio (z) = 0.42067 0.25737
#
# Static dielectric constant tensor:
#      x y z
#    x 1.633440 0.000000 -0.012540 
#    y 0.000000 1.651060 0.000000 
#    z -0.012540 0.000000 1.625510 
# 
# From -- ./inp_files/81439.got.cif
#   From: 2010.05.17/outbox.cif.g08.bks.cpg/sg15_41_cif.got.tgz:81439.got - 2010.06.03 18:47:42.
