data_PCOD9264811
_publ_section_title
;
Structure prediction by ZEFSAII (Michael W. Deem and Ramdas Pophale) SiO2 
 PCOD9264811
Probable space group: C 2/C
;
_chemical_formula_sum "Si O2"
_cell_formula_units_Z 60
_cell_length_a 11.202983
_cell_length_b 28.972151
_cell_length_c 15.484845
_cell_angle_alpha 90.000000
_cell_angle_beta 151.600921
_cell_angle_gamma 90.000000
_cell_volume 2390.409576
_symmetry_space_group_name_H-M "C 2/C"
_symmetry_group_IT_number 15
_symmetry_cell_setting 'monoclinic'
loop_
_space_group_symop_operation_xyz
x,y,z
-x,y,1/2-z
-x,-y,-z
x,-y,1/2+z
1/2+x,1/2+y,z
1/2-x,1/2+y,1/2-z
1/2-x,1/2-y,-z
1/2+x,1/2-y,1/2+z
loop_
_atom_site_type_symbol
_atom_site_label
_atom_site_fract_x
_atom_site_fract_y
_atom_site_fract_z
Si Si1 0.131166 0.311229 0.199491
Si Si2 0.203334 0.492296 0.703506
Si Si3 0.255786 0.328694 0.818280
Si Si4 0.001660 0.747675 0.463644
Si Si5 0.000000 0.937550 0.750000
Si Si6 0.332191 0.409124 0.271027
Si Si7 0.104739 0.587559 0.433044
Si Si8 0.251330 0.634988 0.970626
O O1 0.261788 0.275910 0.348733
O O2 0.258096 0.361081 0.266827
O O3 0.844504 0.320942 0.037144
O O4 0.157325 0.283283 0.128313
O O5 0.415074 0.468422 0.778060
O O6 0.270029 0.542964 0.780375
O O7 0.000000 0.500000 0.500000
O O8 0.071578 0.457630 0.685768
O O9 0.107762 0.291148 0.667368
O O10 0.064366 0.370285 0.703935
O O11 0.337675 0.295092 0.951157
O O12 0.492172 0.352146 0.916358
O O13 0.800872 0.904018 0.575005
O O14 0.628735 0.412341 0.443854
O O15 0.185367 0.408859 0.085758
O O16 0.000000 0.625913 0.750000
#
# Coordination Sequence:
#
# PCOD9264811 Si02
#       8
#     8   8   8   8   4   8   8   8
#     4  11  22  41  59  97 129 171 223 278 335 398
#     4  10  19  35  64 102 129 170 228 267 336 419
#     4  11  21  41  58  94 128 171 219 275 334 392
#     4  10  23  38  65  87 129 172 224 273 335 403
#     4  12  22  38  68 104 136 178 220 272 356 396
#     4  10  21  38  65  99 131 170 226 279 329 415
#     4  10  19  38  62  92 131 167 215 278 331 405
#     4  12  24  39  68 102 142 181 223 291 337 411
#
# _framework density 25.100300000000001
#
# number of rings (size 3 to 8) (size 9 to 14) (size 15 to 20)
#    0.000    1.333    4.000    4.000    0.000    3.200 
#    0.000    4.667    0.000   10.400    0.000    0.000 
#    0.000    0.000    0.000    0.000    0.000    0.000 
#
# Total GULP energy -167162.968541 kJ/mol
# GULP energy per Si atom -5572.098951 kJ/mol
# Density = 2.504317 g / cm^3
# Si number density = 25.100300 Si / 1000 Ang^3
#
#
#
# Elastic Constant Matrix: (Units=GPa)
#
#
# Indices 1 2 3 4 5 6 
#
# 1 70.3656 55.1664 36.4787 0.0000 21.4835 0.0000
# 2 55.1664 212.9756 87.1839 0.0000 16.3282 0.0000
# 3 36.4787 87.1839 90.6425 0.0001 10.3937 0.0001
# 4 0.0000 0.0000 0.0001 39.2875 -0.0001 13.7590
# 5 21.4835 16.3282 10.3937 -0.0001 36.0744 0.0000
# 6 0.0000 0.0000 0.0001 13.7590 0.0000 -0.5958
#
#
#
# Elastic Compliance Matrix: (Units=1/GPa)
#
#
# Indices 1 2 3 4 5 6 
#
# 1 0.022291 -0.002951 -0.004926 0.000000 -0.010520 0.000000
# 2 -0.002951 0.008205 -0.006701 0.000000 -0.000026 0.000000
# 3 -0.004926 -0.006701 0.019418 0.000000 0.000372 0.000000
# 4 0.000000 0.000000 0.000000 0.002801 0.000000 0.064682
# 5 -0.010520 -0.000026 0.000372 0.000000 0.033890 0.000000
# 6 0.000000 0.000000 0.000000 0.064682 0.000000 -0.184693
#
#
# Mechanical properties :
#
#
# Convention : Reuss Voigt Hill
#
# Bulk Modulus (GPa) = 48.17767 81.29352 64.73560
# Shear Modulus (GPa) = -80.62850 27.96354 -26.33248
#
# Velocity S-wave (km/s) = -5.67382 3.34139 -3.24248
# Velocity P-wave (km/s) = 4.86696 6.88072 3.43926
#
# Compressibility (1/GPa) = 0.02075650
#
# Stress axis : x y z
#
# Youngs Moduli (GPa) = 44.86205 121.87750 51.49859
#
# Poissons Ratio (x) = 0.35962 0.25370
# Poissons Ratio (y) = 0.13237 0.34512
# Poissons Ratio (z) = 0.22101 0.81676
#
# Static dielectric constant tensor:
#      x y z
#    x 1.825960 0.000000 -0.115340 
#    y 0.000000 1.930860 0.000000 
#    z -0.115340 0.000000 2.081680 
# 
# From -- ./inp_files/245828.got.cif
#   From: 2010.05.17/outbox.cif.g08.bks.cpg/sg15_123_cif.got.tgz:245828.got - 2010.06.03 18:47:42.
