data_PCOD9264731
_publ_section_title
;
Structure prediction by ZEFSAII (Michael W. Deem and Ramdas Pophale) SiO2 
 PCOD9264731
Probable space group: C 2/C
;
_chemical_formula_sum "Si O2"
_cell_formula_units_Z 56
_cell_length_a 8.850563
_cell_length_b 15.778741
_cell_length_c 21.887567
_cell_angle_alpha 90.000000
_cell_angle_beta 64.698122
_cell_angle_gamma 90.000000
_cell_volume 2763.389426
_symmetry_space_group_name_H-M "C 2/C"
_symmetry_group_IT_number 15
_symmetry_cell_setting 'monoclinic'
loop_
_space_group_symop_operation_xyz
x,y,z
-x,y,1/2-z
-x,-y,-z
x,-y,1/2+z
1/2+x,1/2+y,z
1/2-x,1/2+y,1/2-z
1/2-x,1/2-y,-z
1/2+x,1/2-y,1/2+z
loop_
_atom_site_type_symbol
_atom_site_label
_atom_site_fract_x
_atom_site_fract_y
_atom_site_fract_z
Si Si1 0.841506 0.487143 0.818216
Si Si2 0.771235 0.611747 0.116719
Si Si3 0.424442 0.647844 0.111468
Si Si4 0.053185 0.565745 0.886818
Si Si5 0.323996 0.274063 0.756932
Si Si6 0.828819 0.111671 0.747169
Si Si7 0.572852 0.785281 0.006868
O O1 0.720091 0.420492 0.871260
O O2 0.731034 0.541838 0.790532
O O3 0.000000 0.453850 0.750000
O O4 0.917271 0.543343 0.859017
O O5 0.604302 0.609679 0.102888
O O6 0.864735 0.522048 0.103865
O O7 0.715837 0.645926 0.192865
O O8 0.892558 0.684057 0.067694
O O9 0.360872 0.697805 0.182115
O O10 0.449925 0.710356 0.049710
O O11 0.195855 0.613679 0.824701
O O12 0.979068 0.628627 0.949512
O O13 0.500000 0.235035 0.750000
O O14 0.181141 0.203426 0.782640
O O15 0.000000 0.090137 0.750000
O O16 0.750000 0.750000 0.000000
#
# Coordination Sequence:
#
# PCOD9264731 Si02
#       7
#     8   8   8   8   8   8   8
#     4  10  22  36  63  91 127 153 206 256 315 359
#     4  10  22  37  66  89 123 165 209 250 307 368
#     4  10  20  40  61  91 123 162 208 251 308 368
#     4  11  21  41  62  90 124 163 207 253 307 362
#     4  10  19  35  62  90 122 158 202 254 307 364
#     4  11  22  35  61  96 125 155 202 260 310 365
#     4  10  22  40  64  86 123 171 209 246 303 376
#
# _framework density 20.264969000000001
#
# number of rings (size 3 to 8) (size 9 to 14) (size 15 to 20)
#    0.000    1.714    1.429    4.286    4.000    2.857 
#    0.000    3.571    3.143    0.000    0.000    0.000 
#    0.000    0.000    0.000    0.000    0.000    0.000 
#
# Total GULP energy -156242.785458 kJ/mol
# GULP energy per Si atom -5580.099481 kJ/mol
# Density = 2.021884 g / cm^3
# Si number density = 20.264969 Si / 1000 Ang^3
#
#
#
# Elastic Constant Matrix: (Units=GPa)
#
#
# Indices 1 2 3 4 5 6 
#
# 1 87.8523 35.9371 15.5543 0.0000 -16.8470 0.0000
# 2 35.9371 80.9697 21.1268 0.0000 -18.2273 0.0000
# 3 15.5543 21.1268 53.0116 0.0000 -13.2067 0.0000
# 4 0.0000 0.0000 0.0000 39.3028 0.0000 -9.7974
# 5 -16.8470 -18.2273 -13.2067 0.0000 17.6584 0.0000
# 6 0.0000 0.0000 0.0000 -9.7974 0.0000 15.5357
#
#
#
# Elastic Compliance Matrix: (Units=1/GPa)
#
#
# Indices 1 2 3 4 5 6 
#
# 1 0.015098 -0.004474 -0.000257 0.000000 0.009594 0.000000
# 2 -0.004474 0.017759 -0.002779 0.000000 0.011984 0.000000
# 3 -0.000257 -0.002779 0.023684 0.000000 0.014600 0.000000
# 4 0.000000 0.000000 0.000000 0.030189 0.000000 0.019038
# 5 0.009594 0.011984 0.014600 0.000000 0.089073 0.000000
# 6 0.000000 0.000000 0.000000 0.019038 0.000000 0.076374
#
#
# Mechanical properties :
#
#
# Convention : Reuss Voigt Hill
#
# Bulk Modulus (GPa) = 24.08442 40.78557 32.43499
# Shear Modulus (GPa) = 17.79117 24.44705 21.11911
#
# Velocity S-wave (km/s) = 2.96620 3.47705 3.23174
# Velocity P-wave (km/s) = 4.86227 6.02409 5.47409
#
# Compressibility (1/GPa) = 0.04152062
#
# Stress axis : x y z
#
# Youngs Moduli (GPa) = 66.23270 56.30921 42.22277
#
# Poissons Ratio (x) = 0.25195 0.01084
# Poissons Ratio (y) = 0.29635 0.11734
# Poissons Ratio (z) = 0.01700 0.15649
#
# Static dielectric constant tensor:
#      x y z
#    x 1.754980 0.000000 -0.009820 
#    y 0.000000 1.761060 0.000000 
#    z -0.009820 0.000000 1.753340 
# 
# From -- ./inp_files/289387.got.cif
#   From: 2010.05.17/outbox.cif.g08.bks.cpg/sg15_145_cif.got.tgz:289387.got - 2010.06.03 18:47:42.
