data_PCOD9264277
_publ_section_title
;
Structure prediction by ZEFSAII (Michael W. Deem and Ramdas Pophale) SiO2 
 PCOD9264277
Probable space group: C 2/C
;
_chemical_formula_sum "Si O2"
_cell_formula_units_Z 52
_cell_length_a 11.465259
_cell_length_b 9.683040
_cell_length_c 18.987637
_cell_angle_alpha 90.000000
_cell_angle_beta 99.709973
_cell_angle_gamma 90.000000
_cell_volume 2077.781489
_symmetry_space_group_name_H-M "C 2/C"
_symmetry_group_IT_number 15
_symmetry_cell_setting 'monoclinic'
loop_
_space_group_symop_operation_xyz
x,y,z
-x,y,1/2-z
-x,-y,-z
x,-y,1/2+z
1/2+x,1/2+y,z
1/2-x,1/2+y,1/2-z
1/2-x,1/2-y,-z
1/2+x,1/2-y,1/2+z
loop_
_atom_site_type_symbol
_atom_site_label
_atom_site_fract_x
_atom_site_fract_y
_atom_site_fract_z
Si Si1 0.278389 0.443882 0.464757
Si Si2 0.000000 0.557343 0.250000
Si Si3 0.929500 0.241644 0.614249
Si Si4 0.326910 0.281979 0.893880
Si Si5 0.050012 0.303842 0.483243
Si Si6 0.245664 0.438972 0.744320
Si Si7 0.833576 0.158909 0.824480
O O1 0.324844 0.597270 0.454027
O O2 0.153126 0.417967 0.489585
O O3 0.375627 0.340956 0.507855
O O4 0.256214 0.391538 0.382255
O O5 0.047307 0.653981 0.318304
O O6 0.119010 0.483035 0.241310
O O7 0.793494 0.199132 0.601241
O O8 0.974708 0.313033 0.547362
O O9 0.032506 0.131797 0.636653
O O10 0.450244 0.202836 0.912920
O O11 0.303331 0.356876 0.816747
O O12 0.207579 0.316583 0.689193
O O13 0.326299 0.574157 0.750934
#
# Coordination Sequence:
#
# PCOD9264277 Si02
#       7
#     8   4   8   8   8   8   8
#     4   9  20  36  59  82 121 157 195 250 301 358
#     4   8  16  34  58  78 110 158 192 238 296 354
#     4   9  18  33  59  82 116 151 195 245 296 353
#     4  10  19  35  57  86 116 160 197 243 303 362
#     4  10  19  35  58  84 119 154 199 245 302 360
#     4   9  18  35  60  83 116 152 199 241 302 353
#     4   9  18  37  60  86 116 158 195 249 301 353
#
# _framework density 25.026693000000002
#
# number of rings (size 3 to 8) (size 9 to 14) (size 15 to 20)
#    0.000    2.769    0.000    0.923    0.000    0.615 
#   11.077    0.000   84.615    0.000    0.000    0.000 
#    0.000    0.000    0.000    0.000    0.000    0.000 
#
# Total GULP energy -144832.582250 kJ/mol
# GULP energy per Si atom -5570.483933 kJ/mol
# Density = 2.496973 g / cm^3
# Si number density = 25.026693 Si / 1000 Ang^3
#
#
#
# Elastic Constant Matrix: (Units=GPa)
#
#
# Indices 1 2 3 4 5 6 
#
# 1 99.2498 2.3246 23.4735 0.0000 24.7028 0.0000
# 2 2.3246 43.1684 9.1627 0.0000 5.3085 0.0000
# 3 23.4735 9.1627 68.9230 0.0000 13.3433 0.0000
# 4 0.0000 0.0000 0.0000 14.3010 0.0000 14.3954
# 5 24.7028 5.3085 13.3433 0.0000 33.3031 0.0000
# 6 0.0000 0.0000 0.0000 14.3954 0.0000 20.7007
#
#
#
# Elastic Compliance Matrix: (Units=1/GPa)
#
#
# Indices 1 2 3 4 5 6 
#
# 1 0.012855 0.000964 -0.002852 0.000000 -0.008546 0.000000
# 2 0.000964 0.024143 -0.002878 0.000000 -0.003411 0.000000
# 3 -0.002852 -0.002878 0.016656 0.000000 -0.004100 0.000000
# 4 0.000000 0.000000 0.000000 0.233086 0.000000 -0.162090
# 5 -0.008546 -0.003411 -0.004100 0.000000 0.038553 0.000000
# 6 0.000000 0.000000 0.000000 -0.162090 0.000000 0.161026
#
#
# Mechanical properties :
#
#
# Convention : Reuss Voigt Hill
#
# Bulk Modulus (GPa) = 22.66354 31.25141 26.95748
# Shear Modulus (GPa) = 9.79321 25.41964 17.60643
#
# Velocity S-wave (km/s) = 1.98030 3.19046 2.65525
# Velocity P-wave (km/s) = 3.78209 5.10749 4.49392
#
# Compressibility (1/GPa) = 0.04412373
#
# Stress axis : x y z
#
# Youngs Moduli (GPa) = 77.79365 41.41918 60.03699
#
# Poissons Ratio (x) = -0.03993 0.17120
# Poissons Ratio (y) = -0.07499 0.17277
# Poissons Ratio (z) = 0.22184 0.11919
#
# Static dielectric constant tensor:
#      x y z
#    x 2.074790 0.000000 -0.047820 
#    y 0.000000 2.070330 0.000000 
#    z -0.047820 0.000000 2.062850 
# 
# From -- ./inp_files/237180.got.cif
#   From: 2010.05.17/outbox.cif.g08.bks.cpg/sg15_119_cif.got.tgz:237180.got - 2010.06.03 18:47:42.
