data_PCOD9264757
_publ_section_title
;
Structure prediction by ZEFSAII (Michael W. Deem and Ramdas Pophale) SiO2 
 PCOD9264757
Probable space group: C 2/C
;
_chemical_formula_sum "Si O2"
_cell_formula_units_Z 48
_cell_length_a 18.593247
_cell_length_b 8.346789
_cell_length_c 18.921522
_cell_angle_alpha 90.000000
_cell_angle_beta 48.846241
_cell_angle_gamma 90.000000
_cell_volume 2211.030450
_symmetry_space_group_name_H-M "C 2/C"
_symmetry_group_IT_number 15
_symmetry_cell_setting 'monoclinic'
loop_
_space_group_symop_operation_xyz
x,y,z
-x,y,1/2-z
-x,-y,-z
x,-y,1/2+z
1/2+x,1/2+y,z
1/2-x,1/2+y,1/2-z
1/2-x,1/2-y,-z
1/2+x,1/2-y,1/2+z
loop_
_atom_site_type_symbol
_atom_site_label
_atom_site_fract_x
_atom_site_fract_y
_atom_site_fract_z
Si Si1 0.319989 0.369341 0.517342
Si Si2 0.047970 0.333817 0.991026
Si Si3 0.204894 0.493316 0.979204
Si Si4 0.859840 0.140329 0.143116
Si Si5 0.898504 0.059297 0.820308
Si Si6 0.845738 0.193841 0.716170
O O1 0.229907 0.470200 0.545120
O O2 0.307547 0.178817 0.538386
O O3 0.353955 0.438015 0.568564
O O4 0.391564 0.374677 0.405126
O O5 0.124577 0.377673 0.002377
O O6 0.096564 0.270250 0.886811
O O7 0.000000 0.500000 0.000000
O O8 0.961285 0.227987 0.077234
O O9 0.306291 0.444999 0.879546
O O10 0.763898 0.246164 0.214746
O O11 0.853304 0.995794 0.200731
O O12 0.887191 0.201694 0.769608
O O13 0.000000 0.977618 0.750000
#
# Coordination Sequence:
#
# PCOD9264757 Si02
#       6
#     8   8   8   8   8   8
#     4   9  18  38  64  93 127 177 224 270 336 414
#     4  12  23  40  67  98 134 178 223 288 349 402
#     4   9  18  37  59  91 125 168 224 274 324 397
#     4  12  23  44  66 102 134 181 230 284 358 412
#     4  10  19  35  62  96 123 169 233 277 320 406
#     4  12  25  40  68 100 136 173 230 293 339 421
#
# _framework density 21.709333999999998
#
# number of rings (size 3 to 8) (size 9 to 14) (size 15 to 20)
#    1.000    0.333    3.333    3.500    0.000    0.000 
#    0.000    0.833    3.667    0.000    0.000    0.000 
#    0.000    0.000    0.000    0.000    0.000    0.000 
#
# Total GULP energy -133607.861490 kJ/mol
# GULP energy per Si atom -5566.994229 kJ/mol
# Density = 2.165992 g / cm^3
# Si number density = 21.709334 Si / 1000 Ang^3
#
#
#
# Elastic Constant Matrix: (Units=GPa)
#
#
# Indices 1 2 3 4 5 6 
#
# 1 88.1098 23.9086 45.6468 0.0000 -13.9201 0.0000
# 2 23.9086 45.8524 50.7749 0.0000 -4.1021 0.0001
# 3 45.6468 50.7749 135.8014 0.0000 -22.3936 0.0000
# 4 0.0000 0.0000 0.0000 30.7012 0.0000 -6.4774
# 5 -13.9201 -4.1021 -22.3936 0.0000 45.2732 0.0000
# 6 0.0000 0.0001 0.0000 -6.4774 0.0000 29.5087
#
#
#
# Elastic Compliance Matrix: (Units=1/GPa)
#
#
# Indices 1 2 3 4 5 6 
#
# 1 0.014356 -0.004073 -0.002870 0.000000 0.002626 0.000000
# 2 -0.004073 0.038992 -0.013973 0.000000 -0.004631 0.000000
# 3 -0.002870 -0.013973 0.014371 0.000000 0.004960 0.000000
# 4 0.000000 0.000000 0.000000 0.034154 0.000000 0.007497
# 5 0.002626 -0.004631 0.004960 0.000000 0.024929 0.000000
# 6 0.000000 0.000000 0.000000 0.007497 0.000000 0.035534
#
#
# Mechanical properties :
#
#
# Convention : Reuss Voigt Hill
#
# Bulk Modulus (GPa) = 38.62981 56.71381 47.67181
# Shear Modulus (GPa) = 23.49657 31.05883 27.27770
#
# Velocity S-wave (km/s) = 3.29344 3.78652 3.54856
# Velocity P-wave (km/s) = 5.68288 6.73037 6.22868
#
# Compressibility (1/GPa) = 0.02588674
#
# Stress axis : x y z
#
# Youngs Moduli (GPa) = 69.65630 25.64622 69.58604
#
# Poissons Ratio (x) = 0.10446 0.19969
# Poissons Ratio (y) = 0.28371 0.97235
# Poissons Ratio (z) = 0.19990 0.35837
#
# Static dielectric constant tensor:
#      x y z
#    x 2.021610 0.000000 0.038740 
#    y 0.000000 1.809490 0.000000 
#    z 0.038740 0.000000 1.844100 
# 
# From -- ./inp_files/251773.got.cif
#   From: 2010.05.17/outbox.cif.g08.bks.cpg/sg15_126_cif.got.tgz:251773.got - 2010.06.03 18:47:42.
