data_PCOD9264050
_publ_section_title
;
Structure prediction by ZEFSAII (Michael W. Deem and Ramdas Pophale) SiO2 
 PCOD9264050
Probable space group: C 2/C
;
_chemical_formula_sum "Si O2"
_cell_formula_units_Z 52
_cell_length_a 15.846799
_cell_length_b 15.772532
_cell_length_c 10.005300
_cell_angle_alpha 90.000000
_cell_angle_beta 90.793163
_cell_angle_gamma 90.000000
_cell_volume 2500.526531
_symmetry_space_group_name_H-M "C 2/C"
_symmetry_group_IT_number 15
_symmetry_cell_setting 'monoclinic'
loop_
_space_group_symop_operation_xyz
x,y,z
-x,y,1/2-z
-x,-y,-z
x,-y,1/2+z
1/2+x,1/2+y,z
1/2-x,1/2+y,1/2-z
1/2-x,1/2-y,-z
1/2+x,1/2-y,1/2+z
loop_
_atom_site_type_symbol
_atom_site_label
_atom_site_fract_x
_atom_site_fract_y
_atom_site_fract_z
Si Si1 0.500000 0.394254 0.750000
Si Si2 0.114725 0.974109 0.341176
Si Si3 0.199310 0.049258 0.575537
Si Si4 0.821850 0.341752 0.204772
Si Si5 0.928229 0.254129 0.406680
Si Si6 0.386018 0.734380 0.964875
Si Si7 0.646253 0.714311 0.826546
O O1 0.459854 0.458673 0.641369
O O2 0.568711 0.331011 0.685423
O O3 0.147030 0.992335 0.193457
O O4 0.094537 0.874704 0.341761
O O5 0.189221 0.992385 0.446263
O O6 0.290595 0.070129 0.639604
O O7 0.152071 0.139001 0.542795
O O8 0.901965 0.327897 0.302283
O O9 0.741953 0.310955 0.291439
O O10 0.831738 0.283845 0.073577
O O11 0.865474 0.256908 0.531139
O O12 0.020243 0.248656 0.476212
O O13 0.383972 0.761603 0.808776
#
# Coordination Sequence:
#
# PCOD9264050 Si02
#       7
#     4   8   8   8   8   8   8
#     4  12  22  30  56  80 120 150 182 224 274 344
#     4  10  21  33  49  79 112 150 185 213 277 330
#     4  10  20  36  53  77 111 151 185 225 267 332
#     4  10  20  37  54  74 110 154 191 225 278 329
#     4  12  20  34  52  83 108 146 194 231 275 322
#     4  10  19  35  54  79 107 145 188 230 286 325
#     4  10  23  33  53  77 115 149 185 234 270 330
#
# _framework density 20.79562
#
# number of rings (size 3 to 8) (size 9 to 14) (size 15 to 20)
#    0.000    1.846    3.077    3.692    4.308    1.231 
#    0.000    3.077    0.000    0.000    0.000   17.231 
#    0.000    0.000    0.000    2.462    0.000    0.000 
#
# Total GULP energy -144778.632285 kJ/mol
# GULP energy per Si atom -5568.408934 kJ/mol
# Density = 2.074829 g / cm^3
# Si number density = 20.795620 Si / 1000 Ang^3
#
#
#
# Elastic Constant Matrix: (Units=GPa)
#
#
# Indices 1 2 3 4 5 6 
#
# 1 65.6229 12.3967 25.4335 0.0000 18.3877 0.0000
# 2 12.3967 22.5241 26.1535 0.0000 6.0966 0.0000
# 3 25.4335 26.1535 130.8211 0.0000 1.4119 0.0000
# 4 0.0000 0.0000 0.0000 16.7484 0.0000 1.0688
# 5 18.3877 6.0966 1.4119 0.0000 39.5785 0.0000
# 6 0.0000 0.0000 0.0000 1.0688 0.0000 15.2720
#
#
#
# Elastic Compliance Matrix: (Units=1/GPa)
#
#
# Indices 1 2 3 4 5 6 
#
# 1 0.019581 -0.005538 -0.002612 0.000000 -0.008151 0.000000
# 2 -0.005538 0.062390 -0.011325 0.000000 -0.006633 0.000000
# 3 -0.002612 -0.011325 0.010388 0.000000 0.002587 0.000000
# 4 0.000000 0.000000 0.000000 0.059975 0.000000 -0.004197
# 5 -0.008151 -0.006633 0.002587 0.000000 0.029982 0.000000
# 6 0.000000 0.000000 0.000000 -0.004197 0.000000 0.065773
#
#
# Mechanical properties :
#
#
# Convention : Reuss Voigt Hill
#
# Bulk Modulus (GPa) = 18.72324 38.54841 28.63583
# Shear Modulus (GPa) = 16.40201 24.65209 20.52705
#
# Velocity S-wave (km/s) = 2.81147 3.44677 3.14520
# Velocity P-wave (km/s) = 4.42291 5.86663 5.19516
#
# Compressibility (1/GPa) = 0.05340955
#
# Stress axis : x y z
#
# Youngs Moduli (GPa) = 51.07031 16.02832 96.26659
#
# Poissons Ratio (x) = 0.08877 0.25141
# Poissons Ratio (y) = 0.28284 1.09017
# Poissons Ratio (z) = 0.13338 0.18151
#
# Static dielectric constant tensor:
#      x y z
#    x 1.837590 0.000000 0.035470 
#    y 0.000000 1.743440 0.000000 
#    z 0.035470 0.000000 1.805280 
# 
# From -- ./inp_files/48563.got.cif
#   From: 2010.05.17/outbox.cif.g08.bks.cpg/sg15_25_cif.got.tgz:48563.got - 2010.06.03 18:47:42.
