data_PCOD9264927
_publ_section_title
;
Structure prediction by ZEFSAII (Michael W. Deem and Ramdas Pophale) SiO2 
 PCOD9264927
Probable space group: C 2/C
;
_chemical_formula_sum "Si O2"
_cell_formula_units_Z 64
_cell_length_a 18.982387
_cell_length_b 10.451964
_cell_length_c 30.251465
_cell_angle_alpha 90.000000
_cell_angle_beta 30.326622
_cell_angle_gamma 90.000000
_cell_volume 3030.576349
_symmetry_space_group_name_H-M "C 2/C"
_symmetry_group_IT_number 15
_symmetry_cell_setting 'monoclinic'
loop_
_space_group_symop_operation_xyz
x,y,z
-x,y,1/2-z
-x,-y,-z
x,-y,1/2+z
1/2+x,1/2+y,z
1/2-x,1/2+y,1/2-z
1/2-x,1/2-y,-z
1/2+x,1/2-y,1/2+z
loop_
_atom_site_type_symbol
_atom_site_label
_atom_site_fract_x
_atom_site_fract_y
_atom_site_fract_z
Si Si1 0.986839 0.532147 0.559049
Si Si2 0.662364 0.211933 0.329785
Si Si3 0.952554 0.916018 0.668160
Si Si4 0.275242 0.863089 0.950536
Si Si5 0.006135 0.956155 0.445238
Si Si6 0.140932 0.825256 0.156914
Si Si7 0.247755 0.448441 0.963408
Si Si8 0.300436 0.330166 0.279047
O O1 0.955619 0.391709 0.595520
O O2 0.849521 0.607692 0.647868
O O3 0.000000 0.500000 0.500000
O O4 0.118020 0.609959 0.507629
O O5 0.820361 0.167609 0.254905
O O6 0.620875 0.344599 0.375557
O O7 0.663591 0.226520 0.276446
O O8 0.961969 0.935538 0.609703
O O9 0.913630 0.057618 0.708032
O O10 0.105326 0.881411 0.604846
O O11 0.386150 0.799054 0.857930
O O12 0.250000 0.750000 0.000000
O O13 0.305539 0.989686 0.961893
O O14 0.138551 0.893513 0.994908
O O15 0.000000 0.000000 0.500000
O O16 0.220299 0.931655 0.086417
O O17 0.211674 0.786438 0.164155
O O18 0.000000 0.887488 0.250000
#
# Coordination Sequence:
#
# PCOD9264927 Si02
#       8
#     8   8   8   8   8   8   8   8
#     4  11  22  36  60  87 111 154 207 254 285 357
#     4  10  22  38  57  83 124 157 195 244 312 360
#     4   9  20  38  57  80 120 162 187 240 306 360
#     4   9  20  34  54  86 119 155 185 245 311 353
#     4  10  21  37  60  91 122 157 204 255 300 366
#     4  11  19  29  56  86 119 141 189 243 305 351
#     4  10  19  36  54  81 118 147 195 242 292 348
#     4  10  21  36  54  88 116 150 197 243 296 355
#
# _framework density 21.118095
#
# number of rings (size 3 to 8) (size 9 to 14) (size 15 to 20)
#    0.000    2.000    2.500    1.500    5.250    0.000 
#    0.000    0.625    0.000    3.000    0.000    0.000 
#    0.000    0.000    0.000    0.000    0.000    0.000 
#
# Total GULP energy -178275.394144 kJ/mol
# GULP energy per Si atom -5571.106067 kJ/mol
# Density = 2.107003 g / cm^3
# Si number density = 21.118095 Si / 1000 Ang^3
#
#
#
# Elastic Constant Matrix: (Units=GPa)
#
#
# Indices 1 2 3 4 5 6 
#
# 1 126.1422 17.8883 41.4218 0.0000 4.8058 0.0000
# 2 17.8883 24.5110 9.6100 0.0000 8.5654 0.0000
# 3 41.4218 9.6100 70.9253 -0.0001 9.0410 0.0000
# 4 0.0000 0.0000 -0.0001 31.6123 0.0000 7.4133
# 5 4.8058 8.5654 9.0410 0.0000 45.1471 0.0000
# 6 0.0000 0.0000 0.0000 7.4133 0.0000 15.4142
#
#
#
# Elastic Compliance Matrix: (Units=1/GPa)
#
#
# Indices 1 2 3 4 5 6 
#
# 1 0.010526 -0.005916 -0.005486 0.000000 0.001100 0.000000
# 2 -0.005916 0.048812 -0.002113 0.000000 -0.008208 0.000000
# 3 -0.005486 -0.002113 0.017922 0.000000 -0.002604 0.000000
# 4 0.000000 0.000000 0.000000 0.035654 0.000000 -0.017148
# 5 0.001100 -0.008208 -0.002604 0.000000 0.024111 0.000000
# 6 0.000000 0.000000 0.000000 -0.017148 0.000000 0.073122
#
#
# Mechanical properties :
#
#
# Convention : Reuss Voigt Hill
#
# Bulk Modulus (GPa) = 19.90819 39.93543 29.92181
# Shear Modulus (GPa) = 19.69128 28.61196 24.15162
#
# Velocity S-wave (km/s) = 3.05689 3.68483 3.38545
# Velocity P-wave (km/s) = 4.68049 6.08733 5.42967
#
# Compressibility (1/GPa) = 0.05023058
#
# Stress axis : x y z
#
# Youngs Moduli (GPa) = 95.00247 20.48685 55.79865
#
# Poissons Ratio (x) = 0.12119 0.30612
# Poissons Ratio (y) = 0.56199 0.11788
# Poissons Ratio (z) = 0.52120 0.04328
#
# Static dielectric constant tensor:
#      x y z
#    x 1.879730 0.000000 -0.045160 
#    y 0.000000 1.802080 0.000000 
#    z -0.045160 0.000000 1.760210 
# 
# From -- ./inp_files/316194.got.cif
#   From: 2010.05.17/outbox.cif.g08.bks.cpg/sg15_159_cif.got.tgz:316194.got - 2010.06.03 18:47:42.
