data_PCOD9264873
_publ_section_title
;
Structure prediction by ZEFSAII (Michael W. Deem and Ramdas Pophale) SiO2 
 PCOD9264873
Probable space group: C 2/C
;
_chemical_formula_sum "Si O2"
_cell_formula_units_Z 60
_cell_length_a 24.487612
_cell_length_b 13.574417
_cell_length_c 13.343428
_cell_angle_alpha 90.000000
_cell_angle_beta 147.256945
_cell_angle_gamma 90.000000
_cell_volume 2398.998394
_symmetry_space_group_name_H-M "C 2/C"
_symmetry_group_IT_number 15
_symmetry_cell_setting 'monoclinic'
loop_
_space_group_symop_operation_xyz
x,y,z
-x,y,1/2-z
-x,-y,-z
x,-y,1/2+z
1/2+x,1/2+y,z
1/2-x,1/2+y,1/2-z
1/2-x,1/2-y,-z
1/2+x,1/2-y,1/2+z
loop_
_atom_site_type_symbol
_atom_site_label
_atom_site_fract_x
_atom_site_fract_y
_atom_site_fract_z
Si Si1 0.406638 0.396623 0.681042
Si Si2 0.323919 0.591315 0.346308
Si Si3 0.802104 0.096788 0.544168
Si Si4 0.692629 0.924973 0.065680
Si Si5 0.492726 0.785065 0.064640
Si Si6 0.782484 0.226945 0.838598
Si Si7 0.000000 0.440218 0.250000
Si Si8 0.511577 0.268773 0.154764
O O1 0.500000 0.418847 0.750000
O O2 0.364352 0.496322 0.659772
O O3 0.445669 0.314552 0.816990
O O4 0.319738 0.345078 0.481978
O O5 0.280702 0.594934 0.393088
O O6 0.293171 0.485563 0.257109
O O7 0.262662 0.672456 0.189034
O O8 0.435960 0.635934 0.529045
O O9 0.876692 0.186213 0.682105
O O10 0.708342 0.098093 0.473424
O O11 0.699567 0.826868 0.142420
O O12 0.595365 0.992970 0.927217
O O13 0.524516 0.869265 0.192715
O O14 0.379104 0.756187 0.921328
O O15 0.503712 0.802711 0.963548
O O16 0.500000 0.228924 0.250000
#
# Coordination Sequence:
#
# PCOD9264873 Si02
#       8
#     8   8   8   8   8   8   4   8
#     4  10  19  35  67 103 135 175 226 296 372 425
#     4  11  23  43  68 101 140 182 240 293 360 448
#     4  11  23  39  67 104 138 178 235 304 366 425
#     4  12  25  45  70  99 142 191 247 297 368 427
#     4  11  20  42  71 101 146 185 236 301 364 423
#     4  11  22  42  69  97 140 192 234 293 361 430
#     4  12  26  48  70 106 142 200 246 300 358 440
#     4  10  23  40  66 111 141 180 233 299 371 434
#
# _framework density 25.010438000000001
#
# number of rings (size 3 to 8) (size 9 to 14) (size 15 to 20)
#    0.000    1.067    6.000    2.000    1.867    2.667 
#    3.600    3.333    0.000    0.000    0.000    0.000 
#    0.000    0.000    0.000    0.000    0.000    0.000 
#
# Total GULP energy -168076.910029 kJ/mol
# GULP energy per Si atom -5602.563668 kJ/mol
# Density = 2.495351 g / cm^3
# Si number density = 25.010438 Si / 1000 Ang^3
#
#
#
# Elastic Constant Matrix: (Units=GPa)
#
#
# Indices 1 2 3 4 5 6 
#
# 1 91.9683 0.1494 10.7514 0.0000 -15.4937 0.0000
# 2 0.1494 87.9243 20.5085 0.0000 11.4754 0.0000
# 3 10.7514 20.5085 86.2831 0.0000 -6.6688 0.0000
# 4 0.0000 0.0000 0.0000 52.7962 0.0000 7.8677
# 5 -15.4937 11.4754 -6.6688 0.0000 18.0831 0.0000
# 6 0.0000 0.0000 0.0000 7.8677 0.0000 -29.1068
#
#
#
# Elastic Compliance Matrix: (Units=1/GPa)
#
#
# Indices 1 2 3 4 5 6 
#
# 1 0.012919 -0.001496 -0.000335 0.000000 0.011895 0.000000
# 2 -0.001496 0.013808 -0.003986 0.000000 -0.011515 0.000000
# 3 -0.000335 -0.003986 0.013126 0.000000 0.007083 0.000000
# 4 0.000000 0.000000 0.000000 0.018207 0.000000 0.004922
# 5 0.011895 -0.011515 0.007083 0.000000 0.075411 0.000000
# 6 0.000000 0.000000 0.000000 0.004922 0.000000 -0.033026
#
#
# Mechanical properties :
#
#
# Convention : Reuss Voigt Hill
#
# Bulk Modulus (GPa) = 35.43574 36.55493 35.99533
# Shear Modulus (GPa) = 41.15682 24.00558 32.58120
#
# Velocity S-wave (km/s) = 4.06098 3.10146 3.61321
# Velocity P-wave (km/s) = 6.01564 5.24147 5.64185
#
# Compressibility (1/GPa) = 0.02822010
#
# Stress axis : x y z
#
# Youngs Moduli (GPa) = 77.40647 72.41946 76.18318
#
# Poissons Ratio (x) = 0.10837 0.02550
# Poissons Ratio (y) = 0.11583 0.30364
# Poissons Ratio (z) = 0.02591 0.28864
#
# Static dielectric constant tensor:
#      x y z
#    x 1.976650 0.000000 0.010930 
#    y 0.000000 1.931020 0.000000 
#    z 0.010930 0.000000 1.984900 
# 
# From -- ./inp_files/178561.got.cif
#   From: 2010.05.17/outbox.cif.g08.bks.cpg/sg15_90_cif.got.tgz:178561.got - 2010.06.03 18:47:42.
