data_PCOD9264583
_publ_section_title
;
Structure prediction by ZEFSAII (Michael W. Deem and Ramdas Pophale) SiO2 
 PCOD9264583
Probable space group: C 2/C
;
_chemical_formula_sum "Si O2"
_cell_formula_units_Z 28
_cell_length_a 17.478789
_cell_length_b 10.794252
_cell_length_c 11.759077
_cell_angle_alpha 90.000000
_cell_angle_beta 27.513846
_cell_angle_gamma 90.000000
_cell_volume 1024.906567
_symmetry_space_group_name_H-M "C 2/C"
_symmetry_group_IT_number 15
_symmetry_cell_setting 'monoclinic'
loop_
_space_group_symop_operation_xyz
x,y,z
-x,y,1/2-z
-x,-y,-z
x,-y,1/2+z
1/2+x,1/2+y,z
1/2-x,1/2+y,1/2-z
1/2-x,1/2-y,-z
1/2+x,1/2-y,1/2+z
loop_
_atom_site_type_symbol
_atom_site_label
_atom_site_fract_x
_atom_site_fract_y
_atom_site_fract_z
Si Si1 0.500000 0.087126 0.750000
Si Si2 0.375532 0.281651 0.574832
Si Si3 0.371601 0.079192 0.248684
Si Si4 0.055014 0.165419 0.055902
O O1 0.450244 0.185606 0.911129
O O2 0.639296 0.002883 0.623284
O O3 0.542039 0.207740 0.326618
O O4 0.294744 0.378835 0.595312
O O5 0.427958 0.352915 0.621651
O O6 0.245803 0.167328 0.768726
O O7 0.500000 0.000000 0.000000
O O8 0.000000 0.111305 0.250000
#
# Coordination Sequence:
#
# PCOD9264583 Si02
#       4
#     4   8   8   8
#     4  10  20  36  66  82 114 162 188 232 302 338
#     4  10  19  35  60  88 114 154 190 240 292 342
#     4  11  21  39  60  86 121 153 189 244 292 339
#     4   9  18  33  61  86 108 147 206 229 276 339
#
# _framework density 27.319562999999999
#
# number of rings (size 3 to 8) (size 9 to 14) (size 15 to 20)
#    0.857    1.143    5.714    0.857    0.000    1.143 
#    0.000    5.714    0.000   13.714    0.000    0.000 
#    0.000    0.000    0.000    0.000    0.000    0.000 
#
# Total GULP energy -78129.042213 kJ/mol
# GULP energy per Si atom -5580.645872 kJ/mol
# Density = 2.725738 g / cm^3
# Si number density = 27.319563 Si / 1000 Ang^3
#
#
#
# Elastic Constant Matrix: (Units=GPa)
#
#
# Indices 1 2 3 4 5 6 
#
# 1 199.4368 60.9359 53.1467 0.0000 -64.7099 0.0000
# 2 60.9359 103.7892 33.3301 0.0000 -12.1260 0.0000
# 3 53.1467 33.3301 63.7892 0.0000 -32.6626 0.0000
# 4 0.0000 0.0000 0.0000 37.6918 0.0000 -12.1820
# 5 -64.7099 -12.1260 -32.6626 0.0000 50.1311 0.0000
# 6 0.0000 0.0000 0.0000 -12.1820 0.0000 25.2650
#
#
#
# Elastic Compliance Matrix: (Units=1/GPa)
#
#
# Indices 1 2 3 4 5 6 
#
# 1 0.010463 -0.004730 0.000125 0.000000 0.012444 0.000000
# 2 -0.004730 0.013814 -0.007042 0.000000 -0.007352 0.000000
# 3 0.000125 -0.007042 0.027705 0.000000 0.016509 0.000000
# 4 0.000000 0.000000 0.000000 0.031429 0.000000 0.015154
# 5 0.012444 -0.007352 0.016509 0.000000 0.044989 0.000000
# 6 0.000000 0.000000 0.000000 0.015154 0.000000 0.046887
#
#
# Mechanical properties :
#
#
# Convention : Reuss Voigt Hill
#
# Bulk Modulus (GPa) = 34.85460 73.53786 54.19623
# Shear Modulus (GPa) = 24.02198 37.25775 30.63987
#
# Velocity S-wave (km/s) = 2.96851 3.69694 3.35257
# Velocity P-wave (km/s) = 4.95330 6.72304 5.90485
#
# Compressibility (1/GPa) = 0.02869062
#
# Stress axis : x y z
#
# Youngs Moduli (GPa) = 95.57124 72.38971 36.09449
#
# Poissons Ratio (x) = 0.34237 -0.00452
# Poissons Ratio (y) = 0.45201 0.25417
# Poissons Ratio (z) = -0.01197 0.50975
#
# Static dielectric constant tensor:
#      x y z
#    x 2.170300 0.000000 0.068580 
#    y 0.000000 2.221010 0.000000 
#    z 0.068580 0.000000 2.382700 
# 
# From -- ./inp_files/36447.got.cif
#   From: 2010.05.17/outbox.cif.g08.bks.cpg/sg15_19_cif.got.tgz:36447.got - 2010.06.03 18:47:42.
