data_PCOD9264725
_publ_section_title
;
Structure prediction by ZEFSAII (Michael W. Deem and Ramdas Pophale) SiO2 
 PCOD9264725
Probable space group: C 2/C
;
_chemical_formula_sum "Si O2"
_cell_formula_units_Z 56
_cell_length_a 8.447542
_cell_length_b 14.541635
_cell_length_c 21.388380
_cell_angle_alpha 90.000000
_cell_angle_beta 123.454083
_cell_angle_gamma 90.000000
_cell_volume 2192.089319
_symmetry_space_group_name_H-M "C 2/C"
_symmetry_group_IT_number 15
_symmetry_cell_setting 'monoclinic'
loop_
_space_group_symop_operation_xyz
x,y,z
-x,y,1/2-z
-x,-y,-z
x,-y,1/2+z
1/2+x,1/2+y,z
1/2-x,1/2+y,1/2-z
1/2-x,1/2-y,-z
1/2+x,1/2-y,1/2+z
loop_
_atom_site_type_symbol
_atom_site_label
_atom_site_fract_x
_atom_site_fract_y
_atom_site_fract_z
Si Si1 0.399880 0.899730 0.974789
Si Si2 0.807609 0.184095 0.723168
Si Si3 0.445555 0.981023 0.668056
Si Si4 0.183479 0.022352 0.326295
Si Si5 0.547794 0.298372 0.110542
Si Si6 0.766527 0.349883 0.545617
Si Si7 0.601674 0.813306 0.388966
O O1 0.205752 0.933165 0.898937
O O2 0.569689 0.853774 0.972267
O O3 0.370690 0.844558 0.032910
O O4 0.500000 0.000000 0.000000
O O5 0.844495 0.161177 0.804923
O O6 0.605689 0.230242 0.667066
O O7 0.000000 0.237968 0.750000
O O8 0.809665 0.089121 0.682166
O O9 0.500000 0.963913 0.750000
O O10 0.625893 0.947097 0.667127
O O11 0.274355 0.927014 0.599673
O O12 0.415906 0.088530 0.649981
O O13 0.000000 0.054628 0.250000
O O14 0.363721 0.241225 0.096595
O O15 0.726545 0.260908 0.107720
O O16 0.433007 0.355595 0.033091
#
# Coordination Sequence:
#
# PCOD9264725 Si02
#       7
#     8   8   8   8   8   8   8
#     4  11  19  40  63  87 126 160 207 261 322 381
#     4  10  19  35  62  89 118 162 208 255 307 379
#     4  10  20  37  59  86 123 154 206 269 318 366
#     4   9  19  32  56  90 118 153 204 255 309 373
#     4  11  24  39  58  89 129 161 218 259 315 385
#     4  10  24  42  57  84 126 174 199 263 328 384
#     4  11  21  37  66  98 119 164 214 272 306 377
#
# _framework density 25.546406000000001
#
# number of rings (size 3 to 8) (size 9 to 14) (size 15 to 20)
#    0.000    1.714    4.286    3.000    2.000    2.857 
#    0.000    5.714    0.000    0.000    0.000    0.000 
#    0.000    0.000    0.000    0.000    0.000    0.000 
#
# Total GULP energy -156030.718026 kJ/mol
# GULP energy per Si atom -5572.525644 kJ/mol
# Density = 2.548826 g / cm^3
# Si number density = 25.546406 Si / 1000 Ang^3
#
#
#
# Elastic Constant Matrix: (Units=GPa)
#
#
# Indices 1 2 3 4 5 6 
#
# 1 91.8353 -4.1473 43.8955 0.0000 17.0909 0.0000
# 2 -4.1473 37.5602 11.3380 0.0000 7.9057 0.0000
# 3 43.8955 11.3380 127.5370 0.0000 17.6633 0.0000
# 4 0.0000 0.0000 0.0000 8.1200 0.0000 9.4673
# 5 17.0909 7.9057 17.6633 0.0000 51.5763 0.0000
# 6 0.0000 0.0000 0.0000 9.4673 0.0000 12.3319
#
#
#
# Elastic Compliance Matrix: (Units=1/GPa)
#
#
# Indices 1 2 3 4 5 6 
#
# 1 0.013937 0.003693 -0.004627 0.000000 -0.003600 0.000000
# 2 0.003693 0.028962 -0.003214 0.000000 -0.004563 0.000000
# 3 -0.004627 -0.003214 0.009908 0.000000 -0.001368 0.000000
# 4 0.000000 0.000000 0.000000 1.173912 0.000000 -0.901222
# 5 -0.003600 -0.004563 -0.001368 0.000000 0.021749 0.000000
# 6 0.000000 0.000000 0.000000 -0.901222 0.000000 0.772966
#
#
# Mechanical properties :
#
#
# Convention : Reuss Voigt Hill
#
# Bulk Modulus (GPa) = 22.46530 39.90054 31.18292
# Shear Modulus (GPa) = 2.44550 28.12874 15.28712
#
# Velocity S-wave (km/s) = 0.97947 3.32186 2.44889
# Velocity P-wave (km/s) = 3.17681 5.51051 4.49766
#
# Compressibility (1/GPa) = 0.04451310
#
# Stress axis : x y z
#
# Youngs Moduli (GPa) = 71.75007 34.52775 100.92476
#
# Poissons Ratio (x) = -0.12752 0.46694
# Poissons Ratio (y) = -0.26499 0.32437
# Poissons Ratio (z) = 0.33196 0.11097
#
# Static dielectric constant tensor:
#      x y z
#    x 2.081470 0.000000 -0.175940 
#    y 0.000000 3.252680 0.000000 
#    z -0.175940 0.000000 3.087740 
# 
# From -- ./inp_files/232803.got.cif
#   From: 2010.05.17/outbox.cif.g08.bks.cpg/sg15_117_cif.got.tgz:232803.got - 2010.06.03 18:47:42.
