data_PCOD9264433
_publ_section_title
;
Structure prediction by ZEFSAII (Michael W. Deem and Ramdas Pophale) SiO2 
 PCOD9264433
Probable space group: C 2/C
;
_chemical_formula_sum "Si O2"
_cell_formula_units_Z 52
_cell_length_a 22.340620
_cell_length_b 9.711590
_cell_length_c 13.748431
_cell_angle_alpha 90.000000
_cell_angle_beta 115.210942
_cell_angle_gamma 90.000000
_cell_volume 2698.766049
_symmetry_space_group_name_H-M "C 2/C"
_symmetry_group_IT_number 15
_symmetry_cell_setting 'monoclinic'
loop_
_space_group_symop_operation_xyz
x,y,z
-x,y,1/2-z
-x,-y,-z
x,-y,1/2+z
1/2+x,1/2+y,z
1/2-x,1/2+y,1/2-z
1/2-x,1/2-y,-z
1/2+x,1/2-y,1/2+z
loop_
_atom_site_type_symbol
_atom_site_label
_atom_site_fract_x
_atom_site_fract_y
_atom_site_fract_z
Si Si1 0.284500 0.653122 0.793570
Si Si2 0.000000 0.463880 0.750000
Si Si3 0.035920 0.043995 0.123398
Si Si4 0.320545 0.315905 0.526485
Si Si5 0.820453 0.883734 0.738333
Si Si6 0.075784 0.742961 0.176496
Si Si7 0.953502 0.309481 0.067704
O O1 0.220623 0.747712 0.763969
O O2 0.274114 0.513765 0.728152
O O3 0.345788 0.735163 0.787488
O O4 0.311139 0.606686 0.918543
O O5 0.057002 0.364221 0.747059
O O6 0.018796 0.561550 0.853918
O O7 0.109810 0.102985 0.158897
O O8 0.991464 0.170663 0.129687
O O9 0.047449 0.895735 0.182101
O O10 0.000000 0.000000 0.000000
O O11 0.250000 0.250000 0.500000
O O12 0.339284 0.392040 0.637721
O O13 0.377047 0.205395 0.544588
O O14 0.045806 0.693905 0.050263
#
# Coordination Sequence:
#
# PCOD9264433 Si02
#       7
#     8   4   8   8   8   8   8
#     4   9  20  37  57  81 111 145 187 232 278 334
#     4  12  22  32  54  84 110 140 178 228 288 340
#     4   9  19  37  58  80 108 149 193 231 276 340
#     4   9  19  36  56  79 109 147 186 225 275 338
#     4  10  19  35  59  82 110 148 185 231 285 334
#     4   9  21  38  53  79 115 142 178 236 283 323
#     4  10  20  36  57  79 106 146 189 225 273 341
#
# _framework density 19.268065
#
# number of rings (size 3 to 8) (size 9 to 14) (size 15 to 20)
#    0.000    2.462    0.000    2.308    0.000    6.769 
#    0.000    5.385    0.000    0.000    0.000    0.000 
#    0.000    0.000    0.000    0.000    0.000    0.000 
#
# Total GULP energy -144748.903368 kJ/mol
# GULP energy per Si atom -5567.265514 kJ/mol
# Density = 1.922421 g / cm^3
# Si number density = 19.268065 Si / 1000 Ang^3
#
#
#
# Elastic Constant Matrix: (Units=GPa)
#
#
# Indices 1 2 3 4 5 6 
#
# 1 83.1960 21.9343 18.0218 0.0000 2.4714 0.0000
# 2 21.9343 58.8375 11.2277 0.0000 4.3257 0.0000
# 3 18.0218 11.2277 42.3879 0.0000 6.0095 0.0000
# 4 0.0000 0.0000 0.0000 25.8887 0.0000 -5.4041
# 5 2.4714 4.3257 6.0095 0.0000 30.8682 0.0000
# 6 0.0000 0.0000 0.0000 -5.4041 0.0000 26.1032
#
#
#
# Elastic Compliance Matrix: (Units=1/GPa)
#
#
# Indices 1 2 3 4 5 6 
#
# 1 0.014238 -0.004395 -0.004952 0.000000 0.000440 0.000000
# 2 -0.004395 0.019338 -0.003002 0.000000 -0.001774 0.000000
# 3 -0.004952 -0.003002 0.027125 0.000000 -0.004464 0.000000
# 4 0.000000 0.000000 0.000000 0.040372 0.000000 0.008358
# 5 0.000440 -0.001774 -0.004464 0.000000 0.033478 0.000000
# 6 0.000000 0.000000 0.000000 0.008358 0.000000 0.040040
#
#
# Mechanical properties :
#
#
# Convention : Reuss Voigt Hill
#
# Bulk Modulus (GPa) = 27.77562 31.86544 29.82053
# Shear Modulus (GPa) = 23.66423 25.45454 24.55938
#
# Velocity S-wave (km/s) = 3.50831 3.63860 3.57405
# Velocity P-wave (km/s) = 5.55497 5.85033 5.70456
#
# Compressibility (1/GPa) = 0.03600280
#
# Stress axis : x y z
#
# Youngs Moduli (GPa) = 70.23358 51.71228 36.86645
#
# Poissons Ratio (x) = 0.22729 0.18255
# Poissons Ratio (y) = 0.30870 0.11067
# Poissons Ratio (z) = 0.34778 0.15524
#
# Static dielectric constant tensor:
#      x y z
#    x 1.678870 0.000000 -0.020460 
#    y 0.000000 1.646540 0.000000 
#    z -0.020460 0.000000 1.730540 
# 
# From -- ./inp_files/172069.got.cif
#   From: 2010.05.17/outbox.cif.g08.bks.cpg/sg15_87_cif.got.tgz:172069.got - 2010.06.03 18:47:42.
