data_PCOD9264935
_publ_section_title
;
Structure prediction by ZEFSAII (Michael W. Deem and Ramdas Pophale) SiO2 
 PCOD9264935
Probable space group: C 2/C
;
_chemical_formula_sum "Si O2"
_cell_formula_units_Z 48
_cell_length_a 27.112436
_cell_length_b 12.138683
_cell_length_c 14.537109
_cell_angle_alpha 90.000000
_cell_angle_beta 24.540786
_cell_angle_gamma 90.000000
_cell_volume 1987.114304
_symmetry_space_group_name_H-M "C 2/C"
_symmetry_group_IT_number 15
_symmetry_cell_setting 'monoclinic'
loop_
_space_group_symop_operation_xyz
x,y,z
-x,y,1/2-z
-x,-y,-z
x,-y,1/2+z
1/2+x,1/2+y,z
1/2-x,1/2+y,1/2-z
1/2-x,1/2-y,-z
1/2+x,1/2-y,1/2+z
loop_
_atom_site_type_symbol
_atom_site_label
_atom_site_fract_x
_atom_site_fract_y
_atom_site_fract_z
Si Si1 0.994148 0.979761 0.156513
Si Si2 0.923720 0.784211 0.804340
Si Si3 0.684224 0.121779 0.800844
Si Si4 0.028402 0.211111 0.476798
Si Si5 0.235269 0.418765 0.598142
Si Si6 0.253270 0.676908 0.882856
O O1 0.855915 0.980387 0.366426
O O2 0.000000 0.933331 0.250000
O O3 0.012541 0.109499 0.137217
O O4 0.062276 0.906665 0.966550
O O5 0.912331 0.746855 0.718702
O O6 0.000000 0.716033 0.750000
O O7 0.796528 0.815891 0.061738
O O8 0.570215 0.198598 0.979133
O O9 0.721934 0.113646 0.843247
O O10 0.668672 0.003555 0.777290
O O11 0.890074 0.192777 0.686030
O O12 0.186855 0.379919 0.581633
O O13 0.275218 0.306496 0.581411
#
# Coordination Sequence:
#
# PCOD9264935 Si02
#       6
#     8   8   8   8   8   8
#     4   9  18  33  57  85 114 159 204 247 299 369
#     4  10  19  36  54  84 125 154 198 254 310 362
#     4  11  22  39  62  93 120 161 211 254 308 374
#     4  11  21  35  59  88 123 159 201 252 313 358
#     4   9  21  40  60  88 122 166 209 251 308 369
#     4  10  21  42  64  86 129 164 204 259 303 377
#
# _framework density 24.155629000000001
#
# number of rings (size 3 to 8) (size 9 to 14) (size 15 to 20)
#    0.000    2.000    1.667    2.000    0.000    0.667 
#   12.000    0.000    0.000    0.000    0.000    0.000 
#    0.000    0.000    0.000    0.000    0.000    0.000 
#
# Total GULP energy -133605.115270 kJ/mol
# GULP energy per Si atom -5566.879803 kJ/mol
# Density = 2.410065 g / cm^3
# Si number density = 24.155629 Si / 1000 Ang^3
#
#
#
# Elastic Constant Matrix: (Units=GPa)
#
#
# Indices 1 2 3 4 5 6 
#
# 1 150.4008 39.0992 41.2785 0.0000 8.2258 0.0000
# 2 39.0992 66.9384 0.3854 0.0000 0.0602 0.0000
# 3 41.2785 0.3854 43.9085 0.0000 -5.3707 0.0000
# 4 0.0000 0.0000 0.0000 18.1282 0.0000 2.9997
# 5 8.2258 0.0602 -5.3707 0.0000 36.3651 0.0000
# 6 0.0000 0.0000 0.0000 2.9997 0.0000 22.8812
#
#
#
# Elastic Compliance Matrix: (Units=1/GPa)
#
#
# Indices 1 2 3 4 5 6 
#
# 1 0.011864 -0.006859 -0.011630 0.000000 -0.004390 0.000000
# 2 -0.006859 0.018905 0.006587 0.000000 0.002493 0.000000
# 3 -0.011630 0.006587 0.034596 0.000000 0.007729 0.000000
# 4 0.000000 0.000000 0.000000 0.056386 0.000000 -0.007392
# 5 -0.004390 0.002493 0.007729 0.000000 0.029629 0.000000
# 6 0.000000 0.000000 0.000000 -0.007392 0.000000 0.044673
#
#
# Mechanical properties :
#
#
# Convention : Reuss Voigt Hill
#
# Bulk Modulus (GPa) = 24.06092 46.97486 35.51789
# Shear Modulus (GPa) = 21.39390 27.50720 24.45055
#
# Velocity S-wave (km/s) = 2.97925 3.37820 3.18498
# Velocity P-wave (km/s) = 4.67086 5.89112 5.31612
#
# Compressibility (1/GPa) = 0.04156117
#
# Stress axis : x y z
#
# Youngs Moduli (GPa) = 84.28794 52.89513 28.90522
#
# Poissons Ratio (x) = 0.36281 0.33617
# Poissons Ratio (y) = 0.57813 -0.19040
# Poissons Ratio (z) = 0.98029 -0.34843
#
# Static dielectric constant tensor:
#      x y z
#    x 2.031020 0.000000 0.067940 
#    y 0.000000 2.052530 0.000000 
#    z 0.067940 0.000000 2.000820 
# 
# From -- ./inp_files/177751.got.cif
#   From: 2010.05.17/outbox.cif.g08.bks.cpg/sg15_89_cif.got.tgz:177751.got - 2010.06.03 18:47:42.
