data_PCOD9264792
_publ_section_title
;
Structure prediction by ZEFSAII (Michael W. Deem and Ramdas Pophale) SiO2 
 PCOD9264792
Probable space group: C 2/C
;
_chemical_formula_sum "Si O2"
_cell_formula_units_Z 48
_cell_length_a 19.824731
_cell_length_b 7.143185
_cell_length_c 13.314618
_cell_angle_alpha 90.000000
_cell_angle_beta 92.072237
_cell_angle_gamma 90.000000
_cell_volume 1884.272911
_symmetry_space_group_name_H-M "C 2/C"
_symmetry_group_IT_number 15
_symmetry_cell_setting 'monoclinic'
loop_
_space_group_symop_operation_xyz
x,y,z
-x,y,1/2-z
-x,-y,-z
x,-y,1/2+z
1/2+x,1/2+y,z
1/2-x,1/2+y,1/2-z
1/2-x,1/2-y,-z
1/2+x,1/2-y,1/2+z
loop_
_atom_site_type_symbol
_atom_site_label
_atom_site_fract_x
_atom_site_fract_y
_atom_site_fract_z
Si Si1 0.249506 0.974084 0.490643
Si Si2 0.786762 0.439716 0.773660
Si Si3 0.337185 0.559334 0.848697
Si Si4 0.404522 0.766567 0.260246
Si Si5 0.599973 0.124759 0.956092
Si Si6 0.985906 0.391978 0.858340
O O1 0.250000 0.750000 0.500000
O O2 0.397108 0.572392 0.317504
O O3 0.182512 0.066843 0.536011
O O4 0.323241 0.053444 0.528016
O O5 0.731732 0.446239 0.685122
O O6 0.836177 0.612110 0.762255
O O7 0.747182 0.467339 0.874477
O O8 0.829362 0.250828 0.787408
O O9 0.500000 0.202603 0.250000
O O10 0.412859 0.742910 0.141032
O O11 0.453413 0.908379 0.322155
O O12 0.555408 0.941687 0.918828
O O13 0.565803 0.187992 0.060367
#
# Coordination Sequence:
#
# PCOD9264792 Si02
#       6
#     8   8   8   8   8   8
#     4  12  21  36  60  92 130 163 207 256 320 385
#     4  12  22  36  59  88 127 168 206 250 315 381
#     4  12  23  39  57  90 129 165 204 257 315 388
#     4  11  21  39  61  88 125 165 208 263 317 380
#     4  10  19  35  63  92 122 165 218 260 319 386
#     4   9  19  36  63  93 117 164 220 269 320 377
#
# _framework density 25.474018000000001
#
# number of rings (size 3 to 8) (size 9 to 14) (size 15 to 20)
#    0.000    1.000    6.667    0.500    0.000    0.000 
#    0.000    0.000    0.000   10.000    0.000    0.000 
#    0.000    0.000    0.000    0.000    0.000    0.000 
#
# Total GULP energy -134161.426664 kJ/mol
# GULP energy per Si atom -5590.059444 kJ/mol
# Density = 2.541604 g / cm^3
# Si number density = 25.474018 Si / 1000 Ang^3
#
#
#
# Elastic Constant Matrix: (Units=GPa)
#
#
# Indices 1 2 3 4 5 6 
#
# 1 70.0690 9.1458 23.3017 0.0000 -26.5153 0.0000
# 2 9.1458 114.1907 3.2546 0.0000 -17.5685 0.0000
# 3 23.3017 3.2546 126.2494 0.0000 -40.0642 0.0000
# 4 0.0000 0.0000 0.0000 27.4749 0.0000 -12.4071
# 5 -26.5153 -17.5685 -40.0642 0.0000 50.8996 0.0000
# 6 0.0000 0.0000 0.0000 -12.4071 0.0000 28.5256
#
#
#
# Elastic Compliance Matrix: (Units=1/GPa)
#
#
# Indices 1 2 3 4 5 6 
#
# 1 0.017796 -0.000044 -0.000462 0.000000 0.008892 0.000000
# 2 -0.000044 0.009351 0.001045 0.000000 0.004027 0.000000
# 3 -0.000462 0.001045 0.010687 0.000000 0.008532 0.000000
# 4 0.000000 0.000000 0.000000 0.045293 0.000000 0.019700
# 5 0.008892 0.004027 0.008532 0.000000 0.032384 0.000000
# 6 0.000000 0.000000 0.000000 0.019700 0.000000 0.043625
#
#
# Mechanical properties :
#
#
# Convention : Reuss Voigt Hill
#
# Bulk Modulus (GPa) = 25.69940 42.43482 34.06711
# Shear Modulus (GPa) = 29.23518 39.70049 34.46784
#
# Velocity S-wave (km/s) = 3.39137 3.95203 3.68239
# Velocity P-wave (km/s) = 5.04436 6.12527 5.61090
#
# Compressibility (1/GPa) = 0.03891142
#
# Stress axis : x y z
#
# Youngs Moduli (GPa) = 56.19331 106.94503 93.57493
#
# Poissons Ratio (x) = 0.00472 0.04320
# Poissons Ratio (y) = 0.00248 -0.09779
# Poissons Ratio (z) = 0.02594 -0.11176
#
# Static dielectric constant tensor:
#      x y z
#    x 2.146540 0.000000 -0.022350 
#    y 0.000000 2.025470 0.000000 
#    z -0.022350 0.000000 2.130150 
# 
# From -- ./inp_files/213127.got.cif
#   From: 2010.05.17/outbox.cif.g08.bks.cpg/sg15_107_cif.got.tgz:213127.got - 2010.06.03 18:47:42.
