data_PCOD9264037
_publ_section_title
;
Structure prediction by ZEFSAII (Michael W. Deem and Ramdas Pophale) SiO2 
 PCOD9264037
Probable space group: C 2/C
;
_chemical_formula_sum "Si O2"
_cell_formula_units_Z 40
_cell_length_a 15.413914
_cell_length_b 10.516029
_cell_length_c 12.310932
_cell_angle_alpha 90.000000
_cell_angle_beta 67.739322
_cell_angle_gamma 90.000000
_cell_volume 1846.791841
_symmetry_space_group_name_H-M "C 2/C"
_symmetry_group_IT_number 15
_symmetry_cell_setting 'monoclinic'
loop_
_space_group_symop_operation_xyz
x,y,z
-x,y,1/2-z
-x,-y,-z
x,-y,1/2+z
1/2+x,1/2+y,z
1/2-x,1/2+y,1/2-z
1/2-x,1/2-y,-z
1/2+x,1/2-y,1/2+z
loop_
_atom_site_type_symbol
_atom_site_label
_atom_site_fract_x
_atom_site_fract_y
_atom_site_fract_z
Si Si1 0.773124 0.925662 0.487418
Si Si2 0.258343 0.656959 0.758949
Si Si3 0.849504 0.172990 0.333182
Si Si4 0.907212 0.958565 0.603913
Si Si5 0.607582 0.051872 0.684182
O O1 0.885208 0.304062 0.368489
O O2 0.671230 0.957373 0.583970
O O3 0.771165 0.840542 0.381247
O O4 0.843858 0.883052 0.547600
O O5 0.317270 0.438268 0.927067
O O6 0.345756 0.579801 0.669440
O O7 0.165156 0.575380 0.769505
O O8 0.920186 0.121309 0.207573
O O9 0.759966 0.216149 0.301318
O O10 0.000000 0.000000 0.500000
O O11 0.500000 0.015795 0.750000
#
# Coordination Sequence:
#
# PCOD9264037 Si02
#       5
#     8   8   8   8   8
#     4  10  19  35  54  74 107 141 170 222 266 311
#     4   8  20  34  49  80 103 136 176 212 266 312
#     4   9  20  35  51  79 105 136 177 217 265 324
#     4  10  21  32  56  81 107 137 180 222 260 314
#     4   9  19  32  54  75 100 137 177 214 261 317
#
# _framework density 21.659182000000001
#
# number of rings (size 3 to 8) (size 9 to 14) (size 15 to 20)
#    1.200    1.600    0.000    0.600    2.800    4.000 
#    0.000    0.000    0.000    0.000    0.000    0.000 
#    0.000    0.000    0.000    0.000    0.000    0.000 
#
# Total GULP energy -111518.229159 kJ/mol
# GULP energy per Si atom -5575.911458 kJ/mol
# Density = 2.160988 g / cm^3
# Si number density = 21.659182 Si / 1000 Ang^3
#
#
#
# Elastic Constant Matrix: (Units=GPa)
#
#
# Indices 1 2 3 4 5 6 
#
# 1 107.6543 15.4857 50.6865 0.0000 -22.3853 0.0000
# 2 15.4857 47.9733 7.8959 0.0000 -3.3569 0.0000
# 3 50.6865 7.8959 84.5450 0.0000 -4.1453 0.0000
# 4 0.0000 0.0000 0.0000 26.6228 0.0000 -0.4742
# 5 -22.3853 -3.3569 -4.1453 0.0000 44.7208 0.0000
# 6 0.0000 0.0000 0.0000 -0.4742 0.0000 19.5809
#
#
#
# Elastic Compliance Matrix: (Units=1/GPa)
#
#
# Indices 1 2 3 4 5 6 
#
# 1 0.015041 -0.003014 -0.008416 0.000000 0.006523 0.000000
# 2 -0.003014 0.021863 -0.000230 0.000000 0.000111 0.000000
# 3 -0.008416 -0.000230 0.016764 0.000000 -0.002676 0.000000
# 4 0.000000 0.000000 0.000000 0.037578 0.000000 0.000910
# 5 0.006523 0.000111 -0.002676 0.000000 0.025386 0.000000
# 6 0.000000 0.000000 0.000000 0.000910 0.000000 0.051092
#
#
# Mechanical properties :
#
#
# Convention : Reuss Voigt Hill
#
# Bulk Modulus (GPa) = 32.94962 43.14542 38.04752
# Shear Modulus (GPa) = 24.85565 29.25852 27.05709
#
# Velocity S-wave (km/s) = 3.39127 3.67939 3.53827
# Velocity P-wave (km/s) = 5.52993 6.16555 5.85637
#
# Compressibility (1/GPa) = 0.03034937
#
# Stress axis : x y z
#
# Youngs Moduli (GPa) = 66.48277 45.73871 59.65138
#
# Poissons Ratio (x) = 0.13784 0.50205
# Poissons Ratio (y) = 0.20036 0.01370
# Poissons Ratio (z) = 0.55955 0.01050
#
# Static dielectric constant tensor:
#      x y z
#    x 1.785020 0.000000 0.020950 
#    y 0.000000 1.857270 0.000000 
#    z 0.020950 0.000000 1.776400 
# 
# From -- ./inp_files/95603.got.cif
#   From: 2010.05.17/outbox.cif.g08.bks.cpg/sg15_48_cif.got.tgz:95603.got - 2010.06.03 18:47:42.
