data_PCOD9264283
_publ_section_title
;
Structure prediction by ZEFSAII (Michael W. Deem and Ramdas Pophale) SiO2 
 PCOD9264283
Probable space group: C 2/C
;
_chemical_formula_sum "Si O2"
_cell_formula_units_Z 48
_cell_length_a 12.318203
_cell_length_b 28.664925
_cell_length_c 8.966242
_cell_angle_alpha 90.000000
_cell_angle_beta 128.021697
_cell_angle_gamma 90.000000
_cell_volume 2494.090605
_symmetry_space_group_name_H-M "C 2/C"
_symmetry_group_IT_number 15
_symmetry_cell_setting 'monoclinic'
loop_
_space_group_symop_operation_xyz
x,y,z
-x,y,1/2-z
-x,-y,-z
x,-y,1/2+z
1/2+x,1/2+y,z
1/2-x,1/2+y,1/2-z
1/2-x,1/2-y,-z
1/2+x,1/2-y,1/2+z
loop_
_atom_site_type_symbol
_atom_site_label
_atom_site_fract_x
_atom_site_fract_y
_atom_site_fract_z
Si Si1 0.399195 0.613169 0.417242
Si Si2 0.500000 0.015183 0.750000
Si Si3 0.421349 0.539300 0.840298
Si Si4 0.682290 0.701520 0.322520
Si Si5 0.187527 0.468838 0.664061
Si Si6 0.000000 0.822853 0.250000
Si Si7 0.585372 0.263483 0.045588
O O1 0.548285 0.587418 0.547581
O O2 0.369936 0.650643 0.265825
O O3 0.288556 0.572068 0.303876
O O4 0.399039 0.643789 0.568716
O O5 0.397132 0.043808 0.556245
O O6 0.586750 0.983048 0.711475
O O7 0.500000 0.543874 0.750000
O O8 0.272210 0.516531 0.696830
O O9 0.500000 0.500000 0.000000
O O10 0.669251 0.708565 0.488140
O O11 0.831861 0.714974 0.385145
O O12 0.570645 0.736227 0.149489
O O13 0.922546 0.790375 0.304795
#
# Coordination Sequence:
#
# PCOD9264283 Si02
#       7
#     8   4   8   8   8   4   8
#     4  10  20  35  58  88 117 140 203 261 295 347
#     4  10  22  40  57  74 114 176 192 231 300 378
#     4  10  19  35  57  87 114 151 190 255 303 346
#     4   9  19  39  59  86 115 158 200 246 297 374
#     4  10  21  40  57  81 119 158 203 243 304 364
#     4  10  20  36  57  94 120 150 190 255 308 356
#     4   9  19  37  59  81 122 160 189 243 308 359
#
# _framework density 19.245491999999999
#
# number of rings (size 3 to 8) (size 9 to 14) (size 15 to 20)
#    0.000    2.333    0.833    2.000    0.000    2.667 
#   36.000    5.833    0.000    0.000    0.000    0.000 
#    0.000    0.000    0.000    0.000    0.000    0.000 
#
# Total GULP energy -133619.879984 kJ/mol
# GULP energy per Si atom -5567.494999 kJ/mol
# Density = 1.920169 g / cm^3
# Si number density = 19.245492 Si / 1000 Ang^3
#
#
#
# Elastic Constant Matrix: (Units=GPa)
#
#
# Indices 1 2 3 4 5 6 
#
# 1 83.2976 37.4818 33.5049 0.0000 -1.8086 0.0000
# 2 37.4818 80.0521 31.0050 0.0000 -7.8663 0.0000
# 3 33.5049 31.0050 91.7638 0.0000 -15.0602 0.0000
# 4 0.0000 0.0000 0.0000 35.9413 0.0000 0.7519
# 5 -1.8086 -7.8663 -15.0602 0.0000 30.1665 0.0000
# 6 0.0000 0.0000 0.0000 0.7519 0.0000 14.4789
#
#
#
# Elastic Compliance Matrix: (Units=1/GPa)
#
#
# Indices 1 2 3 4 5 6 
#
# 1 0.016552 -0.006337 -0.004369 0.000000 -0.002841 0.000000
# 2 -0.006337 0.016857 -0.002966 0.000000 0.002535 0.000000
# 3 -0.004369 -0.002966 0.014514 0.000000 0.006211 0.000000
# 4 0.000000 0.000000 0.000000 0.027853 0.000000 -0.001446
# 5 -0.002841 0.002535 0.006211 0.000000 0.036741 0.000000
# 6 0.000000 0.000000 0.000000 -0.001446 0.000000 0.069141
#
#
# Mechanical properties :
#
#
# Convention : Reuss Voigt Hill
#
# Bulk Modulus (GPa) = 48.59090 51.01078 49.80084
# Shear Modulus (GPa) = 23.16306 26.32547 24.74426
#
# Velocity S-wave (km/s) = 3.47300 3.70249 3.58958
# Velocity P-wave (km/s) = 6.43312 6.69633 6.56604
#
# Compressibility (1/GPa) = 0.02057999
#
# Stress axis : x y z
#
# Youngs Moduli (GPa) = 60.41479 59.32325 68.89931
#
# Poissons Ratio (x) = 0.37594 0.30100
# Poissons Ratio (y) = 0.38286 0.20433
# Poissons Ratio (z) = 0.26393 0.17593
#
# Static dielectric constant tensor:
#      x y z
#    x 1.707760 0.000000 -0.023420 
#    y 0.000000 1.700080 0.000000 
#    z -0.023420 0.000000 1.839750 
# 
# From -- ./inp_files/33849.got.cif
#   From: 2010.05.17/outbox.cif.g08.bks.cpg/sg15_17_cif.got.tgz:33849.got - 2010.06.03 18:47:42.
