data_PCOD9264791
_publ_section_title
;
Structure prediction by ZEFSAII (Michael W. Deem and Ramdas Pophale) SiO2 
 PCOD9264791
Probable space group: C 2/C
;
_chemical_formula_sum "Si O2"
_cell_formula_units_Z 40
_cell_length_a 5.562470
_cell_length_b 13.845556
_cell_length_c 22.257760
_cell_angle_alpha 90.000000
_cell_angle_beta 113.756734
_cell_angle_gamma 90.000000
_cell_volume 1568.938728
_symmetry_space_group_name_H-M "C 2/C"
_symmetry_group_IT_number 15
_symmetry_cell_setting 'monoclinic'
loop_
_space_group_symop_operation_xyz
x,y,z
-x,y,1/2-z
-x,-y,-z
x,-y,1/2+z
1/2+x,1/2+y,z
1/2-x,1/2+y,1/2-z
1/2-x,1/2-y,-z
1/2+x,1/2-y,1/2+z
loop_
_atom_site_type_symbol
_atom_site_label
_atom_site_fract_x
_atom_site_fract_y
_atom_site_fract_z
Si Si1 0.266885 0.024615 0.260828
Si Si2 0.788604 0.403832 0.510160
Si Si3 0.310138 0.315365 0.286766
Si Si4 0.365693 0.736035 0.925611
Si Si5 0.494123 0.067994 0.904029
O O1 0.500000 0.078002 0.250000
O O2 0.191894 0.932933 0.211487
O O3 0.372465 0.974965 0.331880
O O4 0.000000 0.078856 0.250000
O O5 0.557659 0.326174 0.488083
O O6 0.775882 0.493112 0.553954
O O7 0.061784 0.345405 0.551005
O O8 0.808361 0.436373 0.443182
O O9 0.500000 0.292213 0.250000
O O10 0.420124 0.274280 0.360020
O O11 0.000000 0.290849 0.250000
O O12 0.093251 0.677785 0.905649
#
# Coordination Sequence:
#
# PCOD9264791 Si02
#       5
#     8   8   8   8   8
#     4  10  19  35  63  92 119 169 215 258 326 392
#     4  10  24  38  61  94 124 168 216 266 332 388
#     4  10  19  35  63  92 119 169 215 258 326 392
#     4  11  21  40  63  90 128 166 217 269 327 399
#     4  11  21  40  63  90 128 166 217 269 327 399
#
# _framework density 25.49494
#
# number of rings (size 3 to 8) (size 9 to 14) (size 15 to 20)
#    0.000    1.600    4.000    3.600    0.000    0.000 
#    0.000    2.000    0.000    0.000    0.000    0.000 
#    0.000    0.000    0.000    0.000    0.000    0.000 
#
# Total GULP energy -111770.258526 kJ/mol
# GULP energy per Si atom -5588.512926 kJ/mol
# Density = 2.543691 g / cm^3
# Si number density = 25.494940 Si / 1000 Ang^3
#
#
#
# Elastic Constant Matrix: (Units=GPa)
#
#
# Indices 1 2 3 4 5 6 
#
# 1 159.1052 14.5264 36.0944 0.0000 -5.1983 0.0000
# 2 14.5264 104.0937 1.4011 0.0000 0.3275 0.0000
# 3 36.0944 1.4011 105.8710 0.0000 -9.9073 0.0000
# 4 0.0000 0.0000 0.0000 -5.5152 0.0000 -9.0318
# 5 -5.1983 0.3275 -9.9073 0.0000 39.5181 0.0000
# 6 0.0000 0.0000 0.0000 -9.0318 0.0000 -2.4109
#
#
#
# Elastic Compliance Matrix: (Units=1/GPa)
#
#
# Indices 1 2 3 4 5 6 
#
# 1 0.006906 -0.000934 -0.002310 0.000000 0.000337 0.000000
# 2 -0.000934 0.009735 0.000175 0.000000 -0.000160 0.000000
# 3 -0.002310 0.000175 0.010447 0.000000 0.002314 0.000000
# 4 0.000000 0.000000 0.000000 0.035310 0.000000 -0.132282
# 5 0.000337 -0.000160 0.002314 0.000000 0.025931 0.000000
# 6 0.000000 0.000000 0.000000 -0.132282 0.000000 0.080777
#
#
# Mechanical properties :
#
#
# Convention : Reuss Voigt Hill
#
# Bulk Modulus (GPa) = 47.73496 52.56820 50.15158
# Shear Modulus (GPa) = 27.43820 27.45494 27.44657
#
# Velocity S-wave (km/s) = 3.28414 3.28514 3.28464
# Velocity P-wave (km/s) = 5.75715 5.92059 5.83944
#
# Compressibility (1/GPa) = 0.02094900
#
# Stress axis : x y z
#
# Youngs Moduli (GPa) = 144.81138 102.72033 95.71801
#
# Poissons Ratio (x) = 0.09590 0.22115
# Poissons Ratio (y) = 0.13520 -0.01671
# Poissons Ratio (z) = 0.33457 -0.01793
#
# Static dielectric constant tensor:
#      x y z
#    x 1.991090 0.000000 1.100030 
#    y 0.000000 1.999090 0.000000 
#    z 1.100030 0.000000 -3.657140 
# 
# From -- ./inp_files/184225.got.cif
#   From: 2010.05.17/outbox.cif.g08.bks.cpg/sg15_93_cif.got.tgz:184225.got - 2010.06.03 18:47:42.
