data_PCOD9264862
_publ_section_title
;
Structure prediction by ZEFSAII (Michael W. Deem and Ramdas Pophale) SiO2 
 PCOD9264862
Probable space group: C 2/C
;
_chemical_formula_sum "Si O2"
_cell_formula_units_Z 60
_cell_length_a 13.157958
_cell_length_b 21.949916
_cell_length_c 13.102853
_cell_angle_alpha 90.000000
_cell_angle_beta 34.318975
_cell_angle_gamma 90.000000
_cell_volume 2133.595036
_symmetry_space_group_name_H-M "C 2/C"
_symmetry_group_IT_number 15
_symmetry_cell_setting 'monoclinic'
loop_
_space_group_symop_operation_xyz
x,y,z
-x,y,1/2-z
-x,-y,-z
x,-y,1/2+z
1/2+x,1/2+y,z
1/2-x,1/2+y,1/2-z
1/2-x,1/2-y,-z
1/2+x,1/2-y,1/2+z
loop_
_atom_site_type_symbol
_atom_site_label
_atom_site_fract_x
_atom_site_fract_y
_atom_site_fract_z
Si Si1 0.383805 0.205855 0.554586
Si Si2 0.381722 0.385896 0.453466
Si Si3 0.267165 0.450543 0.844879
Si Si4 0.000000 0.316691 0.750000
Si Si5 0.481813 0.352261 0.933466
Si Si6 0.797493 0.515914 0.889894
Si Si7 0.771830 0.740368 0.142545
Si Si8 0.368660 0.928838 0.111856
O O1 0.432036 0.222548 0.401242
O O2 0.243347 0.249013 0.723437
O O3 0.534621 0.208490 0.520433
O O4 0.330596 0.136270 0.599457
O O5 0.500000 0.376494 0.250000
O O6 0.178997 0.356985 0.623221
O O7 0.474649 0.358070 0.480131
O O8 0.336940 0.458526 0.506120
O O9 0.447433 0.419029 0.657817
O O10 0.246733 0.523197 0.856520
O O11 0.241566 0.437956 0.984884
O O12 0.087422 0.434131 0.928577
O O13 0.622104 0.310334 0.749837
O O14 0.304337 0.308374 0.070783
O O15 0.813125 0.554742 0.773140
O O16 0.000000 0.492460 0.750000
#
# Coordination Sequence:
#
# PCOD9264862 Si02
#       8
#     8   8   8   4   8   8   8   8
#     4  11  22  40  60  86 120 164 208 260 314 374
#     4  12  23  39  59  90 129 163 205 259 316 387
#     4  10  19  35  66  90 120 162 206 256 324 376
#     4  12  22  38  60  86 122 166 210 252 312 378
#     4  11  21  43  60  89 124 166 209 263 312 379
#     4  10  21  37  63  92 123 163 209 253 321 391
#     4  10  23  40  61  86 121 169 212 257 312 376
#     4  10  19  36  61  91 121 158 203 261 322 377
#
# _framework density 28.121549000000002
#
# number of rings (size 3 to 8) (size 9 to 14) (size 15 to 20)
#    0.000    1.333    4.667    1.600    1.867    0.533 
#    7.200    1.333    0.000    4.800    0.000    0.000 
#    0.000    0.000    0.000    0.000    0.000    0.000 
#
# Total GULP energy -167506.414833 kJ/mol
# GULP energy per Si atom -5583.547161 kJ/mol
# Density = 2.805754 g / cm^3
# Si number density = 28.121549 Si / 1000 Ang^3
#
#
#
# Elastic Constant Matrix: (Units=GPa)
#
#
# Indices 1 2 3 4 5 6 
#
# 1 75.4498 -6.1585 27.2459 0.0160 -6.1722 -0.0234
# 2 -6.1585 92.5768 -3.7215 0.0024 2.4696 -0.0114
# 3 27.2459 -3.7215 119.1812 -0.0042 5.6479 -0.0006
# 4 0.0160 0.0024 -0.0042 48.4711 -0.0221 -0.9074
# 5 -6.1722 2.4696 5.6479 -0.0221 52.7469 0.0313
# 6 -0.0234 -0.0114 -0.0006 -0.9074 0.0313 2.9591
#
#
#
# Elastic Compliance Matrix: (Units=1/GPa)
#
#
# Indices 1 2 3 4 5 6 
#
# 1 0.014728 0.000787 -0.003440 -0.000002 0.002055 0.000096
# 2 0.000787 0.010873 0.000180 0.000000 -0.000436 0.000053
# 3 -0.003440 0.000180 0.009249 0.000001 -0.001401 -0.000009
# 4 -0.000002 0.000000 0.000001 0.020750 0.000005 0.006363
# 5 0.002055 -0.000436 -0.001401 0.000005 0.019370 -0.000189
# 6 0.000096 0.000053 -0.000009 0.006363 -0.000189 0.339892
#
#
# Mechanical properties :
#
#
# Convention : Reuss Voigt Hill
#
# Bulk Modulus (GPa) = 33.43939 35.77105 34.60522
# Shear Modulus (GPa) = 11.63396 38.82488 25.22942
#
# Velocity S-wave (km/s) = 2.03618 3.71969 2.99851
# Velocity P-wave (km/s) = 4.17670 5.58533 4.93157
#
# Compressibility (1/GPa) = 0.02990485
#
# Stress axis : x y z
#
# Youngs Moduli (GPa) = 67.89617 91.97027 108.11976
#
# Poissons Ratio (x) = -0.07235 0.37192
# Poissons Ratio (y) = -0.05341 -0.01950
# Poissons Ratio (z) = 0.23355 -0.01659
#
# Static dielectric constant tensor:
#      x y z
#    x 2.207470 0.000000 -0.043350 
#    y 0.000000 2.264240 0.000000 
#    z -0.043350 0.000000 2.336070 
# 
# From -- ./inp_files/164078.got.cif
#   From: 2010.05.17/outbox.cif.g08.bks.cpg/sg15_83_cif.got.tgz:164078.got - 2010.06.03 18:47:42.
