data_PCOD9264029
_publ_section_title
;
Structure prediction by ZEFSAII (Michael W. Deem and Ramdas Pophale) SiO2 
 PCOD9264029
Probable space group: C 2/C
;
_chemical_formula_sum "Si O2"
_cell_formula_units_Z 64
_cell_length_a 20.487266
_cell_length_b 10.546535
_cell_length_c 13.825273
_cell_angle_alpha 90.000000
_cell_angle_beta 75.001557
_cell_angle_gamma 90.000000
_cell_volume 2885.456029
_symmetry_space_group_name_H-M "C 2/C"
_symmetry_group_IT_number 15
_symmetry_cell_setting 'monoclinic'
loop_
_space_group_symop_operation_xyz
x,y,z
-x,y,1/2-z
-x,-y,-z
x,-y,1/2+z
1/2+x,1/2+y,z
1/2-x,1/2+y,1/2-z
1/2-x,1/2-y,-z
1/2+x,1/2-y,1/2+z
loop_
_atom_site_type_symbol
_atom_site_label
_atom_site_fract_x
_atom_site_fract_y
_atom_site_fract_z
Si Si1 0.689487 0.658361 0.752515
Si Si2 0.949556 0.774322 0.687390
Si Si3 0.797648 0.462139 0.350692
Si Si4 0.462569 0.568536 0.667016
Si Si5 0.639338 0.923768 0.844236
Si Si6 0.966499 0.734473 0.004790
Si Si7 0.750812 0.536691 0.557200
Si Si8 0.150552 0.796150 0.607207
O O1 0.738790 0.574785 0.799516
O O2 0.615725 0.599063 0.788960
O O3 0.682961 0.798567 0.798313
O O4 0.715813 0.646106 0.633441
O O5 0.880266 0.792208 0.771778
O O6 0.000000 0.723117 0.750000
O O7 0.967813 0.697786 0.583913
O O8 0.971308 0.918467 0.653299
O O9 0.860427 0.500532 0.257819
O O10 0.772790 0.562328 0.439166
O O11 0.810715 0.336726 0.409357
O O12 0.500000 0.608092 0.750000
O O13 0.486308 0.651940 0.568533
O O14 0.569739 0.872949 0.916452
O O15 0.682610 0.997527 0.907535
O O16 0.907620 0.783376 0.952537
O O17 0.696350 0.420017 0.577279
#
# Coordination Sequence:
#
# PCOD9264029 Si02
#       8
#     8   8   8   8   8   8   8   8
#     4  10  21  36  57  85 120 150 186 233 282 350
#     4   9  19  33  56  89 117 146 192 238 277 338
#     4  11  22  35  60  85 114 154 189 236 283 345
#     4  10  19  35  53  86 121 153 182 230 288 343
#     4  10  21  37  56  84 117 151 191 229 287 350
#     4  10  20  36  61  80 115 152 193 235 288 334
#     4  11  19  35  57  85 119 148 186 233 294 335
#     4  11  19  36  59  89 113 146 192 238 287 339
#
# _framework density 22.180202999999999
#
# number of rings (size 3 to 8) (size 9 to 14) (size 15 to 20)
#    0.000    1.750    3.750    2.250    0.000    0.500 
#    2.250    0.625   11.000    9.000    0.000    0.000 
#    0.000    0.000    0.000    0.000    0.000    0.000 
#
# Total GULP energy -178592.043953 kJ/mol
# GULP energy per Si atom -5581.001374 kJ/mol
# Density = 2.212972 g / cm^3
# Si number density = 22.180203 Si / 1000 Ang^3
#
#
#
# Elastic Constant Matrix: (Units=GPa)
#
#
# Indices 1 2 3 4 5 6 
#
# 1 32.7396 -3.6046 14.4284 0.0000 -2.5319 0.0000
# 2 -3.6046 44.9254 29.8042 0.0000 -4.6658 0.0000
# 3 14.4284 29.8042 133.0081 0.0000 -16.2776 0.0000
# 4 0.0000 0.0000 0.0000 22.0739 0.0000 -8.8130
# 5 -2.5319 -4.6658 -16.2776 0.0000 34.5009 0.0000
# 6 0.0000 0.0000 0.0000 -8.8130 0.0000 1.6102
#
#
#
# Elastic Compliance Matrix: (Units=1/GPa)
#
#
# Indices 1 2 3 4 5 6 
#
# 1 0.033418 0.006000 -0.004850 0.000000 0.000976 0.000000
# 2 0.006000 0.027245 -0.006634 0.000000 0.000995 0.000000
# 3 -0.004850 -0.006634 0.009952 0.000000 0.003442 0.000000
# 4 0.000000 0.000000 0.000000 -0.038224 0.000000 -0.209208
# 5 0.000976 0.000995 0.003442 0.000000 0.030815 0.000000
# 6 0.000000 0.000000 0.000000 -0.209208 0.000000 -0.524000
#
#
# Mechanical properties :
#
#
# Convention : Reuss Voigt Hill
#
# Bulk Modulus (GPa) = 16.76535 32.43658 24.60096
# Shear Modulus (GPa) = -11.62944 22.97333 5.67195
#
# Velocity S-wave (km/s) = -2.29228 3.22181 1.60086
# Velocity P-wave (km/s) = 0.75435 5.33816 3.81215
#
# Compressibility (1/GPa) = 0.05964684
#
# Stress axis : x y z
#
# Youngs Moduli (GPa) = 29.92437 36.70381 100.47890
#
# Poissons Ratio (x) = -0.22023 0.48734
# Poissons Ratio (y) = -0.17955 0.66660
# Poissons Ratio (z) = 0.14514 0.24350
#
# Static dielectric constant tensor:
#      x y z
#    x 1.786000 0.000000 -0.047630 
#    y 0.000000 1.854300 0.000000 
#    z -0.047630 0.000000 1.886000 
# 
# From -- ./inp_files/117572.got.cif
#   From: 2010.05.17/outbox.cif.g08.bks.cpg/sg15_59_cif.got.tgz:117572.got - 2010.06.03 18:47:42.
