data_PCOD9264830
_publ_section_title
;
Structure prediction by ZEFSAII (Michael W. Deem and Ramdas Pophale) SiO2 
 PCOD9264830
Probable space group: C 2/C
;
_chemical_formula_sum "Si O2"
_cell_formula_units_Z 44
_cell_length_a 16.132480
_cell_length_b 7.987025
_cell_length_c 17.603757
_cell_angle_alpha 90.000000
_cell_angle_beta 65.181730
_cell_angle_gamma 90.000000
_cell_volume 2058.765740
_symmetry_space_group_name_H-M "C 2/C"
_symmetry_group_IT_number 15
_symmetry_cell_setting 'monoclinic'
loop_
_space_group_symop_operation_xyz
x,y,z
-x,y,1/2-z
-x,-y,-z
x,-y,1/2+z
1/2+x,1/2+y,z
1/2-x,1/2+y,1/2-z
1/2-x,1/2-y,-z
1/2+x,1/2-y,1/2+z
loop_
_atom_site_type_symbol
_atom_site_label
_atom_site_fract_x
_atom_site_fract_y
_atom_site_fract_z
Si Si1 0.000000 0.080860 0.250000
Si Si2 0.945942 0.336778 0.387107
Si Si3 0.882965 0.036911 0.500889
Si Si4 0.413411 0.011584 0.092007
Si Si5 0.203911 0.430401 0.502036
Si Si6 0.440534 0.381622 0.131546
O O1 0.936327 0.206764 0.322378
O O2 0.944769 0.964108 0.212455
O O3 0.923971 0.219274 0.467880
O O4 0.881291 0.499742 0.414914
O O5 0.051419 0.388561 0.355338
O O6 0.882588 0.014341 0.591391
O O7 0.787573 0.043947 0.495911
O O8 0.954067 0.903057 0.438782
O O9 0.407981 0.192108 0.134079
O O10 0.329069 0.954864 0.072097
O O11 0.500000 0.000000 0.000000
O O12 0.250000 0.250000 0.500000
#
# Coordination Sequence:
#
# PCOD9264830 Si02
#       6
#     4   8   8   8   8   8
#     4  10  24  38  62  86 124 178 210 248 320 398
#     4  10  21  39  62  90 126 163 209 256 316 373
#     4  10  19  35  64  93 118 153 212 271 302 357
#     4  10  19  36  60  94 120 154 205 264 305 361
#     4  11  22  33  62 101 123 150 209 278 316 351
#     4  10  20  36  63  88 124 163 211 252 316 373
#
# _framework density 21.372028
#
# number of rings (size 3 to 8) (size 9 to 14) (size 15 to 20)
#    0.000    1.818    3.636    2.727    5.091    0.727 
#    0.000    0.000    8.000    0.000    0.000    0.000 
#    0.000    0.000    0.000    0.000    0.000    0.000 
#
# Total GULP energy -122471.686170 kJ/mol
# GULP energy per Si atom -5566.894826 kJ/mol
# Density = 2.132338 g / cm^3
# Si number density = 21.372028 Si / 1000 Ang^3
#
#
#
# Elastic Constant Matrix: (Units=GPa)
#
#
# Indices 1 2 3 4 5 6 
#
# 1 184.2678 65.0678 32.0204 0.0000 21.9606 0.0000
# 2 65.0678 140.5349 34.3542 0.0000 24.7511 0.0000
# 3 32.0204 34.3542 45.1125 0.0000 31.2675 0.0000
# 4 0.0000 0.0000 0.0000 30.1824 0.0000 6.2305
# 5 21.9606 24.7511 31.2675 0.0000 27.5433 0.0000
# 6 0.0000 0.0000 0.0000 6.2305 0.0000 43.8625
#
#
#
# Elastic Compliance Matrix: (Units=1/GPa)
#
#
# Indices 1 2 3 4 5 6 
#
# 1 0.006802 -0.002425 -0.003437 0.000000 0.000658 0.000000
# 2 -0.002425 0.009619 -0.004470 0.000000 -0.001636 0.000000
# 3 -0.003437 -0.004470 0.109423 0.000000 -0.117461 0.000000
# 4 0.000000 0.000000 0.000000 0.034133 0.000000 -0.004848
# 5 0.000658 -0.001636 -0.117461 0.000000 0.170595 0.000000
# 6 0.000000 0.000000 0.000000 -0.004848 0.000000 0.023487
#
#
# Mechanical properties :
#
#
# Convention : Reuss Voigt Hill
#
# Bulk Modulus (GPa) = 9.50755 70.31111 39.90933
# Shear Modulus (GPa) = 12.20155 36.21583 24.20869
#
# Velocity S-wave (km/s) = 2.39197 4.12095 3.36925
# Velocity P-wave (km/s) = 3.47663 7.45742 5.81807
#
# Compressibility (1/GPa) = 0.10517954
#
# Stress axis : x y z
#
# Youngs Moduli (GPa) = 147.01373 103.95744 9.13886
#
# Poissons Ratio (x) = 0.25209 0.03141
# Poissons Ratio (y) = 0.35650 0.04085
# Poissons Ratio (z) = 0.50535 0.46469
#
# Static dielectric constant tensor:
#      x y z
#    x 1.863590 0.000000 0.050420 
#    y 0.000000 1.925700 0.000000 
#    z 0.050420 0.000000 1.852690 
# 
# From -- ./inp_files/242261.got.cif
#   From: 2010.05.17/outbox.cif.g08.bks.cpg/sg15_122_cif.got.tgz:242261.got - 2010.06.03 18:47:42.
