data_PCOD9264750
_publ_section_title
;
Structure prediction by ZEFSAII (Michael W. Deem and Ramdas Pophale) SiO2 
 PCOD9264750
Probable space group: C 2/C
;
_chemical_formula_sum "Si O2"
_cell_formula_units_Z 48
_cell_length_a 17.976084
_cell_length_b 8.440060
_cell_length_c 16.375304
_cell_angle_alpha 90.000000
_cell_angle_beta 49.098438
_cell_angle_gamma 90.000000
_cell_volume 1877.834651
_symmetry_space_group_name_H-M "C 2/C"
_symmetry_group_IT_number 15
_symmetry_cell_setting 'monoclinic'
loop_
_space_group_symop_operation_xyz
x,y,z
-x,y,1/2-z
-x,-y,-z
x,-y,1/2+z
1/2+x,1/2+y,z
1/2-x,1/2+y,1/2-z
1/2-x,1/2-y,-z
1/2+x,1/2-y,1/2+z
loop_
_atom_site_type_symbol
_atom_site_label
_atom_site_fract_x
_atom_site_fract_y
_atom_site_fract_z
Si Si1 0.742315 0.263754 0.365742
Si Si2 0.161694 0.483126 0.610950
Si Si3 0.744948 0.915006 0.396442
Si Si4 0.098021 0.744126 0.890393
Si Si5 0.408588 0.414225 0.138514
Si Si6 0.965826 0.575338 0.146616
O O1 0.805737 0.338304 0.392781
O O2 0.815645 0.239709 0.238822
O O3 0.664368 0.386450 0.385453
O O4 0.700172 0.091509 0.413731
O O5 0.248790 0.413265 0.491945
O O6 0.129441 0.420619 0.723780
O O7 0.062378 0.454691 0.631243
O O8 0.666146 0.789836 0.420054
O O9 0.843596 0.914562 0.270117
O O10 0.046958 0.580096 0.899877
O O11 0.045034 0.912066 0.909654
O O12 0.468963 0.248173 0.101239
#
# Coordination Sequence:
#
# PCOD9264750 Si02
#       6
#     8   8   8   8   8   8
#     4   9  18  36  60  89 118 156 205 255 299 364
#     4  10  22  36  61  90 127 157 197 262 323 354
#     4  10  19  35  62  95 115 156 211 262 294 361
#     4   9  19  35  62  86 112 162 207 238 301 373
#     4  10  20  38  64  86 117 162 213 244 295 380
#     4  10  21  42  59  82 127 167 192 249 324 373
#
# _framework density 25.561356
#
# number of rings (size 3 to 8) (size 9 to 14) (size 15 to 20)
#    0.000    2.333    1.667    0.500    7.000    1.333 
#    0.000   10.833    0.000    0.000    0.000    0.000 
#    0.000    0.000    0.000    0.000    0.000    0.000 
#
# Total GULP energy -133894.220810 kJ/mol
# GULP energy per Si atom -5578.925867 kJ/mol
# Density = 2.550318 g / cm^3
# Si number density = 25.561356 Si / 1000 Ang^3
#
#
#
# Elastic Constant Matrix: (Units=GPa)
#
#
# Indices 1 2 3 4 5 6 
#
# 1 63.9315 41.0677 8.6905 0.0000 1.2542 0.0000
# 2 41.0677 182.3064 61.7663 -0.0001 2.1453 0.0001
# 3 8.6905 61.7663 95.8283 0.0000 9.4475 0.0000
# 4 0.0000 -0.0001 0.0000 37.7055 0.0000 -5.0310
# 5 1.2542 2.1453 9.4475 0.0000 20.3989 -0.0001
# 6 0.0000 0.0001 0.0000 -5.0310 -0.0001 32.9925
#
#
#
# Elastic Compliance Matrix: (Units=1/GPa)
#
#
# Indices 1 2 3 4 5 6 
#
# 1 0.018444 -0.004627 0.001439 0.000000 -0.001314 0.000000
# 2 -0.004627 0.008218 -0.005051 0.000000 0.001759 0.000000
# 3 0.001439 -0.005051 0.014163 0.000000 -0.006117 0.000000
# 4 0.000000 0.000000 0.000000 0.027072 0.000000 0.004128
# 5 -0.001314 0.001759 -0.006117 0.000000 0.051751 0.000000
# 6 0.000000 0.000000 0.000000 0.004128 0.000000 0.030939
#
#
# Mechanical properties :
#
#
# Convention : Reuss Voigt Hill
#
# Bulk Modulus (GPa) = 41.07053 62.79059 51.93056
# Shear Modulus (GPa) = 28.54180 33.58882 31.06531
#
# Velocity S-wave (km/s) = 3.34518 3.62891 3.48993
# Velocity P-wave (km/s) = 5.56980 6.49435 6.04976
#
# Compressibility (1/GPa) = 0.02434836
#
# Stress axis : x y z
#
# Youngs Moduli (GPa) = 54.21780 121.68203 70.60446
#
# Poissons Ratio (x) = 0.56302 -0.10162
# Poissons Ratio (y) = 0.25087 0.35661
# Poissons Ratio (z) = -0.07803 0.61460
#
# Static dielectric constant tensor:
#      x y z
#    x 1.928940 0.000000 -0.014970 
#    y 0.000000 2.076760 0.000000 
#    z -0.014970 0.000000 2.169270 
# 
# From -- ./inp_files/213722.got.cif
#   From: 2010.05.17/outbox.cif.g08.bks.cpg/sg15_107_cif.got.tgz:213722.got - 2010.06.03 18:47:42.
