data_PCOD9264996
_publ_section_title
;
Structure prediction by ZEFSAII (Michael W. Deem and Ramdas Pophale) SiO2 
 PCOD9264996
Probable space group: C 2/C
;
_chemical_formula_sum "Si O2"
_cell_formula_units_Z 56
_cell_length_a 22.239410
_cell_length_b 13.757400
_cell_length_c 9.538946
_cell_angle_alpha 90.000000
_cell_angle_beta 114.594420
_cell_angle_gamma 90.000000
_cell_volume 2653.725839
_symmetry_space_group_name_H-M "C 2/C"
_symmetry_group_IT_number 15
_symmetry_cell_setting 'monoclinic'
loop_
_space_group_symop_operation_xyz
x,y,z
-x,y,1/2-z
-x,-y,-z
x,-y,1/2+z
1/2+x,1/2+y,z
1/2-x,1/2+y,1/2-z
1/2-x,1/2-y,-z
1/2+x,1/2-y,1/2+z
loop_
_atom_site_type_symbol
_atom_site_label
_atom_site_fract_x
_atom_site_fract_y
_atom_site_fract_z
Si Si1 0.336812 0.443341 0.434391
Si Si2 0.125616 0.416038 0.860152
Si Si3 0.095942 0.207786 0.832535
Si Si4 0.276813 0.590873 0.592786
Si Si5 0.938618 0.434606 0.997814
Si Si6 0.054400 0.916825 0.547622
Si Si7 0.050646 0.209296 0.466206
O O1 0.305816 0.497307 0.537120
O O2 0.378061 0.522624 0.381169
O O3 0.388712 0.358643 0.530390
O O4 0.282740 0.410685 0.267699
O O5 0.088573 0.318111 0.874375
O O6 0.202023 0.402023 0.970442
O O7 0.111675 0.424956 0.681796
O O8 0.095148 0.506760 0.910228
O O9 0.067607 0.200624 0.649480
O O10 0.173008 0.177087 0.901944
O O11 0.062093 0.134834 0.905833
O O12 0.952329 0.324358 0.062076
O O13 0.000000 0.500000 0.000000
O O14 0.022551 0.837750 0.621478
O O15 0.000000 0.000000 0.500000
#
# Coordination Sequence:
#
# PCOD9264996 Si02
#       7
#     8   8   8   8   8   8   8
#     4   9  19  34  55  82 111 139 176 222 269 324
#     4  11  22  38  59  80 107 146 183 224 270 316
#     4   9  18  32  56  82 107 141 186 224 263 322
#     4  10  19  36  56  82 110 140 179 223 268 323
#     4  11  23  39  57  80 107 141 185 228 268 320
#     4   9  16  29  52  82 109 137 171 219 271 314
#     4   9  18  34  54  78 110 146 180 220 272 325
#
# _framework density 21.102406999999999
#
# number of rings (size 3 to 8) (size 9 to 14) (size 15 to 20)
#    0.000    2.286    0.000    3.000    0.000    3.429 
#    0.000    8.571    0.000    0.000    0.000    0.000 
#    0.000    0.000    0.000    0.000    0.000    0.000 
#
# Total GULP energy -156140.865401 kJ/mol
# GULP energy per Si atom -5576.459479 kJ/mol
# Density = 2.105438 g / cm^3
# Si number density = 21.102407 Si / 1000 Ang^3
#
#
#
# Elastic Constant Matrix: (Units=GPa)
#
#
# Indices 1 2 3 4 5 6 
#
# 1 47.0081 17.3012 9.9144 0.0000 7.2832 0.0000
# 2 17.3012 141.7267 16.9822 0.0000 -6.5427 0.0000
# 3 9.9144 16.9822 89.2948 0.0000 11.3812 0.0000
# 4 0.0000 0.0000 0.0000 19.2170 0.0000 -7.3359
# 5 7.2832 -6.5427 11.3812 0.0000 33.8063 0.0000
# 6 0.0000 0.0000 0.0000 -7.3359 0.0000 21.0740
#
#
#
# Elastic Compliance Matrix: (Units=1/GPa)
#
#
# Indices 1 2 3 4 5 6 
#
# 1 0.023443 -0.002933 -0.001389 0.000000 -0.005151 0.000000
# 2 -0.002933 0.007712 -0.001475 0.000000 0.002621 0.000000
# 3 -0.001389 -0.001475 0.012153 0.000000 -0.004078 0.000000
# 4 0.000000 0.000000 0.000000 0.060012 0.000000 0.020890
# 5 -0.005151 0.002621 -0.004078 0.000000 0.032570 0.000000
# 6 0.000000 0.000000 0.000000 0.020890 0.000000 0.054724
#
#
# Mechanical properties :
#
#
# Convention : Reuss Voigt Hill
#
# Bulk Modulus (GPa) = 31.53110 40.71393 36.12252
# Shear Modulus (GPa) = 23.49851 30.40825 26.95338
#
# Velocity S-wave (km/s) = 3.34060 3.80015 3.57776
# Velocity P-wave (km/s) = 5.46387 6.21210 5.84996
#
# Compressibility (1/GPa) = 0.03171472
#
# Stress axis : x y z
#
# Youngs Moduli (GPa) = 42.65596 129.67409 82.28221
#
# Poissons Ratio (x) = 0.38037 0.11425
# Poissons Ratio (y) = 0.12512 0.12137
# Poissons Ratio (z) = 0.05923 0.19127
#
# Static dielectric constant tensor:
#      x y z
#    x 1.761780 0.000000 0.029970 
#    y 0.000000 1.790030 0.000000 
#    z 0.029970 0.000000 1.770310 
# 
# From -- ./inp_files/117672.got.cif
#   From: 2010.05.17/outbox.cif.g08.bks.cpg/sg15_59_cif.got.tgz:117672.got - 2010.06.03 18:47:42.
