data_PCOD9264322
_publ_section_title
;
Structure prediction by ZEFSAII (Michael W. Deem and Ramdas Pophale) SiO2 
 PCOD9264322
Probable space group: C 2/C
;
_chemical_formula_sum "Si O2"
_cell_formula_units_Z 56
_cell_length_a 15.180336
_cell_length_b 11.564049
_cell_length_c 18.332982
_cell_angle_alpha 90.000000
_cell_angle_beta 75.347786
_cell_angle_gamma 90.000000
_cell_volume 3113.622750
_symmetry_space_group_name_H-M "C 2/C"
_symmetry_group_IT_number 15
_symmetry_cell_setting 'monoclinic'
loop_
_space_group_symop_operation_xyz
x,y,z
-x,y,1/2-z
-x,-y,-z
x,-y,1/2+z
1/2+x,1/2+y,z
1/2-x,1/2+y,1/2-z
1/2-x,1/2-y,-z
1/2+x,1/2-y,1/2+z
loop_
_atom_site_type_symbol
_atom_site_label
_atom_site_fract_x
_atom_site_fract_y
_atom_site_fract_z
Si Si1 0.922463 0.587314 0.440285
Si Si2 0.296214 0.885635 0.405861
Si Si3 0.603638 0.486260 0.208726
Si Si4 0.303553 0.378940 0.930583
Si Si5 0.899044 0.285931 0.802171
Si Si6 0.872756 0.503658 0.096027
Si Si7 0.776522 0.486619 0.761698
O O1 0.874949 0.472557 0.416690
O O2 0.898899 0.687651 0.388649
O O3 0.885228 0.593238 0.530670
O O4 0.030396 0.566729 0.419168
O O5 0.326455 0.753151 0.407410
O O6 0.212021 0.896943 0.480198
O O7 0.271758 0.924898 0.329846
O O8 0.500000 0.511534 0.250000
O O9 0.628073 0.535701 0.124147
O O10 0.618325 0.348324 0.208041
O O11 0.677259 0.538193 0.249393
O O12 0.204613 0.408623 0.916530
O O13 0.827049 0.371021 0.779128
O O14 0.000000 0.314189 0.750000
O O15 0.837234 0.464229 0.182063
#
# Coordination Sequence:
#
# PCOD9264322 Si02
#       7
#     8   8   8   8   8   8   8
#     4   9  17  32  53  88 106 140 180 229 270 327
#     4   9  19  34  59  78 109 143 183 221 277 327
#     4  10  23  38  56  79 114 149 185 226 274 326
#     4   9  19  38  53  77 110 152 176 219 274 338
#     4  10  19  35  58  81 110 148 184 222 276 336
#     4   9  17  31  55  79 114 135 180 225 272 318
#     4  10  20  34  56  83 106 144 189 228 271 330
#
# _framework density 17.985481
#
# number of rings (size 3 to 8) (size 9 to 14) (size 15 to 20)
#    0.000    2.571    1.429    0.000    4.000    0.000 
#    2.571   12.143    0.000    0.000    0.000    0.000 
#    0.000    0.000    0.000    0.000    0.000    0.000 
#
# Total GULP energy -156037.162416 kJ/mol
# GULP energy per Si atom -5572.755801 kJ/mol
# Density = 1.794454 g / cm^3
# Si number density = 17.985481 Si / 1000 Ang^3
#
#
#
# Elastic Constant Matrix: (Units=GPa)
#
#
# Indices 1 2 3 4 5 6 
#
# 1 71.0696 22.9477 39.0367 0.0000 -13.5940 0.0000
# 2 22.9477 47.5374 30.6440 0.0000 -10.9580 0.0000
# 3 39.0367 30.6440 148.5800 0.0000 4.2881 0.0000
# 4 0.0000 0.0000 0.0000 20.0876 0.0000 -7.8729
# 5 -13.5940 -10.9580 4.2881 0.0000 22.3908 0.0000
# 6 0.0000 0.0000 0.0000 -7.8729 0.0000 12.5469
#
#
#
# Elastic Compliance Matrix: (Units=1/GPa)
#
#
# Indices 1 2 3 4 5 6 
#
# 1 0.020140 -0.004076 -0.004772 0.000000 0.011147 0.000000
# 2 -0.004076 0.029463 -0.005380 0.000000 0.012974 0.000000
# 3 -0.004772 -0.005380 0.009305 0.000000 -0.007312 0.000000
# 4 0.000000 0.000000 0.000000 0.066017 0.000000 0.041425
# 5 0.011147 0.012974 -0.007312 0.000000 0.059179 0.000000
# 6 0.000000 0.000000 0.000000 0.041425 0.000000 0.105694
#
#
# Mechanical properties :
#
#
# Convention : Reuss Voigt Hill
#
# Bulk Modulus (GPa) = 32.84046 50.27154 41.55600
# Shear Modulus (GPa) = 15.22504 22.64231 18.93368
#
# Velocity S-wave (km/s) = 2.91266 3.55198 3.24808
# Velocity P-wave (km/s) = 5.44155 6.69581 6.10100
#
# Compressibility (1/GPa) = 0.03045025
#
# Stress axis : x y z
#
# Youngs Moduli (GPa) = 49.65126 33.94112 107.47011
#
# Poissons Ratio (x) = 0.13836 0.51290
# Poissons Ratio (y) = 0.20240 0.57819
# Poissons Ratio (z) = 0.23696 0.18260
#
# Static dielectric constant tensor:
#      x y z
#    x 1.607640 0.000000 0.016360 
#    y 0.000000 1.586170 0.000000 
#    z 0.016360 0.000000 1.664730 
# 
# From -- ./inp_files/203938.got.cif
#   From: 2010.05.17/outbox.cif.g08.bks.cpg/sg15_102_cif.got.tgz:203938.got - 2010.06.03 18:47:42.
