data_PCOD9264570
_publ_section_title
;
Structure prediction by ZEFSAII (Michael W. Deem and Ramdas Pophale) SiO2 
 PCOD9264570
Probable space group: C 2/C
;
_chemical_formula_sum "Si O2"
_cell_formula_units_Z 48
_cell_length_a 17.771722
_cell_length_b 7.101195
_cell_length_c 23.919976
_cell_angle_alpha 90.000000
_cell_angle_beta 130.261803
_cell_angle_gamma 90.000000
_cell_volume 2303.577212
_symmetry_space_group_name_H-M "C 2/C"
_symmetry_group_IT_number 15
_symmetry_cell_setting 'monoclinic'
loop_
_space_group_symop_operation_xyz
x,y,z
-x,y,1/2-z
-x,-y,-z
x,-y,1/2+z
1/2+x,1/2+y,z
1/2-x,1/2+y,1/2-z
1/2-x,1/2-y,-z
1/2+x,1/2-y,1/2+z
loop_
_atom_site_type_symbol
_atom_site_label
_atom_site_fract_x
_atom_site_fract_y
_atom_site_fract_z
Si Si1 0.875434 0.869544 0.494639
Si Si2 0.304552 0.955114 0.454597
Si Si3 0.305352 0.089991 0.825363
Si Si4 0.396242 0.261789 0.308522
Si Si5 0.110856 0.811367 0.409210
Si Si6 0.904581 0.063869 0.403700
O O1 0.814381 0.679192 0.471237
O O2 0.990247 0.840358 0.532319
O O3 0.883688 0.990652 0.554548
O O4 0.842148 0.009451 0.428670
O O5 0.334728 0.946118 0.404049
O O6 0.199835 0.846817 0.409243
O O7 0.366423 0.848564 0.532900
O O8 0.188517 0.120979 0.763348
O O9 0.351442 0.293814 0.836865
O O10 0.351739 0.938420 0.805790
O O11 0.504108 0.264669 0.332732
O O12 0.417461 0.370218 0.376927
#
# Coordination Sequence:
#
# PCOD9264570 Si02
#       6
#     8   8   8   8   8   8
#     4  10  19  35  60  86 116 147 197 246 293 350
#     4  11  22  37  61  87 117 157 195 243 304 361
#     4  12  22  37  61  85 117 155 200 245 302 353
#     4  11  23  38  58  85 119 155 197 249 295 356
#     4  10  23  39  56  88 121 154 195 243 301 361
#     4  10  20  34  57  90 114 145 195 251 294 341
#
# _framework density 20.837156
#
# number of rings (size 3 to 8) (size 9 to 14) (size 15 to 20)
#    0.000    1.333    5.000    1.500    0.000    2.000 
#    0.000    0.000    0.000    0.000    0.000    0.000 
#    0.000    0.000    0.000    0.000    0.000    0.000 
#
# Total GULP energy -133666.988880 kJ/mol
# GULP energy per Si atom -5569.457870 kJ/mol
# Density = 2.078973 g / cm^3
# Si number density = 20.837156 Si / 1000 Ang^3
#
#
#
# Elastic Constant Matrix: (Units=GPa)
#
#
# Indices 1 2 3 4 5 6 
#
# 1 47.4289 24.2563 6.6765 0.0000 13.2983 0.0000
# 2 24.2563 110.5453 24.7958 0.0000 11.5999 0.0000
# 3 6.6765 24.7958 52.1544 0.0000 19.8805 0.0000
# 4 0.0000 0.0000 0.0000 26.3330 0.0000 1.2413
# 5 13.2983 11.5999 19.8805 0.0000 34.4971 0.0000
# 6 0.0000 0.0000 0.0000 1.2413 0.0000 21.0178
#
#
#
# Elastic Compliance Matrix: (Units=1/GPa)
#
#
# Indices 1 2 3 4 5 6 
#
# 1 0.026226 -0.005380 0.003030 0.000000 -0.010047 0.000000
# 2 -0.005380 0.011247 -0.005136 0.000000 0.001252 0.000000
# 3 0.003030 -0.005136 0.026931 0.000000 -0.014961 0.000000
# 4 0.000000 0.000000 0.000000 0.038081 0.000000 -0.002249
# 5 -0.010047 0.001252 -0.014961 0.000000 0.041062 0.000000
# 6 0.000000 0.000000 0.000000 -0.002249 0.000000 0.047712
#
#
# Mechanical properties :
#
#
# Convention : Reuss Voigt Hill
#
# Bulk Modulus (GPa) = 20.22924 35.73175 27.98050
# Shear Modulus (GPa) = 22.45097 26.66292 24.55695
#
# Velocity S-wave (km/s) = 3.28601 3.58101 3.43668
# Velocity P-wave (km/s) = 4.91187 5.85521 5.40417
#
# Compressibility (1/GPa) = 0.04943338
#
# Stress axis : x y z
#
# Youngs Moduli (GPa) = 38.12974 88.91104 37.13247
#
# Poissons Ratio (x) = 0.47835 -0.11253
# Poissons Ratio (y) = 0.20514 0.19070
# Poissons Ratio (z) = -0.11555 0.45662
#
# Static dielectric constant tensor:
#      x y z
#    x 1.855720 0.000000 0.049860 
#    y 0.000000 1.780470 0.000000 
#    z 0.049860 0.000000 1.820200 
# 
# From -- ./inp_files/250799.got.cif
#   From: 2010.05.17/outbox.cif.g08.bks.cpg/sg15_126_cif.got.tgz:250799.got - 2010.06.03 18:47:42.
