data_PCOD9264081
_publ_section_title
;
Structure prediction by ZEFSAII (Michael W. Deem and Ramdas Pophale) SiO2 
 PCOD9264081
Probable space group: C 2/C
;
_chemical_formula_sum "Si O2"
_cell_formula_units_Z 48
_cell_length_a 12.173236
_cell_length_b 27.137795
_cell_length_c 8.995161
_cell_angle_alpha 90.000000
_cell_angle_beta 39.578888
_cell_angle_gamma 90.000000
_cell_volume 1893.321791
_symmetry_space_group_name_H-M "C 2/C"
_symmetry_group_IT_number 15
_symmetry_cell_setting 'monoclinic'
loop_
_space_group_symop_operation_xyz
x,y,z
-x,y,1/2-z
-x,-y,-z
x,-y,1/2+z
1/2+x,1/2+y,z
1/2-x,1/2+y,1/2-z
1/2-x,1/2-y,-z
1/2+x,1/2-y,1/2+z
loop_
_atom_site_type_symbol
_atom_site_label
_atom_site_fract_x
_atom_site_fract_y
_atom_site_fract_z
Si Si1 0.686359 0.430025 0.802808
Si Si2 0.169749 0.668239 0.676687
Si Si3 0.627531 0.318301 0.821414
Si Si4 0.898310 0.565040 0.632698
Si Si5 0.267054 0.511130 0.970919
Si Si6 0.042680 0.268786 0.879142
O O1 0.609017 0.376453 0.861238
O O2 0.639363 0.469622 0.725916
O O3 0.896535 0.424779 0.580947
O O4 0.640523 0.453852 0.007331
O O5 0.311230 0.688089 0.413298
O O6 0.199771 0.614029 0.711257
O O7 0.000000 0.662386 0.750000
O O8 0.105047 0.703388 0.873945
O O9 0.783413 0.297937 0.762717
O O10 0.467379 0.286318 0.043866
O O11 0.831177 0.545950 0.544374
O O12 0.854439 0.521893 0.794492
O O13 0.000000 0.269004 0.750000
#
# Coordination Sequence:
#
# PCOD9264081 Si02
#       6
#     8   8   8   8   8   8
#     4  11  18  31  50  80 121 151 188 233 305 345
#     4  10  19  35  55  77 115 158 190 235 296 351
#     4  11  23  40  62  85 122 160 197 244 300 351
#     4  11  16  29  45  75 118 152 187 222 308 347
#     4  10  20  26  47  80 120 155 182 237 291 376
#     4  11  24  41  60  85 117 155 204 254 294 345
#
# _framework density 25.352267999999999
#
# number of rings (size 3 to 8) (size 9 to 14) (size 15 to 20)
#    0.000    1.333    5.000    5.000    2.333    0.000 
#    0.000    0.000    0.000    0.000    0.000    1.167 
#    0.000    0.333    0.000    0.000    0.000    0.000 
#
# Total GULP energy -134569.149155 kJ/mol
# GULP energy per Si atom -5607.047881 kJ/mol
# Density = 2.529456 g / cm^3
# Si number density = 25.352268 Si / 1000 Ang^3
#
#
#
# Elastic Constant Matrix: (Units=GPa)
#
#
# Indices 1 2 3 4 5 6 
#
# 1 109.6360 41.2268 72.2489 0.0000 22.2616 0.0000
# 2 41.2268 127.3931 56.2134 0.0000 24.2891 0.0000
# 3 72.2489 56.2134 117.8808 0.0000 34.6841 0.0000
# 4 0.0000 0.0000 0.0000 40.2869 0.0000 13.1733
# 5 22.2616 24.2891 34.6841 0.0000 64.8146 0.0000
# 6 0.0000 0.0000 0.0000 13.1733 0.0000 20.5592
#
#
#
# Elastic Compliance Matrix: (Units=1/GPa)
#
#
# Indices 1 2 3 4 5 6 
#
# 1 0.015410 -0.001027 -0.008914 0.000000 -0.000138 0.000000
# 2 -0.001027 0.010120 -0.003779 0.000000 -0.001417 0.000000
# 3 -0.008914 -0.003779 0.017128 0.000000 -0.004688 0.000000
# 4 0.000000 0.000000 0.000000 0.031401 0.000000 -0.020120
# 5 -0.000138 -0.001417 -0.004688 0.000000 0.018515 0.000000
# 6 0.000000 0.000000 0.000000 -0.020120 0.000000 0.061532
#
#
# Mechanical properties :
#
#
# Convention : Reuss Voigt Hill
#
# Bulk Modulus (GPa) = 65.71898 77.14309 71.43103
# Shear Modulus (GPa) = 26.79239 37.48018 32.13628
#
# Velocity S-wave (km/s) = 3.25438 3.84914 3.56419
# Velocity P-wave (km/s) = 6.33245 7.08865 6.72119
#
# Compressibility (1/GPa) = 0.01521630
#
# Stress axis : x y z
#
# Youngs Moduli (GPa) = 64.89433 98.81410 58.38313
#
# Poissons Ratio (x) = 0.10149 0.52044
# Poissons Ratio (y) = 0.06665 0.22065
# Poissons Ratio (z) = 0.57849 0.37346
#
# Static dielectric constant tensor:
#      x y z
#    x 2.027970 0.000000 -0.085140 
#    y 0.000000 1.974630 0.000000 
#    z -0.085140 0.000000 2.017220 
# 
# From -- ./inp_files/33799.got.cif
#   From: 2010.05.17/outbox.cif.g08.bks.cpg/sg15_17_cif.got.tgz:33799.got - 2010.06.03 18:47:42.
