data_PCOD9264887
_publ_section_title
;
Structure prediction by ZEFSAII (Michael W. Deem and Ramdas Pophale) SiO2 
 PCOD9264887
Probable space group: C 2/C
;
_chemical_formula_sum "Si O2"
_cell_formula_units_Z 44
_cell_length_a 23.000588
_cell_length_b 7.100712
_cell_length_c 14.511550
_cell_angle_alpha 90.000000
_cell_angle_beta 46.455307
_cell_angle_gamma 90.000000
_cell_volume 1717.889073
_symmetry_space_group_name_H-M "C 2/C"
_symmetry_group_IT_number 15
_symmetry_cell_setting 'monoclinic'
loop_
_space_group_symop_operation_xyz
x,y,z
-x,y,1/2-z
-x,-y,-z
x,-y,1/2+z
1/2+x,1/2+y,z
1/2-x,1/2+y,1/2-z
1/2-x,1/2-y,-z
1/2+x,1/2-y,1/2+z
loop_
_atom_site_type_symbol
_atom_site_label
_atom_site_fract_x
_atom_site_fract_y
_atom_site_fract_z
Si Si1 0.886307 0.955396 0.360100
Si Si2 0.176952 0.854931 0.404154
Si Si3 0.924469 0.334395 0.218187
Si Si4 0.500000 0.888389 0.750000
Si Si5 0.207983 0.484053 0.997483
Si Si6 0.159709 0.474228 0.359356
O O1 0.883688 0.024993 0.469081
O O2 0.924400 0.122793 0.256744
O O3 0.932309 0.763069 0.298566
O O4 0.793186 0.936242 0.433049
O O5 0.219651 0.717275 0.432991
O O6 0.137440 0.696655 0.382336
O O7 0.248188 0.965685 0.277947
O O8 0.001092 0.460023 0.164208
O O9 0.853725 0.437221 0.354580
O O10 0.898297 0.354907 0.141640
O O11 0.168262 0.595062 0.955190
#
# Coordination Sequence:
#
# PCOD9264887 Si02
#       6
#     8   8   8   4   8   8
#     4  11  21  47  64  92 135 176 214 269 330 381
#     4   9  19  35  65 101 121 156 210 278 334 363
#     4  11  21  46  65  97 130 169 224 266 324 385
#     4  12  30  36  68  92 134 194 208 254 324 408
#     4   9  20  37  75  94 123 167 217 285 325 365
#     4  10  19  35  69 103 122 158 210 285 333 363
#
# _framework density 25.612831
#
# number of rings (size 3 to 8) (size 9 to 14) (size 15 to 20)
#    1.091    0.727    3.636    1.636    2.545    2.182 
#    0.000    1.818    0.000    0.000    0.000    0.000 
#    0.000    0.000    0.000    0.000    0.000    0.000 
#
# Total GULP energy -122963.407280 kJ/mol
# GULP energy per Si atom -5589.245785 kJ/mol
# Density = 2.555454 g / cm^3
# Si number density = 25.612831 Si / 1000 Ang^3
#
#
#
# Elastic Constant Matrix: (Units=GPa)
#
#
# Indices 1 2 3 4 5 6 
#
# 1 96.2149 25.6178 35.1245 -0.0014 -6.8792 0.0004
# 2 25.6178 163.1983 23.9750 -0.0035 -5.1075 0.0035
# 3 35.1245 23.9750 45.2413 -0.0004 10.5807 0.0015
# 4 -0.0014 -0.0035 -0.0004 24.4587 0.0003 -16.3784
# 5 -6.8792 -5.1075 10.5807 0.0003 31.3349 -0.0006
# 6 0.0004 0.0035 0.0015 -16.3784 -0.0006 23.3200
#
#
#
# Elastic Compliance Matrix: (Units=1/GPa)
#
#
# Indices 1 2 3 4 5 6 
#
# 1 0.016383 -0.000157 -0.014627 0.000002 0.008510 0.000002
# 2 -0.000157 0.006827 -0.004070 0.000001 0.002453 0.000000
# 3 -0.014627 -0.004070 0.039654 -0.000004 -0.017264 -0.000005
# 4 0.000002 0.000001 -0.000004 0.077187 0.000002 0.054211
# 5 0.008510 0.002453 -0.017264 0.000002 0.040011 0.000003
# 6 0.000002 0.000000 -0.000005 0.054211 0.000003 0.080956
#
#
# Mechanical properties :
#
#
# Convention : Reuss Voigt Hill
#
# Bulk Modulus (GPa) = 39.74954 52.67658 46.21306
# Shear Modulus (GPa) = 16.28077 30.48520 23.38298
#
# Velocity S-wave (km/s) = 2.52394 3.45372 3.02477
# Velocity P-wave (km/s) = 4.90375 6.04279 5.50282
#
# Compressibility (1/GPa) = 0.02515752
#
# Stress axis : x y z
#
# Youngs Moduli (GPa) = 61.03741 146.48312 25.21795
#
# Poissons Ratio (x) = 0.02294 0.36887
# Poissons Ratio (y) = 0.00956 0.10263
# Poissons Ratio (z) = 0.89280 0.59615
#
# Static dielectric constant tensor:
#      x y z
#    x 2.166280 0.000000 -0.061400 
#    y 0.000000 2.047030 0.000000 
#    z -0.061400 0.000000 2.110890 
# 
# From -- ./inp_files/166070.got.cif
#   From: 2010.05.17/outbox.cif.g08.bks.cpg/sg15_84_cif.got.tgz:166070.got - 2010.06.03 18:47:42.
