data_PCOD9264597
_publ_section_title
;
Structure prediction by ZEFSAII (Michael W. Deem and Ramdas Pophale) SiO2 
 PCOD9264597
Probable space group: C 2/C
;
_chemical_formula_sum "Si O2"
_cell_formula_units_Z 48
_cell_length_a 16.301117
_cell_length_b 7.563194
_cell_length_c 25.334393
_cell_angle_alpha 90.000000
_cell_angle_beta 38.724171
_cell_angle_gamma 90.000000
_cell_volume 1953.935827
_symmetry_space_group_name_H-M "C 2/C"
_symmetry_group_IT_number 15
_symmetry_cell_setting 'monoclinic'
loop_
_space_group_symop_operation_xyz
x,y,z
-x,y,1/2-z
-x,-y,-z
x,-y,1/2+z
1/2+x,1/2+y,z
1/2-x,1/2+y,1/2-z
1/2-x,1/2-y,-z
1/2+x,1/2-y,1/2+z
loop_
_atom_site_type_symbol
_atom_site_label
_atom_site_fract_x
_atom_site_fract_y
_atom_site_fract_z
Si Si1 0.881428 0.684988 0.276955
Si Si2 0.552197 0.806271 0.311640
Si Si3 0.162893 0.207649 0.813294
Si Si4 0.153305 0.014193 0.915504
Si Si5 0.962686 0.515283 0.457611
Si Si6 0.222128 0.817246 0.573080
O O1 0.933977 0.493439 0.227336
O O2 0.845676 0.800354 0.244512
O O3 0.754189 0.642793 0.376163
O O4 0.000000 0.763416 0.250000
O O5 0.694880 0.717625 0.240902
O O6 0.516259 0.863909 0.390080
O O7 0.434689 0.694338 0.345227
O O8 0.163233 0.031261 0.847131
O O9 0.038026 0.315057 0.897346
O O10 0.211033 0.181959 0.918591
O O11 0.000000 0.000000 0.000000
O O12 0.000000 0.500000 0.500000
O O13 0.805400 0.496612 0.534638
O O14 0.250000 0.750000 0.500000
#
# Coordination Sequence:
#
# PCOD9264597 Si02
#       6
#     8   8   8   8   8   8
#     4  10  20  38  62  85 123 159 203 254 305 362
#     4   9  20  37  61  88 119 160 209 248 300 366
#     4  10  22  38  61  90 122 160 203 251 306 367
#     4  11  23  39  65  91 121 163 205 246 312 372
#     4  10  19  35  60  89 122 152 195 261 304 340
#     4  10  20  36  64  93 117 154 210 257 297 357
#
# _framework density 24.565802999999999
#
# number of rings (size 3 to 8) (size 9 to 14) (size 15 to 20)
#    0.000    2.000    3.333    0.000    4.667    0.000 
#    0.000    0.833    7.333    0.000    0.000    0.000 
#    0.000    0.000    0.000    0.000    0.000    0.000 
#
# Total GULP energy -133980.704288 kJ/mol
# GULP energy per Si atom -5582.529345 kJ/mol
# Density = 2.450989 g / cm^3
# Si number density = 24.565803 Si / 1000 Ang^3
#
#
#
# Elastic Constant Matrix: (Units=GPa)
#
#
# Indices 1 2 3 4 5 6 
#
# 1 149.2366 22.8921 58.5082 0.0000 -27.5946 0.0010
# 2 22.8921 55.8044 16.8109 0.0000 -2.6666 0.0024
# 3 58.5082 16.8109 111.2991 0.0000 -22.7171 0.0001
# 4 0.0000 0.0000 0.0000 28.0830 -0.0001 2.7970
# 5 -27.5946 -2.6666 -22.7171 -0.0001 54.3284 0.0000
# 6 0.0010 0.0024 0.0001 2.7970 0.0000 28.9511
#
#
#
# Elastic Compliance Matrix: (Units=1/GPa)
#
#
# Indices 1 2 3 4 5 6 
#
# 1 0.009115 -0.002447 -0.003828 0.000000 0.002909 0.000000
# 2 -0.002447 0.019435 -0.001868 0.000000 -0.001070 -0.000002
# 3 -0.003828 -0.001868 0.011877 0.000000 0.002930 0.000000
# 4 0.000000 0.000000 0.000000 0.035955 0.000000 -0.003474
# 5 0.002909 -0.001070 0.002930 0.000000 0.021057 0.000000
# 6 0.000000 -0.000002 0.000000 -0.003474 0.000000 0.034877
#
#
# Mechanical properties :
#
#
# Convention : Reuss Voigt Hill
#
# Bulk Modulus (GPa) = 41.42178 56.97361 49.19770
# Shear Modulus (GPa) = 31.91870 36.81441 34.36656
#
# Velocity S-wave (km/s) = 3.60851 3.87538 3.74432
# Velocity P-wave (km/s) = 5.85320 6.57779 6.22605
#
# Compressibility (1/GPa) = 0.02414189
#
# Stress axis : x y z
#
# Youngs Moduli (GPa) = 109.71167 51.45364 84.19313
#
# Poissons Ratio (x) = 0.12590 0.32231
# Poissons Ratio (y) = 0.26845 0.15724
# Poissons Ratio (z) = 0.42000 0.09610
#
# Static dielectric constant tensor:
#      x y z
#    x 1.935290 0.000000 -0.038890 
#    y 0.000000 2.024980 0.000000 
#    z -0.038890 0.000000 2.022270 
# 
# From -- ./inp_files/295394.got.cif
#   From: 2010.05.17/outbox.cif.g08.bks.cpg/sg15_148_cif.got.tgz:295394.got - 2010.06.03 18:47:42.
