data_PCOD9264470
_publ_section_title
;
Structure prediction by ZEFSAII (Michael W. Deem and Ramdas Pophale) SiO2 
 PCOD9264470
Probable space group: C 2/C
;
_chemical_formula_sum "Si O2"
_cell_formula_units_Z 40
_cell_length_a 19.384590
_cell_length_b 6.974872
_cell_length_c 27.064963
_cell_angle_alpha 90.000000
_cell_angle_beta 155.729508
_cell_angle_gamma 90.000000
_cell_volume 1504.144588
_symmetry_space_group_name_H-M "C 2/C"
_symmetry_group_IT_number 15
_symmetry_cell_setting 'monoclinic'
loop_
_space_group_symop_operation_xyz
x,y,z
-x,y,1/2-z
-x,-y,-z
x,-y,1/2+z
1/2+x,1/2+y,z
1/2-x,1/2+y,1/2-z
1/2-x,1/2-y,-z
1/2+x,1/2-y,1/2+z
loop_
_atom_site_type_symbol
_atom_site_label
_atom_site_fract_x
_atom_site_fract_y
_atom_site_fract_z
Si Si1 0.160435 0.905507 0.999751
Si Si2 0.316178 0.968778 0.512590
Si Si3 0.609154 0.141241 0.279024
Si Si4 0.466434 0.130019 0.431342
Si Si5 0.317255 0.458334 0.829754
O O1 0.202501 0.686900 0.016106
O O2 0.162383 0.043691 0.951805
O O3 0.979479 0.896511 0.905715
O O4 0.297442 0.982686 0.127277
O O5 0.469903 0.945902 0.651186
O O6 0.368328 0.853934 0.496975
O O7 0.500000 0.256836 0.250000
O O8 0.753505 0.181897 0.331901
O O9 0.378058 0.331432 0.387689
O O10 0.500000 0.000000 0.500000
O O11 0.332077 0.029519 0.307190
#
# Coordination Sequence:
#
# PCOD9264470 Si02
#       5
#     8   8   8   8   8
#     4  10  19  35  59  85 116 158 202 248 298 355
#     4   9  20  36  55  84 120 156 201 247 297 363
#     4   9  18  33  54  80 111 150 196 246 298 348
#     4  11  24  41  59  87 123 158 200 254 309 364
#     4  11  22  37  61  87 116 156 204 249 305 369
#
# _framework density 26.593188000000001
#
# number of rings (size 3 to 8) (size 9 to 14) (size 15 to 20)
#    0.000    2.000    0.000    4.200    0.000    4.000 
#    0.000    1.000    0.000    0.000    0.000    1.400 
#    0.000    0.000    0.000    0.000    0.000    0.000 
#
# Total GULP energy -111724.056248 kJ/mol
# GULP energy per Si atom -5586.202812 kJ/mol
# Density = 2.653266 g / cm^3
# Si number density = 26.593188 Si / 1000 Ang^3
#
#
#
# Elastic Constant Matrix: (Units=GPa)
#
#
# Indices 1 2 3 4 5 6 
#
# 1 295.9981 42.9233 63.9764 -0.0008 4.8585 -0.0008
# 2 42.9233 84.0302 33.6212 0.0012 -9.7765 0.0009
# 3 63.9764 33.6212 63.0773 0.0112 -8.0772 0.0049
# 4 -0.0008 0.0012 0.0112 13.7388 0.0009 -2.3932
# 5 4.8585 -9.7765 -8.0772 0.0009 62.5398 -0.0002
# 6 -0.0008 0.0009 0.0049 -2.3932 -0.0002 52.6815
#
#
#
# Elastic Compliance Matrix: (Units=1/GPa)
#
#
# Indices 1 2 3 4 5 6 
#
# 1 0.004409 -0.000671 -0.004242 0.000004 -0.000995 0.000001
# 2 -0.000671 0.015341 -0.007304 0.000005 0.001507 0.000001
# 3 -0.004242 -0.007304 0.024347 -0.000020 0.002332 -0.000003
# 4 0.000004 0.000005 -0.000020 0.073367 -0.000003 0.003333
# 5 -0.000995 0.001507 0.002332 -0.000003 0.016604 0.000000
# 6 0.000001 0.000001 -0.000003 0.003333 0.000000 0.019133
#
#
# Mechanical properties :
#
#
# Convention : Reuss Voigt Hill
#
# Bulk Modulus (GPa) = 50.85202 80.46082 65.65642
# Shear Modulus (GPa) = 27.14625 45.96435 36.55530
#
# Velocity S-wave (km/s) = 3.19846 4.16194 3.71160
# Velocity P-wave (km/s) = 5.72747 7.30873 6.56588
#
# Compressibility (1/GPa) = 0.01966490
#
# Stress axis : x y z
#
# Youngs Moduli (GPa) = 226.82163 65.18636 41.07274
#
# Poissons Ratio (x) = 0.04372 0.17421
# Poissons Ratio (y) = 0.15214 0.29998
# Poissons Ratio (z) = 0.96206 0.47609
#
# Static dielectric constant tensor:
#      x y z
#    x 2.252950 0.000000 0.096550 
#    y 0.000000 2.129800 0.000000 
#    z 0.096550 0.000000 2.127560 
# 
# From -- ./inp_files/210145.got.cif
#   From: 2010.05.17/outbox.cif.g08.bks.cpg/sg15_106_cif.got.tgz:210145.got - 2010.06.03 18:47:42.
