data_PCOD9264870
_publ_section_title
;
Structure prediction by ZEFSAII (Michael W. Deem and Ramdas Pophale) SiO2 
 PCOD9264870
Probable space group: C 2/C
;
_chemical_formula_sum "Si O2"
_cell_formula_units_Z 56
_cell_length_a 8.681685
_cell_length_b 23.568476
_cell_length_c 14.153019
_cell_angle_alpha 90.000000
_cell_angle_beta 69.715559
_cell_angle_gamma 90.000000
_cell_volume 2716.311886
_symmetry_space_group_name_H-M "C 2/C"
_symmetry_group_IT_number 15
_symmetry_cell_setting 'monoclinic'
loop_
_space_group_symop_operation_xyz
x,y,z
-x,y,1/2-z
-x,-y,-z
x,-y,1/2+z
1/2+x,1/2+y,z
1/2-x,1/2+y,1/2-z
1/2-x,1/2-y,-z
1/2+x,1/2-y,1/2+z
loop_
_atom_site_type_symbol
_atom_site_label
_atom_site_fract_x
_atom_site_fract_y
_atom_site_fract_z
Si Si1 0.524709 0.974126 0.133409
Si Si2 0.492993 0.363932 0.638633
Si Si3 0.648114 0.454805 0.970185
Si Si4 0.671982 0.537518 0.674753
Si Si5 0.050466 0.735440 0.849710
Si Si6 0.302178 0.144860 0.947128
Si Si7 0.329603 0.346375 0.233377
O O1 0.500000 0.974991 0.250000
O O2 0.347015 0.994099 0.129832
O O3 0.581994 0.910427 0.091788
O O4 0.677443 0.015019 0.079578
O O5 0.500000 0.371759 0.750000
O O6 0.386941 0.409589 0.603709
O O7 0.430013 0.300595 0.627393
O O8 0.676592 0.367115 0.557603
O O9 0.500000 0.500000 0.000000
O O10 0.639902 0.433842 0.079983
O O11 0.500000 0.510719 0.750000
O O12 0.711356 0.588092 0.737834
O O13 0.208838 0.696273 0.812272
O O14 0.000000 0.736764 0.750000
O O15 0.913485 0.700668 0.936350
O O16 0.196762 0.157524 0.873786
O O17 0.500000 0.337058 0.250000
#
# Coordination Sequence:
#
# PCOD9264870 Si02
#       7
#     8   8   8   8   8   8   8
#     4  12  22  42  67  96 126 166 222 276 322 391
#     4  11  24  43  65  94 134 179 217 260 328 398
#     4  12  26  43  61  92 134 176 216 266 327 391
#     4  11  22  41  68  96 124 164 221 276 326 379
#     4   9  19  38  68  97 129 167 212 267 324 393
#     4  11  19  41  66  97 126 166 222 268 323 387
#     4  10  19  35  67 100 127 158 213 274 325 377
#
# _framework density 20.61619
#
# number of rings (size 3 to 8) (size 9 to 14) (size 15 to 20)
#    0.000    1.143    4.286    3.857    0.000    1.714 
#    2.571    3.571    3.143    0.000    0.000    0.000 
#    0.000    0.000    0.000    0.000    0.000    0.000 
#
# Total GULP energy -156276.307146 kJ/mol
# GULP energy per Si atom -5581.296684 kJ/mol
# Density = 2.056927 g / cm^3
# Si number density = 20.616190 Si / 1000 Ang^3
#
#
#
# Elastic Constant Matrix: (Units=GPa)
#
#
# Indices 1 2 3 4 5 6 
#
# 1 138.8886 45.4853 54.2804 0.0000 -23.5291 0.0000
# 2 45.4853 98.4173 29.2910 0.0000 -10.6943 0.0000
# 3 54.2804 29.2910 137.0175 0.0000 -7.8418 0.0000
# 4 0.0000 0.0000 0.0000 19.8355 0.0000 0.2676
# 5 -23.5291 -10.6943 -7.8418 0.0000 41.2249 0.0000
# 6 0.0000 0.0000 0.0000 0.2676 0.0000 21.8716
#
#
#
# Elastic Compliance Matrix: (Units=1/GPa)
#
#
# Indices 1 2 3 4 5 6 
#
# 1 0.010247 -0.003337 -0.003094 0.000000 0.004394 0.000000
# 2 -0.003337 0.012178 -0.001223 0.000000 0.001022 0.000000
# 3 -0.003094 -0.001223 0.008762 0.000000 -0.000417 0.000000
# 4 0.000000 0.000000 0.000000 0.050423 0.000000 -0.000617
# 5 0.004394 0.001022 -0.000417 0.000000 0.026951 0.000000
# 6 0.000000 0.000000 0.000000 -0.000617 0.000000 0.045729
#
#
# Mechanical properties :
#
#
# Convention : Reuss Voigt Hill
#
# Bulk Modulus (GPa) = 62.98171 70.27075 66.62623
# Shear Modulus (GPa) = 28.58925 32.93752 30.76339
#
# Velocity S-wave (km/s) = 3.72793 4.00140 3.86709
# Velocity P-wave (km/s) = 7.01042 7.45034 7.23372
#
# Compressibility (1/GPa) = 0.01587763
#
# Stress axis : x y z
#
# Youngs Moduli (GPa) = 97.59262 82.11419 114.13228
#
# Poissons Ratio (x) = 0.27404 0.35317
# Poissons Ratio (y) = 0.32569 0.13956
# Poissons Ratio (z) = 0.30199 0.10041
#
# Static dielectric constant tensor:
#      x y z
#    x 1.788410 0.000000 -0.012870 
#    y 0.000000 1.776380 0.000000 
#    z -0.012870 0.000000 1.761340 
# 
# From -- ./inp_files/137736.got.cif
#   From: 2010.05.17/outbox.cif.g08.bks.cpg/sg15_69_cif.got.tgz:137736.got - 2010.06.03 18:47:42.
