data_PCOD9264334
_publ_section_title
;
Structure prediction by ZEFSAII (Michael W. Deem and Ramdas Pophale) SiO2 
 PCOD9264334
Probable space group: C 2/C
;
_chemical_formula_sum "Si O2"
_cell_formula_units_Z 56
_cell_length_a 23.453865
_cell_length_b 8.696954
_cell_length_c 14.251601
_cell_angle_alpha 90.000000
_cell_angle_beta 107.445172
_cell_angle_gamma 90.000000
_cell_volume 2773.291795
_symmetry_space_group_name_H-M "C 2/C"
_symmetry_group_IT_number 15
_symmetry_cell_setting 'monoclinic'
loop_
_space_group_symop_operation_xyz
x,y,z
-x,y,1/2-z
-x,-y,-z
x,-y,1/2+z
1/2+x,1/2+y,z
1/2-x,1/2+y,1/2-z
1/2-x,1/2-y,-z
1/2+x,1/2-y,1/2+z
loop_
_atom_site_type_symbol
_atom_site_label
_atom_site_fract_x
_atom_site_fract_y
_atom_site_fract_z
Si Si1 0.469466 0.522953 0.334746
Si Si2 0.725569 0.262369 0.220274
Si Si3 0.170553 0.032788 0.537114
Si Si4 0.143552 0.806915 0.681614
Si Si5 0.051059 0.787317 0.009057
Si Si6 0.247284 0.398672 0.065769
Si Si7 0.367169 0.022304 0.395283
O O1 0.500000 0.494221 0.250000
O O2 0.402165 0.582654 0.288842
O O3 0.467173 0.375043 0.402984
O O4 0.501586 0.661157 0.409201
O O5 0.712767 0.383852 0.133077
O O6 0.791311 0.193235 0.240636
O O7 0.729604 0.343408 0.322301
O O8 0.672356 0.139614 0.186972
O O9 0.151143 0.876007 0.579991
O O10 0.207019 0.013058 0.461163
O O11 0.111020 0.131374 0.500039
O O12 0.121212 0.632690 0.657125
O O13 0.074222 0.614041 0.040486
O O14 0.181422 0.471998 0.048728
O O15 0.250000 0.250000 0.000000
#
# Coordination Sequence:
#
# PCOD9264334 Si02
#       7
#     8   8   8   8   8   8   8
#     4  10  22  41  61  80 108 157 204 249 293 348
#     4  10  21  36  58  87 126 154 189 239 293 357
#     4  10  20  37  58  85 119 159 186 236 292 355
#     4  10  19  35  58  82 117 153 187 239 299 332
#     4   9  22  40  58  83 115 150 202 245 296 337
#     4  11  21  34  58  89 124 156 191 222 299 367
#     4  10  21  37  59  90 123 155 186 246 292 353
#
# _framework density 20.192609000000001
#
# number of rings (size 3 to 8) (size 9 to 14) (size 15 to 20)
#    0.000    2.000    2.857    1.714    0.000    8.571 
#    0.000    0.714    0.000    0.000    0.000    0.000 
#    0.000    0.000    0.000    0.000    0.000    0.000 
#
# Total GULP energy -156230.577352 kJ/mol
# GULP energy per Si atom -5579.663477 kJ/mol
# Density = 2.014665 g / cm^3
# Si number density = 20.192609 Si / 1000 Ang^3
#
#
#
# Elastic Constant Matrix: (Units=GPa)
#
#
# Indices 1 2 3 4 5 6 
#
# 1 80.4673 -3.6684 33.2667 0.0000 -22.5742 0.0000
# 2 -3.6684 70.0158 12.3657 0.0000 -6.2153 0.0000
# 3 33.2667 12.3657 72.1884 0.0000 -12.5825 0.0000
# 4 0.0000 0.0000 0.0000 23.0116 0.0000 3.1147
# 5 -22.5742 -6.2153 -12.5825 0.0000 40.3734 0.0000
# 6 0.0000 0.0000 0.0000 3.1147 0.0000 30.1063
#
#
#
# Elastic Compliance Matrix: (Units=1/GPa)
#
#
# Indices 1 2 3 4 5 6 
#
# 1 0.017882 0.002956 -0.007322 0.000000 0.008171 0.000000
# 2 0.002956 0.015311 -0.003475 0.000000 0.002927 0.000000
# 3 -0.007322 -0.003475 0.017993 0.000000 0.000978 0.000000
# 4 0.000000 0.000000 0.000000 0.044073 0.000000 -0.004560
# 5 0.008171 0.002927 0.000978 0.000000 0.030093 0.000000
# 6 0.000000 0.000000 0.000000 -0.004560 0.000000 0.033687
#
#
# Mechanical properties :
#
#
# Convention : Reuss Voigt Hill
#
# Bulk Modulus (GPa) = 28.16724 34.06659 31.11692
# Shear Modulus (GPa) = 26.80154 30.74543 28.77349
#
# Velocity S-wave (km/s) = 3.64716 3.90629 3.77895
# Velocity P-wave (km/s) = 5.63163 6.10352 5.87232
#
# Compressibility (1/GPa) = 0.03550224
#
# Stress axis : x y z
#
# Youngs Moduli (GPa) = 55.92296 65.31340 55.57781
#
# Poissons Ratio (x) = -0.19303 0.40697
# Poissons Ratio (y) = -0.16528 0.19311
# Poissons Ratio (z) = 0.40949 0.22694
#
# Static dielectric constant tensor:
#      x y z
#    x 1.737140 0.000000 0.020250 
#    y 0.000000 1.803840 0.000000 
#    z 0.020250 0.000000 1.703330 
# 
# From -- ./inp_files/171976.got.cif
#   From: 2010.05.17/outbox.cif.g08.bks.cpg/sg15_86_cif.got.tgz:171976.got - 2010.06.03 18:47:42.
