data_PCOD9264552
_publ_section_title
;
Structure prediction by ZEFSAII (Michael W. Deem and Ramdas Pophale) SiO2 
 PCOD9264552
Probable space group: C 2/C
;
_chemical_formula_sum "Si O2"
_cell_formula_units_Z 64
_cell_length_a 12.012894
_cell_length_b 11.352839
_cell_length_c 22.368592
_cell_angle_alpha 90.000000
_cell_angle_beta 106.699028
_cell_angle_gamma 90.000000
_cell_volume 2921.985219
_symmetry_space_group_name_H-M "C 2/C"
_symmetry_group_IT_number 15
_symmetry_cell_setting 'monoclinic'
loop_
_space_group_symop_operation_xyz
x,y,z
-x,y,1/2-z
-x,-y,-z
x,-y,1/2+z
1/2+x,1/2+y,z
1/2-x,1/2+y,1/2-z
1/2-x,1/2-y,-z
1/2+x,1/2-y,1/2+z
loop_
_atom_site_type_symbol
_atom_site_label
_atom_site_fract_x
_atom_site_fract_y
_atom_site_fract_z
Si Si1 0.117060 0.127104 0.528263
Si Si2 0.542399 0.912585 0.587032
Si Si3 0.153877 0.880502 0.531810
Si Si4 0.853124 0.630083 0.962678
Si Si5 0.812853 0.394978 0.251694
Si Si6 0.682897 0.304696 0.911963
Si Si7 0.239210 0.643668 0.201813
Si Si8 0.561909 0.909814 0.352580
O O1 0.190832 0.241706 0.559383
O O2 0.150154 0.116354 0.462949
O O3 0.978761 0.124850 0.513705
O O4 0.162003 0.006521 0.565189
O O5 0.472814 0.865000 0.519451
O O6 0.613215 0.846786 0.649899
O O7 0.629435 0.015737 0.575927
O O8 0.440094 0.974580 0.608530
O O9 0.165462 0.758275 0.569945
O O10 0.246859 0.879322 0.492565
O O11 0.752046 0.516212 0.264787
O O12 0.757842 0.263198 0.242936
O O13 0.850778 0.413138 0.188914
O O14 0.933407 0.390610 0.306820
O O15 0.677033 0.353939 0.843949
O O16 0.594463 0.196429 0.900718
#
# Coordination Sequence:
#
# PCOD9264552 Si02
#       8
#     8   8   8   8   8   8   8   8
#     4  10  20  34  53  84 120 154 190 231 279 357
#     4  10  19  35  60  83 110 154 201 231 280 354
#     4  10  20  32  47  74 124 157 175 226 282 316
#     4  10  20  34  53  84 120 154 190 231 279 357
#     4   9  20  38  58  81 112 143 194 248 298 345
#     4  10  19  35  60  83 110 154 201 231 280 354
#     4  10  20  37  61  87 112 146 192 255 303 344
#     4   9  18  35  58  79 104 150 199 242 279 344
#
# _framework density 21.902918
#
# number of rings (size 3 to 8) (size 9 to 14) (size 15 to 20)
#    0.000    2.250    0.000    3.000    0.000    4.000 
#    0.000   18.750    0.000   25.500    0.000    0.000 
#    0.000    0.000    0.000    0.000    0.000    0.000 
#
# Total GULP energy -178250.990948 kJ/mol
# GULP energy per Si atom -5570.343467 kJ/mol
# Density = 2.185307 g / cm^3
# Si number density = 21.902918 Si / 1000 Ang^3
#
#
#
# Elastic Constant Matrix: (Units=GPa)
#
#
# Indices 1 2 3 4 5 6 
#
# 1 79.4579 15.1730 11.7705 0.0000 -7.0533 0.0000
# 2 15.1730 100.2319 36.9753 0.0000 -11.4385 0.0000
# 3 11.7705 36.9753 65.1702 0.0000 2.8363 0.0000
# 4 0.0000 0.0000 0.0000 16.5187 0.0000 -2.3064
# 5 -7.0533 -11.4385 2.8363 0.0000 18.3875 0.0000
# 6 0.0000 0.0000 0.0000 -2.3064 0.0000 32.7517
#
#
#
# Elastic Compliance Matrix: (Units=1/GPa)
#
#
# Indices 1 2 3 4 5 6 
#
# 1 0.013502 -0.000597 -0.002325 0.000000 0.005167 0.000000
# 2 -0.000597 0.014326 -0.008455 0.000000 0.009987 0.000000
# 3 -0.002325 -0.008455 0.020970 0.000000 -0.009386 0.000000
# 4 0.000000 0.000000 0.000000 0.061139 0.000000 0.004305
# 5 0.005167 0.009987 -0.009386 0.000000 0.064028 0.000000
# 6 0.000000 0.000000 0.000000 0.004305 0.000000 0.030836
#
#
# Mechanical properties :
#
#
# Convention : Reuss Voigt Hill
#
# Bulk Modulus (GPa) = 38.39519 41.41084 39.90301
# Shear Modulus (GPa) = 21.16536 25.59432 23.37984
#
# Velocity S-wave (km/s) = 3.11195 3.42209 3.27070
# Velocity P-wave (km/s) = 5.52088 5.87893 5.70272
#
# Compressibility (1/GPa) = 0.02604493
#
# Stress axis : x y z
#
# Youngs Moduli (GPa) = 74.06162 69.80346 47.68732
#
# Poissons Ratio (x) = 0.04165 0.11087
# Poissons Ratio (y) = 0.04419 0.40319
# Poissons Ratio (z) = 0.17220 0.59019
#
# Static dielectric constant tensor:
#      x y z
#    x 1.858440 0.000000 -0.011820 
#    y 0.000000 1.936590 0.000000 
#    z -0.011820 0.000000 1.753450 
# 
# From -- ./inp_files/268923.got.cif
#   From: 2010.05.17/outbox.cif.g08.bks.cpg/sg15_135_cif.got.tgz:268923.got - 2010.06.03 18:47:42.
