data_PCOD9264152
_publ_section_title
;
Structure prediction by ZEFSAII (Michael W. Deem and Ramdas Pophale) SiO2 
 PCOD9264152
Probable space group: C 2/C
;
_chemical_formula_sum "Si O2"
_cell_formula_units_Z 48
_cell_length_a 24.366117
_cell_length_b 13.266210
_cell_length_c 10.245663
_cell_angle_alpha 90.000000
_cell_angle_beta 51.996738
_cell_angle_gamma 90.000000
_cell_volume 2609.672958
_symmetry_space_group_name_H-M "C 2/C"
_symmetry_group_IT_number 15
_symmetry_cell_setting 'monoclinic'
loop_
_space_group_symop_operation_xyz
x,y,z
-x,y,1/2-z
-x,-y,-z
x,-y,1/2+z
1/2+x,1/2+y,z
1/2-x,1/2+y,1/2-z
1/2-x,1/2-y,-z
1/2+x,1/2-y,1/2+z
loop_
_atom_site_type_symbol
_atom_site_label
_atom_site_fract_x
_atom_site_fract_y
_atom_site_fract_z
Si Si1 0.309610 0.280185 0.807417
Si Si2 0.690038 0.094061 0.158266
Si Si3 0.767693 0.000249 0.795574
Si Si4 0.196016 0.213686 0.797203
Si Si5 0.043575 0.483087 0.804849
Si Si6 0.078602 0.708284 0.670539
O O1 0.305778 0.398742 0.785715
O O2 0.275576 0.223256 0.734920
O O3 0.384475 0.249270 0.751974
O O4 0.250000 0.250000 0.000000
O O5 0.697874 0.213120 0.170850
O O6 0.720597 0.035923 0.241635
O O7 0.609097 0.078212 0.256218
O O8 0.725739 0.044585 0.980055
O O9 0.816908 0.094634 0.688990
O O10 0.135749 0.262864 0.977010
O O11 0.071276 0.588798 0.704198
O O12 0.000000 0.435309 0.750000
O O13 0.000000 0.500000 0.000000
O O14 0.000000 0.743663 0.750000
#
# Coordination Sequence:
#
# PCOD9264152 Si02
#       6
#     8   8   8   8   8   8
#     4   9  18  34  56  79 107 142 183 226 273 327
#     4  11  20  34  54  81 113 146 184 235 283 330
#     4  11  21  35  58  83 109 145 190 236 278 330
#     4  10  20  34  54  83 113 145 187 236 281 330
#     4  11  21  34  55  84 115 151 187 228 285 349
#     4  10  19  35  56  80 111 149 187 229 282 342
#
# _framework density 18.39311
#
# number of rings (size 3 to 8) (size 9 to 14) (size 15 to 20)
#    0.000    1.667    0.000    9.500    0.000    0.000 
#    0.000    0.833    0.000    1.000    0.000    0.000 
#    0.000    0.000    0.000    0.000    0.000    0.000 
#
# Total GULP energy -133676.363329 kJ/mol
# GULP energy per Si atom -5569.848472 kJ/mol
# Density = 1.835125 g / cm^3
# Si number density = 18.393110 Si / 1000 Ang^3
#
#
#
# Elastic Constant Matrix: (Units=GPa)
#
#
# Indices 1 2 3 4 5 6 
#
# 1 142.7539 28.9571 31.7646 0.0000 -15.6090 0.0000
# 2 28.9571 111.3600 5.0833 0.0000 -2.5934 0.0000
# 3 31.7646 5.0833 56.0827 0.0000 4.2144 0.0000
# 4 0.0000 0.0000 0.0000 28.2601 0.0000 -0.5854
# 5 -15.6090 -2.5934 4.2144 0.0000 24.9681 0.0000
# 6 0.0000 0.0000 0.0000 -0.5854 0.0000 18.2182
#
#
#
# Elastic Compliance Matrix: (Units=1/GPa)
#
#
# Indices 1 2 3 4 5 6 
#
# 1 0.009394 -0.002032 -0.005633 0.000000 0.006612 0.000000
# 2 -0.002032 0.009486 0.000316 0.000000 -0.000338 0.000000
# 3 -0.005633 0.000316 0.021528 0.000000 -0.007122 0.000000
# 4 0.000000 0.000000 0.000000 0.035409 0.000000 0.001138
# 5 0.006612 -0.000338 -0.007122 0.000000 0.045352 0.000000
# 6 0.000000 0.000000 0.000000 0.001138 0.000000 0.054927
#
#
# Mechanical properties :
#
#
# Convention : Reuss Voigt Hill
#
# Bulk Modulus (GPa) = 38.89460 49.08958 43.99209
# Shear Modulus (GPa) = 25.07997 30.58205 27.83101
#
# Velocity S-wave (km/s) = 3.69664 4.08203 3.89411
# Velocity P-wave (km/s) = 6.27793 6.99746 6.64743
#
# Compressibility (1/GPa) = 0.02571051
#
# Stress axis : x y z
#
# Youngs Moduli (GPa) = 106.45547 105.42037 46.45125
#
# Poissons Ratio (x) = 0.21416 0.26167
# Poissons Ratio (y) = 0.21626 -0.01469
# Poissons Ratio (z) = 0.59968 -0.03334
#
# Static dielectric constant tensor:
#      x y z
#    x 1.669330 0.000000 0.056480 
#    y 0.000000 1.667460 0.000000 
#    z 0.056480 0.000000 1.689000 
# 
# From -- ./inp_files/110541.got.cif
#   From: 2010.05.17/outbox.cif.g08.bks.cpg/sg15_56_cif.got.tgz:110541.got - 2010.06.03 18:47:42.
