data_PCOD9264911
_publ_section_title
;
Structure prediction by ZEFSAII (Michael W. Deem and Ramdas Pophale) SiO2 
 PCOD9264911
Probable space group: C 2/C
;
_chemical_formula_sum "Si O2"
_cell_formula_units_Z 60
_cell_length_a 14.280223
_cell_length_b 13.279462
_cell_length_c 12.100053
_cell_angle_alpha 90.000000
_cell_angle_beta 94.121638
_cell_angle_gamma 90.000000
_cell_volume 2288.643121
_symmetry_space_group_name_H-M "C 2/C"
_symmetry_group_IT_number 15
_symmetry_cell_setting 'monoclinic'
loop_
_space_group_symop_operation_xyz
x,y,z
-x,y,1/2-z
-x,-y,-z
x,-y,1/2+z
1/2+x,1/2+y,z
1/2-x,1/2+y,1/2-z
1/2-x,1/2-y,-z
1/2+x,1/2-y,1/2+z
loop_
_atom_site_type_symbol
_atom_site_label
_atom_site_fract_x
_atom_site_fract_y
_atom_site_fract_z
Si Si1 0.500000 0.367084 0.750000
Si Si2 0.415536 0.367098 0.154689
Si Si3 0.058280 0.127852 0.478567
Si Si4 0.779583 0.127565 0.828923
Si Si5 0.836716 0.340593 0.546587
Si Si6 0.191513 0.779555 0.675250
Si Si7 0.012423 0.544222 0.129555
Si Si8 0.587819 0.134325 0.935475
O O1 0.454849 0.424363 0.641866
O O2 0.588951 0.308763 0.707171
O O3 0.500000 0.354993 0.250000
O O4 0.331455 0.415546 0.222875
O O5 0.376883 0.257553 0.113104
O O6 0.466075 0.394967 0.043134
O O7 0.147716 0.112278 0.564769
O O8 0.068337 0.246974 0.446327
O O9 0.754078 0.241249 0.783242
O O10 0.677273 0.103877 0.869594
O O11 0.816474 0.306855 0.420111
O O12 0.743989 0.366588 0.609551
O O13 0.916227 0.421795 0.562702
O O14 0.999872 0.424273 0.127429
O O15 0.000000 0.584236 0.250000
O O16 0.092460 0.594590 0.063082
#
# Coordination Sequence:
#
# PCOD9264911 Si02
#       8
#     4   8   8   8   8   8   8   8
#     4  12  20  30  52  86 116 148 178 264 300 362
#     4   9  17  32  56  80 112 149 191 256 303 350
#     4  11  21  35  57  86 124 155 204 255 312 354
#     4  10  22  36  59  85 118 160 206 256 306 361
#     4  10  19  36  52  83 117 157 204 238 306 370
#     4  10  21  32  58  82 117 155 196 262 307 349
#     4  11  25  38  60  84 129 175 199 237 302 381
#     4  11  23  37  54  89 122 162 208 241 292 376
#
# _framework density 26.216405999999999
#
# number of rings (size 3 to 8) (size 9 to 14) (size 15 to 20)
#    0.000    1.600    4.000    0.800    4.667    2.133 
#    0.000    0.000    0.000    0.000    5.200    0.933 
#    0.000    0.000    0.000    0.000    0.000    0.000 
#
# Total GULP energy -167328.077440 kJ/mol
# GULP energy per Si atom -5577.602581 kJ/mol
# Density = 2.615674 g / cm^3
# Si number density = 26.216406 Si / 1000 Ang^3
#
#
#
# Elastic Constant Matrix: (Units=GPa)
#
#
# Indices 1 2 3 4 5 6 
#
# 1 144.2686 14.1899 65.1639 0.0000 -45.4599 0.0000
# 2 14.1899 45.5251 17.2438 0.0000 -18.5721 0.0000
# 3 65.1639 17.2438 197.1453 0.0000 -30.8420 0.0000
# 4 0.0000 0.0000 0.0000 23.0087 0.0000 -7.2747
# 5 -45.4599 -18.5721 -30.8420 0.0000 66.3362 0.0000
# 6 0.0000 0.0000 0.0000 -7.2747 0.0000 25.7022
#
#
#
# Elastic Compliance Matrix: (Units=1/GPa)
#
#
# Indices 1 2 3 4 5 6 
#
# 1 0.009756 0.000149 -0.002357 0.000000 0.005632 0.000000
# 2 0.000149 0.025052 -0.001216 0.000000 0.006551 0.000000
# 3 -0.002357 -0.001216 0.006095 0.000000 0.000878 0.000000
# 4 0.000000 0.000000 0.000000 0.047733 0.000000 0.013510
# 5 0.005632 0.006551 0.000878 0.000000 0.021177 0.000000
# 6 0.000000 0.000000 0.000000 0.013510 0.000000 0.042731
#
#
# Mechanical properties :
#
#
# Convention : Reuss Voigt Hill
#
# Bulk Modulus (GPa) = 29.36244 64.45935 46.91090
# Shear Modulus (GPa) = 29.28371 42.36551 35.82461
#
# Velocity S-wave (km/s) = 3.34578 4.02430 3.70062
# Velocity P-wave (km/s) = 5.11371 6.79957 6.01598
#
# Compressibility (1/GPa) = 0.03405711
#
# Stress axis : x y z
#
# Youngs Moduli (GPa) = 102.50185 39.91636 164.06498
#
# Poissons Ratio (x) = -0.00596 0.38665
# Poissons Ratio (y) = -0.01530 0.19946
# Poissons Ratio (z) = 0.24157 0.04853
#
# Static dielectric constant tensor:
#      x y z
#    x 2.085110 0.000000 -0.053990 
#    y 0.000000 2.196130 0.000000 
#    z -0.053990 0.000000 2.125990 
# 
# From -- ./inp_files/98333.got.cif
#   From: 2010.05.17/outbox.cif.g08.bks.cpg/sg15_50_cif.got.tgz:98333.got - 2010.06.03 18:47:42.
