data_PCOD9264185
_publ_section_title
;
Structure prediction by ZEFSAII (Michael W. Deem and Ramdas Pophale) SiO2 
 PCOD9264185
Probable space group: C 2/C
;
_chemical_formula_sum "Si O2"
_cell_formula_units_Z 56
_cell_length_a 11.526850
_cell_length_b 22.872072
_cell_length_c 22.496869
_cell_angle_alpha 90.000000
_cell_angle_beta 31.716601
_cell_angle_gamma 90.000000
_cell_volume 3118.108314
_symmetry_space_group_name_H-M "C 2/C"
_symmetry_group_IT_number 15
_symmetry_cell_setting 'monoclinic'
loop_
_space_group_symop_operation_xyz
x,y,z
-x,y,1/2-z
-x,-y,-z
x,-y,1/2+z
1/2+x,1/2+y,z
1/2-x,1/2+y,1/2-z
1/2-x,1/2-y,-z
1/2+x,1/2-y,1/2+z
loop_
_atom_site_type_symbol
_atom_site_label
_atom_site_fract_x
_atom_site_fract_y
_atom_site_fract_z
Si Si1 0.753551 0.948092 0.839422
Si Si2 0.000000 0.861453 0.250000
Si Si3 0.262280 0.220673 0.558747
Si Si4 0.148075 0.331494 0.069667
Si Si5 0.609645 0.723438 0.375742
Si Si6 0.500000 0.769716 0.250000
Si Si7 0.312980 0.823713 0.677643
Si Si8 0.057289 0.432141 0.410191
O O1 0.774907 0.889178 0.791590
O O2 0.000000 0.966510 0.750000
O O3 0.628221 0.001984 0.863072
O O4 0.611949 0.935141 0.960689
O O5 0.941554 0.818102 0.330032
O O6 0.783696 0.899171 0.330058
O O7 0.250000 0.250000 0.500000
O O8 0.323074 0.265579 0.585429
O O9 0.463186 0.176736 0.457635
O O10 0.001643 0.285370 0.095028
O O11 0.107868 0.310777 0.154088
O O12 0.061847 0.394580 0.088794
O O13 0.408339 0.320706 0.947957
O O14 0.807858 0.699895 0.247706
O O15 0.332227 0.725686 0.291501
#
# Coordination Sequence:
#
# PCOD9264185 Si02
#       8
#     8   4   8   8   8   4   8   8
#     4  11  21  37  59  87 119 158 207 253 301 352
#     4  12  22  39  52  84 127 152 194 246 298 366
#     4  12  24  37  55  84 122 162 190 239 310 375
#     4  10  19  35  56  86 117 146 194 250 301 353
#     4  10  20  34  57  85 114 151 195 249 299 357
#     4  10  20  31  60  86 115 146 192 250 304 354
#     4  11  20  35  56  86 116 150 197 248 298 359
#     4  11  23  36  57  87 119 161 199 249 302 360
#
# _framework density 17.959606999999998
#
# number of rings (size 3 to 8) (size 9 to 14) (size 15 to 20)
#    0.000    1.143    5.714    1.714    4.000    0.000 
#    0.000    0.000    0.000    1.714    0.000    4.000 
#    0.000    0.000    0.000    0.000    0.000    0.000 
#
# Total GULP energy -156125.185090 kJ/mol
# GULP energy per Si atom -5575.899467 kJ/mol
# Density = 1.791873 g / cm^3
# Si number density = 17.959607 Si / 1000 Ang^3
#
#
#
# Elastic Constant Matrix: (Units=GPa)
#
#
# Indices 1 2 3 4 5 6 
#
# 1 73.5438 38.2564 20.5757 -0.0008 19.2483 0.0137
# 2 38.2564 108.2939 29.1217 0.0582 9.6018 0.0141
# 3 20.5757 29.1217 105.9608 0.0240 7.0003 0.0140
# 4 -0.0008 0.0582 0.0240 20.8708 0.0220 -7.3708
# 5 19.2483 9.6018 7.0003 0.0220 27.6728 -0.0177
# 6 0.0137 0.0141 0.0140 -7.3708 -0.0177 24.7326
#
#
#
# Elastic Compliance Matrix: (Units=1/GPa)
#
#
# Indices 1 2 3 4 5 6 
#
# 1 0.019980 -0.005611 -0.001575 0.000028 -0.011552 -0.000007
# 2 -0.005611 0.011767 -0.002169 -0.000035 0.000368 -0.000013
# 3 -0.001575 -0.002169 0.010391 -0.000007 -0.000781 -0.000007
# 4 0.000028 -0.000035 -0.000007 0.053550 -0.000038 0.015959
# 5 -0.011552 0.000368 -0.000781 -0.000038 0.044242 0.000027
# 6 -0.000007 -0.000013 -0.000007 0.015959 0.000027 0.045189
#
#
# Mechanical properties :
#
#
# Convention : Reuss Voigt Hill
#
# Bulk Modulus (GPa) = 42.68071 51.52289 47.10180
# Shear Modulus (GPa) = 23.62551 27.97822 25.80187
#
# Velocity S-wave (km/s) = 3.63089 3.95123 3.79444
# Velocity P-wave (km/s) = 6.43384 7.04037 6.74392
#
# Compressibility (1/GPa) = 0.02342979
#
# Stress axis : x y z
#
# Youngs Moduli (GPa) = 50.05014 84.98562 96.23856
#
# Poissons Ratio (x) = 0.47681 0.15154
# Poissons Ratio (y) = 0.28081 0.20872
# Poissons Ratio (z) = 0.07881 0.18431
#
# Static dielectric constant tensor:
#      x y z
#    x 1.636600 0.000020 -0.044810 
#    y 0.000020 1.644640 0.000000 
#    z -0.044810 0.000000 1.715870 
# 
# From -- ./inp_files/271151.got.cif
#   From: 2010.05.17/outbox.cif.g08.bks.cpg/sg15_136_cif.got.tgz:271151.got - 2010.06.03 18:47:42.
