data_PCOD9264529
_publ_section_title
;
Structure prediction by ZEFSAII (Michael W. Deem and Ramdas Pophale) SiO2 
 PCOD9264529
Probable space group: C 2/C
;
_chemical_formula_sum "Si O2"
_cell_formula_units_Z 56
_cell_length_a 14.919560
_cell_length_b 14.047507
_cell_length_c 26.528761
_cell_angle_alpha 90.000000
_cell_angle_beta 149.892959
_cell_angle_gamma 90.000000
_cell_volume 2788.974414
_symmetry_space_group_name_H-M "C 2/C"
_symmetry_group_IT_number 15
_symmetry_cell_setting 'monoclinic'
loop_
_space_group_symop_operation_xyz
x,y,z
-x,y,1/2-z
-x,-y,-z
x,-y,1/2+z
1/2+x,1/2+y,z
1/2-x,1/2+y,1/2-z
1/2-x,1/2-y,-z
1/2+x,1/2-y,1/2+z
loop_
_atom_site_type_symbol
_atom_site_label
_atom_site_fract_x
_atom_site_fract_y
_atom_site_fract_z
Si Si1 0.000000 0.847708 0.250000
Si Si2 0.234964 0.175355 0.429679
Si Si3 0.000000 0.685187 0.750000
Si Si4 0.989309 0.792758 0.896222
Si Si5 0.047230 0.755920 0.383066
Si Si6 0.272804 0.134108 0.728590
Si Si7 0.801807 0.577109 0.279118
Si Si8 0.290074 0.988611 0.884810
O O1 0.028578 0.788172 0.315413
O O2 0.173195 0.915685 0.325617
O O3 0.428294 0.226170 0.520491
O O4 0.220263 0.074503 0.396750
O O5 0.105424 0.246816 0.338663
O O6 0.163421 0.167328 0.451761
O O7 0.150199 0.631513 0.790561
O O8 0.879261 0.716974 0.809640
O O9 0.855202 0.880746 0.832930
O O10 0.250000 0.750000 0.500000
O O11 0.930353 0.831770 0.359560
O O12 0.961977 0.651043 0.349067
O O13 0.323871 0.032917 0.776685
O O14 0.761789 0.572229 0.319675
O O15 0.500000 0.000000 0.000000
#
# Coordination Sequence:
#
# PCOD9264529 Si02
#       8
#     4   8   4   8   8   8   8   8
#     4  12  25  43  68 106 146 184 238 298 368 428
#     4  10  19  35  59  92 121 156 218 267 344 388
#     4  10  21  39  66  86 122 172 218 284 324 408
#     4   9  20  36  60  89 126 165 203 281 330 402
#     4  11  25  45  68 104 148 185 226 298 370 429
#     4  10  21  43  64  92 130 171 233 278 339 414
#     4  11  22  42  64  89 138 176 222 283 340 408
#     4  12  23  37  68  99 127 175 233 289 345 418
#
# _framework density 20.079066000000001
#
# number of rings (size 3 to 8) (size 9 to 14) (size 15 to 20)
#    0.000    1.429    1.429    5.571    2.000    0.571 
#    5.143    0.714    0.000    0.000    0.000    0.000 
#    0.000    0.000    0.000    0.000    0.000    0.000 
#
# Total GULP energy -156028.603005 kJ/mol
# GULP energy per Si atom -5572.450107 kJ/mol
# Density = 2.003337 g / cm^3
# Si number density = 20.079066 Si / 1000 Ang^3
#
#
#
# Elastic Constant Matrix: (Units=GPa)
#
#
# Indices 1 2 3 4 5 6 
#
# 1 81.1811 41.5224 31.5304 0.0000 12.9646 0.0000
# 2 41.5224 83.2644 4.8226 -0.0001 4.8724 0.0000
# 3 31.5304 4.8226 90.6088 -0.0002 15.7267 0.0001
# 4 0.0000 -0.0001 -0.0002 25.3611 0.0000 5.7525
# 5 12.9646 4.8724 15.7267 0.0000 25.3100 0.0000
# 6 0.0000 0.0000 0.0001 5.7525 0.0000 52.8573
#
#
#
# Elastic Compliance Matrix: (Units=1/GPa)
#
#
# Indices 1 2 3 4 5 6 
#
# 1 0.020119 -0.009414 -0.005633 0.000000 -0.004993 0.000000
# 2 -0.009414 0.016558 0.002366 0.000000 0.000165 0.000000
# 3 -0.005633 0.002366 0.013954 0.000000 -0.006240 0.000000
# 4 0.000000 0.000000 0.000000 0.040429 0.000000 -0.004400
# 5 -0.004993 0.000165 -0.006240 0.000000 0.045913 0.000000
# 6 0.000000 0.000000 0.000000 -0.004400 0.000000 0.019398
#
#
# Mechanical properties :
#
#
# Convention : Reuss Voigt Hill
#
# Bulk Modulus (GPa) = 39.57626 45.64501 42.61064
# Shear Modulus (GPa) = 26.29422 32.51761 29.40591
#
# Velocity S-wave (km/s) = 3.62267 4.02864 3.83104
# Velocity P-wave (km/s) = 6.10339 6.66498 6.39035
#
# Compressibility (1/GPa) = 0.02526767
#
# Stress axis : x y z
#
# Youngs Moduli (GPa) = 49.70494 60.39358 71.66422
#
# Poissons Ratio (x) = 0.56857 0.40371
# Poissons Ratio (y) = 0.46794 -0.16957
# Poissons Ratio (z) = 0.28001 -0.14290
#
# Static dielectric constant tensor:
#      x y z
#    x 1.805610 0.000000 0.024480 
#    y 0.000000 1.687020 0.000000 
#    z 0.024480 0.000000 1.756780 
# 
# From -- ./inp_files/296631.got.cif
#   From: 2010.05.17/outbox.cif.g08.bks.cpg/sg15_149_cif.got.tgz:296631.got - 2010.06.03 18:47:42.
