data_PCOD9264067
_publ_section_title
;
Structure prediction by ZEFSAII (Michael W. Deem and Ramdas Pophale) SiO2 
 PCOD9264067
Probable space group: C 2/C
;
_chemical_formula_sum "Si O2"
_cell_formula_units_Z 48
_cell_length_a 13.176355
_cell_length_b 30.746046
_cell_length_c 5.790180
_cell_angle_alpha 90.000000
_cell_angle_beta 98.344282
_cell_angle_gamma 90.000000
_cell_volume 2320.890459
_symmetry_space_group_name_H-M "C 2/C"
_symmetry_group_IT_number 15
_symmetry_cell_setting 'monoclinic'
loop_
_space_group_symop_operation_xyz
x,y,z
-x,y,1/2-z
-x,-y,-z
x,-y,1/2+z
1/2+x,1/2+y,z
1/2-x,1/2+y,1/2-z
1/2-x,1/2-y,-z
1/2+x,1/2-y,1/2+z
loop_
_atom_site_type_symbol
_atom_site_label
_atom_site_fract_x
_atom_site_fract_y
_atom_site_fract_z
Si Si1 0.093903 0.288244 0.098964
Si Si2 0.108387 0.372198 0.792313
Si Si3 0.323549 0.610705 0.608859
Si Si4 0.882761 0.015311 0.497339
Si Si5 0.240366 0.664093 0.962820
Si Si6 0.099207 0.807253 0.622402
O O1 0.197688 0.301316 0.267368
O O2 0.098711 0.239651 0.000999
O O3 0.000000 0.288662 0.250000
O O4 0.085526 0.326986 0.916265
O O5 0.145005 0.359996 0.549328
O O6 0.000000 0.397079 0.750000
O O7 0.209097 0.390843 0.955071
O O8 0.376296 0.565724 0.565711
O O9 0.305879 0.625825 0.865584
O O10 0.388558 0.650799 0.530556
O O11 0.838753 0.992226 0.719590
O O12 0.000000 0.000000 0.500000
O O13 0.303353 0.689171 0.176779
O O14 0.000000 0.810271 0.750000
#
# Coordination Sequence:
#
# PCOD9264067 Si02
#       6
#     8   8   8   8   8   8
#     4  10  19  35  54  86 118 173 219 252 316 366
#     4  10  20  37  63  85 123 163 215 265 312 383
#     4  10  24  39  61  95 119 159 217 260 331 385
#     4  10  24  43  72  97 128 170 205 262 323 413
#     4  10  21  36  58  82 123 161 216 265 308 373
#     4  10  23  35  53  83 129 166 213 265 308 379
#
# _framework density 20.681718
#
# number of rings (size 3 to 8) (size 9 to 14) (size 15 to 20)
#    0.000    2.000    1.667    0.500    7.000    9.333 
#    0.000    0.000    0.000    1.000    0.000    0.000 
#    0.000    0.000    0.000    0.000    0.000    0.000 
#
# Total GULP energy -133834.351331 kJ/mol
# GULP energy per Si atom -5576.431305 kJ/mol
# Density = 2.063465 g / cm^3
# Si number density = 20.681718 Si / 1000 Ang^3
#
#
#
# Elastic Constant Matrix: (Units=GPa)
#
#
# Indices 1 2 3 4 5 6 
#
# 1 70.8544 18.3209 -5.4984 0.0000 -9.7129 0.0000
# 2 18.3209 121.9644 24.9202 0.0000 -19.4459 0.0000
# 3 -5.4984 24.9202 68.8948 0.0000 -21.1869 0.0000
# 4 0.0000 0.0000 0.0000 5.2062 0.0000 14.5618
# 5 -9.7129 -19.4459 -21.1869 0.0000 33.4506 0.0000
# 6 0.0000 0.0000 0.0000 14.5618 0.0000 -33.3527
#
#
#
# Elastic Compliance Matrix: (Units=1/GPa)
#
#
# Indices 1 2 3 4 5 6 
#
# 1 0.015770 -0.002241 0.003821 0.000000 0.005696 0.000000
# 2 -0.002241 0.009595 -0.002651 0.000000 0.003248 0.000000
# 3 0.003821 -0.002651 0.019431 0.000000 0.011876 0.000000
# 4 0.000000 0.000000 0.000000 0.086476 0.000000 0.037756
# 5 0.005696 0.003248 0.011876 0.000000 0.040959 0.000000
# 6 0.000000 0.000000 0.000000 0.037756 0.000000 -0.013498
#
#
# Mechanical properties :
#
#
# Convention : Reuss Voigt Hill
#
# Bulk Modulus (GPa) = 23.44424 37.46656 30.45540
# Shear Modulus (GPa) = 28.55619 15.99220 22.27420
#
# Velocity S-wave (km/s) = 3.71987 2.78376 3.28533
# Velocity P-wave (km/s) = 5.45988 5.33737 5.39897
#
# Compressibility (1/GPa) = 0.04265441
#
# Stress axis : x y z
#
# Youngs Moduli (GPa) = 63.40971 104.21734 51.46501
#
# Poissons Ratio (x) = 0.23360 -0.19666
# Poissons Ratio (y) = 0.14213 0.13642
# Poissons Ratio (z) = -0.24230 0.27625
#
# Static dielectric constant tensor:
#      x y z
#    x 1.802810 0.000000 0.045810 
#    y 0.000000 1.701860 0.000000 
#    z 0.045810 0.000000 2.137170 
# 
# From -- ./inp_files/8228.got.cif
#   From: 2010.05.17/outbox.cif.g08.bks.cpg/sg15_5_cif.got.tgz:8228.got - 2010.06.03 18:47:42.
