data_PCOD9264501
_publ_section_title
;
Structure prediction by ZEFSAII (Michael W. Deem and Ramdas Pophale) SiO2 
 PCOD9264501
Probable space group: C 2/C
;
_chemical_formula_sum "Si O2"
_cell_formula_units_Z 56
_cell_length_a 8.862366
_cell_length_b 16.457370
_cell_length_c 24.630032
_cell_angle_alpha 90.000000
_cell_angle_beta 45.993813
_cell_angle_gamma 90.000000
_cell_volume 2583.829715
_symmetry_space_group_name_H-M "C 2/C"
_symmetry_group_IT_number 15
_symmetry_cell_setting 'monoclinic'
loop_
_space_group_symop_operation_xyz
x,y,z
-x,y,1/2-z
-x,-y,-z
x,-y,1/2+z
1/2+x,1/2+y,z
1/2-x,1/2+y,1/2-z
1/2-x,1/2-y,-z
1/2+x,1/2-y,1/2+z
loop_
_atom_site_type_symbol
_atom_site_label
_atom_site_fract_x
_atom_site_fract_y
_atom_site_fract_z
Si Si1 0.923599 0.475449 0.705672
Si Si2 0.082850 0.164272 0.166637
Si Si3 0.139315 0.290848 0.768232
Si Si4 0.493697 0.517466 0.847755
Si Si5 0.329683 0.679788 0.906446
Si Si6 0.834775 0.052587 0.573377
Si Si7 0.966456 0.224824 0.535204
O O1 0.898440 0.380781 0.697537
O O2 0.698430 0.518429 0.757896
O O3 0.000000 0.476794 0.750000
O O4 0.102478 0.517445 0.626839
O O5 0.090202 0.074011 0.139051
O O6 0.298974 0.211676 0.102136
O O7 0.000000 0.160377 0.250000
O O8 0.883524 0.213158 0.191984
O O9 0.000000 0.287869 0.750000
O O10 0.038412 0.222150 0.830496
O O11 0.326942 0.589411 0.883147
O O12 0.593882 0.538058 0.881748
O O13 0.376620 0.684526 0.959192
O O14 0.116834 0.731408 0.954128
O O15 0.841162 0.144426 0.550171
O O16 0.000000 0.000000 0.500000
#
# Coordination Sequence:
#
# PCOD9264501 Si02
#       7
#     8   8   8   8   8   8   8
#     4   8  16  31  53  80 109 149 195 245 292 352
#     4  11  22  40  63  93 121 160 211 258 307 368
#     4  10  20  36  60  86 120 157 199 256 309 364
#     4   9  21  36  56  84 121 161 202 253 305 368
#     4  10  20  38  57  85 123 161 200 243 313 371
#     4  10  19  35  59  88 121 158 207 252 307 371
#     4  10  22  35  61  89 116 163 204 251 303 374
#
# _framework density 21.673255000000001
#
# number of rings (size 3 to 8) (size 9 to 14) (size 15 to 20)
#    0.000    2.286    1.429    1.714    2.000    1.714 
#    0.000    2.857    0.000    0.000    0.000    0.000 
#    0.000    0.000    0.000    0.000    0.000    0.000 
#
# Total GULP energy -156008.801356 kJ/mol
# GULP energy per Si atom -5571.742906 kJ/mol
# Density = 2.162393 g / cm^3
# Si number density = 21.673255 Si / 1000 Ang^3
#
#
#
# Elastic Constant Matrix: (Units=GPa)
#
#
# Indices 1 2 3 4 5 6 
#
# 1 29.3249 -2.8016 -9.0107 -0.0002 -9.0700 0.0002
# 2 -2.8016 99.2153 50.7008 -0.0002 -6.7780 0.0001
# 3 -9.0107 50.7008 73.3440 -0.0007 -16.0383 0.0006
# 4 -0.0002 -0.0002 -0.0007 21.4142 0.0004 5.2141
# 5 -9.0700 -6.7780 -16.0383 0.0004 16.7841 -0.0003
# 6 0.0002 0.0001 0.0006 5.2141 -0.0003 4.6886
#
#
#
# Elastic Compliance Matrix: (Units=1/GPa)
#
#
# Indices 1 2 3 4 5 6 
#
# 1 0.054782 -0.006118 0.021355 0.000001 0.047539 -0.000003
# 2 -0.006118 0.016615 -0.014529 -0.000001 -0.010480 0.000002
# 3 0.021355 -0.014529 0.034817 0.000001 0.038943 -0.000004
# 4 0.000001 -0.000001 0.000001 0.064038 -0.000002 -0.071215
# 5 0.047539 -0.010480 0.038943 -0.000002 0.118251 0.000003
# 6 -0.000003 0.000002 -0.000004 -0.071215 0.000003 0.292479
#
#
# Mechanical properties :
#
#
# Convention : Reuss Voigt Hill
#
# Bulk Modulus (GPa) = 9.29108 31.07345 20.18226
# Shear Modulus (GPa) = 8.12425 19.44377 13.78401
#
# Velocity S-wave (km/s) = 1.93821 2.99847 2.52462
# Velocity P-wave (km/s) = 3.05042 5.13382 4.22263
#
# Compressibility (1/GPa) = 0.10763015
#
# Stress axis : x y z
#
# Youngs Moduli (GPa) = 18.25424 60.18722 28.72152
#
# Poissons Ratio (x) = 0.36824 -0.61335
# Poissons Ratio (y) = 0.11168 0.41729
# Poissons Ratio (z) = -0.38982 0.87444
#
# Static dielectric constant tensor:
#      x y z
#    x 1.917070 0.000000 0.027130 
#    y 0.000000 1.841770 0.000000 
#    z 0.027130 0.000000 1.817110 
# 
# From -- ./inp_files/232798.got.cif
#   From: 2010.05.17/outbox.cif.g08.bks.cpg/sg15_117_cif.got.tgz:232798.got - 2010.06.03 18:47:42.
