data_PCOD9264284
_publ_section_title
;
Structure prediction by ZEFSAII (Michael W. Deem and Ramdas Pophale) SiO2 
 PCOD9264284
Probable space group: C 2/C
;
_chemical_formula_sum "Si O2"
_cell_formula_units_Z 56
_cell_length_a 26.383376
_cell_length_b 18.234183
_cell_length_c 9.255884
_cell_angle_alpha 90.000000
_cell_angle_beta 139.919266
_cell_angle_gamma 90.000000
_cell_volume 2867.017414
_symmetry_space_group_name_H-M "C 2/C"
_symmetry_group_IT_number 15
_symmetry_cell_setting 'monoclinic'
loop_
_space_group_symop_operation_xyz
x,y,z
-x,y,1/2-z
-x,-y,-z
x,-y,1/2+z
1/2+x,1/2+y,z
1/2-x,1/2+y,1/2-z
1/2-x,1/2-y,-z
1/2+x,1/2-y,1/2+z
loop_
_atom_site_type_symbol
_atom_site_label
_atom_site_fract_x
_atom_site_fract_y
_atom_site_fract_z
Si Si1 0.704375 0.408072 0.272256
Si Si2 0.438882 0.307414 0.481066
Si Si3 0.859454 0.409833 0.225260
Si Si4 0.186953 0.057718 0.401574
Si Si5 0.982261 0.074661 0.545159
Si Si6 0.621144 0.056386 0.399820
Si Si7 0.001765 0.319812 0.584317
O O1 0.648789 0.336863 0.170501
O O2 0.686763 0.473563 0.346468
O O3 0.799290 0.402130 0.481003
O O4 0.685488 0.439100 0.071332
O O5 0.467090 0.364448 0.421836
O O6 0.451378 0.230892 0.425508
O O7 0.500000 0.311643 0.750000
O O8 0.880121 0.473495 0.157944
O O9 0.875168 0.441853 0.419472
O O10 0.913640 0.337865 0.336120
O O11 0.765228 0.402007 0.015331
O O12 0.108776 0.094505 0.172152
O O13 0.000000 0.064618 0.750000
O O14 0.000000 0.000000 0.500000
O O15 0.546511 0.102504 0.187436
O O16 0.000000 0.293432 0.750000
#
# Coordination Sequence:
#
# PCOD9264284 Si02
#       7
#     8   8   8   8   8   8   8
#     4  10  20  35  57  88 117 147 185 240 287 338
#     4  12  24  38  56  80 116 156 197 234 281 343
#     4   9  19  36  62  88 113 145 187 240 287 340
#     4  10  19  35  57  87 115 142 190 234 288 333
#     4  12  22  35  58  84 112 152 192 237 286 340
#     4   9  19  36  63  87 116 144 188 239 288 342
#     4  10  22  41  58  81 117 156 192 234 287 341
#
# _framework density 19.532494
#
# number of rings (size 3 to 8) (size 9 to 14) (size 15 to 20)
#    0.000    1.714    2.857    2.143    0.000    1.714 
#    0.000    0.714    3.143    0.000    0.000    0.000 
#    0.000    0.000    0.000    0.000    0.000    0.000 
#
# Total GULP energy -156178.545495 kJ/mol
# GULP energy per Si atom -5577.805196 kJ/mol
# Density = 1.948804 g / cm^3
# Si number density = 19.532494 Si / 1000 Ang^3
#
#
#
# Elastic Constant Matrix: (Units=GPa)
#
#
# Indices 1 2 3 4 5 6 
#
# 1 79.8496 21.1402 29.4802 0.0000 -0.5846 0.0000
# 2 21.1402 25.9634 6.6163 0.0000 -1.9067 0.0000
# 3 29.4802 6.6163 75.4727 0.0000 13.1816 0.0000
# 4 0.0000 0.0000 0.0000 16.8296 0.0000 9.0072
# 5 -0.5846 -1.9067 13.1816 0.0000 36.0935 0.0000
# 6 0.0000 0.0000 0.0000 9.0072 0.0000 -7.1879
#
#
#
# Elastic Compliance Matrix: (Units=1/GPa)
#
#
# Indices 1 2 3 4 5 6 
#
# 1 0.018381 -0.013205 -0.006358 0.000000 0.001922 0.000000
# 2 -0.013205 0.049318 0.000445 0.000000 0.002229 0.000000
# 3 -0.006358 0.000445 0.016778 0.000000 -0.006207 0.000000
# 4 0.000000 0.000000 0.000000 0.035566 0.000000 0.044568
# 5 0.001922 0.002229 -0.006207 0.000000 0.030122 0.000000
# 6 0.000000 0.000000 0.000000 0.044568 0.000000 -0.083274
#
#
# Mechanical properties :
#
#
# Convention : Reuss Voigt Hill
#
# Bulk Modulus (GPa) = 21.62540 32.86215 27.24378
# Shear Modulus (GPa) = 41.48004 17.41697 29.44850
#
# Velocity S-wave (km/s) = 4.61330 2.98936 3.88708
# Velocity P-wave (km/s) = 6.28269 5.36432 5.84158
#
# Compressibility (1/GPa) = 0.04624192
#
# Stress axis : x y z
#
# Youngs Moduli (GPa) = 54.40417 20.27662 59.60093
#
# Poissons Ratio (x) = 0.26775 0.37893
# Poissons Ratio (y) = 0.71841 -0.02654
# Poissons Ratio (z) = 0.34589 -0.00903
#
# Static dielectric constant tensor:
#      x y z
#    x 1.726180 0.000000 0.045250 
#    y 0.000000 1.736870 0.000000 
#    z 0.045250 0.000000 1.724440 
# 
# From -- ./inp_files/62655.got.cif
#   From: 2010.05.17/outbox.cif.g08.bks.cpg/sg15_32_cif.got.tgz:62655.got - 2010.06.03 18:47:42.
