data_PCOD9264367
_publ_section_title
;
Structure prediction by ZEFSAII (Michael W. Deem and Ramdas Pophale) SiO2 
 PCOD9264367
Probable space group: C 2/C
;
_chemical_formula_sum "Si O2"
_cell_formula_units_Z 44
_cell_length_a 18.343754
_cell_length_b 22.319874
_cell_length_c 5.542798
_cell_angle_alpha 90.000000
_cell_angle_beta 68.448620
_cell_angle_gamma 90.000000
_cell_volume 2110.732991
_symmetry_space_group_name_H-M "C 2/C"
_symmetry_group_IT_number 15
_symmetry_cell_setting 'monoclinic'
loop_
_space_group_symop_operation_xyz
x,y,z
-x,y,1/2-z
-x,-y,-z
x,-y,1/2+z
1/2+x,1/2+y,z
1/2-x,1/2+y,1/2-z
1/2-x,1/2-y,-z
1/2+x,1/2-y,1/2+z
loop_
_atom_site_type_symbol
_atom_site_label
_atom_site_fract_x
_atom_site_fract_y
_atom_site_fract_z
Si Si1 0.457213 0.668447 0.049845
Si Si2 0.187463 0.747842 0.285959
Si Si3 0.000000 0.538281 0.750000
Si Si4 0.289551 0.649787 0.418779
Si Si5 0.014903 0.301963 0.975580
Si Si6 0.177560 0.462500 0.057036
O O1 0.500000 0.650086 0.250000
O O2 0.367133 0.647745 0.160434
O O3 0.500000 0.649979 0.750000
O O4 0.460937 0.741701 0.047847
O O5 0.225193 0.698632 0.416667
O O6 0.177949 0.816075 0.385241
O O7 0.102205 0.722341 0.341458
O O8 0.250000 0.750000 0.000000
O O9 0.089129 0.564195 0.652049
O O10 0.000000 0.500000 0.500000
O O11 0.244016 0.588232 0.493056
O O12 0.000000 0.338697 0.750000
O O13 0.000000 0.331358 0.250000
O O14 0.185578 0.501534 0.293428
#
# Coordination Sequence:
#
# PCOD9264367 Si02
#       6
#     8   8   4   8   8   8
#     4  10  19  35  58  85 119 176 204 241 313 391
#     4  11  23  38  61  94 133 164 206 266 319 382
#     4   8  16  38  64  88 120 160 202 252 324 378
#     4  11  24  39  63  98 128 164 217 269 320 373
#     4  10  19  36  55  80 118 174 201 233 303 389
#     4  10  23  43  69  92 123 166 216 264 316 378
#
# _framework density 20.845839999999999
#
# number of rings (size 3 to 8) (size 9 to 14) (size 15 to 20)
#    0.000    1.818    3.636    2.182    5.091    0.000 
#    1.636    0.000    2.000    3.273    0.000    0.000 
#    0.000    0.000    0.000    0.000    0.000    0.000 
#
# Total GULP energy -122585.994529 kJ/mol
# GULP energy per Si atom -5572.090660 kJ/mol
# Density = 2.079839 g / cm^3
# Si number density = 20.845840 Si / 1000 Ang^3
#
#
#
# Elastic Constant Matrix: (Units=GPa)
#
#
# Indices 1 2 3 4 5 6 
#
# 1 120.6842 49.2959 58.2442 0.0000 -12.7476 0.0000
# 2 49.2959 80.4077 46.2943 0.0000 -13.3930 0.0000
# 3 58.2442 46.2943 172.7719 0.0000 3.7347 0.0000
# 4 0.0000 0.0000 0.0000 3.9436 0.0000 -19.9400
# 5 -12.7476 -13.3930 3.7347 0.0000 47.9125 0.0000
# 6 0.0000 0.0000 0.0000 -19.9400 0.0000 28.3574
#
#
#
# Elastic Compliance Matrix: (Units=1/GPa)
#
#
# Indices 1 2 3 4 5 6 
#
# 1 0.012004 -0.005557 -0.002598 0.000000 0.001843 0.000000
# 2 -0.005557 0.018278 -0.003108 0.000000 0.003873 0.000000
# 3 -0.002598 -0.003108 0.007543 0.000000 -0.002148 0.000000
# 4 0.000000 0.000000 0.000000 -0.099230 0.000000 -0.069775
# 5 0.001843 0.003873 -0.002148 0.000000 0.022612 0.000000
# 6 0.000000 0.000000 0.000000 -0.069775 0.000000 -0.013800
#
#
# Mechanical properties :
#
#
# Convention : Reuss Voigt Hill
#
# Bulk Modulus (GPa) = 65.35968 75.72582 70.54275
# Shear Modulus (GPa) = -200.26516 30.71132 -84.77692
#
# Velocity S-wave (km/s) = -9.81214 3.84247 -6.38410
# Velocity P-wave (km/s) = 9.84627 7.48943 4.51981
#
# Compressibility (1/GPa) = 0.01529995
#
# Stress axis : x y z
#
# Youngs Moduli (GPa) = 83.30356 54.71075 132.57476
#
# Poissons Ratio (x) = 0.30402 0.34439
# Poissons Ratio (y) = 0.46291 0.41204
# Poissons Ratio (z) = 0.21640 0.17004
#
# Static dielectric constant tensor:
#      x y z
#    x 1.841240 0.000000 0.088370 
#    y 0.000000 1.812680 0.000000 
#    z 0.088370 0.000000 1.845650 
# 
# From -- ./inp_files/10286.got.cif
#   From: 2010.05.17/outbox.cif.g08.bks.cpg/sg15_6_cif.got.tgz:10286.got - 2010.06.03 18:47:42.
