data_PCOD9264110
_publ_section_title
;
Structure prediction by ZEFSAII (Michael W. Deem and Ramdas Pophale) SiO2 
 PCOD9264110
Probable space group: C 2/C
;
_chemical_formula_sum "Si O2"
_cell_formula_units_Z 56
_cell_length_a 8.661408
_cell_length_b 20.071571
_cell_length_c 17.891246
_cell_angle_alpha 90.000000
_cell_angle_beta 62.640127
_cell_angle_gamma 90.000000
_cell_volume 2762.425929
_symmetry_space_group_name_H-M "C 2/C"
_symmetry_group_IT_number 15
_symmetry_cell_setting 'monoclinic'
loop_
_space_group_symop_operation_xyz
x,y,z
-x,y,1/2-z
-x,-y,-z
x,-y,1/2+z
1/2+x,1/2+y,z
1/2-x,1/2+y,1/2-z
1/2-x,1/2-y,-z
1/2+x,1/2-y,1/2+z
loop_
_atom_site_type_symbol
_atom_site_label
_atom_site_fract_x
_atom_site_fract_y
_atom_site_fract_z
Si Si1 0.429650 0.931543 0.434490
Si Si2 0.526354 0.312198 0.332587
Si Si3 0.766997 0.943020 0.165097
Si Si4 0.110717 0.997769 0.569814
Si Si5 0.785216 0.527352 0.175244
Si Si6 0.553743 0.835802 0.825305
Si Si7 0.693325 0.136295 0.982948
O O1 0.383804 0.922289 0.357877
O O2 0.544423 0.877960 0.453396
O O3 0.238755 0.940351 0.512560
O O4 0.546576 0.998940 0.407605
O O5 0.500000 0.320333 0.250000
O O6 0.636150 0.375320 0.334490
O O7 0.613667 0.240159 0.324461
O O8 0.340213 0.315132 0.416394
O O9 0.909929 0.992264 0.094013
O O10 0.716388 0.984698 0.249082
O O11 0.205044 0.066845 0.529730
O O12 0.125361 0.989175 0.656517
O O13 0.813361 0.604724 0.185797
O O14 0.500000 0.842533 0.750000
O O15 0.395191 0.845152 0.919170
#
# Coordination Sequence:
#
# PCOD9264110 Si02
#       7
#     8   8   8   8   8   8   8
#     4  11  19  34  57  86 115 145 194 247 290 357
#     4  10  22  39  59  85 117 155 197 247 298 363
#     4  11  22  34  57  86 116 156 195 238 300 355
#     4  10  19  35  55  83 119 148 190 248 296 342
#     4  11  20  36  60  85 113 149 200 251 297 340
#     4  11  21  36  60  87 115 149 206 246 293 358
#     4  10  19  37  62  84 117 153 194 245 306 343
#
# _framework density 20.272037000000001
#
# number of rings (size 3 to 8) (size 9 to 14) (size 15 to 20)
#    0.000    1.429    2.857    6.000    0.000    0.000 
#    0.000    0.714    0.000    6.857    0.000    0.000 
#    0.000    0.000    0.000    0.000    0.000    0.000 
#
# Total GULP energy -156181.889254 kJ/mol
# GULP energy per Si atom -5577.924616 kJ/mol
# Density = 2.022590 g / cm^3
# Si number density = 20.272037 Si / 1000 Ang^3
#
#
#
# Elastic Constant Matrix: (Units=GPa)
#
#
# Indices 1 2 3 4 5 6 
#
# 1 75.0017 28.5187 26.2137 0.0000 7.8162 0.0000
# 2 28.5187 111.4702 19.1128 0.0000 4.6102 0.0000
# 3 26.2137 19.1128 105.5797 0.0000 6.1952 0.0000
# 4 0.0000 0.0000 0.0000 22.1727 0.0000 -1.3582
# 5 7.8162 4.6102 6.1952 0.0000 27.7132 0.0000
# 6 0.0000 0.0000 0.0000 -1.3582 0.0000 7.0602
#
#
#
# Elastic Compliance Matrix: (Units=1/GPa)
#
#
# Indices 1 2 3 4 5 6 
#
# 1 0.016091 -0.003437 -0.003182 0.000000 -0.003255 0.000000
# 2 -0.003437 0.010031 -0.000934 0.000000 -0.000491 0.000000
# 3 -0.003182 -0.000934 0.010507 0.000000 -0.001296 0.000000
# 4 0.000000 0.000000 0.000000 0.045638 0.000000 0.008780
# 5 -0.003255 -0.000491 -0.001296 0.000000 0.037373 0.000000
# 6 0.000000 0.000000 0.000000 0.008780 0.000000 0.143328
#
#
# Mechanical properties :
#
#
# Convention : Reuss Voigt Hill
#
# Bulk Modulus (GPa) = 46.46052 48.86022 47.66037
# Shear Modulus (GPa) = 17.52865 25.93632 21.73248
#
# Velocity S-wave (km/s) = 2.94372 3.58077 3.27776
# Velocity P-wave (km/s) = 5.87556 6.42265 6.15519
#
# Compressibility (1/GPa) = 0.02152365
#
# Stress axis : x y z
#
# Youngs Moduli (GPa) = 62.14597 99.69472 95.17782
#
# Poissons Ratio (x) = 0.34261 0.30286
# Poissons Ratio (y) = 0.21357 0.08888
# Poissons Ratio (z) = 0.19775 0.09309
#
# Static dielectric constant tensor:
#      x y z
#    x 1.752080 0.000000 -0.003750 
#    y 0.000000 1.683530 0.000000 
#    z -0.003750 0.000000 1.839650 
# 
# From -- ./inp_files/136458.got.cif
#   From: 2010.05.17/outbox.cif.g08.bks.cpg/sg15_69_cif.got.tgz:136458.got - 2010.06.03 18:47:42.
