data_PCOD9264918
_publ_section_title
;
Structure prediction by ZEFSAII (Michael W. Deem and Ramdas Pophale) SiO2 
 PCOD9264918
Probable space group: C 2/C
;
_chemical_formula_sum "Si O2"
_cell_formula_units_Z 44
_cell_length_a 16.138172
_cell_length_b 27.486860
_cell_length_c 13.382100
_cell_angle_alpha 90.000000
_cell_angle_beta 159.934529
_cell_angle_gamma 90.000000
_cell_volume 2036.650342
_symmetry_space_group_name_H-M "C 2/C"
_symmetry_group_IT_number 15
_symmetry_cell_setting 'monoclinic'
loop_
_space_group_symop_operation_xyz
x,y,z
-x,y,1/2-z
-x,-y,-z
x,-y,1/2+z
1/2+x,1/2+y,z
1/2-x,1/2+y,1/2-z
1/2-x,1/2-y,-z
1/2+x,1/2-y,1/2+z
loop_
_atom_site_type_symbol
_atom_site_label
_atom_site_fract_x
_atom_site_fract_y
_atom_site_fract_z
Si Si1 0.048476 0.642697 0.190702
Si Si2 0.500000 0.411748 0.250000
Si Si3 0.500000 0.608991 0.250000
Si Si4 0.237603 0.953979 0.332076
Si Si5 0.000000 0.723487 0.750000
Si Si6 0.945795 0.652660 0.863107
Si Si7 0.759918 0.060697 0.159949
O O1 0.323332 0.625653 0.494339
O O2 0.000000 0.660441 0.250000
O O3 0.911929 0.591448 0.023448
O O4 0.964901 0.671698 0.998349
O O5 0.627045 0.446888 0.316221
O O6 0.673435 0.640972 0.517804
O O7 0.323605 0.576975 0.119593
O O8 0.353238 0.007130 0.456133
O O9 0.020093 0.945844 0.008099
O O10 0.941606 0.689503 0.589006
O O11 0.750000 0.750000 0.500000
O O12 0.097527 0.602565 0.024235
#
# Coordination Sequence:
#
# PCOD9264918 Si02
#       7
#     8   4   4   8   4   8   8
#     4  10  22  39  61  91 132 185 229 276 322 406
#     4  10  19  36  53  82 122 178 228 269 316 374
#     4  12  22  38  60  94 128 186 232 294 352 417
#     4  10  21  34  54  85 135 182 241 277 329 380
#     4  12  29  52  81 114 138 174 226 305 390 459
#     4  12  24  43  69  96 135 172 232 285 370 432
#     4  11  22  35  56  90 127 188 227 289 337 408
#
# _framework density 21.604099999999999
#
# number of rings (size 3 to 8) (size 9 to 14) (size 15 to 20)
#    0.000    1.091    5.455    1.091    0.000    6.545 
#    0.000    0.000    0.000    1.091    0.000    0.000 
#    0.000    0.000    0.000    0.000    0.000    0.000 
#
# Total GULP energy -122842.800310 kJ/mol
# GULP energy per Si atom -5583.763650 kJ/mol
# Density = 2.155493 g / cm^3
# Si number density = 21.604100 Si / 1000 Ang^3
#
#
#
# Elastic Constant Matrix: (Units=GPa)
#
#
# Indices 1 2 3 4 5 6 
#
# 1 143.1565 38.2319 23.7102 0.0002 -24.2145 -0.0002
# 2 38.2319 42.2358 9.3436 0.0003 -0.7774 0.0001
# 3 23.7102 9.3436 77.6477 0.0005 -19.0498 -0.0009
# 4 0.0002 0.0003 0.0005 14.8155 0.0002 11.0713
# 5 -24.2145 -0.7774 -19.0498 0.0002 42.0472 -0.0004
# 6 -0.0002 0.0001 -0.0009 11.0713 -0.0004 6.4561
#
#
#
# Elastic Compliance Matrix: (Units=1/GPa)
#
#
# Indices 1 2 3 4 5 6 
#
# 1 0.010519 -0.009256 -0.000736 0.000002 0.005553 -0.000003
# 2 -0.009256 0.032506 -0.002526 -0.000003 -0.005874 0.000003
# 3 -0.000736 -0.002526 0.014954 0.000008 0.006305 -0.000012
# 4 0.000002 -0.000003 0.000008 -0.239787 0.000010 0.411203
# 5 0.005553 -0.005874 0.006305 0.000010 0.029729 -0.000015
# 6 -0.000003 0.000003 -0.000012 0.411203 -0.000015 -0.550266
#
#
# Mechanical properties :
#
#
# Convention : Reuss Voigt Hill
#
# Bulk Modulus (GPa) = 30.35618 45.06792 37.71205
# Shear Modulus (GPa) = -7.50382 25.44737 8.97177
#
# Velocity S-wave (km/s) = -1.86571 3.43577 2.04006
# Velocity P-wave (km/s) = 3.07253 6.05355 4.80031
#
# Compressibility (1/GPa) = 0.03294222
#
# Stress axis : x y z
#
# Youngs Moduli (GPa) = 95.07008 30.76324 66.87131
#
# Poissons Ratio (x) = 0.28476 0.04919
# Poissons Ratio (y) = 0.88001 0.16893
# Poissons Ratio (z) = 0.06994 0.07772
#
# Static dielectric constant tensor:
#      x y z
#    x 1.852360 0.000000 -0.009630 
#    y 0.000000 1.806410 0.000000 
#    z -0.009630 0.000000 1.876980 
# 
# From -- ./inp_files/8033.got.cif
#   From: 2010.05.17/outbox.cif.g08.bks.cpg/sg15_5_cif.got.tgz:8033.got - 2010.06.03 18:47:42.
