data_PCOD9264768
_publ_section_title
;
Structure prediction by ZEFSAII (Michael W. Deem and Ramdas Pophale) SiO2 
 PCOD9264768
Probable space group: C 2/C
;
_chemical_formula_sum "Si O2"
_cell_formula_units_Z 40
_cell_length_a 16.348488
_cell_length_b 10.107464
_cell_length_c 11.569155
_cell_angle_alpha 90.000000
_cell_angle_beta 99.130883
_cell_angle_gamma 90.000000
_cell_volume 1887.483099
_symmetry_space_group_name_H-M "C 2/C"
_symmetry_group_IT_number 15
_symmetry_cell_setting 'monoclinic'
loop_
_space_group_symop_operation_xyz
x,y,z
-x,y,1/2-z
-x,-y,-z
x,-y,1/2+z
1/2+x,1/2+y,z
1/2-x,1/2+y,1/2-z
1/2-x,1/2-y,-z
1/2+x,1/2-y,1/2+z
loop_
_atom_site_type_symbol
_atom_site_label
_atom_site_fract_x
_atom_site_fract_y
_atom_site_fract_z
Si Si1 0.625576 0.520965 0.014139
Si Si2 0.500594 0.302842 0.610059
Si Si3 0.726025 0.129597 0.575985
Si Si4 0.234990 0.184554 0.661010
Si Si5 0.632976 0.881764 0.505120
O O1 0.584969 0.650184 0.064706
O O2 0.675351 0.440382 0.123115
O O3 0.558545 0.424233 0.942066
O O4 0.692066 0.541504 0.927820
O O5 0.500000 0.292681 0.750000
O O6 0.457794 0.173234 0.543957
O O7 0.750000 0.250000 0.500000
O O8 0.724860 0.176435 0.705887
O O9 0.649469 0.037320 0.521767
O O10 0.309333 0.173757 0.585846
O O11 0.175684 0.310474 0.625316
#
# Coordination Sequence:
#
# PCOD9264768 Si02
#       5
#     8   8   8   8   8
#     4   9  20  36  56  94 111 159 208 245 296 361
#     4  10  19  35  63  81 124 159 199 247 303 362
#     4  11  23  35  60  89 120 152 203 251 303 353
#     4   9  19  37  61  84 124 149 204 259 294 356
#     4   9  21  37  57  92 115 159 199 246 308 361
#
# _framework density 21.192245
#
# number of rings (size 3 to 8) (size 9 to 14) (size 15 to 20)
#    0.000    2.400    0.000    2.400    8.400    0.000 
#    0.000    1.000    0.000    0.000    0.000    0.000 
#    0.000    0.000    0.000    0.000    0.000    0.000 
#
# Total GULP energy -111544.006606 kJ/mol
# GULP energy per Si atom -5577.200330 kJ/mol
# Density = 2.114401 g / cm^3
# Si number density = 21.192245 Si / 1000 Ang^3
#
#
#
# Elastic Constant Matrix: (Units=GPa)
#
#
# Indices 1 2 3 4 5 6 
#
# 1 78.2269 26.2190 9.1033 0.0000 6.5232 0.0000
# 2 26.2190 99.1196 24.7031 0.0000 10.8892 0.0000
# 3 9.1033 24.7031 99.5949 0.0000 4.3870 0.0000
# 4 0.0000 0.0000 0.0000 7.6742 0.0000 -2.6996
# 5 6.5232 10.8892 4.3870 0.0000 19.4026 0.0000
# 6 0.0000 0.0000 0.0000 -2.6996 0.0000 38.5014
#
#
#
# Elastic Compliance Matrix: (Units=1/GPa)
#
#
# Indices 1 2 3 4 5 6 
#
# 1 0.014183 -0.003359 -0.000340 0.000000 -0.002806 0.000000
# 2 -0.003359 0.012160 -0.002483 0.000000 -0.005134 0.000000
# 3 -0.000340 -0.002483 0.010728 0.000000 -0.000918 0.000000
# 4 0.000000 0.000000 0.000000 0.133602 0.000000 0.009368
# 5 -0.002806 -0.005134 -0.000918 0.000000 0.055572 0.000000
# 6 0.000000 0.000000 0.000000 0.009368 0.000000 0.026630
#
#
# Mechanical properties :
#
#
# Convention : Reuss Voigt Hill
#
# Bulk Modulus (GPa) = 40.47245 44.11022 42.29133
# Shear Modulus (GPa) = 18.28334 27.57672 22.93003
#
# Velocity S-wave (km/s) = 2.94043 3.61122 3.29295
# Velocity P-wave (km/s) = 5.53781 6.18445 5.87004
#
# Compressibility (1/GPa) = 0.02470816
#
# Stress axis : x y z
#
# Youngs Moduli (GPa) = 70.50913 82.23643 93.21375
#
# Poissons Ratio (x) = 0.27620 0.03166
# Poissons Ratio (y) = 0.23681 0.23145
# Poissons Ratio (z) = 0.02395 0.20419
#
# Static dielectric constant tensor:
#      x y z
#    x 1.856390 0.000000 -0.010210 
#    y 0.000000 1.857660 0.000000 
#    z -0.010210 0.000000 1.729370 
# 
# From -- ./inp_files/103332.got.cif
#   From: 2010.05.17/outbox.cif.g08.bks.cpg/sg15_52_cif.got.tgz:103332.got - 2010.06.03 18:47:42.
