data_PCOD9264925
_publ_section_title
;
Structure prediction by ZEFSAII (Michael W. Deem and Ramdas Pophale) SiO2 
 PCOD9264925
Probable space group: C 2/C
;
_chemical_formula_sum "Si O2"
_cell_formula_units_Z 60
_cell_length_a 9.197137
_cell_length_b 24.608949
_cell_length_c 14.496648
_cell_angle_alpha 90.000000
_cell_angle_beta 131.854213
_cell_angle_gamma 90.000000
_cell_volume 2443.876303
_symmetry_space_group_name_H-M "C 2/C"
_symmetry_group_IT_number 15
_symmetry_cell_setting 'monoclinic'
loop_
_space_group_symop_operation_xyz
x,y,z
-x,y,1/2-z
-x,-y,-z
x,-y,1/2+z
1/2+x,1/2+y,z
1/2-x,1/2+y,1/2-z
1/2-x,1/2-y,-z
1/2+x,1/2-y,1/2+z
loop_
_atom_site_type_symbol
_atom_site_label
_atom_site_fract_x
_atom_site_fract_y
_atom_site_fract_z
Si Si1 0.723358 0.094890 0.334740
Si Si2 0.166260 0.714062 0.225051
Si Si3 0.241117 0.491173 0.694304
Si Si4 0.268283 0.980834 0.510513
Si Si5 0.542850 0.225380 0.544947
Si Si6 0.000000 0.172362 0.250000
Si Si7 0.267084 0.927479 0.157812
Si Si8 0.716382 0.331037 0.013439
O O1 0.500000 0.075596 0.250000
O O2 0.699128 0.157610 0.295042
O O3 0.799101 0.075302 0.467390
O O4 0.806954 0.059489 0.285605
O O5 0.238786 0.760844 0.326019
O O6 0.982116 0.714645 0.076296
O O7 0.336296 0.711523 0.221185
O O8 0.312470 0.500041 0.621367
O O9 0.281223 0.547308 0.764783
O O10 0.003589 0.482088 0.593087
O O11 0.214603 0.026292 0.561991
O O12 0.407830 0.278050 0.511372
O O13 0.432516 0.181192 0.564014
O O14 0.106272 0.142873 0.378493
O O15 0.500000 0.923771 0.250000
O O16 0.198743 0.870054 0.092296
#
# Coordination Sequence:
#
# PCOD9264925 Si02
#       8
#     8   8   8   8   8   4   8   8
#     4   9  18  32  54  80 111 147 186 227 280 333
#     4  10  19  36  54  80 111 149 189 234 282 330
#     4   8  15  29  47  77 111 137 179 226 276 326
#     4   8  15  29  47  76 115 138 175 229 268 333
#     4   9  20  32  51  76 109 148 186 233 276 334
#     4   8  18  32  50  76 100 146 182 220 278 336
#     4   9  17  25  46  81 108 134 168 228 287 325
#     4   9  17  31  49  75 111 136 182 231 284 328
#
# _framework density 24.551161
#
# number of rings (size 3 to 8) (size 9 to 14) (size 15 to 20)
#    0.000    3.200    0.000    2.400    5.600    0.000 
#    0.000    0.667    0.000   12.800    0.000    0.000 
#    0.000    0.000    0.000    0.000    0.000    0.133 
#
# Total GULP energy -167189.493634 kJ/mol
# GULP energy per Si atom -5572.983121 kJ/mol
# Density = 2.449528 g / cm^3
# Si number density = 24.551161 Si / 1000 Ang^3
#
#
#
# Elastic Constant Matrix: (Units=GPa)
#
#
# Indices 1 2 3 4 5 6 
#
# 1 58.1499 11.8380 28.6443 0.0000 -12.7259 0.0000
# 2 11.8380 75.9814 41.7363 0.0000 -8.5561 0.0000
# 3 28.6443 41.7363 132.1145 0.0000 -17.9967 0.0000
# 4 0.0000 0.0000 0.0000 13.8933 0.0000 4.8344
# 5 -12.7259 -8.5561 -17.9967 0.0000 34.8746 0.0000
# 6 0.0000 0.0000 0.0000 4.8344 0.0000 16.1021
#
#
#
# Elastic Compliance Matrix: (Units=1/GPa)
#
#
# Indices 1 2 3 4 5 6 
#
# 1 0.020213 -0.000649 -0.003436 0.000000 0.005443 0.000000
# 2 -0.000649 0.016010 -0.004748 0.000000 0.001241 0.000000
# 3 -0.003436 -0.004748 0.010202 0.000000 0.002846 0.000000
# 4 0.000000 0.000000 0.000000 0.080374 0.000000 -0.024131
# 5 0.005443 0.001241 0.002846 0.000000 0.032434 0.000000
# 6 0.000000 0.000000 0.000000 -0.024131 0.000000 0.069349
#
#
# Mechanical properties :
#
#
# Convention : Reuss Voigt Hill
#
# Bulk Modulus (GPa) = 34.77174 47.85370 41.31272
# Shear Modulus (GPa) = 19.54403 25.24247 22.39325
#
# Velocity S-wave (km/s) = 2.82450 3.20997 3.02338
# Velocity P-wave (km/s) = 4.98305 5.76821 5.38995
#
# Compressibility (1/GPa) = 0.02875898
#
# Stress axis : x y z
#
# Youngs Moduli (GPa) = 49.47354 62.46096 98.02230
#
# Poissons Ratio (x) = 0.04053 0.33680
# Poissons Ratio (y) = 0.03210 0.46541
# Poissons Ratio (z) = 0.16999 0.29656
#
# Static dielectric constant tensor:
#      x y z
#    x 1.999620 0.000000 0.060560 
#    y 0.000000 1.963380 0.000000 
#    z 0.060560 0.000000 2.102060 
# 
# From -- ./inp_files/147903.got.cif
#   From: 2010.05.17/outbox.cif.g08.bks.cpg/sg15_74_cif.got.tgz:147903.got - 2010.06.03 18:47:42.
