data_PCOD9264420
_publ_section_title
;
Structure prediction by ZEFSAII (Michael W. Deem and Ramdas Pophale) SiO2 
 PCOD9264420
Probable space group: C 2/C
;
_chemical_formula_sum "Si O2"
_cell_formula_units_Z 48
_cell_length_a 7.449698
_cell_length_b 12.635831
_cell_length_c 24.284833
_cell_angle_alpha 90.000000
_cell_angle_beta 104.780676
_cell_angle_gamma 90.000000
_cell_volume 2210.362067
_symmetry_space_group_name_H-M "C 2/C"
_symmetry_group_IT_number 15
_symmetry_cell_setting 'monoclinic'
loop_
_space_group_symop_operation_xyz
x,y,z
-x,y,1/2-z
-x,-y,-z
x,-y,1/2+z
1/2+x,1/2+y,z
1/2-x,1/2+y,1/2-z
1/2-x,1/2-y,-z
1/2+x,1/2-y,1/2+z
loop_
_atom_site_type_symbol
_atom_site_label
_atom_site_fract_x
_atom_site_fract_y
_atom_site_fract_z
Si Si1 0.995655 0.278206 0.526978
Si Si2 0.716395 0.403185 0.442424
Si Si3 0.877037 0.179841 0.185467
Si Si4 0.088391 0.860144 0.930027
Si Si5 0.736627 0.452972 0.327364
Si Si6 0.861211 0.843478 0.280493
O O1 0.996612 0.202679 0.472768
O O2 0.199770 0.318320 0.554657
O O3 0.865583 0.377318 0.501423
O O4 0.913604 0.200462 0.566473
O O5 0.605794 0.513478 0.440853
O O6 0.815545 0.411953 0.390733
O O7 0.986447 0.169737 0.136467
O O8 0.749085 0.281919 0.182546
O O9 0.000000 0.173229 0.250000
O O10 0.743885 0.077355 0.175310
O O11 0.511640 0.428831 0.313583
O O12 0.782452 0.395325 0.274202
O O13 0.000000 0.777101 0.250000
#
# Coordination Sequence:
#
# PCOD9264420 Si02
#       6
#     8   8   8   8   8   8
#     4  10  21  36  55  82 105 140 180 215 265 318
#     4  10  19  35  59  77 103 143 177 212 267 315
#     4  11  19  34  59  78 104 146 176 214 271 313
#     4  10  22  35  54  79 114 135 172 228 264 308
#     4   8  18  35  54  76 110 133 173 222 259 306
#     4   8  18  34  52  73 108 136 170 217 256 309
#
# _framework density 21.715900000000001
#
# number of rings (size 3 to 8) (size 9 to 14) (size 15 to 20)
#    1.000    1.333    1.667    2.000    2.333    0.000 
#    0.000    0.833    0.000    0.000    0.000    0.000 
#    0.000    0.000    0.000    0.000    0.000    0.000 
#
# Total GULP energy -133637.865570 kJ/mol
# GULP energy per Si atom -5568.244399 kJ/mol
# Density = 2.166647 g / cm^3
# Si number density = 21.715900 Si / 1000 Ang^3
#
#
#
# Elastic Constant Matrix: (Units=GPa)
#
#
# Indices 1 2 3 4 5 6 
#
# 1 24.3430 -4.4960 -6.8538 0.0000 3.1297 0.0000
# 2 -4.4960 76.6079 18.3081 0.0000 -8.2638 0.0000
# 3 -6.8538 18.3081 84.9555 0.0000 4.3369 0.0000
# 4 0.0000 0.0000 0.0000 36.8001 0.0000 -5.9439
# 5 3.1297 -8.2638 4.3369 0.0000 15.8703 0.0000
# 6 0.0000 0.0000 0.0000 -5.9439 0.0000 14.7181
#
#
#
# Elastic Compliance Matrix: (Units=1/GPa)
#
#
# Indices 1 2 3 4 5 6 
#
# 1 0.043474 0.000629 0.003846 0.000000 -0.009297 0.000000
# 2 0.000629 0.014878 -0.003595 0.000000 0.008605 0.000000
# 3 0.003846 -0.003595 0.013174 0.000000 -0.006230 0.000000
# 4 0.000000 0.000000 0.000000 0.029070 0.000000 0.011740
# 5 -0.009297 0.008605 -0.006230 0.000000 0.071027 0.000000
# 6 0.000000 0.000000 0.000000 0.011740 0.000000 0.072685
#
#
# Mechanical properties :
#
#
# Convention : Reuss Voigt Hill
#
# Bulk Modulus (GPa) = 13.64489 22.20255 17.92372
# Shear Modulus (GPa) = 18.72833 25.40757 22.06795
#
# Velocity S-wave (km/s) = 2.93989 3.42424 3.19127
# Velocity P-wave (km/s) = 4.22149 5.08725 4.67446
#
# Compressibility (1/GPa) = 0.07328749
#
# Stress axis : x y z
#
# Youngs Moduli (GPa) = 23.00226 67.21452 75.90785
#
# Poissons Ratio (x) = -0.04231 -0.29196
# Poissons Ratio (y) = -0.01448 0.27286
# Poissons Ratio (z) = -0.08847 0.24162
#
# Static dielectric constant tensor:
#      x y z
#    x 1.781440 0.000000 0.017300 
#    y 0.000000 1.778970 0.000000 
#    z 0.017300 0.000000 1.855900 
# 
# From -- ./inp_files/263229.got.cif
#   From: 2010.05.17/outbox.cif.g08.bks.cpg/sg15_132_cif.got.tgz:263229.got - 2010.06.03 18:47:42.
