data_PCOD9264836
_publ_section_title
;
Structure prediction by ZEFSAII (Michael W. Deem and Ramdas Pophale) SiO2 
 PCOD9264836
Probable space group: C 2/C
;
_chemical_formula_sum "Si O2"
_cell_formula_units_Z 64
_cell_length_a 13.209761
_cell_length_b 18.860453
_cell_length_c 17.935558
_cell_angle_alpha 90.000000
_cell_angle_beta 46.524677
_cell_angle_gamma 90.000000
_cell_volume 3242.661426
_symmetry_space_group_name_H-M "C 2/C"
_symmetry_group_IT_number 15
_symmetry_cell_setting 'monoclinic'
loop_
_space_group_symop_operation_xyz
x,y,z
-x,y,1/2-z
-x,-y,-z
x,-y,1/2+z
1/2+x,1/2+y,z
1/2-x,1/2+y,1/2-z
1/2-x,1/2-y,-z
1/2+x,1/2-y,1/2+z
loop_
_atom_site_type_symbol
_atom_site_label
_atom_site_fract_x
_atom_site_fract_y
_atom_site_fract_z
Si Si1 0.300079 0.044012 0.000062
Si Si2 0.065342 0.593332 0.135061
Si Si3 0.485701 0.515584 0.921060
Si Si4 0.136052 0.162980 0.488384
Si Si5 0.353897 0.294510 0.688990
Si Si6 0.857287 0.060598 0.275424
Si Si7 0.067474 0.285169 0.886637
Si Si8 0.880744 0.704391 0.962326
O O1 0.355718 0.122454 0.954599
O O2 0.397840 0.981389 0.921306
O O3 0.266660 0.041897 0.105485
O O4 0.150092 0.028161 0.037711
O O5 0.207219 0.639326 0.072319
O O6 0.000000 0.583833 0.250000
O O7 0.965607 0.639123 0.132897
O O8 0.619095 0.490738 0.806597
O O9 0.500000 0.500000 0.000000
O O10 0.455109 0.598762 0.932219
O O11 0.128196 0.171858 0.402500
O O12 0.066994 0.234740 0.553733
O O13 0.352876 0.359522 0.747388
O O14 0.204020 0.257436 0.774189
O O15 0.479387 0.240559 0.639949
O O16 0.000000 0.053106 0.250000
O O17 0.102827 0.290160 0.956272
O O18 0.750000 0.750000 0.000000
#
# Coordination Sequence:
#
# PCOD9264836 Si02
#       8
#     8   8   8   8   8   8   8   8
#     4  10  23  41  64  96 131 175 215 274 337 386
#     4  11  23  46  68  92 132 175 225 273 334 395
#     4  10  19  35  64  94 129 173 219 270 322 399
#     4  10  22  41  64  97 125 169 227 273 322 390
#     4  11  21  39  65  95 128 175 215 258 340 389
#     4  10  19  37  61  90 130 173 210 258 327 394
#     4  11  24  42  67  93 127 179 217 271 332 389
#     4  11  24  42  66  97 136 168 218 272 328 410
#
# _framework density 19.736874
#
# number of rings (size 3 to 8) (size 9 to 14) (size 15 to 20)
#    0.000    1.500    3.750    1.875    1.750    0.500 
#    6.750    1.875    0.000    0.000    0.000    0.000 
#    0.000    0.000    0.000    0.000    0.000    0.000 
#
# Total GULP energy -178632.182764 kJ/mol
# GULP energy per Si atom -5582.255711 kJ/mol
# Density = 1.969195 g / cm^3
# Si number density = 19.736874 Si / 1000 Ang^3
#
#
#
# Elastic Constant Matrix: (Units=GPa)
#
#
# Indices 1 2 3 4 5 6 
#
# 1 60.2448 54.2309 40.2966 0.0001 3.3493 0.0000
# 2 54.2309 142.8513 81.7003 0.0001 -4.1381 0.0000
# 3 40.2966 81.7003 144.6729 0.0001 -1.3686 0.0000
# 4 0.0001 0.0001 0.0001 26.5709 -0.0001 4.4824
# 5 3.3493 -4.1381 -1.3686 -0.0001 31.2403 0.0000
# 6 0.0000 0.0000 0.0000 4.4824 0.0000 26.0179
#
#
#
# Elastic Compliance Matrix: (Units=1/GPa)
#
#
# Indices 1 2 3 4 5 6 
#
# 1 0.026296 -0.008700 -0.002450 0.000000 -0.004079 0.000000
# 2 -0.008700 0.013257 -0.005040 0.000000 0.002468 0.000000
# 3 -0.002450 -0.005040 0.010441 0.000000 0.000052 0.000000
# 4 0.000000 0.000000 0.000000 0.038762 0.000000 -0.006678
# 5 -0.004079 0.002468 0.000052 0.000000 0.032776 0.000000
# 6 0.000000 0.000000 0.000000 -0.006678 0.000000 0.039586
#
#
# Mechanical properties :
#
#
# Convention : Reuss Voigt Hill
#
# Bulk Modulus (GPa) = 56.77105 77.80275 67.28690
# Shear Modulus (GPa) = 25.07921 28.20189 26.64055
#
# Velocity S-wave (km/s) = 3.56852 3.78417 3.67793
# Velocity P-wave (km/s) = 6.76798 7.65499 7.22511
#
# Compressibility (1/GPa) = 0.01761461
#
# Stress axis : x y z
#
# Youngs Moduli (GPa) = 38.02917 75.43214 95.77382
#
# Poissons Ratio (x) = 0.65623 0.23464
# Poissons Ratio (y) = 0.33084 0.48270
# Poissons Ratio (z) = 0.09317 0.38018
#
# Static dielectric constant tensor:
#      x y z
#    x 1.720280 0.000000 -0.015880 
#    y 0.000000 1.688010 0.000000 
#    z -0.015880 0.000000 1.702180 
# 
# From -- ./inp_files/206429.got.cif
#   From: 2010.05.17/outbox.cif.g08.bks.cpg/sg15_104_cif.got.tgz:206429.got - 2010.06.03 18:47:42.
