data_PCOD9264563
_publ_section_title
;
Structure prediction by ZEFSAII (Michael W. Deem and Ramdas Pophale) SiO2 
 PCOD9264563
Probable space group: C 2/C
;
_chemical_formula_sum "Si O2"
_cell_formula_units_Z 60
_cell_length_a 14.090529
_cell_length_b 13.860815
_cell_length_c 30.533906
_cell_angle_alpha 90.000000
_cell_angle_beta 30.579130
_cell_angle_gamma 90.000000
_cell_volume 3033.779054
_symmetry_space_group_name_H-M "C 2/C"
_symmetry_group_IT_number 15
_symmetry_cell_setting 'monoclinic'
loop_
_space_group_symop_operation_xyz
x,y,z
-x,y,1/2-z
-x,-y,-z
x,-y,1/2+z
1/2+x,1/2+y,z
1/2-x,1/2+y,1/2-z
1/2-x,1/2-y,-z
1/2+x,1/2-y,1/2+z
loop_
_atom_site_type_symbol
_atom_site_label
_atom_site_fract_x
_atom_site_fract_y
_atom_site_fract_z
Si Si1 0.903644 0.047397 0.105230
Si Si2 0.574263 0.708730 0.096384
Si Si3 0.849362 0.280338 0.343481
Si Si4 0.261194 0.843449 0.905800
Si Si5 0.038735 0.515761 0.797041
Si Si6 0.279924 0.648709 0.755434
Si Si7 0.000000 0.799301 0.250000
Si Si8 0.994729 0.170121 0.579936
O O1 0.896595 0.106369 0.062703
O O2 0.002793 0.111810 0.102394
O O3 0.686647 0.023079 0.202368
O O4 0.002587 0.944865 0.067636
O O5 0.651203 0.710919 0.114984
O O6 0.387874 0.774903 0.171385
O O7 0.750000 0.750000 0.000000
O O8 0.664511 0.290217 0.388986
O O9 0.000000 0.242129 0.250000
O O10 0.923798 0.387615 0.328919
O O11 0.363496 0.768762 0.832872
O O12 0.403552 0.928673 0.861784
O O13 0.182947 0.795204 0.981215
O O14 0.175610 0.552196 0.781058
O O15 0.388161 0.641742 0.757849
O O16 0.416612 0.680157 0.660590
#
# Coordination Sequence:
#
# PCOD9264563 Si02
#       8
#     8   8   8   8   8   8   4   8
#     4  11  19  35  54  90 121 154 195 240 291 358
#     4  11  22  33  56  90 126 155 192 241 300 353
#     4  11  18  35  56  86 125 157 185 244 301 344
#     4  12  20  33  61  91 114 149 200 252 289 348
#     4  10  19  35  60  85 119 151 195 247 298 340
#     4  10  23  40  56  84 122 162 193 244 302 362
#     4  12  24  42  62  82 124 160 204 240 298 368
#     4  11  23  35  60  87 120 156 196 242 304 351
#
# _framework density 19.777314000000001
#
# number of rings (size 3 to 8) (size 9 to 14) (size 15 to 20)
#    0.000    1.067    8.000    1.200    3.733    0.533 
#    0.000    0.000    5.867    0.800    0.000    0.000 
#    0.000    0.000    0.000    0.000    0.000    0.000 
#
# Total GULP energy -167328.996965 kJ/mol
# GULP energy per Si atom -5577.633232 kJ/mol
# Density = 1.973230 g / cm^3
# Si number density = 19.777314 Si / 1000 Ang^3
#
#
#
# Elastic Constant Matrix: (Units=GPa)
#
#
# Indices 1 2 3 4 5 6 
#
# 1 130.9593 26.6970 32.5573 0.0011 25.6222 0.0003
# 2 26.6970 32.2408 11.8796 0.0000 7.5595 0.0000
# 3 32.5573 11.8796 133.9826 0.0011 18.9844 0.0005
# 4 0.0011 0.0000 0.0011 8.9267 -0.0010 5.2995
# 5 25.6222 7.5595 18.9844 -0.0010 25.6713 -0.0002
# 6 0.0003 0.0000 0.0005 5.2995 -0.0002 33.7489
#
#
#
# Elastic Compliance Matrix: (Units=1/GPa)
#
#
# Indices 1 2 3 4 5 6 
#
# 1 0.010824 -0.006723 -0.000876 -0.000002 -0.008176 0.000000
# 2 -0.006723 0.037863 -0.001222 0.000001 -0.003535 0.000000
# 3 -0.000876 -0.001222 0.008501 -0.000002 -0.005053 0.000000
# 4 -0.000002 0.000001 -0.000002 0.123540 0.000008 -0.019399
# 5 -0.008176 -0.003535 -0.005053 0.000008 0.051892 -0.000001
# 6 0.000000 0.000000 0.000000 -0.019399 -0.000001 0.032677
#
#
# Mechanical properties :
#
#
# Convention : Reuss Voigt Hill
#
# Bulk Modulus (GPa) = 25.28745 48.82784 37.05764
# Shear Modulus (GPa) = 16.88506 28.73929 22.81218
#
# Velocity S-wave (km/s) = 2.92509 3.81615 3.39993
# Velocity P-wave (km/s) = 4.92159 6.64528 5.84730
#
# Compressibility (1/GPa) = 0.03954531
#
# Stress axis : x y z
#
# Youngs Moduli (GPa) = 92.38916 26.41098 117.63710
#
# Poissons Ratio (x) = 0.17756 0.10300
# Poissons Ratio (y) = 0.62114 0.14381
# Poissons Ratio (z) = 0.08089 0.03229
#
# Static dielectric constant tensor:
#      x y z
#    x 1.708780 0.000000 -0.002440 
#    y 0.000000 1.693540 0.000000 
#    z -0.002440 0.000000 1.778760 
# 
# From -- ./inp_files/270574.got.cif
#   From: 2010.05.17/outbox.cif.g08.bks.cpg/sg15_136_cif.got.tgz:270574.got - 2010.06.03 18:47:42.
