data_PCOD9264174
_publ_section_title
;
Structure prediction by ZEFSAII (Michael W. Deem and Ramdas Pophale) SiO2 
 PCOD9264174
Probable space group: C 2/C
;
_chemical_formula_sum "Si O2"
_cell_formula_units_Z 60
_cell_length_a 17.046491
_cell_length_b 8.844020
_cell_length_c 22.193773
_cell_angle_alpha 90.000000
_cell_angle_beta 86.221857
_cell_angle_gamma 90.000000
_cell_volume 3338.650516
_symmetry_space_group_name_H-M "C 2/C"
_symmetry_group_IT_number 15
_symmetry_cell_setting 'monoclinic'
loop_
_space_group_symop_operation_xyz
x,y,z
-x,y,1/2-z
-x,-y,-z
x,-y,1/2+z
1/2+x,1/2+y,z
1/2-x,1/2+y,1/2-z
1/2-x,1/2-y,-z
1/2+x,1/2-y,1/2+z
loop_
_atom_site_type_symbol
_atom_site_label
_atom_site_fract_x
_atom_site_fract_y
_atom_site_fract_z
Si Si1 0.627469 0.548299 0.757559
Si Si2 0.000000 0.443902 0.250000
Si Si3 0.338823 0.642737 0.932392
Si Si4 0.135450 0.154863 0.140300
Si Si5 0.452554 0.295223 0.666583
Si Si6 0.600623 0.171223 0.177713
Si Si7 0.740234 0.054431 0.652634
Si Si8 0.824142 0.814466 0.571579
O O1 0.650294 0.434943 0.702186
O O2 0.566290 0.456785 0.801985
O O3 0.596607 0.698263 0.727596
O O4 0.700423 0.588961 0.796308
O O5 0.059683 0.331145 0.280960
O O6 0.034367 0.550067 0.196311
O O7 0.349537 0.469847 0.911853
O O8 0.394665 0.745489 0.886911
O O9 0.249146 0.697674 0.923997
O O10 0.353436 0.670401 0.001899
O O11 0.191150 0.300261 0.134881
O O12 0.044059 0.205062 0.144268
O O13 0.392744 0.272119 0.614795
O O14 0.680683 0.075208 0.178362
O O15 0.788533 0.974022 0.596546
#
# Coordination Sequence:
#
# PCOD9264174 Si02
#       8
#     8   4   8   8   8   8   8   8
#     4  10  20  33  55  81 115 151 185 232 286 355
#     4  12  22  34  56  84 122 146 180 236 292 344
#     4   9  21  40  61  79 113 154 199 232 278 339
#     4  11  20  34  57  83 115 148 187 243 286 336
#     4  11  21  37  58  85 117 149 185 239 296 333
#     4  10  21  33  56  82 112 150 185 231 282 340
#     4  10  19  35  56  84 110 147 194 233 285 337
#     4   9  21  41  61  79 111 155 195 237 281 337
#
# _framework density 17.971332
#
# number of rings (size 3 to 8) (size 9 to 14) (size 15 to 20)
#    0.000    1.867    2.667    0.800    3.733    6.400 
#    0.000    0.667    0.000    0.000    0.000    0.000 
#    0.000    0.000    0.000    0.000    0.000    0.000 
#
# Total GULP energy -167353.964498 kJ/mol
# GULP energy per Si atom -5578.465483 kJ/mol
# Density = 1.793043 g / cm^3
# Si number density = 17.971332 Si / 1000 Ang^3
#
#
#
# Elastic Constant Matrix: (Units=GPa)
#
#
# Indices 1 2 3 4 5 6 
#
# 1 55.2286 33.4866 38.7949 0.0000 6.6378 0.0000
# 2 33.4866 107.4546 37.1394 0.0000 2.9184 0.0000
# 3 38.7949 37.1394 95.4898 0.0000 11.0310 0.0000
# 4 0.0000 0.0000 0.0000 15.3744 0.0000 -8.0549
# 5 6.6378 2.9184 11.0310 0.0000 23.4312 0.0000
# 6 0.0000 0.0000 0.0000 -8.0549 0.0000 24.2036
#
#
#
# Elastic Compliance Matrix: (Units=1/GPa)
#
#
# Indices 1 2 3 4 5 6 
#
# 1 0.028120 -0.005608 -0.008887 0.000000 -0.003084 0.000000
# 2 -0.005608 0.011880 -0.002490 0.000000 0.001281 0.000000
# 3 -0.008887 -0.002490 0.015572 0.000000 -0.004503 0.000000
# 4 0.000000 0.000000 0.000000 0.078779 0.000000 0.026217
# 5 -0.003084 0.001281 -0.004503 0.000000 0.045512 0.000000
# 6 0.000000 0.000000 0.000000 0.026217 0.000000 0.050041
#
#
# Mechanical properties :
#
#
# Convention : Reuss Voigt Hill
#
# Bulk Modulus (GPa) = 46.29365 53.00163 49.64764
# Shear Modulus (GPa) = 18.44514 22.51865 20.48189
#
# Velocity S-wave (km/s) = 3.20717 3.54366 3.37960
# Velocity P-wave (km/s) = 6.28731 6.80439 6.55095
#
# Compressibility (1/GPa) = 0.02160123
#
# Stress axis : x y z
#
# Youngs Moduli (GPa) = 35.56189 84.17711 64.21940
#
# Poissons Ratio (x) = 0.47205 0.57072
# Poissons Ratio (y) = 0.19942 0.15992
# Poissons Ratio (z) = 0.31604 0.20962
#
# Static dielectric constant tensor:
#      x y z
#    x 1.621970 0.000000 -0.030130 
#    y 0.000000 1.612070 0.000000 
#    z -0.030130 0.000000 1.608600 
# 
# From -- ./inp_files/247447.got.cif
#   From: 2010.05.17/outbox.cif.g08.bks.cpg/sg15_124_cif.got.tgz:247447.got - 2010.06.03 18:47:42.
