data_PCOD9264708
_publ_section_title
;
Structure prediction by ZEFSAII (Michael W. Deem and Ramdas Pophale) SiO2 
 PCOD9264708
Probable space group: C 2/C
;
_chemical_formula_sum "Si O2"
_cell_formula_units_Z 56
_cell_length_a 22.940268
_cell_length_b 14.656324
_cell_length_c 7.305608
_cell_angle_alpha 90.000000
_cell_angle_beta 66.360946
_cell_angle_gamma 90.000000
_cell_volume 2250.183195
_symmetry_space_group_name_H-M "C 2/C"
_symmetry_group_IT_number 15
_symmetry_cell_setting 'monoclinic'
loop_
_space_group_symop_operation_xyz
x,y,z
-x,y,1/2-z
-x,-y,-z
x,-y,1/2+z
1/2+x,1/2+y,z
1/2-x,1/2+y,1/2-z
1/2-x,1/2-y,-z
1/2+x,1/2-y,1/2+z
loop_
_atom_site_type_symbol
_atom_site_label
_atom_site_fract_x
_atom_site_fract_y
_atom_site_fract_z
Si Si1 0.817092 0.141170 0.184167
Si Si2 0.675757 0.853814 0.838687
Si Si3 0.671389 0.943795 0.248803
Si Si4 0.965737 0.591686 0.477707
Si Si5 0.448162 0.714518 0.104293
Si Si6 0.189517 0.935169 0.393970
Si Si7 0.583113 0.313658 0.436813
O O1 0.747969 0.184815 0.229786
O O2 0.882076 0.198438 0.078388
O O3 0.812622 0.112067 0.404297
O O4 0.820760 0.043151 0.082115
O O5 0.672557 0.946671 0.727346
O O6 0.667507 0.889043 0.061096
O O7 0.621036 0.781412 0.861412
O O8 0.608656 0.926592 0.443698
O O9 0.738065 0.920112 0.259859
O O10 0.966962 0.679671 0.602843
O O11 0.000000 0.619318 0.250000
O O12 0.000000 0.500000 0.500000
O O13 0.433111 0.679827 0.325968
O O14 0.513339 0.673934 0.939874
O O15 0.135386 0.890727 0.338740
#
# Coordination Sequence:
#
# PCOD9264708 Si02
#       7
#     8   8   8   8   8   8   8
#     4   9  20  38  62  89 117 156 196 250 297 355
#     4  10  19  35  62  86 119 153 199 241 295 352
#     4  10  20  35  58  85 116 154 198 239 288 357
#     4  12  25  38  59  85 120 160 191 237 292 351
#     4  10  22  38  57  86 121 153 203 241 295 352
#     4   9  20  37  62  86 113 153 203 243 300 345
#     4  10  20  36  61  88 114 156 200 245 289 359
#
# _framework density 24.886863000000002
#
# number of rings (size 3 to 8) (size 9 to 14) (size 15 to 20)
#    0.000    2.000    1.429    1.714    4.000    2.286 
#    2.571    0.000    0.000    4.286    0.000    0.000 
#    0.000    0.000    0.000    0.000    0.000    0.000 
#
# Total GULP energy -156500.577897 kJ/mol
# GULP energy per Si atom -5589.306353 kJ/mol
# Density = 2.483022 g / cm^3
# Si number density = 24.886863 Si / 1000 Ang^3
#
#
#
# Elastic Constant Matrix: (Units=GPa)
#
#
# Indices 1 2 3 4 5 6 
#
# 1 156.9260 35.5554 89.7520 0.0000 -58.9000 0.0000
# 2 35.5554 56.8593 33.2710 0.0000 -31.6764 0.0000
# 3 89.7520 33.2710 91.0488 0.0000 -37.9406 0.0000
# 4 0.0000 0.0000 0.0000 23.0530 0.0000 -19.4083
# 5 -58.9000 -31.6764 -37.9406 0.0000 48.7306 0.0000
# 6 0.0000 0.0000 0.0000 -19.4083 0.0000 25.2971
#
#
#
# Elastic Compliance Matrix: (Units=1/GPa)
#
#
# Indices 1 2 3 4 5 6 
#
# 1 0.019170 0.004852 -0.014359 0.000000 0.015145 0.000000
# 2 0.004852 0.029747 -0.007626 0.000000 0.019264 0.000000
# 3 -0.014359 -0.007626 0.027572 0.000000 -0.000846 0.000000
# 4 0.000000 0.000000 0.000000 0.122507 0.000000 0.093989
# 5 0.015145 0.019264 -0.000846 0.000000 0.050690 0.000000
# 6 0.000000 0.000000 0.000000 0.093989 0.000000 0.111640
#
#
# Mechanical properties :
#
#
# Convention : Reuss Voigt Hill
#
# Bulk Modulus (GPa) = 23.68343 69.11007 46.39675
# Shear Modulus (GPa) = 12.20507 29.16653 20.68580
#
# Velocity S-wave (km/s) = 2.21695 3.42711 2.88617
# Velocity P-wave (km/s) = 4.01127 6.59470 5.45804
#
# Compressibility (1/GPa) = 0.04222361
#
# Stress axis : x y z
#
# Youngs Moduli (GPa) = 52.16504 33.61645 36.26904
#
# Poissons Ratio (x) = -0.16310 0.52078
# Poissons Ratio (y) = -0.25310 0.27657
# Poissons Ratio (z) = 0.74903 0.25635
#
# Static dielectric constant tensor:
#      x y z
#    x 2.065400 0.000000 -0.007190 
#    y 0.000000 1.982500 0.000000 
#    z -0.007190 0.000000 2.030560 
# 
# From -- ./inp_files/61834.got.cif
#   From: 2010.05.17/outbox.cif.g08.bks.cpg/sg15_31_cif.got.tgz:61834.got - 2010.06.03 18:47:42.
