data_PCOD9264667
_publ_section_title
;
Structure prediction by ZEFSAII (Michael W. Deem and Ramdas Pophale) SiO2 
 PCOD9264667
Probable space group: C 2/C
;
_chemical_formula_sum "Si O2"
_cell_formula_units_Z 48
_cell_length_a 29.318315
_cell_length_b 11.069230
_cell_length_c 19.323167
_cell_angle_alpha 90.000000
_cell_angle_beta 19.491959
_cell_angle_gamma 90.000000
_cell_volume 2092.463190
_symmetry_space_group_name_H-M "C 2/C"
_symmetry_group_IT_number 15
_symmetry_cell_setting 'monoclinic'
loop_
_space_group_symop_operation_xyz
x,y,z
-x,y,1/2-z
-x,-y,-z
x,-y,1/2+z
1/2+x,1/2+y,z
1/2-x,1/2+y,1/2-z
1/2-x,1/2-y,-z
1/2+x,1/2-y,1/2+z
loop_
_atom_site_type_symbol
_atom_site_label
_atom_site_fract_x
_atom_site_fract_y
_atom_site_fract_z
Si Si1 0.166386 0.414989 0.148021
Si Si2 0.464025 0.696437 0.479221
Si Si3 0.319351 0.837798 0.070381
Si Si4 0.891189 0.322704 0.808437
Si Si5 0.219315 0.094715 0.175143
Si Si6 0.134549 0.830820 0.519406
O O1 0.112134 0.550412 0.226610
O O2 0.055125 0.310668 0.323332
O O3 0.225785 0.401559 0.984437
O O4 0.280231 0.403474 0.045467
O O5 0.322428 0.732927 0.717756
O O6 0.558999 0.618133 0.393737
O O7 0.419363 0.617858 0.475773
O O8 0.272767 0.979577 0.141213
O O9 0.370664 0.840071 0.919088
O O10 0.448497 0.786224 0.928884
O O11 0.750000 0.250000 0.000000
O O12 0.278047 0.214689 0.125484
O O13 0.000000 0.785717 0.750000
#
# Coordination Sequence:
#
# PCOD9264667 Si02
#       6
#     8   8   8   8   8   8
#     4  10  20  37  62  91 124 167 211 266 319 377
#     4  11  20  35  59  99 133 155 208 272 321 379
#     4  10  23  40  62  87 122 173 212 257 325 391
#     4  10  23  46  64  80 119 175 225 260 320 393
#     4  10  19  35  61  90 130 169 206 249 321 395
#     4  11  18  32  59  97 127 159 204 262 319 366
#
# _framework density 22.939471000000001
#
# number of rings (size 3 to 8) (size 9 to 14) (size 15 to 20)
#    0.000    1.667    3.333    2.500    2.333    2.667 
#    3.000    8.333    0.000    0.000    0.000    0.000 
#    0.000    0.000    0.000    0.000    0.000    0.000 
#
# Total GULP energy -133613.602964 kJ/mol
# GULP energy per Si atom -5567.233457 kJ/mol
# Density = 2.288726 g / cm^3
# Si number density = 22.939471 Si / 1000 Ang^3
#
#
#
# Elastic Constant Matrix: (Units=GPa)
#
#
# Indices 1 2 3 4 5 6 
#
# 1 59.6296 11.9471 34.5448 0.0000 -25.5823 0.0000
# 2 11.9471 45.2689 39.9922 0.0000 -9.0585 0.0000
# 3 34.5448 39.9922 178.1219 0.0000 -34.9712 0.0000
# 4 0.0000 0.0000 0.0000 19.9106 0.0000 10.7377
# 5 -25.5823 -9.0585 -34.9712 0.0000 40.2390 0.0000
# 6 0.0000 0.0000 0.0000 10.7377 0.0000 -1.5860
#
#
#
# Elastic Compliance Matrix: (Units=1/GPa)
#
#
# Indices 1 2 3 4 5 6 
#
# 1 0.023810 -0.002307 -0.001483 0.000000 0.013329 0.000000
# 2 -0.002307 0.027813 -0.005855 0.000000 -0.000294 0.000000
# 3 -0.001483 -0.005855 0.008166 0.000000 0.004836 0.000000
# 4 0.000000 0.000000 0.000000 0.010798 0.000000 0.073108
# 5 0.013329 -0.000294 0.004836 0.000000 0.037463 0.000000
# 6 0.000000 0.000000 0.000000 0.073108 0.000000 -0.135561
#
#
# Mechanical properties :
#
#
# Convention : Reuss Voigt Hill
#
# Bulk Modulus (GPa) = 24.69150 50.66542 37.67846
# Shear Modulus (GPa) = 947.62080 24.81514 486.21797
#
# Velocity S-wave (km/s) = 20.34682 3.29259 14.57453
# Velocity P-wave (km/s) = 23.72294 6.04891 17.31137
#
# Compressibility (1/GPa) = 0.04049977
#
# Stress axis : x y z
#
# Youngs Moduli (GPa) = 41.99929 35.95491 122.46324
#
# Poissons Ratio (x) = 0.08293 0.18159
# Poissons Ratio (y) = 0.09687 0.71701
# Poissons Ratio (z) = 0.06228 0.21051
#
# Static dielectric constant tensor:
#      x y z
#    x 1.963970 0.000000 -0.094900 
#    y 0.000000 1.886700 0.000000 
#    z -0.094900 0.000000 2.020740 
# 
# From -- ./inp_files/103688.got.cif
#   From: 2010.05.17/outbox.cif.g08.bks.cpg/sg15_52_cif.got.tgz:103688.got - 2010.06.03 18:47:42.
