data_PCOD9264262
_publ_section_title
;
Structure prediction by ZEFSAII (Michael W. Deem and Ramdas Pophale) SiO2 
 PCOD9264262
Probable space group: C 2/C
;
_chemical_formula_sum "Si O2"
_cell_formula_units_Z 48
_cell_length_a 8.006187
_cell_length_b 25.947592
_cell_length_c 13.712666
_cell_angle_alpha 90.000000
_cell_angle_beta 44.221194
_cell_angle_gamma 90.000000
_cell_volume 1986.760261
_symmetry_space_group_name_H-M "C 2/C"
_symmetry_group_IT_number 15
_symmetry_cell_setting 'monoclinic'
loop_
_space_group_symop_operation_xyz
x,y,z
-x,y,1/2-z
-x,-y,-z
x,-y,1/2+z
1/2+x,1/2+y,z
1/2-x,1/2+y,1/2-z
1/2-x,1/2-y,-z
1/2+x,1/2-y,1/2+z
loop_
_atom_site_type_symbol
_atom_site_label
_atom_site_fract_x
_atom_site_fract_y
_atom_site_fract_z
Si Si1 0.500000 0.713107 0.750000
Si Si2 0.227693 0.481672 0.588257
Si Si3 0.081341 0.294913 0.853916
Si Si4 0.000000 0.279957 0.250000
Si Si5 0.086140 0.651772 0.880661
Si Si6 0.683230 0.602114 0.310768
Si Si7 0.676564 0.939521 0.953424
O O1 0.414001 0.757419 0.861092
O O2 0.347762 0.673171 0.749658
O O3 0.500000 0.500000 0.500000
O O4 0.250528 0.422338 0.612703
O O5 0.194405 0.504111 0.493333
O O6 0.000000 0.501338 0.750000
O O7 0.287019 0.257653 0.809184
O O8 0.220825 0.340437 0.738454
O O9 0.959805 0.323750 0.994388
O O10 0.927625 0.318225 0.368068
O O11 0.045405 0.591639 0.908405
O O12 0.801526 0.568256 0.171972
O O13 0.403616 0.593484 0.401974
#
# Coordination Sequence:
#
# PCOD9264262 Si02
#       7
#     4   8   8   4   8   8   8
#     4  10  22  34  54  89 127 158 202 254 310 368
#     4  10  22  40  64  92 123 160 212 266 319 377
#     4  10  19  35  57  84 120 158 201 250 303 370
#     4  10  20  32  58  87 115 156 204 248 298 370
#     4  10  20  36  56  85 124 159 200 251 308 370
#     4   9  19  37  63  91 117 159 212 251 316 374
#     4   9  19  38  63  87 120 162 203 260 307 382
#
# _framework density 24.159934
#
# number of rings (size 3 to 8) (size 9 to 14) (size 15 to 20)
#    0.000    2.333    0.000    3.000    2.333    2.000 
#    0.000    3.333    0.000    0.000    0.000    0.000 
#    0.000    0.000    0.000    0.000    0.000    0.000 
#
# Total GULP energy -133658.335014 kJ/mol
# GULP energy per Si atom -5569.097292 kJ/mol
# Density = 2.410495 g / cm^3
# Si number density = 24.159934 Si / 1000 Ang^3
#
#
#
# Elastic Constant Matrix: (Units=GPa)
#
#
# Indices 1 2 3 4 5 6 
#
# 1 74.0211 39.2661 4.1018 0.0000 20.2082 0.0000
# 2 39.2661 100.6274 9.0261 0.0000 17.4518 0.0000
# 3 4.1018 9.0261 43.3532 0.0000 2.8483 0.0000
# 4 0.0000 0.0000 0.0000 36.3463 0.0000 9.2864
# 5 20.2082 17.4518 2.8483 0.0000 29.4650 0.0000
# 6 0.0000 0.0000 0.0000 9.2864 0.0000 40.4433
#
#
#
# Elastic Compliance Matrix: (Units=1/GPa)
#
#
# Indices 1 2 3 4 5 6 
#
# 1 0.019265 -0.005827 0.000032 0.000000 -0.009764 0.000000
# 2 -0.005827 0.012993 -0.001923 0.000000 -0.003514 0.000000
# 3 0.000032 -0.001923 0.023540 0.000000 -0.001158 0.000000
# 4 0.000000 0.000000 0.000000 0.029228 0.000000 -0.006711
# 5 -0.009764 -0.003514 -0.001158 0.000000 0.042828 0.000000
# 6 0.000000 0.000000 0.000000 -0.006711 0.000000 0.026267
#
#
# Mechanical properties :
#
#
# Convention : Reuss Voigt Hill
#
# Bulk Modulus (GPa) = 24.77581 35.86551 30.32066
# Shear Modulus (GPa) = 27.32089 32.29144 29.80616
#
# Velocity S-wave (km/s) = 3.36644 3.65988 3.51622
# Velocity P-wave (km/s) = 5.03862 5.72162 5.39095
#
# Compressibility (1/GPa) = 0.04036195
#
# Stress axis : x y z
#
# Youngs Moduli (GPa) = 51.90891 76.96347 42.48123
#
# Poissons Ratio (x) = 0.44844 -0.00136
# Poissons Ratio (y) = 0.30246 0.08169
# Poissons Ratio (z) = -0.00166 0.14800
#
# Static dielectric constant tensor:
#      x y z
#    x 2.121340 0.000000 -0.111800 
#    y 0.000000 1.862980 0.000000 
#    z -0.111800 0.000000 2.112840 
# 
# From -- ./inp_files/138966.got.cif
#   From: 2010.05.17/outbox.cif.g08.bks.cpg/sg15_70_cif.got.tgz:138966.got - 2010.06.03 18:47:42.
