data_PCOD9264556
_publ_section_title
;
Structure prediction by ZEFSAII (Michael W. Deem and Ramdas Pophale) SiO2 
 PCOD9264556
Probable space group: C 2/C
;
_chemical_formula_sum "Si O2"
_cell_formula_units_Z 60
_cell_length_a 17.290356
_cell_length_b 8.709136
_cell_length_c 18.362748
_cell_angle_alpha 90.000000
_cell_angle_beta 71.031942
_cell_angle_gamma 90.000000
_cell_volume 2614.990041
_symmetry_space_group_name_H-M "C 2/C"
_symmetry_group_IT_number 15
_symmetry_cell_setting 'monoclinic'
loop_
_space_group_symop_operation_xyz
x,y,z
-x,y,1/2-z
-x,-y,-z
x,-y,1/2+z
1/2+x,1/2+y,z
1/2-x,1/2+y,1/2-z
1/2-x,1/2-y,-z
1/2+x,1/2-y,1/2+z
loop_
_atom_site_type_symbol
_atom_site_label
_atom_site_fract_x
_atom_site_fract_y
_atom_site_fract_z
Si Si1 0.833300 0.181747 0.511669
Si Si2 0.000000 0.877560 0.250000
Si Si3 0.523705 0.812355 0.128502
Si Si4 0.893940 0.833793 0.757390
Si Si5 0.279951 0.712584 0.687254
Si Si6 0.938313 0.649791 0.387511
Si Si7 0.290199 0.121524 0.320361
Si Si8 0.324530 0.315518 0.524517
O O1 0.750000 0.250000 0.500000
O O2 0.915139 0.246622 0.450519
O O3 0.830045 0.222971 0.597854
O O4 0.833494 0.996891 0.505303
O O5 0.985223 0.775062 0.325398
O O6 0.925590 0.996947 0.264326
O O7 0.573318 0.776730 0.188177
O O8 0.439240 0.724354 0.170455
O O9 0.512456 0.992514 0.119243
O O10 0.797906 0.824746 0.790185
O O11 0.323232 0.769608 0.746783
O O12 0.238971 0.544172 0.698981
O O13 0.859367 0.605356 0.361180
O O14 0.903496 0.722800 0.472691
O O15 0.210632 0.196058 0.383301
O O16 0.250000 0.250000 0.500000
#
# Coordination Sequence:
#
# PCOD9264556 Si02
#       8
#     8   4   8   8   8   8   8   8
#     4  11  19  34  59  86 111 154 196 241 284 348
#     4  10  22  32  60  88 114 148 194 244 288 342
#     4  10  19  35  60  84 114 147 194 239 292 334
#     4  10  20  37  57  89 114 155 188 239 292 349
#     4  11  23  38  60  83 125 151 195 232 293 351
#     4  11  20  37  59  89 115 147 194 250 284 338
#     4  10  23  37  56  85 116 159 183 240 288 348
#     4   9  19  34  54  84 112 139 195 244 288 325
#
# _framework density 22.94464
#
# number of rings (size 3 to 8) (size 9 to 14) (size 15 to 20)
#    0.000    1.867    2.667    4.000    1.867    2.133 
#    0.000    0.000    2.933    4.000    0.000    0.000 
#    0.000    0.000    0.000    0.000    0.000    0.000 
#
# Total GULP energy -167681.637046 kJ/mol
# GULP energy per Si atom -5589.387902 kJ/mol
# Density = 2.289242 g / cm^3
# Si number density = 22.944640 Si / 1000 Ang^3
#
#
#
# Elastic Constant Matrix: (Units=GPa)
#
#
# Indices 1 2 3 4 5 6 
#
# 1 30.2774 4.9982 13.8079 0.0000 -12.5842 0.0000
# 2 4.9982 116.1204 77.6028 0.0000 -18.0140 0.0000
# 3 13.8079 77.6028 138.1685 0.0000 -22.3340 0.0000
# 4 0.0000 0.0000 0.0000 47.1247 0.0000 -8.7560
# 5 -12.5842 -18.0140 -22.3340 0.0000 26.8192 0.0000
# 6 0.0000 0.0000 0.0000 -8.7560 0.0000 29.2631
#
#
#
# Elastic Compliance Matrix: (Units=1/GPa)
#
#
# Indices 1 2 3 4 5 6 
#
# 1 0.041839 0.003052 -0.002762 0.000000 0.019381 0.000000
# 2 0.003052 0.014259 -0.007550 0.000000 0.004722 0.000000
# 3 -0.002762 -0.007550 0.012393 0.000000 0.003953 0.000000
# 4 0.000000 0.000000 0.000000 0.022470 0.000000 0.006723
# 5 0.019381 0.004722 0.003953 0.000000 0.052844 0.000000
# 6 0.000000 0.000000 0.000000 0.006723 0.000000 0.036184
#
#
# Mechanical properties :
#
#
# Convention : Reuss Voigt Hill
#
# Bulk Modulus (GPa) = 18.52888 53.04267 35.78578
# Shear Modulus (GPa) = 23.52930 33.18521 28.35726
#
# Velocity S-wave (km/s) = 3.20579 3.80717 3.51935
# Velocity P-wave (km/s) = 4.66859 6.51874 5.66964
#
# Compressibility (1/GPa) = 0.05396981
#
# Stress axis : x y z
#
# Youngs Moduli (GPa) = 23.90092 70.13293 80.68975
#
# Poissons Ratio (x) = -0.21404 0.22290
# Poissons Ratio (y) = -0.07294 0.60922
# Poissons Ratio (z) = 0.06603 0.52951
#
# Static dielectric constant tensor:
#      x y z
#    x 1.978330 0.000000 0.039800 
#    y 0.000000 1.829600 0.000000 
#    z 0.039800 0.000000 1.882750 
# 
# From -- ./inp_files/218579.got.cif
#   From: 2010.05.17/outbox.cif.g08.bks.cpg/sg15_110_cif.got.tgz:218579.got - 2010.06.03 18:47:42.
