data_PCOD9264714
_publ_section_title
;
Structure prediction by ZEFSAII (Michael W. Deem and Ramdas Pophale) SiO2 
 PCOD9264714
Probable space group: C 2/C
;
_chemical_formula_sum "Si O2"
_cell_formula_units_Z 52
_cell_length_a 8.077873
_cell_length_b 17.798538
_cell_length_c 16.733404
_cell_angle_alpha 90.000000
_cell_angle_beta 96.293231
_cell_angle_gamma 90.000000
_cell_volume 2391.336176
_symmetry_space_group_name_H-M "C 2/C"
_symmetry_group_IT_number 15
_symmetry_cell_setting 'monoclinic'
loop_
_space_group_symop_operation_xyz
x,y,z
-x,y,1/2-z
-x,-y,-z
x,-y,1/2+z
1/2+x,1/2+y,z
1/2-x,1/2+y,1/2-z
1/2-x,1/2-y,-z
1/2+x,1/2-y,1/2+z
loop_
_atom_site_type_symbol
_atom_site_label
_atom_site_fract_x
_atom_site_fract_y
_atom_site_fract_z
Si Si1 0.195778 0.589945 0.019190
Si Si2 0.844736 0.854639 0.003253
Si Si3 0.264199 0.037613 0.732752
Si Si4 0.421388 0.509866 0.619908
Si Si5 0.000000 0.677514 0.750000
Si Si6 0.516316 0.785641 0.069304
Si Si7 0.611982 0.949502 0.897497
O O1 0.368624 0.566449 0.071110
O O2 0.058566 0.586212 0.082045
O O3 0.154804 0.519861 0.958210
O O4 0.140798 0.663701 0.967342
O O5 0.921267 0.922418 0.057181
O O6 0.690857 0.825359 0.051181
O O7 0.969567 0.790356 0.981342
O O8 0.752737 0.887824 0.920798
O O9 0.223612 0.022521 0.822497
O O10 0.341995 0.120834 0.732547
O O11 0.092346 0.020428 0.676353
O O12 0.383067 0.983287 0.689078
O O13 0.013558 0.720724 0.665813
#
# Coordination Sequence:
#
# PCOD9264714 Si02
#       7
#     8   8   8   8   4   8   8
#     4   9  17  33  57  88 112 148 204 254 301 380
#     4   9  19  36  58  85 123 162 200 254 318 386
#     4  11  21  34  59  86 119 158 203 270 316 360
#     4  10  21  36  57  88 121 158 205 262 319 368
#     4  12  20  36  60  94 110 162 220 266 302 390
#     4  10  19  35  62  87 119 164 209 252 315 376
#     4   9  17  32  56  84 113 149 199 253 309 356
#
# _framework density 21.745165
#
# number of rings (size 3 to 8) (size 9 to 14) (size 15 to 20)
#    0.000    2.154    3.077    1.846    0.000    2.462 
#    0.000    2.308    3.385    0.000    0.000    0.000 
#    0.000    0.000    0.000    0.000    0.000    0.000 
#
# Total GULP energy -145024.777061 kJ/mol
# GULP energy per Si atom -5577.876041 kJ/mol
# Density = 2.169567 g / cm^3
# Si number density = 21.745165 Si / 1000 Ang^3
#
#
#
# Elastic Constant Matrix: (Units=GPa)
#
#
# Indices 1 2 3 4 5 6 
#
# 1 76.8902 19.2561 41.7848 0.0000 6.5311 0.0000
# 2 19.2561 67.8196 28.5998 0.0000 6.9668 0.0000
# 3 41.7848 28.5998 136.0200 0.0000 -17.7711 0.0000
# 4 0.0000 0.0000 0.0000 54.1103 0.0000 -33.7031
# 5 6.5311 6.9668 -17.7711 0.0000 44.1233 0.0000
# 6 0.0000 0.0000 0.0000 -33.7031 0.0000 44.7464
#
#
#
# Elastic Compliance Matrix: (Units=1/GPa)
#
#
# Indices 1 2 3 4 5 6 
#
# 1 0.016754 -0.002099 -0.005263 0.000000 -0.004268 0.000000
# 2 -0.002099 0.017193 -0.003467 0.000000 -0.003800 0.000000
# 3 -0.005263 -0.003467 0.010419 0.000000 0.005523 0.000000
# 4 0.000000 0.000000 0.000000 0.034813 0.000000 0.026221
# 5 -0.004268 -0.003800 0.005523 0.000000 0.026120 0.000000
# 6 0.000000 0.000000 0.000000 0.026221 0.000000 0.042098
#
#
# Mechanical properties :
#
#
# Convention : Reuss Voigt Hill
#
# Bulk Modulus (GPa) = 44.03613 51.11233 47.57423
# Shear Modulus (GPa) = 28.30870 41.33528 34.82199
#
# Velocity S-wave (km/s) = 3.61201 4.36466 4.00605
# Velocity P-wave (km/s) = 6.13926 6.99689 6.58206
#
# Compressibility (1/GPa) = 0.02270863
#
# Stress axis : x y z
#
# Youngs Moduli (GPa) = 59.68763 58.16210 95.97737
#
# Poissons Ratio (x) = 0.12209 0.50513
# Poissons Ratio (y) = 0.12529 0.33273
# Poissons Ratio (z) = 0.31414 0.20164
#
# Static dielectric constant tensor:
#      x y z
#    x 0.655570 0.000000 0.072590 
#    y 0.000000 1.785040 0.000000 
#    z 0.072590 0.000000 1.772730 
# 
# From -- ./inp_files/190477.got.cif
#   From: 2010.05.17/outbox.cif.g08.bks.cpg/sg15_96_cif.got.tgz:190477.got - 2010.06.03 18:47:42.
