data_PCOD9264778
_publ_section_title
;
Structure prediction by ZEFSAII (Michael W. Deem and Ramdas Pophale) SiO2 
 PCOD9264778
Probable space group: C 2/C
;
_chemical_formula_sum "Si O2"
_cell_formula_units_Z 64
_cell_length_a 17.277834
_cell_length_b 22.714980
_cell_length_c 16.549668
_cell_angle_alpha 90.000000
_cell_angle_beta 149.284936
_cell_angle_gamma 90.000000
_cell_volume 3317.534491
_symmetry_space_group_name_H-M "C 2/C"
_symmetry_group_IT_number 15
_symmetry_cell_setting 'monoclinic'
loop_
_space_group_symop_operation_xyz
x,y,z
-x,y,1/2-z
-x,-y,-z
x,-y,1/2+z
1/2+x,1/2+y,z
1/2-x,1/2+y,1/2-z
1/2-x,1/2-y,-z
1/2+x,1/2-y,1/2+z
loop_
_atom_site_type_symbol
_atom_site_label
_atom_site_fract_x
_atom_site_fract_y
_atom_site_fract_z
Si Si1 0.983734 0.067395 0.511767
Si Si2 0.875603 0.748617 0.438964
Si Si3 0.157858 0.933965 0.438447
Si Si4 0.245042 0.377428 0.324106
Si Si5 0.175649 0.936588 0.934147
Si Si6 0.837154 0.183966 0.360685
Si Si7 0.842268 0.192641 0.558832
Si Si8 0.927879 0.356749 0.095760
O O1 0.899571 0.063858 0.521412
O O2 0.880326 0.117002 0.374439
O O3 0.152202 0.096429 0.656357
O O4 0.000000 0.000000 0.500000
O O5 0.777612 0.807833 0.360190
O O6 0.820226 0.708293 0.314371
O O7 0.876373 0.706150 0.516275
O O8 0.041018 0.773787 0.571412
O O9 0.234342 0.870977 0.490418
O O10 0.000000 0.932840 0.250000
O O11 0.233560 0.995860 0.486001
O O12 0.306961 0.410322 0.459933
O O13 0.063321 0.382665 0.161493
O O14 0.000000 0.934943 0.750000
O O15 0.282897 0.898347 0.973344
O O16 0.859293 0.191164 0.476787
O O17 0.750000 0.250000 0.500000
O O18 0.000000 0.194541 0.750000
O O19 0.000000 0.351957 0.250000
#
# Coordination Sequence:
#
# PCOD9264778 Si02
#       8
#     8   8   8   8   8   8   8   8
#     4  10  19  35  63  87 113 152 205 246 293 363
#     4  11  21  38  56  85 126 155 203 242 300 352
#     4   9  19  36  58  89 114 150 199 248 285 357
#     4  10  21  37  57  88 115 163 190 251 300 341
#     4  10  21  35  61  84 116 161 207 238 290 356
#     4  10  22  35  61  88 116 158 192 249 303 356
#     4  10  20  38  62  88 116 146 193 244 304 358
#     4  10  23  38  54  85 126 160 199 249 297 349
#
# _framework density 19.291435
#
# number of rings (size 3 to 8) (size 9 to 14) (size 15 to 20)
#    0.000    2.000    2.500    0.750    3.500    3.500 
#    0.000    1.875    2.750    3.750    0.000    0.000 
#    0.000    0.000    0.000    0.000    0.000    0.000 
#
# Total GULP energy -178220.450431 kJ/mol
# GULP energy per Si atom -5569.389076 kJ/mol
# Density = 1.924753 g / cm^3
# Si number density = 19.291435 Si / 1000 Ang^3
#
#
#
# Elastic Constant Matrix: (Units=GPa)
#
#
# Indices 1 2 3 4 5 6 
#
# 1 27.9030 37.3006 1.8664 0.0000 11.8165 0.0000
# 2 37.3006 197.9855 37.2059 0.0000 6.0709 0.0000
# 3 1.8664 37.2059 50.0681 0.0000 0.9319 0.0000
# 4 0.0000 0.0000 0.0000 18.5691 0.0000 2.9339
# 5 11.8165 6.0709 0.9319 0.0000 25.4920 0.0000
# 6 0.0000 0.0000 0.0000 2.9339 0.0000 37.5479
#
#
#
# Elastic Compliance Matrix: (Units=1/GPa)
#
#
# Indices 1 2 3 4 5 6 
#
# 1 0.063367 -0.012518 0.007437 0.000000 -0.026664 0.000000
# 2 -0.012518 0.008383 -0.005838 0.000000 0.004020 0.000000
# 3 0.007437 -0.005838 0.024088 0.000000 -0.002937 0.000000
# 4 0.000000 0.000000 0.000000 0.054526 0.000000 -0.004261
# 5 -0.026664 0.004020 -0.002937 0.000000 0.050738 0.000000
# 6 0.000000 0.000000 0.000000 -0.004261 0.000000 0.026966
#
#
# Mechanical properties :
#
#
# Convention : Reuss Voigt Hill
#
# Bulk Modulus (GPa) = 13.51358 47.63361 30.57360
# Shear Modulus (GPa) = 18.21007 29.62738 23.91873
#
# Velocity S-wave (km/s) = 3.07570 3.92315 3.52499
# Velocity P-wave (km/s) = 4.43096 6.72805 5.69650
#
# Compressibility (1/GPa) = 0.07399964
#
# Stress axis : x y z
#
# Youngs Moduli (GPa) = 15.78104 119.28733 41.51391
#
# Poissons Ratio (x) = 1.49328 -0.30872
# Poissons Ratio (y) = 0.19755 0.24235
# Poissons Ratio (z) = -0.11736 0.69637
#
# Static dielectric constant tensor:
#      x y z
#    x 1.700390 0.000000 0.007260 
#    y 0.000000 1.708460 0.000000 
#    z 0.007260 0.000000 1.664460 
# 
# From -- ./inp_files/211977.got.cif
#   From: 2010.05.17/outbox.cif.g08.bks.cpg/sg15_106_cif.got.tgz:211977.got - 2010.06.03 18:47:42.
