data_PCOD9264178
_publ_section_title
;
Structure prediction by ZEFSAII (Michael W. Deem and Ramdas Pophale) SiO2 
 PCOD9264178
Probable space group: C 2/C
;
_chemical_formula_sum "Si O2"
_cell_formula_units_Z 60
_cell_length_a 21.942156
_cell_length_b 8.927420
_cell_length_c 14.250379
_cell_angle_alpha 90.000000
_cell_angle_beta 81.894765
_cell_angle_gamma 90.000000
_cell_volume 2763.577218
_symmetry_space_group_name_H-M "C 2/C"
_symmetry_group_IT_number 15
_symmetry_cell_setting 'monoclinic'
loop_
_space_group_symop_operation_xyz
x,y,z
-x,y,1/2-z
-x,-y,-z
x,-y,1/2+z
1/2+x,1/2+y,z
1/2-x,1/2+y,1/2-z
1/2-x,1/2-y,-z
1/2+x,1/2-y,1/2+z
loop_
_atom_site_type_symbol
_atom_site_label
_atom_site_fract_x
_atom_site_fract_y
_atom_site_fract_z
Si Si1 0.250000 0.250000 0.000000
Si Si2 0.416328 0.185462 0.683869
Si Si3 0.448614 0.222730 0.896376
Si Si4 0.852888 0.044902 0.427134
Si Si5 0.823699 0.554193 0.246108
Si Si6 0.651739 0.004474 0.038849
Si Si7 0.177159 0.199659 0.420709
Si Si8 0.787871 0.853419 0.296712
O O1 0.192304 0.186273 0.073725
O O2 0.209364 0.406810 0.988899
O O3 0.433148 0.206236 0.788772
O O4 0.478478 0.203762 0.611535
O O5 0.365200 0.304346 0.662202
O O6 0.379898 0.028337 0.682555
O O7 0.419940 0.384707 0.927722
O O8 0.410220 0.093470 0.956891
O O9 0.828870 0.954318 0.523020
O O10 0.840758 0.937118 0.342258
O O11 0.838672 0.535681 0.352639
O O12 0.815050 0.727731 0.222154
O O13 0.760228 0.465985 0.240230
O O14 0.650180 0.165669 0.989688
O O15 0.244628 0.255776 0.376953
#
# Coordination Sequence:
#
# PCOD9264178 Si02
#       8
#     4   8   8   8   8   8   8   8
#     4  10  20  32  52  84 118 146 186 220 298 340
#     4   9  21  41  61  80 113 160 195 249 288 348
#     4   9  21  40  62  79 113 159 212 229 291 351
#     4  11  21  36  59  86 118 155 189 247 286 359
#     4  10  22  35  58  83 121 153 192 238 301 357
#     4  10  19  35  56  84 115 156 185 244 285 351
#     4  11  21  36  59  86 124 147 189 247 309 338
#     4  11  22  35  56  91 122 155 190 243 303 364
#
# _framework density 21.710991
#
# number of rings (size 3 to 8) (size 9 to 14) (size 15 to 20)
#    0.000    1.867    2.667    1.200    7.467    1.067 
#    0.000    0.000    5.867    0.000    0.000    0.000 
#    0.000    0.000    0.000    0.000    0.000    0.000 
#
# Total GULP energy -167127.114167 kJ/mol
# GULP energy per Si atom -5570.903806 kJ/mol
# Density = 2.166158 g / cm^3
# Si number density = 21.710991 Si / 1000 Ang^3
#
#
#
# Elastic Constant Matrix: (Units=GPa)
#
#
# Indices 1 2 3 4 5 6 
#
# 1 92.5283 29.9811 7.1692 0.0000 -14.8647 0.0000
# 2 29.9811 81.2136 3.2831 0.0000 -1.4075 0.0000
# 3 7.1692 3.2831 39.5988 0.0000 -2.5863 0.0000
# 4 0.0000 0.0000 0.0000 29.2152 0.0000 -5.7219
# 5 -14.8647 -1.4075 -2.5863 0.0000 29.1190 0.0000
# 6 0.0000 0.0000 0.0000 -5.7219 0.0000 16.4495
#
#
#
# Elastic Compliance Matrix: (Units=1/GPa)
#
#
# Indices 1 2 3 4 5 6 
#
# 1 0.013546 -0.004822 -0.001626 0.000000 0.006538 0.000000
# 2 -0.004822 0.014078 -0.000413 0.000000 -0.001818 0.000000
# 3 -0.001626 -0.000413 0.025675 0.000000 0.001431 0.000000
# 4 0.000000 0.000000 0.000000 0.036731 0.000000 0.012777
# 5 0.006538 -0.001818 0.001431 0.000000 0.037718 0.000000
# 6 0.000000 0.000000 0.000000 0.012777 0.000000 0.065237
#
#
# Mechanical properties :
#
#
# Convention : Reuss Voigt Hill
#
# Bulk Modulus (GPa) = 25.26595 32.68973 28.97784
# Shear Modulus (GPa) = 22.73764 26.48387 24.61076
#
# Velocity S-wave (km/s) = 3.23969 3.49641 3.37049
# Velocity P-wave (km/s) = 5.06525 5.60261 5.34070
#
# Compressibility (1/GPa) = 0.03957896
#
# Stress axis : x y z
#
# Youngs Moduli (GPa) = 73.82227 71.03083 38.94795
#
# Poissons Ratio (x) = 0.34249 0.06332
# Poissons Ratio (y) = 0.35595 0.01609
# Poissons Ratio (z) = 0.12001 0.02933
#
# Static dielectric constant tensor:
#      x y z
#    x 1.809370 0.000000 0.024120 
#    y 0.000000 1.874720 0.000000 
#    z 0.024120 0.000000 1.868170 
# 
# From -- ./inp_files/171851.got.cif
#   From: 2010.05.17/outbox.cif.g08.bks.cpg/sg15_86_cif.got.tgz:171851.got - 2010.06.03 18:47:42.
