data_PCOD9264325
_publ_section_title
;
Structure prediction by ZEFSAII (Michael W. Deem and Ramdas Pophale) SiO2 
 PCOD9264325
Probable space group: C 2/C
;
_chemical_formula_sum "Si O2"
_cell_formula_units_Z 48
_cell_length_a 9.358963
_cell_length_b 15.810287
_cell_length_c 18.115931
_cell_angle_alpha 90.000000
_cell_angle_beta 60.121824
_cell_angle_gamma 90.000000
_cell_volume 2324.291514
_symmetry_space_group_name_H-M "C 2/C"
_symmetry_group_IT_number 15
_symmetry_cell_setting 'monoclinic'
loop_
_space_group_symop_operation_xyz
x,y,z
-x,y,1/2-z
-x,-y,-z
x,-y,1/2+z
1/2+x,1/2+y,z
1/2-x,1/2+y,1/2-z
1/2-x,1/2-y,-z
1/2+x,1/2-y,1/2+z
loop_
_atom_site_type_symbol
_atom_site_label
_atom_site_fract_x
_atom_site_fract_y
_atom_site_fract_z
Si Si1 0.728538 0.578878 0.160237
Si Si2 0.494036 0.836663 0.836771
Si Si3 0.387671 0.669338 0.063235
Si Si4 0.457879 0.515253 0.147859
Si Si5 0.374268 0.251708 0.898309
Si Si6 0.136498 0.828517 0.363813
O O1 0.650282 0.511615 0.123497
O O2 0.642117 0.560459 0.260376
O O3 0.664105 0.664659 0.138928
O O4 0.917642 0.596227 0.131536
O O5 0.500000 0.864796 0.750000
O O6 0.303649 0.823653 0.904143
O O7 0.596925 0.749029 0.819056
O O8 0.430828 0.575908 0.084637
O O9 0.447906 0.735852 0.110860
O O10 0.499696 0.683440 0.963186
O O11 0.389153 0.421605 0.159560
O O12 0.314478 0.179550 0.858032
O O13 0.250000 0.250000 0.000000
#
# Coordination Sequence:
#
# PCOD9264325 Si02
#       6
#     8   8   8   8   8   8
#     4   9  19  34  54  79 112 155 187 230 291 353
#     4  11  21  36  56  81 113 151 197 237 290 350
#     4  10  19  37  60  82 114 153 187 235 301 356
#     4  10  19  35  58  81 114 151 192 235 296 347
#     4   8  17  35  59  83 109 147 194 234 280 350
#     4  10  21  35  58  88 112 143 196 247 287 351
#
# _framework density 20.651453
#
# number of rings (size 3 to 8) (size 9 to 14) (size 15 to 20)
#    0.000    2.333    1.667    1.000    2.333    0.000 
#    0.000    2.500    3.667    0.000    0.000    0.000 
#    0.000    0.000    0.000    0.000    0.000    0.000 
#
# Total GULP energy -133698.807229 kJ/mol
# GULP energy per Si atom -5570.783635 kJ/mol
# Density = 2.060445 g / cm^3
# Si number density = 20.651453 Si / 1000 Ang^3
#
#
#
# Elastic Constant Matrix: (Units=GPa)
#
#
# Indices 1 2 3 4 5 6 
#
# 1 147.4195 32.1644 13.7698 0.0000 -2.7172 0.0000
# 2 32.1644 61.8062 2.4929 0.0000 13.1855 0.0000
# 3 13.7698 2.4929 35.5196 0.0000 3.8611 0.0000
# 4 0.0000 0.0000 0.0000 38.4986 0.0000 -19.6710
# 5 -2.7172 13.1855 3.8611 0.0000 25.8729 0.0000
# 6 0.0000 0.0000 0.0000 -19.6710 0.0000 51.9940
#
#
#
# Elastic Compliance Matrix: (Units=1/GPa)
#
#
# Indices 1 2 3 4 5 6 
#
# 1 0.008250 -0.004993 -0.003272 0.000000 0.003900 0.000000
# 2 -0.004993 0.021178 0.001707 0.000000 -0.011572 0.000000
# 3 -0.003272 0.001707 0.029919 0.000000 -0.005679 0.000000
# 4 0.000000 0.000000 0.000000 0.032199 0.000000 0.012182
# 5 0.003900 -0.011572 -0.005679 0.000000 0.045805 0.000000
# 6 0.000000 0.000000 0.000000 0.012182 0.000000 0.023842
#
#
# Mechanical properties :
#
#
# Convention : Reuss Voigt Hill
#
# Bulk Modulus (GPa) = 21.63008 37.95550 29.79279
# Shear Modulus (GPa) = 26.35457 36.36099 31.35778
#
# Velocity S-wave (km/s) = 3.57621 4.20062 3.90093
# Velocity P-wave (km/s) = 5.24872 6.47657 5.89470
#
# Compressibility (1/GPa) = 0.04623191
#
# Stress axis : x y z
#
# Youngs Moduli (GPa) = 121.20725 47.21855 33.42322
#
# Poissons Ratio (x) = 0.23578 0.10935
# Poissons Ratio (y) = 0.60524 -0.05707
# Poissons Ratio (z) = 0.39657 -0.08062
#
# Static dielectric constant tensor:
#      x y z
#    x 1.824810 0.000000 0.002650 
#    y 0.000000 1.755450 0.000000 
#    z 0.002650 0.000000 1.735380 
# 
# From -- ./inp_files/189224.got.cif
#   From: 2010.05.17/outbox.cif.g08.bks.cpg/sg15_95_cif.got.tgz:189224.got - 2010.06.03 18:47:42.
