data_PCOD9264627
_publ_section_title
;
Structure prediction by ZEFSAII (Michael W. Deem and Ramdas Pophale) SiO2 
 PCOD9264627
Probable space group: C 2/C
;
_chemical_formula_sum "Si O2"
_cell_formula_units_Z 52
_cell_length_a 19.991881
_cell_length_b 8.947166
_cell_length_c 16.222969
_cell_angle_alpha 90.000000
_cell_angle_beta 113.318340
_cell_angle_gamma 90.000000
_cell_volume 2664.792535
_symmetry_space_group_name_H-M "C 2/C"
_symmetry_group_IT_number 15
_symmetry_cell_setting 'monoclinic'
loop_
_space_group_symop_operation_xyz
x,y,z
-x,y,1/2-z
-x,-y,-z
x,-y,1/2+z
1/2+x,1/2+y,z
1/2-x,1/2+y,1/2-z
1/2-x,1/2-y,-z
1/2+x,1/2-y,1/2+z
loop_
_atom_site_type_symbol
_atom_site_label
_atom_site_fract_x
_atom_site_fract_y
_atom_site_fract_z
Si Si1 0.704491 0.026184 0.263642
Si Si2 0.131543 0.084319 0.203089
Si Si3 0.077950 0.372236 0.484430
Si Si4 0.867114 0.667647 0.656791
Si Si5 0.088851 0.754933 0.173398
Si Si6 0.407695 0.147422 0.910269
Si Si7 0.500000 0.938805 0.750000
O O1 0.783515 0.046140 0.265201
O O2 0.663122 0.184843 0.248599
O O3 0.702751 0.925691 0.345339
O O4 0.650733 0.932301 0.177834
O O5 0.121210 0.190125 0.278183
O O6 0.109912 0.179489 0.111010
O O7 0.087727 0.930998 0.186101
O O8 0.126686 0.301193 0.436813
O O9 0.087584 0.288155 0.576304
O O10 0.097201 0.547080 0.510229
O O11 0.991675 0.367822 0.422683
O O12 0.932282 0.547679 0.700819
O O13 0.023658 0.668703 0.186961
#
# Coordination Sequence:
#
# PCOD9264627 Si02
#       7
#     8   8   8   8   8   8   4
#     4   9  19  37  56  79 110 153 191 220 269 341
#     4  11  21  36  57  84 112 151 190 231 277 334
#     4  10  19  37  58  84 108 146 189 234 293 333
#     4  10  19  35  61  79 107 152 194 225 275 344
#     4  10  21  35  58  86 118 140 183 244 283 329
#     4   9  19  35  59  78 112 149 181 227 279 344
#     4  10  20  36  56  82 108 154 192 222 276 336
#
# _framework density 19.513712999999999
#
# number of rings (size 3 to 8) (size 9 to 14) (size 15 to 20)
#    0.000    2.154    0.000    7.385    0.000    2.462 
#    0.000   10.769    0.000    0.000    0.000    0.000 
#    0.000    0.000    0.000    0.000    0.000    0.000 
#
# Total GULP energy -144866.372223 kJ/mol
# GULP energy per Si atom -5571.783547 kJ/mol
# Density = 1.946930 g / cm^3
# Si number density = 19.513713 Si / 1000 Ang^3
#
#
#
# Elastic Constant Matrix: (Units=GPa)
#
#
# Indices 1 2 3 4 5 6 
#
# 1 79.0987 32.7353 40.1457 0.0000 -20.5263 0.0000
# 2 32.7353 145.0770 38.5703 0.0000 -19.8046 0.0000
# 3 40.1457 38.5703 85.1345 0.0000 -30.9228 0.0000
# 4 0.0000 0.0000 0.0000 23.7494 0.0000 0.1866
# 5 -20.5263 -19.8046 -30.9228 0.0000 27.2887 0.0000
# 6 0.0000 0.0000 0.0000 0.1866 0.0000 12.4163
#
#
#
# Elastic Compliance Matrix: (Units=1/GPa)
#
#
# Indices 1 2 3 4 5 6 
#
# 1 0.017624 -0.001741 -0.005380 0.000000 0.005896 0.000000
# 2 -0.001741 0.008139 -0.002034 0.000000 0.002293 0.000000
# 3 -0.005380 -0.002034 0.022431 0.000000 0.019895 0.000000
# 4 0.000000 0.000000 0.000000 0.042111 0.000000 -0.000633
# 5 0.005896 0.002293 0.019895 0.000000 0.065289 0.000000
# 6 0.000000 0.000000 0.000000 -0.000633 0.000000 0.080549
#
#
# Mechanical properties :
#
#
# Convention : Reuss Voigt Hill
#
# Bulk Modulus (GPa) = 33.46272 59.13476 46.29874
# Shear Modulus (GPa) = 18.90970 25.88148 22.39559
#
# Velocity S-wave (km/s) = 3.11633 3.64582 3.39142
# Velocity P-wave (km/s) = 5.48946 6.93489 6.25407
#
# Compressibility (1/GPa) = 0.02988400
#
# Stress axis : x y z
#
# Youngs Moduli (GPa) = 56.74168 122.85789 44.58133
#
# Poissons Ratio (x) = 0.21395 0.23985
# Poissons Ratio (y) = 0.09881 0.09066
# Poissons Ratio (z) = 0.30527 0.24984
#
# Static dielectric constant tensor:
#      x y z
#    x 1.688960 0.000000 -0.026440 
#    y 0.000000 1.723450 0.000000 
#    z -0.026440 0.000000 1.769640 
# 
# From -- ./inp_files/209179.got.cif
#   From: 2010.05.17/outbox.cif.g08.bks.cpg/sg15_105_cif.got.tgz:209179.got - 2010.06.03 18:47:42.
