data_PCOD9264297
_publ_section_title
;
Structure prediction by ZEFSAII (Michael W. Deem and Ramdas Pophale) SiO2 
 PCOD9264297
Probable space group: C 2/C
;
_chemical_formula_sum "Si O2"
_cell_formula_units_Z 40
_cell_length_a 18.732435
_cell_length_b 4.939083
_cell_length_c 22.414829
_cell_angle_alpha 90.000000
_cell_angle_beta 132.655812
_cell_angle_gamma 90.000000
_cell_volume 1525.182084
_symmetry_space_group_name_H-M "C 2/C"
_symmetry_group_IT_number 15
_symmetry_cell_setting 'monoclinic'
loop_
_space_group_symop_operation_xyz
x,y,z
-x,y,1/2-z
-x,-y,-z
x,-y,1/2+z
1/2+x,1/2+y,z
1/2-x,1/2+y,1/2-z
1/2-x,1/2-y,-z
1/2+x,1/2-y,1/2+z
loop_
_atom_site_type_symbol
_atom_site_label
_atom_site_fract_x
_atom_site_fract_y
_atom_site_fract_z
Si Si1 0.967127 0.095031 0.080476
Si Si2 0.616430 0.868035 0.027218
Si Si3 0.589560 0.537526 0.256703
Si Si4 0.248343 0.782782 0.708870
Si Si5 0.799506 0.951687 0.573221
O O1 0.893421 0.970380 0.088853
O O2 0.922668 0.342693 0.017840
O O3 0.053364 0.171538 0.174642
O O4 0.968613 0.840678 0.037364
O O5 0.656531 0.811621 0.116379
O O6 0.718466 0.837218 0.048315
O O7 0.500000 0.472632 0.250000
O O8 0.652777 0.281273 0.271337
O O9 0.662906 0.686669 0.344048
O O10 0.257295 0.587541 0.771591
O O11 0.750000 0.750000 0.500000
#
# Coordination Sequence:
#
# PCOD9264297 Si02
#       5
#     8   8   8   8   8
#     4  10  19  35  57  89 120 154 201 257 305 355
#     4  10  20  36  58  84 119 162 201 245 306 373
#     4   9  20  40  65  96 127 162 210 264 310 361
#     4  11  24  44  65  90 125 169 210 252 311 381
#     4   8  16  33  58  87 121 159 201 248 305 366
#
# _framework density 26.226379000000001
#
# number of rings (size 3 to 8) (size 9 to 14) (size 15 to 20)
#    0.000    2.400    0.000    1.800    0.000    1.600 
#    0.000   38.000    0.000    0.000    0.000    0.000 
#    0.000    0.000    0.000    0.000    0.000    0.000 
#
# Total GULP energy -111533.504286 kJ/mol
# GULP energy per Si atom -5576.675214 kJ/mol
# Density = 2.616669 g / cm^3
# Si number density = 26.226379 Si / 1000 Ang^3
#
#
#
# Elastic Constant Matrix: (Units=GPa)
#
#
# Indices 1 2 3 4 5 6 
#
# 1 99.0774 10.7958 27.7289 -0.0006 -21.4777 -0.0001
# 2 10.7958 66.5446 44.5342 -0.0030 -7.1853 0.0034
# 3 27.7289 44.5342 252.0245 0.0001 -7.7582 0.0006
# 4 -0.0006 -0.0030 0.0001 33.3247 -0.0004 -0.9949
# 5 -21.4777 -7.1853 -7.7582 -0.0004 33.8372 0.0004
# 6 -0.0001 0.0034 0.0006 -0.9949 0.0004 13.9584
#
#
#
# Elastic Compliance Matrix: (Units=1/GPa)
#
#
# Indices 1 2 3 4 5 6 
#
# 1 0.012009 -0.000485 -0.001011 0.000000 0.007288 0.000000
# 2 -0.000485 0.017360 -0.002931 0.000001 0.002707 -0.000004
# 3 -0.001011 -0.002931 0.004591 0.000000 -0.000212 0.000000
# 4 0.000000 0.000001 0.000000 0.030072 0.000001 0.002143
# 5 0.007288 0.002707 -0.000212 0.000001 0.034705 -0.000002
# 6 0.000000 -0.000004 0.000000 0.002143 -0.000002 0.071794
#
#
# Mechanical properties :
#
#
# Convention : Reuss Voigt Hill
#
# Bulk Modulus (GPa) = 39.83175 64.86270 52.34722
# Shear Modulus (GPa) = 26.63080 38.52990 32.58035
#
# Velocity S-wave (km/s) = 3.19002 3.83708 3.52841
# Velocity P-wave (km/s) = 5.36554 6.66457 6.05002
#
# Compressibility (1/GPa) = 0.02510560
#
# Stress axis : x y z
#
# Youngs Moduli (GPa) = 83.27268 57.60396 217.83958
#
# Poissons Ratio (x) = 0.02791 0.22030
# Poissons Ratio (y) = 0.04035 0.63848
# Poissons Ratio (z) = 0.08421 0.16883
#
# Static dielectric constant tensor:
#      x y z
#    x 2.268560 0.000000 0.024070 
#    y 0.000000 1.949480 0.000000 
#    z 0.024070 0.000000 2.158280 
# 
# From -- ./inp_files/212715.got.cif
#   From: 2010.05.17/outbox.cif.g08.bks.cpg/sg15_107_cif.got.tgz:212715.got - 2010.06.03 18:47:42.
