data_PCOD9264880
_publ_section_title
;
Structure prediction by ZEFSAII (Michael W. Deem and Ramdas Pophale) SiO2 
 PCOD9264880
Probable space group: C 2/C
;
_chemical_formula_sum "Si O2"
_cell_formula_units_Z 36
_cell_length_a 9.045573
_cell_length_b 13.267036
_cell_length_c 14.377386
_cell_angle_alpha 90.000000
_cell_angle_beta 131.396833
_cell_angle_gamma 90.000000
_cell_volume 1294.305093
_symmetry_space_group_name_H-M "C 2/C"
_symmetry_group_IT_number 15
_symmetry_cell_setting 'monoclinic'
loop_
_space_group_symop_operation_xyz
x,y,z
-x,y,1/2-z
-x,-y,-z
x,-y,1/2+z
1/2+x,1/2+y,z
1/2-x,1/2+y,1/2-z
1/2-x,1/2-y,-z
1/2+x,1/2-y,1/2+z
loop_
_atom_site_type_symbol
_atom_site_label
_atom_site_fract_x
_atom_site_fract_y
_atom_site_fract_z
Si Si1 0.867000 0.800816 0.467206
Si Si2 0.287705 0.820865 0.651288
Si Si3 0.224054 0.499289 0.210149
Si Si4 0.000000 0.636291 0.750000
Si Si5 0.339682 0.482430 0.050262
O O1 0.750000 0.750000 0.500000
O O2 0.694849 0.795968 0.320285
O O3 0.873428 0.918840 0.499930
O O4 0.086345 0.758873 0.554157
O O5 0.500000 0.769613 0.750000
O O6 0.276598 0.893826 0.736617
O O7 0.265761 0.895511 0.552938
O O8 0.043277 0.437621 0.180597
O O9 0.232083 0.507184 0.102547
O O10 0.436512 0.451848 0.327883
#
# Coordination Sequence:
#
# PCOD9264880 Si02
#       5
#     8   8   8   4   8
#     4  11  24  40  63  96 137 178 212 263 348 414
#     4  11  20  39  66  99 132 168 227 289 319 379
#     4  10  19  35  67  98 129 165 226 295 318 372
#     4  12  20  40  66  94 130 172 222 282 328 380
#     4  10  20  38  66 102 127 169 232 278 330 374
#
# _framework density 27.814153000000001
#
# number of rings (size 3 to 8) (size 9 to 14) (size 15 to 20)
#    0.000    1.333    5.556    1.333    0.000    7.111 
#    0.000    0.000    4.889    4.000    0.000    0.000 
#    0.000    0.000    0.000    0.000    0.000    0.000 
#
# Total GULP energy -100636.046172 kJ/mol
# GULP energy per Si atom -5590.891454 kJ/mol
# Density = 2.775085 g / cm^3
# Si number density = 27.814153 Si / 1000 Ang^3
#
#
#
# Elastic Constant Matrix: (Units=GPa)
#
#
# Indices 1 2 3 4 5 6 
#
# 1 165.5804 20.3686 74.0965 0.0000 14.6496 0.0000
# 2 20.3686 56.8487 14.3010 0.0000 -5.2301 0.0000
# 3 74.0965 14.3010 130.7488 0.0000 32.5474 0.0000
# 4 0.0000 0.0000 0.0000 5.3004 0.0000 -15.1215
# 5 14.6496 -5.2301 32.5474 0.0000 110.1350 0.0000
# 6 0.0000 0.0000 0.0000 -15.1215 0.0000 43.1966
#
#
#
# Elastic Compliance Matrix: (Units=1/GPa)
#
#
# Indices 1 2 3 4 5 6 
#
# 1 0.008276 -0.001812 -0.004530 0.000000 0.000152 0.000000
# 2 -0.001812 0.018736 -0.001408 -0.000006 0.001547 -0.000002
# 3 -0.004530 -0.001408 0.011049 -0.000005 -0.002729 -0.000002
# 4 0.000000 -0.000006 -0.000005143.602309 -0.000005 50.269771
# 5 0.000152 0.001547 -0.002729 -0.000005 0.009940 -0.000002
# 6 0.000000 -0.000002 -0.000002 50.269771 -0.000002 17.620707
#
#
# Mechanical properties :
#
#
# Convention : Reuss Voigt Hill
#
# Bulk Modulus (GPa) = 44.32107 63.41226 53.86666
# Shear Modulus (GPa) = 0.03100 48.02053 24.02577
#
# Velocity S-wave (km/s) = 0.10569 4.15960 2.94223
# Velocity P-wave (km/s) = 3.99802 6.77626 5.56336
#
# Compressibility (1/GPa) = 0.02256263
#
# Stress axis : x y z
#
# Youngs Moduli (GPa) = 120.83473 53.37295 90.50910
#
# Poissons Ratio (x) = 0.09670 0.40997
# Poissons Ratio (y) = 0.21892 0.12740
# Poissons Ratio (z) = 0.54733 0.07513
#
# Static dielectric constant tensor:
#      x y z
#    x 2.186010 0.000000 0.157160 
#    y 0.000000 2.235290 0.000000 
#    z 0.157160 0.000000 1.243010 
# 
# From -- ./inp_files/134659.got.cif
#   From: 2010.05.17/outbox.cif.g08.bks.cpg/sg15_68_cif.got.tgz:134659.got - 2010.06.03 18:47:42.
