data_PCOD9264505
_publ_section_title
;
Structure prediction by ZEFSAII (Michael W. Deem and Ramdas Pophale) SiO2 
 PCOD9264505
Probable space group: C 2/C
;
_chemical_formula_sum "Si O2"
_cell_formula_units_Z 40
_cell_length_a 13.615835
_cell_length_b 7.633196
_cell_length_c 14.660436
_cell_angle_alpha 90.000000
_cell_angle_beta 87.161137
_cell_angle_gamma 90.000000
_cell_volume 1521.823462
_symmetry_space_group_name_H-M "C 2/C"
_symmetry_group_IT_number 15
_symmetry_cell_setting 'monoclinic'
loop_
_space_group_symop_operation_xyz
x,y,z
-x,y,1/2-z
-x,-y,-z
x,-y,1/2+z
1/2+x,1/2+y,z
1/2-x,1/2+y,1/2-z
1/2-x,1/2-y,-z
1/2+x,1/2-y,1/2+z
loop_
_atom_site_type_symbol
_atom_site_label
_atom_site_fract_x
_atom_site_fract_y
_atom_site_fract_z
Si Si1 0.087359 0.720566 0.860948
Si Si2 0.094275 0.221699 0.001022
Si Si3 0.135593 0.909823 0.308568
Si Si4 0.754553 0.501142 0.567381
Si Si5 0.674487 0.933885 0.743514
O O1 0.089150 0.899929 0.805645
O O2 0.188454 0.683337 0.915280
O O3 0.093483 0.563264 0.788051
O O4 0.997912 0.725416 0.934660
O O5 0.169619 0.384292 0.995088
O O6 0.079317 0.182130 0.895013
O O7 0.147677 0.044408 0.034366
O O8 0.249793 0.965050 0.324206
O O9 0.138358 0.763334 0.228783
O O10 0.756954 0.414488 0.668495
#
# Coordination Sequence:
#
# PCOD9264505 Si02
#       5
#     8   8   8   8   8
#     4  10  20  35  59  84 113 155 196 243 303 362
#     4  10  19  35  59  89 112 154 201 248 295 368
#     4  11  19  34  59  83 112 153 206 234 307 368
#     4   8  19  35  57  82 119 149 194 246 306 350
#     4   9  19  35  57  82 114 159 191 244 306 368
#
# _framework density 26.284258999999999
#
# number of rings (size 3 to 8) (size 9 to 14) (size 15 to 20)
#    1.200    1.200    2.000    1.200    0.000    0.800 
#    0.000    1.000    0.000    2.400    0.000    0.000 
#    0.000    0.000    0.000    0.000    0.000    0.000 
#
# Total GULP energy -111455.699626 kJ/mol
# GULP energy per Si atom -5572.784981 kJ/mol
# Density = 2.622443 g / cm^3
# Si number density = 26.284259 Si / 1000 Ang^3
#
#
#
# Elastic Constant Matrix: (Units=GPa)
#
#
# Indices 1 2 3 4 5 6 
#
# 1 65.2387 13.6655 45.3239 0.0000 -20.6373 0.0000
# 2 13.6655 187.1906 27.3277 0.0000 -30.7934 0.0000
# 3 45.3239 27.3277 97.6220 0.0000 -51.6982 0.0000
# 4 0.0000 0.0000 0.0000 30.7707 0.0000 -17.6005
# 5 -20.6373 -30.7934 -51.6982 0.0000 49.1946 0.0000
# 6 0.0000 0.0000 0.0000 -17.6005 0.0000 -1.6304
#
#
#
# Elastic Compliance Matrix: (Units=1/GPa)
#
#
# Indices 1 2 3 4 5 6 
#
# 1 0.022934 -0.000479 -0.012577 0.000000 -0.003896 0.000000
# 2 -0.000479 0.005986 0.000957 0.000000 0.004552 0.000000
# 3 -0.012577 0.000957 0.030076 0.000000 0.026930 0.000000
# 4 0.000000 0.000000 0.000000 0.004529 0.000000 -0.048898
# 5 -0.003896 0.004552 0.026930 0.000000 0.049843 0.000000
# 6 0.000000 0.000000 0.000000 -0.048898 0.000000 -0.085487
#
#
# Mechanical properties :
#
#
# Convention : Reuss Voigt Hill
#
# Bulk Modulus (GPa) = 28.73592 58.07615 43.40604
# Shear Modulus (GPa) = 78.51892 33.24926 55.88409
#
# Velocity S-wave (km/s) = 5.47155 3.56052 4.61601
# Velocity P-wave (km/s) = 7.13257 6.24872 6.70523
#
# Compressibility (1/GPa) = 0.03479965
#
# Stress axis : x y z
#
# Youngs Moduli (GPa) = 43.60375 167.05065 33.24877
#
# Poissons Ratio (x) = 0.08003 0.41816
# Poissons Ratio (y) = 0.02089 -0.03183
# Poissons Ratio (z) = 0.54839 -0.15994
#
# Static dielectric constant tensor:
#      x y z
#    x 2.163200 0.000000 0.057790 
#    y 0.000000 2.096480 0.000000 
#    z 0.057790 0.000000 2.128890 
# 
# From -- ./inp_files/202495.got.cif
#   From: 2010.05.17/outbox.cif.g08.bks.cpg/sg15_102_cif.got.tgz:202495.got - 2010.06.03 18:47:42.
