data_PCOD9264567
_publ_section_title
;
Structure prediction by ZEFSAII (Michael W. Deem and Ramdas Pophale) SiO2 
 PCOD9264567
Probable space group: C 2/C
;
_chemical_formula_sum "Si O2"
_cell_formula_units_Z 56
_cell_length_a 16.499122
_cell_length_b 12.186947
_cell_length_c 13.468288
_cell_angle_alpha 90.000000
_cell_angle_beta 56.646016
_cell_angle_gamma 90.000000
_cell_volume 2262.066031
_symmetry_space_group_name_H-M "C 2/C"
_symmetry_group_IT_number 15
_symmetry_cell_setting 'monoclinic'
loop_
_space_group_symop_operation_xyz
x,y,z
-x,y,1/2-z
-x,-y,-z
x,-y,1/2+z
1/2+x,1/2+y,z
1/2-x,1/2+y,1/2-z
1/2-x,1/2-y,-z
1/2+x,1/2-y,1/2+z
loop_
_atom_site_type_symbol
_atom_site_label
_atom_site_fract_x
_atom_site_fract_y
_atom_site_fract_z
Si Si1 0.971581 0.937783 0.420577
Si Si2 0.161507 0.051278 0.655368
Si Si3 0.789534 0.177780 0.327898
Si Si4 0.001966 0.304466 0.541643
Si Si5 0.302671 0.794337 0.805551
Si Si6 0.389733 0.790499 0.424119
Si Si7 0.098642 0.543658 0.120383
O O1 0.877012 0.978971 0.427719
O O2 0.065192 0.950641 0.288100
O O3 0.954944 0.809256 0.448392
O O4 0.000000 0.000000 0.500000
O O5 0.198176 0.174366 0.645087
O O6 0.226974 0.952416 0.648926
O O7 0.785065 0.199006 0.213954
O O8 0.700864 0.239499 0.442823
O O9 0.881678 0.215059 0.331840
O O10 0.898270 0.309969 0.670113
O O11 0.979659 0.293394 0.439923
O O12 0.069089 0.403924 0.533941
O O13 0.319689 0.885251 0.878488
O O14 0.378146 0.915876 0.397190
O O15 0.000000 0.556747 0.250000
#
# Coordination Sequence:
#
# PCOD9264567 Si02
#       7
#     8   8   8   8   8   8   8
#     4  10  19  35  60  86 111 147 187 235 289 331
#     4  10  20  38  59  82 113 150 192 232 276 344
#     4  10  22  38  55  80 116 152 186 223 284 353
#     4   9  17  35  58  80 106 142 186 229 279 331
#     4   9  19  35  58  78 107 151 186 219 278 341
#     4  10  21  37  57  81 111 151 184 231 290 340
#     4  10  19  36  59  83 107 142 191 236 276 325
#
# _framework density 24.756129000000001
#
# number of rings (size 3 to 8) (size 9 to 14) (size 15 to 20)
#    0.000    2.286    1.429    1.286    2.000    1.143 
#    5.143    2.143    0.000    0.000    0.000    0.000 
#    0.000    0.000    0.000    0.000    0.000    0.000 
#
# Total GULP energy -156540.419845 kJ/mol
# GULP energy per Si atom -5590.729280 kJ/mol
# Density = 2.469978 g / cm^3
# Si number density = 24.756129 Si / 1000 Ang^3
#
#
#
# Elastic Constant Matrix: (Units=GPa)
#
#
# Indices 1 2 3 4 5 6 
#
# 1 104.5836 31.2573 50.5574 0.0000 41.3922 0.0000
# 2 31.2573 99.6295 -8.5867 0.0000 23.1203 0.0000
# 3 50.5574 -8.5867 65.7765 0.0000 5.9483 0.0000
# 4 0.0000 0.0000 0.0000 20.9461 0.0000 7.4392
# 5 41.3922 23.1203 5.9483 0.0000 55.2848 0.0000
# 6 0.0000 0.0000 0.0000 7.4392 0.0000 39.2844
#
#
#
# Elastic Compliance Matrix: (Units=1/GPa)
#
#
# Indices 1 2 3 4 5 6 
#
# 1 0.028112 -0.006953 -0.021080 0.000000 -0.015872 0.000000
# 2 -0.006953 0.013073 0.007144 0.000000 -0.001030 0.000000
# 3 -0.021080 0.007144 0.031487 0.000000 0.009407 0.000000
# 4 0.000000 0.000000 0.000000 0.051184 0.000000 -0.009693
# 5 -0.015872 -0.001030 0.009407 0.000000 0.029390 0.000000
# 6 0.000000 0.000000 0.000000 -0.009693 0.000000 0.027291
#
#
# Mechanical properties :
#
#
# Convention : Reuss Voigt Hill
#
# Bulk Modulus (GPa) = 32.36772 46.27174 39.31973
# Shear Modulus (GPa) = 21.49485 36.22051 28.85768
#
# Velocity S-wave (km/s) = 2.94983 3.82919 3.41791
# Velocity P-wave (km/s) = 4.97041 6.18723 5.61190
#
# Compressibility (1/GPa) = 0.03089497
#
# Stress axis : x y z
#
# Youngs Moduli (GPa) = 35.57212 76.49094 31.75875
#
# Poissons Ratio (x) = 0.53186 0.66947
# Poissons Ratio (y) = 0.24734 -0.22689
# Poissons Ratio (z) = 0.74986 -0.54647
#
# Static dielectric constant tensor:
#      x y z
#    x 1.964240 0.000000 0.000130 
#    y 0.000000 1.888480 0.000000 
#    z 0.000130 0.000000 1.971710 
# 
# From -- ./inp_files/160812.got.cif
#   From: 2010.05.17/outbox.cif.g08.bks.cpg/sg15_81_cif.got.tgz:160812.got - 2010.06.03 18:47:42.
