data_PCOD9264716
_publ_section_title
;
Structure prediction by ZEFSAII (Michael W. Deem and Ramdas Pophale) SiO2 
 PCOD9264716
Probable space group: C 2/C
;
_chemical_formula_sum "Si O2"
_cell_formula_units_Z 52
_cell_length_a 28.859270
_cell_length_b 7.302607
_cell_length_c 15.893700
_cell_angle_alpha 90.000000
_cell_angle_beta 137.180905
_cell_angle_gamma 90.000000
_cell_volume 2276.651085
_symmetry_space_group_name_H-M "C 2/C"
_symmetry_group_IT_number 15
_symmetry_cell_setting 'monoclinic'
loop_
_space_group_symop_operation_xyz
x,y,z
-x,y,1/2-z
-x,-y,-z
x,-y,1/2+z
1/2+x,1/2+y,z
1/2-x,1/2+y,1/2-z
1/2-x,1/2-y,-z
1/2+x,1/2-y,1/2+z
loop_
_atom_site_type_symbol
_atom_site_label
_atom_site_fract_x
_atom_site_fract_y
_atom_site_fract_z
Si Si1 0.946565 0.948480 0.501548
Si Si2 0.276843 0.947910 0.506419
Si Si3 0.207171 0.511832 0.795964
Si Si4 0.071305 0.519178 0.049603
Si Si5 0.701610 0.578729 0.741744
Si Si6 0.075267 0.512133 0.364042
Si Si7 0.000000 0.144861 0.250000
O O1 0.930222 0.734126 0.471886
O O2 0.869994 0.017594 0.378527
O O3 0.980425 0.968041 0.639692
O O4 0.000000 0.000000 0.500000
O O5 0.250000 0.750000 0.500000
O O6 0.264934 0.060350 0.575657
O O7 0.239416 0.012412 0.371925
O O8 0.357702 0.929085 0.595828
O O9 0.128476 0.565455 0.684716
O O10 0.252666 0.580324 0.780538
O O11 0.199634 0.291512 0.769019
O O12 0.085707 0.444150 0.975986
O O13 0.000000 0.500000 0.000000
O O14 0.061655 0.295527 0.323447
O O15 0.000000 0.595518 0.250000
#
# Coordination Sequence:
#
# PCOD9264716 Si02
#       7
#     8   8   8   8   8   8   4
#     4  10  22  40  61  86 125 159 200 261 317 365
#     4  10  20  37  60  89 126 159 200 261 311 361
#     4  10  21  37  59  84 121 159 202 248 309 362
#     4  10  19  35  62  88 116 155 205 254 300 370
#     4  10  22  40  58  86 125 161 201 254 310 372
#     4   9  17  34  61  92 122 154 211 261 298 364
#     4   8  20  38  64  90 124 160 216 252 308 376
#
# _framework density 22.840565000000002
#
# number of rings (size 3 to 8) (size 9 to 14) (size 15 to 20)
#    0.462    1.846    1.538    0.923    0.000    2.462 
#    0.000    0.769    1.692    0.000    0.000    0.000 
#    0.000    0.000    0.000    0.000    0.000    0.000 
#
# Total GULP energy -144777.443896 kJ/mol
# GULP energy per Si atom -5568.363227 kJ/mol
# Density = 2.278858 g / cm^3
# Si number density = 22.840565 Si / 1000 Ang^3
#
#
#
# Elastic Constant Matrix: (Units=GPa)
#
#
# Indices 1 2 3 4 5 6 
#
# 1 178.5311 6.6764 97.5979 0.0000 -3.0633 0.0000
# 2 6.6764 41.2637 11.7153 0.0000 -3.1481 0.0000
# 3 97.5979 11.7153 178.7093 0.0000 -21.6686 0.0000
# 4 0.0000 0.0000 0.0000 4.5140 0.0000 -7.5005
# 5 -3.0633 -3.1481 -21.6686 0.0000 45.6875 0.0000
# 6 0.0000 0.0000 0.0000 -7.5005 0.0000 24.1031
#
#
#
# Elastic Compliance Matrix: (Units=1/GPa)
#
#
# Indices 1 2 3 4 5 6 
#
# 1 0.008101 -0.000126 -0.004617 0.000000 -0.001655 0.000000
# 2 -0.000126 0.024738 -0.001429 0.000000 0.001018 0.000000
# 3 -0.004617 -0.001429 0.008659 0.000000 0.003699 0.000000
# 4 0.000000 0.000000 0.000000 0.458731 0.000000 0.142751
# 5 -0.001655 0.001018 0.003699 0.000000 0.023601 0.000000
# 6 0.000000 0.000000 0.000000 0.142751 0.000000 0.085910
#
#
# Mechanical properties :
#
#
# Convention : Reuss Voigt Hill
#
# Bulk Modulus (GPa) = 34.30043 70.05369 52.17706
# Shear Modulus (GPa) = 7.91384 33.69522 20.80453
#
# Velocity S-wave (km/s) = 1.86342 3.84505 3.02132
# Velocity P-wave (km/s) = 4.43618 7.10280 5.92155
#
# Compressibility (1/GPa) = 0.02915415
#
# Stress axis : x y z
#
# Youngs Moduli (GPa) = 123.43418 40.42319 115.48359
#
# Poissons Ratio (x) = 0.00511 0.53317
# Poissons Ratio (y) = 0.01559 0.16506
# Poissons Ratio (z) = 0.56988 0.05778
#
# Static dielectric constant tensor:
#      x y z
#    x 1.818150 0.000000 0.040740 
#    y 0.000000 1.914150 0.000000 
#    z 0.040740 0.000000 2.033610 
# 
# From -- ./inp_files/176725.got.cif
#   From: 2010.05.17/outbox.cif.g08.bks.cpg/sg15_89_cif.got.tgz:176725.got - 2010.06.03 18:47:42.
