data_PCOD9264671
_publ_section_title
;
Structure prediction by ZEFSAII (Michael W. Deem and Ramdas Pophale) SiO2 
 PCOD9264671
Probable space group: C 2/C
;
_chemical_formula_sum "Si O2"
_cell_formula_units_Z 44
_cell_length_a 9.124241
_cell_length_b 17.731992
_cell_length_c 12.124379
_cell_angle_alpha 90.000000
_cell_angle_beta 81.383556
_cell_angle_gamma 90.000000
_cell_volume 1939.475102
_symmetry_space_group_name_H-M "C 2/C"
_symmetry_group_IT_number 15
_symmetry_cell_setting 'monoclinic'
loop_
_space_group_symop_operation_xyz
x,y,z
-x,y,1/2-z
-x,-y,-z
x,-y,1/2+z
1/2+x,1/2+y,z
1/2-x,1/2+y,1/2-z
1/2-x,1/2-y,-z
1/2+x,1/2-y,1/2+z
loop_
_atom_site_type_symbol
_atom_site_label
_atom_site_fract_x
_atom_site_fract_y
_atom_site_fract_z
Si Si1 0.783193 0.888328 0.185709
Si Si2 0.325553 0.963759 0.746099
Si Si3 0.000000 0.771848 0.250000
Si Si4 0.251314 0.829468 0.902179
Si Si5 0.886623 0.427184 0.503873
Si Si6 0.892128 0.308864 0.113474
O O1 0.741082 0.926005 0.073809
O O2 0.656827 0.839351 0.262680
O O3 0.917881 0.830297 0.176517
O O4 0.777808 0.963824 0.260747
O O5 0.500000 0.986168 0.750000
O O6 0.267268 0.911537 0.850176
O O7 0.329324 0.917274 0.633125
O O8 0.114875 0.718015 0.172403
O O9 0.106445 0.781327 0.887225
O O10 0.270340 0.828946 0.031617
O O11 0.000000 0.500000 0.500000
O O12 0.973773 0.354193 0.452332
#
# Coordination Sequence:
#
# PCOD9264671 Si02
#       6
#     8   8   4   8   8   8
#     4  11  23  37  63  91 122 160 208 258 304 368
#     4  12  20  36  65  91 120 157 210 254 304 365
#     4  10  22  44  60  86 130 176 200 242 326 378
#     4  10  20  37  64  87 124 172 197 243 319 379
#     4  12  20  35  61  95 118 150 205 266 304 354
#     4  10  19  35  61  91 116 156 210 247 300 367
#
# _framework density 22.686551999999999
#
# number of rings (size 3 to 8) (size 9 to 14) (size 15 to 20)
#    0.000    1.091    6.364    0.545    0.000    0.000 
#    0.000   10.909    8.000    0.000    0.000    0.000 
#    0.000    0.000    0.000    0.000    0.000    0.000 
#
# Total GULP energy -122608.222686 kJ/mol
# GULP energy per Si atom -5573.101031 kJ/mol
# Density = 2.263492 g / cm^3
# Si number density = 22.686552 Si / 1000 Ang^3
#
#
#
# Elastic Constant Matrix: (Units=GPa)
#
#
# Indices 1 2 3 4 5 6 
#
# 1 27.9976 27.5490 3.0839 0.0000 4.4380 0.0000
# 2 27.5490 103.5700 -17.8691 0.0000 5.2797 0.0000
# 3 3.0839 -17.8691 81.7740 0.0000 23.7689 0.0000
# 4 0.0000 0.0000 0.0000 32.8295 0.0000 5.5537
# 5 4.4380 5.2797 23.7689 0.0000 26.1241 0.0000
# 6 0.0000 0.0000 0.0000 5.5537 0.0000 33.4185
#
#
#
# Elastic Compliance Matrix: (Units=1/GPa)
#
#
# Indices 1 2 3 4 5 6 
#
# 1 0.050325 -0.014083 -0.004510 0.000000 -0.001599 0.000000
# 2 -0.014083 0.014584 0.005274 0.000000 -0.005354 0.000000
# 3 -0.004510 0.005274 0.018542 0.000000 -0.017170 0.000000
# 4 0.000000 0.000000 0.000000 0.031342 0.000000 -0.005209
# 5 -0.001599 -0.005354 -0.017170 0.000000 0.055255 0.000000
# 6 0.000000 0.000000 0.000000 -0.005209 0.000000 0.030789
#
#
# Mechanical properties :
#
#
# Convention : Reuss Voigt Hill
#
# Bulk Modulus (GPa) = 17.60151 26.54103 22.07127
# Shear Modulus (GPa) = 20.29120 31.84628 26.06874
#
# Velocity S-wave (km/s) = 2.99392 3.75073 3.39349
# Velocity P-wave (km/s) = 4.44149 5.52103 5.01042
#
# Compressibility (1/GPa) = 0.05681332
#
# Stress axis : x y z
#
# Youngs Moduli (GPa) = 19.87091 68.56779 53.93099
#
# Poissons Ratio (x) = 0.96562 0.24324
# Poissons Ratio (y) = 0.27984 -0.28444
# Poissons Ratio (z) = 0.08962 -0.36163
#
# Static dielectric constant tensor:
#      x y z
#    x 1.988400 0.000000 0.030850 
#    y 0.000000 1.918490 0.000000 
#    z 0.030850 0.000000 1.880670 
# 
# From -- ./inp_files/78183.got.cif
#   From: 2010.05.17/outbox.cif.g08.bks.cpg/sg15_40_cif.got.tgz:78183.got - 2010.06.03 18:47:42.
