data_PCOD9264157
_publ_section_title
;
Structure prediction by ZEFSAII (Michael W. Deem and Ramdas Pophale) SiO2 
 PCOD9264157
Probable space group: C 2/C
;
_chemical_formula_sum "Si O2"
_cell_formula_units_Z 48
_cell_length_a 20.962133
_cell_length_b 15.805934
_cell_length_c 8.982655
_cell_angle_alpha 90.000000
_cell_angle_beta 132.680174
_cell_angle_gamma 90.000000
_cell_volume 2187.942243
_symmetry_space_group_name_H-M "C 2/C"
_symmetry_group_IT_number 15
_symmetry_cell_setting 'monoclinic'
loop_
_space_group_symop_operation_xyz
x,y,z
-x,y,1/2-z
-x,-y,-z
x,-y,1/2+z
1/2+x,1/2+y,z
1/2-x,1/2+y,1/2-z
1/2-x,1/2-y,-z
1/2+x,1/2-y,1/2+z
loop_
_atom_site_type_symbol
_atom_site_label
_atom_site_fract_x
_atom_site_fract_y
_atom_site_fract_z
Si Si1 0.596986 0.884985 0.665003
Si Si2 0.038030 0.799887 0.144022
Si Si3 0.359137 0.698475 0.247462
Si Si4 0.286175 0.670486 0.463885
Si Si5 0.299823 0.884435 0.133103
Si Si6 0.379632 0.011485 0.025907
O O1 0.566192 0.788928 0.614586
O O2 0.564466 0.946866 0.485500
O O3 0.702377 0.888254 0.822515
O O4 0.575847 0.925320 0.788980
O O5 0.125020 0.854373 0.310413
O O6 0.000000 0.782231 0.250000
O O7 0.957025 0.833640 0.921920
O O8 0.313721 0.693113 0.339088
O O9 0.355189 0.797896 0.200995
O O10 0.299195 0.646511 0.039637
O O11 0.250000 0.750000 0.500000
O O12 0.325960 0.928797 0.328089
O O13 0.322175 0.949606 0.037908
#
# Coordination Sequence:
#
# PCOD9264157 Si02
#       6
#     8   8   8   8   8   8
#     4  10  19  35  56  81 109 147 186 221 277 339
#     4   9  18  32  54  82 111 139 181 232 281 320
#     4  10  19  35  56  83 111 147 187 238 271 330
#     4   9  16  30  56  79 107 137 184 226 269 322
#     4  10  20  35  58  79 113 147 191 226 283 326
#     4  10  20  35  57  83 111 152 184 228 276 346
#
# _framework density 21.938421999999999
#
# number of rings (size 3 to 8) (size 9 to 14) (size 15 to 20)
#    0.000    2.333    1.667    3.000    0.000    0.000 
#    0.000   10.000    0.000    6.000    0.000    0.000 
#    0.000    0.000    0.000    0.000    0.000    0.000 
#
# Total GULP energy -133965.707993 kJ/mol
# GULP energy per Si atom -5581.904500 kJ/mol
# Density = 2.188849 g / cm^3
# Si number density = 21.938422 Si / 1000 Ang^3
#
#
#
# Elastic Constant Matrix: (Units=GPa)
#
#
# Indices 1 2 3 4 5 6 
#
# 1 67.0414 8.2607 25.5398 0.0000 11.6610 0.0000
# 2 8.2607 37.4458 -2.1051 0.0000 -11.5163 0.0000
# 3 25.5398 -2.1051 82.6885 0.0000 2.0957 0.0000
# 4 0.0000 0.0000 0.0000 32.9038 0.0000 -4.1309
# 5 11.6610 -11.5163 2.0957 0.0000 42.5910 0.0000
# 6 0.0000 0.0000 0.0000 -4.1309 0.0000 23.0933
#
#
#
# Elastic Compliance Matrix: (Units=1/GPa)
#
#
# Indices 1 2 3 4 5 6 
#
# 1 0.019162 -0.006635 -0.005916 0.000000 -0.006749 0.000000
# 2 -0.006635 0.031450 0.002592 0.000000 0.010193 0.000000
# 3 -0.005916 0.002592 0.013945 0.000000 0.001634 0.000000
# 4 0.000000 0.000000 0.000000 0.031090 0.000000 0.005561
# 5 -0.006749 0.010193 0.001634 0.000000 0.028003 0.000000
# 6 0.000000 0.000000 0.000000 0.005561 0.000000 0.044297
#
#
# Mechanical properties :
#
#
# Convention : Reuss Voigt Hill
#
# Bulk Modulus (GPa) = 22.40305 27.84072 25.12189
# Shear Modulus (GPa) = 24.66150 30.08298 27.37224
#
# Velocity S-wave (km/s) = 3.35643 3.70705 3.53609
# Velocity P-wave (km/s) = 5.02542 5.57144 5.30546
#
# Compressibility (1/GPa) = 0.04463679
#
# Stress axis : x y z
#
# Youngs Moduli (GPa) = 52.18785 31.79698 71.70783
#
# Poissons Ratio (x) = 0.21099 0.42424
# Poissons Ratio (y) = 0.34629 -0.18585
# Poissons Ratio (z) = 0.30876 -0.08241
#
# Static dielectric constant tensor:
#      x y z
#    x 1.834200 0.000000 0.027820 
#    y 0.000000 1.763800 0.000000 
#    z 0.027820 0.000000 1.877010 
# 
# From -- ./inp_files/56781.got.cif
#   From: 2010.05.17/outbox.cif.g08.bks.cpg/sg15_29_cif.got.tgz:56781.got - 2010.06.03 18:47:42.
