data_PCOD9264937
_publ_section_title
;
Structure prediction by ZEFSAII (Michael W. Deem and Ramdas Pophale) SiO2 
 PCOD9264937
Probable space group: C 2/C
;
_chemical_formula_sum "Si O2"
_cell_formula_units_Z 48
_cell_length_a 24.543203
_cell_length_b 6.876262
_cell_length_c 14.823569
_cell_angle_alpha 90.000000
_cell_angle_beta 42.213826
_cell_angle_gamma 90.000000
_cell_volume 1680.895229
_symmetry_space_group_name_H-M "C 2/C"
_symmetry_group_IT_number 15
_symmetry_cell_setting 'monoclinic'
loop_
_space_group_symop_operation_xyz
x,y,z
-x,y,1/2-z
-x,-y,-z
x,-y,1/2+z
1/2+x,1/2+y,z
1/2-x,1/2+y,1/2-z
1/2-x,1/2-y,-z
1/2+x,1/2-y,1/2+z
loop_
_atom_site_type_symbol
_atom_site_label
_atom_site_fract_x
_atom_site_fract_y
_atom_site_fract_z
Si Si1 0.827124 0.893250 0.649150
Si Si2 0.184263 0.518223 0.562206
Si Si3 0.644026 0.443998 0.082714
Si Si4 0.977284 0.512745 0.670828
Si Si5 0.351752 0.054222 0.098016
Si Si6 0.938238 0.913227 0.146796
O O1 0.730168 0.881056 0.750143
O O2 0.853802 0.031134 0.698908
O O3 0.869350 0.970620 0.506208
O O4 0.856496 0.672249 0.619976
O O5 0.272420 0.546230 0.493588
O O6 0.163891 0.285695 0.576682
O O7 0.177274 0.586887 0.468870
O O8 0.112543 0.600912 0.712360
O O9 0.572610 0.495104 0.238757
O O10 0.053424 0.613606 0.528487
O O11 0.000000 0.482388 0.750000
O O12 0.961050 0.309003 0.640091
O O13 0.000000 0.000000 0.000000
#
# Coordination Sequence:
#
# PCOD9264937 Si02
#       6
#     8   8   8   8   8   8
#     4  11  22  35  58  82 115 149 187 232 281 334
#     4   8  15  31  57  78 105 137 188 242 267 307
#     4   9  18  32  53  84 105 141 189 228 278 326
#     4   9  18  32  56  86 108 139 198 242 265 321
#     4  10  19  36  54  86 109 147 185 230 283 335
#     4  11  20  32  55  83 113 144 182 238 283 323
#
# _framework density 28.556214000000001
#
# number of rings (size 3 to 8) (size 9 to 14) (size 15 to 20)
#    0.000    2.333    3.333    1.000    2.333    0.000 
#    0.000    1.667    0.000    0.000    8.667    0.000 
#    0.000    0.000    0.000    0.000    0.000    0.000 
#
# Total GULP energy -134341.051362 kJ/mol
# GULP energy per Si atom -5597.543807 kJ/mol
# Density = 2.849122 g / cm^3
# Si number density = 28.556214 Si / 1000 Ang^3
#
#
#
# Elastic Constant Matrix: (Units=GPa)
#
#
# Indices 1 2 3 4 5 6 
#
# 1 115.4976 10.4407 62.9871 -0.0113 15.0035 0.0039
# 2 10.4407 102.5993 7.7192 -0.0232 3.3578 0.0148
# 3 62.9871 7.7192 245.1776 -0.0114 -7.0624 0.0074
# 4 -0.0113 -0.0232 -0.0114 13.9787 0.0098 -4.0245
# 5 15.0035 3.3578 -7.0624 0.0098 67.1378 -0.0038
# 6 0.0039 0.0148 0.0074 -4.0245 -0.0038 40.9951
#
#
#
# Elastic Compliance Matrix: (Units=1/GPa)
#
#
# Indices 1 2 3 4 5 6 
#
# 1 0.010579 -0.000783 -0.002768 0.000007 -0.002616 0.000000
# 2 -0.000783 0.009846 -0.000118 0.000015 -0.000330 -0.000002
# 3 -0.002768 -0.000118 0.004826 0.000001 0.001132 0.000000
# 4 0.000007 0.000015 0.000001 0.073618 -0.000013 0.007227
# 5 -0.002616 -0.000330 0.001132 -0.000013 0.015615 0.000000
# 6 0.000000 -0.000002 0.000000 0.007227 0.000000 0.025103
#
#
# Mechanical properties :
#
#
# Convention : Reuss Voigt Hill
#
# Bulk Modulus (GPa) = 55.82874 69.50761 62.66817
# Shear Modulus (GPa) = 32.70203 49.89750 41.29977
#
# Velocity S-wave (km/s) = 3.38772 4.18466 3.80710
# Velocity P-wave (km/s) = 5.90721 6.90956 6.42795
#
# Compressibility (1/GPa) = 0.01791192
#
# Stress axis : x y z
#
# Youngs Moduli (GPa) = 94.53114 101.56403 207.20116
#
# Poissons Ratio (x) = 0.07948 0.57361
# Poissons Ratio (y) = 0.07398 0.02454
# Poissons Ratio (z) = 0.26170 0.01203
#
# Static dielectric constant tensor:
#      x y z
#    x 2.217170 -0.000020 -0.080840 
#    y -0.000020 2.287870 0.000030 
#    z -0.080840 0.000030 2.247950 
# 
# From -- ./inp_files/181390.got.cif
#   From: 2010.05.17/outbox.cif.g08.bks.cpg/sg15_91_cif.got.tgz:181390.got - 2010.06.03 18:47:42.
