data_PCOD9264402
_publ_section_title
;
Structure prediction by ZEFSAII (Michael W. Deem and Ramdas Pophale) SiO2 
 PCOD9264402
Probable space group: C 2/C
;
_chemical_formula_sum "Si O2"
_cell_formula_units_Z 60
_cell_length_a 12.692772
_cell_length_b 21.241768
_cell_length_c 14.039178
_cell_angle_alpha 90.000000
_cell_angle_beta 131.849038
_cell_angle_gamma 90.000000
_cell_volume 2819.615314
_symmetry_space_group_name_H-M "C 2/C"
_symmetry_group_IT_number 15
_symmetry_cell_setting 'monoclinic'
loop_
_space_group_symop_operation_xyz
x,y,z
-x,y,1/2-z
-x,-y,-z
x,-y,1/2+z
1/2+x,1/2+y,z
1/2-x,1/2+y,1/2-z
1/2-x,1/2-y,-z
1/2+x,1/2-y,1/2+z
loop_
_atom_site_type_symbol
_atom_site_label
_atom_site_fract_x
_atom_site_fract_y
_atom_site_fract_z
Si Si1 0.172971 0.205381 0.753634
Si Si2 0.007506 0.667399 0.560336
Si Si3 0.784576 0.603094 0.519396
Si Si4 0.091024 0.650527 0.213596
Si Si5 0.589081 0.302287 0.997359
Si Si6 0.352277 0.388657 0.768475
Si Si7 0.500000 0.392808 0.250000
Si Si8 0.560113 0.497494 0.929391
O O1 0.334813 0.191282 0.826414
O O2 0.146400 0.277848 0.765220
O O3 0.074755 0.193278 0.602356
O O4 0.126952 0.154350 0.802522
O O5 0.949926 0.611857 0.594102
O O6 0.992132 0.651723 0.438134
O O7 0.908814 0.728375 0.521364
O O8 0.724879 0.656300 0.553296
O O9 0.717563 0.620248 0.375812
O O10 0.711988 0.537657 0.509200
O O11 0.229032 0.608958 0.273019
O O12 0.000000 0.631054 0.250000
O O13 0.459040 0.333815 0.863602
O O14 0.444793 0.450494 0.815283
O O15 0.454277 0.437513 0.135215
O O16 0.500000 0.500000 0.000000
#
# Coordination Sequence:
#
# PCOD9264402 Si02
#       8
#     8   8   8   8   8   8   4   8
#     4  11  23  37  56  94 127 158 197 252 313 361
#     4  10  22  36  57  88 127 158 190 249 315 362
#     4  10  20  39  60  87 116 158 204 248 300 364
#     4  10  21  38  61  87 123 162 200 245 309 381
#     4  10  19  35  58  90 121 157 196 239 307 370
#     4  10  19  39  64  86 117 152 207 255 296 361
#     4  12  22  40  62  88 120 158 206 262 300 350
#     4  11  22  39  65  86 113 159 212 256 298 360
#
# _framework density 21.279498
#
# number of rings (size 3 to 8) (size 9 to 14) (size 15 to 20)
#    0.000    1.600    3.333    3.200    0.000    3.200 
#    2.400    0.667    2.933    0.000    0.000    0.000 
#    0.000    0.000    0.000    0.000    0.000    0.000 
#
# Total GULP energy -167373.506688 kJ/mol
# GULP energy per Si atom -5579.116890 kJ/mol
# Density = 2.123106 g / cm^3
# Si number density = 21.279498 Si / 1000 Ang^3
#
#
#
# Elastic Constant Matrix: (Units=GPa)
#
#
# Indices 1 2 3 4 5 6 
#
# 1 118.7244 29.6394 -4.1092 0.0000 -3.9679 0.0000
# 2 29.6394 60.5792 -3.5864 0.0000 3.8854 0.0000
# 3 -4.1092 -3.5864 13.4236 0.0000 -7.7967 0.0000
# 4 0.0000 0.0000 0.0000 6.6461 0.0000 -11.0299
# 5 -3.9679 3.8854 -7.7967 0.0000 24.2142 0.0000
# 6 0.0000 0.0000 0.0000 -11.0299 0.0000 39.3748
#
#
#
# Elastic Compliance Matrix: (Units=1/GPa)
#
#
# Indices 1 2 3 4 5 6 
#
# 1 0.009886 -0.004843 0.003844 0.000000 0.003635 0.000000
# 2 -0.004843 0.019191 0.001716 0.000000 -0.003320 0.000000
# 3 0.003844 0.001716 0.093897 0.000000 0.030588 0.000000
# 4 0.000000 0.000000 0.000000 0.281188 0.000000 0.078768
# 5 0.003635 -0.003320 0.030588 0.000000 0.052276 0.000000
# 6 0.000000 0.000000 0.000000 0.078768 0.000000 0.047462
#
#
# Mechanical properties :
#
#
# Convention : Reuss Voigt Hill
#
# Bulk Modulus (GPa) = 8.03798 26.29056 17.16427
# Shear Modulus (GPa) = 9.19228 25.43256 17.31242
#
# Velocity S-wave (km/s) = 2.08066 3.46087 2.85541
# Velocity P-wave (km/s) = 3.09156 5.32465 4.35371
#
# Compressibility (1/GPa) = 0.12440944
#
# Stress axis : x y z
#
# Youngs Moduli (GPa) = 101.14966 52.10715 10.64996
#
# Poissons Ratio (x) = 0.25234 -0.04094
# Poissons Ratio (y) = 0.48983 -0.01828
# Poissons Ratio (z) = -0.38879 -0.08944
#
# Static dielectric constant tensor:
#      x y z
#    x 1.847790 0.000000 -0.031360 
#    y 0.000000 1.782810 0.000000 
#    z -0.031360 0.000000 1.891460 
# 
# From -- ./inp_files/148119.got.cif
#   From: 2010.05.17/outbox.cif.g08.bks.cpg/sg15_75_cif.got.tgz:148119.got - 2010.06.03 18:47:42.
