data_PCOD9264921
_publ_section_title
;
Structure prediction by ZEFSAII (Michael W. Deem and Ramdas Pophale) SiO2 
 PCOD9264921
Probable space group: C 2/C
;
_chemical_formula_sum "Si O2"
_cell_formula_units_Z 60
_cell_length_a 18.487232
_cell_length_b 19.528711
_cell_length_c 9.201204
_cell_angle_alpha 90.000000
_cell_angle_beta 63.427564
_cell_angle_gamma 90.000000
_cell_volume 2971.030638
_symmetry_space_group_name_H-M "C 2/C"
_symmetry_group_IT_number 15
_symmetry_cell_setting 'monoclinic'
loop_
_space_group_symop_operation_xyz
x,y,z
-x,y,1/2-z
-x,-y,-z
x,-y,1/2+z
1/2+x,1/2+y,z
1/2-x,1/2+y,1/2-z
1/2-x,1/2-y,-z
1/2+x,1/2-y,1/2+z
loop_
_atom_site_type_symbol
_atom_site_label
_atom_site_fract_x
_atom_site_fract_y
_atom_site_fract_z
Si Si1 0.167967 0.912018 0.498859
Si Si2 0.500000 0.808715 0.250000
Si Si3 0.295117 0.486330 0.310228
Si Si4 0.528804 0.430768 0.058929
Si Si5 0.223132 0.093086 0.398225
Si Si6 0.324171 0.164719 0.866084
Si Si7 0.931959 0.197458 0.520807
Si Si8 0.722169 0.766909 0.783279
O O1 0.156930 0.940110 0.347126
O O2 0.263688 0.898861 0.417866
O O3 0.119260 0.842457 0.559083
O O4 0.148696 0.965514 0.639912
O O5 0.581082 0.848973 0.217664
O O6 0.479293 0.759060 0.404046
O O7 0.245935 0.540106 0.254353
O O8 0.253527 0.436601 0.464765
O O9 0.500000 0.437317 0.250000
O O10 0.489364 0.360940 0.031493
O O11 0.500000 0.500000 0.000000
O O12 0.625715 0.416106 0.971553
O O13 0.250474 0.170241 0.341536
O O14 0.293182 0.214017 0.763327
O O15 0.303586 0.200520 0.038347
O O16 0.859455 0.225948 0.689047
#
# Coordination Sequence:
#
# PCOD9264921 Si02
#       8
#     8   4   8   8   8   8   8   8
#     4  10  19  36  54  78 111 134 184 226 264 324
#     4  10  20  32  56  84 106 146 176 220 286 326
#     4  10  21  33  56  82 105 146 183 222 268 330
#     4  12  25  38  53  82 122 155 183 223 279 343
#     4  11  20  36  57  80 112 149 184 222 278 326
#     4   9  17  33  53  79 106 137 183 228 267 323
#     4  10  22  34  54  81 115 140 191 225 270 329
#     4   9  18  34  55  77 104 147 186 230 266 319
#
# _framework density 20.195011999999998
#
# number of rings (size 3 to 8) (size 9 to 14) (size 15 to 20)
#    0.000    1.867    1.333    4.800    2.800    0.000 
#    0.000    7.333    0.000    0.800    0.000    0.000 
#    0.000    0.000    0.000    0.000    0.000    0.000 
#
# Total GULP energy -167263.961246 kJ/mol
# GULP energy per Si atom -5575.465375 kJ/mol
# Density = 2.014905 g / cm^3
# Si number density = 20.195012 Si / 1000 Ang^3
#
#
#
# Elastic Constant Matrix: (Units=GPa)
#
#
# Indices 1 2 3 4 5 6 
#
# 1 103.1078 29.4094 22.4951 0.0000 -25.4665 0.0000
# 2 29.4094 70.9210 16.4129 0.0000 -6.3479 0.0000
# 3 22.4951 16.4129 74.2237 0.0000 10.5616 0.0000
# 4 0.0000 0.0000 0.0000 32.8060 0.0000 -8.0137
# 5 -25.4665 -6.3479 10.5616 0.0000 25.7188 0.0000
# 6 0.0000 0.0000 0.0000 -8.0137 0.0000 33.5296
#
#
#
# Elastic Compliance Matrix: (Units=1/GPa)
#
#
# Indices 1 2 3 4 5 6 
#
# 1 0.016883 -0.003724 -0.006947 0.000000 0.018651 0.000000
# 2 -0.003724 0.016403 -0.002708 0.000000 0.001473 0.000000
# 3 -0.006947 -0.002708 0.018322 0.000000 -0.015072 0.000000
# 4 0.000000 0.000000 0.000000 0.032372 0.000000 0.007737
# 5 0.018651 0.001473 -0.015072 0.000000 0.063903 0.000000
# 6 0.000000 0.000000 0.000000 0.007737 0.000000 0.031674
#
#
# Mechanical properties :
#
#
# Convention : Reuss Voigt Hill
#
# Bulk Modulus (GPa) = 40.24287 42.76525 41.50406
# Shear Modulus (GPa) = 23.29927 30.40656 26.85292
#
# Velocity S-wave (km/s) = 3.40032 3.88448 3.65043
# Velocity P-wave (km/s) = 5.94867 6.42970 6.19385
#
# Compressibility (1/GPa) = 0.02484912
#
# Stress axis : x y z
#
# Youngs Moduli (GPa) = 59.23069 60.96441 54.57983
#
# Poissons Ratio (x) = 0.22702 0.37918
# Poissons Ratio (y) = 0.22057 0.14781
# Poissons Ratio (z) = 0.41150 0.16510
#
# Static dielectric constant tensor:
#      x y z
#    x 1.792740 0.000000 0.017600 
#    y 0.000000 1.759830 0.000000 
#    z 0.017600 0.000000 1.751870 
# 
# From -- ./inp_files/50179.got.cif
#   From: 2010.05.17/outbox.cif.g08.bks.cpg/sg15_26_cif.got.tgz:50179.got - 2010.06.03 18:47:42.
