data_PCOD9264575
_publ_section_title
;
Structure prediction by ZEFSAII (Michael W. Deem and Ramdas Pophale) SiO2 
 PCOD9264575
Probable space group: C 2/C
;
_chemical_formula_sum "Si O2"
_cell_formula_units_Z 48
_cell_length_a 30.857074
_cell_length_b 7.573107
_cell_length_c 14.770331
_cell_angle_alpha 90.000000
_cell_angle_beta 29.781704
_cell_angle_gamma 90.000000
_cell_volume 1714.393283
_symmetry_space_group_name_H-M "C 2/C"
_symmetry_group_IT_number 15
_symmetry_cell_setting 'monoclinic'
loop_
_space_group_symop_operation_xyz
x,y,z
-x,y,1/2-z
-x,-y,-z
x,-y,1/2+z
1/2+x,1/2+y,z
1/2-x,1/2+y,1/2-z
1/2-x,1/2-y,-z
1/2+x,1/2-y,1/2+z
loop_
_atom_site_type_symbol
_atom_site_label
_atom_site_fract_x
_atom_site_fract_y
_atom_site_fract_z
Si Si1 0.219497 0.762766 0.210771
Si Si2 0.534583 0.342777 0.089427
Si Si3 0.139896 0.829240 0.173477
Si Si4 0.782781 0.235085 0.287164
Si Si5 0.463327 0.914105 0.413938
Si Si6 0.863417 0.406451 0.320125
O O1 0.191042 0.872767 0.172146
O O2 0.258988 0.828646 0.234546
O O3 0.130714 0.663175 0.396426
O O4 0.296512 0.640359 0.027270
O O5 0.500000 0.398466 0.250000
O O6 0.456477 0.403215 0.165347
O O7 0.538840 0.127504 0.081662
O O8 0.634622 0.389467 0.890574
O O9 0.130519 0.617215 0.191306
O O10 0.820819 0.336606 0.305761
O O11 0.693721 0.153748 0.489939
O O12 0.500000 0.861285 0.250000
O O13 0.536307 0.847604 0.351985
#
# Coordination Sequence:
#
# PCOD9264575 Si02
#       6
#     8   8   8   8   8   8
#     4  11  21  34  57  87 115 146 184 235 281 330
#     4  10  19  35  60  87 113 144 186 233 279 329
#     4  10  22  38  58  85 114 148 188 231 280 332
#     4  11  21  34  57  87 115 146 184 235 281 330
#     4  10  19  35  60  87 113 144 186 233 279 329
#     4  10  22  38  58  85 114 148 188 231 280 332
#
# _framework density 27.998242000000001
#
# number of rings (size 3 to 8) (size 9 to 14) (size 15 to 20)
#    0.000    1.667    3.333    2.000    0.000    4.000 
#    0.000    0.000    0.000   19.000    0.000    0.000 
#    0.000    0.000    0.000    0.000    0.000    0.000 
#
# Total GULP energy -134435.896392 kJ/mol
# GULP energy per Si atom -5601.495683 kJ/mol
# Density = 2.793452 g / cm^3
# Si number density = 27.998242 Si / 1000 Ang^3
#
#
#
# Elastic Constant Matrix: (Units=GPa)
#
#
# Indices 1 2 3 4 5 6 
#
# 1 239.2362 24.1348 96.9662 -0.0005 -4.9154 -0.0001
# 2 24.1348 46.5239 20.5090 -0.0015 3.6499 -0.0006
# 3 96.9662 20.5090 225.2615 -0.0016 5.2242 -0.0003
# 4 -0.0005 -0.0015 -0.0016 40.1223 -0.0001 6.2731
# 5 -4.9154 3.6499 5.2242 -0.0001 74.3099 0.0001
# 6 -0.0001 -0.0006 -0.0003 6.2731 0.0001 25.5284
#
#
#
# Elastic Compliance Matrix: (Units=1/GPa)
#
#
# Indices 1 2 3 4 5 6 
#
# 1 0.005227 -0.001833 -0.002096 0.000000 0.000583 0.000000
# 2 -0.001833 0.023104 -0.001287 0.000001 -0.001166 0.000000
# 3 -0.002096 -0.001287 0.005470 0.000000 -0.000460 0.000000
# 4 0.000000 0.000001 0.000000 0.025920 0.000000 -0.006369
# 5 0.000583 -0.001166 -0.000460 0.000000 0.013585 0.000000
# 6 0.000000 0.000000 0.000000 -0.006369 0.000000 0.040737
#
#
# Mechanical properties :
#
#
# Convention : Reuss Voigt Hill
#
# Bulk Modulus (GPa) = 42.79612 88.24908 65.52260
# Shear Modulus (GPa) = 37.80284 52.61956 45.21120
#
# Velocity S-wave (km/s) = 3.67847 4.33989 4.02280
# Velocity P-wave (km/s) = 5.77581 7.53000 6.71047
#
# Compressibility (1/GPa) = 0.02336660
#
# Stress axis : x y z
#
# Youngs Moduli (GPa) = 191.32888 43.28220 182.82773
#
# Poissons Ratio (x) = 0.07933 0.38330
# Poissons Ratio (y) = 0.35069 0.23539
# Poissons Ratio (z) = 0.40112 0.05573
#
# Static dielectric constant tensor:
#      x y z
#    x 2.142600 0.000000 -0.007940 
#    y 0.000000 2.244860 0.000000 
#    z -0.007940 0.000000 2.171450 
# 
# From -- ./inp_files/143754.got.cif
#   From: 2010.05.17/outbox.cif.g08.bks.cpg/sg15_72_cif.got.tgz:143754.got - 2010.06.03 18:47:42.
