data_PCOD9264273
_publ_section_title
;
Structure prediction by ZEFSAII (Michael W. Deem and Ramdas Pophale) SiO2 
 PCOD9264273
Probable space group: C 2/C
;
_chemical_formula_sum "Si O2"
_cell_formula_units_Z 52
_cell_length_a 32.546145
_cell_length_b 16.552423
_cell_length_c 17.358448
_cell_angle_alpha 90.000000
_cell_angle_beta 15.376608
_cell_angle_gamma 90.000000
_cell_volume 2479.614156
_symmetry_space_group_name_H-M "C 2/C"
_symmetry_group_IT_number 15
_symmetry_cell_setting 'monoclinic'
loop_
_space_group_symop_operation_xyz
x,y,z
-x,y,1/2-z
-x,-y,-z
x,-y,1/2+z
1/2+x,1/2+y,z
1/2-x,1/2+y,1/2-z
1/2-x,1/2-y,-z
1/2+x,1/2-y,1/2+z
loop_
_atom_site_type_symbol
_atom_site_label
_atom_site_fract_x
_atom_site_fract_y
_atom_site_fract_z
Si Si1 0.651789 0.612645 0.587926
Si Si2 0.495128 0.142220 0.970490
Si Si3 0.406398 0.959954 0.347123
Si Si4 0.498159 0.861358 0.871389
Si Si5 0.942288 0.983129 0.016647
Si Si6 0.635038 0.320028 0.287457
Si Si7 0.000000 0.765361 0.250000
O O1 0.832498 0.593709 0.269023
O O2 0.599567 0.656435 0.762311
O O3 0.614942 0.673946 0.586038
O O4 0.557198 0.530219 0.753482
O O5 0.568912 0.139858 0.921606
O O6 0.436270 0.233669 0.065112
O O7 0.589341 0.100678 0.732614
O O8 0.500000 0.924627 0.250000
O O9 0.228856 0.981073 0.685357
O O10 0.489078 0.046079 0.178644
O O11 0.677810 0.829156 0.549115
O O12 0.421475 0.797329 0.952054
O O13 0.930680 0.887040 0.036070
O O14 0.000000 0.000000 0.000000
#
# Coordination Sequence:
#
# PCOD9264273 Si02
#       7
#     8   8   8   8   8   8   4
#     4  10  20  34  62  87 109 150 201 244 283 347
#     4  11  20  38  63  87 112 154 205 239 286 355
#     4  11  24  37  59  89 124 154 191 252 303 340
#     4  10  19  35  57  86 114 152 197 245 288 344
#     4   9  21  40  60  80 121 160 189 229 310 363
#     4   9  17  37  59  81 112 157 192 230 292 359
#     4  12  18  30  60  92 114 138 210 256 274 330
#
# _framework density 20.971005000000002
#
# number of rings (size 3 to 8) (size 9 to 14) (size 15 to 20)
#    0.000    1.846    3.846    2.308    2.154    0.000 
#    0.000    3.077    5.077    0.000    0.000    0.000 
#    0.000    0.000    0.000    0.000    0.000    0.000 
#
# Total GULP energy -145095.011455 kJ/mol
# GULP energy per Si atom -5580.577364 kJ/mol
# Density = 2.092327 g / cm^3
# Si number density = 20.971005 Si / 1000 Ang^3
#
#
#
# Elastic Constant Matrix: (Units=GPa)
#
#
# Indices 1 2 3 4 5 6 
#
# 1 93.0988 5.3868 1.2671 -0.0001 7.2028 -0.0001
# 2 5.3868 71.1758 19.5081 -0.0004 14.9868 0.0002
# 3 1.2671 19.5081 27.2517 -0.0007 -0.4830 0.0002
# 4 -0.0001 -0.0004 -0.0007 19.5164 -0.0003 3.5679
# 5 7.2028 14.9868 -0.4830 -0.0003 18.2423 0.0003
# 6 -0.0001 0.0002 0.0002 3.5679 0.0003 30.1073
#
#
#
# Elastic Compliance Matrix: (Units=1/GPa)
#
#
# Indices 1 2 3 4 5 6 
#
# 1 0.011096 0.000400 -0.000886 0.000000 -0.004733 0.000000
# 2 0.000400 0.022579 -0.016521 0.000000 -0.019144 0.000000
# 3 -0.000886 -0.016521 0.048832 0.000002 0.015215 -0.000001
# 4 0.000000 0.000000 0.000002 0.052374 0.000001 -0.006207
# 5 -0.004733 -0.019144 0.015215 0.000001 0.072817 -0.000001
# 6 0.000000 0.000000 -0.000001 -0.006207 -0.000001 0.033950
#
#
# Mechanical properties :
#
#
# Convention : Reuss Voigt Hill
#
# Bulk Modulus (GPa) = 20.62152 27.09448 23.85800
# Shear Modulus (GPa) = 17.13345 24.59747 20.86546
#
# Velocity S-wave (km/s) = 2.86143 3.42852 3.15773
# Velocity P-wave (km/s) = 4.55761 5.34986 4.96955
#
# Compressibility (1/GPa) = 0.04849302
#
# Stress axis : x y z
#
# Youngs Moduli (GPa) = 90.11928 44.28969 20.47831
#
# Poissons Ratio (x) = -0.01770 0.01814
# Poissons Ratio (y) = -0.03601 0.33832
# Poissons Ratio (z) = 0.07984 0.73170
#
# Static dielectric constant tensor:
#      x y z
#    x 1.843570 0.000000 0.014120 
#    y 0.000000 1.787820 0.000000 
#    z 0.014120 0.000000 1.748750 
# 
# From -- ./inp_files/182814.got.cif
#   From: 2010.05.17/outbox.cif.g08.bks.cpg/sg15_92_cif.got.tgz:182814.got - 2010.06.03 18:47:42.
