data_PCOD9264130
_publ_section_title
;
Structure prediction by ZEFSAII (Michael W. Deem and Ramdas Pophale) SiO2 
 PCOD9264130
Probable space group: C 2/C
;
_chemical_formula_sum "Si O2"
_cell_formula_units_Z 48
_cell_length_a 14.758883
_cell_length_b 9.192752
_cell_length_c 21.071137
_cell_angle_alpha 90.000000
_cell_angle_beta 113.535085
_cell_angle_gamma 90.000000
_cell_volume 2621.012307
_symmetry_space_group_name_H-M "C 2/C"
_symmetry_group_IT_number 15
_symmetry_cell_setting 'monoclinic'
loop_
_space_group_symop_operation_xyz
x,y,z
-x,y,1/2-z
-x,-y,-z
x,-y,1/2+z
1/2+x,1/2+y,z
1/2-x,1/2+y,1/2-z
1/2-x,1/2-y,-z
1/2+x,1/2-y,1/2+z
loop_
_atom_site_type_symbol
_atom_site_label
_atom_site_fract_x
_atom_site_fract_y
_atom_site_fract_z
Si Si1 0.637240 0.597942 0.567704
Si Si2 0.158099 0.645128 0.992391
Si Si3 0.698090 0.399530 0.466806
Si Si4 0.507181 0.593831 0.654437
Si Si5 0.000000 0.342776 0.750000
Si Si6 0.500000 0.340743 0.750000
Si Si7 0.867286 0.404827 0.156483
O O1 0.603669 0.751687 0.526570
O O2 0.649370 0.478269 0.515196
O O3 0.563892 0.572593 0.604616
O O4 0.748978 0.603373 0.626188
O O5 0.213440 0.503184 0.033194
O O6 0.250000 0.750000 0.000000
O O7 0.106386 0.606316 0.911550
O O8 0.750000 0.250000 0.500000
O O9 0.609470 0.386987 0.392463
O O10 0.536889 0.734650 0.704479
O O11 0.524779 0.449076 0.699890
O O12 0.084822 0.450190 0.800710
O O13 0.587230 0.233948 0.795757
#
# Coordination Sequence:
#
# PCOD9264130 Si02
#       7
#     8   8   8   8   4   4   8
#     4  10  20  34  56  79 105 131 173 226 257 302
#     4   8  16  33  56  74  99 133 167 212 259 305
#     4  10  19  35  56  76 103 135 169 213 263 310
#     4  11  21  34  52  81 105 135 177 214 260 303
#     4  10  22  36  52  70 110 146 168 206 252 326
#     4  10  20  34  56  72 106 148 176 208 250 326
#     4   9  18  37  54  74 100 142 177 203 264 311
#
# _framework density 18.313535000000002
#
# number of rings (size 3 to 8) (size 9 to 14) (size 15 to 20)
#    0.000    2.667    0.000    5.500    0.000    1.333 
#    0.000    6.667    0.000    0.000    0.000    0.000 
#    0.000    0.000    0.000    0.000    0.000    0.000 
#
# Total GULP energy -133683.471628 kJ/mol
# GULP energy per Si atom -5570.144651 kJ/mol
# Density = 1.827185 g / cm^3
# Si number density = 18.313535 Si / 1000 Ang^3
#
#
#
# Elastic Constant Matrix: (Units=GPa)
#
#
# Indices 1 2 3 4 5 6 
#
# 1 39.4182 26.2626 34.4203 0.0000 -1.5736 0.0000
# 2 26.2626 127.7916 44.3669 0.0000 1.6930 0.0000
# 3 34.4203 44.3669 101.7074 0.0000 13.0077 0.0000
# 4 0.0000 0.0000 0.0000 38.0252 0.0000 5.5585
# 5 -1.5736 1.6930 13.0077 0.0000 36.6817 0.0000
# 6 0.0000 0.0000 0.0000 5.5585 0.0000 2.2530
#
#
#
# Elastic Compliance Matrix: (Units=1/GPa)
#
#
# Indices 1 2 3 4 5 6 
#
# 1 0.038887 -0.003806 -0.012294 0.000000 0.006203 0.000000
# 2 -0.003806 0.009633 -0.002971 0.000000 0.000446 0.000000
# 3 -0.012294 -0.002971 0.016067 0.000000 -0.006088 0.000000
# 4 0.000000 0.000000 0.000000 0.041133 0.000000 -0.101485
# 5 0.006203 0.000446 -0.006088 0.000000 0.029666 0.000000
# 6 0.000000 0.000000 0.000000 -0.101485 0.000000 0.694244
#
#
# Mechanical properties :
#
#
# Convention : Reuss Voigt Hill
#
# Bulk Modulus (GPa) = 37.81240 53.22407 45.51823
# Shear Modulus (GPa) = 5.70394 26.31647 16.01020
#
# Velocity S-wave (km/s) = 1.76674 3.79488 2.95994
# Velocity P-wave (km/s) = 4.98537 6.95179 6.04902
#
# Compressibility (1/GPa) = 0.02644635
#
# Stress axis : x y z
#
# Youngs Moduli (GPa) = 25.71545 103.80985 62.23854
#
# Poissons Ratio (x) = 0.39508 0.76513
# Poissons Ratio (y) = 0.09787 0.18492
# Poissons Ratio (z) = 0.31613 0.30843
#
# Static dielectric constant tensor:
#      x y z
#    x 1.627600 0.000000 -0.009150 
#    y 0.000000 1.658170 0.000000 
#    z -0.009150 0.000000 1.656340 
# 
# From -- ./inp_files/242354.got.cif
#   From: 2010.05.17/outbox.cif.g08.bks.cpg/sg15_122_cif.got.tgz:242354.got - 2010.06.03 18:47:42.
