data_PCOD9264638
_publ_section_title
;
Structure prediction by ZEFSAII (Michael W. Deem and Ramdas Pophale) SiO2 
 PCOD9264638
Probable space group: C 2/C
;
_chemical_formula_sum "Si O2"
_cell_formula_units_Z 60
_cell_length_a 11.353629
_cell_length_b 16.378621
_cell_length_c 23.665022
_cell_angle_alpha 90.000000
_cell_angle_beta 137.429566
_cell_angle_gamma 90.000000
_cell_volume 2977.036784
_symmetry_space_group_name_H-M "C 2/C"
_symmetry_group_IT_number 15
_symmetry_cell_setting 'monoclinic'
loop_
_space_group_symop_operation_xyz
x,y,z
-x,y,1/2-z
-x,-y,-z
x,-y,1/2+z
1/2+x,1/2+y,z
1/2-x,1/2+y,1/2-z
1/2-x,1/2-y,-z
1/2+x,1/2-y,1/2+z
loop_
_atom_site_type_symbol
_atom_site_label
_atom_site_fract_x
_atom_site_fract_y
_atom_site_fract_z
Si Si1 0.000000 0.189452 0.250000
Si Si2 0.634582 0.915965 0.349509
Si Si3 0.961423 0.712404 0.852156
Si Si4 0.485325 0.449644 0.414976
Si Si5 0.705003 0.089151 0.190899
Si Si6 0.133937 0.868025 0.628722
Si Si7 0.350052 0.588852 0.743356
Si Si8 0.660603 0.903418 0.902907
O O1 0.976631 0.243053 0.297099
O O2 0.829602 0.132813 0.189734
O O3 0.500000 0.901458 0.250000
O O4 0.598885 0.859789 0.391094
O O5 0.828584 0.908197 0.394430
O O6 0.607683 0.009261 0.357770
O O7 0.977119 0.785977 0.901955
O O8 0.777584 0.666380 0.796320
O O9 0.467661 0.547396 0.419875
O O10 0.443986 0.429935 0.335777
O O11 0.671170 0.417492 0.499324
O O12 0.773936 0.111822 0.278544
O O13 0.508225 0.121540 0.121565
O O14 0.733031 0.992470 0.191499
O O15 0.274146 0.853670 0.628633
O O16 0.500000 0.598553 0.750000
#
# Coordination Sequence:
#
# PCOD9264638 Si02
#       8
#     4   8   8   8   8   8   8   8
#     4  10  20  34  58  90 114 150 202 254 284 338
#     4  11  17  34  63  89 116 161 208 242 286 356
#     4  11  20  35  62  90 115 149 205 251 299 336
#     4  10  21  38  59  91 121 159 199 244 297 362
#     4  10  19  35  61  84 118 156 204 239 288 349
#     4   9  20  34  58  94 116 153 205 251 283 341
#     4  11  21  38  63  87 115 153 201 252 291 356
#     4  11  20  36  61  88 124 159 198 244 298 358
#
# _framework density 20.15427
#
# number of rings (size 3 to 8) (size 9 to 14) (size 15 to 20)
#    0.000    1.600    4.000    3.600    0.000    2.133 
#    0.000    3.333    0.000   11.200    0.000    0.000 
#    0.000    0.000    0.000    0.000    0.000    0.000 
#
# Total GULP energy -167353.842767 kJ/mol
# GULP energy per Si atom -5578.461426 kJ/mol
# Density = 2.010840 g / cm^3
# Si number density = 20.154270 Si / 1000 Ang^3
#
#
#
# Elastic Constant Matrix: (Units=GPa)
#
#
# Indices 1 2 3 4 5 6 
#
# 1 166.2402 38.1783 22.6531 0.0000 19.2928 0.0000
# 2 38.1783 54.2825 2.4964 0.0000 -5.5402 0.0000
# 3 22.6531 2.4964 50.8016 0.0000 15.6261 0.0000
# 4 0.0000 0.0000 0.0000 -8.4022 0.0000 -5.1170
# 5 19.2928 -5.5402 15.6261 0.0000 16.1812 0.0000
# 6 0.0000 0.0000 0.0000 -5.1170 0.0000 49.0723
#
#
#
# Elastic Compliance Matrix: (Units=1/GPa)
#
#
# Indices 1 2 3 4 5 6 
#
# 1 0.009547 -0.008273 0.000742 0.000000 -0.014933 0.000000
# 2 -0.008273 0.026908 -0.004980 0.000000 0.023886 0.000000
# 3 0.000742 -0.004980 0.029013 0.000000 -0.030608 0.000000
# 4 0.000000 0.000000 0.000000 -0.111909 0.000000 -0.011669
# 5 -0.014933 0.023886 -0.030608 0.000000 0.117340 0.000000
# 6 0.000000 0.000000 0.000000 -0.011669 0.000000 0.019161
#
#
# Mechanical properties :
#
#
# Convention : Reuss Voigt Hill
#
# Bulk Modulus (GPa) = 24.72440 44.21999 34.47220
# Shear Modulus (GPa) = 38.89149 25.23671 32.06410
#
# Velocity S-wave (km/s) = 4.39759 3.54245 3.99298
# Velocity P-wave (km/s) = 6.17084 6.22257 6.19676
#
# Compressibility (1/GPa) = 0.04044588
#
# Stress axis : x y z
#
# Youngs Moduli (GPa) = 104.74338 37.16418 34.46758
#
# Poissons Ratio (x) = 0.30746 -0.02559
# Poissons Ratio (y) = 0.86654 0.17166
# Poissons Ratio (z) = -0.07776 0.18509
#
# Static dielectric constant tensor:
#      x y z
#    x 1.732140 0.000000 0.043840 
#    y 0.000000 1.779370 0.000000 
#    z 0.043840 0.000000 1.648250 
# 
# From -- ./inp_files/293372.got.cif
#   From: 2010.05.17/outbox.cif.g08.bks.cpg/sg15_147_cif.got.tgz:293372.got - 2010.06.03 18:47:42.
