data_PCOD9264874
_publ_section_title
;
Structure prediction by ZEFSAII (Michael W. Deem and Ramdas Pophale) SiO2 
 PCOD9264874
Probable space group: C 2/C
;
_chemical_formula_sum "Si O2"
_cell_formula_units_Z 60
_cell_length_a 16.675792
_cell_length_b 23.876772
_cell_length_c 13.249993
_cell_angle_alpha 90.000000
_cell_angle_beta 30.072857
_cell_angle_gamma 90.000000
_cell_volume 2643.643270
_symmetry_space_group_name_H-M "C 2/C"
_symmetry_group_IT_number 15
_symmetry_cell_setting 'monoclinic'
loop_
_space_group_symop_operation_xyz
x,y,z
-x,y,1/2-z
-x,-y,-z
x,-y,1/2+z
1/2+x,1/2+y,z
1/2-x,1/2+y,1/2-z
1/2-x,1/2-y,-z
1/2+x,1/2-y,1/2+z
loop_
_atom_site_type_symbol
_atom_site_label
_atom_site_fract_x
_atom_site_fract_y
_atom_site_fract_z
Si Si1 0.626207 0.479481 0.279454
Si Si2 0.397833 0.913606 0.101357
Si Si3 0.911415 0.879491 0.477463
Si Si4 0.311140 0.917873 0.590983
Si Si5 0.108094 0.666562 0.229491
Si Si6 0.220639 0.302370 0.179892
Si Si7 0.000000 0.328578 0.250000
Si Si8 0.039308 0.768774 0.433321
O O1 0.500000 0.500000 0.500000
O O2 0.771660 0.450144 0.179573
O O3 0.525546 0.432145 0.331760
O O4 0.709128 0.535115 0.142491
O O5 0.301338 0.868145 0.272758
O O6 0.529688 0.943039 0.028538
O O7 0.501483 0.876715 0.910592
O O8 0.803364 0.894469 0.695146
O O9 0.782419 0.862199 0.532800
O O10 0.012478 0.825367 0.400865
O O11 0.387848 0.867699 0.443018
O O12 0.135111 0.723859 0.261754
O O13 0.000000 0.678309 0.250000
O O14 0.130324 0.294991 0.173015
O O15 0.394091 0.284624 0.028002
O O16 0.119059 0.266113 0.370174
#
# Coordination Sequence:
#
# PCOD9264874 Si02
#       8
#     8   8   8   8   8   8   4   8
#     4  10  19  35  67  91 112 162 213 255 307 367
#     4   9  18  37  61  87 118 162 202 251 301 379
#     4  10  20  38  62  89 123 158 211 262 304 372
#     4   9  20  38  63  89 119 166 213 246 312 368
#     4  10  22  39  61  89 121 165 202 247 321 381
#     4  10  21  36  62  87 124 165 203 246 312 365
#     4  10  22  40  60  94 132 162 210 264 300 370
#     4  11  20  38  61  88 122 164 208 248 305 386
#
# _framework density 22.695951999999998
#
# number of rings (size 3 to 8) (size 9 to 14) (size 15 to 20)
#    0.000    2.133    2.667    1.200    0.000    1.067 
#    1.200    0.667    5.867    0.000    0.000    0.000 
#    0.000    0.000    0.000    0.000    0.000    0.000 
#
# Total GULP energy -167275.276000 kJ/mol
# GULP energy per Si atom -5575.842533 kJ/mol
# Density = 2.264429 g / cm^3
# Si number density = 22.695952 Si / 1000 Ang^3
#
#
#
# Elastic Constant Matrix: (Units=GPa)
#
#
# Indices 1 2 3 4 5 6 
#
# 1 139.7964 43.3717 28.2582 0.0030 -25.3550 0.0003
# 2 43.3717 101.3551 40.4508 0.0034 -21.7818 -0.0013
# 3 28.2582 40.4508 60.7801 0.0115 -15.0276 0.0007
# 4 0.0030 0.0034 0.0115 21.7978 -0.0076 -13.6175
# 5 -25.3550 -21.7818 -15.0276 -0.0076 30.3764 0.0006
# 6 0.0003 -0.0013 0.0007 -13.6175 0.0006 28.4584
#
#
#
# Elastic Compliance Matrix: (Units=1/GPa)
#
#
# Indices 1 2 3 4 5 6 
#
# 1 0.009083 -0.002158 -0.001475 0.000002 0.005304 0.000001
# 2 -0.002158 0.014958 -0.007685 0.000006 0.005122 0.000004
# 3 -0.001475 -0.007685 0.023455 -0.000014 0.004862 -0.000008
# 4 0.000002 0.000006 -0.000014 0.065437 0.000015 0.031312
# 5 0.005304 0.005122 0.004862 0.000015 0.043426 0.000006
# 6 0.000001 0.000004 -0.000008 0.031312 0.000006 0.050122
#
#
# Mechanical properties :
#
#
# Convention : Reuss Voigt Hill
#
# Bulk Modulus (GPa) = 40.22611 58.45478 49.34045
# Shear Modulus (GPa) = 21.06114 28.78324 24.92219
#
# Velocity S-wave (km/s) = 3.04956 3.56506 3.31734
# Velocity P-wave (km/s) = 5.49201 6.53894 6.03821
#
# Compressibility (1/GPa) = 0.02485948
#
# Stress axis : x y z
#
# Youngs Moduli (GPa) = 110.09512 66.85527 42.63456
#
# Poissons Ratio (x) = 0.14428 0.06289
# Poissons Ratio (y) = 0.23760 0.32764
# Poissons Ratio (z) = 0.16241 0.51377
#
# Static dielectric constant tensor:
#      x y z
#    x 1.856610 -0.000010 -0.013880 
#    y -0.000010 1.842320 0.000020 
#    z -0.013880 0.000020 1.847590 
# 
# From -- ./inp_files/164086.got.cif
#   From: 2010.05.17/outbox.cif.g08.bks.cpg/sg15_83_cif.got.tgz:164086.got - 2010.06.03 18:47:42.
