data_PCOD9264643
_publ_section_title
;
Structure prediction by ZEFSAII (Michael W. Deem and Ramdas Pophale) SiO2 
 PCOD9264643
Probable space group: C 2/C
;
_chemical_formula_sum "Si O2"
_cell_formula_units_Z 32
_cell_length_a 8.332630
_cell_length_b 15.287645
_cell_length_c 19.652869
_cell_angle_alpha 90.000000
_cell_angle_beta 147.795146
_cell_angle_gamma 90.000000
_cell_volume 1334.238451
_symmetry_space_group_name_H-M "C 2/C"
_symmetry_group_IT_number 15
_symmetry_cell_setting 'monoclinic'
loop_
_space_group_symop_operation_xyz
x,y,z
-x,y,1/2-z
-x,-y,-z
x,-y,1/2+z
1/2+x,1/2+y,z
1/2-x,1/2+y,1/2-z
1/2-x,1/2-y,-z
1/2+x,1/2-y,1/2+z
loop_
_atom_site_type_symbol
_atom_site_label
_atom_site_fract_x
_atom_site_fract_y
_atom_site_fract_z
Si Si1 0.438991 0.467415 0.808163
Si Si2 0.898969 0.653980 0.135750
Si Si3 0.598252 0.341651 0.205521
Si Si4 0.278996 0.654651 0.977122
O O1 0.500000 0.461049 0.750000
O O2 0.524426 0.565312 0.863232
O O3 0.630662 0.405950 0.926839
O O4 0.094247 0.430662 0.686381
O O5 0.540708 0.646828 0.014729
O O6 0.000000 0.664410 0.250000
O O7 0.004854 0.747253 0.142013
O O8 0.500000 0.339602 0.250000
O O9 0.953193 0.358352 0.328925
O O10 0.250000 0.750000 0.000000
#
# Coordination Sequence:
#
# PCOD9264643 Si02
#       4
#     8   8   8   8
#     4  10  22  36  58  91 121 141 198 251 278 333
#     4   9  18  37  60  80 115 156 194 226 284 357
#     4  10  19  35  61  86 113 156 198 229 288 349
#     4  11  19  39  67  78 114 167 193 222 298 357
#
# _framework density 23.983719000000001
#
# number of rings (size 3 to 8) (size 9 to 14) (size 15 to 20)
#    0.000    2.000    7.500    0.000    0.000    5.000 
#    0.000    5.000    0.000    0.000    0.000    0.000 
#    0.000    0.000    0.000    0.000    0.000    0.000 
#
# Total GULP energy -89251.311248 kJ/mol
# GULP energy per Si atom -5578.206953 kJ/mol
# Density = 2.392913 g / cm^3
# Si number density = 23.983719 Si / 1000 Ang^3
#
#
#
# Elastic Constant Matrix: (Units=GPa)
#
#
# Indices 1 2 3 4 5 6 
#
# 1 69.9735 -2.9576 14.6626 -0.0010 12.3535 0.0005
# 2 -2.9576 69.1022 -59.6553 -0.0011 -9.2179 0.0003
# 3 14.6626 -59.6553 63.9916 -0.0063 15.5229 -0.0013
# 4 -0.0010 -0.0011 -0.0063 28.7503 0.0009 -11.0306
# 5 12.3535 -9.2179 15.5229 0.0009 41.4822 0.0000
# 6 0.0005 0.0003 -0.0013 -11.0306 0.0000 32.6450
#
#
#
# Elastic Compliance Matrix: (Units=1/GPa)
#
#
# Indices 1 2 3 4 5 6 
#
# 1 0.017389 -0.012930 -0.015491 -0.000004 -0.002255 -0.000002
# 2 -0.012930 0.087997 0.087239 0.000027 -0.009240 0.000012
# 3 -0.015491 0.087239 0.104135 0.000032 -0.014969 0.000014
# 4 -0.000004 0.000027 0.000032 0.039963 -0.000006 0.013503
# 5 -0.002255 -0.009240 -0.014969 -0.000006 0.028326 -0.000002
# 6 -0.000002 0.000012 0.000014 0.013503 -0.000002 0.035195
#
#
# Mechanical properties :
#
#
# Convention : Reuss Voigt Hill
#
# Bulk Modulus (GPa) = 3.05664 11.90743 7.48203
# Shear Modulus (GPa) = 16.42458 37.30999 26.86729
#
# Velocity S-wave (km/s) = 2.61975 3.94844 3.35062
# Velocity P-wave (km/s) = 3.22924 5.07567 4.25385
#
# Compressibility (1/GPa) = 0.32715669
#
# Stress axis : x y z
#
# Youngs Moduli (GPa) = 57.50848 11.36397 9.60296
#
# Poissons Ratio (x) = 0.14693 0.14876
# Poissons Ratio (y) = 0.74357 -0.83775
# Poissons Ratio (z) = 0.89086 -0.99138
#
# Static dielectric constant tensor:
#      x y z
#    x 1.930900 0.000000 0.077280 
#    y 0.000000 2.005870 0.000000 
#    z 0.077280 0.000000 1.644880 
# 
# From -- ./inp_files/75355.got.cif
#   From: 2010.05.17/outbox.cif.g08.bks.cpg/sg15_38_cif.got.tgz:75355.got - 2010.06.03 18:47:42.
