data_PCOD9264464
_publ_section_title
;
Structure prediction by ZEFSAII (Michael W. Deem and Ramdas Pophale) SiO2 
 PCOD9264464
Probable space group: C 2/C
;
_chemical_formula_sum "Si O2"
_cell_formula_units_Z 36
_cell_length_a 14.426481
_cell_length_b 10.332740
_cell_length_c 9.609422
_cell_angle_alpha 90.000000
_cell_angle_beta 106.778416
_cell_angle_gamma 90.000000
_cell_volume 1371.448302
_symmetry_space_group_name_H-M "C 2/C"
_symmetry_group_IT_number 15
_symmetry_cell_setting 'monoclinic'
loop_
_space_group_symop_operation_xyz
x,y,z
-x,y,1/2-z
-x,-y,-z
x,-y,1/2+z
1/2+x,1/2+y,z
1/2-x,1/2+y,1/2-z
1/2-x,1/2-y,-z
1/2+x,1/2-y,1/2+z
loop_
_atom_site_type_symbol
_atom_site_label
_atom_site_fract_x
_atom_site_fract_y
_atom_site_fract_z
Si Si1 0.509121 0.749608 0.487588
Si Si2 0.623245 0.399356 0.398847
Si Si3 0.500000 0.932963 0.750000
Si Si4 0.141091 0.175294 0.306141
Si Si5 0.301153 0.123241 0.180844
O O1 0.476895 0.628211 0.566482
O O2 0.507933 0.863671 0.599964
O O3 0.604000 0.729160 0.437035
O O4 0.420805 0.751791 0.337768
O O5 0.613503 0.523842 0.300823
O O6 0.652395 0.261130 0.344703
O O7 0.712834 0.420127 0.544190
O O8 0.611678 0.979672 0.798819
O O9 0.250978 0.161001 0.304018
#
# Coordination Sequence:
#
# PCOD9264464 Si02
#       5
#     8   8   4   8   8
#     4   9  20  34  56  87 111 133 175 237 294 328
#     4   9  18  35  56  80 114 147 177 225 286 334
#     4  10  20  38  56  78 118 156 180 218 280 336
#     4  10  19  35  59  85 108 142 190 233 272 326
#     4   9  20  35  53  78 112 150 183 220 275 332
#
# _framework density 26.249621000000001
#
# number of rings (size 3 to 8) (size 9 to 14) (size 15 to 20)
#    0.000    2.667    0.000    2.000    0.000   15.111 
#    0.000    1.111    0.000    8.000    0.000    0.000 
#    0.000    0.000    0.000    0.000    0.000    0.000 
#
# Total GULP energy -100339.651679 kJ/mol
# GULP energy per Si atom -5574.425093 kJ/mol
# Density = 2.618988 g / cm^3
# Si number density = 26.249621 Si / 1000 Ang^3
#
#
#
# Elastic Constant Matrix: (Units=GPa)
#
#
# Indices 1 2 3 4 5 6 
#
# 1 179.1035 -4.1789 61.7965 0.0000 -31.2663 0.0000
# 2 -4.1789 74.0708 53.4112 0.0000 2.9892 0.0000
# 3 61.7965 53.4112 110.2465 0.0000 -11.4391 0.0000
# 4 0.0000 0.0000 0.0000 5.2847 0.0000 -3.7770
# 5 -31.2663 2.9892 -11.4391 0.0000 67.6589 0.0000
# 6 0.0000 0.0000 0.0000 -3.7770 0.0000 1.7836
#
#
#
# Elastic Compliance Matrix: (Units=1/GPa)
#
#
# Indices 1 2 3 4 5 6 
#
# 1 0.008706 0.005717 -0.007388 0.000000 0.002522 0.000000
# 2 0.005717 0.024985 -0.015420 0.000000 -0.001069 0.000000
# 3 -0.007388 -0.015420 0.020763 0.000000 0.000778 0.000000
# 4 0.000000 0.000000 0.000000 -0.368479 0.000000 -0.780325
# 5 0.002522 -0.001069 0.000778 0.000000 0.016124 0.000000
# 6 0.000000 0.000000 0.000000 -0.780325 0.000000 -1.091806
#
#
# Mechanical properties :
#
#
# Convention : Reuss Voigt Hill
#
# Bulk Modulus (GPa) = 49.32937 65.05315 57.19126
# Shear Modulus (GPa) = -3.70709 31.77156 14.03223
#
# Velocity S-wave (km/s) = -1.18967 3.48280 2.31458
# Velocity P-wave (km/s) = 4.11657 6.40387 5.38311
#
# Compressibility (1/GPa) = 0.02027190
#
# Stress axis : x y z
#
# Youngs Moduli (GPa) = 114.86318 40.02346 48.16269
#
# Poissons Ratio (x) = -0.22880 0.35582
# Poissons Ratio (y) = -0.65664 0.74267
# Poissons Ratio (z) = 0.84860 0.61716
#
# Static dielectric constant tensor:
#      x y z
#    x 2.104460 0.000000 0.027790 
#    y 0.000000 2.080030 0.000000 
#    z 0.027790 0.000000 2.104920 
# 
# From -- ./inp_files/37600.got.cif
#   From: 2010.05.17/outbox.cif.g08.bks.cpg/sg15_19_cif.got.tgz:37600.got - 2010.06.03 18:47:42.
