data_PCOD9264032
_publ_section_title
;
Structure prediction by ZEFSAII (Michael W. Deem and Ramdas Pophale) SiO2 
 PCOD9264032
Probable space group: C 2/C
;
_chemical_formula_sum "Si O2"
_cell_formula_units_Z 44
_cell_length_a 16.662334
_cell_length_b 7.085541
_cell_length_c 12.624876
_cell_angle_alpha 90.000000
_cell_angle_beta 85.751462
_cell_angle_gamma 90.000000
_cell_volume 1486.417882
_symmetry_space_group_name_H-M "C 2/C"
_symmetry_group_IT_number 15
_symmetry_cell_setting 'monoclinic'
loop_
_space_group_symop_operation_xyz
x,y,z
-x,y,1/2-z
-x,-y,-z
x,-y,1/2+z
1/2+x,1/2+y,z
1/2-x,1/2+y,1/2-z
1/2-x,1/2-y,-z
1/2+x,1/2-y,1/2+z
loop_
_atom_site_type_symbol
_atom_site_label
_atom_site_fract_x
_atom_site_fract_y
_atom_site_fract_z
Si Si1 0.095715 0.210118 0.809316
Si Si2 0.500000 0.341733 0.750000
Si Si3 0.227546 0.378751 0.148018
Si Si4 0.079164 0.761752 0.539626
Si Si5 0.123276 0.819636 0.079000
Si Si6 0.796178 0.698258 0.624023
O O1 0.189261 0.228218 0.833514
O O2 0.089254 0.278733 0.688318
O O3 0.067706 0.991853 0.787746
O O4 0.054954 0.283168 0.921563
O O5 0.524447 0.219510 0.646349
O O6 0.178056 0.361137 0.262688
O O7 0.262976 0.586613 0.127292
O O8 0.331868 0.189884 0.936990
O O9 0.080454 0.991222 0.545549
O O10 0.211529 0.901086 0.105848
O O11 0.139767 0.690077 0.976040
#
# Coordination Sequence:
#
# PCOD9264032 Si02
#       6
#     8   4   8   8   8   8
#     4  10  20  36  57  91 120 162 207 260 311 367
#     4  10  22  38  60  90 134 166 208 256 320 380
#     4  11  21  36  63  91 128 161 211 266 311 370
#     4  11  21  37  61  92 123 166 210 264 316 372
#     4   9  20  34  55  86 127 157 202 256 314 360
#     4  10  19  35  53  90 127 161 199 255 324 367
#
# _framework density 29.601365999999999
#
# number of rings (size 3 to 8) (size 9 to 14) (size 15 to 20)
#    0.000    1.818    1.818    4.364    0.000    0.000 
#    3.273    0.000    0.000    9.818    0.000   17.818 
#    0.000    0.000    0.000    0.000    0.000    0.000 
#
# Total GULP energy -123169.876763 kJ/mol
# GULP energy per Si atom -5598.630762 kJ/mol
# Density = 2.953399 g / cm^3
# Si number density = 29.601366 Si / 1000 Ang^3
#
#
#
# Elastic Constant Matrix: (Units=GPa)
#
#
# Indices 1 2 3 4 5 6 
#
# 1 158.4106 28.8552 69.2550 0.0000 42.5762 0.0000
# 2 28.8552 86.4274 36.6052 0.0000 14.3802 0.0000
# 3 69.2550 36.6052 355.6309 0.0000 14.7138 0.0000
# 4 0.0000 0.0000 0.0000 23.0176 0.0000 10.1752
# 5 42.5762 14.3802 14.7138 0.0000 59.1585 0.0000
# 6 0.0000 0.0000 0.0000 10.1752 0.0000 38.9017
#
#
#
# Elastic Compliance Matrix: (Units=1/GPa)
#
#
# Indices 1 2 3 4 5 6 
#
# 1 0.008630 -0.001405 -0.001307 0.000000 -0.005544 0.000000
# 2 -0.001405 0.012755 -0.000963 0.000000 -0.001850 0.000000
# 3 -0.001307 -0.000963 0.003149 0.000000 0.000391 0.000000
# 4 0.000000 0.000000 0.000000 0.049125 0.000000 -0.012849
# 5 -0.005544 -0.001850 0.000391 0.000000 0.021246 0.000000
# 6 0.000000 0.000000 0.000000 -0.012849 0.000000 0.029067
#
#
# Mechanical properties :
#
#
# Convention : Reuss Voigt Hill
#
# Bulk Modulus (GPa) = 58.18968 96.65551 77.42259
# Shear Modulus (GPa) = 36.48287 55.26579 45.87433
#
# Velocity S-wave (km/s) = 3.51447 4.32557 3.94094
# Velocity P-wave (km/s) = 6.01407 7.59412 6.84981
#
# Compressibility (1/GPa) = 0.01718518
#
# Stress axis : x y z
#
# Youngs Moduli (GPa) = 115.87334 78.40005 317.53595
#
# Poissons Ratio (x) = 0.11018 0.41488
# Poissons Ratio (y) = 0.16285 0.30568
# Poissons Ratio (z) = 0.15140 0.07547
#
# Static dielectric constant tensor:
#      x y z
#    x 2.394570 0.000000 -0.143870 
#    y 0.000000 2.292970 0.000000 
#    z -0.143870 0.000000 2.375440 
# 
# From -- ./inp_files/171051.got.cif
#   From: 2010.05.17/outbox.cif.g08.bks.cpg/sg15_86_cif.got.tgz:171051.got - 2010.06.03 18:47:42.
