data_PCOD9264490
_publ_section_title
;
Structure prediction by ZEFSAII (Michael W. Deem and Ramdas Pophale) SiO2 
 PCOD9264490
Probable space group: C 2/C
;
_chemical_formula_sum "Si O2"
_cell_formula_units_Z 60
_cell_length_a 10.833395
_cell_length_b 32.861431
_cell_length_c 10.455128
_cell_angle_alpha 90.000000
_cell_angle_beta 124.964161
_cell_angle_gamma 90.000000
_cell_volume 3050.247022
_symmetry_space_group_name_H-M "C 2/C"
_symmetry_group_IT_number 15
_symmetry_cell_setting 'monoclinic'
loop_
_space_group_symop_operation_xyz
x,y,z
-x,y,1/2-z
-x,-y,-z
x,-y,1/2+z
1/2+x,1/2+y,z
1/2-x,1/2+y,1/2-z
1/2-x,1/2-y,-z
1/2+x,1/2-y,1/2+z
loop_
_atom_site_type_symbol
_atom_site_label
_atom_site_fract_x
_atom_site_fract_y
_atom_site_fract_z
Si Si1 0.500000 0.787756 0.750000
Si Si2 0.894468 0.998661 0.311794
Si Si3 0.630394 0.200304 0.978061
Si Si4 0.193378 0.671141 0.729026
Si Si5 0.047065 0.775069 0.066216
Si Si6 0.596461 0.412763 0.676998
Si Si7 0.785839 0.171522 0.310397
Si Si8 0.384061 0.590687 0.801203
O O1 0.526847 0.757958 0.885368
O O2 0.353893 0.814988 0.686772
O O3 0.821224 0.043377 0.268893
O O4 0.000000 0.998877 0.250000
O O5 0.812728 0.955019 0.255149
O O6 0.000000 0.000000 0.500000
O O7 0.675347 0.180631 0.870519
O O8 0.473912 0.177583 0.923158
O O9 0.593139 0.248365 0.968799
O O10 0.756892 0.193158 0.158153
O O11 0.313654 0.706539 0.770440
O O12 0.267097 0.627879 0.739451
O O13 0.938385 0.811541 0.962634
O O14 0.500000 0.407159 0.750000
O O15 0.707021 0.375713 0.717048
O O16 0.481612 0.410327 0.489274
O O17 0.500000 0.595510 0.750000
#
# Coordination Sequence:
#
# PCOD9264490 Si02
#       8
#     4   8   8   8   8   8   8   8
#     4  10  24  38  50  78 116 150 180 230 292 330
#     4   8  16  31  53  83 115 136 173 234 283 319
#     4  10  23  38  53  80 113 149 181 238 286 318
#     4  11  22  38  57  80 112 149 187 229 279 339
#     4  11  22  38  58  78 105 148 200 234 270 327
#     4  10  19  35  59  87 110 141 187 236 279 325
#     4  11  22  37  59  80 109 146 191 234 276 334
#     4  10  20  34  57  87 113 145 184 229 279 336
#
# _framework density 19.670536999999999
#
# number of rings (size 3 to 8) (size 9 to 14) (size 15 to 20)
#    0.000    1.867    1.333    3.200    0.933    4.267 
#    0.000    0.000    0.000    2.400    0.000    0.000 
#    0.000    0.000    0.000    0.000    0.000    0.000 
#
# Total GULP energy -167241.555832 kJ/mol
# GULP energy per Si atom -5574.718528 kJ/mol
# Density = 1.962577 g / cm^3
# Si number density = 19.670537 Si / 1000 Ang^3
#
#
#
# Elastic Constant Matrix: (Units=GPa)
#
#
# Indices 1 2 3 4 5 6 
#
# 1 69.6419 52.3475 16.4313 0.0000 -17.6927 0.0000
# 2 52.3475 180.4484 -6.5963 0.0000 2.5119 0.0000
# 3 16.4313 -6.5963 46.7761 0.0000 -14.4178 0.0000
# 4 0.0000 0.0000 0.0000 4.4703 0.0000 -9.1871
# 5 -17.6927 2.5119 -14.4178 0.0000 29.3369 0.0000
# 6 0.0000 0.0000 0.0000 -9.1871 0.0000 27.5938
#
#
#
# Elastic Compliance Matrix: (Units=1/GPa)
#
#
# Indices 1 2 3 4 5 6 
#
# 1 0.024589 -0.007521 -0.005809 0.000000 0.012618 0.000000
# 2 -0.007521 0.007871 0.002529 0.000000 -0.003967 0.000000
# 3 -0.005809 0.002529 0.026669 0.000000 0.009387 0.000000
# 4 0.000000 0.000000 0.000000 0.708443 0.000000 0.235869
# 5 0.012618 -0.003967 0.009387 0.000000 0.046650 0.000000
# 6 0.000000 0.000000 0.000000 0.235869 0.000000 0.114770
#
#
# Mechanical properties :
#
#
# Convention : Reuss Voigt Hill
#
# Bulk Modulus (GPa) = 26.64682 46.80351 36.72516
# Shear Modulus (GPa) = 5.19156 27.92579 16.55867
#
# Velocity S-wave (km/s) = 1.62634 3.77195 2.90453
# Velocity P-wave (km/s) = 4.13553 6.54335 5.47349
#
# Compressibility (1/GPa) = 0.03752793
#
# Stress axis : x y z
#
# Youngs Moduli (GPa) = 40.66893 127.04402 37.49683
#
# Poissons Ratio (x) = 0.95551 0.21781
# Poissons Ratio (y) = 0.30588 -0.09484
# Poissons Ratio (z) = 0.23623 -0.32133
#
# Static dielectric constant tensor:
#      x y z
#    x 1.741590 0.000000 -0.028180 
#    y 0.000000 1.752560 0.000000 
#    z -0.028180 0.000000 1.691370 
# 
# From -- ./inp_files/92627.got.cif
#   From: 2010.05.17/outbox.cif.g08.bks.cpg/sg15_47_cif.got.tgz:92627.got - 2010.06.03 18:47:42.
