data_PCOD9264166
_publ_section_title
;
Structure prediction by ZEFSAII (Michael W. Deem and Ramdas Pophale) SiO2 
 PCOD9264166
Probable space group: C 2/C
;
_chemical_formula_sum "Si O2"
_cell_formula_units_Z 64
_cell_length_a 25.918387
_cell_length_b 22.947875
_cell_length_c 12.873425
_cell_angle_alpha 90.000000
_cell_angle_beta 153.497773
_cell_angle_gamma 90.000000
_cell_volume 3416.692116
_symmetry_space_group_name_H-M "C 2/C"
_symmetry_group_IT_number 15
_symmetry_cell_setting 'monoclinic'
loop_
_space_group_symop_operation_xyz
x,y,z
-x,y,1/2-z
-x,-y,-z
x,-y,1/2+z
1/2+x,1/2+y,z
1/2-x,1/2+y,1/2-z
1/2-x,1/2-y,-z
1/2+x,1/2-y,1/2+z
loop_
_atom_site_type_symbol
_atom_site_label
_atom_site_fract_x
_atom_site_fract_y
_atom_site_fract_z
Si Si1 0.230040 0.072181 0.003222
Si Si2 0.798877 0.976831 0.375458
Si Si3 0.443376 0.598752 0.990526
Si Si4 0.397076 0.988074 0.639262
Si Si5 0.207445 0.869234 0.002206
Si Si6 0.403094 0.880978 0.190969
Si Si7 0.127264 0.784248 0.018836
Si Si8 0.355736 0.162717 0.373008
O O1 0.336845 0.049950 0.121839
O O2 0.273833 0.126436 0.150141
O O3 0.190160 0.022506 0.012170
O O4 0.122518 0.086737 0.734872
O O5 0.907135 0.953440 0.503389
O O6 0.749371 0.918141 0.339111
O O7 0.708153 0.000766 0.128994
O O8 0.580455 0.608497 0.237704
O O9 0.392486 0.658649 0.946628
O O10 0.500000 0.964334 0.750000
O O11 0.436252 0.050519 0.755082
O O12 0.194340 0.808566 0.039544
O O13 0.293506 0.867954 0.063088
O O14 0.511955 0.843812 0.426806
O O15 0.368668 0.865324 0.011108
O O16 0.000000 0.765607 0.750000
O O17 0.178938 0.729632 0.171941
#
# Coordination Sequence:
#
# PCOD9264166 Si02
#       8
#     8   8   8   8   8   8   8   8
#     4  11  22  36  61  86 118 158 188 237 296 343
#     4  10  19  35  56  82 114 155 192 229 288 342
#     4   9  22  40  56  84 113 153 198 234 287 343
#     4  11  21  35  54  86 128 151 185 235 293 354
#     4  10  21  38  61  84 114 153 199 238 285 340
#     4  11  20  35  58  92 112 145 193 240 287 354
#     4   9  18  40  61  80 112 151 193 241 284 336
#     4  11  22  37  59  90 115 148 195 240 293 342
#
# _framework density 18.731569
#
# number of rings (size 3 to 8) (size 9 to 14) (size 15 to 20)
#    0.000    1.750    5.000    1.125    1.750    2.500 
#    2.250    0.625    0.000    0.000    3.250    0.000 
#    0.000    0.000    0.000    0.000    0.000    0.000 
#
# Total GULP energy -178463.817369 kJ/mol
# GULP energy per Si atom -5576.994293 kJ/mol
# Density = 1.868894 g / cm^3
# Si number density = 18.731569 Si / 1000 Ang^3
#
#
#
# Elastic Constant Matrix: (Units=GPa)
#
#
# Indices 1 2 3 4 5 6 
#
# 1 110.5220 35.6998 42.0132 0.0000 12.6739 0.0000
# 2 35.6998 93.7892 31.8394 0.0000 -0.7959 0.0000
# 3 42.0132 31.8394 65.6474 0.0000 -5.4925 0.0000
# 4 0.0000 0.0000 0.0000 27.3499 0.0000 -11.8588
# 5 12.6739 -0.7959 -5.4925 0.0000 31.6913 0.0000
# 6 0.0000 0.0000 0.0000 -11.8588 0.0000 8.3208
#
#
#
# Elastic Compliance Matrix: (Units=1/GPa)
#
#
# Indices 1 2 3 4 5 6 
#
# 1 0.013772 -0.002527 -0.008173 0.000000 -0.006988 0.000000
# 2 -0.002527 0.013246 -0.004764 0.000000 0.000518 0.000000
# 3 -0.008173 -0.004764 0.023376 0.000000 0.007200 0.000000
# 4 0.000000 0.000000 0.000000 0.095704 0.000000 0.136396
# 5 -0.006988 0.000518 0.007200 0.000000 0.035610 0.000000
# 6 0.000000 0.000000 0.000000 0.136396 0.000000 0.314570
#
#
# Mechanical properties :
#
#
# Convention : Reuss Voigt Hill
#
# Bulk Modulus (GPa) = 51.36945 54.34039 52.85492
# Shear Modulus (GPa) = 9.36865 24.16615 16.76740
#
# Velocity S-wave (km/s) = 2.23884 3.59573 2.99514
# Velocity P-wave (km/s) = 5.84523 6.80530 6.34345
#
# Compressibility (1/GPa) = 0.01946682
#
# Stress axis : x y z
#
# Youngs Moduli (GPa) = 72.60879 75.49659 42.77822
#
# Poissons Ratio (x) = 0.19078 0.34963
# Poissons Ratio (y) = 0.18348 0.20378
# Poissons Ratio (z) = 0.59344 0.35964
#
# Static dielectric constant tensor:
#      x y z
#    x 1.671420 0.000000 0.007770 
#    y 0.000000 1.670940 0.000000 
#    z 0.007770 0.000000 1.635420 
# 
# From -- ./inp_files/120250.got.cif
#   From: 2010.05.17/outbox.cif.g08.bks.cpg/sg15_61_cif.got.tgz:120250.got - 2010.06.03 18:47:42.
