data_PCOD9264253
_publ_section_title
;
Structure prediction by ZEFSAII (Michael W. Deem and Ramdas Pophale) SiO2 
 PCOD9264253
Probable space group: C 2/C
;
_chemical_formula_sum "Si O2"
_cell_formula_units_Z 48
_cell_length_a 26.404241
_cell_length_b 15.562100
_cell_length_c 11.065466
_cell_angle_alpha 90.000000
_cell_angle_beta 27.103104
_cell_angle_gamma 90.000000
_cell_volume 2071.518271
_symmetry_space_group_name_H-M "C 2/C"
_symmetry_group_IT_number 15
_symmetry_cell_setting 'monoclinic'
loop_
_space_group_symop_operation_xyz
x,y,z
-x,y,1/2-z
-x,-y,-z
x,-y,1/2+z
1/2+x,1/2+y,z
1/2-x,1/2+y,1/2-z
1/2-x,1/2-y,-z
1/2+x,1/2-y,1/2+z
loop_
_atom_site_type_symbol
_atom_site_label
_atom_site_fract_x
_atom_site_fract_y
_atom_site_fract_z
Si Si1 0.568182 0.605502 0.722964
Si Si2 0.418262 0.922914 0.021977
Si Si3 0.782212 0.285717 0.798432
Si Si4 0.526129 0.416320 0.569032
Si Si5 0.737547 0.100619 0.847817
Si Si6 0.956568 0.391601 0.536079
O O1 0.500000 0.633915 0.750000
O O2 0.692712 0.641911 0.452526
O O3 0.520017 0.633819 0.956367
O O4 0.549447 0.502144 0.771667
O O5 0.500000 0.879255 0.750000
O O6 0.432884 0.875185 0.119308
O O7 0.304839 0.935156 0.189789
O O8 0.463792 0.017692 0.954554
O O9 0.766789 0.199693 0.755618
O O10 0.904330 0.323901 0.555358
O O11 0.750000 0.250000 0.000000
O O12 0.655846 0.441370 0.314070
O O13 0.500000 0.369450 0.750000
O O14 0.639884 0.097748 0.155515
#
# Coordination Sequence:
#
# PCOD9264253 Si02
#       6
#     8   8   8   8   8   8
#     4  10  21  35  57  89 116 157 207 244 292 366
#     4   9  19  33  56  87 106 146 193 250 289 354
#     4  10  19  35  57  83 113 157 196 245 292 359
#     4  10  21  36  57  90 122 155 195 256 306 347
#     4  10  20  36  60  84 117 154 199 245 300 361
#     4   9  18  34  56  81 114 145 197 242 296 355
#
# _framework density 23.171410000000002
#
# number of rings (size 3 to 8) (size 9 to 14) (size 15 to 20)
#    0.000    2.333    3.333    0.000    4.667    3.333 
#    0.000    0.833    0.000    1.000    0.000    0.000 
#    0.000    0.000    0.000    0.000    0.000    0.000 
#
# Total GULP energy -133654.953725 kJ/mol
# GULP energy per Si atom -5568.956405 kJ/mol
# Density = 2.311867 g / cm^3
# Si number density = 23.171410 Si / 1000 Ang^3
#
#
#
# Elastic Constant Matrix: (Units=GPa)
#
#
# Indices 1 2 3 4 5 6 
#
# 1 192.5138 29.2375 30.4237 0.0000 -10.1492 0.0000
# 2 29.2375 74.5658 13.4760 0.0000 -18.1658 0.0000
# 3 30.4237 13.4760 50.1955 0.0000 -4.2852 0.0000
# 4 0.0000 0.0000 0.0000 27.2439 0.0000 -15.2111
# 5 -10.1492 -18.1658 -4.2852 0.0000 36.3999 0.0000
# 6 0.0000 0.0000 0.0000 -15.2111 0.0000 20.9744
#
#
#
# Elastic Compliance Matrix: (Units=1/GPa)
#
#
# Indices 1 2 3 4 5 6 
#
# 1 0.005966 -0.001660 -0.003130 0.000000 0.000467 0.000000
# 2 -0.001660 0.016357 -0.002756 0.000000 0.007376 0.000000
# 3 -0.003130 -0.002756 0.022594 0.000000 0.000412 0.000000
# 4 0.000000 0.000000 0.000000 0.061681 0.000000 0.044733
# 5 0.000467 0.007376 0.000412 0.000000 0.031332 0.000000
# 6 0.000000 0.000000 0.000000 0.044733 0.000000 0.080118
#
#
# Mechanical properties :
#
#
# Convention : Reuss Voigt Hill
#
# Bulk Modulus (GPa) = 33.52863 51.50550 42.51707
# Shear Modulus (GPa) = 20.56919 33.19949 26.88434
#
# Velocity S-wave (km/s) = 2.98266 3.78931 3.40992
# Velocity P-wave (km/s) = 5.13448 6.43595 5.82170
#
# Compressibility (1/GPa) = 0.02982525
#
# Stress axis : x y z
#
# Youngs Moduli (GPa) = 167.62129 61.13695 44.25866
#
# Poissons Ratio (x) = 0.10148 0.13855
# Poissons Ratio (y) = 0.27822 0.12196
# Poissons Ratio (z) = 0.52473 0.16847
#
# Static dielectric constant tensor:
#      x y z
#    x 2.023590 0.000000 -0.014780 
#    y 0.000000 1.931830 0.000000 
#    z -0.014780 0.000000 1.975540 
# 
# From -- ./inp_files/123749.got.cif
#   From: 2010.05.17/outbox.cif.g08.bks.cpg/sg15_62_cif.got.tgz:123749.got - 2010.06.03 18:47:42.
