data_PCOD9264171
_publ_section_title
;
Structure prediction by ZEFSAII (Michael W. Deem and Ramdas Pophale) SiO2 
 PCOD9264171
Probable space group: C 2/C
;
_chemical_formula_sum "Si O2"
_cell_formula_units_Z 52
_cell_length_a 24.192085
_cell_length_b 11.739022
_cell_length_c 17.033827
_cell_angle_alpha 90.000000
_cell_angle_beta 28.781873
_cell_angle_gamma 90.000000
_cell_volume 2329.123193
_symmetry_space_group_name_H-M "C 2/C"
_symmetry_group_IT_number 15
_symmetry_cell_setting 'monoclinic'
loop_
_space_group_symop_operation_xyz
x,y,z
-x,y,1/2-z
-x,-y,-z
x,-y,1/2+z
1/2+x,1/2+y,z
1/2-x,1/2+y,1/2-z
1/2-x,1/2-y,-z
1/2+x,1/2-y,1/2+z
loop_
_atom_site_type_symbol
_atom_site_label
_atom_site_fract_x
_atom_site_fract_y
_atom_site_fract_z
Si Si1 0.682506 0.604706 0.997489
Si Si2 0.612733 0.226242 0.711344
Si Si3 0.500000 0.407618 0.250000
Si Si4 0.829535 0.928359 0.748545
Si Si5 0.044584 0.331574 0.956889
Si Si6 0.484696 0.628513 0.602144
Si Si7 0.182976 0.548938 0.816713
O O1 0.807007 0.614625 0.885134
O O2 0.717051 0.602999 0.862357
O O3 0.616238 0.708406 0.124326
O O4 0.608454 0.492319 0.104364
O O5 0.677579 0.316510 0.689419
O O6 0.497019 0.195273 0.902115
O O7 0.510298 0.334608 0.315104
O O8 0.726256 0.008455 0.848297
O O9 0.891572 0.888723 0.591179
O O10 0.922034 0.007156 0.677342
O O11 0.082213 0.215651 0.869675
O O12 0.137614 0.429768 0.836750
O O13 0.929741 0.372456 0.052757
#
# Coordination Sequence:
#
# PCOD9264171 Si02
#       7
#     8   8   4   8   8   8   8
#     4  10  20  34  56  84 112 147 187 240 293 340
#     4   9  19  36  56  83 112 143 199 240 285 345
#     4  12  20  36  56  80 120 152 178 242 286 350
#     4  10  19  35  56  83 113 145 192 241 276 344
#     4   9  21  38  59  83 114 153 195 237 287 350
#     4  10  21  35  55  84 115 149 193 229 283 345
#     4  10  20  38  60  83 114 151 191 241 294 342
#
# _framework density 22.325997999999998
#
# number of rings (size 3 to 8) (size 9 to 14) (size 15 to 20)
#    0.000    2.154    3.077    0.000    0.000    4.923 
#    0.000    2.308    0.000    0.000    0.000    0.000 
#    0.000    0.000    0.000    0.000    0.000    0.000 
#
# Total GULP energy -144894.481218 kJ/mol
# GULP energy per Si atom -5572.864662 kJ/mol
# Density = 2.227518 g / cm^3
# Si number density = 22.325998 Si / 1000 Ang^3
#
#
#
# Elastic Constant Matrix: (Units=GPa)
#
#
# Indices 1 2 3 4 5 6 
#
# 1 58.3596 5.3688 37.2718 0.0000 5.1258 0.0000
# 2 5.3688 62.4820 13.1837 0.0000 -3.0044 0.0000
# 3 37.2718 13.1837 63.8874 0.0000 9.7123 0.0000
# 4 0.0000 0.0000 0.0000 18.1651 0.0000 -6.1917
# 5 5.1258 -3.0044 9.7123 0.0000 22.9362 0.0000
# 6 0.0000 0.0000 0.0000 -6.1917 0.0000 17.7220
#
#
#
# Elastic Compliance Matrix: (Units=1/GPa)
#
#
# Indices 1 2 3 4 5 6 
#
# 1 0.027398 0.001145 -0.016366 0.000000 0.000957 0.000000
# 2 0.001145 0.017115 -0.004811 0.000000 0.004023 0.000000
# 3 -0.016366 -0.004811 0.027503 0.000000 -0.008619 0.000000
# 4 0.000000 0.000000 0.000000 0.062493 0.000000 0.021834
# 5 0.000957 0.004023 -0.008619 0.000000 0.047562 0.000000
# 6 0.000000 0.000000 0.000000 0.021834 0.000000 0.064055
#
#
# Mechanical properties :
#
#
# Convention : Reuss Voigt Hill
#
# Bulk Modulus (GPa) = 31.29698 32.93086 32.11392
# Shear Modulus (GPa) = 16.84403 20.35830 18.60116
#
# Velocity S-wave (km/s) = 2.74972 3.02299 2.88959
# Velocity P-wave (km/s) = 4.91222 5.19294 5.05453
#
# Compressibility (1/GPa) = 0.03195197
#
# Stress axis : x y z
#
# Youngs Moduli (GPa) = 36.49934 58.42865 36.35923
#
# Poissons Ratio (x) = -0.06690 0.59504
# Poissons Ratio (y) = -0.04179 0.17494
# Poissons Ratio (z) = 0.59733 0.28113
#
# Static dielectric constant tensor:
#      x y z
#    x 1.882900 0.000000 0.010660 
#    y 0.000000 1.819450 0.000000 
#    z 0.010660 0.000000 1.850080 
# 
# From -- ./inp_files/117957.got.cif
#   From: 2010.05.17/outbox.cif.g08.bks.cpg/sg15_59_cif.got.tgz:117957.got - 2010.06.03 18:47:42.
