data_PCOD9264804
_publ_section_title
;
Structure prediction by ZEFSAII (Michael W. Deem and Ramdas Pophale) SiO2 
 PCOD9264804
Probable space group: C 2/C
;
_chemical_formula_sum "Si O2"
_cell_formula_units_Z 40
_cell_length_a 10.279680
_cell_length_b 19.848350
_cell_length_c 10.025171
_cell_angle_alpha 90.000000
_cell_angle_beta 108.581791
_cell_angle_gamma 90.000000
_cell_volume 1938.851060
_symmetry_space_group_name_H-M "C 2/C"
_symmetry_group_IT_number 15
_symmetry_cell_setting 'monoclinic'
loop_
_space_group_symop_operation_xyz
x,y,z
-x,y,1/2-z
-x,-y,-z
x,-y,1/2+z
1/2+x,1/2+y,z
1/2-x,1/2+y,1/2-z
1/2-x,1/2-y,-z
1/2+x,1/2-y,1/2+z
loop_
_atom_site_type_symbol
_atom_site_label
_atom_site_fract_x
_atom_site_fract_y
_atom_site_fract_z
Si Si1 0.440939 0.687064 0.554600
Si Si2 0.207761 0.858053 0.227075
Si Si3 0.342716 0.716249 0.242867
Si Si4 0.053670 0.662756 0.120665
Si Si5 0.556603 0.943456 0.120255
O O1 0.355462 0.666029 0.653941
O O2 0.575493 0.639496 0.586892
O O3 0.344517 0.694291 0.397407
O O4 0.500662 0.761178 0.596678
O O5 0.303548 0.795347 0.211294
O O6 0.285788 0.926425 0.289963
O O7 0.500000 0.706066 0.250000
O O8 0.217349 0.670683 0.148962
O O9 0.000000 0.636990 0.250000
O O10 0.991242 0.622548 0.976642
O O11 0.500000 0.953970 0.250000
O O12 0.500000 0.000000 0.000000
#
# Coordination Sequence:
#
# PCOD9264804 Si02
#       5
#     8   8   8   8   8
#     4  10  19  35  63  96 131 168 198 256 335 387
#     4  10  20  37  61  93 128 166 212 255 323 390
#     4  11  21  31  58  99 134 161 194 268 329 384
#     4  11  21  39  64  94 132 171 212 258 321 391
#     4  12  27  44  65  88 125 176 225 268 313 387
#
# _framework density 20.630776000000001
#
# number of rings (size 3 to 8) (size 9 to 14) (size 15 to 20)
#    0.000    1.200    6.000    3.000    2.800    1.600 
#    0.000    0.000    4.400    6.000    0.000    0.000 
#    0.000    0.000    0.000    0.000    0.000    0.000 
#
# Total GULP energy -111426.151595 kJ/mol
# GULP energy per Si atom -5571.307580 kJ/mol
# Density = 2.058382 g / cm^3
# Si number density = 20.630776 Si / 1000 Ang^3
#
#
#
# Elastic Constant Matrix: (Units=GPa)
#
#
# Indices 1 2 3 4 5 6 
#
# 1 93.6969 18.0242 -3.4648 0.0000 -5.1623 0.0000
# 2 18.0242 44.2867 9.5511 0.0000 -1.3996 0.0000
# 3 -3.4648 9.5511 70.7320 0.0000 -4.2440 0.0000
# 4 0.0000 0.0000 0.0000 16.8304 0.0000 4.1265
# 5 -5.1623 -1.3996 -4.2440 0.0000 31.8043 0.0000
# 6 0.0000 0.0000 0.0000 4.1265 0.0000 9.2003
#
#
#
# Elastic Compliance Matrix: (Units=1/GPa)
#
#
# Indices 1 2 3 4 5 6 
#
# 1 0.011796 -0.005037 0.001371 0.000000 0.001876 0.000000
# 2 -0.005037 0.025420 -0.003691 0.000000 -0.000191 0.000000
# 3 0.001371 -0.003691 0.014826 0.000000 0.002038 0.000000
# 4 0.000000 0.000000 0.000000 0.066757 0.000000 -0.029942
# 5 0.001876 -0.000191 0.002038 0.000000 0.032010 0.000000
# 6 0.000000 0.000000 0.000000 -0.029942 0.000000 0.122122
#
#
# Mechanical properties :
#
#
# Convention : Reuss Voigt Hill
#
# Bulk Modulus (GPa) = 26.79028 28.54851 27.66939
# Shear Modulus (GPa) = 16.66180 23.87402 20.26791
#
# Velocity S-wave (km/s) = 2.84495 3.40546 3.13774
# Velocity P-wave (km/s) = 4.87908 5.41579 5.15442
#
# Compressibility (1/GPa) = 0.03732697
#
# Stress axis : x y z
#
# Youngs Moduli (GPa) = 84.77673 39.33899 67.45054
#
# Poissons Ratio (x) = 0.19815 -0.09244
# Poissons Ratio (y) = 0.42702 0.24894
# Poissons Ratio (z) = -0.11619 0.14519
#
# Static dielectric constant tensor:
#      x y z
#    x 1.827960 0.000000 0.011670 
#    y 0.000000 1.764130 0.000000 
#    z 0.011670 0.000000 1.811250 
# 
# From -- ./inp_files/77883.got.cif
#   From: 2010.05.17/outbox.cif.g08.bks.cpg/sg15_39_cif.got.tgz:77883.got - 2010.06.03 18:47:42.
