data_PCOD9264235
_publ_section_title
;
Structure prediction by ZEFSAII (Michael W. Deem and Ramdas Pophale) SiO2 
 PCOD9264235
Probable space group: C 2/C
;
_chemical_formula_sum "Si O2"
_cell_formula_units_Z 56
_cell_length_a 17.977086
_cell_length_b 17.860193
_cell_length_c 26.551695
_cell_angle_alpha 90.000000
_cell_angle_beta 162.352488
_cell_angle_gamma 90.000000
_cell_volume 2584.460479
_symmetry_space_group_name_H-M "C 2/C"
_symmetry_group_IT_number 15
_symmetry_cell_setting 'monoclinic'
loop_
_space_group_symop_operation_xyz
x,y,z
-x,y,1/2-z
-x,-y,-z
x,-y,1/2+z
1/2+x,1/2+y,z
1/2-x,1/2+y,1/2-z
1/2-x,1/2-y,-z
1/2+x,1/2-y,1/2+z
loop_
_atom_site_type_symbol
_atom_site_label
_atom_site_fract_x
_atom_site_fract_y
_atom_site_fract_z
Si Si1 0.994389 0.949547 0.899163
Si Si2 0.971700 0.264164 0.576049
Si Si3 0.500000 0.192933 0.250000
Si Si4 0.500000 0.400612 0.750000
Si Si5 0.390015 0.950787 0.078696
Si Si6 0.123120 0.364696 0.586037
Si Si7 0.769406 0.893042 0.247408
Si Si8 0.183916 0.603756 0.280727
O O1 0.769157 0.916829 0.720022
O O2 0.940343 0.919602 0.920309
O O3 0.960421 0.038743 0.874112
O O4 0.249464 0.925934 0.038528
O O5 0.686497 0.246399 0.399380
O O6 0.025439 0.293538 0.553860
O O7 0.116726 0.188593 0.681019
O O8 0.064618 0.330994 0.670495
O O9 0.672885 0.139541 0.328365
O O10 0.327929 0.451512 0.603594
O O11 0.326439 0.351163 0.673903
O O12 0.594320 0.900180 0.183524
O O13 0.515228 0.030395 0.168764
O O14 0.899413 0.402519 0.411488
#
# Coordination Sequence:
#
# PCOD9264235 Si02
#       8
#     8   8   4   4   8   8   8   8
#     4   9  18  35  59  84 108 139 180 227 272 313
#     4  11  23  37  54  80 111 146 180 219 271 326
#     4  12  24  39  54  75 110 146 180 222 270 329
#     4   8  16  33  60  87 110 136 178 230 272 305
#     4   9  18  35  59  85 109 140 181 226 269 313
#     4   9  18  34  56  84 112 141 179 222 269 318
#     4  10  19  35  57  82 112 143 179 224 269 317
#     4  10  22  38  56  80 109 142 181 224 271 320
#
# _framework density 21.667966
#
# number of rings (size 3 to 8) (size 9 to 14) (size 15 to 20)
#    0.000    2.286    0.000    2.571    0.000    5.143 
#    0.000   19.286    0.000    0.857    0.000    0.000 
#    0.000    0.000    0.000    0.000    0.000    0.000 
#
# Total GULP energy -156307.858221 kJ/mol
# GULP energy per Si atom -5582.423508 kJ/mol
# Density = 2.161865 g / cm^3
# Si number density = 21.667966 Si / 1000 Ang^3
#
#
#
# Elastic Constant Matrix: (Units=GPa)
#
#
# Indices 1 2 3 4 5 6 
#
# 1 80.2133 0.6595 -4.1150 -0.0827 4.4718 -0.0052
# 2 0.6595 64.0840 8.6011 0.0151 -0.5968 0.0077
# 3 -4.1150 8.6011 41.4619 -0.0452 3.4852 -0.0017
# 4 -0.0827 0.0151 -0.0452 14.7444 0.0076 -4.9515
# 5 4.4718 -0.5968 3.4852 0.0076 17.9711 -0.0250
# 6 -0.0052 0.0077 -0.0017 -4.9515 -0.0250 26.3198
#
#
#
# Elastic Compliance Matrix: (Units=1/GPa)
#
#
# Indices 1 2 3 4 5 6 
#
# 1 0.012749 -0.000384 0.001640 0.000084 -0.003503 0.000015
# 2 -0.000384 0.016088 -0.003485 -0.000033 0.001306 -0.000010
# 3 0.001640 -0.003485 0.025463 0.000099 -0.005462 0.000017
# 4 0.000084 -0.000033 0.000099 0.072397 -0.000053 0.013620
# 5 -0.003503 0.001306 -0.005462 -0.000053 0.057619 0.000043
# 6 0.000015 -0.000010 0.000017 0.013620 0.000043 0.040556
#
#
# Mechanical properties :
#
#
# Convention : Reuss Voigt Hill
#
# Bulk Modulus (GPa) = 20.06343 21.78338 20.92341
# Shear Modulus (GPa) = 20.32956 23.84800 22.08878
#
# Velocity S-wave (km/s) = 3.06638 3.32114 3.19630
# Velocity P-wave (km/s) = 4.67081 4.97813 4.82692
#
# Compressibility (1/GPa) = 0.04984192
#
# Stress axis : x y z
#
# Youngs Moduli (GPa) = 78.43500 62.15649 39.27191
#
# Poissons Ratio (x) = 0.02386 -0.06439
# Poissons Ratio (y) = 0.03011 0.13688
# Poissons Ratio (z) = -0.12860 0.21664
#
# Static dielectric constant tensor:
#      x y z
#    x 1.886530 0.000010 -0.024250 
#    y 0.000010 1.724440 -0.000080 
#    z -0.024250 -0.000080 1.795990 
# 
# From -- ./inp_files/106762.got.cif
#   From: 2010.05.17/outbox.cif.g08.bks.cpg/sg15_54_cif.got.tgz:106762.got - 2010.06.03 18:47:42.
