data_PCOD9264386
_publ_section_title
;
Structure prediction by ZEFSAII (Michael W. Deem and Ramdas Pophale) SiO2 
 PCOD9264386
Probable space group: C 2/C
;
_chemical_formula_sum "Si O2"
_cell_formula_units_Z 64
_cell_length_a 9.703030
_cell_length_b 20.916977
_cell_length_c 32.265194
_cell_angle_alpha 90.000000
_cell_angle_beta 152.024026
_cell_angle_gamma 90.000000
_cell_volume 3071.900785
_symmetry_space_group_name_H-M "C 2/C"
_symmetry_group_IT_number 15
_symmetry_cell_setting 'monoclinic'
loop_
_space_group_symop_operation_xyz
x,y,z
-x,y,1/2-z
-x,-y,-z
x,-y,1/2+z
1/2+x,1/2+y,z
1/2-x,1/2+y,1/2-z
1/2-x,1/2-y,-z
1/2+x,1/2-y,1/2+z
loop_
_atom_site_type_symbol
_atom_site_label
_atom_site_fract_x
_atom_site_fract_y
_atom_site_fract_z
Si Si1 0.959469 0.214161 0.614520
Si Si2 0.316764 0.558740 0.356214
Si Si3 0.304133 0.402378 0.733635
Si Si4 0.684225 0.222493 0.256310
Si Si5 0.214288 0.575971 0.086478
Si Si6 0.832027 0.725664 0.413529
Si Si7 0.672112 0.433331 0.547865
Si Si8 0.432504 0.422560 0.070377
O O1 0.629585 0.240068 0.517692
O O2 0.980534 0.138057 0.612365
O O3 0.050852 0.233364 0.684759
O O4 0.147434 0.245297 0.627046
O O5 0.604447 0.580423 0.407608
O O6 0.361332 0.589156 0.413654
O O7 0.344604 0.481496 0.367221
O O8 0.000000 0.570929 0.250000
O O9 0.500000 0.371597 0.750000
O O10 0.207697 0.346777 0.739636
O O11 0.527715 0.450999 0.815522
O O12 0.025187 0.437018 0.640148
O O13 0.500000 0.221182 0.250000
O O14 0.023991 0.242963 0.353016
O O15 0.160043 0.648722 0.086705
O O16 0.889676 0.548170 0.003605
O O17 0.500000 0.500000 0.500000
O O18 0.577148 0.398757 0.480219
#
# Coordination Sequence:
#
# PCOD9264386 Si02
#       8
#     8   8   8   8   8   8   8   8
#     4  10  21  42  63  88 125 163 212 250 299 378
#     4  11  22  36  58  91 125 155 197 255 312 358
#     4  11  20  35  63  87 120 157 205 253 298 362
#     4  11  24  37  61  96 126 156 202 262 316 358
#     4  10  19  35  58  88 115 155 201 247 306 348
#     4   9  21  37  62  91 117 161 209 251 303 367
#     4  10  22  37  56  89 122 153 204 253 299 355
#     4  10  22  40  62  85 118 170 203 241 297 374
#
# _framework density 20.834005999999999
#
# number of rings (size 3 to 8) (size 9 to 14) (size 15 to 20)
#    0.000    1.750    2.500    2.250    7.000    1.500 
#    0.000    2.500    0.000    5.250    0.000    0.000 
#    0.000    0.000    0.000    0.000    0.000    0.000 
#
# Total GULP energy -178222.192882 kJ/mol
# GULP energy per Si atom -5569.443528 kJ/mol
# Density = 2.078659 g / cm^3
# Si number density = 20.834006 Si / 1000 Ang^3
#
#
#
# Elastic Constant Matrix: (Units=GPa)
#
#
# Indices 1 2 3 4 5 6 
#
# 1 158.5363 26.7566 42.5884 0.0018 -2.9975 -0.0012
# 2 26.7566 49.6316 17.9236 0.0139 3.2284 0.0028
# 3 42.5884 17.9236 70.2108 0.0177 8.4223 0.0025
# 4 0.0018 0.0139 0.0177 22.2929 0.0004 1.6346
# 5 -2.9975 3.2284 8.4223 0.0004 29.6922 -0.0028
# 6 -0.0012 0.0028 0.0025 1.6346 -0.0028 24.7018
#
#
#
# Elastic Compliance Matrix: (Units=1/GPa)
#
#
# Indices 1 2 3 4 5 6 
#
# 1 0.008026 -0.002887 -0.004417 0.000005 0.002377 0.000001
# 2 -0.002887 0.023253 -0.003982 -0.000011 -0.001690 -0.000002
# 3 -0.004417 -0.003982 0.018572 -0.000012 -0.005281 -0.000001
# 4 0.000005 -0.000011 -0.000012 0.045076 0.000004 -0.002983
# 5 0.002377 -0.001690 -0.005281 0.000004 0.035601 0.000005
# 6 0.000001 -0.000002 -0.000001 -0.002983 0.000005 0.040680
#
#
# Mechanical properties :
#
#
# Convention : Reuss Voigt Hill
#
# Bulk Modulus (GPa) = 36.65744 50.32399 43.49072
# Shear Modulus (GPa) = 24.64601 28.07808 26.36204
#
# Velocity S-wave (km/s) = 3.44316 3.67509 3.56102
# Velocity P-wave (km/s) = 5.78277 6.49735 6.15045
#
# Compressibility (1/GPa) = 0.02727959
#
# Stress axis : x y z
#
# Youngs Moduli (GPa) = 124.58979 43.00578 53.84422
#
# Poissons Ratio (x) = 0.12414 0.23782
# Poissons Ratio (y) = 0.35964 0.21443
# Poissons Ratio (z) = 0.55029 0.17126
#
# Static dielectric constant tensor:
#      x y z
#    x 1.827230 0.000000 -0.009090 
#    y 0.000000 1.756260 -0.000010 
#    z -0.009090 -0.000010 1.852870 
# 
# From -- ./inp_files/309152.got.cif
#   From: 2010.05.17/outbox.cif.g08.bks.cpg/sg15_155_cif.got.tgz:309152.got - 2010.06.03 18:47:42.
