data_PCOD9264340
_publ_section_title
;
Structure prediction by ZEFSAII (Michael W. Deem and Ramdas Pophale) SiO2 
 PCOD9264340
Probable space group: C 2/C
;
_chemical_formula_sum "Si O2"
_cell_formula_units_Z 48
_cell_length_a 16.170081
_cell_length_b 10.499126
_cell_length_c 15.923899
_cell_angle_alpha 90.000000
_cell_angle_beta 59.998203
_cell_angle_gamma 90.000000
_cell_volume 2341.194659
_symmetry_space_group_name_H-M "C 2/C"
_symmetry_group_IT_number 15
_symmetry_cell_setting 'monoclinic'
loop_
_space_group_symop_operation_xyz
x,y,z
-x,y,1/2-z
-x,-y,-z
x,-y,1/2+z
1/2+x,1/2+y,z
1/2-x,1/2+y,1/2-z
1/2-x,1/2-y,-z
1/2+x,1/2-y,1/2+z
loop_
_atom_site_type_symbol
_atom_site_label
_atom_site_fract_x
_atom_site_fract_y
_atom_site_fract_z
Si Si1 0.027007 0.827184 0.574268
Si Si2 0.326786 0.155049 0.919730
Si Si3 0.768204 0.930891 0.437629
Si Si4 0.841804 0.195048 0.065268
Si Si5 0.419282 0.541155 0.736294
Si Si6 0.690147 0.423710 0.364490
O O1 0.072358 0.715238 0.607336
O O2 0.111928 0.892626 0.477032
O O3 0.947533 0.785186 0.547179
O O4 0.975759 0.930203 0.659472
O O5 0.289760 0.137670 0.843089
O O6 0.250000 0.250000 0.000000
O O7 0.306016 0.020509 0.976059
O O8 0.831368 0.857029 0.475216
O O9 0.715307 0.825953 0.408568
O O10 0.839602 0.008499 0.341792
O O11 0.798905 0.077301 0.140968
O O12 0.500000 0.612137 0.750000
O O13 0.361022 0.616681 0.694976
#
# Coordination Sequence:
#
# PCOD9264340 Si02
#       6
#     8   8   8   8   8   8
#     4  10  19  35  58  83 107 152 189 232 280 344
#     4   9  18  35  55  80 108 150 183 226 285 337
#     4  10  20  34  55  83 112 149 189 236 280 346
#     4   9  18  35  55  79 111 150 188 223 294 335
#     4  11  19  32  55  83 107 139 196 234 267 331
#     4   9  18  35  56  78 115 146 184 233 288 333
#
# _framework density 20.502354
#
# number of rings (size 3 to 8) (size 9 to 14) (size 15 to 20)
#    0.000    2.333    0.000    6.000    0.000    0.667 
#   18.000    0.000    0.000    0.000    0.000    0.000 
#    0.000    0.000    0.000    0.000    0.000    0.000 
#
# Total GULP energy -133727.650139 kJ/mol
# GULP energy per Si atom -5571.985422 kJ/mol
# Density = 2.045569 g / cm^3
# Si number density = 20.502354 Si / 1000 Ang^3
#
#
#
# Elastic Constant Matrix: (Units=GPa)
#
#
# Indices 1 2 3 4 5 6 
#
# 1 167.1532 59.2061 8.3518 0.0000 21.6896 0.0000
# 2 59.2061 62.2873 3.9422 0.0000 5.3415 0.0000
# 3 8.3518 3.9422 57.7766 0.0000 1.2765 0.0000
# 4 0.0000 0.0000 0.0000 6.5127 0.0000 -2.9262
# 5 21.6896 5.3415 1.2765 0.0000 22.0054 0.0000
# 6 0.0000 0.0000 0.0000 -2.9262 0.0000 36.7295
#
#
#
# Elastic Compliance Matrix: (Units=1/GPa)
#
#
# Indices 1 2 3 4 5 6 
#
# 1 0.010224 -0.009001 -0.000690 0.000000 -0.007853 0.000000
# 2 -0.009001 0.024382 -0.000428 0.000000 0.002979 0.000000
# 3 -0.000690 -0.000428 0.017442 0.000000 -0.000227 0.000000
# 4 0.000000 0.000000 0.000000 0.159248 0.000000 0.012687
# 5 -0.007853 0.002979 -0.000227 0.000000 0.052473 0.000000
# 6 0.000000 0.000000 0.000000 0.012687 0.000000 0.028237
#
#
# Mechanical properties :
#
#
# Convention : Reuss Voigt Hill
#
# Bulk Modulus (GPa) = 31.43779 47.80192 39.61985
# Shear Modulus (GPa) = 15.48708 27.43065 21.45886
#
# Velocity S-wave (km/s) = 2.75140 3.66174 3.23871
# Velocity P-wave (km/s) = 5.04585 6.42213 5.77513
#
# Compressibility (1/GPa) = 0.03180885
#
# Stress axis : x y z
#
# Youngs Moduli (GPa) = 97.80622 41.01312 57.33260
#
# Poissons Ratio (x) = 0.36918 0.03958
# Poissons Ratio (y) = 0.88040 0.02455
# Poissons Ratio (z) = 0.06751 0.01757
#
# Static dielectric constant tensor:
#      x y z
#    x 1.796700 0.000000 0.041620 
#    y 0.000000 1.751520 0.000000 
#    z 0.041620 0.000000 1.780170 
# 
# From -- ./inp_files/209905.got.cif
#   From: 2010.05.17/outbox.cif.g08.bks.cpg/sg15_105_cif.got.tgz:209905.got - 2010.06.03 18:47:42.
