data_PCOD9264149
_publ_section_title
;
Structure prediction by ZEFSAII (Michael W. Deem and Ramdas Pophale) SiO2 
 PCOD9264149
Probable space group: C 2/C
;
_chemical_formula_sum "Si O2"
_cell_formula_units_Z 64
_cell_length_a 34.279460
_cell_length_b 5.750565
_cell_length_c 15.816621
_cell_angle_alpha 90.000000
_cell_angle_beta 123.794547
_cell_angle_gamma 90.000000
_cell_volume 2591.067763
_symmetry_space_group_name_H-M "C 2/C"
_symmetry_group_IT_number 15
_symmetry_cell_setting 'monoclinic'
loop_
_space_group_symop_operation_xyz
x,y,z
-x,y,1/2-z
-x,-y,-z
x,-y,1/2+z
1/2+x,1/2+y,z
1/2-x,1/2+y,1/2-z
1/2-x,1/2-y,-z
1/2+x,1/2-y,1/2+z
loop_
_atom_site_type_symbol
_atom_site_label
_atom_site_fract_x
_atom_site_fract_y
_atom_site_fract_z
Si Si1 0.816677 0.586003 0.851366
Si Si2 0.623939 0.485738 0.940656
Si Si3 0.047846 0.770921 0.271453
Si Si4 0.666349 0.596062 0.672848
Si Si5 0.564075 0.599513 0.604762
Si Si6 0.918623 0.602845 0.926214
Si Si7 0.373949 0.089472 0.689736
Si Si8 0.204631 0.345944 0.990064
O O1 0.807816 0.345154 0.789701
O O2 0.874203 0.600924 0.937245
O O3 0.808000 0.843766 0.799841
O O4 0.789933 0.555250 0.908429
O O5 0.571219 0.582880 0.875313
O O6 0.620399 0.312421 0.859342
O O7 0.666308 0.649702 0.963049
O O8 0.640623 0.389540 0.050124
O O9 0.042816 0.893664 0.173627
O O10 0.087571 0.584308 0.301167
O O11 0.000000 0.672014 0.250000
O O12 0.621687 0.598501 0.681596
O O13 0.553943 0.350203 0.546861
O O14 0.555192 0.851375 0.547158
O O15 0.888705 0.610268 0.803323
O O16 0.321240 0.013079 0.606966
O O17 0.250000 0.250000 0.000000
#
# Coordination Sequence:
#
# PCOD9264149 Si02
#       8
#     8   8   8   8   8   8   8   8
#     4   9  17  32  53  80 107 146 181 225 276 329
#     4  10  19  35  57  80 104 147 182 229 272 328
#     4  10  21  35  54  82 112 143 183 229 279 330
#     4   9  17  31  55  79 106 142 188 222 272 332
#     4   9  17  32  52  80 107 145 181 225 277 329
#     4   9  17  31  56  77 107 144 188 223 271 331
#     4  10  19  35  56  79 109 146 190 227 275 326
#     4  10  21  35  56  82 115 144 185 230 281 331
#
# _framework density 24.700244000000001
#
# number of rings (size 3 to 8) (size 9 to 14) (size 15 to 20)
#    0.000    2.500    2.500    0.000    0.000    1.000 
#    0.000    0.625    2.750    0.750    0.000    0.000 
#    0.000    0.000    0.000    0.000    0.000    0.000 
#
# Total GULP energy -178386.095974 kJ/mol
# GULP energy per Si atom -5574.565499 kJ/mol
# Density = 2.464403 g / cm^3
# Si number density = 24.700244 Si / 1000 Ang^3
#
#
#
# Elastic Constant Matrix: (Units=GPa)
#
#
# Indices 1 2 3 4 5 6 
#
# 1 119.5668 12.5797 26.2493 0.0001 -17.2051 -0.0001
# 2 12.5797 160.5093 12.8927 -0.0001 -2.3899 0.0007
# 3 26.2493 12.8927 47.3244 0.0002 -10.6844 0.0001
# 4 0.0001 -0.0001 0.0002 20.2808 0.0000 -12.4704
# 5 -17.2051 -2.3899 -10.6844 0.0000 33.7633 -0.0001
# 6 -0.0001 0.0007 0.0001 -12.4704 -0.0001 16.6447
#
#
#
# Elastic Compliance Matrix: (Units=1/GPa)
#
#
# Indices 1 2 3 4 5 6 
#
# 1 0.009926 -0.000355 -0.004601 0.000000 0.003577 0.000000
# 2 -0.000355 0.006383 -0.001595 0.000000 -0.000234 0.000000
# 3 -0.004601 -0.001595 0.025375 0.000000 0.005572 0.000000
# 4 0.000000 0.000000 0.000000 0.091426 0.000000 0.068497
# 5 0.003577 -0.000234 0.005572 0.000000 0.033187 0.000000
# 6 0.000000 0.000000 0.000000 0.068497 0.000000 0.111398
#
#
# Mechanical properties :
#
#
# Convention : Reuss Voigt Hill
#
# Bulk Modulus (GPa) = 34.98725 47.87153 41.42939
# Shear Modulus (GPa) = 16.64868 32.51634 24.58251
#
# Velocity S-wave (km/s) = 2.59902 3.63221 3.15815
# Velocity P-wave (km/s) = 4.81685 6.08389 5.48706
#
# Compressibility (1/GPa) = 0.02858184
#
# Stress axis : x y z
#
# Youngs Moduli (GPa) = 100.74867 156.67583 39.40824
#
# Poissons Ratio (x) = 0.05563 0.18133
# Poissons Ratio (y) = 0.03577 0.06284
# Poissons Ratio (z) = 0.46356 0.24984
#
# Static dielectric constant tensor:
#      x y z
#    x 1.973750 0.000000 -0.062850 
#    y 0.000000 2.154780 0.000000 
#    z -0.062850 0.000000 2.045180 
# 
# From -- ./inp_files/258437.got.cif
#   From: 2010.05.17/outbox.cif.g08.bks.cpg/sg15_130_cif.got.tgz:258437.got - 2010.06.03 18:47:42.
