data_PCOD9264177
_publ_section_title
;
Structure prediction by ZEFSAII (Michael W. Deem and Ramdas Pophale) SiO2 
 PCOD9264177
Probable space group: C 2/C
;
_chemical_formula_sum "Si O2"
_cell_formula_units_Z 48
_cell_length_a 18.249060
_cell_length_b 12.648968
_cell_length_c 19.243361
_cell_angle_alpha 90.000000
_cell_angle_beta 31.898202
_cell_angle_gamma 90.000000
_cell_volume 2347.193746
_symmetry_space_group_name_H-M "C 2/C"
_symmetry_group_IT_number 15
_symmetry_cell_setting 'monoclinic'
loop_
_space_group_symop_operation_xyz
x,y,z
-x,y,1/2-z
-x,-y,-z
x,-y,1/2+z
1/2+x,1/2+y,z
1/2-x,1/2+y,1/2-z
1/2-x,1/2-y,-z
1/2+x,1/2-y,1/2+z
loop_
_atom_site_type_symbol
_atom_site_label
_atom_site_fract_x
_atom_site_fract_y
_atom_site_fract_z
Si Si1 0.195073 0.769425 0.395402
Si Si2 0.885072 0.319161 0.686010
Si Si3 0.322654 0.837784 0.087263
Si Si4 0.227507 0.550617 0.434873
Si Si5 0.885157 0.823881 0.899764
Si Si6 0.401924 0.934365 0.172977
O O1 0.131907 0.747760 0.371322
O O2 0.259776 0.655156 0.363228
O O3 0.085078 0.805532 0.543115
O O4 0.307464 0.862224 0.298172
O O5 0.777871 0.260742 0.822225
O O6 0.852906 0.444147 0.704915
O O7 0.049483 0.314608 0.567115
O O8 0.390988 0.879035 0.105642
O O9 0.241648 0.940655 0.126034
O O10 0.319105 0.564350 0.430173
O O11 0.059719 0.559771 0.574173
O O12 0.000000 0.796603 0.750000
O O13 0.750000 0.750000 0.000000
#
# Coordination Sequence:
#
# PCOD9264177 Si02
#       6
#     8   8   8   8   8   8
#     4  10  20  33  56  83 118 148 188 236 286 349
#     4  10  19  35  56  84 115 151 192 231 292 351
#     4  10  19  36  55  82 116 153 188 240 289 343
#     4  10  19  35  57  76 118 157 190 235 287 336
#     4  10  24  36  54  83 116 154 194 238 289 339
#     4  10  19  35  56  84 116 155 188 235 292 355
#
# _framework density 20.449952
#
# number of rings (size 3 to 8) (size 9 to 14) (size 15 to 20)
#    0.000    2.000    3.333    1.000    9.333    0.000 
#    3.000    1.667    0.000    1.000    0.000    0.000 
#    0.000    0.000    0.000    0.000    0.000    0.000 
#
# Total GULP energy -133630.390981 kJ/mol
# GULP energy per Si atom -5567.932958 kJ/mol
# Density = 2.040341 g / cm^3
# Si number density = 20.449952 Si / 1000 Ang^3
#
#
#
# Elastic Constant Matrix: (Units=GPa)
#
#
# Indices 1 2 3 4 5 6 
#
# 1 17.5441 8.7100 -8.0830 0.0000 -2.4850 0.0000
# 2 8.7100 110.5164 67.6798 0.0000 -12.8977 0.0000
# 3 -8.0830 67.6798 103.6572 -0.0002 -13.0731 0.0000
# 4 0.0000 0.0000 -0.0002 39.1171 0.0000 -2.3962
# 5 -2.4850 -12.8977 -13.0731 0.0000 10.5364 0.0000
# 6 0.0000 0.0000 0.0000 -2.3962 0.0000 26.9929
#
#
#
# Elastic Compliance Matrix: (Units=1/GPa)
#
#
# Indices 1 2 3 4 5 6 
#
# 1 0.075830 -0.014493 0.018250 0.000000 0.022787 0.000000
# 2 -0.014493 0.018350 -0.012696 0.000000 0.003291 0.000000
# 3 0.018250 -0.012696 0.021271 0.000000 0.015155 0.000000
# 4 0.000000 0.000000 0.000000 0.025704 0.000000 0.002282
# 5 0.022787 0.003291 0.015155 0.000000 0.123116 0.000000
# 6 0.000000 0.000000 0.000000 0.002282 0.000000 0.037249
#
#
# Mechanical properties :
#
#
# Convention : Reuss Voigt Hill
#
# Bulk Modulus (GPa) = 10.24881 40.92569 25.58725
# Shear Modulus (GPa) = 14.20768 26.22336 20.21552
#
# Velocity S-wave (km/s) = 2.63868 3.58483 3.14751
# Velocity P-wave (km/s) = 3.78233 6.09842 5.07429
#
# Compressibility (1/GPa) = 0.09757233
#
# Stress axis : x y z
#
# Youngs Moduli (GPa) = 13.18737 54.49689 47.01240
#
# Poissons Ratio (x) = 0.78983 -0.85796
# Poissons Ratio (y) = 0.19112 0.59686
# Poissons Ratio (z) = -0.24067 0.69189
#
# Static dielectric constant tensor:
#      x y z
#    x 1.869340 0.000000 0.006640 
#    y 0.000000 1.739980 0.000000 
#    z 0.006640 0.000000 1.811320 
# 
# From -- ./inp_files/252519.got.cif
#   From: 2010.05.17/outbox.cif.g08.bks.cpg/sg15_127_cif.got.tgz:252519.got - 2010.06.03 18:47:42.
