data_PCOD9264515
_publ_section_title
;
Structure prediction by ZEFSAII (Michael W. Deem and Ramdas Pophale) SiO2 
 PCOD9264515
Probable space group: C 2/C
;
_chemical_formula_sum "Si O2"
_cell_formula_units_Z 44
_cell_length_a 12.293842
_cell_length_b 23.260157
_cell_length_c 10.132245
_cell_angle_alpha 90.000000
_cell_angle_beta 123.459123
_cell_angle_gamma 90.000000
_cell_volume 2417.227146
_symmetry_space_group_name_H-M "C 2/C"
_symmetry_group_IT_number 15
_symmetry_cell_setting 'monoclinic'
loop_
_space_group_symop_operation_xyz
x,y,z
-x,y,1/2-z
-x,-y,-z
x,-y,1/2+z
1/2+x,1/2+y,z
1/2-x,1/2+y,1/2-z
1/2-x,1/2-y,-z
1/2+x,1/2-y,1/2+z
loop_
_atom_site_type_symbol
_atom_site_label
_atom_site_fract_x
_atom_site_fract_y
_atom_site_fract_z
Si Si1 0.648259 0.035730 0.878953
Si Si2 0.140038 0.771857 0.770272
Si Si3 0.259788 0.658588 0.919157
Si Si4 0.195552 0.980103 0.752149
Si Si5 0.500000 0.429495 0.250000
Si Si6 0.944043 0.129367 0.455377
O O1 0.500000 0.019510 0.750000
O O2 0.669096 0.103182 0.862532
O O3 0.740202 0.000003 0.841435
O O4 0.697469 0.026424 0.061106
O O5 0.204753 0.710122 0.792933
O O6 0.118866 0.810295 0.627528
O O7 0.000000 0.764116 0.750000
O O8 0.224977 0.810532 0.928278
O O9 0.402559 0.636886 0.972436
O O10 0.116878 0.921043 0.675946
O O11 0.095814 0.028940 0.733431
O O12 0.572187 0.390277 0.405413
#
# Coordination Sequence:
#
# PCOD9264515 Si02
#       6
#     8   8   8   8   4   8
#     4  12  24  39  60  88 129 162 199 246 307 364
#     4   9  19  34  58  87 118 148 198 254 296 346
#     4  10  19  35  59  90 112 150 199 248 299 348
#     4  12  23  39  61  94 123 159 205 248 302 365
#     4  12  22  36  64  90 120 158 202 254 294 368
#     4  11  21  37  62  88 120 154 200 254 300 349
#
# _framework density 18.202674999999999
#
# number of rings (size 3 to 8) (size 9 to 14) (size 15 to 20)
#    0.000    1.091    5.455    2.727    1.273    0.000 
#    0.000    0.909    0.000    0.000    0.000    0.000 
#    0.000    0.000    0.000    0.000    0.000    0.000 
#
# Total GULP energy -122860.961697 kJ/mol
# GULP energy per Si atom -5584.589168 kJ/mol
# Density = 1.816125 g / cm^3
# Si number density = 18.202675 Si / 1000 Ang^3
#
#
#
# Elastic Constant Matrix: (Units=GPa)
#
#
# Indices 1 2 3 4 5 6 
#
# 1 41.9058 14.3229 5.3738 0.0000 9.9532 0.0000
# 2 14.3229 95.8956 30.4372 0.0000 7.4534 0.0000
# 3 5.3738 30.4372 95.1656 0.0000 2.8501 0.0000
# 4 0.0000 0.0000 0.0000 19.1277 0.0000 -9.5991
# 5 9.9532 7.4534 2.8501 0.0000 23.1635 0.0000
# 6 0.0000 0.0000 0.0000 -9.5991 0.0000 -11.0710
#
#
#
# Elastic Compliance Matrix: (Units=1/GPa)
#
#
# Indices 1 2 3 4 5 6 
#
# 1 0.027547 -0.003211 -0.000206 0.000000 -0.010778 0.000000
# 2 -0.003211 0.012236 -0.003669 0.000000 -0.002106 0.000000
# 3 -0.000206 -0.003669 0.011698 0.000000 -0.000170 0.000000
# 4 0.000000 0.000000 0.000000 0.036429 0.000000 -0.031586
# 5 -0.010778 -0.002106 -0.000170 0.000000 0.048501 0.000000
# 6 0.000000 0.000000 0.000000 -0.031586 0.000000 -0.062940
#
#
# Mechanical properties :
#
#
# Convention : Reuss Voigt Hill
#
# Bulk Modulus (GPa) = 26.80323 37.02610 31.91467
# Shear Modulus (GPa) = 49.95999 18.43292 34.19646
#
# Velocity S-wave (km/s) = 5.24463 3.18567 4.33904
# Velocity P-wave (km/s) = 7.17159 5.82379 6.53254
#
# Compressibility (1/GPa) = 0.03730893
#
# Stress axis : x y z
#
# Youngs Moduli (GPa) = 36.30161 81.72683 85.48326
#
# Poissons Ratio (x) = 0.26246 0.01757
# Poissons Ratio (y) = 0.11658 0.31364
# Poissons Ratio (z) = 0.00746 0.29986
#
# Static dielectric constant tensor:
#      x y z
#    x 1.607700 0.000000 0.018540 
#    y 0.000000 1.618980 0.000000 
#    z 0.018540 0.000000 1.652360 
# 
# From -- ./inp_files/30706.got.cif
#   From: 2010.05.17/outbox.cif.g08.bks.cpg/sg15_16_cif.got.tgz:30706.got - 2010.06.03 18:47:42.
