data_PCOD9264709
_publ_section_title
;
Structure prediction by ZEFSAII (Michael W. Deem and Ramdas Pophale) SiO2 
 PCOD9264709
Probable space group: C 2/C
;
_chemical_formula_sum "Si O2"
_cell_formula_units_Z 56
_cell_length_a 15.709756
_cell_length_b 11.494458
_cell_length_c 18.961957
_cell_angle_alpha 90.000000
_cell_angle_beta 130.071820
_cell_angle_gamma 90.000000
_cell_volume 2620.219566
_symmetry_space_group_name_H-M "C 2/C"
_symmetry_group_IT_number 15
_symmetry_cell_setting 'monoclinic'
loop_
_space_group_symop_operation_xyz
x,y,z
-x,y,1/2-z
-x,-y,-z
x,-y,1/2+z
1/2+x,1/2+y,z
1/2-x,1/2+y,1/2-z
1/2-x,1/2-y,-z
1/2+x,1/2-y,1/2+z
loop_
_atom_site_type_symbol
_atom_site_label
_atom_site_fract_x
_atom_site_fract_y
_atom_site_fract_z
Si Si1 0.084559 0.322675 0.515993
Si Si2 0.547874 0.573836 0.633610
Si Si3 0.500000 0.559943 0.250000
Si Si4 0.828710 0.746379 0.657621
Si Si5 0.000000 0.541665 0.750000
Si Si6 0.438890 0.010046 0.368035
Si Si7 0.767485 0.303066 0.281474
Si Si8 0.396069 0.637922 0.434948
O O1 0.204133 0.267435 0.565106
O O2 0.074238 0.379988 0.588409
O O3 0.044413 0.431198 0.447755
O O4 0.996241 0.219657 0.460285
O O5 0.530346 0.514877 0.698871
O O6 0.640713 0.670399 0.696635
O O7 0.433709 0.614334 0.535135
O O8 0.601700 0.482024 0.606817
O O9 0.598461 0.644959 0.326285
O O10 0.821497 0.749480 0.739242
O O11 0.896865 0.629285 0.676562
O O12 0.041728 0.470682 0.704429
O O13 0.332690 0.925673 0.325848
O O14 0.789778 0.215086 0.357637
#
# Coordination Sequence:
#
# PCOD9264709 Si02
#       8
#     8   8   4   8   4   8   8   8
#     4  10  19  37  60  86 117 164 209 241 298 378
#     4  11  22  39  64  93 129 164 206 259 313 362
#     4  11  22  38  59  96 130 158 201 268 321 350
#     4  10  19  35  62  86 120 163 201 256 309 347
#     4   9  20  36  51  92 126 146 197 258 313 342
#     4   9  20  34  57  89 122 156 200 256 302 363
#     4  10  19  38  64  89 122 169 212 246 300 378
#     4  10  22  39  63  92 121 167 219 248 294 395
#
# _framework density 21.372254999999999
#
# number of rings (size 3 to 8) (size 9 to 14) (size 15 to 20)
#    0.000    2.000    2.857    0.857    2.000    0.571 
#    0.000    1.429    0.000    0.000    0.000    0.000 
#    0.000    0.000    0.000    0.000    0.000    0.000 
#
# Total GULP energy -156335.870869 kJ/mol
# GULP energy per Si atom -5583.423960 kJ/mol
# Density = 2.132361 g / cm^3
# Si number density = 21.372255 Si / 1000 Ang^3
#
#
#
# Elastic Constant Matrix: (Units=GPa)
#
#
# Indices 1 2 3 4 5 6 
#
# 1 41.2275 5.2130 12.1640 0.0000 -8.0233 0.0000
# 2 5.2130 41.7963 35.3969 0.0000 8.3551 0.0000
# 3 12.1640 35.3969 89.6663 0.0000 2.0235 0.0000
# 4 0.0000 0.0000 0.0000 18.3151 0.0000 -5.2246
# 5 -8.0233 8.3551 2.0235 0.0000 32.3624 0.0000
# 6 0.0000 0.0000 0.0000 -5.2246 0.0000 13.6014
#
#
#
# Elastic Compliance Matrix: (Units=1/GPa)
#
#
# Indices 1 2 3 4 5 6 
#
# 1 0.026857 -0.002424 -0.002855 0.000000 0.007463 0.000000
# 2 -0.002424 0.038597 -0.014690 0.000000 -0.009647 0.000000
# 3 -0.002855 -0.014690 0.017294 0.000000 0.002003 0.000000
# 4 0.000000 0.000000 0.000000 0.061319 0.000000 0.023554
# 5 0.007463 -0.009647 0.002003 0.000000 0.035116 0.000000
# 6 0.000000 0.000000 0.000000 0.023554 0.000000 0.082570
#
#
# Mechanical properties :
#
#
# Convention : Reuss Voigt Hill
#
# Bulk Modulus (GPa) = 23.35896 30.91531 27.13714
# Shear Modulus (GPa) = 15.82479 20.85018 18.33749
#
# Velocity S-wave (km/s) = 2.72405 3.12680 2.93235
# Velocity P-wave (km/s) = 4.56588 5.24714 4.91832
#
# Compressibility (1/GPa) = 0.04281012
#
# Stress axis : x y z
#
# Youngs Moduli (GPa) = 37.23456 25.90850 57.82440
#
# Poissons Ratio (x) = 0.06279 0.16509
# Poissons Ratio (y) = 0.09024 0.84946
# Poissons Ratio (z) = 0.10631 0.38060
#
# Static dielectric constant tensor:
#      x y z
#    x 1.739260 0.000000 0.018390 
#    y 0.000000 1.767560 0.000000 
#    z 0.018390 0.000000 1.861970 
# 
# From -- ./inp_files/160866.got.cif
#   From: 2010.05.17/outbox.cif.g08.bks.cpg/sg15_81_cif.got.tgz:160866.got - 2010.06.03 18:47:42.
