data_PCOD9264486
_publ_section_title
;
Structure prediction by ZEFSAII (Michael W. Deem and Ramdas Pophale) SiO2 
 PCOD9264486
Probable space group: C 2/C
;
_chemical_formula_sum "Si O2"
_cell_formula_units_Z 44
_cell_length_a 11.098877
_cell_length_b 14.879825
_cell_length_c 12.906174
_cell_angle_alpha 90.000000
_cell_angle_beta 72.291869
_cell_angle_gamma 90.000000
_cell_volume 2030.454724
_symmetry_space_group_name_H-M "C 2/C"
_symmetry_group_IT_number 15
_symmetry_cell_setting 'monoclinic'
loop_
_space_group_symop_operation_xyz
x,y,z
-x,y,1/2-z
-x,-y,-z
x,-y,1/2+z
1/2+x,1/2+y,z
1/2-x,1/2+y,1/2-z
1/2-x,1/2-y,-z
1/2+x,1/2-y,1/2+z
loop_
_atom_site_type_symbol
_atom_site_label
_atom_site_fract_x
_atom_site_fract_y
_atom_site_fract_z
Si Si1 0.000000 0.528047 0.750000
Si Si2 0.592861 0.079678 0.512072
Si Si3 0.468169 0.256454 0.452206
Si Si4 0.763110 0.257179 0.832659
Si Si5 0.884983 0.097566 0.700249
Si Si6 0.264008 0.932049 0.710230
O O1 0.075929 0.581785 0.640364
O O2 0.103303 0.466085 0.778073
O O3 0.545408 0.172716 0.475880
O O4 0.724475 0.058292 0.417751
O O5 0.500000 0.000000 0.500000
O O6 0.354869 0.272873 0.561858
O O7 0.391753 0.231222 0.366581
O O8 0.558166 0.341969 0.407171
O O9 0.774120 0.157355 0.782682
O O10 0.750776 0.329501 0.745946
O O11 0.000000 0.093458 0.750000
O O12 0.835596 0.996559 0.706472
#
# Coordination Sequence:
#
# PCOD9264486 Si02
#       6
#     4   8   8   8   8   8
#     4  10  22  34  60  92 120 158 216 250 308 372
#     4  10  19  35  59  86 119 157 206 255 302 361
#     4  10  20  36  61  90 123 160 215 262 301 361
#     4  10  19  35  62  91 121 161 209 262 309 359
#     4  10  22  38  61  94 126 161 211 258 306 373
#     4  11  21  37  64  90 125 163 208 259 317 366
#
# _framework density 21.670020999999998
#
# number of rings (size 3 to 8) (size 9 to 14) (size 15 to 20)
#    0.000    1.818    1.818    4.364    1.273    3.636 
#    0.000    0.909    8.000    0.000    0.000    0.000 
#    0.000    0.000    0.000    0.000    0.000    0.000 
#
# Total GULP energy -122703.083930 kJ/mol
# GULP energy per Si atom -5577.412906 kJ/mol
# Density = 2.162070 g / cm^3
# Si number density = 21.670021 Si / 1000 Ang^3
#
#
#
# Elastic Constant Matrix: (Units=GPa)
#
#
# Indices 1 2 3 4 5 6 
#
# 1 17.8174 7.0146 14.1235 0.0000 -9.1268 0.0000
# 2 7.0146 66.4587 10.2324 0.0000 1.1819 0.0000
# 3 14.1235 10.2324 124.5478 0.0000 -18.3025 0.0000
# 4 0.0000 0.0000 0.0000 21.5880 0.0000 -1.5105
# 5 -9.1268 1.1819 -18.3025 0.0000 24.1606 0.0000
# 6 0.0000 0.0000 0.0000 -1.5105 0.0000 17.9319
#
#
#
# Elastic Compliance Matrix: (Units=1/GPa)
#
#
# Indices 1 2 3 4 5 6 
#
# 1 0.075729 -0.007814 -0.004147 0.000000 0.025848 0.000000
# 2 -0.007814 0.016124 -0.001112 0.000000 -0.004583 0.000000
# 3 -0.004147 -0.001112 0.009417 0.000000 0.005621 0.000000
# 4 0.000000 0.000000 0.000000 0.046597 0.000000 0.003925
# 5 0.025848 -0.004583 0.005621 0.000000 0.055636 0.000000
# 6 0.000000 0.000000 0.000000 0.003925 0.000000 0.056097
#
#
# Mechanical properties :
#
#
# Convention : Reuss Voigt Hill
#
# Bulk Modulus (GPa) = 13.31149 30.17387 21.74268
# Shear Modulus (GPa) = 16.08815 24.56634 20.32725
#
# Velocity S-wave (km/s) = 2.72769 3.37063 3.06606
# Velocity P-wave (km/s) = 4.00955 5.39469 4.75285
#
# Compressibility (1/GPa) = 0.07512308
#
# Stress axis : x y z
#
# Youngs Moduli (GPa) = 13.20503 62.01770 106.19380
#
# Poissons Ratio (x) = 0.48462 0.44040
# Poissons Ratio (y) = 0.10319 0.11810
# Poissons Ratio (z) = 0.05476 0.06897
#
# Static dielectric constant tensor:
#      x y z
#    x 1.786780 0.000000 -0.020700 
#    y 0.000000 1.746350 0.000000 
#    z -0.020700 0.000000 1.904430 
# 
# From -- ./inp_files/151724.got.cif
#   From: 2010.05.17/outbox.cif.g08.bks.cpg/sg15_76_cif.got.tgz:151724.got - 2010.06.03 18:47:42.
