data_PCOD9264538
_publ_section_title
;
Structure prediction by ZEFSAII (Michael W. Deem and Ramdas Pophale) SiO2 
 PCOD9264538
Probable space group: C 2/C
;
_chemical_formula_sum "Si O2"
_cell_formula_units_Z 52
_cell_length_a 16.102473
_cell_length_b 27.647697
_cell_length_c 14.494476
_cell_angle_alpha 90.000000
_cell_angle_beta 156.678684
_cell_angle_gamma 90.000000
_cell_volume 2554.615167
_symmetry_space_group_name_H-M "C 2/C"
_symmetry_group_IT_number 15
_symmetry_cell_setting 'monoclinic'
loop_
_space_group_symop_operation_xyz
x,y,z
-x,y,1/2-z
-x,-y,-z
x,-y,1/2+z
1/2+x,1/2+y,z
1/2-x,1/2+y,1/2-z
1/2-x,1/2-y,-z
1/2+x,1/2-y,1/2+z
loop_
_atom_site_type_symbol
_atom_site_label
_atom_site_fract_x
_atom_site_fract_y
_atom_site_fract_z
Si Si1 0.000000 0.363101 0.750000
Si Si2 0.873380 0.977686 0.783792
Si Si3 0.312970 0.704924 0.498715
Si Si4 0.693124 0.419768 0.312361
Si Si5 0.389079 0.654703 0.407152
Si Si6 0.502411 0.907690 0.453479
Si Si7 0.896777 0.881207 0.548368
O O1 0.892121 0.328093 0.713479
O O2 0.820301 0.393801 0.521432
O O3 0.650243 0.953563 0.581792
O O4 0.001207 0.933632 0.870723
O O5 0.849777 0.025766 0.700178
O O6 0.000000 0.000000 0.000000
O O7 0.250000 0.750000 0.500000
O O8 0.388317 0.702933 0.469639
O O9 0.500000 0.682729 0.750000
O O10 0.848556 0.420116 0.381733
O O11 0.493442 0.388202 0.076389
O O12 0.530409 0.654703 0.459503
O O13 0.162911 0.634924 0.145322
O O14 0.351407 0.890408 0.216180
O O15 0.000000 0.866000 0.750000
#
# Coordination Sequence:
#
# PCOD9264538 Si02
#       7
#     4   8   8   8   8   8   8
#     4  12  24  36  58  88 124 166 198 248 314 372
#     4  11  20  34  52  83 113 168 217 267 304 349
#     4  12  24  41  64  94 129 153 195 246 317 407
#     4  11  21  34  52  83 117 165 208 248 305 365
#     4  10  21  38  60  85 119 162 205 253 311 379
#     4  10  19  35  60  74 121 162 214 261 316 349
#     4  10  23  39  57  85 121 163 226 265 307 358
#
# _framework density 20.355316999999999
#
# number of rings (size 3 to 8) (size 9 to 14) (size 15 to 20)
#    0.000    1.231    8.462    0.462    0.000    3.692 
#    2.769    0.000    0.000    0.000    0.000    1.077 
#    0.000    0.000    0.000    0.000    0.000    0.000 
#
# Total GULP energy -144907.766477 kJ/mol
# GULP energy per Si atom -5573.375634 kJ/mol
# Density = 2.030899 g / cm^3
# Si number density = 20.355317 Si / 1000 Ang^3
#
#
#
# Elastic Constant Matrix: (Units=GPa)
#
#
# Indices 1 2 3 4 5 6 
#
# 1 66.8153 30.9928 37.5968 -0.0001 -14.9883 -0.0001
# 2 30.9928 64.8226 27.7527 0.0000 -8.7135 0.0000
# 3 37.5968 27.7527 134.3907 -0.0003 -2.0708 -0.0002
# 4 -0.0001 0.0000 -0.0003 14.3573 -0.0001 -2.0793
# 5 -14.9883 -8.7135 -2.0708 -0.0001 32.9033 -0.0001
# 6 -0.0001 0.0000 -0.0002 -2.0793 -0.0001 27.1265
#
#
#
# Elastic Compliance Matrix: (Units=1/GPa)
#
#
# Indices 1 2 3 4 5 6 
#
# 1 0.023125 -0.007950 -0.004702 0.000000 0.008133 0.000000
# 2 -0.007950 0.020276 -0.001938 0.000000 0.001626 0.000000
# 3 -0.004702 -0.001938 0.009125 0.000000 -0.002081 0.000000
# 4 0.000000 0.000000 0.000000 0.070433 0.000000 0.005399
# 5 0.008133 0.001626 -0.002081 0.000000 0.034396 0.000000
# 6 0.000000 0.000000 0.000000 0.005399 0.000000 0.037278
#
#
# Mechanical properties :
#
#
# Convention : Reuss Voigt Hill
#
# Bulk Modulus (GPa) = 42.83597 50.96814 46.90205
# Shear Modulus (GPa) = 21.58947 26.18985 23.88966
#
# Velocity S-wave (km/s) = 3.26027 3.59086 3.42955
# Velocity P-wave (km/s) = 5.93820 6.50276 6.22689
#
# Compressibility (1/GPa) = 0.02334487
#
# Stress axis : x y z
#
# Youngs Moduli (GPa) = 43.24410 49.31927 109.59339
#
# Poissons Ratio (x) = 0.39208 0.51533
# Poissons Ratio (y) = 0.34379 0.21240
# Poissons Ratio (z) = 0.20334 0.09558
#
# Static dielectric constant tensor:
#      x y z
#    x 1.832630 0.000000 0.018970 
#    y 0.000000 1.764440 0.000000 
#    z 0.018970 0.000000 1.756310 
# 
# From -- ./inp_files/164587.got.cif
#   From: 2010.05.17/outbox.cif.g08.bks.cpg/sg15_83_cif.got.tgz:164587.got - 2010.06.03 18:47:42.
