data_PCOD9264151
_publ_section_title
;
Structure prediction by ZEFSAII (Michael W. Deem and Ramdas Pophale) SiO2 
 PCOD9264151
Probable space group: C 2/C
;
_chemical_formula_sum "Si O2"
_cell_formula_units_Z 40
_cell_length_a 20.436494
_cell_length_b 8.524205
_cell_length_c 17.011012
_cell_angle_alpha 90.000000
_cell_angle_beta 39.526021
_cell_angle_gamma 90.000000
_cell_volume 1885.993143
_symmetry_space_group_name_H-M "C 2/C"
_symmetry_group_IT_number 15
_symmetry_cell_setting 'monoclinic'
loop_
_space_group_symop_operation_xyz
x,y,z
-x,y,1/2-z
-x,-y,-z
x,-y,1/2+z
1/2+x,1/2+y,z
1/2-x,1/2+y,1/2-z
1/2-x,1/2-y,-z
1/2+x,1/2-y,1/2+z
loop_
_atom_site_type_symbol
_atom_site_label
_atom_site_fract_x
_atom_site_fract_y
_atom_site_fract_z
Si Si1 0.846075 0.819134 0.578363
Si Si2 0.981460 0.731516 0.963247
Si Si3 0.650535 0.435075 0.534592
Si Si4 0.787931 0.529462 0.171095
Si Si5 0.653063 0.750744 0.183565
O O1 0.794363 0.649503 0.637976
O O2 0.771061 0.941872 0.692728
O O3 0.953948 0.805899 0.525187
O O4 0.858080 0.882152 0.478861
O O5 0.066476 0.678259 0.820436
O O6 0.913637 0.854630 0.976609
O O7 0.902485 0.600079 0.065271
O O8 0.612824 0.358452 0.650404
O O9 0.769808 0.380990 0.421410
O O10 0.721911 0.634326 0.172448
#
# Coordination Sequence:
#
# PCOD9264151 Si02
#       5
#     8   8   8   8   8
#     4  11  21  35  56  84 113 144 184 230 279 329
#     4  10  19  35  56  80 109 145 184 226 276 330
#     4  10  20  35  56  80 109 145 184 226 275 332
#     4  10  21  36  56  82 112 145 184 230 278 330
#     4   9  20  37  56  79 109 147 185 225 277 333
#
# _framework density 21.208984999999998
#
# number of rings (size 3 to 8) (size 9 to 14) (size 15 to 20)
#    0.000    2.000    0.000    5.400    0.000    2.400 
#    0.000    0.000    0.000    7.200    0.000    0.000 
#    0.000    0.000    0.000    0.000    0.000    0.000 
#
# Total GULP energy -111646.017558 kJ/mol
# GULP energy per Si atom -5582.300878 kJ/mol
# Density = 2.116071 g / cm^3
# Si number density = 21.208985 Si / 1000 Ang^3
#
#
#
# Elastic Constant Matrix: (Units=GPa)
#
#
# Indices 1 2 3 4 5 6 
#
# 1 64.4082 14.8758 47.4768 0.0000 -1.2895 0.0000
# 2 14.8758 47.2065 7.5685 -0.0001 -1.8860 0.0000
# 3 47.4768 7.5685 91.6256 0.0000 -15.0071 0.0000
# 4 0.0000 -0.0001 0.0000 33.3260 0.0000 5.4345
# 5 -1.2895 -1.8860 -15.0071 0.0000 33.6035 0.0000
# 6 0.0000 0.0000 0.0000 5.4345 0.0000 18.3964
#
#
#
# Elastic Compliance Matrix: (Units=1/GPa)
#
#
# Indices 1 2 3 4 5 6 
#
# 1 0.027920 -0.006648 -0.014893 0.000000 -0.005953 0.000000
# 2 -0.006648 0.023057 0.001846 0.000000 0.001863 0.000000
# 3 -0.014893 0.001846 0.019854 0.000000 0.008399 0.000000
# 4 0.000000 0.000000 0.000000 0.031525 0.000000 -0.009313
# 5 -0.005953 0.001863 0.008399 0.000000 0.033386 0.000000
# 6 0.000000 0.000000 0.000000 -0.009313 0.000000 0.057110
#
#
# Mechanical properties :
#
#
# Convention : Reuss Voigt Hill
#
# Bulk Modulus (GPa) = 31.80684 38.12027 34.96356
# Shear Modulus (GPa) = 20.59949 25.95311 23.27630
#
# Velocity S-wave (km/s) = 3.11989 3.50192 3.31641
# Velocity P-wave (km/s) = 5.29223 5.86207 5.58442
#
# Compressibility (1/GPa) = 0.03143978
#
# Stress axis : x y z
#
# Youngs Moduli (GPa) = 35.81612 43.37056 50.36721
#
# Poissons Ratio (x) = 0.28835 0.75012
# Poissons Ratio (y) = 0.23812 -0.09296
# Poissons Ratio (z) = 0.53341 -0.08004
#
# Static dielectric constant tensor:
#      x y z
#    x 1.784920 0.000000 0.014260 
#    y 0.000000 1.785090 0.000000 
#    z 0.014260 0.000000 1.813940 
# 
# From -- ./inp_files/116553.got.cif
#   From: 2010.05.17/outbox.cif.g08.bks.cpg/sg15_59_cif.got.tgz:116553.got - 2010.06.03 18:47:42.
