data_PCOD9264017
_publ_section_title
;
Structure prediction by ZEFSAII (Michael W. Deem and Ramdas Pophale) SiO2 
 PCOD9264017
Probable space group: C 2/C
;
_chemical_formula_sum "Si O2"
_cell_formula_units_Z 48
_cell_length_a 13.522285
_cell_length_b 31.679289
_cell_length_c 5.787250
_cell_angle_alpha 90.000000
_cell_angle_beta 79.946331
_cell_angle_gamma 90.000000
_cell_volume 2441.053436
_symmetry_space_group_name_H-M "C 2/C"
_symmetry_group_IT_number 15
_symmetry_cell_setting 'monoclinic'
loop_
_space_group_symop_operation_xyz
x,y,z
-x,y,1/2-z
-x,-y,-z
x,-y,1/2+z
1/2+x,1/2+y,z
1/2-x,1/2+y,1/2-z
1/2-x,1/2-y,-z
1/2+x,1/2-y,1/2+z
loop_
_atom_site_type_symbol
_atom_site_label
_atom_site_fract_x
_atom_site_fract_y
_atom_site_fract_z
Si Si1 0.688253 0.615226 0.122683
Si Si2 0.767157 0.324724 0.967085
Si Si3 0.879298 0.980706 0.803203
Si Si4 0.909949 0.720704 0.099785
Si Si5 0.606717 0.138307 0.709180
Si Si6 0.906736 0.187888 0.615573
O O1 0.708710 0.639416 0.351984
O O2 0.649519 0.568371 0.169771
O O3 0.795567 0.616387 0.943230
O O4 0.609894 0.645893 0.024264
O O5 0.807864 0.288779 0.782477
O O6 0.861203 0.347569 0.049048
O O7 0.694308 0.308066 0.192862
O O8 0.000000 0.985384 0.750000
O O9 0.844296 0.998554 0.564384
O O10 0.913787 0.767009 0.984796
O O11 0.000000 0.719922 0.250000
O O12 0.912055 0.681494 0.926254
O O13 0.500000 0.114785 0.750000
O O14 0.000000 0.183766 0.750000
#
# Coordination Sequence:
#
# PCOD9264017 Si02
#       6
#     8   8   8   8   8   8
#     4  10  24  38  60  91 119 153 203 256 313 375
#     4  10  21  35  56  80 115 162 203 262 295 362
#     4  10  24  44  72  98 127 165 200 247 313 392
#     4  10  19  35  53  80 115 165 215 251 299 356
#     4  10  20  37  60  83 117 161 210 255 300 359
#     4  10  23  35  52  83 121 164 204 254 310 357
#
# _framework density 19.663640999999998
#
# number of rings (size 3 to 8) (size 9 to 14) (size 15 to 20)
#    0.000    2.000    1.667    0.500    7.000    8.000 
#    0.000    0.000    0.000    1.000    0.000    0.000 
#    0.000    0.000    0.000    0.000    0.000    0.000 
#
# Total GULP energy -133886.080871 kJ/mol
# GULP energy per Si atom -5578.586703 kJ/mol
# Density = 1.961889 g / cm^3
# Si number density = 19.663641 Si / 1000 Ang^3
#
#
#
# Elastic Constant Matrix: (Units=GPa)
#
#
# Indices 1 2 3 4 5 6 
#
# 1 37.4680 -13.1809 2.0323 0.0000 14.5639 0.0000
# 2 -13.1809 105.6462 42.6793 0.0000 17.7652 0.0000
# 3 2.0323 42.6793 75.5987 0.0000 8.6282 0.0000
# 4 0.0000 0.0000 0.0000 19.2033 0.0000 28.5363
# 5 14.5639 17.7652 8.6282 0.0000 31.6598 0.0000
# 6 0.0000 0.0000 0.0000 28.5363 0.0000 75.3340
#
#
#
# Elastic Compliance Matrix: (Units=1/GPa)
#
#
# Indices 1 2 3 4 5 6 
#
# 1 0.039563 0.010576 -0.004417 0.000000 -0.022930 0.000000
# 2 0.010576 0.015963 -0.007966 0.000000 -0.011651 0.000000
# 3 -0.004417 -0.007966 0.017651 0.000000 0.001692 0.000000
# 4 0.000000 0.000000 0.000000 0.119134 0.000000 -0.045128
# 5 -0.022930 -0.011651 0.001692 0.000000 0.048211 0.000000
# 6 0.000000 0.000000 0.000000 -0.045128 0.000000 0.030368
#
#
# Mechanical properties :
#
#
# Convention : Reuss Voigt Hill
#
# Bulk Modulus (GPa) = 14.37573 31.30827 22.84200
# Shear Modulus (GPa) = 16.79592 37.71825 27.25708
#
# Velocity S-wave (km/s) = 2.92577 4.38445 3.72717
# Velocity P-wave (km/s) = 4.32900 6.44885 5.49217
#
# Compressibility (1/GPa) = 0.06956171
#
# Stress axis : x y z
#
# Youngs Moduli (GPa) = 25.27629 62.64641 56.65481
#
# Poissons Ratio (x) = -0.66258 0.25027
# Poissons Ratio (y) = -0.26733 0.45133
# Poissons Ratio (z) = 0.11166 0.49906
#
# Static dielectric constant tensor:
#      x y z
#    x 1.744320 0.000000 -0.003110 
#    y 0.000000 1.642320 0.000000 
#    z -0.003110 0.000000 1.746310 
# 
# From -- ./inp_files/8229.got.cif
#   From: 2010.05.17/outbox.cif.g08.bks.cpg/sg15_5_cif.got.tgz:8229.got - 2010.06.03 18:47:42.
