data_PCOD9264590
_publ_section_title
;
Structure prediction by ZEFSAII (Michael W. Deem and Ramdas Pophale) SiO2 
 PCOD9264590
Probable space group: C 2/C
;
_chemical_formula_sum "Si O2"
_cell_formula_units_Z 56
_cell_length_a 9.190917
_cell_length_b 29.966613
_cell_length_c 13.981392
_cell_angle_alpha 90.000000
_cell_angle_beta 134.916047
_cell_angle_gamma 90.000000
_cell_volume 2726.888241
_symmetry_space_group_name_H-M "C 2/C"
_symmetry_group_IT_number 15
_symmetry_cell_setting 'monoclinic'
loop_
_space_group_symop_operation_xyz
x,y,z
-x,y,1/2-z
-x,-y,-z
x,-y,1/2+z
1/2+x,1/2+y,z
1/2-x,1/2+y,1/2-z
1/2-x,1/2-y,-z
1/2+x,1/2-y,1/2+z
loop_
_atom_site_type_symbol
_atom_site_label
_atom_site_fract_x
_atom_site_fract_y
_atom_site_fract_z
Si Si1 0.144748 0.528712 0.462280
Si Si2 0.338816 0.689875 0.950541
Si Si3 0.500000 0.121319 0.750000
Si Si4 0.754887 0.211078 0.124350
Si Si5 0.582601 0.928326 0.485828
Si Si6 0.774331 0.947751 0.828086
Si Si7 0.500000 0.568520 0.250000
Si Si8 0.703365 0.841696 0.786434
O O1 0.158771 0.479738 0.512168
O O2 0.307744 0.538898 0.453886
O O3 0.104568 0.566293 0.525236
O O4 0.927139 0.528449 0.306015
O O5 0.329308 0.738977 0.900865
O O6 0.201473 0.652688 0.834871
O O7 0.226928 0.695645 0.002219
O O8 0.575757 0.676315 0.074511
O O9 0.475401 0.091676 0.642996
O O10 0.672992 0.178033 0.166566
O O11 0.000000 0.213811 0.250000
O O12 0.791248 0.905406 0.623413
O O13 0.937473 0.955373 0.819958
O O14 0.726398 0.895032 0.804285
O O15 0.500000 0.828782 0.750000
#
# Coordination Sequence:
#
# PCOD9264590 Si02
#       8
#     8   8   4   8   8   8   4   8
#     4   9  19  39  59  81 126 172 200 249 329 371
#     4  10  22  38  62  91 121 164 206 260 322 367
#     4  12  22  36  65 100 130 154 216 276 311 372
#     4   9  20  40  63  88 120 161 210 257 313 379
#     4  10  22  38  63  91 123 168 208 262 315 383
#     4  10  19  35  60  88 122 157 211 262 307 372
#     4  10  22  36  59  94 114 160 224 256 309 376
#     4  11  22  36  63  90 119 166 211 257 308 381
#
# _framework density 20.536228000000001
#
# number of rings (size 3 to 8) (size 9 to 14) (size 15 to 20)
#    0.000    2.000    2.143    1.714    7.000    1.143 
#    0.000    4.286    3.143    1.714    0.000    0.000 
#    0.000    0.000    0.000    0.000    0.000    0.000 
#
# Total GULP energy -156051.442505 kJ/mol
# GULP energy per Si atom -5573.265804 kJ/mol
# Density = 2.048949 g / cm^3
# Si number density = 20.536228 Si / 1000 Ang^3
#
#
#
# Elastic Constant Matrix: (Units=GPa)
#
#
# Indices 1 2 3 4 5 6 
#
# 1 149.2037 40.3421 42.2283 0.0000 -13.0688 0.0000
# 2 40.3421 73.6655 24.1093 0.0000 -11.1201 0.0000
# 3 42.2283 24.1093 74.3314 0.0000 -17.1906 0.0000
# 4 0.0000 0.0000 0.0000 38.1164 0.0000 14.0810
# 5 -13.0688 -11.1201 -17.1906 0.0000 31.3196 0.0000
# 6 0.0000 0.0000 0.0000 14.0810 0.0000 55.6992
#
#
#
# Elastic Compliance Matrix: (Units=1/GPa)
#
#
# Indices 1 2 3 4 5 6 
#
# 1 0.008742 -0.003509 -0.003749 0.000000 0.000344 0.000000
# 2 -0.003509 0.016859 -0.002782 0.000000 0.002995 0.000000
# 3 -0.003749 -0.002782 0.018206 0.000000 0.007441 0.000000
# 4 0.000000 0.000000 0.000000 0.028938 0.000000 -0.007316
# 5 0.000344 0.002995 0.007441 0.000000 0.037220 0.000000
# 6 0.000000 0.000000 0.000000 -0.007316 0.000000 0.019803
#
#
# Mechanical properties :
#
#
# Convention : Reuss Voigt Hill
#
# Bulk Modulus (GPa) = 42.14454 56.72888 49.43671
# Shear Modulus (GPa) = 31.69431 37.72845 34.71138
#
# Velocity S-wave (km/s) = 3.93279 4.29087 4.11573
# Velocity P-wave (km/s) = 6.41787 7.22721 6.83453
#
# Compressibility (1/GPa) = 0.02372786
#
# Stress axis : x y z
#
# Youngs Moduli (GPa) = 114.38928 59.31561 54.92613
#
# Poissons Ratio (x) = 0.20811 0.20591
# Poissons Ratio (y) = 0.40135 0.15282
# Poissons Ratio (z) = 0.42882 0.16504
#
# Static dielectric constant tensor:
#      x y z
#    x 1.924410 0.000000 -0.390810 
#    y 0.000000 1.774650 0.000000 
#    z -0.390810 0.000000 2.866250 
# 
# From -- ./inp_files/139601.got.cif
#   From: 2010.05.17/outbox.cif.g08.bks.cpg/sg15_70_cif.got.tgz:139601.got - 2010.06.03 18:47:42.
