data_PCOD9264543
_publ_section_title
;
Structure prediction by ZEFSAII (Michael W. Deem and Ramdas Pophale) SiO2 
 PCOD9264543
Probable space group: C 2/C
;
_chemical_formula_sum "Si O2"
_cell_formula_units_Z 52
_cell_length_a 15.384082
_cell_length_b 11.105808
_cell_length_c 16.406680
_cell_angle_alpha 90.000000
_cell_angle_beta 52.571005
_cell_angle_gamma 90.000000
_cell_volume 2225.981557
_symmetry_space_group_name_H-M "C 2/C"
_symmetry_group_IT_number 15
_symmetry_cell_setting 'monoclinic'
loop_
_space_group_symop_operation_xyz
x,y,z
-x,y,1/2-z
-x,-y,-z
x,-y,1/2+z
1/2+x,1/2+y,z
1/2-x,1/2+y,1/2-z
1/2-x,1/2-y,-z
1/2+x,1/2-y,1/2+z
loop_
_atom_site_type_symbol
_atom_site_label
_atom_site_fract_x
_atom_site_fract_y
_atom_site_fract_z
Si Si1 0.210767 0.987516 0.160764
Si Si2 0.622468 0.275515 0.550430
Si Si3 0.293767 0.978713 0.287624
Si Si4 0.000000 0.618716 0.750000
Si Si5 0.696545 0.787852 0.851485
Si Si6 0.154889 0.053902 0.514584
Si Si7 0.960039 0.209699 0.687878
O O1 0.200455 0.130874 0.179195
O O2 0.229307 0.948449 0.056184
O O3 0.297589 0.981724 0.186221
O O4 0.107857 0.910225 0.247646
O O5 0.750000 0.250000 0.500000
O O6 0.549171 0.206694 0.655026
O O7 0.607933 0.206166 0.473332
O O8 0.603335 0.418647 0.551046
O O9 0.409657 0.965140 0.261810
O O10 0.237653 0.848153 0.330963
O O11 0.218089 0.060661 0.391840
O O12 0.628099 0.794196 0.806938
O O13 0.063123 0.157454 0.578023
O O14 0.000000 0.263432 0.750000
#
# Coordination Sequence:
#
# PCOD9264543 Si02
#       7
#     8   8   8   4   8   8   8
#     4  10  19  35  60  81 113 159 186 233 293 349
#     4  11  20  33  58  85 114 145 183 254 289 338
#     4  10  22  35  57  84 117 146 191 241 284 346
#     4  12  20  36  54  88 114 152 188 242 298 334
#     4  10  19  39  54  85 119 144 190 245 283 340
#     4  10  19  38  56  87 117 141 192 248 289 336
#     4   9  21  35  60  86 115 153 192 236 290 346
#
# _framework density 23.360481
#
# number of rings (size 3 to 8) (size 9 to 14) (size 15 to 20)
#    0.000    1.846    4.615    0.000    5.385    5.538 
#    1.385    3.077    0.000    2.769    0.000    0.000 
#    0.000    0.000    0.000    0.000    0.000    0.000 
#
# Total GULP energy -144742.965562 kJ/mol
# GULP energy per Si atom -5567.037137 kJ/mol
# Density = 2.330731 g / cm^3
# Si number density = 23.360481 Si / 1000 Ang^3
#
#
#
# Elastic Constant Matrix: (Units=GPa)
#
#
# Indices 1 2 3 4 5 6 
#
# 1 97.6008 -1.5164 16.5344 0.0000 20.3336 0.0000
# 2 -1.5164 29.5925 10.3613 0.0000 -0.9470 0.0000
# 3 16.5344 10.3613 71.0584 0.0000 14.8807 0.0000
# 4 0.0000 0.0000 0.0000 -0.7419 0.0000 19.3301
# 5 20.3336 -0.9470 14.8807 0.0000 34.2338 0.0000
# 6 0.0000 0.0000 0.0000 19.3301 0.0000 22.3649
#
#
#
# Elastic Compliance Matrix: (Units=1/GPa)
#
#
# Indices 1 2 3 4 5 6 
#
# 1 0.011845 0.000954 -0.001570 0.000000 -0.006326 0.000000
# 2 0.000954 0.036088 -0.006133 0.000000 0.003097 0.000000
# 3 -0.001570 -0.006133 0.016692 0.000000 -0.006493 0.000000
# 4 0.000000 0.000000 0.000000 -0.057310 0.000000 0.049533
# 5 -0.006326 0.003097 -0.006493 0.000000 0.035876 0.000000
# 6 0.000000 0.000000 0.000000 0.049533 0.000000 0.001901
#
#
# Mechanical properties :
#
#
# Convention : Reuss Voigt Hill
#
# Bulk Modulus (GPa) = 19.55918 27.66781 23.61349
# Shear Modulus (GPa) = 66.10965 22.69619 44.40292
#
# Velocity S-wave (km/s) = 5.32553 3.12037 4.36451
# Velocity P-wave (km/s) = 6.79749 4.98516 5.96061
#
# Compressibility (1/GPa) = 0.05112690
#
# Stress axis : x y z
#
# Youngs Moduli (GPa) = 84.42619 27.71031 59.90806
#
# Poissons Ratio (x) = -0.02645 0.09408
# Poissons Ratio (y) = -0.08057 0.36740
# Poissons Ratio (z) = 0.13259 0.16994
#
# Static dielectric constant tensor:
#      x y z
#    x 1.990310 0.000000 0.211950 
#    y 0.000000 2.117920 0.000000 
#    z 0.211950 0.000000 2.119050 
# 
# From -- ./inp_files/153857.got.cif
#   From: 2010.05.17/outbox.cif.g08.bks.cpg/sg15_77_cif.got.tgz:153857.got - 2010.06.03 18:47:42.
