data_PCOD9264123
_publ_section_title
;
Structure prediction by ZEFSAII (Michael W. Deem and Ramdas Pophale) SiO2 
 PCOD9264123
Probable space group: C 2/C
;
_chemical_formula_sum "Si O2"
_cell_formula_units_Z 48
_cell_length_a 5.555289
_cell_length_b 17.389711
_cell_length_c 21.241017
_cell_angle_alpha 90.000000
_cell_angle_beta 65.371334
_cell_angle_gamma 90.000000
_cell_volume 1865.311881
_symmetry_space_group_name_H-M "C 2/C"
_symmetry_group_IT_number 15
_symmetry_cell_setting 'monoclinic'
loop_
_space_group_symop_operation_xyz
x,y,z
-x,y,1/2-z
-x,-y,-z
x,-y,1/2+z
1/2+x,1/2+y,z
1/2-x,1/2+y,1/2-z
1/2-x,1/2-y,-z
1/2+x,1/2-y,1/2+z
loop_
_atom_site_type_symbol
_atom_site_label
_atom_site_fract_x
_atom_site_fract_y
_atom_site_fract_z
Si Si1 0.562983 0.816809 0.545796
Si Si2 0.465085 0.387838 0.936230
Si Si3 0.752505 0.497815 0.749038
Si Si4 0.997403 0.938720 0.401204
Si Si5 0.533050 0.117082 0.879571
Si Si6 0.433235 0.280924 0.829824
O O1 0.750000 0.750000 0.500000
O O2 0.316042 0.841825 0.527557
O O3 0.384170 0.786725 0.623866
O O4 0.775647 0.878543 0.548333
O O5 0.408569 0.477222 0.932435
O O6 0.548881 0.349934 0.859735
O O7 0.500000 0.454057 0.750000
O O8 0.646407 0.550297 0.817808
O O9 0.856840 0.552992 0.681913
O O10 0.000000 0.453012 0.750000
O O11 0.741090 0.888749 0.413826
O O12 0.224701 0.906222 0.421881
O O13 0.530200 0.201001 0.849870
O O14 0.500000 0.281026 0.750000
#
# Coordination Sequence:
#
# PCOD9264123 Si02
#       6
#     8   8   8   8   8   8
#     4  10  23  45  68  90 125 180 222 265 333 397
#     4  10  23  40  66  96 125 168 222 273 317 385
#     4   8  15  27  44  70 107 161 189 218 288 381
#     4  10  19  35  55  86 123 163 206 253 314 385
#     4  10  20  34  56  84 129 171 201 243 328 393
#     4  10  24  40  63 103 132 165 215 279 323 386
#
# _framework density 25.732961
#
# number of rings (size 3 to 8) (size 9 to 14) (size 15 to 20)
#    1.000    1.333    0.000    3.000    2.333    2.667 
#    6.000    0.000    0.000    6.000    0.000    0.000 
#    0.000    0.000    0.000    0.000    0.000    0.000 
#
# Total GULP energy -134154.085001 kJ/mol
# GULP energy per Si atom -5589.753542 kJ/mol
# Density = 2.567439 g / cm^3
# Si number density = 25.732961 Si / 1000 Ang^3
#
#
#
# Elastic Constant Matrix: (Units=GPa)
#
#
# Indices 1 2 3 4 5 6 
#
# 1 267.4726 55.7841 57.3113 0.0000 -6.9503 0.0000
# 2 55.7841 109.1654 22.2080 0.0000 4.8747 0.0000
# 3 57.3113 22.2080 81.5082 0.0000 -20.1778 0.0000
# 4 0.0000 0.0000 0.0000 31.4641 0.0000 3.2318
# 5 -6.9503 4.8747 -20.1778 0.0000 39.6850 0.0000
# 6 0.0000 0.0000 0.0000 3.2318 0.0000 44.0471
#
#
#
# Elastic Compliance Matrix: (Units=1/GPa)
#
#
# Indices 1 2 3 4 5 6 
#
# 1 0.004734 -0.001799 -0.002950 0.000000 -0.000450 0.000000
# 2 -0.001799 0.010682 -0.002343 0.000000 -0.002819 0.000000
# 3 -0.002950 -0.002343 0.017074 0.000000 0.008452 0.000000
# 4 0.000000 0.000000 0.000000 0.032024 0.000000 -0.002350
# 5 -0.000450 -0.002819 0.008452 0.000000 0.029764 0.000000
# 6 0.000000 0.000000 0.000000 -0.002350 0.000000 0.022875
#
#
# Mechanical properties :
#
#
# Convention : Reuss Voigt Hill
#
# Bulk Modulus (GPa) = 54.62797 80.97255 67.80026
# Shear Modulus (GPa) = 36.37957 44.56210 40.47083
#
# Velocity S-wave (km/s) = 3.76404 4.16590 3.97006
# Velocity P-wave (km/s) = 6.33763 7.39421 6.88622
#
# Compressibility (1/GPa) = 0.01830564
#
# Stress axis : x y z
#
# Youngs Moduli (GPa) = 211.22325 93.61260 58.56890
#
# Poissons Ratio (x) = 0.16841 0.17278
# Poissons Ratio (y) = 0.38000 0.13725
# Poissons Ratio (z) = 0.62312 0.21937
#
# Static dielectric constant tensor:
#      x y z
#    x 2.051840 0.000000 0.057210 
#    y 0.000000 1.924030 0.000000 
#    z 0.057210 0.000000 2.173790 
# 
# From -- ./inp_files/285762.got.cif
#   From: 2010.05.17/outbox.cif.g08.bks.cpg/sg15_143_cif.got.tgz:285762.got - 2010.06.03 18:47:42.
