data_PCOD9264899
_publ_section_title
;
Structure prediction by ZEFSAII (Michael W. Deem and Ramdas Pophale) SiO2 
 PCOD9264899
Probable space group: C 2/C
;
_chemical_formula_sum "Si O2"
_cell_formula_units_Z 64
_cell_length_a 27.769821
_cell_length_b 17.271470
_cell_length_c 9.689695
_cell_angle_alpha 90.000000
_cell_angle_beta 122.791322
_cell_angle_gamma 90.000000
_cell_volume 3906.852411
_symmetry_space_group_name_H-M "C 2/C"
_symmetry_group_IT_number 15
_symmetry_cell_setting 'monoclinic'
loop_
_space_group_symop_operation_xyz
x,y,z
-x,y,1/2-z
-x,-y,-z
x,-y,1/2+z
1/2+x,1/2+y,z
1/2-x,1/2+y,1/2-z
1/2-x,1/2-y,-z
1/2+x,1/2-y,1/2+z
loop_
_atom_site_type_symbol
_atom_site_label
_atom_site_fract_x
_atom_site_fract_y
_atom_site_fract_z
Si Si1 0.313290 0.212644 0.770662
Si Si2 0.762140 0.588420 0.234718
Si Si3 0.653340 0.319932 0.462074
Si Si4 0.955871 0.915979 0.305880
Si Si5 0.264728 0.066045 0.565525
Si Si6 0.037300 0.093155 0.169539
Si Si7 0.344506 0.329786 0.580520
Si Si8 0.193193 0.752468 0.235638
O O1 0.309738 0.126363 0.704594
O O2 0.316751 0.268362 0.643257
O O3 0.254124 0.222727 0.763817
O O4 0.358218 0.248891 0.949739
O O5 0.769491 0.565943 0.406746
O O6 0.804286 0.659716 0.264341
O O7 0.698236 0.622933 0.108566
O O8 0.770702 0.516544 0.146657
O O9 0.598669 0.368034 0.327827
O O10 0.683291 0.286074 0.371330
O O11 0.000000 0.922458 0.250000
O O12 0.993022 0.879143 0.485307
O O13 0.942555 0.004528 0.329899
O O14 0.201164 0.100283 0.498831
O O15 0.094504 0.142508 0.271278
O O16 0.000000 0.093002 0.250000
O O17 0.350671 0.289765 0.441073
#
# Coordination Sequence:
#
# PCOD9264899 Si02
#       8
#     8   8   8   8   8   8   8   8
#     4  10  19  36  51  71 101 141 170 214 256 306
#     4  11  22  34  49  77 106 136 172 209 253 314
#     4  11  21  34  53  74 104 144 179 208 256 302
#     4  10  21  36  49  76 108 136 176 220 250 292
#     4  11  22  33  51  76 104 137 174 206 257 314
#     4  10  21  35  52  73 105 139 176 220 255 284
#     4  11  18  36  55  69 102 146 177 206 256 311
#     4  10  20  34  51  74 105 132 179 216 250 305
#
# _framework density 16.381474000000001
#
# number of rings (size 3 to 8) (size 9 to 14) (size 15 to 20)
#    0.000    1.500    3.750    4.500    5.250    0.000 
#    4.500    0.000    0.000    0.000    0.000    0.000 
#    0.000   20.000    0.000    0.000    0.000    0.000 
#
# Total GULP energy -178398.595374 kJ/mol
# GULP energy per Si atom -5574.956105 kJ/mol
# Density = 1.634419 g / cm^3
# Si number density = 16.381474 Si / 1000 Ang^3
#
#
#
# Elastic Constant Matrix: (Units=GPa)
#
#
# Indices 1 2 3 4 5 6 
#
# 1 33.8950 21.6261 19.6592 0.0000 0.0387 0.0000
# 2 21.6261 85.5185 43.2633 0.0000 -2.0468 0.0000
# 3 19.6592 43.2633 119.5427 0.0000 -5.8255 0.0000
# 4 0.0000 0.0000 0.0000 35.3266 0.0000 -3.4983
# 5 0.0387 -2.0468 -5.8255 0.0000 35.4302 0.0000
# 6 0.0000 0.0000 0.0000 -3.4983 0.0000 37.1346
#
#
#
# Elastic Compliance Matrix: (Units=1/GPa)
#
#
# Indices 1 2 3 4 5 6 
#
# 1 0.036205 -0.007520 -0.003282 0.000000 -0.001014 0.000000
# 2 -0.007520 0.015876 -0.004500 0.000000 0.000186 0.000000
# 3 -0.003282 -0.004500 0.010606 0.000000 0.001487 0.000000
# 4 0.000000 0.000000 0.000000 0.028574 0.000000 0.002692
# 5 -0.001014 0.000186 0.001487 0.000000 0.028481 0.000000
# 6 0.000000 0.000000 0.000000 0.002692 0.000000 0.027183
#
#
# Mechanical properties :
#
#
# Convention : Reuss Voigt Hill
#
# Bulk Modulus (GPa) = 31.16811 45.33925 38.25368
# Shear Modulus (GPa) = 26.56428 31.87211 29.21819
#
# Velocity S-wave (km/s) = 4.03128 4.41570 4.22786
# Velocity P-wave (km/s) = 6.38248 7.33043 6.87282
#
# Compressibility (1/GPa) = 0.03208408
#
# Stress axis : x y z
#
# Youngs Moduli (GPa) = 27.62017 62.98865 94.28626
#
# Poissons Ratio (x) = 0.47365 0.30946
# Poissons Ratio (y) = 0.20769 0.42428
# Poissons Ratio (z) = 0.09065 0.28344
#
# Static dielectric constant tensor:
#      x y z
#    x 1.516660 0.000000 0.004660 
#    y 0.000000 1.571910 0.000000 
#    z 0.004660 0.000000 1.587610 
# 
# From -- ./inp_files/69949.got.cif
#   From: 2010.05.17/outbox.cif.g08.bks.cpg/sg15_35_cif.got.tgz:69949.got - 2010.06.03 18:47:42.
