data_PCOD9264658
_publ_section_title
;
Structure prediction by ZEFSAII (Michael W. Deem and Ramdas Pophale) SiO2 
 PCOD9264658
Probable space group: C 2/C
;
_chemical_formula_sum "Si O2"
_cell_formula_units_Z 64
_cell_length_a 14.091162
_cell_length_b 14.601932
_cell_length_c 14.607003
_cell_angle_alpha 90.000000
_cell_angle_beta 103.701563
_cell_angle_gamma 90.000000
_cell_volume 2919.981651
_symmetry_space_group_name_H-M "C 2/C"
_symmetry_group_IT_number 15
_symmetry_cell_setting 'monoclinic'
loop_
_space_group_symop_operation_xyz
x,y,z
-x,y,1/2-z
-x,-y,-z
x,-y,1/2+z
1/2+x,1/2+y,z
1/2-x,1/2+y,1/2-z
1/2-x,1/2-y,-z
1/2+x,1/2-y,1/2+z
loop_
_atom_site_type_symbol
_atom_site_label
_atom_site_fract_x
_atom_site_fract_y
_atom_site_fract_z
Si Si1 0.395649 0.998488 0.626815
Si Si2 0.061791 0.176506 0.353535
Si Si3 0.452607 0.155628 0.529404
Si Si4 0.191903 0.973554 0.807278
Si Si5 0.905993 0.968587 0.898141
Si Si6 0.451226 0.191621 0.138051
Si Si7 0.607228 0.946133 0.174987
Si Si8 0.573817 0.400544 0.406213
O O1 0.525575 0.824534 0.570208
O O2 0.370812 0.891310 0.618203
O O3 0.370641 0.059226 0.710874
O O4 0.387738 0.066231 0.538632
O O5 0.157084 0.121114 0.343552
O O6 0.000000 0.208275 0.250000
O O7 0.088027 0.257341 0.427174
O O8 0.987755 0.105827 0.386337
O O9 0.557719 0.135555 0.605715
O O10 0.177660 0.964248 0.695528
O O11 0.297834 0.013081 0.848902
O O12 0.113521 0.046378 0.827235
O O13 0.872912 0.942701 0.992059
O O14 0.962710 0.065535 0.901779
O O15 0.500000 0.195519 0.250000
O O16 0.514251 0.012807 0.156260
O O17 0.412362 0.293546 0.106115
#
# Coordination Sequence:
#
# PCOD9264658 Si02
#       8
#     8   8   8   8   8   8   8   8
#     4   9  20  39  62  80 115 167 208 246 310 379
#     4   9  16  32  61  88 117 158 206 253 308 370
#     4  10  19  35  61  88 114 165 213 253 298 383
#     4  10  20  36  60  92 124 155 198 268 313 365
#     4   9  18  36  56  86 121 163 201 247 311 380
#     4  12  20  35  60  88 117 160 215 255 297 370
#     4   9  19  40  60  85 123 157 203 257 311 366
#     4  10  20  35  58  89 123 162 202 247 320 384
#
# _framework density 21.917946000000001
#
# number of rings (size 3 to 8) (size 9 to 14) (size 15 to 20)
#    0.750    1.500    2.500    3.000    0.000    0.000 
#    2.250    4.375    0.000    0.750    0.000    0.000 
#    0.000    0.000    0.000    0.000    0.000    0.000 
#
# Total GULP energy -178159.898598 kJ/mol
# GULP energy per Si atom -5567.496831 kJ/mol
# Density = 2.186806 g / cm^3
# Si number density = 21.917946 Si / 1000 Ang^3
#
#
#
# Elastic Constant Matrix: (Units=GPa)
#
#
# Indices 1 2 3 4 5 6 
#
# 1 41.4572 3.5250 -6.2236 0.0000 -3.9104 0.0000
# 2 3.5250 91.3329 34.7254 0.0000 -0.4260 0.0000
# 3 -6.2236 34.7254 119.6424 0.0000 -14.2316 0.0000
# 4 0.0000 0.0000 0.0000 32.5732 0.0000 -6.6635
# 5 -3.9104 -0.4260 -14.2316 0.0000 10.5434 0.0000
# 6 0.0000 0.0000 0.0000 -6.6635 0.0000 3.9337
#
#
#
# Elastic Compliance Matrix: (Units=1/GPa)
#
#
# Indices 1 2 3 4 5 6 
#
# 1 0.026298 -0.002401 0.003828 0.000000 0.014824 0.000000
# 2 -0.002401 0.012766 -0.004616 0.000000 -0.006605 0.000000
# 3 0.003828 -0.004616 0.011965 0.000000 0.017384 0.000000
# 4 0.000000 0.000000 0.000000 0.046981 0.000000 0.079584
# 5 0.014824 -0.006605 0.017384 0.000000 0.123542 0.000000
# 6 0.000000 0.000000 0.000000 0.079584 0.000000 0.389029
#
#
# Mechanical properties :
#
#
# Convention : Reuss Voigt Hill
#
# Bulk Modulus (GPa) = 22.39573 35.16513 28.78043
# Shear Modulus (GPa) = 7.91337 24.10375 16.00856
#
# Velocity S-wave (km/s) = 1.90218 3.31981 2.70550
# Velocity P-wave (km/s) = 3.88131 5.54740 4.78739
#
# Compressibility (1/GPa) = 0.04465137
#
# Stress axis : x y z
#
# Youngs Moduli (GPa) = 38.02510 78.33437 83.57781
#
# Poissons Ratio (x) = 0.18811 -0.31996
# Poissons Ratio (y) = 0.09131 0.38578
# Poissons Ratio (z) = -0.14557 0.36158
#
# Static dielectric constant tensor:
#      x y z
#    x 1.797260 0.000000 0.025680 
#    y 0.000000 1.843030 0.000000 
#    z 0.025680 0.000000 1.871940 
# 
# From -- ./inp_files/161945.got.cif
#   From: 2010.05.17/outbox.cif.g08.bks.cpg/sg15_81_cif.got.tgz:161945.got - 2010.06.03 18:47:42.
