data_PCOD9264869
_publ_section_title
;
Structure prediction by ZEFSAII (Michael W. Deem and Ramdas Pophale) SiO2 
 PCOD9264869
Probable space group: C 2/C
;
_chemical_formula_sum "Si O2"
_cell_formula_units_Z 48
_cell_length_a 5.768645
_cell_length_b 26.929232
_cell_length_c 15.543431
_cell_angle_alpha 90.000000
_cell_angle_beta 112.903759
_cell_angle_gamma 90.000000
_cell_volume 2224.229942
_symmetry_space_group_name_H-M "C 2/C"
_symmetry_group_IT_number 15
_symmetry_cell_setting 'monoclinic'
loop_
_space_group_symop_operation_xyz
x,y,z
-x,y,1/2-z
-x,-y,-z
x,-y,1/2+z
1/2+x,1/2+y,z
1/2-x,1/2+y,1/2-z
1/2-x,1/2-y,-z
1/2+x,1/2-y,1/2+z
loop_
_atom_site_type_symbol
_atom_site_label
_atom_site_fract_x
_atom_site_fract_y
_atom_site_fract_z
Si Si1 0.038713 0.357812 0.856073
Si Si2 0.999804 0.440139 0.144897
Si Si3 0.835522 0.844112 0.145987
Si Si4 0.588603 0.796248 0.507645
Si Si5 0.069513 0.116605 0.508724
Si Si6 0.198282 0.456864 0.696316
O O1 0.000593 0.308408 0.908059
O O2 0.847938 0.402903 0.850713
O O3 0.000000 0.346424 0.750000
O O4 0.308407 0.382927 0.918851
O O5 0.174513 0.393690 0.144042
O O6 0.111743 0.493373 0.135355
O O7 0.000000 0.438850 0.250000
O O8 0.731796 0.431488 0.059127
O O9 0.000000 0.829610 0.250000
O O10 0.653331 0.801021 0.087805
O O11 0.008075 0.859052 0.091723
O O12 0.750000 0.750000 0.500000
O O13 0.753963 0.844477 0.512375
O O14 0.500000 0.462013 0.750000
O O15 0.000000 0.455692 0.750000
#
# Coordination Sequence:
#
# PCOD9264869 Si02
#       6
#     8   8   8   8   8   8
#     4  10  24  44  69  92 137 191 229 290 348 422
#     4  10  19  35  66  97 138 181 229 289 344 415
#     4  10  19  37  65  94 135 173 223 287 363 413
#     4  10  24  44  67  95 133 171 230 301 350 431
#     4  10  22  40  64  98 131 178 225 295 350 415
#     4  10  23  39  67 102 141 191 246 286 341 428
#
# _framework density 21.580503
#
# number of rings (size 3 to 8) (size 9 to 14) (size 15 to 20)
#    0.000    2.000    1.667    0.500    7.000    3.333 
#    0.000   12.500    0.000    0.000    0.000    0.000 
#    0.000    0.000    0.000    0.000    0.000    0.000 
#
# Total GULP energy -133796.539492 kJ/mol
# GULP energy per Si atom -5574.855812 kJ/mol
# Density = 2.153138 g / cm^3
# Si number density = 21.580503 Si / 1000 Ang^3
#
#
#
# Elastic Constant Matrix: (Units=GPa)
#
#
# Indices 1 2 3 4 5 6 
#
# 1 96.0205 36.9944 60.6074 0.0000 17.1407 0.0000
# 2 36.9944 109.4180 61.5778 0.0000 7.4780 0.0000
# 3 60.6074 61.5778 176.8601 0.0000 18.3882 0.0000
# 4 0.0000 0.0000 0.0000 16.3049 0.0000 3.3491
# 5 17.1407 7.4780 18.3882 0.0000 37.1973 0.0000
# 6 0.0000 0.0000 0.0000 3.3491 0.0000 31.9344
#
#
#
# Elastic Compliance Matrix: (Units=1/GPa)
#
#
# Indices 1 2 3 4 5 6 
#
# 1 0.014458 -0.002558 -0.003610 0.000000 -0.004363 0.000000
# 2 -0.002558 0.011823 -0.003284 0.000000 0.000425 0.000000
# 3 -0.003610 -0.003284 0.008215 0.000000 -0.001737 0.000000
# 4 0.000000 0.000000 0.000000 0.062682 0.000000 -0.006574
# 5 -0.004363 0.000425 -0.001737 0.000000 0.029668 0.000000
# 6 0.000000 0.000000 0.000000 -0.006574 0.000000 0.032004
#
#
# Mechanical properties :
#
#
# Convention : Reuss Voigt Hill
#
# Bulk Modulus (GPa) = 64.13774 77.85090 70.99432
# Shear Modulus (GPa) = 27.32969 31.96192 29.64580
#
# Velocity S-wave (km/s) = 3.56252 3.85262 3.71041
# Velocity P-wave (km/s) = 6.83424 7.47952 7.16415
#
# Compressibility (1/GPa) = 0.01559144
#
# Stress axis : x y z
#
# Youngs Moduli (GPa) = 69.16776 84.57821 121.72301
#
# Poissons Ratio (x) = 0.21638 0.43942
# Poissons Ratio (y) = 0.17695 0.39975
# Poissons Ratio (z) = 0.24970 0.27776
#
# Static dielectric constant tensor:
#      x y z
#    x 1.786580 0.000000 0.050070 
#    y 0.000000 1.773310 0.000000 
#    z 0.050070 0.000000 1.788080 
# 
# From -- ./inp_files/130917.got.cif
#   From: 2010.05.17/outbox.cif.g08.bks.cpg/sg15_66_cif.got.tgz:130917.got - 2010.06.03 18:47:42.
