data_PCOD9264222
_publ_section_title
;
Structure prediction by ZEFSAII (Michael W. Deem and Ramdas Pophale) SiO2 
 PCOD9264222
Probable space group: C 2/C
;
_chemical_formula_sum "Si O2"
_cell_formula_units_Z 48
_cell_length_a 7.746743
_cell_length_b 26.834924
_cell_length_c 19.386848
_cell_angle_alpha 90.000000
_cell_angle_beta 41.663121
_cell_angle_gamma 90.000000
_cell_volume 2679.074751
_symmetry_space_group_name_H-M "C 2/C"
_symmetry_group_IT_number 15
_symmetry_cell_setting 'monoclinic'
loop_
_space_group_symop_operation_xyz
x,y,z
-x,y,1/2-z
-x,-y,-z
x,-y,1/2+z
1/2+x,1/2+y,z
1/2-x,1/2+y,1/2-z
1/2-x,1/2-y,-z
1/2+x,1/2-y,1/2+z
loop_
_atom_site_type_symbol
_atom_site_label
_atom_site_fract_x
_atom_site_fract_y
_atom_site_fract_z
Si Si1 0.398350 0.313310 0.013203
Si Si2 0.389291 0.684427 0.674492
Si Si3 0.175393 0.926588 0.477743
Si Si4 0.638448 0.780814 0.387307
Si Si5 0.796790 0.001984 0.160625
Si Si6 0.242147 0.084127 0.724352
O O1 0.350202 0.299255 0.107787
O O2 0.449160 0.372335 0.996713
O O3 0.147836 0.303011 0.039906
O O4 0.614808 0.275569 0.920856
O O5 0.690632 0.687888 0.608816
O O6 0.260753 0.716181 0.774377
O O7 0.260650 0.629660 0.720600
O O8 0.483561 0.918338 0.396449
O O9 0.013588 0.956383 0.583599
O O10 0.171820 0.961925 0.411072
O O11 0.500000 0.021803 0.250000
O O12 0.816535 0.968336 0.222479
O O13 0.000000 0.097230 0.750000
#
# Coordination Sequence:
#
# PCOD9264222 Si02
#       6
#     8   8   8   8   8   8
#     4  11  20  35  58  78 113 154 180 236 292 323
#     4  11  19  36  55  81 113 144 189 240 272 335
#     4  10  19  35  57  81 106 145 191 225 280 344
#     4  10  22  33  53  87 109 140 197 231 273 347
#     4   9  20  35  55  82 109 141 187 232 276 341
#     4  11  19  33  59  83 111 144 187 236 279 334
#
# _framework density 17.916632
#
# number of rings (size 3 to 8) (size 9 to 14) (size 15 to 20)
#    0.000    1.667    5.000    1.000    0.000    0.667 
#    3.000    0.000    0.000    2.000    0.000    0.000 
#    0.000    0.000    0.000    0.000    0.000    0.000 
#
# Total GULP energy -133655.513441 kJ/mol
# GULP energy per Si atom -5568.979727 kJ/mol
# Density = 1.787585 g / cm^3
# Si number density = 17.916632 Si / 1000 Ang^3
#
#
#
# Elastic Constant Matrix: (Units=GPa)
#
#
# Indices 1 2 3 4 5 6 
#
# 1 55.9629 14.2549 3.3830 0.0000 -11.7452 0.0000
# 2 14.2549 94.2939 52.3730 0.0000 -8.1027 0.0000
# 3 3.3830 52.3730 65.2873 -0.0004 -3.2131 -0.0001
# 4 0.0000 0.0000 -0.0004 46.1312 0.0002 1.2132
# 5 -11.7452 -8.1027 -3.2131 0.0002 21.2290 0.0000
# 6 0.0000 0.0000 -0.0001 1.2132 0.0000 15.7492
#
#
#
# Elastic Compliance Matrix: (Units=1/GPa)
#
#
# Indices 1 2 3 4 5 6 
#
# 1 0.020833 -0.003486 0.002235 0.000000 0.010534 0.000000
# 2 -0.003486 0.020256 -0.015901 0.000000 0.003396 0.000000
# 3 0.002235 -0.015901 0.027927 0.000000 -0.000606 0.000000
# 4 0.000000 0.000000 0.000000 0.021721 0.000000 -0.001673
# 5 0.010534 0.003396 -0.000606 0.000000 0.054138 0.000000
# 6 0.000000 0.000000 0.000000 -0.001673 0.000000 0.063624
#
#
# Mechanical properties :
#
#
# Convention : Reuss Voigt Hill
#
# Bulk Modulus (GPa) = 28.80863 39.50732 34.15798
# Shear Modulus (GPa) = 19.65613 26.32409 22.99011
#
# Velocity S-wave (km/s) = 3.31583 3.83724 3.58602
# Velocity P-wave (km/s) = 5.54741 6.45996 6.02100
#
# Compressibility (1/GPa) = 0.03471182
#
# Stress axis : x y z
#
# Youngs Moduli (GPa) = 48.00190 49.36836 35.80734
#
# Poissons Ratio (x) = 0.17208 -0.08003
# Poissons Ratio (y) = 0.16731 0.56939
# Poissons Ratio (z) = -0.10728 0.78502
#
# Static dielectric constant tensor:
#      x y z
#    x 1.652960 0.000000 -0.031460 
#    y 0.000000 1.623810 0.000000 
#    z -0.031460 0.000000 1.631270 
# 
# From -- ./inp_files/79282.got.cif
#   From: 2010.05.17/outbox.cif.g08.bks.cpg/sg15_40_cif.got.tgz:79282.got - 2010.06.03 18:47:42.
