data_PCOD9264351
_publ_section_title
;
Structure prediction by ZEFSAII (Michael W. Deem and Ramdas Pophale) SiO2 
 PCOD9264351
Probable space group: C 2/C
;
_chemical_formula_sum "Si O2"
_cell_formula_units_Z 56
_cell_length_a 18.289220
_cell_length_b 8.199624
_cell_length_c 20.558277
_cell_angle_alpha 90.000000
_cell_angle_beta 46.442567
_cell_angle_gamma 90.000000
_cell_volume 2234.212670
_symmetry_space_group_name_H-M "C 2/C"
_symmetry_group_IT_number 15
_symmetry_cell_setting 'monoclinic'
loop_
_space_group_symop_operation_xyz
x,y,z
-x,y,1/2-z
-x,-y,-z
x,-y,1/2+z
1/2+x,1/2+y,z
1/2-x,1/2+y,1/2-z
1/2-x,1/2-y,-z
1/2+x,1/2-y,1/2+z
loop_
_atom_site_type_symbol
_atom_site_label
_atom_site_fract_x
_atom_site_fract_y
_atom_site_fract_z
Si Si1 0.644739 0.433722 0.196990
Si Si2 0.156911 0.431655 0.683301
Si Si3 0.833932 0.190734 0.675865
Si Si4 0.211760 0.435224 0.510172
Si Si5 0.377660 0.626011 0.095770
Si Si6 0.889821 0.250446 0.227445
Si Si7 0.021487 0.388909 0.549172
O O1 0.609411 0.249018 0.201258
O O2 0.690072 0.406396 0.242595
O O3 0.575976 0.589927 0.254900
O O4 0.717220 0.486976 0.093499
O O5 0.206921 0.502723 0.586199
O O6 0.255561 0.388455 0.666561
O O7 0.088718 0.575265 0.754069
O O8 0.733646 0.245063 0.700869
O O9 0.913511 0.332327 0.641422
O O10 0.898716 0.064789 0.591494
O O11 0.250000 0.250000 0.500000
O O12 0.098711 0.461335 0.553256
O O13 0.416833 0.721130 0.135614
O O14 0.414500 0.730074 0.013036
O O15 0.000000 0.500000 0.500000
#
# Coordination Sequence:
#
# PCOD9264351 Si02
#       7
#     8   8   8   8   8   8   8
#     4  10  19  35  58  83 117 154 203 238 295 371
#     4  10  20  35  65  84 115 153 207 241 293 356
#     4  10  21  33  57  91 115 154 199 252 306 348
#     4  10  20  40  60  84 121 163 203 246 308 373
#     4  10  20  38  59  85 123 156 199 251 298 372
#     4  10  20  35  62  91 114 155 203 252 293 359
#     4  12  23  35  61  91 123 158 201 259 310 363
#
# _framework density 25.064757
#
# number of rings (size 3 to 8) (size 9 to 14) (size 15 to 20)
#    0.000    1.714    4.286    1.286    2.000    0.571 
#    0.000    2.857    3.143    0.000    0.000    0.000 
#    0.000    0.000    0.000    0.000    0.000    0.000 
#
# Total GULP energy -156108.134155 kJ/mol
# GULP energy per Si atom -5575.290506 kJ/mol
# Density = 2.500771 g / cm^3
# Si number density = 25.064757 Si / 1000 Ang^3
#
#
#
# Elastic Constant Matrix: (Units=GPa)
#
#
# Indices 1 2 3 4 5 6 
#
# 1 89.5625 4.5475 13.8173 0.0000 14.8423 0.0000
# 2 4.5475 102.0938 8.6544 0.0000 8.7499 0.0000
# 3 13.8173 8.6544 80.0610 0.0000 22.7107 0.0000
# 4 0.0000 0.0000 0.0000 43.8751 0.0000 2.6687
# 5 14.8423 8.7499 22.7107 0.0000 32.6176 0.0000
# 6 0.0000 0.0000 0.0000 2.6687 0.0000 1.8101
#
#
#
# Elastic Compliance Matrix: (Units=1/GPa)
#
#
# Indices 1 2 3 4 5 6 
#
# 1 0.012104 -0.000052 -0.000654 0.000000 -0.005038 0.000000
# 2 -0.000052 0.010036 -0.000397 0.000000 -0.002392 0.000000
# 3 -0.000654 -0.000397 0.015616 0.000000 -0.010469 0.000000
# 4 0.000000 0.000000 0.000000 0.025037 0.000000 -0.036914
# 5 -0.005038 -0.002392 -0.010469 0.000000 0.040882 0.000000
# 6 0.000000 0.000000 0.000000 -0.036914 0.000000 0.606881
#
#
# Mechanical properties :
#
#
# Convention : Reuss Voigt Hill
#
# Bulk Modulus (GPa) = 28.13021 36.19508 32.16265
# Shear Modulus (GPa) = 6.90024 31.97377 19.43700
#
# Velocity S-wave (km/s) = 1.66101 3.57549 2.78775
# Velocity P-wave (km/s) = 3.86341 5.61405 4.81889
#
# Compressibility (1/GPa) = 0.03554897
#
# Stress axis : x y z
#
# Youngs Moduli (GPa) = 82.61794 99.64218 64.03718
#
# Poissons Ratio (x) = 0.00517 0.04189
# Poissons Ratio (y) = 0.00429 0.02545
# Poissons Ratio (z) = 0.05404 0.03960
#
# Static dielectric constant tensor:
#      x y z
#    x 1.989850 0.000000 0.005410 
#    y 0.000000 2.150780 0.000000 
#    z 0.005410 0.000000 2.059850 
# 
# From -- ./inp_files/254823.got.cif
#   From: 2010.05.17/outbox.cif.g08.bks.cpg/sg15_128_cif.got.tgz:254823.got - 2010.06.03 18:47:42.
