data_PCOD9264621
_publ_section_title
;
Structure prediction by ZEFSAII (Michael W. Deem and Ramdas Pophale) SiO2 
 PCOD9264621
Probable space group: C 2/C
;
_chemical_formula_sum "Si O2"
_cell_formula_units_Z 44
_cell_length_a 11.657244
_cell_length_b 14.524761
_cell_length_c 12.320645
_cell_angle_alpha 90.000000
_cell_angle_beta 91.463881
_cell_angle_gamma 90.000000
_cell_volume 2085.434536
_symmetry_space_group_name_H-M "C 2/C"
_symmetry_group_IT_number 15
_symmetry_cell_setting 'monoclinic'
loop_
_space_group_symop_operation_xyz
x,y,z
-x,y,1/2-z
-x,-y,-z
x,-y,1/2+z
1/2+x,1/2+y,z
1/2-x,1/2+y,1/2-z
1/2-x,1/2-y,-z
1/2+x,1/2-y,1/2+z
loop_
_atom_site_type_symbol
_atom_site_label
_atom_site_fract_x
_atom_site_fract_y
_atom_site_fract_z
Si Si1 0.455094 0.396214 0.978860
Si Si2 0.348275 0.698056 0.882433
Si Si3 0.817995 0.105014 0.673093
Si Si4 0.000000 0.948738 0.750000
Si Si5 0.933064 0.445200 0.355269
Si Si6 0.362416 0.116766 0.502210
O O1 0.458272 0.388053 0.850243
O O2 0.500000 0.500000 0.000000
O O3 0.544080 0.332699 0.043683
O O4 0.340478 0.383819 0.045486
O O5 0.363621 0.683023 0.755427
O O6 0.246135 0.629711 0.920335
O O7 0.333219 0.803272 0.915301
O O8 0.682891 0.101945 0.686448
O O9 0.893299 0.015309 0.712381
O O10 0.884854 0.524329 0.434505
O O11 0.000000 0.481420 0.250000
O O12 0.021830 0.379740 0.422371
#
# Coordination Sequence:
#
# PCOD9264621 Si02
#       6
#     8   8   8   4   8   8
#     4  10  19  35  60  94 121 163 210 259 321 381
#     4  11  20  41  63  92 126 167 214 268 330 372
#     4  11  20  35  66  88 123 165 209 265 317 380
#     4  10  20  34  60  94 126 162 206 264 316 388
#     4  11  23  41  61  90 127 172 219 260 321 390
#     4  10  24  40  62  89 126 171 216 265 320 392
#
# _framework density 21.09872
#
# number of rings (size 3 to 8) (size 9 to 14) (size 15 to 20)
#    0.000    1.455    5.455    2.182    0.000    1.455 
#    1.636    2.727    0.000    0.000    0.000    0.000 
#    0.000    0.000    0.000    0.000    0.000    0.000 
#
# Total GULP energy -122591.768441 kJ/mol
# GULP energy per Si atom -5572.353111 kJ/mol
# Density = 2.105070 g / cm^3
# Si number density = 21.098720 Si / 1000 Ang^3
#
#
#
# Elastic Constant Matrix: (Units=GPa)
#
#
# Indices 1 2 3 4 5 6 
#
# 1 102.6934 -0.9507 19.9331 0.0000 -7.3486 0.0000
# 2 -0.9507 16.1531 13.4439 0.0000 -9.6912 0.0000
# 3 19.9331 13.4439 137.5552 0.0000 -19.9708 0.0000
# 4 0.0000 0.0000 0.0000 -3.6884 0.0000 -38.8645
# 5 -7.3486 -9.6912 -19.9708 0.0000 36.1892 0.0000
# 6 0.0000 0.0000 0.0000 -38.8645 0.0000 -76.6121
#
#
#
# Elastic Compliance Matrix: (Units=1/GPa)
#
#
# Indices 1 2 3 4 5 6 
#
# 1 0.010202 0.003078 -0.001477 0.000000 0.002081 0.000000
# 2 0.003078 0.077617 -0.005352 0.000000 0.018457 0.000000
# 3 -0.001477 -0.005352 0.008431 0.000000 0.002919 0.000000
# 4 0.000000 0.000000 0.000000 0.062394 0.000000 -0.031652
# 5 0.002081 0.018457 0.002919 0.000000 0.034609 0.000000
# 6 0.000000 0.000000 0.000000 -0.031652 0.000000 0.003004
#
#
# Mechanical properties :
#
#
# Convention : Reuss Voigt Hill
#
# Bulk Modulus (GPa) = 11.26802 35.69493 23.48148
# Shear Modulus (GPa) = 21.42790 6.10941 13.76866
#
# Velocity S-wave (km/s) = 3.19031 1.70350 2.55734
# Velocity P-wave (km/s) = 4.35005 4.56333 4.45797
#
# Compressibility (1/GPa) = 0.08874673
#
# Stress axis : x y z
#
# Youngs Moduli (GPa) = 98.02164 12.88384 118.61285
#
# Poissons Ratio (x) = -0.03966 0.17520
# Poissons Ratio (y) = -0.30172 0.63485
# Poissons Ratio (z) = 0.14479 0.06896
#
# Static dielectric constant tensor:
#      x y z
#    x 1.710030 0.000000 -0.008880 
#    y 0.000000 1.715290 0.000000 
#    z -0.008880 0.000000 1.808130 
# 
# From -- ./inp_files/86152.got.cif
#   From: 2010.05.17/outbox.cif.g08.bks.cpg/sg15_44_cif.got.tgz:86152.got - 2010.06.03 18:47:42.
