data_PCOD9264625
_publ_section_title
;
Structure prediction by ZEFSAII (Michael W. Deem and Ramdas Pophale) SiO2 
 PCOD9264625
Probable space group: C 2/C
;
_chemical_formula_sum "Si O2"
_cell_formula_units_Z 36
_cell_length_a 18.400122
_cell_length_b 11.329422
_cell_length_c 8.906007
_cell_angle_alpha 90.000000
_cell_angle_beta 60.929046
_cell_angle_gamma 90.000000
_cell_volume 1622.677417
_symmetry_space_group_name_H-M "C 2/C"
_symmetry_group_IT_number 15
_symmetry_cell_setting 'monoclinic'
loop_
_space_group_symop_operation_xyz
x,y,z
-x,y,1/2-z
-x,-y,-z
x,-y,1/2+z
1/2+x,1/2+y,z
1/2-x,1/2+y,1/2-z
1/2-x,1/2-y,-z
1/2+x,1/2-y,1/2+z
loop_
_atom_site_type_symbol
_atom_site_label
_atom_site_fract_x
_atom_site_fract_y
_atom_site_fract_z
Si Si1 0.328654 0.960726 0.396749
Si Si2 0.439881 0.472325 0.696150
Si Si3 0.883582 0.335680 0.057620
Si Si4 0.000000 0.806861 0.250000
Si Si5 0.728183 0.373957 0.768771
O O1 0.384412 0.889935 0.222521
O O2 0.290823 0.875700 0.563720
O O3 0.374059 0.062043 0.444809
O O4 0.262155 0.032555 0.357820
O O5 0.500000 0.402618 0.750000
O O6 0.500000 0.500000 0.500000
O O7 0.426276 0.601471 0.783641
O O8 0.356594 0.418114 0.723000
O O9 0.800873 0.252057 0.136994
O O10 0.965743 0.266259 0.923580
#
# Coordination Sequence:
#
# PCOD9264625 Si02
#       5
#     8   8   8   4   8
#     4  10  24  37  62  91 122 162 206 240 296 377
#     4  10  19  35  60  97 121 143 194 248 304 362
#     4  11  22  41  60  85 124 164 203 248 299 352
#     4  10  22  38  66  86 128 154 198 246 310 348
#     4  11  19  40  64  91 126 152 197 259 306 349
#
# _framework density 22.185556999999999
#
# number of rings (size 3 to 8) (size 9 to 14) (size 15 to 20)
#    0.667    0.889    2.222    4.000    0.000    2.667 
#    0.000    4.444    2.444    0.000    0.000    0.000 
#    0.000    0.000    0.000    0.000    0.000    0.000 
#
# Total GULP energy -100366.752410 kJ/mol
# GULP energy per Si atom -5575.930689 kJ/mol
# Density = 2.213506 g / cm^3
# Si number density = 22.185557 Si / 1000 Ang^3
#
#
#
# Elastic Constant Matrix: (Units=GPa)
#
#
# Indices 1 2 3 4 5 6 
#
# 1 21.9204 -14.7894 -5.9429 0.0000 -0.0108 0.0000
# 2 -14.7894 71.5389 28.2689 0.0000 -10.8468 0.0000
# 3 -5.9429 28.2689 117.2587 0.0000 2.9825 0.0000
# 4 0.0000 0.0000 0.0000 33.1585 0.0000 8.7722
# 5 -0.0108 -10.8468 2.9825 0.0000 17.2532 0.0000
# 6 0.0000 0.0000 0.0000 8.7722 0.0000 17.7077
#
#
#
# Elastic Compliance Matrix: (Units=1/GPa)
#
#
# Indices 1 2 3 4 5 6 
#
# 1 0.053970 0.012571 -0.000499 0.000000 0.008023 0.000000
# 2 0.012571 0.020492 -0.004651 0.000000 0.013695 0.000000
# 3 -0.000499 -0.004651 0.009741 0.000000 -0.004608 0.000000
# 4 0.000000 0.000000 0.000000 0.034707 0.000000 -0.017193
# 5 0.008023 0.013695 -0.004608 0.000000 0.067371 0.000000
# 6 0.000000 0.000000 0.000000 -0.017193 0.000000 0.064990
#
#
# Mechanical properties :
#
#
# Convention : Reuss Voigt Hill
#
# Bulk Modulus (GPa) = 10.09659 25.08791 17.59225
# Shear Modulus (GPa) = 18.55667 27.16931 22.86299
#
# Velocity S-wave (km/s) = 2.89525 3.50328 3.21368
# Velocity P-wave (km/s) = 3.96705 5.26277 4.66016
#
# Compressibility (1/GPa) = 0.09904338
#
# Stress axis : x y z
#
# Youngs Moduli (GPa) = 18.52894 48.80034 102.65452
#
# Poissons Ratio (x) = -0.61347 0.05127
# Poissons Ratio (y) = -0.23293 0.47748
# Poissons Ratio (z) = 0.00925 0.22699
#
# Static dielectric constant tensor:
#      x y z
#    x 1.809610 0.000000 0.037630 
#    y 0.000000 1.910520 0.000000 
#    z 0.037630 0.000000 1.873270 
# 
# From -- ./inp_files/53852.got.cif
#   From: 2010.05.17/outbox.cif.g08.bks.cpg/sg15_27_cif.got.tgz:53852.got - 2010.06.03 18:47:42.
