data_PCOD9264074
_publ_section_title
;
Structure prediction by ZEFSAII (Michael W. Deem and Ramdas Pophale) SiO2 
 PCOD9264074
Probable space group: C 2/C
;
_chemical_formula_sum "Si O2"
_cell_formula_units_Z 48
_cell_length_a 16.626132
_cell_length_b 7.567731
_cell_length_c 15.866001
_cell_angle_alpha 90.000000
_cell_angle_beta 89.999578
_cell_angle_gamma 90.000000
_cell_volume 1996.293478
_symmetry_space_group_name_H-M "C 2/C"
_symmetry_group_IT_number 15
_symmetry_cell_setting 'monoclinic'
loop_
_space_group_symop_operation_xyz
x,y,z
-x,y,1/2-z
-x,-y,-z
x,-y,1/2+z
1/2+x,1/2+y,z
1/2-x,1/2+y,1/2-z
1/2-x,1/2-y,-z
1/2+x,1/2-y,1/2+z
loop_
_atom_site_type_symbol
_atom_site_label
_atom_site_fract_x
_atom_site_fract_y
_atom_site_fract_z
Si Si1 0.672562 0.714904 0.154440
Si Si2 0.662424 0.910285 0.909625
Si Si3 0.662425 0.089713 0.090376
Si Si4 0.500001 0.851721 0.649467
Si Si5 0.327439 0.285098 0.654438
Si Si6 0.499999 0.728385 0.352396
O O1 0.750805 0.677260 0.099727
O O2 0.664150 0.926937 0.155888
O O3 0.683752 0.648881 0.250001
O O4 0.585813 0.651562 0.120015
O O5 0.585261 0.790355 0.887970
O O6 0.664150 0.073065 0.844115
O O7 0.652281 0.999997 0.000001
O O8 0.585262 0.209646 0.112030
O O9 0.749197 0.177255 0.099726
O O10 0.500000 0.827732 0.750000
O O11 0.500001 0.062418 0.626809
O O12 0.414189 0.348439 0.620015
O O13 0.500000 0.717052 0.250000
#
# Coordination Sequence:
#
# PCOD9264074 Si02
#       6
#     8   8   8   8   8   8
#     4  10  19  35  55  75 101 140 182 217 257 318
#     4  11  21  34  53  81 110 137 173 224 270 306
#     4  11  21  34  53  81 110 137 173 224 270 306
#     4   9  17  33  54  75 100 139 180 212 254 320
#     4  10  19  35  55  75 101 140 182 217 257 318
#     4   7  14  29  51  71  93 131 176 208 246 310
#
# _framework density 24.044560000000001
#
# number of rings (size 3 to 8) (size 9 to 14) (size 15 to 20)
#    0.000    2.333    0.000    6.500    0.000    0.000 
#    0.000    2.500    0.000    2.000    0.000    0.000 
#    0.000    0.000    0.000    0.000    0.000    0.000 
#
# Total GULP energy -133940.848587 kJ/mol
# GULP energy per Si atom -5580.868691 kJ/mol
# Density = 2.398983 g / cm^3
# Si number density = 24.044560 Si / 1000 Ang^3
#
#
#
# Elastic Constant Matrix: (Units=GPa)
#
#
# Indices 1 2 3 4 5 6 
#
# 1 261.6549 14.9303 36.4858 0.0000 0.0007 0.0000
# 2 14.9303 32.4591 -9.9589 0.0000 0.0010 0.0000
# 3 36.4858 -9.9589 94.2073 0.0000 0.0006 0.0000
# 4 0.0000 0.0000 0.0000 -0.5925 0.0000 0.0005
# 5 0.0007 0.0010 0.0006 0.0000 13.7285 0.0000
# 6 0.0000 0.0000 0.0000 0.0005 0.0000 16.2061
#
#
#
# Elastic Compliance Matrix: (Units=1/GPa)
#
#
# Indices 1 2 3 4 5 6 
#
# 1 0.004232 -0.002532 -0.001907 0.000000 0.000000 0.000000
# 2 -0.002532 0.033355 0.004507 0.000000 -0.000002 0.000000
# 3 -0.001907 0.004507 0.011830 0.000000 -0.000001 0.000000
# 4 0.000000 0.000000 0.000000 -1.687852 0.000000 0.000050
# 5 0.000000 -0.000002 -0.000001 0.000000 0.072841 0.000000
# 6 0.000000 0.000000 0.000000 0.000050 0.000000 0.061705
#
#
# Mechanical properties :
#
#
# Convention : Reuss Voigt Hill
#
# Bulk Modulus (GPa) = 20.18026 52.35953 36.26990
# Shear Modulus (GPa) = -3.36133 28.99271 12.81569
#
# Velocity S-wave (km/s) = -1.18364 3.47622 2.31118
# Velocity P-wave (km/s) = 2.55795 6.15917 4.71585
#
# Compressibility (1/GPa) = 0.04955337
#
# Stress axis : x y z
#
# Youngs Moduli (GPa) = 236.28570 29.98038 84.53271
#
# Poissons Ratio (x) = 0.07590 0.16118
# Poissons Ratio (y) = 0.59820 -0.38095
# Poissons Ratio (z) = 0.45053 -0.13511
#
# Static dielectric constant tensor:
#      x y z
#    x 2.066670 0.000000 0.000000 
#    y 0.000000 1.960960 0.000000 
#    z 0.000000 0.000000 1.900670 
# 
# From -- ./inp_files/152017.got.cif
#   From: 2010.05.17/outbox.cif.g08.bks.cpg/sg15_77_cif.got.tgz:152017.got - 2010.06.03 18:47:42.
