data_PCOD9264614
_publ_section_title
;
Structure prediction by ZEFSAII (Michael W. Deem and Ramdas Pophale) SiO2 
 PCOD9264614
Probable space group: C 2/C
;
_chemical_formula_sum "Si O2"
_cell_formula_units_Z 60
_cell_length_a 18.789975
_cell_length_b 8.360829
_cell_length_c 23.105125
_cell_angle_alpha 90.000000
_cell_angle_beta 121.010505
_cell_angle_gamma 90.000000
_cell_volume 3111.011429
_symmetry_space_group_name_H-M "C 2/C"
_symmetry_group_IT_number 15
_symmetry_cell_setting 'monoclinic'
loop_
_space_group_symop_operation_xyz
x,y,z
-x,y,1/2-z
-x,-y,-z
x,-y,1/2+z
1/2+x,1/2+y,z
1/2-x,1/2+y,1/2-z
1/2-x,1/2-y,-z
1/2+x,1/2-y,1/2+z
loop_
_atom_site_type_symbol
_atom_site_label
_atom_site_fract_x
_atom_site_fract_y
_atom_site_fract_z
Si Si1 0.176767 0.055789 0.324434
Si Si2 0.000000 0.070291 0.750000
Si Si3 0.185444 0.336643 0.115296
Si Si4 0.706576 0.662402 0.591454
Si Si5 0.659484 0.544035 0.181225
Si Si6 0.817916 0.860579 0.996190
Si Si7 0.505067 0.361243 0.377979
Si Si8 0.935647 0.384470 0.940507
O O1 0.224076 0.897044 0.365461
O O2 0.187330 0.042710 0.259220
O O3 0.079639 0.040430 0.293641
O O4 0.220449 0.207344 0.372374
O O5 0.991013 0.172683 0.804335
O O6 0.149595 0.242804 0.045175
O O7 0.134493 0.493219 0.110412
O O8 0.183001 0.215326 0.166431
O O9 0.698949 0.580527 0.651927
O O10 0.717030 0.523790 0.547819
O O11 0.618874 0.756587 0.545248
O O12 0.560716 0.504217 0.137062
O O13 0.750000 0.750000 0.000000
O O14 0.899289 0.898389 0.068121
O O15 0.477502 0.214411 0.406722
O O16 0.000000 0.500000 0.000000
#
# Coordination Sequence:
#
# PCOD9264614 Si02
#       8
#     8   4   8   8   8   8   8   8
#     4  10  19  38  57  86 118 153 200 237 298 358
#     4  10  22  40  60  80 120 172 196 236 292 372
#     4  10  20  34  60  88 117 146 195 250 300 352
#     4   9  21  35  59  89 118 152 198 252 297 357
#     4   9  19  34  61  87 115 156 187 250 299 354
#     4  11  22  38  57  86 117 162 198 243 300 363
#     4  10  21  38  60  84 118 156 203 238 304 361
#     4  10  19  35  60  93 121 146 192 257 309 345
#
# _framework density 19.286332999999999
#
# number of rings (size 3 to 8) (size 9 to 14) (size 15 to 20)
#    0.000    2.133    1.333    1.600    1.867    2.667 
#    0.000   10.000    0.000    4.000    0.000    0.000 
#    0.000    0.000    0.000    0.000    0.000    0.000 
#
# Total GULP energy -167159.811993 kJ/mol
# GULP energy per Si atom -5571.993733 kJ/mol
# Density = 1.924244 g / cm^3
# Si number density = 19.286333 Si / 1000 Ang^3
#
#
#
# Elastic Constant Matrix: (Units=GPa)
#
#
# Indices 1 2 3 4 5 6 
#
# 1 81.3801 41.9375 41.6929 0.0000 15.2161 0.0000
# 2 41.9375 107.1994 41.1623 0.0000 5.6462 0.0000
# 3 41.6929 41.1623 92.0548 0.0000 10.9717 0.0000
# 4 0.0000 0.0000 0.0000 25.1119 0.0000 -3.3360
# 5 15.2161 5.6462 10.9717 0.0000 31.6089 0.0000
# 6 0.0000 0.0000 0.0000 -3.3360 0.0000 16.6779
#
#
#
# Elastic Compliance Matrix: (Units=1/GPa)
#
#
# Indices 1 2 3 4 5 6 
#
# 1 0.018850 -0.004893 -0.005604 0.000000 -0.006255 0.000000
# 2 -0.004893 0.012534 -0.003549 0.000000 0.001348 0.000000
# 3 -0.005604 -0.003549 0.015221 0.000000 -0.001952 0.000000
# 4 0.000000 0.000000 0.000000 0.040909 0.000000 0.008183
# 5 -0.006255 0.001348 -0.001952 0.000000 0.035084 0.000000
# 6 0.000000 0.000000 0.000000 0.008183 0.000000 0.061596
#
#
# Mechanical properties :
#
#
# Convention : Reuss Voigt Hill
#
# Bulk Modulus (GPa) = 54.01729 58.91331 56.46530
# Shear Modulus (GPa) = 22.88760 25.06918 23.97839
#
# Velocity S-wave (km/s) = 3.44863 3.60924 3.52985
# Velocity P-wave (km/s) = 6.62769 6.92689 6.77894
#
# Compressibility (1/GPa) = 0.01851259
#
# Stress axis : x y z
#
# Youngs Moduli (GPa) = 53.04989 79.77987 65.69892
#
# Poissons Ratio (x) = 0.39037 0.36818
# Poissons Ratio (y) = 0.25958 0.23319
# Poissons Ratio (z) = 0.29729 0.28317
#
# Static dielectric constant tensor:
#      x y z
#    x 1.722190 0.000000 0.009050 
#    y 0.000000 1.667460 0.000000 
#    z 0.009050 0.000000 1.700050 
# 
# From -- ./inp_files/276573.got.cif
#   From: 2010.05.17/outbox.cif.g08.bks.cpg/sg15_139_cif.got.tgz:276573.got - 2010.06.03 18:47:42.
