data_PCOD9264513
_publ_section_title
;
Structure prediction by ZEFSAII (Michael W. Deem and Ramdas Pophale) SiO2 
 PCOD9264513
Probable space group: C 2/C
;
_chemical_formula_sum "Si O2"
_cell_formula_units_Z 40
_cell_length_a 15.725155
_cell_length_b 15.110316
_cell_length_c 9.355732
_cell_angle_alpha 90.000000
_cell_angle_beta 129.939626
_cell_angle_gamma 90.000000
_cell_volume 1704.448192
_symmetry_space_group_name_H-M "C 2/C"
_symmetry_group_IT_number 15
_symmetry_cell_setting 'monoclinic'
loop_
_space_group_symop_operation_xyz
x,y,z
-x,y,1/2-z
-x,-y,-z
x,-y,1/2+z
1/2+x,1/2+y,z
1/2-x,1/2+y,1/2-z
1/2-x,1/2-y,-z
1/2+x,1/2-y,1/2+z
loop_
_atom_site_type_symbol
_atom_site_label
_atom_site_fract_x
_atom_site_fract_y
_atom_site_fract_z
Si Si1 0.288797 0.373531 0.164555
Si Si2 0.933190 0.677631 0.544192
Si Si3 0.210477 0.828456 0.662743
Si Si4 0.052921 0.424833 0.961157
Si Si5 0.516679 0.626529 0.419378
O O1 0.248079 0.273410 0.165823
O O2 0.397195 0.405931 0.367097
O O3 0.300992 0.372068 0.006389
O O4 0.183564 0.431406 0.093726
O O5 0.814507 0.640239 0.371989
O O6 0.922818 0.781476 0.562942
O O7 0.000000 0.637592 0.750000
O O8 0.011903 0.664992 0.492485
O O9 0.099386 0.848488 0.631303
O O10 0.000000 0.425635 0.750000
O O11 0.000000 0.500000 0.000000
O O12 0.500000 0.576807 0.250000
#
# Coordination Sequence:
#
# PCOD9264513 Si02
#       5
#     8   8   8   8   8
#     4  10  21  35  60  88 123 161 202 250 308 368
#     4  10  21  34  57  89 126 159 198 249 306 363
#     4  10  19  35  59  89 127 158 196 255 312 372
#     4  12  24  42  60  88 118 162 210 249 299 360
#     4  10  21  33  57  95 127 155 191 252 319 368
#
# _framework density 23.468005000000002
#
# number of rings (size 3 to 8) (size 9 to 14) (size 15 to 20)
#    0.000    1.600    4.000    1.200    2.800    2.400 
#    0.000    0.000    0.000    1.200    0.000    0.000 
#    0.000    0.000    0.000    0.000    0.000    0.000 
#
# Total GULP energy -111664.376505 kJ/mol
# GULP energy per Si atom -5583.218825 kJ/mol
# Density = 2.341459 g / cm^3
# Si number density = 23.468005 Si / 1000 Ang^3
#
#
#
# Elastic Constant Matrix: (Units=GPa)
#
#
# Indices 1 2 3 4 5 6 
#
# 1 161.4749 0.6589 113.5957 0.0000 13.1263 0.0000
# 2 0.6589 29.6293 7.7079 0.0000 -8.6789 0.0000
# 3 113.5957 7.7079 272.3504 0.0000 10.3371 0.0000
# 4 0.0000 0.0000 0.0000 -90.1848 0.0000 0.5496
# 5 13.1263 -8.6789 10.3371 0.0000 47.5150 0.0000
# 6 0.0000 0.0000 0.0000 0.5496 0.0000 25.8674
#
#
#
# Elastic Compliance Matrix: (Units=1/GPa)
#
#
# Indices 1 2 3 4 5 6 
#
# 1 0.008895 0.000282 -0.003657 0.000000 -0.001610 0.000000
# 2 0.000282 0.036106 -0.001398 0.000000 0.006821 0.000000
# 3 -0.003657 -0.001398 0.005251 0.000000 -0.000388 0.000000
# 4 0.000000 0.000000 0.000000 -0.011087 0.000000 0.000236
# 5 -0.001610 0.006821 -0.000388 0.000000 0.022821 0.000000
# 6 0.000000 0.000000 0.000000 0.000236 0.000000 0.038654
#
#
# Mechanical properties :
#
#
# Convention : Reuss Voigt Hill
#
# Bulk Modulus (GPa) = 24.56657 78.59772 51.58215
# Shear Modulus (GPa) = 40.40202 19.40566 29.90384
#
# Velocity S-wave (km/s) = 4.15369 2.87870 3.57352
# Velocity P-wave (km/s) = 5.78749 6.67933 6.24934
#
# Compressibility (1/GPa) = 0.04070572
#
# Stress axis : x y z
#
# Youngs Moduli (GPa) = 112.41814 27.69621 190.42682
#
# Poissons Ratio (x) = -0.00781 0.69640
# Poissons Ratio (y) = -0.03169 0.26628
# Poissons Ratio (z) = 0.41112 0.03873
#
# Static dielectric constant tensor:
#      x y z
#    x 1.816600 0.000000 -0.005900 
#    y 0.000000 2.023960 0.000000 
#    z -0.005900 0.000000 1.911250 
# 
# From -- ./inp_files/38953.got.cif
#   From: 2010.05.17/outbox.cif.g08.bks.cpg/sg15_20_cif.got.tgz:38953.got - 2010.06.03 18:47:42.
