data_PCOD9264066
_publ_section_title
;
Structure prediction by ZEFSAII (Michael W. Deem and Ramdas Pophale) SiO2 
 PCOD9264066
Probable space group: C 2/C
;
_chemical_formula_sum "Si O2"
_cell_formula_units_Z 56
_cell_length_a 15.904225
_cell_length_b 17.572032
_cell_length_c 11.906389
_cell_angle_alpha 90.000000
_cell_angle_beta 52.243011
_cell_angle_gamma 90.000000
_cell_volume 2630.749841
_symmetry_space_group_name_H-M "C 2/C"
_symmetry_group_IT_number 15
_symmetry_cell_setting 'monoclinic'
loop_
_space_group_symop_operation_xyz
x,y,z
-x,y,1/2-z
-x,-y,-z
x,-y,1/2+z
1/2+x,1/2+y,z
1/2-x,1/2+y,1/2-z
1/2-x,1/2-y,-z
1/2+x,1/2-y,1/2+z
loop_
_atom_site_type_symbol
_atom_site_label
_atom_site_fract_x
_atom_site_fract_y
_atom_site_fract_z
Si Si1 0.700033 0.119668 0.366759
Si Si2 0.529448 0.408406 0.353126
Si Si3 0.449933 0.734310 0.529221
Si Si4 0.988961 0.531269 0.882867
Si Si5 0.671449 0.490240 0.879023
Si Si6 0.594403 0.185400 0.762302
Si Si7 0.689992 0.636600 0.012146
O O1 0.630550 0.193996 0.393465
O O2 0.625474 0.072566 0.514332
O O3 0.733985 0.065191 0.237192
O O4 0.802772 0.137776 0.359421
O O5 0.500000 0.422096 0.250000
O O6 0.547223 0.319854 0.365882
O O7 0.428823 0.437932 0.506786
O O8 0.631825 0.456647 0.308454
O O9 0.563768 0.766363 0.396461
O O10 0.409044 0.678016 0.464175
O O11 0.000000 0.491732 0.750000
O O12 0.075996 0.597603 0.808339
O O13 0.000000 0.500000 0.000000
O O14 0.692455 0.550935 0.960805
O O15 0.500000 0.201142 0.750000
O O16 0.709871 0.186127 0.615037
#
# Coordination Sequence:
#
# PCOD9264066 Si02
#       7
#     8   8   8   8   8   8   8
#     4  11  21  36  59  92 123 156 214 257 313 385
#     4  10  22  45  62  88 130 160 207 264 316 382
#     4  10  23  35  61  90 122 164 206 255 318 373
#     4  10  19  35  55  82 121 164 201 258 317 370
#     4  10  23  38  68  92 118 169 208 256 318 383
#     4  10  19  35  54  84 125 161 194 264 310 356
#     4  11  20  38  60  90 126 158 212 261 311 368
#
# _framework density 21.286707
#
# number of rings (size 3 to 8) (size 9 to 14) (size 15 to 20)
#    0.000    1.714    4.286    2.143    2.000    0.000 
#    0.000    5.000    3.143    0.000    0.000    0.000 
#    0.000    0.000    0.000    0.000    0.000    0.000 
#
# Total GULP energy -156185.822261 kJ/mol
# GULP energy per Si atom -5578.065081 kJ/mol
# Density = 2.123826 g / cm^3
# Si number density = 21.286707 Si / 1000 Ang^3
#
#
#
# Elastic Constant Matrix: (Units=GPa)
#
#
# Indices 1 2 3 4 5 6 
#
# 1 50.5847 16.2891 5.9774 0.0000 14.1343 0.0000
# 2 16.2891 101.5640 41.7075 0.0000 7.3889 0.0000
# 3 5.9774 41.7075 72.7056 0.0000 7.4154 0.0000
# 4 0.0000 0.0000 0.0000 34.6849 0.0000 -0.1540
# 5 14.1343 7.3889 7.4154 0.0000 35.7048 0.0000
# 6 0.0000 0.0000 0.0000 -0.1540 0.0000 18.6907
#
#
#
# Elastic Compliance Matrix: (Units=1/GPa)
#
#
# Indices 1 2 3 4 5 6 
#
# 1 0.023199 -0.003493 0.000980 0.000000 -0.008664 0.000000
# 2 -0.003493 0.013453 -0.007445 0.000000 0.000145 0.000000
# 3 0.000980 -0.007445 0.018213 0.000000 -0.002630 0.000000
# 4 0.000000 0.000000 0.000000 0.028832 0.000000 0.000238
# 5 -0.008664 0.000145 -0.002630 0.000000 0.031953 0.000000
# 6 0.000000 0.000000 0.000000 0.000238 0.000000 0.053504
#
#
# Mechanical properties :
#
#
# Convention : Reuss Voigt Hill
#
# Bulk Modulus (GPa) = 28.61318 39.20026 33.90672
# Shear Modulus (GPa) = 24.91045 28.54143 26.72594
#
# Velocity S-wave (km/s) = 3.42458 3.66568 3.54718
# Velocity P-wave (km/s) = 5.39518 6.03089 5.72187
#
# Compressibility (1/GPa) = 0.03494893
#
# Stress axis : x y z
#
# Youngs Moduli (GPa) = 43.10581 74.33329 54.90733
#
# Poissons Ratio (x) = 0.25963 -0.05381
# Poissons Ratio (y) = 0.15056 0.40878
# Poissons Ratio (z) = -0.04225 0.55340
#
# Static dielectric constant tensor:
#      x y z
#    x 1.869040 0.000000 0.009260 
#    y 0.000000 1.836210 0.000000 
#    z 0.009260 0.000000 1.792730 
# 
# From -- ./inp_files/106621.got.cif
#   From: 2010.05.17/outbox.cif.g08.bks.cpg/sg15_54_cif.got.tgz:106621.got - 2010.06.03 18:47:42.
