data_PCOD9264630
_publ_section_title
;
Structure prediction by ZEFSAII (Michael W. Deem and Ramdas Pophale) SiO2 
 PCOD9264630
Probable space group: C 2/C
;
_chemical_formula_sum "Si O2"
_cell_formula_units_Z 40
_cell_length_a 21.712308
_cell_length_b 16.726020
_cell_length_c 10.812495
_cell_angle_alpha 90.000000
_cell_angle_beta 153.969387
_cell_angle_gamma 90.000000
_cell_volume 1723.224733
_symmetry_space_group_name_H-M "C 2/C"
_symmetry_group_IT_number 15
_symmetry_cell_setting 'monoclinic'
loop_
_space_group_symop_operation_xyz
x,y,z
-x,y,1/2-z
-x,-y,-z
x,-y,1/2+z
1/2+x,1/2+y,z
1/2-x,1/2+y,1/2-z
1/2-x,1/2-y,-z
1/2+x,1/2-y,1/2+z
loop_
_atom_site_type_symbol
_atom_site_label
_atom_site_fract_x
_atom_site_fract_y
_atom_site_fract_z
Si Si1 0.765092 0.692654 0.349112
Si Si2 0.501883 0.626195 0.549005
Si Si3 0.613573 0.211740 0.188347
Si Si4 0.130927 0.989435 0.890836
Si Si5 0.153511 0.639061 0.728717
O O1 0.854030 0.678519 0.387948
O O2 0.824911 0.656197 0.584593
O O3 0.735874 0.787445 0.312585
O O4 0.612268 0.652757 0.056463
O O5 0.526283 0.706045 0.515996
O O6 0.635003 0.579100 0.843426
O O7 0.423752 0.565194 0.319296
O O8 0.750000 0.250000 0.500000
O O9 0.513630 0.153554 0.088326
O O10 0.000000 0.987762 0.750000
O O11 0.275106 0.944093 0.185635
#
# Coordination Sequence:
#
# PCOD9264630 Si02
#       5
#     8   8   8   8   8
#     4   9  18  35  59  81 117 146 203 250 291 340
#     4   9  21  35  54  89 109 153 200 243 298 360
#     4  11  22  34  56  87 123 153 192 244 301 354
#     4  10  19  35  61  80 116 149 202 249 298 353
#     4   9  19  35  57  88 109 154 204 247 288 355
#
# _framework density 23.212294
#
# number of rings (size 3 to 8) (size 9 to 14) (size 15 to 20)
#    0.000    2.400    0.000    3.000    2.800    2.400 
#    0.000    1.000    0.000    0.000   10.400    0.000 
#    0.000    0.000    0.000    0.000    0.000    0.000 
#
# Total GULP energy -111506.015011 kJ/mol
# GULP energy per Si atom -5575.300751 kJ/mol
# Density = 2.315946 g / cm^3
# Si number density = 23.212294 Si / 1000 Ang^3
#
#
#
# Elastic Constant Matrix: (Units=GPa)
#
#
# Indices 1 2 3 4 5 6 
#
# 1 74.6548 15.2874 5.5705 0.0000 22.8876 0.0000
# 2 15.2874 73.5464 11.3177 0.0000 7.2969 0.0000
# 3 5.5705 11.3177 85.7411 0.0000 16.5144 0.0000
# 4 0.0000 0.0000 0.0000 -86.4843 0.0000 106.2589
# 5 22.8876 7.2969 16.5144 0.0000 30.1021 0.0000
# 6 0.0000 0.0000 0.0000 106.2589 0.0000 -65.7414
#
#
#
# Elastic Compliance Matrix: (Units=1/GPa)
#
#
# Indices 1 2 3 4 5 6 
#
# 1 0.018151 -0.002657 0.001907 0.000000 -0.014203 0.000000
# 2 -0.002657 0.014458 -0.001621 0.000000 -0.000595 0.000000
# 3 0.001907 -0.001621 0.013369 0.000000 -0.008392 0.000000
# 4 0.000000 0.000000 0.000000 0.011728 0.000000 0.018957
# 5 -0.014203 -0.000595 -0.008392 0.000000 0.048767 0.000000
# 6 0.000000 0.000000 0.000000 0.018957 0.000000 0.015429
#
#
# Mechanical properties :
#
#
# Convention : Reuss Voigt Hill
#
# Bulk Modulus (GPa) = 24.25082 33.14370 28.69726
# Shear Modulus (GPa) = 35.61492 -10.97360 12.32066
#
# Velocity S-wave (km/s) = 3.92128 -2.17664 2.30637
# Velocity P-wave (km/s) = 5.56525 2.82710 4.41387
#
# Compressibility (1/GPa) = 0.04123571
#
# Stress axis : x y z
#
# Youngs Moduli (GPa) = 55.09286 69.16737 74.79749
#
# Poissons Ratio (x) = 0.18379 -0.14265
# Poissons Ratio (y) = 0.14639 0.12126
# Poissons Ratio (z) = -0.10507 0.11213
#
# Static dielectric constant tensor:
#      x y z
#    x 1.891830 0.000000 0.055440 
#    y 0.000000 1.892950 0.000000 
#    z 0.055440 0.000000 2.052740 
# 
# From -- ./inp_files/113736.got.cif
#   From: 2010.05.17/outbox.cif.g08.bks.cpg/sg15_57_cif.got.tgz:113736.got - 2010.06.03 18:47:42.
