data_PCOD9264545
_publ_section_title
;
Structure prediction by ZEFSAII (Michael W. Deem and Ramdas Pophale) SiO2 
 PCOD9264545
Probable space group: C 2/C
;
_chemical_formula_sum "Si O2"
_cell_formula_units_Z 44
_cell_length_a 10.186409
_cell_length_b 11.365963
_cell_length_c 16.014396
_cell_angle_alpha 90.000000
_cell_angle_beta 67.807483
_cell_angle_gamma 90.000000
_cell_volume 1716.766936
_symmetry_space_group_name_H-M "C 2/C"
_symmetry_group_IT_number 15
_symmetry_cell_setting 'monoclinic'
loop_
_space_group_symop_operation_xyz
x,y,z
-x,y,1/2-z
-x,-y,-z
x,-y,1/2+z
1/2+x,1/2+y,z
1/2-x,1/2+y,1/2-z
1/2-x,1/2-y,-z
1/2+x,1/2-y,1/2+z
loop_
_atom_site_type_symbol
_atom_site_label
_atom_site_fract_x
_atom_site_fract_y
_atom_site_fract_z
Si Si1 0.530223 0.861700 0.992751
Si Si2 0.500000 0.923671 0.750000
Si Si3 0.534389 0.474532 0.089042
Si Si4 0.915297 0.211598 0.155492
Si Si5 0.829128 0.244011 0.673065
Si Si6 0.705697 0.894929 0.566409
O O1 0.510147 0.806786 0.086941
O O2 0.668598 0.807760 0.917010
O O3 0.409126 0.817849 0.955782
O O4 0.500000 0.000000 0.000000
O O5 0.401410 0.839332 0.717422
O O6 0.610227 0.975213 0.653905
O O7 0.500152 0.591033 0.149686
O O8 0.425104 0.373880 0.146452
O O9 0.500000 0.500000 0.000000
O O10 0.699447 0.445267 0.033162
O O11 0.827156 0.268151 0.251589
O O12 0.803984 0.173687 0.108327
#
# Coordination Sequence:
#
# PCOD9264545 Si02
#       6
#     8   4   8   8   8   8
#     4  11  22  36  55  86 116 149 183 240 281 330
#     4   8  18  30  56  88 108 140 188 248 272 320
#     4  10  19  35  60  82 111 152 186 235 280 335
#     4  10  21  36  59  84 112 150 187 233 284 328
#     4  10  20  34  56  85 115 141 192 231 286 328
#     4   9  18  36  57  83 112 144 196 229 278 329
#
# _framework density 25.629570000000001
#
# number of rings (size 3 to 8) (size 9 to 14) (size 15 to 20)
#    0.000    2.182    3.636    0.545    7.636    0.000 
#    0.000    0.909    0.000    0.000    0.000    0.000 
#    0.000    0.000    0.000    0.000    0.000    0.000 
#
# Total GULP energy -122613.489792 kJ/mol
# GULP energy per Si atom -5573.340445 kJ/mol
# Density = 2.557124 g / cm^3
# Si number density = 25.629570 Si / 1000 Ang^3
#
#
#
# Elastic Constant Matrix: (Units=GPa)
#
#
# Indices 1 2 3 4 5 6 
#
# 1 45.8941 2.0356 19.6475 0.0000 -5.9726 0.0000
# 2 2.0356 153.6440 101.6925 0.0000 -26.0474 0.0000
# 3 19.6475 101.6925 269.8583 0.0000 -66.1196 0.0000
# 4 0.0000 0.0000 0.0000 29.9890 0.0000 6.8457
# 5 -5.9726 -26.0474 -66.1196 0.0000 35.9798 0.0000
# 6 0.0000 0.0000 0.0000 6.8457 0.0000 13.9225
#
#
#
# Elastic Compliance Matrix: (Units=1/GPa)
#
#
# Indices 1 2 3 4 5 6 
#
# 1 0.022655 0.001068 -0.001712 0.000000 0.001388 0.000000
# 2 0.001068 0.008727 -0.003229 0.000000 0.000562 0.000000
# 3 -0.001712 -0.003229 0.008012 0.000000 0.012102 0.000000
# 4 0.000000 0.000000 0.000000 0.037562 0.000000 -0.018469
# 5 0.001388 0.000562 0.012102 0.000000 0.050671 0.000000
# 6 0.000000 0.000000 0.000000 -0.018469 0.000000 0.080908
#
#
# Mechanical properties :
#
#
# Convention : Reuss Voigt Hill
#
# Bulk Modulus (GPa) = 31.59590 79.57193 55.58392
# Shear Modulus (GPa) = 22.04303 39.04631 30.54467
#
# Velocity S-wave (km/s) = 2.93586 3.90742 3.45595
# Velocity P-wave (km/s) = 4.88335 7.17437 6.13672
#
# Compressibility (1/GPa) = 0.03164968
#
# Stress axis : x y z
#
# Youngs Moduli (GPa) = 44.13950 114.59264 124.80869
#
# Poissons Ratio (x) = -0.12241 0.21366
# Poissons Ratio (y) = -0.04715 0.40296
# Poissons Ratio (z) = 0.07556 0.36998
#
# Static dielectric constant tensor:
#      x y z
#    x 1.817130 0.000000 0.199610 
#    y 0.000000 2.347090 0.000000 
#    z 0.199610 0.000000 2.631140 
# 
# From -- ./inp_files/151372.got.cif
#   From: 2010.05.17/outbox.cif.g08.bks.cpg/sg15_76_cif.got.tgz:151372.got - 2010.06.03 18:47:42.
