data_PCOD9264941
_publ_section_title
;
Structure prediction by ZEFSAII (Michael W. Deem and Ramdas Pophale) SiO2 
 PCOD9264941
Probable space group: C 2/C
;
_chemical_formula_sum "Si O2"
_cell_formula_units_Z 48
_cell_length_a 5.572893
_cell_length_b 24.577951
_cell_length_c 16.900506
_cell_angle_alpha 90.000000
_cell_angle_beta 65.287484
_cell_angle_gamma 90.000000
_cell_volume 2102.864451
_symmetry_space_group_name_H-M "C 2/C"
_symmetry_group_IT_number 15
_symmetry_cell_setting 'monoclinic'
loop_
_space_group_symop_operation_xyz
x,y,z
-x,y,1/2-z
-x,-y,-z
x,-y,1/2+z
1/2+x,1/2+y,z
1/2-x,1/2+y,1/2-z
1/2-x,1/2-y,-z
1/2+x,1/2-y,1/2+z
loop_
_atom_site_type_symbol
_atom_site_label
_atom_site_fract_x
_atom_site_fract_y
_atom_site_fract_z
Si Si1 0.610844 0.926034 0.856825
Si Si2 0.501648 0.287276 0.451693
Si Si3 0.867199 0.116143 0.159968
Si Si4 0.020629 0.229677 0.124822
Si Si5 0.216251 0.156415 0.651914
Si Si6 0.323948 0.956171 0.193792
O O1 0.326232 0.897475 0.886330
O O2 0.746401 0.915719 0.751724
O O3 0.825978 0.901331 0.887097
O O4 0.591522 0.990741 0.866832
O O5 0.250000 0.250000 0.500000
O O6 0.706592 0.249643 0.375083
O O7 0.598133 0.295770 0.527802
O O8 0.429393 0.339763 0.412069
O O9 0.861971 0.180027 0.182721
O O10 0.870643 0.286775 0.138261
O O11 0.374753 0.101176 0.643282
O O12 0.000000 0.156969 0.750000
O O13 0.500000 0.956438 0.250000
O O14 0.000000 0.960030 0.250000
#
# Coordination Sequence:
#
# PCOD9264941 Si02
#       6
#     8   8   8   8   8   8
#     4  10  19  36  54  89 120 159 197 249 306 353
#     4   9  21  43  56  84 120 166 202 241 316 368
#     4  10  20  32  59  83 118 154 199 243 300 362
#     4  10  22  38  62  86 123 162 199 252 311 373
#     4  10  24  34  62  93 121 155 201 255 302 366
#     4  11  20  38  57  85 128 164 198 248 307 366
#
# _framework density 22.826006
#
# number of rings (size 3 to 8) (size 9 to 14) (size 15 to 20)
#    0.000    2.000    3.333    0.000   11.667    1.333 
#    0.000    0.000    0.000    2.000    0.000    0.000 
#    0.000    0.000    0.000    0.000    0.000    0.000 
#
# Total GULP energy -133785.181483 kJ/mol
# GULP energy per Si atom -5574.382562 kJ/mol
# Density = 2.277405 g / cm^3
# Si number density = 22.826006 Si / 1000 Ang^3
#
#
#
# Elastic Constant Matrix: (Units=GPa)
#
#
# Indices 1 2 3 4 5 6 
#
# 1 170.2273 56.4133 0.2310 0.0000 7.7388 0.0000
# 2 56.4133 186.9975 8.7197 0.0000 2.5189 0.0000
# 3 0.2310 8.7197 29.2429 0.0000 4.8806 0.0000
# 4 0.0000 0.0000 0.0000 3.1803 0.0000 -9.0390
# 5 7.7388 2.5189 4.8806 0.0000 16.8619 0.0000
# 6 0.0000 0.0000 0.0000 -9.0390 0.0000 31.4890
#
#
#
# Elastic Compliance Matrix: (Units=1/GPa)
#
#
# Indices 1 2 3 4 5 6 
#
# 1 0.006684 -0.002025 0.001064 0.000000 -0.003073 0.000000
# 2 -0.002025 0.006038 -0.001880 0.000000 0.000571 0.000000
# 3 0.001064 -0.001880 0.036549 0.000000 -0.010786 0.000000
# 4 0.000000 0.000000 0.000000 1.707561 0.000000 0.490160
# 5 -0.003073 0.000571 -0.010786 0.000000 0.063752 0.000000
# 6 0.000000 0.000000 0.000000 0.490160 0.000000 0.172459
#
#
# Mechanical properties :
#
#
# Convention : Reuss Voigt Hill
#
# Bulk Modulus (GPa) = 22.94136 57.46618 40.20377
# Shear Modulus (GPa) = 2.48354 31.71316 17.09835
#
# Velocity S-wave (km/s) = 1.04422 3.73143 2.73989
# Velocity P-wave (km/s) = 3.39503 6.61779 5.25934
#
# Compressibility (1/GPa) = 0.04358939
#
# Stress axis : x y z
#
# Youngs Moduli (GPa) = 149.61804 165.60709 27.36081
#
# Poissons Ratio (x) = 0.33528 -0.02911
# Poissons Ratio (y) = 0.30291 0.05144
# Poissons Ratio (z) = -0.15916 0.31132
#
# Static dielectric constant tensor:
#      x y z
#    x 2.354100 0.000000 0.083300 
#    y 0.000000 1.864100 0.000000 
#    z 0.083300 0.000000 1.935800 
# 
# From -- ./inp_files/185472.got.cif
#   From: 2010.05.17/outbox.cif.g08.bks.cpg/sg15_93_cif.got.tgz:185472.got - 2010.06.03 18:47:42.
