data_PCOD9264985
_publ_section_title
;
Structure prediction by ZEFSAII (Michael W. Deem and Ramdas Pophale) SiO2 
 PCOD9264985
Probable space group: C 2/C
;
_chemical_formula_sum "Si O2"
_cell_formula_units_Z 56
_cell_length_a 17.679839
_cell_length_b 25.331532
_cell_length_c 9.618854
_cell_angle_alpha 90.000000
_cell_angle_beta 137.720194
_cell_angle_gamma 90.000000
_cell_volume 2898.130616
_symmetry_space_group_name_H-M "C 2/C"
_symmetry_group_IT_number 15
_symmetry_cell_setting 'monoclinic'
loop_
_space_group_symop_operation_xyz
x,y,z
-x,y,1/2-z
-x,-y,-z
x,-y,1/2+z
1/2+x,1/2+y,z
1/2-x,1/2+y,1/2-z
1/2-x,1/2-y,-z
1/2+x,1/2-y,1/2+z
loop_
_atom_site_type_symbol
_atom_site_label
_atom_site_fract_x
_atom_site_fract_y
_atom_site_fract_z
Si Si1 0.327332 0.110045 0.240952
Si Si2 0.911260 0.398746 0.367300
Si Si3 0.381682 0.472161 0.364447
Si Si4 0.126378 0.207040 0.460658
Si Si5 0.218389 0.135734 0.819882
Si Si6 0.741097 0.007863 0.928267
Si Si7 0.183306 0.672513 0.992153
O O1 0.461761 0.104123 0.408878
O O2 0.283516 0.050935 0.157492
O O3 0.300871 0.135046 0.354152
O O4 0.268452 0.144713 0.040419
O O5 0.823861 0.385286 0.371294
O O6 0.865094 0.453892 0.240596
O O7 0.899078 0.355833 0.228709
O O8 0.500000 0.500000 0.500000
O O9 0.372344 0.411879 0.299397
O O10 0.343509 0.471433 0.472375
O O11 0.285649 0.502945 0.145510
O O12 0.165795 0.183349 0.661360
O O13 0.140931 0.270068 0.479995
O O14 0.205156 0.182620 0.447464
O O15 0.000000 0.193095 0.250000
#
# Coordination Sequence:
#
# PCOD9264985 Si02
#       7
#     8   8   8   8   8   8   8
#     4  11  20  35  55  83 116 141 178 235 279 329
#     4  10  19  36  56  79 112 150 181 224 281 334
#     4  10  20  35  51  73 108 147 184 230 276 328
#     4  10  21  41  60  80 111 147 187 235 279 326
#     4   9  22  35  53  82 110 145 186 226 284 340
#     4  10  21  33  52  81 108 142 188 220 272 342
#     4  10  22  37  61  87 106 143 196 228 269 336
#
# _framework density 19.322800999999998
#
# number of rings (size 3 to 8) (size 9 to 14) (size 15 to 20)
#    0.000    2.000    0.000    3.429    0.000    5.143 
#    0.000    6.429    0.000    0.000    0.000    0.000 
#    0.000    0.000    0.000    0.000    0.000    0.000 
#
# Total GULP energy -156306.183199 kJ/mol
# GULP energy per Si atom -5582.363686 kJ/mol
# Density = 1.927882 g / cm^3
# Si number density = 19.322801 Si / 1000 Ang^3
#
#
#
# Elastic Constant Matrix: (Units=GPa)
#
#
# Indices 1 2 3 4 5 6 
#
# 1 35.1325 18.5934 24.9675 0.0000 3.3282 0.0000
# 2 18.5934 61.1080 32.0966 0.0000 7.5983 0.0000
# 3 24.9675 32.0966 96.4606 0.0000 -1.8143 0.0000
# 4 0.0000 0.0000 0.0000 20.9147 0.0000 -10.0449
# 5 3.3282 7.5983 -1.8143 0.0000 30.2810 0.0000
# 6 0.0000 0.0000 0.0000 -10.0449 0.0000 27.2671
#
#
#
# Elastic Compliance Matrix: (Units=1/GPa)
#
#
# Indices 1 2 3 4 5 6 
#
# 1 0.037856 -0.007269 -0.007432 0.000000 -0.002782 0.000000
# 2 -0.007269 0.022141 -0.005582 0.000000 -0.005091 0.000000
# 3 -0.007432 -0.005582 0.014206 0.000000 0.003069 0.000000
# 4 0.000000 0.000000 0.000000 0.058091 0.000000 0.021400
# 5 -0.002782 -0.005091 0.003069 0.000000 0.034791 0.000000
# 6 0.000000 0.000000 0.000000 0.021400 0.000000 0.044558
#
#
# Mechanical properties :
#
#
# Convention : Reuss Voigt Hill
#
# Bulk Modulus (GPa) = 29.72891 38.22403 33.97647
# Shear Modulus (GPa) = 18.98109 23.49548 21.23829
#
# Velocity S-wave (km/s) = 3.13759 3.49082 3.31891
# Velocity P-wave (km/s) = 5.34273 6.00605 5.68407
#
# Compressibility (1/GPa) = 0.03363729
#
# Stress axis : x y z
#
# Youngs Moduli (GPa) = 26.41597 45.16533 70.39497
#
# Poissons Ratio (x) = 0.32830 0.52318
# Poissons Ratio (y) = 0.19201 0.39291
# Poissons Ratio (z) = 0.19633 0.25209
#
# Static dielectric constant tensor:
#      x y z
#    x 1.682550 0.000000 0.002050 
#    y 0.000000 1.676050 0.000000 
#    z 0.002050 0.000000 1.660230 
# 
# From -- ./inp_files/34164.got.cif
#   From: 2010.05.17/outbox.cif.g08.bks.cpg/sg15_18_cif.got.tgz:34164.got - 2010.06.03 18:47:42.
