data_PCOD9264742
_publ_section_title
;
Structure prediction by ZEFSAII (Michael W. Deem and Ramdas Pophale) SiO2 
 PCOD9264742
Probable space group: C 2/C
;
_chemical_formula_sum "Si O2"
_cell_formula_units_Z 64
_cell_length_a 19.385422
_cell_length_b 8.786918
_cell_length_c 31.110794
_cell_angle_alpha 90.000000
_cell_angle_beta 37.858092
_cell_angle_gamma 90.000000
_cell_volume 3252.255252
_symmetry_space_group_name_H-M "C 2/C"
_symmetry_group_IT_number 15
_symmetry_cell_setting 'monoclinic'
loop_
_space_group_symop_operation_xyz
x,y,z
-x,y,1/2-z
-x,-y,-z
x,-y,1/2+z
1/2+x,1/2+y,z
1/2-x,1/2+y,1/2-z
1/2-x,1/2-y,-z
1/2+x,1/2-y,1/2+z
loop_
_atom_site_type_symbol
_atom_site_label
_atom_site_fract_x
_atom_site_fract_y
_atom_site_fract_z
Si Si1 0.731551 0.186915 0.613936
Si Si2 0.679390 0.024273 0.907833
Si Si3 0.086930 0.871239 0.240469
Si Si4 0.127275 0.682646 0.305713
Si Si5 0.512405 0.319367 0.674294
Si Si6 0.479395 0.005932 0.439511
Si Si7 0.793950 0.613657 0.778178
Si Si8 0.861702 0.804733 0.969287
O O1 0.784318 0.349802 0.601565
O O2 0.611263 0.232102 0.651884
O O3 0.721694 0.093092 0.662809
O O4 0.814545 0.120631 0.536271
O O5 0.791278 0.113468 0.840991
O O6 0.590998 0.026751 0.912523
O O7 0.612920 0.076575 0.982966
O O8 0.096810 0.782824 0.279837
O O9 0.000000 0.797760 0.250000
O O10 0.039732 0.039433 0.274570
O O11 0.199646 0.541182 0.251881
O O12 0.198154 0.779669 0.305073
O O13 0.017674 0.613691 0.382409
O O14 0.412048 0.202094 0.714869
O O15 0.564809 0.383381 0.603858
O O16 0.430589 0.846222 0.447701
O O17 0.750000 0.750000 0.000000
#
# Coordination Sequence:
#
# PCOD9264742 Si02
#       8
#     8   8   8   8   8   8   8   8
#     4  10  19  35  62  92 124 162 208 247 308 374
#     4  10  19  37  66  88 123 165 210 251 306 382
#     4  12  24  42  61  91 126 169 213 258 316 369
#     4  12  26  41  62  92 125 161 212 263 314 371
#     4  11  19  36  65  89 124 164 207 251 304 370
#     4  10  19  38  63  93 123 162 212 253 312 370
#     4  12  22  39  61  91 121 162 205 259 312 365
#     4   9  20  34  59  98 126 160 208 255 306 377
#
# _framework density 19.678652
#
# number of rings (size 3 to 8) (size 9 to 14) (size 15 to 20)
#    0.000    1.250    5.000    1.875    0.000    1.000 
#    0.000    1.875    0.000    2.250    0.000    0.000 
#    0.000    0.000    0.000    0.000    0.000    0.000 
#
# Total GULP energy -178677.984045 kJ/mol
# GULP energy per Si atom -5583.687001 kJ/mol
# Density = 1.963386 g / cm^3
# Si number density = 19.678652 Si / 1000 Ang^3
#
#
#
# Elastic Constant Matrix: (Units=GPa)
#
#
# Indices 1 2 3 4 5 6 
#
# 1 75.2408 2.2543 36.9780 0.0001 -2.9328 -0.0008
# 2 2.2543 26.5623 10.1496 0.0007 2.9134 -0.0009
# 3 36.9780 10.1496 155.2772 0.0002 17.7640 0.0002
# 4 0.0001 0.0007 0.0002 12.2741 0.0000 4.7616
# 5 -2.9328 2.9134 17.7640 0.0000 38.8046 -0.0001
# 6 -0.0008 -0.0009 0.0002 4.7616 -0.0001 21.1261
#
#
#
# Elastic Compliance Matrix: (Units=1/GPa)
#
#
# Indices 1 2 3 4 5 6 
#
# 1 0.015376 -0.000106 -0.003998 0.000000 0.003000 0.000001
# 2 -0.000106 0.038737 -0.002293 -0.000003 -0.001867 0.000002
# 3 -0.003998 -0.002293 0.007975 0.000000 -0.003781 0.000000
# 4 0.000000 -0.000003 0.000000 0.089278 0.000000 -0.020122
# 5 0.003000 -0.001867 -0.003781 0.000000 0.027868 0.000000
# 6 0.000001 0.000002 0.000000 -0.020122 0.000000 0.051870
#
#
# Mechanical properties :
#
#
# Convention : Reuss Voigt Hill
#
# Bulk Modulus (GPa) = 20.28695 39.53823 29.91259
# Shear Modulus (GPa) = 19.20642 28.28752 23.74697
#
# Velocity S-wave (km/s) = 3.12749 3.79551 3.47758
# Velocity P-wave (km/s) = 4.83458 6.27244 5.59985
#
# Compressibility (1/GPa) = 0.04929277
#
# Stress axis : x y z
#
# Youngs Moduli (GPa) = 65.03819 25.81486 125.39899
#
# Poissons Ratio (x) = 0.00275 0.50133
# Poissons Ratio (y) = 0.00692 0.28756
# Poissons Ratio (z) = 0.26001 0.05920
#
# Static dielectric constant tensor:
#      x y z
#    x 1.696250 0.000000 0.038440 
#    y 0.000000 1.663070 0.000000 
#    z 0.038440 0.000000 1.741260 
# 
# From -- ./inp_files/315682.got.cif
#   From: 2010.05.17/outbox.cif.g08.bks.cpg/sg15_158_cif.got.tgz:315682.got - 2010.06.03 18:47:42.
