data_PCOD9264815
_publ_section_title
;
Structure prediction by ZEFSAII (Michael W. Deem and Ramdas Pophale) SiO2 
 PCOD9264815
Probable space group: C 2/C
;
_chemical_formula_sum "Si O2"
_cell_formula_units_Z 44
_cell_length_a 9.667497
_cell_length_b 25.036989
_cell_length_c 11.517981
_cell_angle_alpha 90.000000
_cell_angle_beta 40.085696
_cell_angle_gamma 90.000000
_cell_volume 1795.200438
_symmetry_space_group_name_H-M "C 2/C"
_symmetry_group_IT_number 15
_symmetry_cell_setting 'monoclinic'
loop_
_space_group_symop_operation_xyz
x,y,z
-x,y,1/2-z
-x,-y,-z
x,-y,1/2+z
1/2+x,1/2+y,z
1/2-x,1/2+y,1/2-z
1/2-x,1/2-y,-z
1/2+x,1/2-y,1/2+z
loop_
_atom_site_type_symbol
_atom_site_label
_atom_site_fract_x
_atom_site_fract_y
_atom_site_fract_z
Si Si1 0.761226 0.964804 0.449997
Si Si2 0.000000 0.121162 0.250000
Si Si3 0.049394 0.320761 0.423118
Si Si4 0.930083 0.568353 0.960048
Si Si5 0.106645 0.202466 0.344077
Si Si6 0.266521 0.152045 0.457845
O O1 0.600396 0.950416 0.447188
O O2 0.774713 0.911735 0.519929
O O3 0.000000 0.974066 0.250000
O O4 0.655580 0.019678 0.564263
O O5 0.800653 0.085668 0.337725
O O6 0.059989 0.161942 0.108031
O O7 0.078804 0.264830 0.341705
O O8 0.223724 0.330506 0.414186
O O9 0.030743 0.374652 0.360331
O O10 0.829249 0.312940 0.637990
O O11 0.115880 0.187897 0.473796
O O12 0.500000 0.159333 0.250000
#
# Coordination Sequence:
#
# PCOD9264815 Si02
#       6
#     8   4   8   8   8   8
#     4  10  19  35  64  86 110 153 200 245 286 352
#     4  10  20  38  60  80 120 162 192 232 300 370
#     4   9  19  35  58  82 118 156 192 240 292 356
#     4   9  19  35  57  82 116 155 191 229 305 351
#     4  10  20  33  56  84 113 159 192 240 292 349
#     4   9  19  36  57  86 121 151 194 245 302 346
#
# _framework density 24.509798
#
# number of rings (size 3 to 8) (size 9 to 14) (size 15 to 20)
#    0.000    2.545    0.909    1.636    0.000    5.818 
#    0.000    1.818    6.000    2.182    0.000    0.000 
#    0.000    0.000    0.000    0.000    0.000    0.000 
#
# Total GULP energy -122642.976704 kJ/mol
# GULP energy per Si atom -5574.680759 kJ/mol
# Density = 2.445401 g / cm^3
# Si number density = 24.509798 Si / 1000 Ang^3
#
#
#
# Elastic Constant Matrix: (Units=GPa)
#
#
# Indices 1 2 3 4 5 6 
#
# 1 99.6709 35.1185 31.8774 0.0000 -18.3226 0.0000
# 2 35.1185 143.4774 20.1259 0.0000 -13.5559 0.0000
# 3 31.8774 20.1259 50.9762 0.0000 -3.8306 0.0000
# 4 0.0000 0.0000 0.0000 -14.2199 0.0000 -53.2980
# 5 -18.3226 -13.5559 -3.8306 0.0000 23.0198 0.0000
# 6 0.0000 0.0000 0.0000 -53.2980 0.0000 -29.0793
#
#
#
# Elastic Compliance Matrix: (Units=1/GPa)
#
#
# Indices 1 2 3 4 5 6 
#
# 1 0.014917 -0.001628 -0.007965 0.000000 0.009589 0.000000
# 2 -0.001628 0.007921 -0.001879 0.000000 0.003056 0.000000
# 3 -0.007965 -0.001879 0.025094 0.000000 -0.003271 0.000000
# 4 0.000000 0.000000 0.000000 0.011981 0.000000 -0.021959
# 5 0.009589 0.003056 -0.003271 0.000000 0.052328 0.000000
# 6 0.000000 0.000000 0.000000 -0.021959 0.000000 0.005859
#
#
# Mechanical properties :
#
#
# Convention : Reuss Voigt Hill
#
# Bulk Modulus (GPa) = 40.02094 52.04090 46.03092
# Shear Modulus (GPa) = 33.47346 9.74429 21.60888
#
# Velocity S-wave (km/s) = 3.69957 1.99607 2.97247
# Velocity P-wave (km/s) = 5.88329 5.15666 5.53192
#
# Compressibility (1/GPa) = 0.02498692
#
# Stress axis : x y z
#
# Youngs Moduli (GPa) = 67.03902 126.25394 39.85033
#
# Poissons Ratio (x) = 0.20553 0.31740
# Poissons Ratio (y) = 0.10913 0.07490
# Poissons Ratio (z) = 0.53395 0.23729
#
# Static dielectric constant tensor:
#      x y z
#    x 2.022850 0.000000 -0.018070 
#    y 0.000000 1.994800 0.000000 
#    z -0.018070 0.000000 1.965890 
# 
# From -- ./inp_files/81104.got.cif
#   From: 2010.05.17/outbox.cif.g08.bks.cpg/sg15_41_cif.got.tgz:81104.got - 2010.06.03 18:47:42.
