data_PCOD9264300
_publ_section_title
;
Structure prediction by ZEFSAII (Michael W. Deem and Ramdas Pophale) SiO2 
 PCOD9264300
Probable space group: C 2/C
;
_chemical_formula_sum "Si O2"
_cell_formula_units_Z 44
_cell_length_a 7.527734
_cell_length_b 25.339816
_cell_length_c 9.882069
_cell_angle_alpha 90.000000
_cell_angle_beta 71.665329
_cell_angle_gamma 90.000000
_cell_volume 1789.326046
_symmetry_space_group_name_H-M "C 2/C"
_symmetry_group_IT_number 15
_symmetry_cell_setting 'monoclinic'
loop_
_space_group_symop_operation_xyz
x,y,z
-x,y,1/2-z
-x,-y,-z
x,-y,1/2+z
1/2+x,1/2+y,z
1/2-x,1/2+y,1/2-z
1/2-x,1/2-y,-z
1/2+x,1/2-y,1/2+z
loop_
_atom_site_type_symbol
_atom_site_label
_atom_site_fract_x
_atom_site_fract_y
_atom_site_fract_z
Si Si1 0.338042 0.734992 0.178639
Si Si2 0.334832 0.417863 0.039985
Si Si3 0.003590 0.566421 0.438723
Si Si4 0.308259 0.523834 0.152630
Si Si5 0.861145 0.792534 0.070287
Si Si6 0.000000 0.341330 0.750000
O O1 0.500000 0.722817 0.250000
O O2 0.236124 0.786916 0.260005
O O3 0.431613 0.729698 0.009469
O O4 0.180415 0.692010 0.236202
O O5 0.117662 0.424395 0.046968
O O6 0.502823 0.441861 0.905432
O O7 0.364039 0.355024 0.040716
O O8 0.349464 0.461624 0.155692
O O9 0.165459 0.543588 0.300249
O O10 0.815414 0.533332 0.456712
O O11 0.955244 0.623046 0.389350
O O12 0.750000 0.750000 0.000000
#
# Coordination Sequence:
#
# PCOD9264300 Si02
#       6
#     8   8   8   8   8   4
#     4  10  21  39  58  88 124 163 212 263 308 376
#     4  11  20  38  63  84 122 168 200 262 312 381
#     4  10  19  35  57  91 115 157 208 252 308 386
#     4   9  21  35  58  90 117 152 210 253 317 372
#     4  10  21  38  62  89 125 165 215 252 321 372
#     4  10  20  34  64  86 118 168 214 256 308 380
#
# _framework density 24.590261999999999
#
# number of rings (size 3 to 8) (size 9 to 14) (size 15 to 20)
#    0.000    2.182    0.000    5.455    0.000    2.182 
#    9.818    3.636    8.000    0.000    0.000    0.000 
#    0.000    0.000    0.000    0.000    0.000    0.000 
#
# Total GULP energy -122560.173700 kJ/mol
# GULP energy per Si atom -5570.916986 kJ/mol
# Density = 2.453429 g / cm^3
# Si number density = 24.590262 Si / 1000 Ang^3
#
#
#
# Elastic Constant Matrix: (Units=GPa)
#
#
# Indices 1 2 3 4 5 6 
#
# 1 123.9338 30.5763 24.5702 0.0000 -18.8009 0.0000
# 2 30.5763 161.7997 21.3158 0.0000 -7.5541 0.0000
# 3 24.5702 21.3158 44.9441 0.0000 -6.8142 0.0000
# 4 0.0000 0.0000 0.0000 23.0960 0.0000 -18.4260
# 5 -18.8009 -7.5541 -6.8142 0.0000 22.8150 0.0000
# 6 0.0000 0.0000 0.0000 -18.4260 0.0000 16.9933
#
#
#
# Elastic Compliance Matrix: (Units=1/GPa)
#
#
# Indices 1 2 3 4 5 6 
#
# 1 0.010164 -0.001074 -0.004013 0.000000 0.006822 0.000000
# 2 -0.001074 0.006743 -0.002521 0.000000 0.000595 0.000000
# 3 -0.004013 -0.002521 0.026198 0.000000 0.003683 0.000000
# 4 0.000000 0.000000 0.000000 0.320872 0.000000 0.347924
# 5 0.006822 0.000595 0.003683 0.000000 0.050749 0.000000
# 6 0.000000 0.000000 0.000000 0.347924 0.000000 0.436104
#
#
# Mechanical properties :
#
#
# Convention : Reuss Voigt Hill
#
# Bulk Modulus (GPa) = 35.85549 53.73359 44.79454
# Shear Modulus (GPa) = 5.71205 29.52854 17.62030
#
# Velocity S-wave (km/s) = 1.52576 3.46905 2.67976
# Velocity P-wave (km/s) = 4.20913 6.15993 5.27548
#
# Compressibility (1/GPa) = 0.02788973
#
# Stress axis : x y z
#
# Youngs Moduli (GPa) = 98.38470 148.29598 38.17118
#
# Poissons Ratio (x) = 0.15921 0.15319
# Poissons Ratio (y) = 0.10563 0.09623
# Poissons Ratio (z) = 0.39483 0.37386
#
# Static dielectric constant tensor:
#      x y z
#    x 1.865680 0.000000 -0.026960 
#    y 0.000000 1.951650 0.000000 
#    z -0.026960 0.000000 2.031260 
# 
# From -- ./inp_files/135818.got.cif
#   From: 2010.05.17/outbox.cif.g08.bks.cpg/sg15_68_cif.got.tgz:135818.got - 2010.06.03 18:47:42.
