data_PCOD9264707
_publ_section_title
;
Structure prediction by ZEFSAII (Michael W. Deem and Ramdas Pophale) SiO2 
 PCOD9264707
Probable space group: C 2/C
;
_chemical_formula_sum "Si O2"
_cell_formula_units_Z 60
_cell_length_a 18.279136
_cell_length_b 17.586357
_cell_length_c 13.749049
_cell_angle_alpha 90.000000
_cell_angle_beta 40.266554
_cell_angle_gamma 90.000000
_cell_volume 2856.723743
_symmetry_space_group_name_H-M "C 2/C"
_symmetry_group_IT_number 15
_symmetry_cell_setting 'monoclinic'
loop_
_space_group_symop_operation_xyz
x,y,z
-x,y,1/2-z
-x,-y,-z
x,-y,1/2+z
1/2+x,1/2+y,z
1/2-x,1/2+y,1/2-z
1/2-x,1/2-y,-z
1/2+x,1/2-y,1/2+z
loop_
_atom_site_type_symbol
_atom_site_label
_atom_site_fract_x
_atom_site_fract_y
_atom_site_fract_z
Si Si1 0.949694 0.123511 0.893094
Si Si2 0.142383 0.987375 0.255026
Si Si3 0.000000 0.494065 0.750000
Si Si4 0.202544 0.451339 0.667415
Si Si5 0.268169 0.730901 0.370356
Si Si6 0.148573 0.581161 0.449913
Si Si7 0.284796 0.610990 0.645197
Si Si8 0.467378 0.638756 0.086781
O O1 0.000000 0.168317 0.750000
O O2 0.040322 0.052955 0.803558
O O3 0.970220 0.167933 0.973407
O O4 0.818386 0.095455 0.025032
O O5 0.199379 0.922369 0.262703
O O6 0.246035 0.035065 0.106714
O O7 0.083778 0.054238 0.376672
O O8 0.101355 0.443886 0.692931
O O9 0.043448 0.547193 0.616050
O O10 0.159441 0.434123 0.822356
O O11 0.234406 0.540882 0.637723
O O12 0.250000 0.750000 0.500000
O O13 0.170725 0.670851 0.439096
O O14 0.275423 0.809027 0.303374
O O15 0.383718 0.686583 0.235709
O O16 0.413025 0.629213 0.484222
#
# Coordination Sequence:
#
# PCOD9264707 Si02
#       8
#     8   8   4   8   8   8   8   8
#     4  11  18  32  66  94 112 148 203 265 320 355
#     4   9  17  38  62  90 117 153 205 261 317 352
#     4  12  24  36  56  88 118 176 228 244 302 388
#     4  11  21  40  59  91 124 165 211 269 312 361
#     4  11  23  36  56  91 128 167 194 240 314 386
#     4  10  22  40  58  82 137 164 205 264 306 367
#     4  10  19  35  62  86 116 166 199 247 318 359
#     4  10  19  40  56  86 131 153 199 262 312 363
#
# _framework density 21.003081000000002
#
# number of rings (size 3 to 8) (size 9 to 14) (size 15 to 20)
#    0.000    1.600    5.333    2.800    0.000    3.733 
#    0.000    0.000    0.000    3.200   13.867    0.000 
#    0.000    0.000    0.000    0.000    0.000    0.000 
#
# Total GULP energy -167146.067660 kJ/mol
# GULP energy per Si atom -5571.535589 kJ/mol
# Density = 2.095528 g / cm^3
# Si number density = 21.003081 Si / 1000 Ang^3
#
#
#
# Elastic Constant Matrix: (Units=GPa)
#
#
# Indices 1 2 3 4 5 6 
#
# 1 111.3392 16.9174 29.1691 0.0000 1.8985 0.0000
# 2 16.9174 78.5541 14.1285 0.0000 8.4078 0.0000
# 3 29.1691 14.1285 113.0704 0.0000 17.8128 0.0000
# 4 0.0000 0.0000 0.0000 23.9319 0.0000 -0.3013
# 5 1.8985 8.4078 17.8128 0.0000 36.7390 0.0000
# 6 0.0000 0.0000 0.0000 -0.3013 0.0000 10.5054
#
#
#
# Elastic Compliance Matrix: (Units=1/GPa)
#
#
# Indices 1 2 3 4 5 6 
#
# 1 0.009892 -0.001799 -0.002502 0.000000 0.001114 0.000000
# 2 -0.001799 0.013544 -0.000817 0.000000 -0.002610 0.000000
# 3 -0.002502 -0.000817 0.010331 0.000000 -0.004693 0.000000
# 4 0.000000 0.000000 0.000000 0.041800 0.000000 0.001199
# 5 0.001114 -0.002610 -0.004693 0.000000 0.030034 0.000000
# 6 0.000000 0.000000 0.000000 0.001199 0.000000 0.095223
#
#
# Mechanical properties :
#
#
# Convention : Reuss Voigt Hill
#
# Bulk Modulus (GPa) = 42.50070 47.04372 44.77221
# Shear Modulus (GPa) = 22.84098 30.41851 26.62975
#
# Velocity S-wave (km/s) = 3.30131 3.80977 3.56462
# Velocity P-wave (km/s) = 5.90008 6.46526 6.18912
#
# Compressibility (1/GPa) = 0.02352903
#
# Stress axis : x y z
#
# Youngs Moduli (GPa) = 101.09620 73.83382 96.79657
#
# Poissons Ratio (x) = 0.13286 0.24222
# Poissons Ratio (y) = 0.18191 0.07907
# Poissons Ratio (z) = 0.25298 0.06032
#
# Static dielectric constant tensor:
#      x y z
#    x 1.857700 0.000000 0.019580 
#    y 0.000000 1.750390 0.000000 
#    z 0.019580 0.000000 1.860960 
# 
# From -- ./inp_files/168871.got.cif
#   From: 2010.05.17/outbox.cif.g08.bks.cpg/sg15_85_cif.got.tgz:168871.got - 2010.06.03 18:47:42.
