data_PCOD9264557
_publ_section_title
;
Structure prediction by ZEFSAII (Michael W. Deem and Ramdas Pophale) SiO2 
 PCOD9264557
Probable space group: C 2/C
;
_chemical_formula_sum "Si O2"
_cell_formula_units_Z 52
_cell_length_a 25.997396
_cell_length_b 8.120202
_cell_length_c 11.751674
_cell_angle_alpha 90.000000
_cell_angle_beta 80.918284
_cell_angle_gamma 90.000000
_cell_volume 2449.727566
_symmetry_space_group_name_H-M "C 2/C"
_symmetry_group_IT_number 15
_symmetry_cell_setting 'monoclinic'
loop_
_space_group_symop_operation_xyz
x,y,z
-x,y,1/2-z
-x,-y,-z
x,-y,1/2+z
1/2+x,1/2+y,z
1/2-x,1/2+y,1/2-z
1/2-x,1/2-y,-z
1/2+x,1/2-y,1/2+z
loop_
_atom_site_type_symbol
_atom_site_label
_atom_site_fract_x
_atom_site_fract_y
_atom_site_fract_z
Si Si1 0.728590 0.750249 0.880650
Si Si2 0.817485 0.553265 0.738015
Si Si3 0.110255 0.351935 0.657816
Si Si4 0.910095 0.256166 0.091674
Si Si5 0.380319 0.616023 0.628504
Si Si6 0.000000 0.366226 0.750000
Si Si7 0.515969 0.308658 0.484847
O O1 0.774906 0.687627 0.783783
O O2 0.678591 0.630554 0.891879
O O3 0.707529 0.922822 0.839850
O O4 0.750000 0.750000 0.000000
O O5 0.838422 0.461572 0.844236
O O6 0.870528 0.623483 0.666983
O O7 0.104207 0.272557 0.536784
O O8 0.115598 0.213553 0.753984
O O9 0.055836 0.447474 0.704191
O O10 0.897820 0.071692 0.136678
O O11 0.972778 0.286007 0.075395
O O12 0.421600 0.698727 0.524902
O O13 0.992262 0.253873 0.640877
O O14 0.500000 0.500000 0.500000
#
# Coordination Sequence:
#
# PCOD9264557 Si02
#       7
#     8   8   8   8   8   4   8
#     4  11  24  41  58  79 111 148 188 234 275 325
#     4  11  23  39  57  83 110 146 192 231 276 332
#     4   9  19  36  56  82 114 146 183 229 278 331
#     4  10  19  35  60  85 112 145 179 227 283 332
#     4   9  19  36  58  83 109 145 187 226 274 332
#     4   8  14  30  54  76 108 146 174 214 274 330
#     4   8  15  30  54  82 108 137 174 218 269 325
#
# _framework density 21.226849999999999
#
# number of rings (size 3 to 8) (size 9 to 14) (size 15 to 20)
#    0.000    2.462    0.000    1.846    0.000    3.692 
#    0.000   20.769    0.000    5.538    0.000    0.000 
#    0.000    0.000    0.000    0.000    0.000    0.000 
#
# Total GULP energy -144966.103102 kJ/mol
# GULP energy per Si atom -5575.619350 kJ/mol
# Density = 2.117854 g / cm^3
# Si number density = 21.226850 Si / 1000 Ang^3
#
#
#
# Elastic Constant Matrix: (Units=GPa)
#
#
# Indices 1 2 3 4 5 6 
#
# 1 92.4161 15.9905 20.1371 0.0000 -9.6172 0.0000
# 2 15.9905 41.7139 6.7840 0.0000 -10.1311 0.0000
# 3 20.1371 6.7840 30.7927 0.0000 -12.4803 0.0000
# 4 0.0000 0.0000 0.0000 14.3575 0.0000 -11.9986
# 5 -9.6172 -10.1311 -12.4803 0.0000 32.4451 0.0000
# 6 0.0000 0.0000 0.0000 -11.9986 0.0000 34.3036
#
#
#
# Elastic Compliance Matrix: (Units=1/GPa)
#
#
# Indices 1 2 3 4 5 6 
#
# 1 0.013173 -0.003846 -0.007904 0.000000 -0.000337 0.000000
# 2 -0.003846 0.027281 -0.000598 0.000000 0.007148 0.000000
# 3 -0.007904 -0.000598 0.043538 0.000000 0.014218 0.000000
# 4 0.000000 0.000000 0.000000 0.098418 0.000000 0.034424
# 5 -0.000337 0.007148 0.014218 0.000000 0.038423 0.000000
# 6 0.000000 0.000000 0.000000 0.034424 0.000000 0.041192
#
#
# Mechanical properties :
#
#
# Convention : Reuss Voigt Hill
#
# Bulk Modulus (GPa) = 16.86434 27.86067 22.36251
# Shear Modulus (GPa) = 16.31393 24.35532 20.33462
#
# Velocity S-wave (km/s) = 2.77528 3.39098 3.09846
# Velocity P-wave (km/s) = 4.26986 5.33717 4.83306
#
# Compressibility (1/GPa) = 0.05929671
#
# Stress axis : x y z
#
# Youngs Moduli (GPa) = 75.91110 36.65613 22.96833
#
# Poissons Ratio (x) = 0.14098 0.18154
# Poissons Ratio (y) = 0.29196 0.01373
# Poissons Ratio (z) = 0.59999 0.02191
#
# Static dielectric constant tensor:
#      x y z
#    x 1.846070 0.000000 -0.014470 
#    y 0.000000 1.773200 0.000000 
#    z -0.014470 0.000000 1.754300 
# 
# From -- ./inp_files/125285.got.cif
#   From: 2010.05.17/outbox.cif.g08.bks.cpg/sg15_63_cif.got.tgz:125285.got - 2010.06.03 18:47:42.
