data_PCOD9264573
_publ_section_title
;
Structure prediction by ZEFSAII (Michael W. Deem and Ramdas Pophale) SiO2 
 PCOD9264573
Probable space group: C 2/C
;
_chemical_formula_sum "Si O2"
_cell_formula_units_Z 56
_cell_length_a 11.983934
_cell_length_b 11.630147
_cell_length_c 20.768608
_cell_angle_alpha 90.000000
_cell_angle_beta 104.020831
_cell_angle_gamma 90.000000
_cell_volume 2808.385499
_symmetry_space_group_name_H-M "C 2/C"
_symmetry_group_IT_number 15
_symmetry_cell_setting 'monoclinic'
loop_
_space_group_symop_operation_xyz
x,y,z
-x,y,1/2-z
-x,-y,-z
x,-y,1/2+z
1/2+x,1/2+y,z
1/2-x,1/2+y,1/2-z
1/2-x,1/2-y,-z
1/2+x,1/2-y,1/2+z
loop_
_atom_site_type_symbol
_atom_site_label
_atom_site_fract_x
_atom_site_fract_y
_atom_site_fract_z
Si Si1 0.170545 0.849405 0.958874
Si Si2 0.501232 0.714119 0.324595
Si Si3 0.530854 0.100259 0.454663
Si Si4 0.223827 0.904467 0.490439
Si Si5 0.934758 0.482812 0.178473
Si Si6 0.323934 0.547203 0.367236
Si Si7 0.027058 0.845570 0.062735
O O1 0.110589 0.823009 0.883147
O O2 0.250000 0.750000 0.000000
O O3 0.066751 0.874352 0.995200
O O4 0.242404 0.965511 0.968691
O O5 0.500000 0.677695 0.250000
O O6 0.515893 0.853166 0.325460
O O7 0.390047 0.650554 0.340181
O O8 0.651922 0.152342 0.499370
O O9 0.449151 0.209496 0.432129
O O10 0.500000 0.000000 0.500000
O O11 0.547187 0.045475 0.386911
O O12 0.198597 0.910616 0.562977
O O13 0.106908 0.864596 0.441165
O O14 0.799188 0.500171 0.174270
O O15 0.000000 0.530797 0.250000
O O16 0.403200 0.433453 0.383428
#
# Coordination Sequence:
#
# PCOD9264573 Si02
#       7
#     8   8   8   8   8   8   8
#     4  11  19  35  62  92 122 159 213 267 321 383
#     4  11  21  39  68  93 121 170 226 264 322 403
#     4  11  23  37  60  93 125 161 213 270 322 390
#     4  10  19  35  60  86 126 161 193 264 328 375
#     4  10  24  46  61  87 128 173 210 262 336 396
#     4  10  20  41  67  86 124 166 209 266 323 392
#     4  11  19  36  60  91 123 159 202 265 332 375
#
# _framework density 19.940282
#
# number of rings (size 3 to 8) (size 9 to 14) (size 15 to 20)
#    0.000    1.429    2.857    5.571    0.000    0.000 
#   10.286    0.714    3.143    0.000    0.000    0.000 
#    0.000    0.000    0.000    0.000    0.000    0.000 
#
# Total GULP energy -156010.824063 kJ/mol
# GULP energy per Si atom -5571.815145 kJ/mol
# Density = 1.989490 g / cm^3
# Si number density = 19.940282 Si / 1000 Ang^3
#
#
#
# Elastic Constant Matrix: (Units=GPa)
#
#
# Indices 1 2 3 4 5 6 
#
# 1 90.1040 35.3869 32.9402 0.0000 25.0238 0.0000
# 2 35.3869 93.5265 13.5528 0.0000 8.4560 0.0000
# 3 32.9402 13.5528 110.0168 0.0000 13.6407 0.0000
# 4 0.0000 0.0000 0.0000 18.8827 0.0000 -2.9478
# 5 25.0238 8.4560 13.6407 0.0000 27.7862 0.0000
# 6 0.0000 0.0000 0.0000 -2.9478 0.0000 31.0883
#
#
#
# Elastic Compliance Matrix: (Units=1/GPa)
#
#
# Indices 1 2 3 4 5 6 
#
# 1 0.017858 -0.005132 -0.003103 0.000000 -0.012997 0.000000
# 2 -0.005132 0.012574 -0.000118 0.000000 0.000853 0.000000
# 3 -0.003103 -0.000118 0.010310 0.000000 -0.002231 0.000000
# 4 0.000000 0.000000 0.000000 0.053754 0.000000 0.005097
# 5 -0.012997 0.000853 -0.002231 0.000000 0.048530 0.000000
# 6 0.000000 0.000000 0.000000 0.005097 0.000000 0.032650
#
#
# Mechanical properties :
#
#
# Convention : Reuss Voigt Hill
#
# Bulk Modulus (GPa) = 41.60601 50.82298 46.21449
# Shear Modulus (GPa) = 24.95091 29.66926 27.31008
#
# Velocity S-wave (km/s) = 3.54118 3.86152 3.70482
# Velocity P-wave (km/s) = 6.13438 6.73979 6.44420
#
# Compressibility (1/GPa) = 0.02403499
#
# Stress axis : x y z
#
# Youngs Moduli (GPa) = 55.99766 79.52994 96.99551
#
# Poissons Ratio (x) = 0.40814 0.30099
# Poissons Ratio (y) = 0.28738 0.01146
# Poissons Ratio (z) = 0.17377 0.00940
#
# Static dielectric constant tensor:
#      x y z
#    x 1.769670 0.000000 0.006950 
#    y 0.000000 1.771380 0.000000 
#    z 0.006950 0.000000 1.636060 
# 
# From -- ./inp_files/237648.got.cif
#   From: 2010.05.17/outbox.cif.g08.bks.cpg/sg15_119_cif.got.tgz:237648.got - 2010.06.03 18:47:42.
