data_PCOD9264737
_publ_section_title
;
Structure prediction by ZEFSAII (Michael W. Deem and Ramdas Pophale) SiO2 
 PCOD9264737
Probable space group: C 2/C
;
_chemical_formula_sum "Si O2"
_cell_formula_units_Z 60
_cell_length_a 25.616744
_cell_length_b 12.327439
_cell_length_c 17.111288
_cell_angle_alpha 90.000000
_cell_angle_beta 30.059055
_cell_angle_gamma 90.000000
_cell_volume 2706.598834
_symmetry_space_group_name_H-M "C 2/C"
_symmetry_group_IT_number 15
_symmetry_cell_setting 'monoclinic'
loop_
_space_group_symop_operation_xyz
x,y,z
-x,y,1/2-z
-x,-y,-z
x,-y,1/2+z
1/2+x,1/2+y,z
1/2-x,1/2+y,1/2-z
1/2-x,1/2-y,-z
1/2+x,1/2-y,1/2+z
loop_
_atom_site_type_symbol
_atom_site_label
_atom_site_fract_x
_atom_site_fract_y
_atom_site_fract_z
Si Si1 0.459736 0.617333 0.026517
Si Si2 0.047252 0.790882 0.565964
Si Si3 0.771060 0.762154 0.726563
Si Si4 0.484002 0.064744 0.639095
Si Si5 0.184800 0.783937 0.008158
Si Si6 0.667035 0.034474 0.807156
Si Si7 0.500000 0.886102 0.750000
Si Si8 0.598726 0.523449 0.546484
O O1 0.338842 0.650754 0.187231
O O2 0.500000 0.500000 0.000000
O O3 0.517433 0.693961 0.012675
O O4 0.465632 0.608434 0.924923
O O5 0.167475 0.759749 0.408536
O O6 0.983995 0.685618 0.675228
O O7 0.039606 0.907760 0.618667
O O8 0.755294 0.784123 0.654052
O O9 0.835934 0.650244 0.646211
O O10 0.388168 0.050856 0.704359
O O11 0.592752 0.048325 0.450109
O O12 0.480526 0.967238 0.703868
O O13 0.132113 0.904732 0.077736
O O14 0.097546 0.692537 0.113546
O O15 0.250000 0.750000 0.000000
O O16 0.788535 0.005096 0.639161
#
# Coordination Sequence:
#
# PCOD9264737 Si02
#       8
#     8   8   8   8   8   8   4   8
#     4   9  17  32  53  90 125 147 192 253 321 363
#     4  10  20  35  64  91 121 156 205 272 311 361
#     4  10  19  36  60  92 122 153 209 263 309 355
#     4  11  21  36  60  88 126 163 208 250 315 373
#     4  11  23  40  59  85 127 168 209 246 312 382
#     4  10  19  35  62  91 117 160 210 261 306 359
#     4  12  26  40  60  88 130 168 198 248 314 398
#     4   9  20  36  61  90 120 154 210 268 312 360
#
# _framework density 22.168043999999998
#
# number of rings (size 3 to 8) (size 9 to 14) (size 15 to 20)
#    0.000    1.867    2.667    2.400    0.000    3.200 
#    0.000    0.667    0.000    7.200    0.000    0.000 
#    0.000    0.000    0.000    0.000    0.000    0.000 
#
# Total GULP energy -167077.161678 kJ/mol
# GULP energy per Si atom -5569.238723 kJ/mol
# Density = 2.211759 g / cm^3
# Si number density = 22.168044 Si / 1000 Ang^3
#
#
#
# Elastic Constant Matrix: (Units=GPa)
#
#
# Indices 1 2 3 4 5 6 
#
# 1 108.8879 43.0550 13.0651 0.0000 -5.1457 0.0000
# 2 43.0550 143.6531 -2.1392 0.0000 -1.1286 0.0000
# 3 13.0651 -2.1392 34.0421 0.0000 8.7831 0.0000
# 4 0.0000 0.0000 0.0000 20.5882 0.0000 -6.6383
# 5 -5.1457 -1.1286 8.7831 0.0000 18.9885 0.0000
# 6 0.0000 0.0000 0.0000 -6.6383 0.0000 41.5159
#
#
#
# Elastic Compliance Matrix: (Units=1/GPa)
#
#
# Indices 1 2 3 4 5 6 
#
# 1 0.011588 -0.003519 -0.006160 0.000000 0.005780 0.000000
# 2 -0.003519 0.008038 0.002247 0.000000 -0.001515 0.000000
# 3 -0.006160 0.002247 0.036651 0.000000 -0.018488 0.000000
# 4 0.000000 0.000000 0.000000 0.051212 0.000000 0.008189
# 5 0.005780 -0.001515 -0.018488 0.000000 0.062691 0.000000
# 6 0.000000 0.000000 0.000000 0.008189 0.000000 0.025397
#
#
# Mechanical properties :
#
#
# Convention : Reuss Voigt Hill
#
# Bulk Modulus (GPa) = 24.14799 43.83831 33.99315
# Shear Modulus (GPa) = 22.29716 31.72534 27.01125
#
# Velocity S-wave (km/s) = 3.17491 3.78713 3.49446
# Velocity P-wave (km/s) = 4.93527 6.24032 5.62576
#
# Compressibility (1/GPa) = 0.04141131
#
# Stress axis : x y z
#
# Youngs Moduli (GPa) = 86.29972 124.41608 27.28459
#
# Poissons Ratio (x) = 0.43785 0.16806
# Poissons Ratio (y) = 0.30371 -0.06130
# Poissons Ratio (z) = 0.53158 -0.27952
#
# Static dielectric constant tensor:
#      x y z
#    x 1.813910 0.000000 0.035270 
#    y 0.000000 1.915000 0.000000 
#    z 0.035270 0.000000 1.980440 
# 
# From -- ./inp_files/222548.got.cif
#   From: 2010.05.17/outbox.cif.g08.bks.cpg/sg15_112_cif.got.tgz:222548.got - 2010.06.03 18:47:42.
