data_PCOD9264802
_publ_section_title
;
Structure prediction by ZEFSAII (Michael W. Deem and Ramdas Pophale) SiO2 
 PCOD9264802
Probable space group: C 2/C
;
_chemical_formula_sum "Si O2"
_cell_formula_units_Z 52
_cell_length_a 10.453655
_cell_length_b 30.680801
_cell_length_c 12.206456
_cell_angle_alpha 90.000000
_cell_angle_beta 140.901370
_cell_angle_gamma 90.000000
_cell_volume 2468.981526
_symmetry_space_group_name_H-M "C 2/C"
_symmetry_group_IT_number 15
_symmetry_cell_setting 'monoclinic'
loop_
_space_group_symop_operation_xyz
x,y,z
-x,y,1/2-z
-x,-y,-z
x,-y,1/2+z
1/2+x,1/2+y,z
1/2-x,1/2+y,1/2-z
1/2-x,1/2-y,-z
1/2+x,1/2-y,1/2+z
loop_
_atom_site_type_symbol
_atom_site_label
_atom_site_fract_x
_atom_site_fract_y
_atom_site_fract_z
Si Si1 0.567171 0.286072 0.667925
Si Si2 0.000000 0.918955 0.750000
Si Si3 0.867817 0.528238 0.560194
Si Si4 0.095539 0.435017 0.998039
Si Si5 0.833924 0.310622 0.229559
Si Si6 0.416939 0.374796 0.304491
Si Si7 0.239725 0.128847 0.215726
O O1 0.500000 0.290430 0.750000
O O2 0.371268 0.300049 0.470856
O O3 0.603748 0.234928 0.674216
O O4 0.742575 0.319302 0.745179
O O5 0.850803 0.949884 0.582663
O O6 0.878790 0.890152 0.756911
O O7 0.863455 0.475916 0.553180
O O8 0.000000 0.543067 0.750000
O O9 0.970099 0.545690 0.517108
O O10 0.953063 0.396840 0.852880
O O11 0.307741 0.417841 0.186390
O O12 0.770976 0.348400 0.269030
O O13 0.000000 0.323715 0.250000
O O14 0.500000 0.351817 0.250000
O O15 0.596636 0.379171 0.513590
#
# Coordination Sequence:
#
# PCOD9264802 Si02
#       7
#     8   4   8   8   8   8   8
#     4  10  19  35  63  95 124 156 207 274 321 367
#     4  10  20  38  66  94 128 154 202 288 316 370
#     4  10  22  39  61  94 119 160 213 265 322 372
#     4  10  24  39  63  86 124 169 211 259 313 386
#     4  10  22  37  64  94 124 163 213 267 317 369
#     4  11  26  42  61  92 132 174 213 257 316 387
#     4  10  22  39  63  94 124 165 215 259 323 374
#
# _framework density 21.061315
#
# number of rings (size 3 to 8) (size 9 to 14) (size 15 to 20)
#    0.000    1.846    0.769    2.769    7.538    1.846 
#    0.000    7.692    0.000    0.000    0.000    0.000 
#    0.000    0.000    0.000    0.000    0.000    0.000 
#
# Total GULP energy -145204.809205 kJ/mol
# GULP energy per Si atom -5584.800354 kJ/mol
# Density = 2.101338 g / cm^3
# Si number density = 21.061315 Si / 1000 Ang^3
#
#
#
# Elastic Constant Matrix: (Units=GPa)
#
#
# Indices 1 2 3 4 5 6 
#
# 1 40.9258 25.4162 -9.6142 0.0000 -0.5505 0.0000
# 2 25.4162 58.0965 19.3229 0.0000 3.7007 0.0000
# 3 -9.6142 19.3229 84.4308 0.0000 -8.6020 0.0000
# 4 0.0000 0.0000 0.0000 32.3708 0.0000 4.8938
# 5 -0.5505 3.7007 -8.6020 0.0000 22.9753 0.0000
# 6 0.0000 0.0000 0.0000 4.8938 0.0000 -16.5921
#
#
#
# Elastic Compliance Matrix: (Units=1/GPa)
#
#
# Indices 1 2 3 4 5 6 
#
# 1 0.040483 -0.021714 0.010432 0.000000 0.008373 0.000000
# 2 -0.021714 0.030796 -0.010479 0.000000 -0.009404 0.000000
# 3 0.010432 -0.010479 0.016247 0.000000 0.008021 0.000000
# 4 0.000000 0.000000 0.000000 0.029573 0.000000 0.008722
# 5 0.008373 -0.009404 0.008021 0.000000 0.048243 0.000000
# 6 0.000000 0.000000 0.000000 0.008722 0.000000 -0.057697
#
#
# Mechanical properties :
#
#
# Convention : Reuss Voigt Hill
#
# Bulk Modulus (GPa) = 22.72406 28.18921 25.45663
# Shear Modulus (GPa) = 30.15050 17.63936 23.89493
#
# Velocity S-wave (km/s) = 3.78770 2.89714 3.37195
# Velocity P-wave (km/s) = 5.47191 4.96031 5.22238
#
# Compressibility (1/GPa) = 0.04400623
#
# Stress axis : x y z
#
# Youngs Moduli (GPa) = 24.70192 32.47146 61.54872
#
# Poissons Ratio (x) = 0.70507 -0.64209
# Poissons Ratio (y) = 0.53637 0.64495
# Poissons Ratio (z) = -0.25770 0.34026
#
# Static dielectric constant tensor:
#      x y z
#    x 1.779080 0.000000 0.011060 
#    y 0.000000 1.825500 0.000000 
#    z 0.011060 0.000000 1.755660 
# 
# From -- ./inp_files/92660.got.cif
#   From: 2010.05.17/outbox.cif.g08.bks.cpg/sg15_47_cif.got.tgz:92660.got - 2010.06.03 18:47:42.
