data_PCOD9264431
_publ_section_title
;
Structure prediction by ZEFSAII (Michael W. Deem and Ramdas Pophale) SiO2 
 PCOD9264431
Probable space group: C 2/C
;
_chemical_formula_sum "Si O2"
_cell_formula_units_Z 44
_cell_length_a 6.664523
_cell_length_b 24.972272
_cell_length_c 18.874928
_cell_angle_alpha 90.000000
_cell_angle_beta 44.042510
_cell_angle_gamma 90.000000
_cell_volume 2183.821442
_symmetry_space_group_name_H-M "C 2/C"
_symmetry_group_IT_number 15
_symmetry_cell_setting 'monoclinic'
loop_
_space_group_symop_operation_xyz
x,y,z
-x,y,1/2-z
-x,-y,-z
x,-y,1/2+z
1/2+x,1/2+y,z
1/2-x,1/2+y,1/2-z
1/2-x,1/2-y,-z
1/2+x,1/2-y,1/2+z
loop_
_atom_site_type_symbol
_atom_site_label
_atom_site_fract_x
_atom_site_fract_y
_atom_site_fract_z
Si Si1 0.685372 0.903121 0.940945
Si Si2 0.000000 0.835942 0.750000
Si Si3 0.157095 0.823147 0.472137
Si Si4 0.670768 0.743221 0.331111
Si Si5 0.700168 0.526693 0.360002
Si Si6 0.417737 0.421980 0.457635
O O1 0.761019 0.872077 0.849375
O O2 0.923663 0.949012 0.890096
O O3 0.732596 0.862336 0.993574
O O4 0.358646 0.922338 0.022489
O O5 0.140437 0.800186 0.776049
O O6 0.426955 0.787761 0.379028
O O7 0.924269 0.784863 0.570471
O O8 0.023177 0.861988 0.447148
O O9 0.000000 0.762518 0.250000
O O10 0.664103 0.462713 0.370157
O O11 0.685370 0.551406 0.442190
O O12 0.000000 0.543415 0.250000
#
# Coordination Sequence:
#
# PCOD9264431 Si02
#       6
#     8   4   8   8   8   8
#     4  10  19  35  59  82 107 148 189 229 281 333
#     4  10  20  32  58  88 104 142 200 230 274 328
#     4   9  21  37  54  81 114 147 186 233 280 333
#     4  10  20  37  56  80 115 148 188 237 281 329
#     4  10  21  36  55  83 112 143 186 239 281 332
#     4  10  20  37  57  78 115 147 185 232 282 337
#
# _framework density 20.148167000000001
#
# number of rings (size 3 to 8) (size 9 to 14) (size 15 to 20)
#    0.000    2.182    0.000    2.727    0.000    6.545 
#    4.909    5.455    0.000    0.000    0.000    0.000 
#    0.000    0.000    0.000    0.000    0.000    0.000 
#
# Total GULP energy -122847.689573 kJ/mol
# GULP energy per Si atom -5583.985890 kJ/mol
# Density = 2.010231 g / cm^3
# Si number density = 20.148167 Si / 1000 Ang^3
#
#
#
# Elastic Constant Matrix: (Units=GPa)
#
#
# Indices 1 2 3 4 5 6 
#
# 1 60.9005 7.8689 15.1717 0.0000 -23.3094 0.0000
# 2 7.8689 56.6278 4.0439 0.0001 -11.2912 0.0000
# 3 15.1717 4.0439 46.4643 -0.0003 -14.8870 -0.0002
# 4 0.0000 0.0001 -0.0003 7.2733 0.0001 -8.1479
# 5 -23.3094 -11.2912 -14.8870 0.0001 26.8138 0.0001
# 6 0.0000 0.0000 -0.0002 -8.1479 0.0001 8.7011
#
#
#
# Elastic Compliance Matrix: (Units=1/GPa)
#
#
# Indices 1 2 3 4 5 6 
#
# 1 0.024726 0.000868 -0.001393 0.000008 0.021086 0.000008
# 2 0.000868 0.019357 0.001077 0.000006 0.009503 0.000005
# 3 -0.001393 0.001077 0.026323 -0.000032 0.013857 -0.000030
# 4 0.000008 0.000006 -0.000032 -2.803677 0.000003 -2.625429
# 5 0.021086 0.009503 0.013857 0.000003 0.067320 0.000003
# 6 0.000008 0.000005 -0.000030 -2.625429 0.000003 -2.343585
#
#
# Mechanical properties :
#
#
# Convention : Reuss Voigt Hill
#
# Bulk Modulus (GPa) = 13.98432 24.24018 19.11225
# Shear Modulus (GPa) = -1.00265 17.68485 8.34110
#
# Velocity S-wave (km/s) = -0.70620 2.96588 2.03688
# Velocity P-wave (km/s) = 2.50816 4.87706 3.87792
#
# Compressibility (1/GPa) = 0.07150864
#
# Stress axis : x y z
#
# Youngs Moduli (GPa) = 40.44351 51.66201 37.99006
#
# Poissons Ratio (x) = -0.04485 0.05292
# Poissons Ratio (y) = -0.03511 -0.04091
# Poissons Ratio (z) = 0.05634 -0.05563
#
# Static dielectric constant tensor:
#      x y z
#    x 1.701950 0.000000 0.010940 
#    y 0.000000 1.735290 0.000000 
#    z 0.010940 0.000000 1.688390 
# 
# From -- ./inp_files/129369.got.cif
#   From: 2010.05.17/outbox.cif.g08.bks.cpg/sg15_65_cif.got.tgz:129369.got - 2010.06.03 18:47:42.
