data_PCOD9264366
_publ_section_title
;
Structure prediction by ZEFSAII (Michael W. Deem and Ramdas Pophale) SiO2 
 PCOD9264366
Probable space group: C 2/C
;
_chemical_formula_sum "Si O2"
_cell_formula_units_Z 56
_cell_length_a 8.467666
_cell_length_b 26.124481
_cell_length_c 11.820858
_cell_angle_alpha 90.000000
_cell_angle_beta 59.774291
_cell_angle_gamma 90.000000
_cell_volume 2259.429351
_symmetry_space_group_name_H-M "C 2/C"
_symmetry_group_IT_number 15
_symmetry_cell_setting 'monoclinic'
loop_
_space_group_symop_operation_xyz
x,y,z
-x,y,1/2-z
-x,-y,-z
x,-y,1/2+z
1/2+x,1/2+y,z
1/2-x,1/2+y,1/2-z
1/2-x,1/2-y,-z
1/2+x,1/2-y,1/2+z
loop_
_atom_site_type_symbol
_atom_site_label
_atom_site_fract_x
_atom_site_fract_y
_atom_site_fract_z
Si Si1 0.194864 0.180565 0.813534
Si Si2 0.308587 0.379806 0.988558
Si Si3 0.251244 0.366093 0.658437
Si Si4 0.797323 0.481060 0.808696
Si Si5 0.281811 0.289853 0.835915
Si Si6 0.281913 0.991297 0.565404
Si Si7 0.264842 0.307535 0.446852
O O1 0.211085 0.233131 0.877978
O O2 0.298492 0.189008 0.658954
O O3 0.978915 0.178117 0.870421
O O4 0.254916 0.130937 0.860939
O O5 0.528936 0.373954 0.911906
O O6 0.234430 0.332619 0.943438
O O7 0.259002 0.432484 0.949331
O O8 0.180928 0.420581 0.723683
O O9 0.212331 0.315445 0.745255
O O10 0.183893 0.350356 0.558552
O O11 0.710869 0.502357 0.721205
O O12 0.000000 0.504366 0.750000
O O13 0.716879 0.483310 0.967526
O O14 0.500000 0.286072 0.750000
O O15 0.500000 0.000000 0.500000
O O16 0.250000 0.250000 0.500000
#
# Coordination Sequence:
#
# PCOD9264366 Si02
#       7
#     8   8   8   8   8   8   8
#     4  10  21  36  58  88 125 165 201 253 304 357
#     4  10  21  38  59  84 119 156 199 254 302 364
#     4  10  20  36  60  85 114 158 204 240 298 367
#     4  10  22  40  62  88 117 150 198 256 312 375
#     4  10  19  35  58  85 117 155 206 243 289 364
#     4  10  22  42  63  85 118 151 199 256 318 372
#     4  10  20  36  55  85 127 161 203 251 296 364
#
# _framework density 24.785018999999998
#
# number of rings (size 3 to 8) (size 9 to 14) (size 15 to 20)
#    0.000    2.000    2.857    0.429    0.000    2.857 
#    0.000    2.143    0.000    0.000    0.000    0.000 
#    0.000    0.000    0.000    0.000    0.000    0.000 
#
# Total GULP energy -156216.261912 kJ/mol
# GULP energy per Si atom -5579.152211 kJ/mol
# Density = 2.472861 g / cm^3
# Si number density = 24.785019 Si / 1000 Ang^3
#
#
#
# Elastic Constant Matrix: (Units=GPa)
#
#
# Indices 1 2 3 4 5 6 
#
# 1 71.9639 17.9597 34.0105 0.0000 8.4651 0.0000
# 2 17.9597 59.5212 18.3811 0.0000 18.9402 0.0000
# 3 34.0105 18.3811 99.7866 0.0000 43.8555 0.0000
# 4 0.0000 0.0000 0.0000 37.2658 0.0000 8.9212
# 5 8.4651 18.9402 43.8555 0.0000 39.4141 0.0000
# 6 0.0000 0.0000 0.0000 8.9212 0.0000 29.3085
#
#
#
# Elastic Compliance Matrix: (Units=1/GPa)
#
#
# Indices 1 2 3 4 5 6 
#
# 1 0.018623 -0.005627 -0.009279 0.000000 0.009029 0.000000
# 2 -0.005627 0.021590 0.003854 0.000000 -0.013455 0.000000
# 3 -0.009279 0.003854 0.024291 0.000000 -0.026887 0.000000
# 4 0.000000 0.000000 0.000000 0.028943 0.000000 -0.008810
# 5 0.009029 -0.013455 -0.026887 0.000000 0.059815 0.000000
# 6 0.000000 0.000000 0.000000 -0.008810 0.000000 0.036801
#
#
# Mechanical properties :
#
#
# Convention : Reuss Voigt Hill
#
# Bulk Modulus (GPa) = 23.58469 41.33046 32.45757
# Shear Modulus (GPa) = 22.09450 31.92571 27.01011
#
# Velocity S-wave (km/s) = 2.98895 3.59291 3.30476
# Velocity P-wave (km/s) = 4.63121 5.82441 5.26174
#
# Compressibility (1/GPa) = 0.04240039
#
# Stress axis : x y z
#
# Youngs Moduli (GPa) = 53.69582 46.31818 41.16796
#
# Poissons Ratio (x) = 0.26063 0.38200
# Poissons Ratio (y) = 0.30214 -0.15867
# Poissons Ratio (z) = 0.49825 -0.17852
#
# Static dielectric constant tensor:
#      x y z
#    x 1.975890 0.000000 0.064450 
#    y 0.000000 1.866320 0.000000 
#    z 0.064450 0.000000 1.919530 
# 
# From -- ./inp_files/82132.got.cif
#   From: 2010.05.17/outbox.cif.g08.bks.cpg/sg15_42_cif.got.tgz:82132.got - 2010.06.03 18:47:42.
