data_PCOD9264760
_publ_section_title
;
Structure prediction by ZEFSAII (Michael W. Deem and Ramdas Pophale) SiO2 
 PCOD9264760
Probable space group: C 2/C
;
_chemical_formula_sum "Si O2"
_cell_formula_units_Z 52
_cell_length_a 14.296812
_cell_length_b 7.565910
_cell_length_c 18.610263
_cell_angle_alpha 90.000000
_cell_angle_beta 113.463126
_cell_angle_gamma 90.000000
_cell_volume 1846.596879
_symmetry_space_group_name_H-M "C 2/C"
_symmetry_group_IT_number 15
_symmetry_cell_setting 'monoclinic'
loop_
_space_group_symop_operation_xyz
x,y,z
-x,y,1/2-z
-x,-y,-z
x,-y,1/2+z
1/2+x,1/2+y,z
1/2-x,1/2+y,1/2-z
1/2-x,1/2-y,-z
1/2+x,1/2-y,1/2+z
loop_
_atom_site_type_symbol
_atom_site_label
_atom_site_fract_x
_atom_site_fract_y
_atom_site_fract_z
Si Si1 0.585132 0.703676 0.172425
Si Si2 0.085132 0.796324 0.172425
Si Si3 0.618843 0.198982 0.959031
Si Si4 0.290991 0.786685 0.658679
Si Si5 0.881156 0.698983 0.040969
Si Si6 0.500000 0.500000 0.500000
Si Si7 0.209009 0.286685 0.341321
O O1 0.563629 0.500000 0.139743
O O2 0.484894 0.807129 0.122211
O O3 0.686105 0.772534 0.163433
O O4 0.618753 0.706118 0.265436
O O5 0.118753 0.793882 0.265436
O O6 0.984893 0.692871 0.122211
O O7 0.186105 0.727466 0.163433
O O8 0.699021 0.257163 0.921869
O O9 0.634694 1.000000 0.990002
O O10 0.585300 0.344453 0.005468
O O11 0.300979 0.742836 0.578131
O O12 0.296632 1.000000 0.667071
O O13 0.914700 0.844454 0.994532
#
# Coordination Sequence:
#
# PCOD9264760 Si02
#       7
#     8   8   8   8   8   4   8
#     4  10  19  35  62  96 126 154 192 246 311 373
#     4  10  19  35  62  96 126 154 192 246 311 373
#     4  11  23  42  64  84 124 160 204 253 302 346
#     4   9  20  36  60  94 127 155 191 244 314 374
#     4  11  23  42  64  84 124 160 204 253 302 346
#     4  12  26  44  62  86 112 170 222 254 272 354
#     4   9  20  36  60  94 127 155 191 244 314 374
#
# _framework density 28.159908000000001
#
# number of rings (size 3 to 8) (size 9 to 14) (size 15 to 20)
#    0.000    1.846    1.538    2.308    2.154    4.923 
#    0.000    1.538    0.000    0.000    0.000    0.000 
#    0.000    0.000    0.000    0.000    0.000    0.000 
#
# Total GULP energy -145549.988374 kJ/mol
# GULP energy per Si atom -5598.076476 kJ/mol
# Density = 2.809581 g / cm^3
# Si number density = 28.159908 Si / 1000 Ang^3
#
#
#
# Elastic Constant Matrix: (Units=GPa)
#
#
# Indices 1 2 3 4 5 6 
#
# 1 77.4559 41.1592 4.1975 0.0000 -33.8569 0.0000
# 2 41.1592 205.4039 42.7688 0.0000 -22.2241 0.0000
# 3 4.1975 42.7688 139.2785 0.0000 -16.1883 0.0000
# 4 0.0000 0.0000 0.0000 51.3191 0.0000 5.0369
# 5 -33.8569 -22.2241 -16.1883 0.0000 59.7485 0.0000
# 6 0.0000 0.0000 0.0000 5.0369 0.0000 35.4009
#
#
#
# Elastic Compliance Matrix: (Units=1/GPa)
#
#
# Indices 1 2 3 4 5 6 
#
# 1 0.018761 -0.003000 0.001509 0.000000 0.009924 0.000000
# 2 -0.003000 0.005824 -0.001697 0.000000 0.000006 0.000000
# 3 0.001509 -0.001697 0.007931 0.000000 0.002373 0.000000
# 4 0.000000 0.000000 0.000000 0.019762 0.000000 -0.002812
# 5 0.009924 0.000006 0.002373 0.000000 0.023006 0.000000
# 6 0.000000 0.000000 0.000000 -0.002812 0.000000 0.028648
#
#
# Mechanical properties :
#
#
# Convention : Reuss Voigt Hill
#
# Bulk Modulus (GPa) = 38.25514 66.48766 52.37140
# Shear Modulus (GPa) = 42.00975 51.56122 46.78549
#
# Velocity S-wave (km/s) = 3.86661 4.28368 4.08048
# Velocity P-wave (km/s) = 5.79212 6.93747 6.39051
#
# Compressibility (1/GPa) = 0.02614028
#
# Stress axis : x y z
#
# Youngs Moduli (GPa) = 53.30281 171.71396 126.08249
#
# Poissons Ratio (x) = 0.51511 -0.19029
# Poissons Ratio (y) = 0.15990 0.21398
# Poissons Ratio (z) = -0.08045 0.29142
#
# Static dielectric constant tensor:
#      x y z
#    x 2.234900 0.000000 0.093190 
#    y 0.000000 2.030610 0.000000 
#    z 0.093190 0.000000 1.481100 
# 
# From -- ./inp_files/176708.got.cif
#   From: 2010.05.17/outbox.cif.g08.bks.cpg/sg15_89_cif.got.tgz:176708.got - 2010.06.03 18:47:42.
