data_PCOD9264958
_publ_section_title
;
Structure prediction by ZEFSAII (Michael W. Deem and Ramdas Pophale) SiO2 
 PCOD9264958
Probable space group: C 2/C
;
_chemical_formula_sum "Si O2"
_cell_formula_units_Z 64
_cell_length_a 14.255752
_cell_length_b 30.285220
_cell_length_c 8.311908
_cell_angle_alpha 90.000000
_cell_angle_beta 121.728740
_cell_angle_gamma 90.000000
_cell_volume 3052.250155
_symmetry_space_group_name_H-M "C 2/C"
_symmetry_group_IT_number 15
_symmetry_cell_setting 'monoclinic'
loop_
_space_group_symop_operation_xyz
x,y,z
-x,y,1/2-z
-x,-y,-z
x,-y,1/2+z
1/2+x,1/2+y,z
1/2-x,1/2+y,1/2-z
1/2-x,1/2-y,-z
1/2+x,1/2-y,1/2+z
loop_
_atom_site_type_symbol
_atom_site_label
_atom_site_fract_x
_atom_site_fract_y
_atom_site_fract_z
Si Si1 0.825453 0.870152 0.500394
Si Si2 0.120096 0.435647 0.260772
Si Si3 0.907836 0.619309 0.034707
Si Si4 0.101494 0.778987 0.436933
Si Si5 0.221568 0.297896 0.182082
Si Si6 0.789198 0.062108 0.486394
Si Si7 0.442641 0.627053 0.452074
Si Si8 0.804738 0.512474 0.395999
O O1 0.733329 0.907710 0.392334
O O2 0.776075 0.823841 0.383298
O O3 0.866259 0.869674 0.721935
O O4 0.933261 0.882559 0.493212
O O5 0.134367 0.475311 0.149506
O O6 0.108611 0.461546 0.415968
O O7 0.050675 0.400076 0.098836
O O8 0.799907 0.593224 0.004111
O O9 0.000000 0.614787 0.250000
O O10 0.868757 0.668360 0.967316
O O11 0.158760 0.749090 0.626495
O O12 0.188283 0.791153 0.375937
O O13 0.059530 0.824522 0.473483
O O14 0.000000 0.756538 0.250000
O O15 0.894665 0.091572 0.535749
O O16 0.746697 0.046327 0.274563
O O17 0.786283 0.015837 0.584213
#
# Coordination Sequence:
#
# PCOD9264958 Si02
#       8
#     8   8   8   8   8   8   8   8
#     4  10  21  37  57  84 115 154 190 224 280 336
#     4   9  18  35  54  78 113 149 180 237 279 334
#     4  10  20  36  58  83 110 147 190 237 284 338
#     4  11  21  36  60  89 112 149 188 229 279 341
#     4  10  21  37  59  84 117 147 184 235 283 329
#     4  10  19  36  55  80 114 150 184 235 284 328
#     4  11  21  36  59  84 116 151 190 228 275 345
#     4   9  18  34  56  79 111 149 186 229 291 328
#
# _framework density 20.968138
#
# number of rings (size 3 to 8) (size 9 to 14) (size 15 to 20)
#    0.000    2.000    3.750    0.375    0.000    0.500 
#    0.000   14.375    0.000    0.000    0.000    0.000 
#    0.000    0.000    0.000    0.000    0.000    0.000 
#
# Total GULP energy -178354.483224 kJ/mol
# GULP energy per Si atom -5573.577601 kJ/mol
# Density = 2.092041 g / cm^3
# Si number density = 20.968138 Si / 1000 Ang^3
#
#
#
# Elastic Constant Matrix: (Units=GPa)
#
#
# Indices 1 2 3 4 5 6 
#
# 1 57.3641 21.5436 13.3231 0.0000 -4.9074 0.0000
# 2 21.5436 74.8056 9.9527 0.0000 -4.6337 0.0000
# 3 13.3231 9.9527 88.2686 0.0000 -8.1986 0.0000
# 4 0.0000 0.0000 0.0000 -9.0253 0.0000 16.9213
# 5 -4.9074 -4.6337 -8.1986 0.0000 22.8361 0.0000
# 6 0.0000 0.0000 0.0000 16.9213 0.0000 2.0846
#
#
#
# Elastic Compliance Matrix: (Units=1/GPa)
#
#
# Indices 1 2 3 4 5 6 
#
# 1 0.020170 -0.005363 -0.002212 0.000000 0.002452 0.000000
# 2 -0.005363 0.015113 -0.000742 0.000000 0.001648 0.000000
# 3 -0.002212 -0.000742 0.012092 0.000000 0.003715 0.000000
# 4 0.000000 0.000000 0.000000 -0.006831 0.000000 0.055454
# 5 0.002452 0.001648 0.003715 0.000000 0.045985 0.000000
# 6 0.000000 0.000000 0.000000 0.055454 0.000000 0.029577
#
#
# Mechanical properties :
#
#
# Convention : Reuss Voigt Hill
#
# Bulk Modulus (GPa) = 32.52847 34.45303 33.49075
# Shear Modulus (GPa) = 34.96843 14.88699 24.92771
#
# Velocity S-wave (km/s) = 4.08817 2.66744 3.45169
# Velocity P-wave (km/s) = 6.15070 5.09448 5.64734
#
# Compressibility (1/GPa) = 0.03074230
#
# Stress axis : x y z
#
# Youngs Moduli (GPa) = 49.57849 66.16757 82.70175
#
# Poissons Ratio (x) = 0.35483 0.18294
# Poissons Ratio (y) = 0.26587 0.06133
# Poissons Ratio (z) = 0.10967 0.04907
#
# Static dielectric constant tensor:
#      x y z
#    x 1.842200 0.000000 0.016860 
#    y 0.000000 1.753030 0.000000 
#    z 0.016860 0.000000 1.812350 
# 
# From -- ./inp_files/44895.got.cif
#   From: 2010.05.17/outbox.cif.g08.bks.cpg/sg15_23_cif.got.tgz:44895.got - 2010.06.03 18:47:42.
