data_PCOD9264118
_publ_section_title
;
Structure prediction by ZEFSAII (Michael W. Deem and Ramdas Pophale) SiO2 
 PCOD9264118
Probable space group: C 2/C
;
_chemical_formula_sum "Si O2"
_cell_formula_units_Z 56
_cell_length_a 11.390981
_cell_length_b 12.910687
_cell_length_c 22.983102
_cell_angle_alpha 90.000000
_cell_angle_beta 50.386948
_cell_angle_gamma 90.000000
_cell_volume 2603.858433
_symmetry_space_group_name_H-M "C 2/C"
_symmetry_group_IT_number 15
_symmetry_cell_setting 'monoclinic'
loop_
_space_group_symop_operation_xyz
x,y,z
-x,y,1/2-z
-x,-y,-z
x,-y,1/2+z
1/2+x,1/2+y,z
1/2-x,1/2+y,1/2-z
1/2-x,1/2-y,-z
1/2+x,1/2-y,1/2+z
loop_
_atom_site_type_symbol
_atom_site_label
_atom_site_fract_x
_atom_site_fract_y
_atom_site_fract_z
Si Si1 0.558713 0.041668 0.295606
Si Si2 0.382921 0.470140 0.158341
Si Si3 0.237219 0.954117 0.424799
Si Si4 0.331026 0.195985 0.556667
Si Si5 0.979265 0.260776 0.883293
Si Si6 0.703137 0.474560 0.573366
Si Si7 0.357058 0.233427 0.020551
O O1 0.500000 0.073650 0.250000
O O2 0.574418 0.142753 0.330623
O O3 0.719605 0.984400 0.239759
O O4 0.418019 0.971187 0.361863
O O5 0.351504 0.507225 0.101085
O O6 0.441471 0.351030 0.144489
O O7 0.523244 0.532470 0.142484
O O8 0.203867 0.986285 0.501935
O O9 0.183396 0.836179 0.431676
O O10 0.175139 0.258959 0.606949
O O11 0.415183 0.218758 0.468297
O O12 0.468272 0.225758 0.555071
O O13 0.280409 0.077167 0.574349
O O14 0.800813 0.376409 0.562416
O O15 0.250000 0.250000 0.000000
#
# Coordination Sequence:
#
# PCOD9264118 Si02
#       7
#     8   8   8   8   8   8   8
#     4  10  22  37  57  83 117 155 195 244 294 352
#     4  10  21  36  58  83 114 151 197 239 287 354
#     4  10  19  35  55  85 115 151 195 238 290 342
#     4  10  19  36  61  89 117 150 198 246 295 352
#     4  10  20  37  63  86 112 156 197 243 295 350
#     4  10  20  34  58  87 115 150 195 240 294 343
#     4  10  21  33  54  91 121 147 185 247 298 339
#
# _framework density 21.506547000000001
#
# number of rings (size 3 to 8) (size 9 to 14) (size 15 to 20)
#    0.000    2.000    2.857    0.857    0.000    5.714 
#    0.000    1.429    3.143    0.000    0.000    0.000 
#    0.000    0.000    0.000    0.000    0.000    0.000 
#
# Total GULP energy -156144.415273 kJ/mol
# GULP energy per Si atom -5576.586260 kJ/mol
# Density = 2.145760 g / cm^3
# Si number density = 21.506547 Si / 1000 Ang^3
#
#
#
# Elastic Constant Matrix: (Units=GPa)
#
#
# Indices 1 2 3 4 5 6 
#
# 1 78.9106 1.2864 22.8148 0.0000 -33.6503 0.0000
# 2 1.2864 47.9038 2.5614 0.0000 -5.0385 0.0000
# 3 22.8148 2.5614 71.3918 0.0000 -27.0436 0.0000
# 4 0.0000 0.0000 0.0000 17.8984 0.0000 -4.8843
# 5 -33.6503 -5.0385 -27.0436 0.0000 25.3742 0.0000
# 6 0.0000 0.0000 0.0000 -4.8843 0.0000 21.1546
#
#
#
# Elastic Compliance Matrix: (Units=1/GPa)
#
#
# Indices 1 2 3 4 5 6 
#
# 1 0.033960 0.004548 0.010710 0.000000 0.057354 0.000000
# 2 0.004548 0.022014 0.002847 0.000000 0.013436 0.000000
# 3 0.010710 0.002847 0.026962 0.000000 0.043505 0.000000
# 4 0.000000 0.000000 0.000000 0.059628 0.000000 0.013767
# 5 0.057354 0.013436 0.043505 0.000000 0.164506 0.000000
# 6 0.000000 0.000000 0.000000 0.013767 0.000000 0.050450
#
#
# Mechanical properties :
#
#
# Convention : Reuss Voigt Hill
#
# Bulk Modulus (GPa) = 8.39311 27.94794 18.17052
# Shear Modulus (GPa) = 13.84942 24.32166 19.08554
#
# Velocity S-wave (km/s) = 2.54040 3.36653 2.98221
# Velocity P-wave (km/s) = 3.53778 5.30421 4.50835
#
# Compressibility (1/GPa) = 0.11914539
#
# Stress axis : x y z
#
# Youngs Moduli (GPa) = 29.44661 45.42554 37.08889
#
# Poissons Ratio (x) = -0.20659 -0.39723
# Poissons Ratio (y) = -0.13392 -0.10558
# Poissons Ratio (z) = -0.31538 -0.12931
#
# Static dielectric constant tensor:
#      x y z
#    x 1.904380 0.000000 0.005860 
#    y 0.000000 1.854400 0.000000 
#    z 0.005860 0.000000 1.802390 
# 
# From -- ./inp_files/311048.got.cif
#   From: 2010.05.17/outbox.cif.g08.bks.cpg/sg15_156_cif.got.tgz:311048.got - 2010.06.03 18:47:42.
