data_PCOD9264247
_publ_section_title
;
Structure prediction by ZEFSAII (Michael W. Deem and Ramdas Pophale) SiO2 
 PCOD9264247
Probable space group: C 2/C
;
_chemical_formula_sum "Si O2"
_cell_formula_units_Z 44
_cell_length_a 9.640677
_cell_length_b 18.794722
_cell_length_c 11.814060
_cell_angle_alpha 90.000000
_cell_angle_beta 70.201655
_cell_angle_gamma 90.000000
_cell_volume 2014.103198
_symmetry_space_group_name_H-M "C 2/C"
_symmetry_group_IT_number 15
_symmetry_cell_setting 'monoclinic'
loop_
_space_group_symop_operation_xyz
x,y,z
-x,y,1/2-z
-x,-y,-z
x,-y,1/2+z
1/2+x,1/2+y,z
1/2-x,1/2+y,1/2-z
1/2-x,1/2-y,-z
1/2+x,1/2-y,1/2+z
loop_
_atom_site_type_symbol
_atom_site_label
_atom_site_fract_x
_atom_site_fract_y
_atom_site_fract_z
Si Si1 0.830981 0.417389 0.562856
Si Si2 0.328762 0.858780 0.803829
Si Si3 0.361139 0.314431 0.002331
Si Si4 0.204377 0.800332 0.242323
Si Si5 0.000000 0.239114 0.250000
Si Si6 0.678984 0.085400 0.955172
O O1 0.773185 0.381861 0.695468
O O2 0.730365 0.386040 0.491804
O O3 0.817373 0.501926 0.571911
O O4 0.002826 0.395472 0.497332
O O5 0.500000 0.881252 0.750000
O O6 0.323354 0.773532 0.814630
O O7 0.268907 0.896715 0.931792
O O8 0.481220 0.306325 0.870432
O O9 0.250000 0.250000 0.000000
O O10 0.406347 0.307208 0.120398
O O11 0.360916 0.788269 0.261356
O O12 0.226232 0.867401 0.156642
#
# Coordination Sequence:
#
# PCOD9264247 Si02
#       6
#     8   8   8   8   4   8
#     4  10  20  38  55  87 119 144 195 233 292 335
#     4  10  21  37  56  82 118 150 185 239 283 337
#     4  10  19  35  57  83 110 149 191 238 266 339
#     4  11  21  36  60  87 112 147 199 232 282 343
#     4  10  20  34  62  84 114 150 190 238 280 328
#     4  10  22  34  59  85 118 154 178 242 295 338
#
# _framework density 21.845950999999999
#
# number of rings (size 3 to 8) (size 9 to 14) (size 15 to 20)
#    0.000    1.818    3.636    2.727    5.091    0.000 
#    1.636    0.000    2.000    2.182    0.000    0.000 
#    0.000    0.000    0.000    0.000    0.000    0.000 
#
# Total GULP energy -122811.044871 kJ/mol
# GULP energy per Si atom -5582.320221 kJ/mol
# Density = 2.179623 g / cm^3
# Si number density = 21.845951 Si / 1000 Ang^3
#
#
#
# Elastic Constant Matrix: (Units=GPa)
#
#
# Indices 1 2 3 4 5 6 
#
# 1 27.3614 -3.8357 -1.7175 0.0000 2.3999 0.0000
# 2 -3.8357 90.9935 54.7949 0.0000 1.8260 0.0000
# 3 -1.7175 54.7949 138.0468 0.0000 -2.6449 0.0000
# 4 0.0000 0.0000 0.0000 31.2639 0.0000 3.7296
# 5 2.3999 1.8260 -2.6449 0.0000 17.9292 0.0000
# 6 0.0000 0.0000 0.0000 3.7296 0.0000 31.4674
#
#
#
# Elastic Compliance Matrix: (Units=1/GPa)
#
#
# Indices 1 2 3 4 5 6 
#
# 1 0.037251 0.001914 -0.000397 0.000000 -0.005240 0.000000
# 2 0.001914 0.014637 -0.005836 0.000000 -0.002608 0.000000
# 3 -0.000397 -0.005836 0.009595 0.000000 0.002063 0.000000
# 4 0.000000 0.000000 0.000000 0.032444 0.000000 -0.003845
# 5 -0.005240 -0.002608 0.002063 0.000000 0.057046 0.000000
# 6 0.000000 0.000000 0.000000 -0.003845 0.000000 0.032235
#
#
# Mechanical properties :
#
#
# Convention : Reuss Voigt Hill
#
# Bulk Modulus (GPa) = 18.92292 39.43169 29.17730
# Shear Modulus (GPa) = 23.87080 29.94277 26.90678
#
# Velocity S-wave (km/s) = 3.30917 3.70622 3.51331
# Velocity P-wave (km/s) = 4.82510 6.03356 5.46285
#
# Compressibility (1/GPa) = 0.05284597
#
# Stress axis : x y z
#
# Youngs Moduli (GPa) = 26.84505 68.31889 104.22059
#
# Poissons Ratio (x) = -0.13079 0.04136
# Poissons Ratio (y) = -0.05139 0.60824
# Poissons Ratio (z) = 0.01065 0.39872
#
# Static dielectric constant tensor:
#      x y z
#    x 1.855180 0.000000 -0.030800 
#    y 0.000000 1.735200 0.000000 
#    z -0.030800 0.000000 1.890320 
# 
# From -- ./inp_files/87198.got.cif
#   From: 2010.05.17/outbox.cif.g08.bks.cpg/sg15_44_cif.got.tgz:87198.got - 2010.06.03 18:47:42.
