data_PCOD9264970
_publ_section_title
;
Structure prediction by ZEFSAII (Michael W. Deem and Ramdas Pophale) SiO2 
 PCOD9264970
Probable space group: C 2/C
;
_chemical_formula_sum "Si O2"
_cell_formula_units_Z 40
_cell_length_a 10.901398
_cell_length_b 23.134483
_cell_length_c 12.740734
_cell_angle_alpha 90.000000
_cell_angle_beta 37.345364
_cell_angle_gamma 90.000000
_cell_volume 1949.179141
_symmetry_space_group_name_H-M "C 2/C"
_symmetry_group_IT_number 15
_symmetry_cell_setting 'monoclinic'
loop_
_space_group_symop_operation_xyz
x,y,z
-x,y,1/2-z
-x,-y,-z
x,-y,1/2+z
1/2+x,1/2+y,z
1/2-x,1/2+y,1/2-z
1/2-x,1/2-y,-z
1/2+x,1/2-y,1/2+z
loop_
_atom_site_type_symbol
_atom_site_label
_atom_site_fract_x
_atom_site_fract_y
_atom_site_fract_z
Si Si1 0.073144 0.723858 0.821426
Si Si2 0.201635 0.501913 0.931296
Si Si3 0.563660 0.545819 0.546064
Si Si4 0.980528 0.162534 0.495002
Si Si5 0.823290 0.380537 0.461133
O O1 0.282651 0.689679 0.685058
O O2 0.000000 0.737141 0.750000
O O3 0.903729 0.676157 0.967008
O O4 0.092273 0.780884 0.877002
O O5 0.368718 0.537580 0.753580
O O6 0.236565 0.527001 0.025249
O O7 0.228628 0.433833 0.931081
O O8 0.000000 0.500000 0.000000
O O9 0.500000 0.500000 0.500000
O O10 0.580376 0.610968 0.491978
O O11 0.878973 0.133287 0.463145
O O12 0.000000 0.392800 0.250000
#
# Coordination Sequence:
#
# PCOD9264970 Si02
#       5
#     8   8   8   8   8
#     4   9  18  31  57  89 121 162 202 261 307 362
#     4  11  23  39  63  89 126 170 206 254 320 373
#     4  11  24  39  60  93 129 166 201 264 311 371
#     4  10  19  36  55  86 127 154 207 254 310 363
#     4   9  17  33  59  88 124 155 205 264 310 366
#
# _framework density 20.521460000000001
#
# number of rings (size 3 to 8) (size 9 to 14) (size 15 to 20)
#    0.000    2.400    2.000    4.800    0.000    3.200 
#    0.000    0.000    0.000   10.800    0.000    0.000 
#    0.000    0.000    0.000    0.000    0.000    0.000 
#
# Total GULP energy -111350.119853 kJ/mol
# GULP energy per Si atom -5567.505993 kJ/mol
# Density = 2.047475 g / cm^3
# Si number density = 20.521460 Si / 1000 Ang^3
#
#
#
# Elastic Constant Matrix: (Units=GPa)
#
#
# Indices 1 2 3 4 5 6 
#
# 1 130.6259 65.9262 14.7708 0.0000 -13.5577 0.0000
# 2 65.9262 173.5599 28.5240 0.0000 9.2360 0.0000
# 3 14.7708 28.5240 17.5250 0.0000 -4.9048 0.0000
# 4 0.0000 0.0000 0.0000 25.7787 0.0000 13.0512
# 5 -13.5577 9.2360 -4.9048 0.0000 19.9173 0.0000
# 6 0.0000 0.0000 0.0000 13.0512 0.0000 18.0622
#
#
#
# Elastic Compliance Matrix: (Units=1/GPa)
#
#
# Indices 1 2 3 4 5 6 
#
# 1 0.011072 -0.005044 0.001764 0.000000 0.010310 0.000000
# 2 -0.005044 0.011295 -0.017786 0.000000 -0.013051 0.000000
# 3 0.001764 -0.017786 0.093619 0.000000 0.032502 0.000000
# 4 0.000000 0.000000 0.000000 0.061169 0.000000 -0.044199
# 5 0.010310 -0.013051 0.032502 0.000000 0.071282 0.000000
# 6 0.000000 0.000000 0.000000 -0.044199 0.000000 0.087301
#
#
# Mechanical properties :
#
#
# Convention : Reuss Voigt Hill
#
# Bulk Modulus (GPa) = 13.54019 60.01697 36.77858
# Shear Modulus (GPa) = 12.42273 26.91761 19.67017
#
# Velocity S-wave (km/s) = 2.46306 3.62564 3.09935
# Velocity P-wave (km/s) = 3.83423 6.84372 5.54697
#
# Compressibility (1/GPa) = 0.07385420
#
# Stress axis : x y z
#
# Youngs Moduli (GPa) = 90.31940 88.53327 10.68155
#
# Poissons Ratio (x) = 0.44657 -0.01884
# Poissons Ratio (y) = 0.45558 0.18998
# Poissons Ratio (z) = -0.15928 1.57461
#
# Static dielectric constant tensor:
#      x y z
#    x 1.792420 0.000000 0.010870 
#    y 0.000000 1.770210 0.000000 
#    z 0.010870 0.000000 1.895190 
# 
# From -- ./inp_files/146586.got.cif
#   From: 2010.05.17/outbox.cif.g08.bks.cpg/sg15_74_cif.got.tgz:146586.got - 2010.06.03 18:47:42.
