data_PCOD9264595
_publ_section_title
;
Structure prediction by ZEFSAII (Michael W. Deem and Ramdas Pophale) SiO2 
 PCOD9264595
Probable space group: C 2/C
;
_chemical_formula_sum "Si O2"
_cell_formula_units_Z 48
_cell_length_a 13.350303
_cell_length_b 15.498946
_cell_length_c 27.078882
_cell_angle_alpha 90.000000
_cell_angle_beta 157.036673
_cell_angle_gamma 90.000000
_cell_volume 2185.981963
_symmetry_space_group_name_H-M "C 2/C"
_symmetry_group_IT_number 15
_symmetry_cell_setting 'monoclinic'
loop_
_space_group_symop_operation_xyz
x,y,z
-x,y,1/2-z
-x,-y,-z
x,-y,1/2+z
1/2+x,1/2+y,z
1/2-x,1/2+y,1/2-z
1/2-x,1/2-y,-z
1/2+x,1/2-y,1/2+z
loop_
_atom_site_type_symbol
_atom_site_label
_atom_site_fract_x
_atom_site_fract_y
_atom_site_fract_z
Si Si1 0.973737 0.212491 0.536342
Si Si2 0.850705 0.476950 0.757256
Si Si3 0.741277 0.075890 0.621301
Si Si4 0.287553 0.120398 0.372539
Si Si5 0.000000 0.376799 0.250000
Si Si6 0.500000 0.168915 0.250000
Si Si7 0.820245 0.936634 0.040262
O O1 0.727095 0.211203 0.387382
O O2 0.909870 0.152397 0.554333
O O3 0.069781 0.308007 0.595739
O O4 0.229147 0.173952 0.625512
O O5 0.963406 0.559388 0.779449
O O6 0.560670 0.499084 0.640760
O O7 0.856121 0.395145 0.723164
O O8 0.057629 0.461519 0.893853
O O9 0.469642 0.121513 0.504048
O O10 0.769936 0.062975 0.575610
O O11 0.000000 0.125347 0.750000
O O12 0.739450 0.983278 0.647485
O O13 0.000000 0.149913 0.250000
#
# Coordination Sequence:
#
# PCOD9264595 Si02
#       7
#     8   8   8   8   4   4   8
#     4  10  19  35  60  89 119 155 195 253 303 354
#     4   9  18  32  55  87 121 158 196 247 292 365
#     4  10  24  42  63  83 110 163 207 247 298 367
#     4  10  22  40  63  83 112 159 201 248 301 363
#     4   9  16  32  56  83 122 158 196 235 312 360
#     4   9  18  32  54  89 124 158 194 239 308 360
#     4  10  21  35  60  90 119 153 205 252 294 353
#
# _framework density 21.958096000000001
#
# number of rings (size 3 to 8) (size 9 to 14) (size 15 to 20)
#    0.000    2.333    0.833    1.000    8.167    4.667 
#    0.000    0.000    0.000    5.000    0.000    0.000 
#    0.000    0.000    0.000    0.000    0.000    0.000 
#
# Total GULP energy -133619.514359 kJ/mol
# GULP energy per Si atom -5567.479765 kJ/mol
# Density = 2.190812 g / cm^3
# Si number density = 21.958096 Si / 1000 Ang^3
#
#
#
# Elastic Constant Matrix: (Units=GPa)
#
#
# Indices 1 2 3 4 5 6 
#
# 1 98.1372 31.3984 43.3190 -0.0002 5.7341 0.0007
# 2 31.3984 92.4057 48.9887 0.0007 11.3709 -0.0001
# 3 43.3190 48.9887 169.6497 0.0023 13.8077 0.0021
# 4 -0.0002 0.0007 0.0023 26.4631 0.0014 1.6940
# 5 5.7341 11.3709 13.8077 0.0014 37.4659 -0.0015
# 6 0.0007 -0.0001 0.0021 1.6940 -0.0015 10.5420
#
#
#
# Elastic Compliance Matrix: (Units=1/GPa)
#
#
# Indices 1 2 3 4 5 6 
#
# 1 0.012120 -0.002912 -0.002242 0.000000 -0.000145 0.000000
# 2 -0.002912 0.013727 -0.003008 0.000000 -0.002612 0.000001
# 3 -0.002242 -0.003008 0.007457 0.000000 -0.001492 -0.000002
# 4 0.000000 0.000000 0.000000 0.038181 -0.000002 -0.006135
# 5 -0.000145 -0.002612 -0.001492 -0.000002 0.028056 0.000005
# 6 0.000000 0.000001 -0.000002 -0.006135 0.000005 0.095844
#
#
# Mechanical properties :
#
#
# Convention : Reuss Voigt Hill
#
# Bulk Modulus (GPa) = 58.89063 67.51164 63.20113
# Shear Modulus (GPa) = 23.00244 30.65997 26.83121
#
# Velocity S-wave (km/s) = 3.24012 3.74076 3.49940
# Velocity P-wave (km/s) = 6.39340 7.03350 6.72107
#
# Compressibility (1/GPa) = 0.01698063
#
# Stress axis : x y z
#
# Youngs Moduli (GPa) = 82.51154 72.84804 134.10197
#
# Poissons Ratio (x) = 0.21210 0.30067
# Poissons Ratio (y) = 0.24024 0.40336
# Poissons Ratio (z) = 0.18500 0.21912
#
# Static dielectric constant tensor:
#      x y z
#    x 1.798060 0.000000 0.045830 
#    y 0.000000 1.882410 0.000000 
#    z 0.045830 0.000000 1.943520 
# 
# From -- ./inp_files/244892.got.cif
#   From: 2010.05.17/outbox.cif.g08.bks.cpg/sg15_123_cif.got.tgz:244892.got - 2010.06.03 18:47:42.
