data_PCOD9264352
_publ_section_title
;
Structure prediction by ZEFSAII (Michael W. Deem and Ramdas Pophale) SiO2 
 PCOD9264352
Probable space group: C 2/C
;
_chemical_formula_sum "Si O2"
_cell_formula_units_Z 40
_cell_length_a 27.362277
_cell_length_b 7.361641
_cell_length_c 13.888348
_cell_angle_alpha 90.000000
_cell_angle_beta 29.512224
_cell_angle_gamma 90.000000
_cell_volume 1378.097714
_symmetry_space_group_name_H-M "C 2/C"
_symmetry_group_IT_number 15
_symmetry_cell_setting 'monoclinic'
loop_
_space_group_symop_operation_xyz
x,y,z
-x,y,1/2-z
-x,-y,-z
x,-y,1/2+z
1/2+x,1/2+y,z
1/2-x,1/2+y,1/2-z
1/2-x,1/2-y,-z
1/2+x,1/2-y,1/2+z
loop_
_atom_site_type_symbol
_atom_site_label
_atom_site_fract_x
_atom_site_fract_y
_atom_site_fract_z
Si Si1 0.841165 0.521369 0.439680
Si Si2 0.884845 0.178168 0.948612
Si Si3 0.871423 0.152286 0.198288
Si Si4 0.005971 0.211833 0.135657
Si Si5 0.825338 0.510897 0.189447
O O1 0.865610 0.720274 0.366040
O O2 0.738436 0.425928 0.594329
O O3 0.930304 0.382485 0.284755
O O4 0.833860 0.595263 0.569269
O O5 0.000000 0.237380 0.750000
O O6 0.891888 0.101610 0.053455
O O7 0.788054 0.047681 0.097328
O O8 0.948763 0.113929 0.148603
O O9 0.866297 0.373482 0.197593
O O10 0.000000 0.116366 0.250000
O O11 0.110065 0.307962 0.932128
#
# Coordination Sequence:
#
# PCOD9264352 Si02
#       5
#     8   8   8   8   8
#     4   9  18  34  57  80 110 147 185 227 277 334
#     4  10  20  38  57  81 115 148 182 229 284 339
#     4  10  19  35  58  85 112 145 187 229 274 332
#     4  10  19  35  58  84 111 149 189 227 273 334
#     4   9  19  34  56  84 113 143 184 232 279 331
#
# _framework density 29.025518999999999
#
# number of rings (size 3 to 8) (size 9 to 14) (size 15 to 20)
#    0.000    2.400    0.000    4.200    0.000    0.000 
#    0.000   15.000    0.000    0.000    0.000    5.600 
#    0.000    0.000    0.000    0.000    0.000    0.000 
#
# Total GULP energy -111542.681366 kJ/mol
# GULP energy per Si atom -5577.134068 kJ/mol
# Density = 2.895946 g / cm^3
# Si number density = 29.025519 Si / 1000 Ang^3
#
#
#
# Elastic Constant Matrix: (Units=GPa)
#
#
# Indices 1 2 3 4 5 6 
#
# 1 169.1352 35.1104 27.4285 0.0000 -11.2353 0.0000
# 2 35.1104 85.3088 26.1827 0.0001 -9.2576 -0.0001
# 3 27.4285 26.1827 134.0476 0.0000 -14.4847 0.0000
# 4 0.0000 0.0001 0.0000 -155.7442 0.0000 91.2531
# 5 -11.2353 -9.2576 -14.4847 0.0000 42.6807 0.0000
# 6 0.0000 -0.0001 0.0000 91.2531 0.0000 -0.5867
#
#
#
# Elastic Compliance Matrix: (Units=1/GPa)
#
#
# Indices 1 2 3 4 5 6 
#
# 1 0.006595 -0.002370 -0.000783 0.000000 0.000956 0.000000
# 2 -0.002370 0.013480 -0.001972 0.000000 0.001631 0.000000
# 3 -0.000783 -0.001972 0.008239 0.000000 0.002162 0.000000
# 4 0.000000 0.000000 0.000000 0.000071 0.000000 0.011080
# 5 0.000956 0.001631 0.002162 0.000000 0.024769 0.000000
# 6 0.000000 0.000000 0.000000 0.011080 0.000000 0.018911
#
#
# Mechanical properties :
#
#
# Convention : Reuss Voigt Hill
#
# Bulk Modulus (GPa) = 55.35980 62.88164 59.12072
# Shear Modulus (GPa) = 56.60203 -2.74537 26.92833
#
# Velocity S-wave (km/s) = 4.42076 -0.97360 3.04920
# Velocity P-wave (km/s) = 6.72099 4.52188 5.72796
#
# Compressibility (1/GPa) = 0.01806365
#
# Stress axis : x y z
#
# Youngs Moduli (GPa) = 151.63080 74.18557 121.37299
#
# Poissons Ratio (x) = 0.17583 0.09506
# Poissons Ratio (y) = 0.35939 0.23931
# Poissons Ratio (z) = 0.11875 0.14627
#
# Static dielectric constant tensor:
#      x y z
#    x 2.404450 0.000000 0.185210 
#    y 0.000000 2.489040 0.000000 
#    z 0.185210 0.000000 2.383390 
# 
# From -- ./inp_files/181008.got.cif
#   From: 2010.05.17/outbox.cif.g08.bks.cpg/sg15_91_cif.got.tgz:181008.got - 2010.06.03 18:47:42.
