data_PCOD9264468
_publ_section_title
;
Structure prediction by ZEFSAII (Michael W. Deem and Ramdas Pophale) SiO2 
 PCOD9264468
Probable space group: C 2/C
;
_chemical_formula_sum "Si O2"
_cell_formula_units_Z 48
_cell_length_a 22.849662
_cell_length_b 14.816460
_cell_length_c 7.215986
_cell_angle_alpha 90.000000
_cell_angle_beta 82.325584
_cell_angle_gamma 90.000000
_cell_volume 2421.098075
_symmetry_space_group_name_H-M "C 2/C"
_symmetry_group_IT_number 15
_symmetry_cell_setting 'monoclinic'
loop_
_space_group_symop_operation_xyz
x,y,z
-x,y,1/2-z
-x,-y,-z
x,-y,1/2+z
1/2+x,1/2+y,z
1/2-x,1/2+y,1/2-z
1/2-x,1/2-y,-z
1/2+x,1/2-y,1/2+z
loop_
_atom_site_type_symbol
_atom_site_label
_atom_site_fract_x
_atom_site_fract_y
_atom_site_fract_z
Si Si1 0.623935 0.110406 0.928393
Si Si2 0.257965 0.062891 0.763590
Si Si3 0.167230 0.194091 0.919937
Si Si4 0.561273 0.927462 0.820321
Si Si5 0.762550 0.635069 0.148514
Si Si6 0.561233 0.220538 0.636221
O O1 0.694637 0.102116 0.899166
O O2 0.600057 0.182223 0.790355
O O3 0.598812 0.013224 0.870063
O O4 0.596873 0.122890 0.142692
O O5 0.194087 0.111236 0.790673
O O6 0.251589 0.955565 0.765431
O O7 0.287300 0.093463 0.945280
O O8 0.194076 0.284719 0.816945
O O9 0.202196 0.180931 0.101513
O O10 0.099784 0.208385 0.001492
O O11 0.500000 0.956552 0.750000
O O12 0.549333 0.862080 0.998601
O O13 0.500000 0.252993 0.750000
#
# Coordination Sequence:
#
# PCOD9264468 Si02
#       6
#     8   8   8   8   8   8
#     4  12  20  33  54  83 120 154 186 233 286 357
#     4  10  19  35  59  85 114 153 189 233 292 355
#     4   9  20  38  56  82 121 151 193 237 299 346
#     4  12  23  33  50  86 117 157 199 224 280 366
#     4   9  17  35  58  80 117 149 183 232 296 345
#     4  12  22  38  56  75 117 160 193 243 290 339
#
# _framework density 19.825716
#
# number of rings (size 3 to 8) (size 9 to 14) (size 15 to 20)
#    1.000    0.333    5.000    3.000    0.000    0.000 
#    0.000    5.000    0.000    1.000    0.000    0.000 
#    0.000    0.000    0.000    0.000    0.000    0.000 
#
# Total GULP energy -133802.444800 kJ/mol
# GULP energy per Si atom -5575.101867 kJ/mol
# Density = 1.978059 g / cm^3
# Si number density = 19.825716 Si / 1000 Ang^3
#
#
#
# Elastic Constant Matrix: (Units=GPa)
#
#
# Indices 1 2 3 4 5 6 
#
# 1 92.4871 35.5419 27.7152 0.0000 -36.8088 0.0000
# 2 35.5419 90.4304 30.8604 0.0000 -14.5604 0.0000
# 3 27.7152 30.8604 68.5005 0.0000 -20.1015 0.0000
# 4 0.0000 0.0000 0.0000 29.8876 0.0000 -2.4607
# 5 -36.8088 -14.5604 -20.1015 0.0000 38.1930 0.0000
# 6 0.0000 0.0000 0.0000 -2.4607 0.0000 26.1237
#
#
#
# Elastic Compliance Matrix: (Units=1/GPa)
#
#
# Indices 1 2 3 4 5 6 
#
# 1 0.019439 -0.004672 -0.000929 0.000000 0.016464 0.000000
# 2 -0.004672 0.014352 -0.005075 0.000000 -0.001702 0.000000
# 3 -0.000929 -0.005075 0.019431 0.000000 0.007397 0.000000
# 4 0.000000 0.000000 0.000000 0.033720 0.000000 0.003176
# 5 0.016464 -0.001702 0.007397 0.000000 0.045295 0.000000
# 6 0.000000 0.000000 0.000000 0.003176 0.000000 0.038579
#
#
# Mechanical properties :
#
#
# Convention : Reuss Voigt Hill
#
# Bulk Modulus (GPa) = 31.37685 48.85034 40.11360
# Shear Modulus (GPa) = 24.65589 29.32753 26.99171
#
# Velocity S-wave (km/s) = 3.53034 3.85030 3.69379
# Velocity P-wave (km/s) = 5.69899 6.66782 6.20235
#
# Compressibility (1/GPa) = 0.03187063
#
# Stress axis : x y z
#
# Youngs Moduli (GPa) = 51.44383 69.67476 51.46344
#
# Poissons Ratio (x) = 0.32553 0.04778
# Poissons Ratio (y) = 0.24035 0.26119
# Poissons Ratio (z) = 0.04777 0.35361
#
# Static dielectric constant tensor:
#      x y z
#    x 1.744660 0.000000 0.003460 
#    y 0.000000 1.709540 0.000000 
#    z 0.003460 0.000000 1.785530 
# 
# From -- ./inp_files/61184.got.cif
#   From: 2010.05.17/outbox.cif.g08.bks.cpg/sg15_31_cif.got.tgz:61184.got - 2010.06.03 18:47:42.
