data_PCOD9264413
_publ_section_title
;
Structure prediction by ZEFSAII (Michael W. Deem and Ramdas Pophale) SiO2 
 PCOD9264413
Probable space group: C 2/C
;
_chemical_formula_sum "Si O2"
_cell_formula_units_Z 60
_cell_length_a 11.390322
_cell_length_b 14.321164
_cell_length_c 15.624115
_cell_angle_alpha 90.000000
_cell_angle_beta 97.592149
_cell_angle_gamma 90.000000
_cell_volume 2526.305020
_symmetry_space_group_name_H-M "C 2/C"
_symmetry_group_IT_number 15
_symmetry_cell_setting 'monoclinic'
loop_
_space_group_symop_operation_xyz
x,y,z
-x,y,1/2-z
-x,-y,-z
x,-y,1/2+z
1/2+x,1/2+y,z
1/2-x,1/2+y,1/2-z
1/2-x,1/2-y,-z
1/2+x,1/2-y,1/2+z
loop_
_atom_site_type_symbol
_atom_site_label
_atom_site_fract_x
_atom_site_fract_y
_atom_site_fract_z
Si Si1 0.288585 0.770439 0.858872
Si Si2 0.185017 0.050372 0.305357
Si Si3 0.907249 0.301979 0.039745
Si Si4 0.640827 0.093036 0.604920
Si Si5 0.657560 0.281620 0.310724
Si Si6 0.500000 0.426445 0.250000
Si Si7 0.234727 0.653066 0.443989
Si Si8 0.503630 0.409581 0.561451
O O1 0.217359 0.843492 0.792669
O O2 0.198719 0.704610 0.901705
O O3 0.363934 0.723058 0.792453
O O4 0.357319 0.824277 0.940726
O O5 0.089298 0.062350 0.372885
O O6 0.304873 0.995065 0.340138
O O7 0.109119 0.991516 0.230194
O O8 0.006383 0.372776 0.083485
O O9 0.954764 0.195031 0.032042
O O10 0.712131 0.178121 0.657567
O O11 0.684281 0.084287 0.510679
O O12 0.569732 0.365356 0.327893
O O13 0.645054 0.186615 0.361591
O O14 0.250000 0.750000 0.500000
O O15 0.356687 0.615378 0.417889
O O16 0.500000 0.500000 0.500000
#
# Coordination Sequence:
#
# PCOD9264413 Si02
#       8
#     8   8   8   8   8   4   8   8
#     4  10  24  40  60  91 128 158 218 249 328 376
#     4  10  23  39  59  95 120 164 205 268 312 371
#     4  10  22  40  61  84 123 175 201 262 308 398
#     4  10  20  39  62  86 123 165 214 250 325 375
#     4  10  22  37  60  92 120 166 202 260 312 386
#     4  10  24  38  64  90 128 158 204 264 322 356
#     4  10  19  35  58  92 121 160 206 251 312 381
#     4  11  20  33  62  92 122 156 210 258 307 368
#
# _framework density 23.750101999999998
#
# number of rings (size 3 to 8) (size 9 to 14) (size 15 to 20)
#    0.000    1.867    4.000    0.000    5.600    1.067 
#    0.000    0.000    0.000    0.000    0.000    0.000 
#    0.000    0.000    0.000    0.000    0.000    0.000 
#
# Total GULP energy -167072.379378 kJ/mol
# GULP energy per Si atom -5569.079313 kJ/mol
# Density = 2.369605 g / cm^3
# Si number density = 23.750102 Si / 1000 Ang^3
#
#
#
# Elastic Constant Matrix: (Units=GPa)
#
#
# Indices 1 2 3 4 5 6 
#
# 1 87.2275 24.0538 15.0401 0.0000 28.1948 0.0000
# 2 24.0538 60.2239 12.2388 0.0000 3.5152 0.0000
# 3 15.0401 12.2388 70.6985 0.0000 7.9881 0.0000
# 4 0.0000 0.0000 0.0000 28.5966 0.0000 9.6638
# 5 28.1948 3.5152 7.9881 0.0000 31.5430 0.0000
# 6 0.0000 0.0000 0.0000 9.6638 0.0000 40.8270
#
#
#
# Elastic Compliance Matrix: (Units=1/GPa)
#
#
# Indices 1 2 3 4 5 6 
#
# 1 0.018354 -0.006209 -0.001085 0.000000 -0.015439 0.000000
# 2 -0.006209 0.019355 -0.002484 0.000000 0.004022 0.000000
# 3 -0.001085 -0.002484 0.015097 0.000000 -0.002576 0.000000
# 4 0.000000 0.000000 0.000000 0.038010 0.000000 -0.008997
# 5 -0.015439 0.004022 -0.002576 0.000000 0.045707 0.000000
# 6 0.000000 0.000000 0.000000 -0.008997 0.000000 0.026623
#
#
# Mechanical properties :
#
#
# Convention : Reuss Voigt Hill
#
# Bulk Modulus (GPa) = 30.07657 35.64612 32.86134
# Shear Modulus (GPa) = 25.80185 31.31446 28.55816
#
# Velocity S-wave (km/s) = 3.29962 3.63505 3.47139
# Velocity P-wave (km/s) = 5.21612 5.71485 5.47117
#
# Compressibility (1/GPa) = 0.03324848
#
# Stress axis : x y z
#
# Youngs Moduli (GPa) = 54.48421 51.66711 66.24025
#
# Poissons Ratio (x) = 0.32080 0.07189
# Poissons Ratio (y) = 0.33829 0.16455
# Poissons Ratio (z) = 0.05913 0.12835
#
# Static dielectric constant tensor:
#      x y z
#    x 1.932760 0.000000 0.025260 
#    y 0.000000 2.014150 0.000000 
#    z 0.025260 0.000000 1.969810 
# 
# From -- ./inp_files/197902.got.cif
#   From: 2010.05.17/outbox.cif.g08.bks.cpg/sg15_99_cif.got.tgz:197902.got - 2010.06.03 18:47:42.
