data_PCOD9264120
_publ_section_title
;
Structure prediction by ZEFSAII (Michael W. Deem and Ramdas Pophale) SiO2 
 PCOD9264120
Probable space group: C 2/C
;
_chemical_formula_sum "Si O2"
_cell_formula_units_Z 60
_cell_length_a 20.194165
_cell_length_b 15.810307
_cell_length_c 9.819016
_cell_angle_alpha 90.000000
_cell_angle_beta 71.650709
_cell_angle_gamma 90.000000
_cell_volume 2975.577813
_symmetry_space_group_name_H-M "C 2/C"
_symmetry_group_IT_number 15
_symmetry_cell_setting 'monoclinic'
loop_
_space_group_symop_operation_xyz
x,y,z
-x,y,1/2-z
-x,-y,-z
x,-y,1/2+z
1/2+x,1/2+y,z
1/2-x,1/2+y,1/2-z
1/2-x,1/2-y,-z
1/2+x,1/2-y,1/2+z
loop_
_atom_site_type_symbol
_atom_site_label
_atom_site_fract_x
_atom_site_fract_y
_atom_site_fract_z
Si Si1 0.000000 0.491386 0.750000
Si Si2 0.999597 0.106397 0.395841
Si Si3 0.332992 0.317869 0.329747
Si Si4 0.036057 0.249237 0.875183
Si Si5 0.837455 0.907002 0.721339
Si Si6 0.138622 0.007663 0.552800
Si Si7 0.949629 0.394754 0.035322
Si Si8 0.317828 0.223522 0.626808
O O1 0.051234 0.438455 0.615095
O O2 0.039100 0.545177 0.841983
O O3 0.990926 0.167570 0.527524
O O4 0.936584 0.037966 0.428753
O O5 0.000000 0.154425 0.250000
O O6 0.079095 0.076477 0.348136
O O7 0.382760 0.266963 0.197185
O O8 0.367915 0.406628 0.352267
O O9 0.327216 0.262248 0.469647
O O10 0.255658 0.324555 0.320261
O O11 0.000000 0.253914 0.750000
O O12 0.014951 0.331056 0.974371
O O13 0.819328 0.942706 0.879578
O O14 0.820707 0.808593 0.715582
O O15 0.815258 0.962786 0.606014
O O16 0.882215 0.338172 0.106117
#
# Coordination Sequence:
#
# PCOD9264120 Si02
#       8
#     4   8   8   8   8   8   8   8
#     4  10  24  38  68  94 116 148 218 278 330 352
#     4  10  21  33  54  89 125 160 194 252 312 360
#     4  10  21  36  59  90 121 176 203 254 300 389
#     4  12  20  36  64  90 120 155 212 249 309 381
#     4  10  19  35  55  86 117 166 192 250 295 375
#     4  10  20  33  51  84 125 150 200 245 299 353
#     4  11  21  43  63  92 119 156 210 274 317 381
#     4  10  20  40  62  83 127 169 213 240 321 380
#
# _framework density 20.164149999999999
#
# number of rings (size 3 to 8) (size 9 to 14) (size 15 to 20)
#    0.000    1.600    3.333    2.000    0.933    3.733 
#    0.000    8.000    0.000    9.600    0.000    0.000 
#    0.000    0.000    0.000    0.000    0.000    0.000 
#
# Total GULP energy -167150.629456 kJ/mol
# GULP energy per Si atom -5571.687649 kJ/mol
# Density = 2.011826 g / cm^3
# Si number density = 20.164150 Si / 1000 Ang^3
#
#
#
# Elastic Constant Matrix: (Units=GPa)
#
#
# Indices 1 2 3 4 5 6 
#
# 1 27.8234 26.3460 19.5671 0.0000 7.9618 0.0000
# 2 26.3460 88.0680 29.3167 0.0000 11.7470 0.0000
# 3 19.5671 29.3167 53.5845 0.0000 14.1426 0.0000
# 4 0.0000 0.0000 0.0000 6.7259 0.0000 12.2799
# 5 7.9618 11.7470 14.1426 0.0000 20.9595 0.0000
# 6 0.0000 0.0000 0.0000 12.2799 0.0000 24.1944
#
#
#
# Elastic Compliance Matrix: (Units=1/GPa)
#
#
# Indices 1 2 3 4 5 6 
#
# 1 0.058604 -0.012356 -0.012887 0.000000 -0.006641 0.000000
# 2 -0.012356 0.016671 -0.004114 0.000000 -0.001874 0.000000
# 3 -0.012887 -0.004114 0.028858 0.000000 -0.012271 0.000000
# 4 0.000000 0.000000 0.000000 2.027469 0.000000 -1.029045
# 5 -0.006641 -0.001874 -0.012271 0.000000 0.059563 0.000000
# 6 0.000000 0.000000 0.000000 -1.029045 0.000000 0.563625
#
#
# Mechanical properties :
#
#
# Convention : Reuss Voigt Hill
#
# Bulk Modulus (GPa) = 22.01794 35.54840 28.78317
# Shear Modulus (GPa) = 1.76763 16.65904 9.21333
#
# Velocity S-wave (km/s) = 0.93730 2.87744 2.13988
# Velocity P-wave (km/s) = 3.48058 5.35792 4.51784
#
# Compressibility (1/GPa) = 0.04541752
#
# Stress axis : x y z
#
# Youngs Moduli (GPa) = 17.06359 59.98542 34.65291
#
# Poissons Ratio (x) = 0.74118 0.44658
# Poissons Ratio (y) = 0.21084 0.14257
# Poissons Ratio (z) = 0.21990 0.24680
#
# Static dielectric constant tensor:
#      x y z
#    x 1.761200 0.000000 0.068510 
#    y 0.000000 1.751490 0.000000 
#    z 0.068510 0.000000 1.799530 
# 
# From -- ./inp_files/112688.got.cif
#   From: 2010.05.17/outbox.cif.g08.bks.cpg/sg15_57_cif.got.tgz:112688.got - 2010.06.03 18:47:42.
