data_PCOD9264620
_publ_section_title
;
Structure prediction by ZEFSAII (Michael W. Deem and Ramdas Pophale) SiO2 
 PCOD9264620
Probable space group: C 2/C
;
_chemical_formula_sum "Si O2"
_cell_formula_units_Z 60
_cell_length_a 12.004881
_cell_length_b 16.411542
_cell_length_c 15.556022
_cell_angle_alpha 90.000000
_cell_angle_beta 107.637322
_cell_angle_gamma 90.000000
_cell_volume 2920.759091
_symmetry_space_group_name_H-M "C 2/C"
_symmetry_group_IT_number 15
_symmetry_cell_setting 'monoclinic'
loop_
_space_group_symop_operation_xyz
x,y,z
-x,y,1/2-z
-x,-y,-z
x,-y,1/2+z
1/2+x,1/2+y,z
1/2-x,1/2+y,1/2-z
1/2-x,1/2-y,-z
1/2+x,1/2-y,1/2+z
loop_
_atom_site_type_symbol
_atom_site_label
_atom_site_fract_x
_atom_site_fract_y
_atom_site_fract_z
Si Si1 0.223843 0.265796 0.107494
Si Si2 0.360075 0.768961 0.224314
Si Si3 0.119353 0.977458 0.974953
Si Si4 0.815918 0.805793 0.446998
Si Si5 0.000000 0.389929 0.750000
Si Si6 0.546237 0.766369 0.913410
Si Si7 0.864662 0.919768 0.706610
Si Si8 0.248321 0.429566 0.854479
O O1 0.178934 0.291497 0.189229
O O2 0.357890 0.288915 0.115687
O O3 0.228397 0.166278 0.117725
O O4 0.131241 0.291874 0.012797
O O5 0.500000 0.774452 0.250000
O O6 0.286265 0.825874 0.144094
O O7 0.318019 0.674846 0.192055
O O8 0.133052 0.881974 0.991829
O O9 0.218137 0.023299 0.052133
O O10 0.141655 0.980049 0.877133
O O11 0.000000 0.000000 0.000000
O O12 0.750000 0.750000 0.500000
O O13 0.929068 0.770438 0.425149
O O14 0.001137 0.333004 0.834954
O O15 0.116882 0.439797 0.791180
O O16 0.822328 0.954114 0.788088
O O17 0.000000 0.904672 0.750000
#
# Coordination Sequence:
#
# PCOD9264620 Si02
#       8
#     8   8   8   8   4   8   8   8
#     4   9  19  36  63  89 127 162 209 269 322 389
#     4  10  20  37  60  90 121 165 209 270 331 385
#     4  12  24  40  63  96 129 170 218 272 330 391
#     4  12  23  37  62  96 126 163 217 277 323 392
#     4  10  22  40  66  86 126 178 208 254 318 406
#     4  10  19  35  60  94 116 161 216 262 317 383
#     4  10  19  37  65  88 119 164 215 264 325 392
#     4  10  21  41  61  88 126 172 213 254 326 395
#
# _framework density 20.542604999999998
#
# number of rings (size 3 to 8) (size 9 to 14) (size 15 to 20)
#    0.000    1.600    2.667    4.000    1.867    0.000 
#    1.200   10.000    0.000    0.000    0.000    0.000 
#    0.000    0.000    0.000    0.000    0.000    0.000 
#
# Total GULP energy -167067.795232 kJ/mol
# GULP energy per Si atom -5568.926508 kJ/mol
# Density = 2.049585 g / cm^3
# Si number density = 20.542605 Si / 1000 Ang^3
#
#
#
# Elastic Constant Matrix: (Units=GPa)
#
#
# Indices 1 2 3 4 5 6 
#
# 1 115.5539 11.1535 37.9879 0.0000 1.2286 0.0000
# 2 11.1535 18.1521 3.8521 0.0000 -8.4072 0.0000
# 3 37.9879 3.8521 129.5152 0.0000 -13.5434 0.0000
# 4 0.0000 0.0000 0.0000 32.9768 0.0000 13.3060
# 5 1.2286 -8.4072 -13.5434 0.0000 40.3410 0.0000
# 6 0.0000 0.0000 0.0000 13.3060 0.0000 27.7017
#
#
#
# Elastic Compliance Matrix: (Units=1/GPa)
#
#
# Indices 1 2 3 4 5 6 
#
# 1 0.010394 -0.007034 -0.003136 0.000000 -0.002835 0.000000
# 2 -0.007034 0.065768 0.001620 0.000000 0.014464 0.000000
# 3 -0.003136 0.001620 0.008952 0.000000 0.003439 0.000000
# 4 0.000000 0.000000 0.000000 0.037614 0.000000 -0.018067
# 5 -0.002835 0.014464 0.003439 0.000000 0.029044 0.000000
# 6 0.000000 0.000000 0.000000 -0.018067 0.000000 0.044777
#
#
# Mechanical properties :
#
#
# Convention : Reuss Voigt Hill
#
# Bulk Modulus (GPa) = 14.70309 41.02312 27.86311
# Shear Modulus (GPa) = 21.15761 34.21908 27.68834
#
# Velocity S-wave (km/s) = 3.21275 4.08580 3.67529
# Velocity P-wave (km/s) = 4.57550 6.50165 5.62169
#
# Compressibility (1/GPa) = 0.06801291
#
# Stress axis : x y z
#
# Youngs Moduli (GPa) = 96.20932 15.20503 111.70324
#
# Poissons Ratio (x) = 0.10696 0.35029
# Poissons Ratio (y) = 0.67676 -0.18092
# Poissons Ratio (z) = 0.30171 -0.02463
#
# Static dielectric constant tensor:
#      x y z
#    x 1.745780 0.000000 -0.063370 
#    y 0.000000 1.792160 0.000000 
#    z -0.063370 0.000000 1.863110 
# 
# From -- ./inp_files/146108.got.cif
#   From: 2010.05.17/outbox.cif.g08.bks.cpg/sg15_74_cif.got.tgz:146108.got - 2010.06.03 18:47:42.
