data_PCOD9264003
_publ_section_title
;
Structure prediction by ZEFSAII (Michael W. Deem and Ramdas Pophale) SiO2 
 PCOD9264003
Probable space group: C 2/C
;
_chemical_formula_sum "Si O2"
_cell_formula_units_Z 64
_cell_length_a 21.756030
_cell_length_b 21.263660
_cell_length_c 9.396318
_cell_angle_alpha 90.000000
_cell_angle_beta 130.391540
_cell_angle_gamma 90.000000
_cell_volume 3310.714235
_symmetry_space_group_name_H-M "C 2/C"
_symmetry_group_IT_number 15
_symmetry_cell_setting 'monoclinic'
loop_
_space_group_symop_operation_xyz
x,y,z
-x,y,1/2-z
-x,-y,-z
x,-y,1/2+z
1/2+x,1/2+y,z
1/2-x,1/2+y,1/2-z
1/2-x,1/2-y,-z
1/2+x,1/2-y,1/2+z
loop_
_atom_site_type_symbol
_atom_site_label
_atom_site_fract_x
_atom_site_fract_y
_atom_site_fract_z
Si Si1 0.377678 0.096580 0.618978
Si Si2 0.034677 0.564953 0.001603
Si Si3 0.289869 0.872356 0.230806
Si Si4 0.730842 0.814347 0.739323
Si Si5 0.139452 0.810769 0.063631
Si Si6 0.140598 0.350146 0.861216
Si Si7 0.532970 0.726526 0.654456
Si Si8 0.132602 0.759223 0.736607
O O1 0.461613 0.108349 0.830062
O O2 0.406236 0.048855 0.541415
O O3 0.316463 0.078261 0.651452
O O4 0.335978 0.149489 0.456844
O O5 0.081274 0.601852 0.193267
O O6 0.000000 0.500000 0.000000
O O7 0.195437 0.870778 0.121525
O O8 0.337476 0.872564 0.449273
O O9 0.315776 0.805474 0.193793
O O10 0.700691 0.743076 0.711503
O O11 0.720411 0.843513 0.880474
O O12 0.814568 0.808515 0.779186
O O13 0.073765 0.814025 0.089402
O O14 0.116818 0.785180 0.872071
O O15 0.094116 0.282802 0.790421
O O16 0.500000 0.694969 0.750000
O O17 0.452803 0.754049 0.462085
#
# Coordination Sequence:
#
# PCOD9264003 Si02
#       8
#     8   8   8   8   8   8   8   8
#     4  10  19  35  53  69  94 128 174 207 251 317
#     4  10  23  38  53  74 100 133 171 223 274 307
#     4  11  19  32  50  72  95 137 176 222 250 302
#     4   9  18  32  49  69  90 137 174 216 251 297
#     4  10  20  31  48  68 102 132 182 211 255 296
#     4  10  22  33  48  71 103 134 182 218 261 307
#     4  11  22  31  44  75 103 141 171 219 254 297
#     4  11  18  31  49  68 100 130 180 214 256 299
#
# _framework density 19.331177
#
# number of rings (size 3 to 8) (size 9 to 14) (size 15 to 20)
#    0.000    1.750    3.750    1.875    1.750    4.500 
#    0.000    0.000    0.000    0.000    0.000    0.000 
#    0.000    0.000    0.000   20.250    0.000    1.250 
#
# Total GULP energy -178186.607179 kJ/mol
# GULP energy per Si atom -5568.331474 kJ/mol
# Density = 1.928718 g / cm^3
# Si number density = 19.331177 Si / 1000 Ang^3
#
#
#
# Elastic Constant Matrix: (Units=GPa)
#
#
# Indices 1 2 3 4 5 6 
#
# 1 153.8470 22.0729 32.7178 0.0000 -42.6645 0.0000
# 2 22.0729 12.7154 8.7311 0.0000 -15.0944 0.0000
# 3 32.7178 8.7311 73.3578 0.0000 -30.2096 0.0000
# 4 0.0000 0.0000 0.0000 4.4790 0.0000 -1.4851
# 5 -42.6645 -15.0944 -30.2096 0.0000 35.1013 0.0000
# 6 0.0000 0.0000 0.0000 -1.4851 0.0000 26.2817
#
#
#
# Elastic Compliance Matrix: (Units=1/GPa)
#
#
# Indices 1 2 3 4 5 6 
#
# 1 0.010029 -0.005780 0.000327 0.000000 0.009986 0.000000
# 2 -0.005780 0.174526 0.015210 0.000000 0.081116 0.000000
# 3 0.000327 0.015210 0.022511 0.000000 0.026313 0.000000
# 4 0.000000 0.000000 0.000000 0.227528 0.000000 0.012857
# 5 0.009986 0.081116 0.026313 0.000000 0.098155 0.000000
# 6 0.000000 0.000000 0.000000 0.012857 0.000000 0.038776
#
#
# Mechanical properties :
#
#
# Convention : Reuss Voigt Hill
#
# Bulk Modulus (GPa) = 4.41341 40.77377 22.59359
# Shear Modulus (GPa) = 7.96766 24.93229 16.44998
#
# Velocity S-wave (km/s) = 2.03239 3.59520 2.92028
# Velocity P-wave (km/s) = 2.79204 6.19451 4.80455
#
# Compressibility (1/GPa) = 0.22658211
#
# Stress axis : x y z
#
# Youngs Moduli (GPa) = 99.71163 5.72979 44.42189
#
# Poissons Ratio (x) = 0.03312 -0.01455
# Poissons Ratio (y) = 0.57629 -0.67565
# Poissons Ratio (z) = -0.03265 -0.08715
#
# Static dielectric constant tensor:
#      x y z
#    x 1.818290 0.000000 -0.011370 
#    y 0.000000 1.701420 0.000000 
#    z -0.011370 0.000000 1.724560 
# 
# From -- ./inp_files/58479.got.cif
#   From: 2010.05.17/outbox.cif.g08.bks.cpg/sg15_30_cif.got.tgz:58479.got - 2010.06.03 18:47:42.
