data_PCOD9264006
_publ_section_title
;
Structure prediction by ZEFSAII (Michael W. Deem and Ramdas Pophale) SiO2 
 PCOD9264006
Probable space group: C 2/C
;
_chemical_formula_sum "Si O2"
_cell_formula_units_Z 40
_cell_length_a 11.065234
_cell_length_b 8.821623
_cell_length_c 28.817775
_cell_angle_alpha 90.000000
_cell_angle_beta 148.457762
_cell_angle_gamma 90.000000
_cell_volume 1471.555559
_symmetry_space_group_name_H-M "C 2/C"
_symmetry_group_IT_number 15
_symmetry_cell_setting 'monoclinic'
loop_
_space_group_symop_operation_xyz
x,y,z
-x,y,1/2-z
-x,-y,-z
x,-y,1/2+z
1/2+x,1/2+y,z
1/2-x,1/2+y,1/2-z
1/2-x,1/2-y,-z
1/2+x,1/2-y,1/2+z
loop_
_atom_site_type_symbol
_atom_site_label
_atom_site_fract_x
_atom_site_fract_y
_atom_site_fract_z
Si Si1 0.470024 0.596583 0.687117
Si Si2 0.741346 0.481561 0.152822
Si Si3 0.329417 0.895345 0.086282
Si Si4 0.747339 0.435676 0.961229
Si Si5 0.729110 0.721954 0.272607
O O1 0.500000 0.642689 0.750000
O O2 0.251722 0.531414 0.586198
O O3 0.632572 0.445095 0.741153
O O4 0.540136 0.741234 0.679458
O O5 0.715655 0.491579 0.089693
O O6 0.525076 0.550728 0.109993
O O7 0.742810 0.303012 0.168625
O O8 0.000000 0.533318 0.250000
O O9 0.195952 0.738768 0.031041
O O10 0.554403 0.827337 0.185509
O O11 0.373764 0.975627 0.051218
#
# Coordination Sequence:
#
# PCOD9264006 Si02
#       5
#     8   8   8   8   8
#     4  10  19  35  53  73 102 135 168 212 254 296
#     4   9  16  28  48  72  97 130 165 203 249 294
#     4   9  16  29  46  73 102 128 165 208 247 296
#     4   9  17  28  49  73  98 131 168 203 249 302
#     4   9  18  32  53  76 100 134 174 207 250 306
#
# _framework density 27.182117999999999
#
# number of rings (size 3 to 8) (size 9 to 14) (size 15 to 20)
#    0.000    2.800    0.000    3.600    0.000    0.000 
#    0.000   17.000    0.000    4.800    0.000    0.000 
#    0.000    1.600    0.000    0.000    0.000    0.000 
#
# Total GULP energy -111593.145616 kJ/mol
# GULP energy per Si atom -5579.657281 kJ/mol
# Density = 2.712025 g / cm^3
# Si number density = 27.182118 Si / 1000 Ang^3
#
#
#
# Elastic Constant Matrix: (Units=GPa)
#
#
# Indices 1 2 3 4 5 6 
#
# 1 74.8163 40.9561 37.6041 0.0000 -42.6927 0.0000
# 2 40.9561 97.3354 9.3761 0.0000 2.2555 0.0000
# 3 37.6041 9.3761 125.4332 0.0000 -34.4592 0.0000
# 4 0.0000 0.0000 0.0000 18.4616 0.0000 -11.5645
# 5 -42.6927 2.2555 -34.4592 0.0000 67.5533 0.0000
# 6 0.0000 0.0000 0.0000 -11.5645 0.0000 35.6523
#
#
#
# Elastic Compliance Matrix: (Units=1/GPa)
#
#
# Indices 1 2 3 4 5 6 
#
# 1 0.035482 -0.015057 -0.003737 0.000000 0.021021 0.000000
# 2 -0.015057 0.016781 0.000572 0.000000 -0.009785 0.000000
# 3 -0.003737 0.000572 0.009764 0.000000 0.002600 0.000000
# 4 0.000000 0.000000 0.000000 0.067979 0.000000 0.022050
# 5 0.021021 -0.009785 0.002600 0.000000 0.029741 0.000000
# 6 0.000000 0.000000 0.000000 0.022050 0.000000 0.035201
#
#
# Mechanical properties :
#
#
# Convention : Reuss Voigt Hill
#
# Bulk Modulus (GPa) = 39.08923 52.60640 45.84781
# Shear Modulus (GPa) = 20.84023 38.31001 29.57512
#
# Velocity S-wave (km/s) = 2.77192 3.75825 3.30212
# Velocity P-wave (km/s) = 4.96552 6.18287 5.60733
#
# Compressibility (1/GPa) = 0.02558249
#
# Stress axis : x y z
#
# Youngs Moduli (GPa) = 28.18337 59.59124 102.41460
#
# Poissons Ratio (x) = 0.89726 0.38272
# Poissons Ratio (y) = 0.42436 -0.05854
# Poissons Ratio (z) = 0.10532 -0.03406
#
# Static dielectric constant tensor:
#      x y z
#    x 2.340820 0.000000 0.054500 
#    y 0.000000 2.026760 0.000000 
#    z 0.054500 0.000000 2.175310 
# 
# From -- ./inp_files/142124.got.cif
#   From: 2010.05.17/outbox.cif.g08.bks.cpg/sg15_72_cif.got.tgz:142124.got - 2010.06.03 18:47:42.
