data_PCOD9264398
_publ_section_title
;
Structure prediction by ZEFSAII (Michael W. Deem and Ramdas Pophale) SiO2 
 PCOD9264398
Probable space group: C 2/C
;
_chemical_formula_sum "Si O2"
_cell_formula_units_Z 60
_cell_length_a 12.306180
_cell_length_b 8.050283
_cell_length_c 27.116242
_cell_angle_alpha 90.000000
_cell_angle_beta 95.834598
_cell_angle_gamma 90.000000
_cell_volume 2672.441478
_symmetry_space_group_name_H-M "C 2/C"
_symmetry_group_IT_number 15
_symmetry_cell_setting 'monoclinic'
loop_
_space_group_symop_operation_xyz
x,y,z
-x,y,1/2-z
-x,-y,-z
x,-y,1/2+z
1/2+x,1/2+y,z
1/2-x,1/2+y,1/2-z
1/2-x,1/2-y,-z
1/2+x,1/2-y,1/2+z
loop_
_atom_site_type_symbol
_atom_site_label
_atom_site_fract_x
_atom_site_fract_y
_atom_site_fract_z
Si Si1 0.500000 0.358306 0.250000
Si Si2 0.241472 0.352053 0.449727
Si Si3 0.659433 0.563159 0.198600
Si Si4 0.940537 0.920590 0.402047
Si Si5 0.568079 0.084677 0.401591
Si Si6 0.505166 0.139355 0.807329
Si Si7 0.166982 0.234256 0.826054
Si Si8 0.348560 0.389816 0.634501
O O1 0.605129 0.464677 0.240137
O O2 0.457556 0.275345 0.198802
O O3 0.250000 0.250000 0.500000
O O4 0.354739 0.449150 0.442657
O O5 0.131312 0.465190 0.442425
O O6 0.224890 0.215665 0.405543
O O7 0.635351 0.452170 0.149658
O O8 0.595808 0.736532 0.190364
O O9 0.779900 0.633516 0.208642
O O10 0.990038 0.736159 0.413210
O O11 0.046589 0.036230 0.392343
O O12 0.511361 0.978350 0.355302
O O13 0.668569 0.173949 0.378083
O O14 0.500000 0.079769 0.750000
O O15 0.607640 0.263440 0.821631
O O16 0.203956 0.048736 0.840989
#
# Coordination Sequence:
#
# PCOD9264398 Si02
#       8
#     4   8   8   8   8   8   8   8
#     4  12  22  44  56  92 136 160 220 262 286 368
#     4  11  24  43  68  95 121 159 215 267 323 391
#     4  11  21  39  61  87 123 174 209 252 310 372
#     4  10  21  43  65  86 129 162 199 268 322 367
#     4  10  22  39  62  91 126 162 210 258 318 377
#     4  10  19  35  58  89 126 161 207 257 298 362
#     4  11  22  40  63  87 126 173 209 249 314 367
#     4   9  21  42  63  89 129 162 203 263 312 374
#
# _framework density 22.451381000000001
#
# number of rings (size 3 to 8) (size 9 to 14) (size 15 to 20)
#    0.000    1.600    6.000    0.000    2.800    2.133 
#    2.400    2.667    0.000    0.000    0.000    0.000 
#    0.000    0.000    0.000    0.000    0.000    0.000 
#
# Total GULP energy -167002.818836 kJ/mol
# GULP energy per Si atom -5566.760628 kJ/mol
# Density = 2.240028 g / cm^3
# Si number density = 22.451381 Si / 1000 Ang^3
#
#
#
# Elastic Constant Matrix: (Units=GPa)
#
#
# Indices 1 2 3 4 5 6 
#
# 1 68.3255 13.4938 10.0142 0.0000 0.3337 0.0000
# 2 13.4938 53.7088 -6.2078 0.0000 17.6183 0.0000
# 3 10.0142 -6.2078 23.8446 0.0000 5.9117 0.0000
# 4 0.0000 0.0000 0.0000 -67.0186 0.0000 46.5680
# 5 0.3337 17.6183 5.9117 0.0000 22.9558 0.0000
# 6 0.0000 0.0000 0.0000 46.5680 0.0000 11.3698
#
#
#
# Elastic Compliance Matrix: (Units=1/GPa)
#
#
# Indices 1 2 3 4 5 6 
#
# 1 0.018303 -0.009418 -0.012674 0.000000 0.010226 0.000000
# 2 -0.009418 0.033405 0.020269 0.000000 -0.030721 0.000000
# 3 -0.012674 0.020269 0.060192 0.000000 -0.030872 0.000000
# 4 0.000000 0.000000 0.000000 -0.003880 0.000000 0.015890
# 5 0.010226 -0.030721 -0.030872 0.000000 0.074941 0.000000
# 6 0.000000 0.000000 0.000000 0.015890 0.000000 0.022869
#
#
# Mechanical properties :
#
#
# Convention : Reuss Voigt Hill
#
# Bulk Modulus (GPa) = 9.23759 20.05326 14.64542
# Shear Modulus (GPa) = 20.36142 2.03332 11.19737
#
# Velocity S-wave (km/s) = 3.01476 0.95269 2.23567
# Velocity P-wave (km/s) = 4.03011 3.18770 3.63340
#
# Compressibility (1/GPa) = 0.10825331
#
# Stress axis : x y z
#
# Youngs Moduli (GPa) = 54.63450 29.93545 16.61356
#
# Poissons Ratio (x) = 0.28193 0.21056
# Poissons Ratio (y) = 0.51454 -0.33673
# Poissons Ratio (z) = 0.69245 -0.60675
#
# Static dielectric constant tensor:
#      x y z
#    x 1.116710 0.000000 0.374590 
#    y 0.000000 1.912680 0.000000 
#    z 0.374590 0.000000 1.624470 
# 
# From -- ./inp_files/294837.got.cif
#   From: 2010.05.17/outbox.cif.g08.bks.cpg/sg15_148_cif.got.tgz:294837.got - 2010.06.03 18:47:42.
