data_PCOD9264379
_publ_section_title
;
Structure prediction by ZEFSAII (Michael W. Deem and Ramdas Pophale) SiO2 
 PCOD9264379
Probable space group: C 2/C
;
_chemical_formula_sum "Si O2"
_cell_formula_units_Z 40
_cell_length_a 9.536842
_cell_length_b 28.857566
_cell_length_c 9.575453
_cell_angle_alpha 90.000000
_cell_angle_beta 50.899949
_cell_angle_gamma 90.000000
_cell_volume 2045.083254
_symmetry_space_group_name_H-M "C 2/C"
_symmetry_group_IT_number 15
_symmetry_cell_setting 'monoclinic'
loop_
_space_group_symop_operation_xyz
x,y,z
-x,y,1/2-z
-x,-y,-z
x,-y,1/2+z
1/2+x,1/2+y,z
1/2-x,1/2+y,1/2-z
1/2-x,1/2-y,-z
1/2+x,1/2-y,1/2+z
loop_
_atom_site_type_symbol
_atom_site_label
_atom_site_fract_x
_atom_site_fract_y
_atom_site_fract_z
Si Si1 0.321108 0.802339 0.453366
Si Si2 0.350120 0.035552 0.149812
Si Si3 0.282612 0.041513 0.894554
Si Si4 0.536836 0.623561 0.059332
Si Si5 0.366934 0.860015 0.710635
O O1 0.500000 0.804739 0.250000
O O2 0.250000 0.750000 0.500000
O O3 0.360464 0.826152 0.580050
O O4 0.167446 0.832632 0.475383
O O5 0.421479 0.086891 0.135903
O O6 0.266645 0.008316 0.331902
O O7 0.228524 0.038763 0.090162
O O8 0.500000 0.000000 0.000000
O O9 0.500000 0.054889 0.750000
O O10 0.149778 0.081090 0.922707
O O11 0.500000 0.617717 0.250000
O O12 0.342582 0.632957 0.113860
O O13 0.500000 0.844216 0.750000
#
# Coordination Sequence:
#
# PCOD9264379 Si02
#       5
#     8   8   8   8   8
#     4  11  23  44  75  98 121 165 218 265 331 400
#     4  10  20  34  59  90 130 177 223 259 324 372
#     4  10  19  35  58  86 125 175 223 264 314 377
#     4  10  20  38  62  90 128 169 217 260 321 382
#     4  11  23  42  62  94 136 171 210 280 320 377
#
# _framework density 19.559106
#
# number of rings (size 3 to 8) (size 9 to 14) (size 15 to 20)
#    0.000    1.600    4.000    4.200    2.800    0.800 
#    0.000    5.000    0.000    0.000    0.000    0.000 
#    0.000    0.000    0.000    0.000    0.000    0.000 
#
# Total GULP energy -111424.042000 kJ/mol
# GULP energy per Si atom -5571.202100 kJ/mol
# Density = 1.951459 g / cm^3
# Si number density = 19.559106 Si / 1000 Ang^3
#
#
#
# Elastic Constant Matrix: (Units=GPa)
#
#
# Indices 1 2 3 4 5 6 
#
# 1 136.6634 44.6461 40.1565 0.0000 -12.0374 0.0000
# 2 44.6461 136.2421 30.3547 0.0000 -8.8950 0.0000
# 3 40.1565 30.3547 54.8442 0.0000 -14.8191 0.0000
# 4 0.0000 0.0000 0.0000 35.1795 0.0000 -5.6476
# 5 -12.0374 -8.8950 -14.8191 0.0000 37.9408 0.0000
# 6 0.0000 0.0000 0.0000 -5.6476 0.0000 19.5793
#
#
#
# Elastic Compliance Matrix: (Units=1/GPa)
#
#
# Indices 1 2 3 4 5 6 
#
# 1 0.009707 -0.001820 -0.006018 0.000000 0.000302 0.000000
# 2 -0.001820 0.008715 -0.003460 0.000000 0.000114 0.000000
# 3 -0.006018 -0.003460 0.026630 0.000000 0.007681 0.000000
# 4 0.000000 0.000000 0.000000 0.029806 0.000000 0.008597
# 5 0.000302 0.000114 0.007681 0.000000 0.029480 0.000000
# 6 0.000000 0.000000 0.000000 0.008597 0.000000 0.053554
#
#
# Mechanical properties :
#
#
# Convention : Reuss Voigt Hill
#
# Bulk Modulus (GPa) = 44.53246 62.00714 53.26980
# Shear Modulus (GPa) = 26.59961 32.71274 29.65618
#
# Velocity S-wave (km/s) = 3.69176 4.09407 3.89811
# Velocity P-wave (km/s) = 6.40232 7.35661 6.89600
#
# Compressibility (1/GPa) = 0.02245553
#
# Stress axis : x y z
#
# Youngs Moduli (GPa) = 103.01968 114.74918 37.55153
#
# Poissons Ratio (x) = 0.20888 0.22599
# Poissons Ratio (y) = 0.18753 0.12991
# Poissons Ratio (z) = 0.61998 0.39699
#
# Static dielectric constant tensor:
#      x y z
#    x 1.694720 0.000000 -0.003480 
#    y 0.000000 1.844910 0.000000 
#    z -0.003480 0.000000 1.731250 
# 
# From -- ./inp_files/25366.got.cif
#   From: 2010.05.17/outbox.cif.g08.bks.cpg/sg15_13_cif.got.tgz:25366.got - 2010.06.03 18:47:42.
