data_PCOD9264959
_publ_section_title
;
Structure prediction by ZEFSAII (Michael W. Deem and Ramdas Pophale) SiO2 
 PCOD9264959
Probable space group: C 2/C
;
_chemical_formula_sum "Si O2"
_cell_formula_units_Z 40
_cell_length_a 26.155021
_cell_length_b 5.298580
_cell_length_c 14.355521
_cell_angle_alpha 90.000000
_cell_angle_beta 118.323920
_cell_angle_gamma 90.000000
_cell_volume 1751.273772
_symmetry_space_group_name_H-M "C 2/C"
_symmetry_group_IT_number 15
_symmetry_cell_setting 'monoclinic'
loop_
_space_group_symop_operation_xyz
x,y,z
-x,y,1/2-z
-x,-y,-z
x,-y,1/2+z
1/2+x,1/2+y,z
1/2-x,1/2+y,1/2-z
1/2-x,1/2-y,-z
1/2+x,1/2-y,1/2+z
loop_
_atom_site_type_symbol
_atom_site_label
_atom_site_fract_x
_atom_site_fract_y
_atom_site_fract_z
Si Si1 0.957406 0.761852 0.066174
Si Si2 0.478061 0.762632 0.362169
Si Si3 0.651443 0.087811 0.797894
Si Si4 0.326882 0.791225 0.505959
Si Si5 0.790820 0.913619 0.162674
O O1 0.888884 0.789205 0.021690
O O2 0.979915 0.495615 0.124534
O O3 0.969877 0.750822 0.966837
O O4 0.993139 0.996432 0.138454
O O5 0.414570 0.825794 0.269131
O O6 0.690586 0.311054 0.790989
O O7 0.668233 0.816127 0.766858
O O8 0.663970 0.030471 0.917517
O O9 0.276641 0.846171 0.388801
O O10 0.302966 0.590728 0.560811
#
# Coordination Sequence:
#
# PCOD9264959 Si02
#       5
#     8   8   8   8   8
#     4  10  22  38  57  76 111 154 178 221 277 334
#     4  10  22  39  54  79 114 144 186 223 272 325
#     4  10  19  36  55  81 111 140 175 239 260 320
#     4   9  21  35  58  80 109 144 180 222 277 327
#     4   9  20  34  57  80 112 135 180 226 279 316
#
# _framework density 22.840516999999998
#
# number of rings (size 3 to 8) (size 9 to 14) (size 15 to 20)
#    1.200    1.200    0.000    1.800    2.800    0.800 
#    0.000    2.000    0.000    0.000    0.000    0.000 
#    0.000    0.000    0.000    0.000    0.000    0.000 
#
# Total GULP energy -111616.318872 kJ/mol
# GULP energy per Si atom -5580.815944 kJ/mol
# Density = 2.278853 g / cm^3
# Si number density = 22.840517 Si / 1000 Ang^3
#
#
#
# Elastic Constant Matrix: (Units=GPa)
#
#
# Indices 1 2 3 4 5 6 
#
# 1 -154.3053 16.2440 314.0377 0.0000 -53.8051 0.0000
# 2 16.2440 133.5472 34.8518 0.0000 1.5149 0.0000
# 3 314.0377 34.8518 -240.1800 0.0000 100.3661 0.0000
# 4 0.0000 0.0000 0.0000 17.6113 0.0000 18.6922
# 5 -53.8051 1.5149 100.3661 0.0000 19.2984 0.0000
# 6 0.0000 0.0000 0.0000 18.6922 0.0000 2.6367
#
#
#
# Elastic Compliance Matrix: (Units=1/GPa)
#
#
# Indices 1 2 3 4 5 6 
#
# 1 0.006868 -0.002120 0.005276 0.000000 -0.008126 0.000000
# 2 -0.002120 0.008096 -0.001365 0.000000 0.000555 0.000000
# 3 0.005276 -0.001365 0.002751 0.000000 0.000511 0.000000
# 4 0.000000 0.000000 0.000000 -0.008703 0.000000 0.061698
# 5 -0.008126 0.000555 0.000511 0.000000 0.026458 0.000000
# 6 0.000000 0.000000 0.000000 0.061698 0.000000 -0.058130
#
#
# Mechanical properties :
#
#
# Convention : Reuss Voigt Hill
#
# Bulk Modulus (GPa) = 46.95757 52.14765 49.55261
# Shear Modulus (GPa) = -261.18610 -33.82883 -147.50747
#
# Velocity S-wave (km/s) = -10.70516 -3.85267 -8.04498
# Velocity P-wave (km/s) = 11.49769 1.75785 8.03452
#
# Compressibility (1/GPa) = 0.02129582
#
# Stress axis : x y z
#
# Youngs Moduli (GPa) = 145.60769 123.51908 363.53166
#
# Poissons Ratio (x) = 0.26188 -1.91808
# Poissons Ratio (y) = 0.30871 0.49638
# Poissons Ratio (z) = -0.76826 0.16866
#
# Static dielectric constant tensor:
#      x y z
#    x 1.832120 0.000000 -0.025240 
#    y 0.000000 1.854480 0.000000 
#    z -0.025240 0.000000 1.857790 
# 
# From -- ./inp_files/221037.got.cif
#   From: 2010.05.17/outbox.cif.g08.bks.cpg/sg15_111_cif.got.tgz:221037.got - 2010.06.03 18:47:42.
