data_PCOD9264397
_publ_section_title
;
Structure prediction by ZEFSAII (Michael W. Deem and Ramdas Pophale) SiO2 
 PCOD9264397
Probable space group: C 2/C
;
_chemical_formula_sum "Si O2"
_cell_formula_units_Z 56
_cell_length_a 24.509510
_cell_length_b 19.402369
_cell_length_c 7.909009
_cell_angle_alpha 90.000000
_cell_angle_beta 39.489005
_cell_angle_gamma 90.000000
_cell_volume 2391.777983
_symmetry_space_group_name_H-M "C 2/C"
_symmetry_group_IT_number 15
_symmetry_cell_setting 'monoclinic'
loop_
_space_group_symop_operation_xyz
x,y,z
-x,y,1/2-z
-x,-y,-z
x,-y,1/2+z
1/2+x,1/2+y,z
1/2-x,1/2+y,1/2-z
1/2-x,1/2-y,-z
1/2+x,1/2-y,1/2+z
loop_
_atom_site_type_symbol
_atom_site_label
_atom_site_fract_x
_atom_site_fract_y
_atom_site_fract_z
Si Si1 0.268427 0.678976 0.550763
Si Si2 0.169400 0.961272 0.590782
Si Si3 0.910782 0.921721 0.056624
Si Si4 0.447576 0.150337 0.047774
Si Si5 0.395940 0.903601 0.132333
Si Si6 0.341093 0.282657 0.236216
Si Si7 0.655543 0.958229 0.872421
O O1 0.250000 0.750000 0.500000
O O2 0.316755 0.612601 0.351679
O O3 0.172868 0.645135 0.799899
O O4 0.326484 0.701842 0.571867
O O5 0.155815 0.940171 0.431216
O O6 0.090707 0.008215 0.834886
O O7 0.251809 0.010434 0.389514
O O8 0.871998 0.854892 0.240823
O O9 0.000000 0.905062 0.750000
O O10 0.500000 0.137955 0.750000
O O11 0.514913 0.132965 0.032717
O O12 0.411234 0.226727 0.121278
O O13 0.369369 0.097415 0.210264
O O14 0.355501 0.925890 0.414133
O O15 0.404236 0.974868 0.011252
O O16 0.250000 0.250000 0.500000
#
# Coordination Sequence:
#
# PCOD9264397 Si02
#       7
#     8   8   8   8   8   8   8
#     4  10  21  39  61  88 122 163 208 256 314 384
#     4  10  21  37  60  86 119 161 206 254 311 377
#     4  11  23  40  61  88 120 159 210 265 313 368
#     4  10  20  36  59  88 121 161 203 255 320 381
#     4  10  21  36  60  92 128 164 205 260 319 382
#     4  11  24  41  63  89 120 163 212 261 317 385
#     4  10  19  35  58  89 124 165 206 253 315 389
#
# _framework density 23.413544000000002
#
# number of rings (size 3 to 8) (size 9 to 14) (size 15 to 20)
#    0.000    1.714    0.000    5.571    0.000    4.571 
#    0.000    2.143    0.000    0.000    0.000    0.000 
#    0.000    0.000    0.000    0.000    0.000    0.000 
#
# Total GULP energy -156286.594018 kJ/mol
# GULP energy per Si atom -5581.664072 kJ/mol
# Density = 2.336025 g / cm^3
# Si number density = 23.413544 Si / 1000 Ang^3
#
#
#
# Elastic Constant Matrix: (Units=GPa)
#
#
# Indices 1 2 3 4 5 6 
#
# 1 96.6688 45.0627 16.5502 0.0000 -14.0479 0.0000
# 2 45.0627 194.1736 35.6138 0.0000 -13.1175 0.0000
# 3 16.5502 35.6138 63.6163 0.0000 -13.4428 0.0000
# 4 0.0000 0.0000 0.0000 40.1096 0.0000 -7.7447
# 5 -14.0479 -13.1175 -13.4428 0.0000 36.8240 0.0000
# 6 0.0000 0.0000 0.0000 -7.7447 0.0000 44.4230
#
#
#
# Elastic Compliance Matrix: (Units=1/GPa)
#
#
# Indices 1 2 3 4 5 6 
#
# 1 0.012137 -0.002385 -0.001109 0.000000 0.003376 0.000000
# 2 -0.002385 0.006239 -0.002812 0.000000 0.000286 0.000000
# 3 -0.001109 -0.002812 0.018725 0.000000 0.005411 0.000000
# 4 0.000000 0.000000 0.000000 0.025800 0.000000 0.004498
# 5 0.003376 0.000286 0.005411 0.000000 0.030521 0.000000
# 6 0.000000 0.000000 0.000000 0.004498 0.000000 0.023295
#
#
# Mechanical properties :
#
#
# Convention : Reuss Voigt Hill
#
# Bulk Modulus (GPa) = 40.83417 60.99023 50.91220
# Shear Modulus (GPa) = 36.36592 41.42013 38.89303
#
# Velocity S-wave (km/s) = 3.94534 4.21059 4.08012
# Velocity P-wave (km/s) = 6.18325 7.05297 6.63238
#
# Compressibility (1/GPa) = 0.02448929
#
# Stress axis : x y z
#
# Youngs Moduli (GPa) = 82.39358 160.29312 53.40416
#
# Poissons Ratio (x) = 0.38234 0.05922
# Poissons Ratio (y) = 0.19653 0.15015
# Poissons Ratio (z) = 0.09136 0.45067
#
# Static dielectric constant tensor:
#      x y z
#    x 1.938650 0.000000 -0.007130 
#    y 0.000000 2.112900 0.000000 
#    z -0.007130 0.000000 2.000080 
# 
# From -- ./inp_files/67105.got.cif
#   From: 2010.05.17/outbox.cif.g08.bks.cpg/sg15_34_cif.got.tgz:67105.got - 2010.06.03 18:47:42.
