data_PCOD9264225
_publ_section_title
;
Structure prediction by ZEFSAII (Michael W. Deem and Ramdas Pophale) SiO2 
 PCOD9264225
Probable space group: C 2/C
;
_chemical_formula_sum "Si O2"
_cell_formula_units_Z 52
_cell_length_a 5.870178
_cell_length_b 28.433976
_cell_length_c 15.573575
_cell_angle_alpha 90.000000
_cell_angle_beta 114.726263
_cell_angle_gamma 90.000000
_cell_volume 2361.100130
_symmetry_space_group_name_H-M "C 2/C"
_symmetry_group_IT_number 15
_symmetry_cell_setting 'monoclinic'
loop_
_space_group_symop_operation_xyz
x,y,z
-x,y,1/2-z
-x,-y,-z
x,-y,1/2+z
1/2+x,1/2+y,z
1/2-x,1/2+y,1/2-z
1/2-x,1/2-y,-z
1/2+x,1/2-y,1/2+z
loop_
_atom_site_type_symbol
_atom_site_label
_atom_site_fract_x
_atom_site_fract_y
_atom_site_fract_z
Si Si1 0.000000 0.821528 0.750000
Si Si2 0.878608 0.476773 0.064924
Si Si3 0.513917 0.850091 0.873345
Si Si4 0.931662 0.219917 0.421301
Si Si5 0.380405 0.571175 0.471783
Si Si6 0.243114 0.905604 0.346226
Si Si7 0.413246 0.825464 0.046936
O O1 0.744617 0.851268 0.719010
O O2 0.024349 0.790024 0.838827
O O3 0.676880 0.436473 0.008806
O O4 0.092478 0.451292 0.152597
O O5 0.730212 0.521191 0.078104
O O6 0.000000 0.500000 0.000000
O O7 0.654761 0.800704 0.882801
O O8 0.726452 0.889394 0.897244
O O9 0.426633 0.851410 0.957941
O O10 0.122084 0.190188 0.513163
O O11 0.951406 0.274968 0.440569
O O12 0.336298 0.583479 0.566448
O O13 0.425422 0.860070 0.368232
O O14 0.000000 0.899961 0.250000
#
# Coordination Sequence:
#
# PCOD9264225 Si02
#       7
#     4   8   8   8   8   8   8
#     4  10  22  34  52  82 116 144 190 236 284 328
#     4   9  18  36  58  79 103 143 183 226 273 339
#     4  10  19  35  57  81 109 147 186 236 280 337
#     4  10  19  36  56  76 112 151 191 235 281 332
#     4   9  19  36  60  80 104 148 188 220 283 339
#     4  10  20  34  54  84 117 142 176 234 285 335
#     4   9  20  35  55  82 107 149 194 226 278 347
#
# _framework density 22.023631000000002
#
# number of rings (size 3 to 8) (size 9 to 14) (size 15 to 20)
#    0.000    2.462    0.000    1.846    0.000    3.077 
#    1.385    4.615    6.769    0.000    0.000    0.000 
#    0.000    0.000    0.000    0.000    0.000    0.000 
#
# Total GULP energy -144953.194435 kJ/mol
# GULP energy per Si atom -5575.122863 kJ/mol
# Density = 2.197350 g / cm^3
# Si number density = 22.023631 Si / 1000 Ang^3
#
#
#
# Elastic Constant Matrix: (Units=GPa)
#
#
# Indices 1 2 3 4 5 6 
#
# 1 70.7686 30.4194 23.9367 0.0000 28.9629 0.0000
# 2 30.4194 110.5017 53.1376 0.0000 28.2899 0.0000
# 3 23.9367 53.1376 108.2469 0.0000 32.2762 0.0000
# 4 0.0000 0.0000 0.0000 12.8280 0.0000 3.0438
# 5 28.9629 28.2899 32.2762 0.0000 47.0519 0.0000
# 6 0.0000 0.0000 0.0000 3.0438 0.0000 32.5258
#
#
#
# Elastic Compliance Matrix: (Units=1/GPa)
#
#
# Indices 1 2 3 4 5 6 
#
# 1 0.019560 -0.002780 0.000165 0.000000 -0.010481 0.000000
# 2 -0.002780 0.012852 -0.004903 0.000000 -0.002652 0.000000
# 3 0.000165 -0.004903 0.013527 0.000000 -0.006432 0.000000
# 4 0.000000 0.000000 0.000000 0.079725 0.000000 -0.007461
# 5 -0.010481 -0.002652 -0.006432 0.000000 0.033712 0.000000
# 6 0.000000 0.000000 0.000000 -0.007461 0.000000 0.031443
#
#
# Mechanical properties :
#
#
# Convention : Reuss Voigt Hill
#
# Bulk Modulus (GPa) = 32.36195 56.05606 44.20901
# Shear Modulus (GPa) = 23.13150 30.61604 26.87377
#
# Velocity S-wave (km/s) = 3.24435 3.73251 3.49696
# Velocity P-wave (km/s) = 5.36289 6.63954 6.03506
#
# Compressibility (1/GPa) = 0.03090049
#
# Stress axis : x y z
#
# Youngs Moduli (GPa) = 51.12602 77.80956 73.92864
#
# Poissons Ratio (x) = 0.21634 -0.01219
# Poissons Ratio (y) = 0.14215 0.36249
# Poissons Ratio (z) = -0.00843 0.38152
#
# Static dielectric constant tensor:
#      x y z
#    x 1.893310 0.000000 0.001160 
#    y 0.000000 1.821770 0.000000 
#    z 0.001160 0.000000 1.834720 
# 
# From -- ./inp_files/186285.got.cif
#   From: 2010.05.17/outbox.cif.g08.bks.cpg/sg15_94_cif.got.tgz:186285.got - 2010.06.03 18:47:42.
