data_PCOD9264618
_publ_section_title
;
Structure prediction by ZEFSAII (Michael W. Deem and Ramdas Pophale) SiO2 
 PCOD9264618
Probable space group: C 2/C
;
_chemical_formula_sum "Si O2"
_cell_formula_units_Z 40
_cell_length_a 17.835621
_cell_length_b 6.911232
_cell_length_c 25.625362
_cell_angle_alpha 90.000000
_cell_angle_beta 31.229265
_cell_angle_gamma 90.000000
_cell_volume 1637.691842
_symmetry_space_group_name_H-M "C 2/C"
_symmetry_group_IT_number 15
_symmetry_cell_setting 'monoclinic'
loop_
_space_group_symop_operation_xyz
x,y,z
-x,y,1/2-z
-x,-y,-z
x,-y,1/2+z
1/2+x,1/2+y,z
1/2-x,1/2+y,1/2-z
1/2-x,1/2-y,-z
1/2+x,1/2-y,1/2+z
loop_
_atom_site_type_symbol
_atom_site_label
_atom_site_fract_x
_atom_site_fract_y
_atom_site_fract_z
Si Si1 0.279219 0.067394 0.044914
Si Si2 0.820071 0.970756 0.672831
Si Si3 0.415599 0.550832 0.425797
Si Si4 0.383363 0.231998 0.775869
Si Si5 0.080691 0.463686 0.397499
O O1 0.180665 0.957193 0.061995
O O2 0.198939 0.085218 0.148107
O O3 0.305126 0.300108 0.019371
O O4 0.440923 0.995378 0.944842
O O5 0.868740 0.758455 0.626871
O O6 0.974813 0.056863 0.600643
O O7 0.733554 0.085369 0.679518
O O8 0.713484 0.947769 0.786110
O O9 0.520382 0.686280 0.328382
O O10 0.500000 0.159144 0.750000
O O11 0.000000 0.500000 0.500000
#
# Coordination Sequence:
#
# PCOD9264618 Si02
#       5
#     8   8   8   8   8
#     4   9  18  35  60  85 118 160 212 243 301 375
#     4  11  21  41  62  94 125 159 214 263 309 368
#     4   9  18  34  58  87 116 162 208 249 290 383
#     4  10  19  35  60  93 128 165 204 256 312 365
#     4  11  24  40  65  92 126 164 212 261 316 373
#
# _framework density 24.424620000000001
#
# number of rings (size 3 to 8) (size 9 to 14) (size 15 to 20)
#    0.000    2.000    4.000    1.200    0.000    3.200 
#    0.000    2.000    0.000    2.400    0.000    0.000 
#    0.000    0.000    0.000    0.000    0.000    0.000 
#
# Total GULP energy -111374.682711 kJ/mol
# GULP energy per Si atom -5568.734136 kJ/mol
# Density = 2.436903 g / cm^3
# Si number density = 24.424620 Si / 1000 Ang^3
#
#
#
# Elastic Constant Matrix: (Units=GPa)
#
#
# Indices 1 2 3 4 5 6 
#
# 1 152.1367 34.8960 43.1441 -0.0009 -45.8704 0.0092
# 2 34.8960 73.5376 29.2703 -0.0002 -9.0939 0.0110
# 3 43.1441 29.2703 115.0696 0.0006 -16.9631 0.0019
# 4 -0.0009 -0.0002 0.0006 41.0594 -0.0003 -3.2156
# 5 -45.8704 -9.0939 -16.9631 -0.0003 65.0873 -0.0021
# 6 0.0092 0.0110 0.0019 -3.2156 -0.0021 19.3459
#
#
#
# Elastic Compliance Matrix: (Units=1/GPa)
#
#
# Indices 1 2 3 4 5 6 
#
# 1 0.009581 -0.003047 -0.001960 0.000000 0.005816 -0.000002
# 2 -0.003047 0.016184 -0.003075 -0.000001 -0.000688 -0.000008
# 3 -0.001960 -0.003075 0.010338 0.000000 0.000883 0.000002
# 4 0.000000 -0.000001 0.000000 0.024676 0.000000 0.004102
# 5 0.005816 -0.000688 0.000883 0.000000 0.019597 0.000000
# 6 -0.000002 -0.000008 0.000002 0.004102 0.000000 0.052372
#
#
# Mechanical properties :
#
#
# Convention : Reuss Voigt Hill
#
# Bulk Modulus (GPa) = 50.15737 61.70719 55.93228
# Shear Modulus (GPa) = 32.14212 40.66077 36.40144
#
# Velocity S-wave (km/s) = 3.63157 4.08456 3.86470
# Velocity P-wave (km/s) = 6.17775 6.89666 6.54708
#
# Compressibility (1/GPa) = 0.01993725
#
# Stress axis : x y z
#
# Youngs Moduli (GPa) = 104.36929 61.79094 96.73272
#
# Poissons Ratio (x) = 0.18830 0.18959
# Poissons Ratio (y) = 0.31805 0.29750
# Poissons Ratio (z) = 0.20455 0.19004
#
# Static dielectric constant tensor:
#      x y z
#    x 2.178040 0.000000 -0.041220 
#    y 0.000000 2.013900 0.000000 
#    z -0.041220 0.000000 1.880050 
# 
# From -- ./inp_files/159493.got.cif
#   From: 2010.05.17/outbox.cif.g08.bks.cpg/sg15_80_cif.got.tgz:159493.got - 2010.06.03 18:47:42.
