data_PCOD9264946
_publ_section_title
;
Structure prediction by ZEFSAII (Michael W. Deem and Ramdas Pophale) SiO2 
 PCOD9264946
Probable space group: C 2/C
;
_chemical_formula_sum "Si O2"
_cell_formula_units_Z 56
_cell_length_a 12.152070
_cell_length_b 8.952067
_cell_length_c 21.657935
_cell_angle_alpha 90.000000
_cell_angle_beta 94.091391
_cell_angle_gamma 90.000000
_cell_volume 2350.078810
_symmetry_space_group_name_H-M "C 2/C"
_symmetry_group_IT_number 15
_symmetry_cell_setting 'monoclinic'
loop_
_space_group_symop_operation_xyz
x,y,z
-x,y,1/2-z
-x,-y,-z
x,-y,1/2+z
1/2+x,1/2+y,z
1/2-x,1/2+y,1/2-z
1/2-x,1/2-y,-z
1/2+x,1/2-y,1/2+z
loop_
_atom_site_type_symbol
_atom_site_label
_atom_site_fract_x
_atom_site_fract_y
_atom_site_fract_z
Si Si1 0.282469 0.683496 0.175649
Si Si2 0.724117 0.060807 0.597804
Si Si3 0.857108 0.488343 0.124054
Si Si4 0.786391 0.197101 0.308124
Si Si5 0.496710 0.434803 0.849437
Si Si6 0.460369 0.721141 0.593427
Si Si7 0.996713 0.695203 0.541735
O O1 0.220732 0.616062 0.113101
O O2 0.337532 0.845871 0.167041
O O3 0.226245 0.681964 0.240384
O O4 0.385342 0.569976 0.177371
O O5 0.712912 0.138844 0.664493
O O6 0.839913 0.134547 0.577718
O O7 0.615478 0.114518 0.557087
O O8 0.751265 0.588458 0.137248
O O9 0.943972 0.625667 0.130936
O O10 0.896879 0.410026 0.062126
O O11 0.910806 0.148565 0.303781
O O12 0.468830 0.603515 0.865458
O O13 0.504223 0.338041 0.912855
O O14 0.508500 0.756436 0.528721
#
# Coordination Sequence:
#
# PCOD9264946 Si02
#       7
#     8   8   8   8   8   8   8
#     4  10  19  36  55  76 106 140 179 230 275 324
#     4   9  20  34  55  79 104 145 192 218 265 340
#     4  10  22  34  53  83 109 140 183 224 280 336
#     4  10  19  36  55  76 106 140 178 231 277 323
#     4   9  20  34  57  81 102 142 190 220 272 343
#     4  10  19  36  55  80 113 144 181 232 274 326
#     4  10  19  36  55  79 113 147 180 229 277 326
#
# _framework density 23.828987999999999
#
# number of rings (size 3 to 8) (size 9 to 14) (size 15 to 20)
#    0.000    2.286    0.000    2.571    0.000    1.143 
#    0.000    3.571    0.000   10.286    0.000    0.000 
#    0.000    0.000    0.000    0.000    0.000    0.000 
#
# Total GULP energy -155873.976242 kJ/mol
# GULP energy per Si atom -5566.927723 kJ/mol
# Density = 2.377475 g / cm^3
# Si number density = 23.828988 Si / 1000 Ang^3
#
#
#
# Elastic Constant Matrix: (Units=GPa)
#
#
# Indices 1 2 3 4 5 6 
#
# 1 46.3008 -3.8244 17.3964 0.0000 -10.1490 0.0000
# 2 -3.8244 138.1908 33.6645 0.0000 -4.2798 0.0000
# 3 17.3964 33.6645 82.5188 0.0000 -13.2580 0.0000
# 4 0.0000 0.0000 0.0000 15.4678 0.0000 2.1749
# 5 -10.1490 -4.2798 -13.2580 0.0000 17.8370 0.0000
# 6 0.0000 0.0000 0.0000 2.1749 0.0000 27.9021
#
#
#
# Elastic Compliance Matrix: (Units=1/GPa)
#
#
# Indices 1 2 3 4 5 6 
#
# 1 0.026095 0.002181 -0.004453 0.000000 0.012061 0.000000
# 2 0.002181 0.008222 -0.003745 0.000000 0.000430 0.000000
# 3 -0.004453 -0.003745 0.015937 0.000000 0.008413 0.000000
# 4 0.000000 0.000000 0.000000 0.065367 0.000000 -0.005095
# 5 0.012061 0.000430 0.008413 0.000000 0.069283 0.000000
# 6 0.000000 0.000000 0.000000 -0.005095 0.000000 0.036237
#
#
# Mechanical properties :
#
#
# Convention : Reuss Voigt Hill
#
# Bulk Modulus (GPa) = 26.16501 40.16480 33.16490
# Shear Modulus (GPa) = 20.33223 26.89296 23.61260
#
# Velocity S-wave (km/s) = 2.92422 3.36308 3.15130
# Velocity P-wave (km/s) = 4.73346 5.65442 5.21431
#
# Compressibility (1/GPa) = 0.03821898
#
# Stress axis : x y z
#
# Youngs Moduli (GPa) = 38.32171 121.61967 62.74794
#
# Poissons Ratio (x) = -0.26519 0.27942
# Poissons Ratio (y) = -0.08356 0.23499
# Poissons Ratio (z) = 0.17065 0.45547
#
# Static dielectric constant tensor:
#      x y z
#    x 2.027530 0.000000 0.021260 
#    y 0.000000 1.975260 0.000000 
#    z 0.021260 0.000000 1.910310 
# 
# From -- ./inp_files/242781.got.cif
#   From: 2010.05.17/outbox.cif.g08.bks.cpg/sg15_122_cif.got.tgz:242781.got - 2010.06.03 18:47:42.
