data_PCOD9264073
_publ_section_title
;
Structure prediction by ZEFSAII (Michael W. Deem and Ramdas Pophale) SiO2 
 PCOD9264073
Probable space group: C 2/C
;
_chemical_formula_sum "Si O2"
_cell_formula_units_Z 40
_cell_length_a 11.296658
_cell_length_b 27.712869
_cell_length_c 8.570267
_cell_angle_alpha 90.000000
_cell_angle_beta 134.921872
_cell_angle_gamma 90.000000
_cell_volume 1899.775215
_symmetry_space_group_name_H-M "C 2/C"
_symmetry_group_IT_number 15
_symmetry_cell_setting 'monoclinic'
loop_
_space_group_symop_operation_xyz
x,y,z
-x,y,1/2-z
-x,-y,-z
x,-y,1/2+z
1/2+x,1/2+y,z
1/2-x,1/2+y,1/2-z
1/2-x,1/2-y,-z
1/2+x,1/2-y,1/2+z
loop_
_atom_site_type_symbol
_atom_site_label
_atom_site_fract_x
_atom_site_fract_y
_atom_site_fract_z
Si Si1 0.000000 0.774178 0.250000
Si Si2 0.909858 0.431495 0.968461
Si Si3 0.682477 0.807820 0.119598
Si Si4 0.730036 0.474685 0.219338
Si Si5 0.000000 0.654994 0.750000
Si Si6 0.500000 0.887709 0.750000
Si Si7 0.000000 0.975243 0.250000
O O1 0.124941 0.803354 0.253049
O O2 0.099677 0.739320 0.462554
O O3 0.795221 0.478129 0.874345
O O4 0.897682 0.420012 0.773700
O O5 0.102113 0.448003 0.178033
O O6 0.886162 0.381992 0.040806
O O7 0.615372 0.815208 0.234841
O O8 0.610084 0.853523 0.960166
O O9 0.620661 0.446263 0.245324
O O10 0.609222 0.492020 0.969810
#
# Coordination Sequence:
#
# PCOD9264073 Si02
#       7
#     4   8   8   8   4   4   4
#     4   9  18  38  61  81 110 150 184 213 264 358
#     4  10  19  35  55  74 106 151 194 229 276 341
#     4   9  19  35  58  83 111 144 183 224 274 332
#     4  10  20  34  53  74 102 150 197 233 279 331
#     4  10  20  33  54  87 115 136 182 245 281 311
#     4   9  18  33  52  78 107 142 186 232 277 333
#     4  10  20  32  47  74 102 126 192 256 280 312
#
# _framework density 21.055122000000001
#
# number of rings (size 3 to 8) (size 9 to 14) (size 15 to 20)
#    0.000    2.400    0.000    2.400    0.000    4.000 
#    0.000   15.000    0.000   12.000    0.000    0.000 
#    0.000    0.000    0.000    0.000    0.000    0.000 
#
# Total GULP energy -111424.818298 kJ/mol
# GULP energy per Si atom -5571.240915 kJ/mol
# Density = 2.100720 g / cm^3
# Si number density = 21.055122 Si / 1000 Ang^3
#
#
#
# Elastic Constant Matrix: (Units=GPa)
#
#
# Indices 1 2 3 4 5 6 
#
# 1 182.9146 44.4731 40.9399 0.0000 -10.0167 0.0000
# 2 44.4731 50.1900 5.5741 0.0000 -0.0243 0.0000
# 3 40.9399 5.5741 83.0914 0.0000 -0.2545 0.0000
# 4 0.0000 0.0000 0.0000 34.7658 0.0000 15.6054
# 5 -10.0167 -0.0243 -0.2545 0.0000 33.7966 0.0000
# 6 0.0000 0.0000 0.0000 15.6054 0.0000 0.6278
#
#
#
# Elastic Compliance Matrix: (Units=1/GPa)
#
#
# Indices 1 2 3 4 5 6 
#
# 1 0.008006 -0.006706 -0.003488 0.000000 0.002342 0.000000
# 2 -0.006706 0.025691 0.001575 0.000000 -0.001957 0.000000
# 3 -0.003488 0.001575 0.013645 0.000000 -0.000930 0.000000
# 4 0.000000 0.000000 0.000000 -0.002832 0.000000 0.070389
# 5 0.002342 -0.001957 -0.000930 0.000000 0.030275 0.000000
# 6 0.000000 0.000000 0.000000 0.070389 0.000000 -0.156813
#
#
# Mechanical properties :
#
#
# Convention : Reuss Voigt Hill
#
# Bulk Modulus (GPa) = 33.21848 55.35226 44.28537
# Shear Modulus (GPa) = -91.31483 28.85195 -31.23144
#
# Velocity S-wave (km/s) = -6.59269 3.70578 -3.85556
# Velocity P-wave (km/s) = 6.49155 6.68257 1.12170
#
# Compressibility (1/GPa) = 0.03010373
#
# Stress axis : x y z
#
# Youngs Moduli (GPa) = 124.90076 38.92483 73.28738
#
# Poissons Ratio (x) = 0.26103 0.25561
# Poissons Ratio (y) = 0.83757 -0.11540
# Poissons Ratio (z) = 0.43563 -0.06129
#
# Static dielectric constant tensor:
#      x y z
#    x 1.880910 0.000000 -0.018240 
#    y 0.000000 1.728200 0.000000 
#    z -0.018240 0.000000 1.797800 
# 
# From -- ./inp_files/34737.got.cif
#   From: 2010.05.17/outbox.cif.g08.bks.cpg/sg15_18_cif.got.tgz:34737.got - 2010.06.03 18:47:42.
