data_PCOD9264453
_publ_section_title
;
Structure prediction by ZEFSAII (Michael W. Deem and Ramdas Pophale) SiO2 
 PCOD9264453
Probable space group: C 2/C
;
_chemical_formula_sum "Si O2"
_cell_formula_units_Z 64
_cell_length_a 11.874622
_cell_length_b 18.313147
_cell_length_c 16.024939
_cell_angle_alpha 90.000000
_cell_angle_beta 92.716234
_cell_angle_gamma 90.000000
_cell_volume 3480.895223
_symmetry_space_group_name_H-M "C 2/C"
_symmetry_group_IT_number 15
_symmetry_cell_setting 'monoclinic'
loop_
_space_group_symop_operation_xyz
x,y,z
-x,y,1/2-z
-x,-y,-z
x,-y,1/2+z
1/2+x,1/2+y,z
1/2-x,1/2+y,1/2-z
1/2-x,1/2-y,-z
1/2+x,1/2-y,1/2+z
loop_
_atom_site_type_symbol
_atom_site_label
_atom_site_fract_x
_atom_site_fract_y
_atom_site_fract_z
Si Si1 0.236469 0.175905 0.449908
Si Si2 0.596213 0.066608 0.091531
Si Si3 0.631684 0.896510 0.280869
Si Si4 0.866820 0.777021 0.729811
Si Si5 0.063663 0.942947 0.943698
Si Si6 0.785542 0.995605 0.699541
Si Si7 0.342847 0.602870 0.352500
Si Si8 0.852961 0.485085 0.574551
O O1 0.250000 0.250000 0.500000
O O2 0.360780 0.142811 0.442590
O O3 0.180573 0.189061 0.357305
O O4 0.155830 0.112671 0.486185
O O5 0.466094 0.057623 0.104097
O O6 0.673839 0.051302 0.173641
O O7 0.630685 0.007994 0.020984
O O8 0.500000 0.909661 0.250000
O O9 0.648258 0.809674 0.281429
O O10 0.727516 0.928760 0.222657
O O11 0.650301 0.942360 0.367156
O O12 0.812911 0.820746 0.806265
O O13 0.000000 0.789333 0.750000
O O14 0.963989 0.895240 0.899841
O O15 0.132406 0.988346 0.876144
O O16 0.000000 0.000000 0.000000
O O17 0.847286 0.957059 0.778484
O O18 0.251588 0.567793 0.411652
#
# Coordination Sequence:
#
# PCOD9264453 Si02
#       8
#     8   8   8   8   8   8   8   8
#     4  11  22  38  60  85 120 157 200 245 302 362
#     4  10  19  36  55  86 114 151 192 246 294 356
#     4  10  20  33  56  84 113 148 190 247 292 346
#     4  11  20  36  57  84 117 155 199 238 294 363
#     4  11  22  38  62  87 117 157 200 247 298 357
#     4  10  19  35  59  84 114 147 198 246 288 349
#     4  11  19  36  59  86 113 154 196 243 292 357
#     4  10  21  34  58  85 117 145 197 244 301 345
#
# _framework density 18.386075000000002
#
# number of rings (size 3 to 8) (size 9 to 14) (size 15 to 20)
#    0.000    1.500    5.000    2.625    0.000    1.000 
#    0.000    1.250    0.000    3.750    0.000    0.000 
#    0.000    0.000    0.000    0.000    0.000    0.000 
#
# Total GULP energy -178337.728685 kJ/mol
# GULP energy per Si atom -5573.054021 kJ/mol
# Density = 1.834423 g / cm^3
# Si number density = 18.386075 Si / 1000 Ang^3
#
#
#
# Elastic Constant Matrix: (Units=GPa)
#
#
# Indices 1 2 3 4 5 6 
#
# 1 92.0526 28.6596 18.2694 0.0000 -7.3001 0.0000
# 2 28.6596 93.8763 8.6746 0.0000 -8.6745 0.0000
# 3 18.2694 8.6746 30.1244 0.0000 -1.4933 0.0000
# 4 0.0000 0.0000 0.0000 25.2569 0.0000 0.9638
# 5 -7.3001 -8.6745 -1.4933 0.0000 30.0609 0.0000
# 6 0.0000 0.0000 0.0000 0.9638 0.0000 30.5535
#
#
#
# Elastic Compliance Matrix: (Units=1/GPa)
#
#
# Indices 1 2 3 4 5 6 
#
# 1 0.013449 -0.003266 -0.007118 0.000000 0.001970 0.000000
# 2 -0.003266 0.012015 -0.001350 0.000000 0.002607 0.000000
# 3 -0.007118 -0.001350 0.037890 0.000000 -0.000236 0.000000
# 4 0.000000 0.000000 0.000000 0.039641 0.000000 -0.001251
# 5 0.001970 0.002607 -0.000236 0.000000 0.034485 0.000000
# 6 0.000000 0.000000 0.000000 -0.001251 0.000000 0.032769
#
#
# Mechanical properties :
#
#
# Convention : Reuss Voigt Hill
#
# Bulk Modulus (GPa) = 25.07184 36.36230 30.71707
# Shear Modulus (GPa) = 24.15319 27.87092 26.01206
#
# Velocity S-wave (km/s) = 3.62839 3.89764 3.76542
# Velocity P-wave (km/s) = 5.58744 6.33052 5.97055
#
# Compressibility (1/GPa) = 0.03988538
#
# Stress axis : x y z
#
# Youngs Moduli (GPa) = 74.35387 83.22895 26.39245
#
# Poissons Ratio (x) = 0.27184 0.18787
# Poissons Ratio (y) = 0.24285 0.03562
# Poissons Ratio (z) = 0.52927 0.11234
#
# Static dielectric constant tensor:
#      x y z
#    x 1.637530 0.000000 0.008430 
#    y 0.000000 1.644740 0.000000 
#    z 0.008430 0.000000 1.674830 
# 
# From -- ./inp_files/146092.got.cif
#   From: 2010.05.17/outbox.cif.g08.bks.cpg/sg15_74_cif.got.tgz:146092.got - 2010.06.03 18:47:42.
