data_PCOD9264540
_publ_section_title
;
Structure prediction by ZEFSAII (Michael W. Deem and Ramdas Pophale) SiO2 
 PCOD9264540
Probable space group: C 2/C
;
_chemical_formula_sum "Si O2"
_cell_formula_units_Z 64
_cell_length_a 12.568265
_cell_length_b 23.043709
_cell_length_c 10.331423
_cell_angle_alpha 90.000000
_cell_angle_beta 102.703611
_cell_angle_gamma 90.000000
_cell_volume 2918.934421
_symmetry_space_group_name_H-M "C 2/C"
_symmetry_group_IT_number 15
_symmetry_cell_setting 'monoclinic'
loop_
_space_group_symop_operation_xyz
x,y,z
-x,y,1/2-z
-x,-y,-z
x,-y,1/2+z
1/2+x,1/2+y,z
1/2-x,1/2+y,1/2-z
1/2-x,1/2-y,-z
1/2+x,1/2-y,1/2+z
loop_
_atom_site_type_symbol
_atom_site_label
_atom_site_fract_x
_atom_site_fract_y
_atom_site_fract_z
Si Si1 0.877888 0.110537 0.070966
Si Si2 0.135909 0.227822 0.027605
Si Si3 0.159131 0.412342 0.359746
Si Si4 0.098999 0.760563 0.039882
Si Si5 0.320100 0.211350 0.704387
Si Si6 0.336674 0.046108 0.183279
Si Si7 0.615034 0.399980 0.619238
Si Si8 0.515621 0.932833 0.541808
O O1 0.895166 0.175193 0.021173
O O2 0.872587 0.114154 0.224386
O O3 0.991379 0.078930 0.066011
O O4 0.768633 0.086175 0.977525
O O5 0.120797 0.254132 0.167753
O O6 0.136789 0.158310 0.043288
O O7 0.021018 0.247344 0.933367
O O8 0.250000 0.250000 0.000000
O O9 0.177477 0.357708 0.271527
O O10 0.142689 0.476937 0.301412
O O11 0.054437 0.401242 0.423605
O O12 0.132184 0.720390 0.927254
O O13 0.198256 0.761779 0.166964
O O14 0.210707 0.055010 0.121099
O O15 0.385997 0.071829 0.328518
O O16 0.405123 0.078566 0.089408
O O17 0.500000 0.000000 0.500000
#
# Coordination Sequence:
#
# PCOD9264540 Si02
#       8
#     8   8   8   8   8   8   8   8
#     4   9  17  34  61  80 106 142 188 241 277 328
#     4  11  23  39  55  88 121 150 191 239 296 350
#     4  10  20  36  58  85 111 147 197 233 284 347
#     4   9  19  37  60  84 110 149 193 241 285 339
#     4  10  20  37  63  84 114 153 195 241 288 343
#     4  10  20  35  56  83 114 149 186 234 287 347
#     4  10  19  35  60  80 109 151 186 232 287 335
#     4   9  19  37  53  75 116 152 181 233 287 332
#
# _framework density 21.925809999999998
#
# number of rings (size 3 to 8) (size 9 to 14) (size 15 to 20)
#    0.000    2.250    2.500    0.375    0.000    2.000 
#   13.500    1.250    0.000    1.500    0.000    0.000 
#    0.000    0.000    0.000    0.000    0.000    0.000 
#
# Total GULP energy -178510.114807 kJ/mol
# GULP energy per Si atom -5578.441088 kJ/mol
# Density = 2.187591 g / cm^3
# Si number density = 21.925810 Si / 1000 Ang^3
#
#
#
# Elastic Constant Matrix: (Units=GPa)
#
#
# Indices 1 2 3 4 5 6 
#
# 1 137.2662 11.3018 4.6476 0.0000 10.1082 0.0000
# 2 11.3018 40.0916 -3.5863 0.0000 -3.6038 0.0000
# 3 4.6476 -3.5863 21.9368 0.0000 7.8017 0.0000
# 4 0.0000 0.0000 0.0000 8.7867 0.0000 4.3022
# 5 10.1082 -3.6038 7.8017 0.0000 27.6324 0.0000
# 6 0.0000 0.0000 0.0000 4.3022 0.0000 28.3882
#
#
#
# Elastic Compliance Matrix: (Units=1/GPa)
#
#
# Indices 1 2 3 4 5 6 
#
# 1 0.007740 -0.002532 -0.001033 0.000000 -0.002870 0.000000
# 2 -0.002532 0.026282 0.003651 0.000000 0.003323 0.000000
# 3 -0.001033 0.003651 0.051243 0.000000 -0.013614 0.000000
# 4 0.000000 0.000000 0.000000 0.122931 0.000000 -0.018630
# 5 -0.002870 0.003323 -0.013614 0.000000 0.041516 0.000000
# 6 0.000000 0.000000 0.000000 -0.018630 0.000000 0.038049
#
#
# Mechanical properties :
#
#
# Convention : Reuss Voigt Hill
#
# Bulk Modulus (GPa) = 11.70457 24.89120 18.29789
# Shear Modulus (GPa) = 15.81938 25.42356 20.62147
#
# Velocity S-wave (km/s) = 2.68898 3.40888 3.07010
# Velocity P-wave (km/s) = 3.87178 5.18373 4.57503
#
# Compressibility (1/GPa) = 0.08543669
#
# Stress axis : x y z
#
# Youngs Moduli (GPa) = 129.20016 38.04879 19.51491
#
# Poissons Ratio (x) = 0.09635 0.02016
# Poissons Ratio (y) = 0.32717 -0.07126
# Poissons Ratio (z) = 0.13348 -0.13893
#
# Static dielectric constant tensor:
#      x y z
#    x 1.894280 0.000000 0.033660 
#    y 0.000000 1.789050 0.000000 
#    z 0.033660 0.000000 1.825420 
# 
# From -- ./inp_files/90861.got.cif
#   From: 2010.05.17/outbox.cif.g08.bks.cpg/sg15_46_cif.got.tgz:90861.got - 2010.06.03 18:47:42.
