data_PCOD9264850
_publ_section_title
;
Structure prediction by ZEFSAII (Michael W. Deem and Ramdas Pophale) SiO2 
 PCOD9264850
Probable space group: C 2/C
;
_chemical_formula_sum "Si O2"
_cell_formula_units_Z 56
_cell_length_a 12.195815
_cell_length_b 14.919424
_cell_length_c 16.712875
_cell_angle_alpha 90.000000
_cell_angle_beta 125.557895
_cell_angle_gamma 90.000000
_cell_volume 2473.926136
_symmetry_space_group_name_H-M "C 2/C"
_symmetry_group_IT_number 15
_symmetry_cell_setting 'monoclinic'
loop_
_space_group_symop_operation_xyz
x,y,z
-x,y,1/2-z
-x,-y,-z
x,-y,1/2+z
1/2+x,1/2+y,z
1/2-x,1/2+y,1/2-z
1/2-x,1/2-y,-z
1/2+x,1/2-y,1/2+z
loop_
_atom_site_type_symbol
_atom_site_label
_atom_site_fract_x
_atom_site_fract_y
_atom_site_fract_z
Si Si1 0.559274 0.331641 0.466098
Si Si2 0.797312 0.551787 0.476917
Si Si3 0.872112 0.799427 0.251996
Si Si4 0.754478 0.661580 0.311263
Si Si5 0.821133 0.355766 0.467243
Si Si6 0.490102 0.382786 0.610932
Si Si7 0.885882 0.699660 0.638886
O O1 0.436688 0.352490 0.353961
O O2 0.702625 0.345357 0.483535
O O3 0.569629 0.223423 0.483200
O O4 0.538339 0.383346 0.539898
O O5 0.823417 0.595745 0.402009
O O6 0.865941 0.455888 0.503833
O O7 0.633131 0.551211 0.419850
O O8 0.843430 0.617537 0.566835
O O9 0.821790 0.703279 0.261902
O O10 0.754797 0.845803 0.150780
O O11 0.000000 0.785118 0.250000
O O12 0.616724 0.613491 0.224131
O O13 0.722505 0.750019 0.351467
O O14 0.435136 0.281577 0.603869
O O15 0.000000 0.672358 0.750000
#
# Coordination Sequence:
#
# PCOD9264850 Si02
#       7
#     8   8   8   8   8   8   8
#     4  10  20  39  62  78 119 173 195 240 310 381
#     4  11  21  37  61  97 123 154 201 268 310 349
#     4  10  20  37  64  82 112 168 205 238 302 379
#     4  10  19  36  62  90 122 159 206 250 305 374
#     4  10  23  39  58  91 125 153 208 257 300 367
#     4  10  19  35  65  90 119 159 211 243 308 375
#     4   9  19  35  59  89 123 162 201 249 305 376
#
# _framework density 22.636082999999999
#
# number of rings (size 3 to 8) (size 9 to 14) (size 15 to 20)
#    0.000    2.000    1.429    4.714    0.000    4.000 
#    0.000    7.857    0.000    0.000    0.000    0.000 
#    0.000    0.000    0.000    0.000    0.000    0.000 
#
# Total GULP energy -156415.532169 kJ/mol
# GULP energy per Si atom -5586.269006 kJ/mol
# Density = 2.258456 g / cm^3
# Si number density = 22.636083 Si / 1000 Ang^3
#
#
#
# Elastic Constant Matrix: (Units=GPa)
#
#
# Indices 1 2 3 4 5 6 
#
# 1 42.8927 -9.1040 22.7465 0.0000 -12.1924 0.0000
# 2 -9.1040 71.1510 23.5063 0.0000 0.2240 0.0000
# 3 22.7465 23.5063 89.8946 0.0000 -15.7249 0.0000
# 4 0.0000 0.0000 0.0000 90.4046 0.0000 -5.2920
# 5 -12.1924 0.2240 -15.7249 0.0000 29.2906 0.0000
# 6 0.0000 0.0000 0.0000 -5.2920 0.0000 19.6289
#
#
#
# Elastic Compliance Matrix: (Units=1/GPa)
#
#
# Indices 1 2 3 4 5 6 
#
# 1 0.031574 0.006733 -0.008233 0.000000 0.008671 0.000000
# 2 0.006733 0.016989 -0.006267 0.000000 -0.000692 0.000000
# 3 -0.008233 -0.006267 0.015732 0.000000 0.005067 0.000000
# 4 0.000000 0.000000 0.000000 0.011239 0.000000 0.003030
# 5 0.008671 -0.000692 0.005067 0.000000 0.040476 0.000000
# 6 0.000000 0.000000 0.000000 0.003030 0.000000 0.051762
#
#
# Mechanical properties :
#
#
# Convention : Reuss Voigt Hill
#
# Bulk Modulus (GPa) = 20.50841 30.91510 25.71176
# Shear Modulus (GPa) = 25.05516 38.98412 32.01964
#
# Velocity S-wave (km/s) = 3.33057 4.15446 3.76512
# Velocity P-wave (km/s) = 4.88569 6.05803 5.50317
#
# Compressibility (1/GPa) = 0.04876048
#
# Stress axis : x y z
#
# Youngs Moduli (GPa) = 31.67174 58.86272 63.56293
#
# Poissons Ratio (x) = -0.39630 0.52331
# Poissons Ratio (y) = -0.21323 0.39835
# Poissons Ratio (z) = 0.26075 0.36889
#
# Static dielectric constant tensor:
#      x y z
#    x 1.915160 0.000000 0.016410 
#    y 0.000000 1.850640 0.000000 
#    z 0.016410 0.000000 1.872440 
# 
# From -- ./inp_files/178441.got.cif
#   From: 2010.05.17/outbox.cif.g08.bks.cpg/sg15_90_cif.got.tgz:178441.got - 2010.06.03 18:47:42.
