data_PCOD9264866
_publ_section_title
;
Structure prediction by ZEFSAII (Michael W. Deem and Ramdas Pophale) SiO2 
 PCOD9264866
Probable space group: C 2/C
;
_chemical_formula_sum "Si O2"
_cell_formula_units_Z 60
_cell_length_a 12.058668
_cell_length_b 15.169590
_cell_length_c 17.343332
_cell_angle_alpha 90.000000
_cell_angle_beta 64.723217
_cell_angle_gamma 90.000000
_cell_volume 2868.778044
_symmetry_space_group_name_H-M "C 2/C"
_symmetry_group_IT_number 15
_symmetry_cell_setting 'monoclinic'
loop_
_space_group_symop_operation_xyz
x,y,z
-x,y,1/2-z
-x,-y,-z
x,-y,1/2+z
1/2+x,1/2+y,z
1/2-x,1/2+y,1/2-z
1/2-x,1/2-y,-z
1/2+x,1/2-y,1/2+z
loop_
_atom_site_type_symbol
_atom_site_label
_atom_site_fract_x
_atom_site_fract_y
_atom_site_fract_z
Si Si1 0.524532 0.964960 0.650746
Si Si2 0.925793 0.349768 0.192160
Si Si3 0.657292 0.354718 0.340867
Si Si4 0.682271 0.156957 0.352553
Si Si5 0.000000 0.095286 0.750000
Si Si6 0.370307 0.544246 0.378403
Si Si7 0.395985 0.340272 0.658131
Si Si8 0.685070 0.475384 0.940253
O O1 0.500000 0.959642 0.750000
O O2 0.478436 0.061933 0.639629
O O3 0.669186 0.962236 0.596155
O O4 0.442667 0.890683 0.634986
O O5 0.786131 0.365467 0.258285
O O6 0.929782 0.261957 0.140631
O O7 0.000000 0.332441 0.250000
O O8 0.662869 0.259163 0.378955
O O9 0.549817 0.353229 0.309017
O O10 0.652419 0.438734 0.398143
O O11 0.750219 0.101479 0.398233
O O12 0.779732 0.153891 0.251344
O O13 0.109413 0.030480 0.691524
O O14 0.487358 0.608532 0.342391
O O15 0.366720 0.495257 0.460703
O O16 0.365191 0.389977 0.588545
#
# Coordination Sequence:
#
# PCOD9264866 Si02
#       8
#     8   8   8   8   4   8   8   8
#     4  11  21  41  65  90 125 168 209 254 314 380
#     4  10  19  35  66  93 120 160 218 254 304 375
#     4  11  23  39  64  99 124 162 216 260 315 380
#     4  11  23  41  68  91 126 171 213 258 317 385
#     4  12  24  42  66  90 126 170 212 264 320 386
#     4  12  24  40  67  93 131 166 214 265 319 373
#     4  11  20  38  64  96 121 163 211 262 315 373
#     4  12  24  41  64  96 132 166 211 265 317 373
#
# _framework density 20.914828
#
# number of rings (size 3 to 8) (size 9 to 14) (size 15 to 20)
#    0.000    0.800    6.667    2.800    0.933    1.067 
#    0.000    0.000    2.933    8.000    0.000    0.000 
#    0.000    0.000    0.000    0.000    0.000    0.000 
#
# Total GULP energy -167777.763967 kJ/mol
# GULP energy per Si atom -5592.592132 kJ/mol
# Density = 2.086722 g / cm^3
# Si number density = 20.914828 Si / 1000 Ang^3
#
#
#
# Elastic Constant Matrix: (Units=GPa)
#
#
# Indices 1 2 3 4 5 6 
#
# 1 106.5853 39.8689 2.6613 0.0000 -9.7825 0.0000
# 2 39.8689 85.3835 0.9776 0.0000 2.1711 0.0000
# 3 2.6613 0.9776 29.0598 0.0000 -0.5803 0.0000
# 4 0.0000 0.0000 0.0000 10.3895 0.0000 3.2046
# 5 -9.7825 2.1711 -0.5803 0.0000 25.3377 0.0000
# 6 0.0000 0.0000 0.0000 3.2046 0.0000 17.1729
#
#
#
# Elastic Compliance Matrix: (Units=1/GPa)
#
#
# Indices 1 2 3 4 5 6 
#
# 1 0.012015 -0.005731 -0.000805 0.000000 0.005112 0.000000
# 2 -0.005731 0.014476 -0.000031 0.000000 -0.003454 0.000000
# 3 -0.000805 -0.000031 0.034496 0.000000 0.000482 0.000000
# 4 0.000000 0.000000 0.000000 0.102129 0.000000 -0.019058
# 5 0.005112 -0.003454 0.000482 0.000000 0.041747 0.000000
# 6 0.000000 0.000000 0.000000 -0.019058 0.000000 0.061788
#
#
# Mechanical properties :
#
#
# Convention : Reuss Voigt Hill
#
# Bulk Modulus (GPa) = 20.89773 34.22715 27.56244
# Shear Modulus (GPa) = 16.90684 22.41473 19.66079
#
# Velocity S-wave (km/s) = 2.84626 3.27726 3.06933
# Velocity P-wave (km/s) = 4.56236 5.54266 5.07623
#
# Compressibility (1/GPa) = 0.04785210
#
# Stress axis : x y z
#
# Youngs Moduli (GPa) = 83.22815 69.07921 28.98869
#
# Poissons Ratio (x) = 0.39590 0.02335
# Poissons Ratio (y) = 0.47699 0.00090
# Poissons Ratio (z) = 0.06704 0.00215
#
# Static dielectric constant tensor:
#      x y z
#    x 1.763260 0.000000 0.007580 
#    y 0.000000 1.749720 0.000000 
#    z 0.007580 0.000000 1.744320 
# 
# From -- ./inp_files/238709.got.cif
#   From: 2010.05.17/outbox.cif.g08.bks.cpg/sg15_120_cif.got.tgz:238709.got - 2010.06.03 18:47:42.
