data_PCOD9264889
_publ_section_title
;
Structure prediction by ZEFSAII (Michael W. Deem and Ramdas Pophale) SiO2 
 PCOD9264889
Probable space group: C 2/C
;
_chemical_formula_sum "Si O2"
_cell_formula_units_Z 44
_cell_length_a 6.050521
_cell_length_b 28.194356
_cell_length_c 10.451426
_cell_angle_alpha 90.000000
_cell_angle_beta 80.580333
_cell_angle_gamma 90.000000
_cell_volume 1758.873692
_symmetry_space_group_name_H-M "C 2/C"
_symmetry_group_IT_number 15
_symmetry_cell_setting 'monoclinic'
loop_
_space_group_symop_operation_xyz
x,y,z
-x,y,1/2-z
-x,-y,-z
x,-y,1/2+z
1/2+x,1/2+y,z
1/2-x,1/2+y,1/2-z
1/2-x,1/2-y,-z
1/2+x,1/2-y,1/2+z
loop_
_atom_site_type_symbol
_atom_site_label
_atom_site_fract_x
_atom_site_fract_y
_atom_site_fract_z
Si Si1 0.443093 0.189373 0.406925
Si Si2 0.500000 0.040529 0.750000
Si Si3 0.549116 0.915923 0.892672
Si Si4 0.024806 0.208172 0.904073
Si Si5 0.677329 0.469449 0.066707
Si Si6 0.333054 0.395127 0.060374
O O1 0.500000 0.185742 0.250000
O O2 0.480743 0.136212 0.451359
O O3 0.195614 0.200197 0.485741
O O4 0.583280 0.236750 0.427768
O O5 0.704810 0.015487 0.809859
O O6 0.369990 0.076108 0.856674
O O7 0.500000 0.915465 0.750000
O O8 0.389223 0.957070 0.959101
O O9 0.806073 0.913473 0.915823
O O10 0.000000 0.207110 0.750000
O O11 0.166467 0.161011 0.920133
O O12 0.553960 0.418981 0.097972
O O13 0.500000 0.500000 0.000000
#
# Coordination Sequence:
#
# PCOD9264889 Si02
#       6
#     8   4   8   8   8   8
#     4   9  19  38  62 100 144 186 236 291 353 439
#     4  10  24  44  72 102 136 180 230 306 354 434
#     4  10  23  44  67  96 142 186 234 286 359 438
#     4  10  19  35  69  99 139 188 236 291 362 422
#     4  11  24  47  71 102 136 181 236 294 367 427
#     4  11  23  42  68 101 136 180 235 297 358 419
#
# _framework density 25.016010000000001
#
# number of rings (size 3 to 8) (size 9 to 14) (size 15 to 20)
#    0.000    1.818    1.818    1.636    2.545    4.364 
#    9.818    0.000    0.000    0.000    0.000    0.000 
#    0.000    0.000    0.000    0.000    0.000    0.000 
#
# Total GULP energy -122479.194175 kJ/mol
# GULP energy per Si atom -5567.236099 kJ/mol
# Density = 2.495907 g / cm^3
# Si number density = 25.016010 Si / 1000 Ang^3
#
#
#
# Elastic Constant Matrix: (Units=GPa)
#
#
# Indices 1 2 3 4 5 6 
#
# 1 92.1958 58.8526 47.7012 0.0000 32.6012 0.0000
# 2 58.8526 173.0785 31.6939 0.0000 24.6182 0.0000
# 3 47.7012 31.6939 109.4610 0.0000 15.1454 0.0000
# 4 0.0000 0.0000 0.0000 44.7599 0.0000 0.2562
# 5 32.6012 24.6182 15.1454 0.0000 46.4791 0.0000
# 6 0.0000 0.0000 0.0000 0.2562 0.0000 37.9386
#
#
#
# Elastic Compliance Matrix: (Units=1/GPa)
#
#
# Indices 1 2 3 4 5 6 
#
# 1 0.020385 -0.004374 -0.006241 0.000000 -0.009948 0.000000
# 2 -0.004374 0.007403 -0.000125 0.000000 -0.000813 0.000000
# 3 -0.006241 -0.000125 0.011809 0.000000 0.000595 0.000000
# 4 0.000000 0.000000 0.000000 0.022342 0.000000 -0.000151
# 5 -0.009948 -0.000813 0.000595 0.000000 0.028729 0.000000
# 6 0.000000 0.000000 0.000000 -0.000151 0.000000 0.026359
#
#
# Mechanical properties :
#
#
# Convention : Reuss Voigt Hill
#
# Bulk Modulus (GPa) = 55.19228 72.35899 63.77563
# Shear Modulus (GPa) = 34.59078 41.60136 38.09607
#
# Velocity S-wave (km/s) = 3.72256 4.08240 3.90663
# Velocity P-wave (km/s) = 6.37082 7.15606 6.77482
#
# Compressibility (1/GPa) = 0.01811848
#
# Stress axis : x y z
#
# Youngs Moduli (GPa) = 49.05551 135.07133 84.68087
#
# Poissons Ratio (x) = 0.59078 0.52846
# Poissons Ratio (y) = 0.21456 0.01060
# Poissons Ratio (z) = 0.30613 0.01690
#
# Static dielectric constant tensor:
#      x y z
#    x 2.088810 0.000000 0.113830 
#    y 0.000000 2.037560 0.000000 
#    z 0.113830 0.000000 2.217720 
# 
# From -- ./inp_files/73838.got.cif
#   From: 2010.05.17/outbox.cif.g08.bks.cpg/sg15_37_cif.got.tgz:73838.got - 2010.06.03 18:47:42.
