data_PCOD9264678
_publ_section_title
;
Structure prediction by ZEFSAII (Michael W. Deem and Ramdas Pophale) SiO2 
 PCOD9264678
Probable space group: C 2/C
;
_chemical_formula_sum "Si O2"
_cell_formula_units_Z 40
_cell_length_a 17.335092
_cell_length_b 12.401828
_cell_length_c 15.977884
_cell_angle_alpha 90.000000
_cell_angle_beta 147.678033
_cell_angle_gamma 90.000000
_cell_volume 1836.631878
_symmetry_space_group_name_H-M "C 2/C"
_symmetry_group_IT_number 15
_symmetry_cell_setting 'monoclinic'
loop_
_space_group_symop_operation_xyz
x,y,z
-x,y,1/2-z
-x,-y,-z
x,-y,1/2+z
1/2+x,1/2+y,z
1/2-x,1/2+y,1/2-z
1/2-x,1/2-y,-z
1/2+x,1/2-y,1/2+z
loop_
_atom_site_type_symbol
_atom_site_label
_atom_site_fract_x
_atom_site_fract_y
_atom_site_fract_z
Si Si1 0.134733 0.776288 0.065963
Si Si2 0.638186 0.963149 0.521544
Si Si3 0.859899 0.662697 0.064640
Si Si4 0.347904 0.296922 0.895196
Si Si5 0.296755 0.010987 0.725682
O O1 0.151656 0.666456 0.028442
O O2 0.205316 0.746930 0.220089
O O3 0.223403 0.881680 0.122793
O O4 0.969392 0.804990 0.934757
O O5 0.466063 0.987051 0.360517
O O6 0.701571 0.043112 0.509910
O O7 0.700809 0.998938 0.669910
O O8 0.000000 0.656930 0.250000
O O9 0.750000 0.750000 0.000000
O O10 0.899837 0.712132 0.010899
O O11 0.299388 0.409694 0.890309
#
# Coordination Sequence:
#
# PCOD9264678 Si02
#       5
#     8   8   8   8   8
#     4  11  19  36  61  93 123 151 193 262 318 357
#     4  10  20  37  57  88 126 155 197 246 316 353
#     4  12  24  40  60  83 122 168 207 239 285 368
#     4  11  21  35  59  92 123 153 202 251 314 360
#     4  10  19  35  61  91 125 150 190 265 320 357
#
# _framework density 21.778995999999999
#
# number of rings (size 3 to 8) (size 9 to 14) (size 15 to 20)
#    0.000    1.200    4.000    5.400    0.000    0.000 
#    0.000    0.000    0.000    6.000    0.000    0.000 
#    0.000    0.000    0.000    0.000    0.000    0.000 
#
# Total GULP energy -111644.779413 kJ/mol
# GULP energy per Si atom -5582.238971 kJ/mol
# Density = 2.172943 g / cm^3
# Si number density = 21.778996 Si / 1000 Ang^3
#
#
#
# Elastic Constant Matrix: (Units=GPa)
#
#
# Indices 1 2 3 4 5 6 
#
# 1 10.1009 9.4974 5.8219 0.0000 5.5834 0.0000
# 2 9.4974 198.4030 35.3590 0.0000 -1.7939 0.0000
# 3 5.8219 35.3590 73.8501 0.0000 2.3165 0.0000
# 4 0.0000 0.0000 0.0000 41.9867 0.0000 -6.4094
# 5 5.5834 -1.7939 2.3165 0.0000 21.5974 0.0000
# 6 0.0000 0.0000 0.0000 -6.4094 0.0000 39.1199
#
#
#
# Elastic Compliance Matrix: (Units=1/GPa)
#
#
# Indices 1 2 3 4 5 6 
#
# 1 0.125293 -0.005147 -0.006405 0.000000 -0.032131 0.000000
# 2 -0.005147 0.005734 -0.002404 0.000000 0.002065 0.000000
# 3 -0.006405 -0.002404 0.015203 0.000000 -0.000174 0.000000
# 4 0.000000 0.000000 0.000000 0.024428 0.000000 0.004002
# 5 -0.032131 0.002065 -0.000174 0.000000 0.054799 0.000000
# 6 0.000000 0.000000 0.000000 0.004002 0.000000 0.026218
#
#
# Mechanical properties :
#
#
# Convention : Reuss Voigt Hill
#
# Bulk Modulus (GPa) = 8.45189 42.63450 25.54319
# Shear Modulus (GPa) = 15.67272 35.98585 25.82928
#
# Velocity S-wave (km/s) = 2.68549 4.06928 3.44753
# Velocity P-wave (km/s) = 3.67492 6.45734 5.25368
#
# Compressibility (1/GPa) = 0.11831677
#
# Stress axis : x y z
#
# Youngs Moduli (GPa) = 7.98129 174.40521 65.77845
#
# Poissons Ratio (x) = 0.89760 0.42133
# Poissons Ratio (y) = 0.04108 0.15815
# Poissons Ratio (z) = 0.05112 0.41933
#
# Static dielectric constant tensor:
#      x y z
#    x 1.861600 0.000000 -0.007270 
#    y 0.000000 1.893370 0.000000 
#    z -0.007270 0.000000 1.752730 
# 
# From -- ./inp_files/54234.got.cif
#   From: 2010.05.17/outbox.cif.g08.bks.cpg/sg15_28_cif.got.tgz:54234.got - 2010.06.03 18:47:42.
