data_PCOD9264942
_publ_section_title
;
Structure prediction by ZEFSAII (Michael W. Deem and Ramdas Pophale) SiO2 
 PCOD9264942
Probable space group: C 2/C
;
_chemical_formula_sum "Si O2"
_cell_formula_units_Z 52
_cell_length_a 29.041926
_cell_length_b 17.966126
_cell_length_c 14.938303
_cell_angle_alpha 90.000000
_cell_angle_beta 19.975022
_cell_angle_gamma 90.000000
_cell_volume 2662.638894
_symmetry_space_group_name_H-M "C 2/C"
_symmetry_group_IT_number 15
_symmetry_cell_setting 'monoclinic'
loop_
_space_group_symop_operation_xyz
x,y,z
-x,y,1/2-z
-x,-y,-z
x,-y,1/2+z
1/2+x,1/2+y,z
1/2-x,1/2+y,1/2-z
1/2-x,1/2-y,-z
1/2+x,1/2-y,1/2+z
loop_
_atom_site_type_symbol
_atom_site_label
_atom_site_fract_x
_atom_site_fract_y
_atom_site_fract_z
Si Si1 0.384740 0.331603 0.797611
Si Si2 0.959277 0.944597 0.423798
Si Si3 0.500000 0.235689 0.750000
Si Si4 0.117422 0.930460 0.312167
Si Si5 0.390095 0.801532 0.146708
Si Si6 0.677538 0.201365 0.058255
Si Si7 0.293326 0.702215 0.167928
O O1 0.445761 0.288956 0.770991
O O2 0.474926 0.400993 0.610195
O O3 0.400977 0.270624 0.690115
O O4 0.227306 0.351085 0.095867
O O5 0.878760 0.868996 0.544364
O O6 0.000000 0.975520 0.250000
O O7 0.086675 0.933501 0.260524
O O8 0.863707 0.996144 0.661489
O O9 0.630944 0.191021 0.473579
O O10 0.226984 0.868398 0.136250
O O11 0.327397 0.769775 0.171292
O O12 0.537150 0.829091 0.853754
O O13 0.750000 0.250000 0.000000
O O14 0.662461 0.261989 0.006847
#
# Coordination Sequence:
#
# PCOD9264942 Si02
#       7
#     8   8   4   8   8   8   8
#     4  10  19  36  54  91 117 153 195 247 306 354
#     4  11  24  40  62  84 125 168 204 248 307 375
#     4  10  20  32  62  86 116 156 200 258 306 354
#     4  11  23  40  62  91 122 163 210 248 304 375
#     4  10  20  32  58  88 121 147 193 258 303 343
#     4  12  20  35  62  95 119 150 205 261 296 356
#     4  11  20  36  59  88 117 160 204 249 305 362
#
# _framework density 19.529498
#
# number of rings (size 3 to 8) (size 9 to 14) (size 15 to 20)
#    0.000    1.231    4.615    2.308    1.077    0.000 
#    0.000    0.000    6.769    1.846    0.000    0.000 
#    0.000    0.000    0.000    0.000    0.000    0.000 
#
# Total GULP energy -144797.271203 kJ/mol
# GULP energy per Si atom -5569.125816 kJ/mol
# Density = 1.948505 g / cm^3
# Si number density = 19.529498 Si / 1000 Ang^3
#
#
#
# Elastic Constant Matrix: (Units=GPa)
#
#
# Indices 1 2 3 4 5 6 
#
# 1 108.8358 19.1871 17.6197 -0.0002 18.6017 0.0002
# 2 19.1871 60.4813 34.9406 -0.0004 -0.9281 0.0002
# 3 17.6197 34.9406 131.5494 -0.0005 -9.2148 0.0002
# 4 -0.0002 -0.0004 -0.0005 31.1539 0.0001 -4.0806
# 5 18.6017 -0.9281 -9.2148 0.0001 27.9315 -0.0002
# 6 0.0002 0.0002 0.0002 -4.0806 -0.0002 28.9594
#
#
#
# Elastic Compliance Matrix: (Units=1/GPa)
#
#
# Indices 1 2 3 4 5 6 
#
# 1 0.011294 -0.002961 -0.001290 0.000000 -0.008045 0.000000
# 2 -0.002961 0.020340 -0.004934 0.000000 0.001020 0.000000
# 3 -0.001290 -0.004934 0.009350 0.000000 0.003780 0.000000
# 4 0.000000 0.000000 0.000000 0.032702 0.000000 0.004608
# 5 -0.008045 0.001020 0.003780 0.000000 0.042441 0.000000
# 6 0.000000 0.000000 0.000000 0.004608 0.000000 0.035180
#
#
# Mechanical properties :
#
#
# Convention : Reuss Voigt Hill
#
# Bulk Modulus (GPa) = 44.22253 49.37348 46.79800
# Shear Modulus (GPa) = 28.21428 32.88358 30.54893
#
# Velocity S-wave (km/s) = 3.80505 4.10785 3.95935
# Velocity P-wave (km/s) = 6.48056 6.91633 6.70199
#
# Compressibility (1/GPa) = 0.02261291
#
# Stress axis : x y z
#
# Youngs Moduli (GPa) = 88.54178 49.16491 106.95409
#
# Poissons Ratio (x) = 0.14559 0.13795
# Poissons Ratio (y) = 0.26220 0.52774
# Poissons Ratio (z) = 0.11420 0.24259
#
# Static dielectric constant tensor:
#      x y z
#    x 1.463660 0.000000 -0.106900 
#    y 0.000000 1.948520 0.000000 
#    z -0.106900 0.000000 1.749130 
# 
# From -- ./inp_files/182839.got.cif
#   From: 2010.05.17/outbox.cif.g08.bks.cpg/sg15_92_cif.got.tgz:182839.got - 2010.06.03 18:47:42.
