data_PCOD9264581
_publ_section_title
;
Structure prediction by ZEFSAII (Michael W. Deem and Ramdas Pophale) SiO2 
 PCOD9264581
Probable space group: C 2/C
;
_chemical_formula_sum "Si O2"
_cell_formula_units_Z 56
_cell_length_a 13.835405
_cell_length_b 26.761548
_cell_length_c 16.618188
_cell_angle_alpha 90.000000
_cell_angle_beta 153.893562
_cell_angle_gamma 90.000000
_cell_volume 2707.565702
_symmetry_space_group_name_H-M "C 2/C"
_symmetry_group_IT_number 15
_symmetry_cell_setting 'monoclinic'
loop_
_space_group_symop_operation_xyz
x,y,z
-x,y,1/2-z
-x,-y,-z
x,-y,1/2+z
1/2+x,1/2+y,z
1/2-x,1/2+y,1/2-z
1/2-x,1/2-y,-z
1/2+x,1/2-y,1/2+z
loop_
_atom_site_type_symbol
_atom_site_label
_atom_site_fract_x
_atom_site_fract_y
_atom_site_fract_z
Si Si1 0.554121 0.359459 0.628079
Si Si2 0.807947 0.565459 0.415907
Si Si3 0.468989 0.746642 0.146069
Si Si4 0.177200 0.385232 0.823610
Si Si5 0.907264 0.540648 0.029559
Si Si6 0.861730 0.350152 0.293412
Si Si7 0.592758 0.372074 0.242711
O O1 0.599887 0.404735 0.724447
O O2 0.537090 0.306742 0.660798
O O3 0.748115 0.359974 0.705013
O O4 0.330069 0.366191 0.411130
O O5 0.803387 0.514050 0.462102
O O6 0.943083 0.547319 0.438178
O O7 0.951844 0.607800 0.566618
O O8 0.547684 0.797027 0.163811
O O9 0.686072 0.749447 0.388315
O O10 0.000000 0.358866 0.750000
O O11 0.066663 0.437769 0.717029
O O12 0.395504 0.390080 0.038807
O O13 0.717955 0.581153 0.874659
O O14 0.760390 0.346086 0.307153
O O15 0.500000 0.342117 0.250000
#
# Coordination Sequence:
#
# PCOD9264581 Si02
#       7
#     8   8   8   8   8   8   8
#     4  10  22  39  61  90 116 156 203 247 301 362
#     4   9  19  36  59  84 118 154 197 247 289 349
#     4  12  23  42  66  82 114 155 203 254 311 359
#     4  10  19  35  61  88 124 160 195 238 295 362
#     4   9  18  34  56  86 119 159 196 234 293 349
#     4  10  22  39  60  89 117 155 200 251 303 357
#     4  10  19  35  60  87 123 159 197 237 296 366
#
# _framework density 20.682784999999999
#
# number of rings (size 3 to 8) (size 9 to 14) (size 15 to 20)
#    0.000    2.000    2.857    0.857    0.000    1.143 
#    0.000    9.286    0.000    3.429    0.000    0.000 
#    0.000    0.000    0.000    0.000    0.000    0.000 
#
# Total GULP energy -155956.328608 kJ/mol
# GULP energy per Si atom -5569.868879 kJ/mol
# Density = 2.063571 g / cm^3
# Si number density = 20.682785 Si / 1000 Ang^3
#
#
#
# Elastic Constant Matrix: (Units=GPa)
#
#
# Indices 1 2 3 4 5 6 
#
# 1 79.0904 54.0131 17.8851 0.0112 -7.6214 0.0034
# 2 54.0131 124.6665 28.2400 0.0318 -4.1236 0.0103
# 3 17.8851 28.2400 74.1337 0.0404 -0.9894 0.0127
# 4 0.0112 0.0318 0.0404-1910.4765 0.0133 -633.7238
# 5 -7.6214 -4.1236 -0.9894 0.0133 28.5030 0.0041
# 6 0.0034 0.0103 0.0127 -633.7238 0.0041 -186.1589
#
#
#
# Elastic Compliance Matrix: (Units=1/GPa)
#
#
# Indices 1 2 3 4 5 6 
#
# 1 0.018512 -0.007546 -0.001541 0.000000 0.003805 0.000000
# 2 -0.007546 0.011893 -0.002715 0.000000 -0.000391 0.000000
# 3 -0.001541 -0.002715 0.014891 0.000000 -0.000288 0.000000
# 4 0.000000 0.000000 0.000000 0.004051 0.000000 -0.013791
# 5 0.003805 -0.000391 -0.000288 0.000000 0.036035 0.000000
# 6 0.000000 0.000000 0.000000 -0.013791 0.000000 0.041574
#
#
# Mechanical properties :
#
#
# Convention : Reuss Voigt Hill
#
# Bulk Modulus (GPa) = 46.09856 53.12967 49.61411
# Shear Modulus (GPa) = 31.68767 -401.77633 -185.04433
#
# Velocity S-wave (km/s) = 3.91843 -13.95271 -9.46900
# Velocity P-wave (km/s) = 6.54285 15.29141 9.77288
#
# Compressibility (1/GPa) = 0.02169265
#
# Stress axis : x y z
#
# Youngs Moduli (GPa) = 54.01913 84.08508 67.15307
#
# Poissons Ratio (x) = 0.63447 0.10348
# Poissons Ratio (y) = 0.40761 0.18233
# Poissons Ratio (z) = 0.08324 0.22830
#
# Static dielectric constant tensor:
#      x y z
#    x 1.668920 0.000000 0.822430 
#    y 0.000000 1.668260 0.000000 
#    z 0.822430 0.000000 -2.520000 
# 
# From -- ./inp_files/250404.got.cif
#   From: 2010.05.17/outbox.cif.g08.bks.cpg/sg15_126_cif.got.tgz:250404.got - 2010.06.03 18:47:42.
