data_PCOD9264162
_publ_section_title
;
Structure prediction by ZEFSAII (Michael W. Deem and Ramdas Pophale) SiO2 
 PCOD9264162
Probable space group: C 2/C
;
_chemical_formula_sum "Si O2"
_cell_formula_units_Z 64
_cell_length_a 14.825828
_cell_length_b 8.266552
_cell_length_c 24.267376
_cell_angle_alpha 90.000000
_cell_angle_beta 108.556094
_cell_angle_gamma 90.000000
_cell_volume 2819.553022
_symmetry_space_group_name_H-M "C 2/C"
_symmetry_group_IT_number 15
_symmetry_cell_setting 'monoclinic'
loop_
_space_group_symop_operation_xyz
x,y,z
-x,y,1/2-z
-x,-y,-z
x,-y,1/2+z
1/2+x,1/2+y,z
1/2-x,1/2+y,1/2-z
1/2-x,1/2-y,-z
1/2+x,1/2-y,1/2+z
loop_
_atom_site_type_symbol
_atom_site_label
_atom_site_fract_x
_atom_site_fract_y
_atom_site_fract_z
Si Si1 0.312764 0.651996 0.968827
Si Si2 0.689482 0.751278 0.112855
Si Si3 0.485545 0.850977 0.038526
Si Si4 0.324614 0.301042 0.643902
Si Si5 0.657165 0.416908 0.435817
Si Si6 0.850742 0.467602 0.686993
Si Si7 0.473234 0.873246 0.617236
Si Si8 0.321654 0.962511 0.810455
O O1 0.416150 0.726772 0.995822
O O2 0.316486 0.475092 0.997376
O O3 0.250000 0.750000 0.000000
O O4 0.262486 0.710782 0.904131
O O5 0.580842 0.754801 0.072358
O O6 0.750724 0.848832 0.078751
O O7 0.752065 0.595276 0.139708
O O8 0.683504 0.855249 0.168013
O O9 0.444625 0.954689 0.082794
O O10 0.500000 0.000000 0.000000
O O11 0.369746 0.427443 0.608652
O O12 0.276183 0.390284 0.685802
O O13 0.381286 0.151470 0.679814
O O14 0.576760 0.279125 0.421547
O O15 0.930664 0.365522 0.670670
O O16 0.837802 0.447749 0.749082
O O17 0.586851 0.880242 0.642262
#
# Coordination Sequence:
#
# PCOD9264162 Si02
#       8
#     8   8   8   8   8   8   8   8
#     4  10  19  35  56  81 115 149 180 227 281 335
#     4   9  21  37  55  82 112 147 193 232 279 345
#     4  11  21  37  58  82 113 148 185 231 281 336
#     4  10  21  37  57  84 114 150 190 231 286 348
#     4   9  19  37  57  82 118 150 184 234 284 341
#     4  11  21  37  60  82 110 152 192 237 287 338
#     4  10  21  36  59  86 112 148 194 235 283 344
#     4  10  20  38  58  81 112 146 189 243 288 333
#
# _framework density 22.698633999999998
#
# number of rings (size 3 to 8) (size 9 to 14) (size 15 to 20)
#    0.000    2.000    0.000    5.625    0.000    2.000 
#    0.000    8.125    0.000   10.500    0.000    0.000 
#    0.000    0.000    0.000    0.000    0.000    0.000 
#
# Total GULP energy -178533.348491 kJ/mol
# GULP energy per Si atom -5579.167140 kJ/mol
# Density = 2.264697 g / cm^3
# Si number density = 22.698634 Si / 1000 Ang^3
#
#
#
# Elastic Constant Matrix: (Units=GPa)
#
#
# Indices 1 2 3 4 5 6 
#
# 1 48.6928 12.1438 -2.5621 0.0000 -4.7809 0.0000
# 2 12.1438 73.3436 2.6693 0.0000 7.4934 0.0000
# 3 -2.5621 2.6693 51.3464 0.0000 -22.2286 0.0000
# 4 0.0000 0.0000 0.0000 22.0687 0.0000 1.1173
# 5 -4.7809 7.4934 -22.2286 0.0000 39.6518 0.0000
# 6 0.0000 0.0000 0.0000 1.1173 0.0000 30.1581
#
#
#
# Elastic Compliance Matrix: (Units=1/GPa)
#
#
# Indices 1 2 3 4 5 6 
#
# 1 0.022397 -0.004426 0.003801 0.000000 0.005668 0.000000
# 2 -0.004426 0.015016 -0.003250 0.000000 -0.005193 0.000000
# 3 0.003801 -0.003250 0.026803 0.000000 0.016098 0.000000
# 4 0.000000 0.000000 0.000000 0.045398 0.000000 -0.001682
# 5 0.005668 -0.005193 0.016098 0.000000 0.035909 0.000000
# 6 0.000000 0.000000 0.000000 -0.001682 0.000000 0.033221
#
#
# Mechanical properties :
#
#
# Convention : Reuss Voigt Hill
#
# Bulk Modulus (GPa) = 17.70899 21.98721 19.84810
# Shear Modulus (GPa) = 24.35271 29.11782 26.73527
#
# Velocity S-wave (km/s) = 3.27902 3.58551 3.43568
# Velocity P-wave (km/s) = 4.70688 5.18158 4.94992
#
# Compressibility (1/GPa) = 0.05646849
#
# Stress axis : x y z
#
# Youngs Moduli (GPa) = 44.64840 66.59517 37.30872
#
# Poissons Ratio (x) = 0.29474 -0.14182
# Poissons Ratio (y) = 0.19761 0.12124
# Poissons Ratio (z) = -0.16973 0.21641
#
# Static dielectric constant tensor:
#      x y z
#    x 1.966380 0.000000 0.021440 
#    y 0.000000 -19.562870 0.000000 
#    z 0.021440 0.000000 1.896280 
# 
# From -- ./inp_files/295206.got.cif
#   From: 2010.05.17/outbox.cif.g08.bks.cpg/sg15_148_cif.got.tgz:295206.got - 2010.06.03 18:47:42.
