data_PCOD9264375
_publ_section_title
;
Structure prediction by ZEFSAII (Michael W. Deem and Ramdas Pophale) SiO2 
 PCOD9264375
Probable space group: C 2/C
;
_chemical_formula_sum "Si O2"
_cell_formula_units_Z 52
_cell_length_a 9.490865
_cell_length_b 12.186199
_cell_length_c 18.587073
_cell_angle_alpha 90.000000
_cell_angle_beta 110.983793
_cell_angle_gamma 90.000000
_cell_volume 2007.168999
_symmetry_space_group_name_H-M "C 2/C"
_symmetry_group_IT_number 15
_symmetry_cell_setting 'monoclinic'
loop_
_space_group_symop_operation_xyz
x,y,z
-x,y,1/2-z
-x,-y,-z
x,-y,1/2+z
1/2+x,1/2+y,z
1/2-x,1/2+y,1/2-z
1/2-x,1/2-y,-z
1/2+x,1/2-y,1/2+z
loop_
_atom_site_type_symbol
_atom_site_label
_atom_site_fract_x
_atom_site_fract_y
_atom_site_fract_z
Si Si1 0.678410 0.167061 0.722202
Si Si2 0.880353 0.895122 0.789494
Si Si3 0.235924 0.690721 0.897802
Si Si4 0.067622 0.566003 0.154862
Si Si5 0.006056 0.056482 0.924094
Si Si6 0.000000 0.737870 0.250000
Si Si7 0.793025 0.573354 0.463950
O O1 0.603366 0.274815 0.674282
O O2 0.668448 0.175406 0.806686
O O3 0.593459 0.058983 0.682385
O O4 0.856289 0.182052 0.735039
O O5 0.897554 0.988168 0.851253
O O6 0.000000 0.916629 0.750000
O O7 0.724346 0.888968 0.717947
O O8 0.418341 0.670840 0.918639
O O9 0.212611 0.812668 0.923952
O O10 0.184808 0.600437 0.947758
O O11 0.072076 0.568247 0.069351
O O12 0.959891 0.651184 0.177327
O O13 0.178257 0.029578 0.931667
O O14 0.000000 0.000000 0.000000
#
# Coordination Sequence:
#
# PCOD9264375 Si02
#       7
#     8   8   8   8   8   4   8
#     4  11  23  37  63  89 122 169 198 268 325 362
#     4  11  20  36  59  93 118 148 219 262 303 383
#     4  10  19  35  58  86 122 160 203 251 318 375
#     4  11  22  37  60  90 124 162 202 269 313 374
#     4  10  20  34  58  88 118 159 202 254 306 374
#     4  10  24  40  54  94 128 154 216 252 316 386
#     4  10  20  35  57  91 118 155 213 249 304 391
#
# _framework density 25.907136000000001
#
# number of rings (size 3 to 8) (size 9 to 14) (size 15 to 20)
#    0.000    1.538    6.154    0.000    4.308    0.000 
#    0.000    0.000    0.000    8.308    0.000    0.000 
#    0.000    0.000    0.000    0.000    0.000    0.000 
#
# Total GULP energy -145252.220901 kJ/mol
# GULP energy per Si atom -5586.623881 kJ/mol
# Density = 2.584817 g / cm^3
# Si number density = 25.907136 Si / 1000 Ang^3
#
#
#
# Elastic Constant Matrix: (Units=GPa)
#
#
# Indices 1 2 3 4 5 6 
#
# 1 95.4712 31.1201 22.9026 0.0000 -17.7847 0.0000
# 2 31.1201 118.2331 26.9551 0.0000 -6.9208 0.0000
# 3 22.9026 26.9551 118.9100 0.0000 -20.4118 0.0000
# 4 0.0000 0.0000 0.0000 27.8046 0.0000 -13.8946
# 5 -17.7847 -6.9208 -20.4118 0.0000 39.8077 0.0000
# 6 0.0000 0.0000 0.0000 -13.8946 0.0000 39.3867
#
#
#
# Elastic Compliance Matrix: (Units=1/GPa)
#
#
# Indices 1 2 3 4 5 6 
#
# 1 0.012474 -0.002791 -0.000983 0.000000 0.004584 0.000000
# 2 -0.002791 0.009555 -0.001708 0.000000 -0.000461 0.000000
# 3 -0.000983 -0.001708 0.009715 0.000000 0.004245 0.000000
# 4 0.000000 0.000000 0.000000 0.043662 0.000000 0.015403
# 5 0.004584 -0.000461 0.004245 0.000000 0.029265 0.000000
# 6 0.000000 0.000000 0.000000 0.015403 0.000000 0.030823
#
#
# Mechanical properties :
#
#
# Convention : Reuss Voigt Hill
#
# Bulk Modulus (GPa) = 48.12201 54.95220 51.53711
# Shear Modulus (GPa) = 32.59797 38.17555 35.38676
#
# Velocity S-wave (km/s) = 3.55105 3.84285 3.69983
# Velocity P-wave (km/s) = 5.95217 6.39901 6.17963
#
# Compressibility (1/GPa) = 0.02078051
#
# Stress axis : x y z
#
# Youngs Moduli (GPa) = 80.16846 104.66026 102.93472
#
# Poissons Ratio (x) = 0.29208 0.10119
# Poissons Ratio (y) = 0.22373 0.17577
# Poissons Ratio (z) = 0.07881 0.17871
#
# Static dielectric constant tensor:
#      x y z
#    x 2.187840 0.000000 -0.006690 
#    y 0.000000 2.117800 0.000000 
#    z -0.006690 0.000000 2.041060 
# 
# From -- ./inp_files/237183.got.cif
#   From: 2010.05.17/outbox.cif.g08.bks.cpg/sg15_119_cif.got.tgz:237183.got - 2010.06.03 18:47:42.
