data_PCOD9264404
_publ_section_title
;
Structure prediction by ZEFSAII (Michael W. Deem and Ramdas Pophale) SiO2 
 PCOD9264404
Probable space group: C 2/C
;
_chemical_formula_sum "Si O2"
_cell_formula_units_Z 52
_cell_length_a 19.570259
_cell_length_b 28.090199
_cell_length_c 7.811912
_cell_angle_alpha 90.000000
_cell_angle_beta 34.959570
_cell_angle_gamma 90.000000
_cell_volume 2460.719111
_symmetry_space_group_name_H-M "C 2/C"
_symmetry_group_IT_number 15
_symmetry_cell_setting 'monoclinic'
loop_
_space_group_symop_operation_xyz
x,y,z
-x,y,1/2-z
-x,-y,-z
x,-y,1/2+z
1/2+x,1/2+y,z
1/2-x,1/2+y,1/2-z
1/2-x,1/2-y,-z
1/2+x,1/2-y,1/2+z
loop_
_atom_site_type_symbol
_atom_site_label
_atom_site_fract_x
_atom_site_fract_y
_atom_site_fract_z
Si Si1 0.500000 0.223719 0.750000
Si Si2 0.639833 0.064008 0.917084
Si Si3 0.366360 0.161070 0.455198
Si Si4 0.270765 0.505332 0.938687
Si Si5 0.706911 0.842726 0.769465
Si Si6 0.633070 0.573412 0.462218
Si Si7 0.099910 0.236423 0.687756
O O1 0.610632 0.188877 0.567891
O O2 0.541835 0.251919 0.493371
O O3 0.659812 0.028607 0.718954
O O4 0.500000 0.065496 0.250000
O O5 0.684642 0.118892 0.822535
O O6 0.721667 0.038076 0.889139
O O7 0.500000 0.166814 0.250000
O O8 0.356929 0.142098 0.278452
O O9 0.326608 0.216062 0.523100
O O10 0.326230 0.540550 0.962740
O O11 0.365235 0.464760 0.693864
O O12 0.767162 0.885697 0.746763
O O13 0.813745 0.808282 0.491399
O O14 0.500000 0.593423 0.750000
O O15 0.000000 0.228186 0.750000
#
# Coordination Sequence:
#
# PCOD9264404 Si02
#       7
#     4   8   8   8   8   8   8
#     4  10  22  40  66  96 130 172 206 254 326 388
#     4  10  19  35  58  90 127 158 200 252 310 374
#     4   9  18  34  58  83 122 162 190 241 312 363
#     4  10  22  38  59  89 118 164 212 251 311 367
#     4  11  22  41  64  95 128 162 210 261 314 376
#     4  11  23  42  63  85 121 165 210 263 307 367
#     4  10  22  41  65  94 131 172 207 263 313 376
#
# _framework density 21.132035999999999
#
# number of rings (size 3 to 8) (size 9 to 14) (size 15 to 20)
#    0.000    1.846    1.538    3.231    0.000    6.769 
#    5.538    6.154    1.692    0.000    0.000    0.000 
#    0.000    0.000    0.000    0.000    0.000    0.000 
#
# Total GULP energy -144814.528710 kJ/mol
# GULP energy per Si atom -5569.789566 kJ/mol
# Density = 2.108394 g / cm^3
# Si number density = 21.132036 Si / 1000 Ang^3
#
#
#
# Elastic Constant Matrix: (Units=GPa)
#
#
# Indices 1 2 3 4 5 6 
#
# 1 57.2460 33.1480 23.2135 0.0000 -7.0964 0.0000
# 2 33.1480 96.7861 26.7468 0.0000 13.3029 0.0000
# 3 23.2135 26.7468 73.3427 0.0000 -4.3762 0.0000
# 4 0.0000 0.0000 0.0000 99.4610 0.0000 -109.5151
# 5 -7.0964 13.3029 -4.3762 0.0000 17.2333 0.0000
# 6 0.0000 0.0000 0.0000 -109.5151 0.0000 154.2210
#
#
#
# Elastic Compliance Matrix: (Units=1/GPa)
#
#
# Indices 1 2 3 4 5 6 
#
# 1 0.027738 -0.011138 -0.003577 0.000000 0.019111 0.000000
# 2 -0.011138 0.017995 -0.004203 0.000000 -0.019544 0.000000
# 3 -0.003577 -0.004203 0.016658 0.000000 0.006002 0.000000
# 4 0.000000 0.000000 0.000000 0.046099 0.000000 0.032736
# 5 0.019111 -0.019544 0.006002 0.000000 0.082508 0.000000
# 6 0.000000 0.000000 0.000000 0.032736 0.000000 0.029731
#
#
# Mechanical properties :
#
#
# Convention : Reuss Voigt Hill
#
# Bulk Modulus (GPa) = 40.72761 43.73238 42.23000
# Shear Modulus (GPa) = 18.74423 63.80081 41.27252
#
# Velocity S-wave (km/s) = 2.98149 5.50064 4.42416
# Velocity P-wave (km/s) = 5.58276 7.81553 6.79153
#
# Compressibility (1/GPa) = 0.02455337
#
# Stress axis : x y z
#
# Youngs Moduli (GPa) = 36.05224 55.57225 60.03231
#
# Poissons Ratio (x) = 0.61897 0.21473
# Poissons Ratio (y) = 0.40155 0.25233
# Poissons Ratio (z) = 0.12896 0.23358
#
# Static dielectric constant tensor:
#      x y z
#    x 1.771670 0.000000 0.045800 
#    y 0.000000 1.788110 0.000000 
#    z 0.045800 0.000000 1.816460 
# 
# From -- ./inp_files/59295.got.cif
#   From: 2010.05.17/outbox.cif.g08.bks.cpg/sg15_30_cif.got.tgz:59295.got - 2010.06.03 18:47:42.
