data_PCOD9264163
_publ_section_title
;
Structure prediction by ZEFSAII (Michael W. Deem and Ramdas Pophale) SiO2 
 PCOD9264163
Probable space group: C 2/C
;
_chemical_formula_sum "Si O2"
_cell_formula_units_Z 56
_cell_length_a 30.716063
_cell_length_b 14.769974
_cell_length_c 8.801769
_cell_angle_alpha 90.000000
_cell_angle_beta 131.111600
_cell_angle_gamma 90.000000
_cell_volume 3008.557530
_symmetry_space_group_name_H-M "C 2/C"
_symmetry_group_IT_number 15
_symmetry_cell_setting 'monoclinic'
loop_
_space_group_symop_operation_xyz
x,y,z
-x,y,1/2-z
-x,-y,-z
x,-y,1/2+z
1/2+x,1/2+y,z
1/2-x,1/2+y,1/2-z
1/2-x,1/2-y,-z
1/2+x,1/2-y,1/2+z
loop_
_atom_site_type_symbol
_atom_site_label
_atom_site_fract_x
_atom_site_fract_y
_atom_site_fract_z
Si Si1 0.039542 0.564740 0.982057
Si Si2 0.834725 0.203857 0.290113
Si Si3 0.500000 0.241219 0.250000
Si Si4 0.500000 0.459919 0.750000
Si Si5 0.210670 0.381536 0.488198
Si Si6 0.050366 0.115677 0.072396
Si Si7 0.606622 0.172970 0.365406
Si Si8 0.158789 0.497492 0.118776
O O1 0.000000 0.590510 0.750000
O O2 0.067264 0.651427 0.130128
O O3 0.096528 0.514192 0.051733
O O4 0.000000 0.500000 0.000000
O O5 0.776757 0.145656 0.166976
O O6 0.886494 0.151090 0.327145
O O7 0.856423 0.238717 0.506185
O O8 0.820077 0.293857 0.157622
O O9 0.505595 0.309060 0.405058
O O10 0.556482 0.180254 0.377938
O O11 0.462349 0.525304 0.554652
O O12 0.461219 0.403110 0.778059
O O13 0.202860 0.461117 0.346190
O O14 0.180518 0.417481 0.572027
O O15 0.647311 0.086809 0.479752
#
# Coordination Sequence:
#
# PCOD9264163 Si02
#       8
#     8   8   4   4   8   8   8   8
#     4  12  21  33  55  88 118 153 191 236 295 359
#     4   9  21  39  61  77 117 160 198 238 307 346
#     4   9  18  34  54  77 118 156 180 221 314 358
#     4   9  18  34  58  83 108 138 194 237 296 342
#     4  10  21  39  60  84 111 159 202 244 290 344
#     4   9  18  35  57  81 109 148 184 244 288 356
#     4  10  19  35  56  81 117 157 190 237 291 364
#     4  11  20  36  59  83 117 151 202 246 282 349
#
# _framework density 18.613572000000001
#
# number of rings (size 3 to 8) (size 9 to 14) (size 15 to 20)
#    0.000    2.000    2.857    0.857    0.000    3.429 
#    3.857    0.714    0.000    0.000    0.000    0.000 
#    0.000    0.000    0.000    0.000    0.000    0.000 
#
# Total GULP energy -155929.874638 kJ/mol
# GULP energy per Si atom -5568.924094 kJ/mol
# Density = 1.857121 g / cm^3
# Si number density = 18.613572 Si / 1000 Ang^3
#
#
#
# Elastic Constant Matrix: (Units=GPa)
#
#
# Indices 1 2 3 4 5 6 
#
# 1 97.8820 51.3867 52.0198 0.0000 2.9912 0.0000
# 2 51.3867 67.9717 41.9137 0.0000 0.6288 0.0000
# 3 52.0198 41.9137 133.2282 0.0000 2.8256 0.0000
# 4 0.0000 0.0000 0.0000 25.3577 0.0000 1.6637
# 5 2.9912 0.6288 2.8256 0.0000 32.5344 0.0000
# 6 0.0000 0.0000 0.0000 1.6637 0.0000 30.6999
#
#
#
# Elastic Compliance Matrix: (Units=1/GPa)
#
#
# Indices 1 2 3 4 5 6 
#
# 1 0.018164 -0.011617 -0.003413 0.000000 -0.001149 0.000000
# 2 -0.011617 0.025683 -0.003563 0.000000 0.000881 0.000000
# 3 -0.003413 -0.003563 0.009970 0.000000 -0.000483 0.000000
# 4 0.000000 0.000000 0.000000 0.039576 0.000000 -0.002145
# 5 -0.001149 0.000881 -0.000483 0.000000 0.030867 0.000000
# 6 0.000000 0.000000 0.000000 -0.002145 0.000000 0.032690
#
#
# Mechanical properties :
#
#
# Convention : Reuss Voigt Hill
#
# Bulk Modulus (GPa) = 60.12742 65.52469 62.82605
# Shear Modulus (GPa) = 25.04012 27.96918 26.50465
#
# Velocity S-wave (km/s) = 3.67176 3.88057 3.77761
# Velocity P-wave (km/s) = 7.09569 7.44026 7.27002
#
# Compressibility (1/GPa) = 0.01663135
#
# Stress axis : x y z
#
# Youngs Moduli (GPa) = 55.05358 38.93627 100.30338
#
# Poissons Ratio (x) = 0.45231 0.34237
# Poissons Ratio (y) = 0.63954 0.35736
# Poissons Ratio (z) = 0.18791 0.13872
#
# Static dielectric constant tensor:
#      x y z
#    x 1.636700 0.000000 -0.024820 
#    y 0.000000 1.688430 0.000000 
#    z -0.024820 0.000000 1.690910 
# 
# From -- ./inp_files/70000.got.cif
#   From: 2010.05.17/outbox.cif.g08.bks.cpg/sg15_35_cif.got.tgz:70000.got - 2010.06.03 18:47:42.
