data_PCOD9264357
_publ_section_title
;
Structure prediction by ZEFSAII (Michael W. Deem and Ramdas Pophale) SiO2 
 PCOD9264357
Probable space group: C 2/C
;
_chemical_formula_sum "Si O2"
_cell_formula_units_Z 48
_cell_length_a 11.599352
_cell_length_b 22.193540
_cell_length_c 9.851019
_cell_angle_alpha 90.000000
_cell_angle_beta 71.604823
_cell_angle_gamma 90.000000
_cell_volume 2406.373808
_symmetry_space_group_name_H-M "C 2/C"
_symmetry_group_IT_number 15
_symmetry_cell_setting 'monoclinic'
loop_
_space_group_symop_operation_xyz
x,y,z
-x,y,1/2-z
-x,-y,-z
x,-y,1/2+z
1/2+x,1/2+y,z
1/2-x,1/2+y,1/2-z
1/2-x,1/2-y,-z
1/2+x,1/2-y,1/2+z
loop_
_atom_site_type_symbol
_atom_site_label
_atom_site_fract_x
_atom_site_fract_y
_atom_site_fract_z
Si Si1 0.971823 0.193883 0.610642
Si Si2 0.265772 0.680158 0.026541
Si Si3 0.118372 0.624999 0.305307
Si Si4 0.790093 0.363996 0.232160
Si Si5 0.092070 0.492246 0.337992
Si Si6 0.125029 0.710659 0.552700
O O1 0.848609 0.155223 0.675188
O O2 0.962486 0.240543 0.488926
O O3 0.000000 0.223259 0.750000
O O4 0.095586 0.158378 0.537235
O O5 0.215709 0.665205 0.190993
O O6 0.250000 0.750000 0.000000
O O7 0.191368 0.650607 0.932636
O O8 0.159835 0.556077 0.302981
O O9 0.109644 0.654301 0.456311
O O10 0.000000 0.625943 0.250000
O O11 0.822665 0.434444 0.217911
O O12 0.870005 0.320627 0.300467
O O13 0.000000 0.487977 0.250000
O O14 0.000000 0.500000 0.500000
O O15 0.250000 0.750000 0.500000
#
# Coordination Sequence:
#
# PCOD9264357 Si02
#       6
#     8   8   8   8   8   8
#     4   9  19  36  58  85 117 155 194 231 291 363
#     4  11  21  36  59  85 114 154 195 233 284 357
#     4  11  22  38  58  83 115 152 192 236 289 348
#     4  10  21  38  58  83 116 151 191 244 292 336
#     4  11  23  39  60  86 114 149 197 246 290 342
#     4  10  19  35  58  84 116 149 185 240 299 344
#
# _framework density 19.947026999999999
#
# number of rings (size 3 to 8) (size 9 to 14) (size 15 to 20)
#    0.000    1.667    0.000    7.500    0.000    1.333 
#    0.000   10.833    0.000    6.000    0.000    0.000 
#    0.000    0.000    0.000    0.000    0.000    0.000 
#
# Total GULP energy -133628.856330 kJ/mol
# GULP energy per Si atom -5567.869014 kJ/mol
# Density = 1.990163 g / cm^3
# Si number density = 19.947027 Si / 1000 Ang^3
#
#
#
# Elastic Constant Matrix: (Units=GPa)
#
#
# Indices 1 2 3 4 5 6 
#
# 1 88.1116 23.5607 26.7886 0.0000 5.0673 0.0000
# 2 23.5607 125.6442 -3.8936 0.0000 2.1676 0.0000
# 3 26.7886 -3.8936 58.9059 0.0000 13.9809 0.0000
# 4 0.0000 0.0000 0.0000 17.4264 0.0000 5.1958
# 5 5.0673 2.1676 13.9809 0.0000 38.3315 0.0000
# 6 0.0000 0.0000 0.0000 5.1958 0.0000 22.6007
#
#
#
# Elastic Compliance Matrix: (Units=1/GPa)
#
#
# Indices 1 2 3 4 5 6 
#
# 1 0.014143 -0.002876 -0.006806 0.000000 0.000775 0.000000
# 2 -0.002876 0.008578 0.002080 0.000000 -0.000863 0.000000
# 3 -0.006806 0.002080 0.021921 0.000000 -0.007213 0.000000
# 4 0.000000 0.000000 0.000000 0.061607 0.000000 -0.014163
# 5 0.000775 -0.000863 -0.007213 0.000000 0.028665 0.000000
# 6 0.000000 0.000000 0.000000 -0.014163 0.000000 0.047502
#
#
# Mechanical properties :
#
#
# Convention : Reuss Voigt Hill
#
# Bulk Modulus (GPa) = 33.97095 40.61924 37.29509
# Shear Modulus (GPa) = 24.10410 30.75212 27.42811
#
# Velocity S-wave (km/s) = 3.47998 3.93069 3.71219
# Velocity P-wave (km/s) = 5.76321 6.40377 6.09191
#
# Compressibility (1/GPa) = 0.02943692
#
# Stress axis : x y z
#
# Youngs Moduli (GPa) = 70.70629 116.58122 45.61859
#
# Poissons Ratio (x) = 0.33533 0.31048
# Poissons Ratio (y) = 0.20338 -0.09489
# Poissons Ratio (z) = 0.48123 -0.24249
#
# Static dielectric constant tensor:
#      x y z
#    x 1.746240 0.000000 -0.008820 
#    y 0.000000 1.780280 0.000000 
#    z -0.008820 0.000000 1.733980 
# 
# From -- ./inp_files/32506.got.cif
#   From: 2010.05.17/outbox.cif.g08.bks.cpg/sg15_17_cif.got.tgz:32506.got - 2010.06.03 18:47:42.
