data_PCOD9264952
_publ_section_title
;
Structure prediction by ZEFSAII (Michael W. Deem and Ramdas Pophale) SiO2 
 PCOD9264952
Probable space group: C 2/C
;
_chemical_formula_sum "Si O2"
_cell_formula_units_Z 56
_cell_length_a 14.670804
_cell_length_b 18.073101
_cell_length_c 15.262075
_cell_angle_alpha 90.000000
_cell_angle_beta 50.183538
_cell_angle_gamma 90.000000
_cell_volume 3108.262584
_symmetry_space_group_name_H-M "C 2/C"
_symmetry_group_IT_number 15
_symmetry_cell_setting 'monoclinic'
loop_
_space_group_symop_operation_xyz
x,y,z
-x,y,1/2-z
-x,-y,-z
x,-y,1/2+z
1/2+x,1/2+y,z
1/2-x,1/2+y,1/2-z
1/2-x,1/2-y,-z
1/2+x,1/2-y,1/2+z
loop_
_atom_site_type_symbol
_atom_site_label
_atom_site_fract_x
_atom_site_fract_y
_atom_site_fract_z
Si Si1 0.949604 0.834897 0.554163
Si Si2 0.939873 0.091019 0.877027
Si Si3 0.119096 0.329572 0.355241
Si Si4 0.855191 0.015003 0.184570
Si Si5 0.298273 0.046520 0.566413
Si Si6 0.711291 0.615759 0.900390
Si Si7 0.075357 0.427422 0.116662
O O1 0.944303 0.851159 0.453344
O O2 0.902391 0.754925 0.607830
O O3 0.876458 0.901332 0.644136
O O4 0.086717 0.846116 0.497502
O O5 0.807878 0.065716 0.934915
O O6 0.000000 0.119234 0.750000
O O7 0.022221 0.022202 0.856886
O O8 0.157710 0.378846 0.414414
O O9 0.219292 0.340029 0.218762
O O10 0.001093 0.367508 0.388660
O O11 0.760232 0.002347 0.319732
O O12 0.816287 0.964324 0.126348
O O13 0.398779 0.999287 0.457128
O O14 0.799416 0.604885 0.927010
O O15 0.000000 0.446386 0.250000
#
# Coordination Sequence:
#
# PCOD9264952 Si02
#       7
#     8   8   8   8   8   8   8
#     4  11  20  35  57  82 108 138 176 215 272 325
#     4   9  18  34  57  82 105 135 178 228 265 301
#     4  10  23  35  50  80 114 140 170 220 270 314
#     4   9  18  33  59  84 101 133 181 222 261 310
#     4  10  19  36  55  78 110 140 177 220 256 309
#     4   9  19  38  56  74 105 140 177 224 262 303
#     4  10  20  37  56  73 102 148 186 214 258 314
#
# _framework density 18.016496
#
# number of rings (size 3 to 8) (size 9 to 14) (size 15 to 20)
#    0.000    2.286    0.000    4.714    0.000    2.286 
#    0.000   11.429    0.000    0.000    0.000    0.000 
#    0.000    0.000    0.000    0.000    0.000    0.000 
#
# Total GULP energy -156334.256887 kJ/mol
# GULP energy per Si atom -5583.366317 kJ/mol
# Density = 1.797549 g / cm^3
# Si number density = 18.016496 Si / 1000 Ang^3
#
#
#
# Elastic Constant Matrix: (Units=GPa)
#
#
# Indices 1 2 3 4 5 6 
#
# 1 85.6516 41.0678 21.3940 0.0000 -2.9707 0.0000
# 2 41.0678 144.6113 55.3402 0.0000 -14.8348 0.0000
# 3 21.3940 55.3402 49.7478 0.0000 -10.0194 0.0000
# 4 0.0000 0.0000 0.0000 23.1334 0.0000 0.9331
# 5 -2.9707 -14.8348 -10.0194 0.0000 14.7289 0.0000
# 6 0.0000 0.0000 0.0000 0.9331 0.0000 5.9731
#
#
#
# Elastic Compliance Matrix: (Units=1/GPa)
#
#
# Indices 1 2 3 4 5 6 
#
# 1 0.013792 -0.002971 -0.003093 0.000000 -0.002314 0.000000
# 2 -0.002971 0.012838 -0.012190 0.000000 0.004039 0.000000
# 3 -0.003093 -0.012190 0.037536 0.000000 0.012632 0.000000
# 4 0.000000 0.000000 0.000000 0.043502 0.000000 -0.006796
# 5 -0.002314 0.004039 0.012632 0.000000 0.080088 0.000000
# 6 0.000000 0.000000 0.000000 -0.006796 0.000000 0.168480
#
#
# Mechanical properties :
#
#
# Convention : Reuss Voigt Hill
#
# Bulk Modulus (GPa) = 36.15467 57.29051 46.72259
# Shear Modulus (GPa) = 12.43898 19.58100 16.00999
#
# Velocity S-wave (km/s) = 2.63044 3.30030 2.98422
# Velocity P-wave (km/s) = 5.41634 6.81106 6.15334
#
# Compressibility (1/GPa) = 0.02765894
#
# Stress axis : x y z
#
# Youngs Moduli (GPa) = 72.50723 77.89380 26.64093
#
# Poissons Ratio (x) = 0.23139 0.08239
# Poissons Ratio (y) = 0.21539 0.32476
# Poissons Ratio (z) = 0.22424 0.94955
#
# Static dielectric constant tensor:
#      x y z
#    x 1.636580 0.000000 -0.000820 
#    y 0.000000 1.569120 0.000000 
#    z -0.000820 0.000000 1.630000 
# 
# From -- ./inp_files/155140.got.cif
#   From: 2010.05.17/outbox.cif.g08.bks.cpg/sg15_78_cif.got.tgz:155140.got - 2010.06.03 18:47:42.
