data_PCOD9264134
_publ_section_title
;
Structure prediction by ZEFSAII (Michael W. Deem and Ramdas Pophale) SiO2 
 PCOD9264134
Probable space group: C 2/C
;
_chemical_formula_sum "Si O2"
_cell_formula_units_Z 52
_cell_length_a 19.721082
_cell_length_b 18.973501
_cell_length_c 18.270797
_cell_angle_alpha 90.000000
_cell_angle_beta 154.568727
_cell_angle_gamma 90.000000
_cell_volume 2935.798137
_symmetry_space_group_name_H-M "C 2/C"
_symmetry_group_IT_number 15
_symmetry_cell_setting 'monoclinic'
loop_
_space_group_symop_operation_xyz
x,y,z
-x,y,1/2-z
-x,-y,-z
x,-y,1/2+z
1/2+x,1/2+y,z
1/2-x,1/2+y,1/2-z
1/2-x,1/2-y,-z
1/2+x,1/2-y,1/2+z
loop_
_atom_site_type_symbol
_atom_site_label
_atom_site_fract_x
_atom_site_fract_y
_atom_site_fract_z
Si Si1 0.004857 0.390117 0.484541
Si Si2 0.000000 0.527289 0.750000
Si Si3 0.437784 0.744698 0.107592
Si Si4 0.966287 0.025526 0.385062
Si Si5 0.785900 0.173800 0.198639
Si Si6 0.256902 0.104079 0.614125
Si Si7 0.355927 0.971828 0.463595
O O1 0.147550 0.332796 0.624925
O O2 0.088111 0.459453 0.529353
O O3 0.857449 0.379925 0.285564
O O4 0.933580 0.408382 0.493909
O O5 0.872158 0.576367 0.664422
O O6 0.921875 0.482034 0.608940
O O7 0.500000 0.749761 0.250000
O O8 0.578154 0.731374 0.185175
O O9 0.331186 0.811978 0.983990
O O10 0.332908 0.674231 0.998473
O O11 0.883750 0.102284 0.300126
O O12 0.834441 0.973796 0.222974
O O13 0.132781 0.041039 0.509043
O O14 0.000000 0.000000 0.500000
#
# Coordination Sequence:
#
# PCOD9264134 Si02
#       7
#     8   4   8   8   8   8   8
#     4   9  17  33  52  71  95 144 181 231 274 327
#     4  10  22  32  52  82 110 150 188 234 286 348
#     4  11  23  36  49  74 113 157 190 234 267 324
#     4  10  19  35  56  77 100 148 195 243 281 324
#     4  10  22  35  52  71 104 147 197 232 273 321
#     4  10  21  32  54  75 111 150 193 229 277 327
#     4   9  18  32  51  74 105 133 181 230 288 333
#
# _framework density 17.712389999999999
#
# number of rings (size 3 to 8) (size 9 to 14) (size 15 to 20)
#    0.000    2.154    1.538    1.385   10.769    0.000 
#    6.923    0.000    0.000    0.000    0.000    0.000 
#    0.000    4.923    0.000    0.154    0.000    0.000 
#
# Total GULP energy -144738.305932 kJ/mol
# GULP energy per Si atom -5566.857920 kJ/mol
# Density = 1.767208 g / cm^3
# Si number density = 17.712390 Si / 1000 Ang^3
#
#
#
# Elastic Constant Matrix: (Units=GPa)
#
#
# Indices 1 2 3 4 5 6 
#
# 1 116.1321 41.7192 68.8701 0.0023 8.2652 0.0006
# 2 41.7192 40.6765 30.7253 -0.0001 0.4367 -0.0007
# 3 68.8701 30.7253 100.6791 -0.0007 9.2620 -0.0020
# 4 0.0023 -0.0001 -0.0007 23.3501 0.0009 8.4827
# 5 8.2652 0.4367 9.2620 0.0009 32.6696 0.0003
# 6 0.0006 -0.0007 -0.0020 8.4827 0.0003 17.5652
#
#
#
# Elastic Compliance Matrix: (Units=1/GPa)
#
#
# Indices 1 2 3 4 5 6 
#
# 1 0.018202 -0.012193 -0.008544 -0.000002 -0.002020 -0.000001
# 2 -0.012193 0.040301 -0.004305 0.000001 0.003766 0.000001
# 3 -0.008544 -0.004305 0.017339 0.000001 -0.002697 0.000002
# 4 -0.000002 0.000001 0.000001 0.051938 -0.000001 -0.025082
# 5 -0.002020 0.003766 -0.002697 -0.000001 0.031835 0.000000
# 6 -0.000001 0.000001 0.000002 -0.025082 0.000000 0.069043
#
#
# Mechanical properties :
#
#
# Convention : Reuss Voigt Hill
#
# Bulk Modulus (GPa) = 38.82322 60.01298 49.41810
# Shear Modulus (GPa) = 17.40174 22.46187 19.93181
#
# Velocity S-wave (km/s) = 3.13782 3.56497 3.35819
# Velocity P-wave (km/s) = 5.92404 7.13448 6.55725
#
# Compressibility (1/GPa) = 0.02575778
#
# Stress axis : x y z
#
# Youngs Moduli (GPa) = 54.94005 24.81343 57.67286
#
# Poissons Ratio (x) = 0.30254 0.49277
# Poissons Ratio (y) = 0.66986 0.24829
# Poissons Ratio (z) = 0.46942 0.10682
#
# Static dielectric constant tensor:
#      x y z
#    x 1.641950 0.000000 0.060040 
#    y 0.000000 1.654770 0.000000 
#    z 0.060040 0.000000 1.649580 
# 
# From -- ./inp_files/164025.got.cif
#   From: 2010.05.17/outbox.cif.g08.bks.cpg/sg15_83_cif.got.tgz:164025.got - 2010.06.03 18:47:42.
