data_PCOD9264478
_publ_section_title
;
Structure prediction by ZEFSAII (Michael W. Deem and Ramdas Pophale) SiO2 
 PCOD9264478
Probable space group: C 2/C
;
_chemical_formula_sum "Si O2"
_cell_formula_units_Z 56
_cell_length_a 15.288654
_cell_length_b 10.993135
_cell_length_c 18.330686
_cell_angle_alpha 90.000000
_cell_angle_beta 129.939886
_cell_angle_gamma 90.000000
_cell_volume 2362.138902
_symmetry_space_group_name_H-M "C 2/C"
_symmetry_group_IT_number 15
_symmetry_cell_setting 'monoclinic'
loop_
_space_group_symop_operation_xyz
x,y,z
-x,y,1/2-z
-x,-y,-z
x,-y,1/2+z
1/2+x,1/2+y,z
1/2-x,1/2+y,1/2-z
1/2-x,1/2-y,-z
1/2+x,1/2-y,1/2+z
loop_
_atom_site_type_symbol
_atom_site_label
_atom_site_fract_x
_atom_site_fract_y
_atom_site_fract_z
Si Si1 0.894024 0.342931 0.395786
Si Si2 0.030710 0.717251 0.843372
Si Si3 0.838198 0.182418 0.494427
Si Si4 0.500000 0.987243 0.750000
Si Si5 0.833754 0.064767 0.059836
Si Si6 0.653889 0.891500 0.590809
Si Si7 0.080874 0.274769 0.689622
Si Si8 0.000000 0.086718 0.750000
O O1 0.836676 0.237899 0.412804
O O2 0.835207 0.472261 0.371835
O O3 0.915157 0.304142 0.324977
O O4 0.024329 0.369787 0.493359
O O5 0.072140 0.583553 0.838419
O O6 0.000000 0.777521 0.750000
O O7 0.109916 0.807286 0.931636
O O8 0.750000 0.250000 0.500000
O O9 0.812301 0.038396 0.487080
O O10 0.961086 0.228906 0.589808
O O11 0.561781 0.898805 0.725603
O O12 0.930152 0.992478 0.156312
O O13 0.736654 0.102388 0.065585
O O14 0.663411 0.800858 0.665418
O O15 0.092031 0.171329 0.757010
#
# Coordination Sequence:
#
# PCOD9264478 Si02
#       8
#     8   8   8   4   8   8   8   4
#     4  10  20  37  60  83 115 151 191 239 281 343
#     4  10  21  37  57  80 119 154 181 233 299 340
#     4  10  20  35  60  87 111 148 192 237 285 340
#     4   9  17  34  56  78 107 155 184 228 288 329
#     4  11  21  37  58  83 117 153 188 233 298 339
#     4  10  19  35  59  86 112 147 195 238 286 334
#     4   9  18  35  58  81 111 146 197 238 274 342
#     4   9  19  38  54  78 115 157 188 238 286 339
#
# _framework density 23.707326999999999
#
# number of rings (size 3 to 8) (size 9 to 14) (size 15 to 20)
#    0.429    1.714    3.571    0.000    0.000    1.143 
#    5.143    0.000    0.000    0.000    0.000    0.000 
#    0.000    0.000    0.000    0.000    0.000    0.000 
#
# Total GULP energy -156081.686541 kJ/mol
# GULP energy per Si atom -5574.345948 kJ/mol
# Density = 2.365337 g / cm^3
# Si number density = 23.707327 Si / 1000 Ang^3
#
#
#
# Elastic Constant Matrix: (Units=GPa)
#
#
# Indices 1 2 3 4 5 6 
#
# 1 89.9552 61.1552 21.2141 0.0000 -7.3315 0.0000
# 2 61.1552 154.0019 26.6081 0.0000 -6.5724 0.0000
# 3 21.2141 26.6081 38.0183 0.0000 -15.6423 0.0000
# 4 0.0000 0.0000 0.0000 505.5711 0.0000 -274.2723
# 5 -7.3315 -6.5724 -15.6423 0.0000 31.7517 0.0000
# 6 0.0000 0.0000 0.0000 -274.2723 0.0000 174.6410
#
#
#
# Elastic Compliance Matrix: (Units=1/GPa)
#
#
# Indices 1 2 3 4 5 6 
#
# 1 0.016057 -0.005495 -0.005088 0.000000 0.000064 0.000000
# 2 -0.005495 0.009308 -0.003986 0.000000 -0.001306 0.000000
# 3 -0.005088 -0.003986 0.039018 0.000000 0.017222 0.000000
# 4 0.000000 0.000000 0.000000 0.013364 0.000000 0.020988
# 5 0.000064 -0.001306 0.017222 0.000000 0.039723 0.000000
# 6 0.000000 0.000000 0.000000 0.020988 0.000000 0.038687
#
#
# Mechanical properties :
#
#
# Convention : Reuss Voigt Hill
#
# Bulk Modulus (GPa) = 28.37194 55.54780 41.95987
# Shear Modulus (GPa) = 25.37510 153.92598 89.65054
#
# Velocity S-wave (km/s) = 3.27517 8.06651 6.15611
# Velocity P-wave (km/s) = 5.12795 10.49950 8.26243
#
# Compressibility (1/GPa) = 0.03524609
#
# Stress axis : x y z
#
# Youngs Moduli (GPa) = 62.27732 107.43081 25.62933
#
# Poissons Ratio (x) = 0.59029 0.13041
# Poissons Ratio (y) = 0.34219 0.10216
# Poissons Ratio (z) = 0.31688 0.42821
#
# Static dielectric constant tensor:
#      x y z
#    x 1.885950 0.000000 0.032370 
#    y 0.000000 1.896890 0.000000 
#    z 0.032370 0.000000 2.033650 
# 
# From -- ./inp_files/237164.got.cif
#   From: 2010.05.17/outbox.cif.g08.bks.cpg/sg15_119_cif.got.tgz:237164.got - 2010.06.03 18:47:42.
