data_PCOD9264652
_publ_section_title
;
Structure prediction by ZEFSAII (Michael W. Deem and Ramdas Pophale) SiO2 
 PCOD9264652
Probable space group: C 2/C
;
_chemical_formula_sum "Si O2"
_cell_formula_units_Z 56
_cell_length_a 11.313920
_cell_length_b 15.311687
_cell_length_c 14.128492
_cell_angle_alpha 90.000000
_cell_angle_beta 117.541544
_cell_angle_gamma 90.000000
_cell_volume 2170.185261
_symmetry_space_group_name_H-M "C 2/C"
_symmetry_group_IT_number 15
_symmetry_cell_setting 'monoclinic'
loop_
_space_group_symop_operation_xyz
x,y,z
-x,y,1/2-z
-x,-y,-z
x,-y,1/2+z
1/2+x,1/2+y,z
1/2-x,1/2+y,1/2-z
1/2-x,1/2-y,-z
1/2+x,1/2-y,1/2+z
loop_
_atom_site_type_symbol
_atom_site_label
_atom_site_fract_x
_atom_site_fract_y
_atom_site_fract_z
Si Si1 0.743868 0.252842 0.740495
Si Si2 0.685779 0.966357 0.879872
Si Si3 0.409839 0.472705 0.575490
Si Si4 0.871329 0.656851 0.637273
Si Si5 0.468870 0.279421 0.521634
Si Si6 0.298774 0.547348 0.230573
Si Si7 0.885659 0.273760 0.605455
O O1 0.738344 0.184629 0.824713
O O2 0.610316 0.257488 0.625873
O O3 0.728083 0.348732 0.781199
O O4 0.858315 0.241740 0.703109
O O5 0.692144 0.980726 0.769048
O O6 0.611559 0.878955 0.881565
O O7 0.629696 0.057005 0.894462
O O8 0.839992 0.962353 0.974891
O O9 0.419482 0.376138 0.533080
O O10 0.557606 0.482538 0.672993
O O11 0.309571 0.481638 0.627238
O O12 0.876284 0.712386 0.544058
O O13 0.000000 0.674578 0.750000
O O14 0.500689 0.259994 0.423742
O O15 0.750000 0.250000 0.500000
#
# Coordination Sequence:
#
# PCOD9264652 Si02
#       7
#     8   8   8   8   8   8   8
#     4   8  15  33  56  76 105 157 200 226 288 373
#     4  11  23  35  57  95 119 154 203 257 297 355
#     4  10  19  35  61  87 117 151 207 252 296 354
#     4  10  20  36  59  84 117 154 204 240 297 363
#     4   9  17  33  58  82 110 160 193 242 297 369
#     4   9  18  35  56  82 116 157 193 244 306 354
#     4   9  19  35  57  81 114 156 201 234 307 372
#
# _framework density 25.804247
#
# number of rings (size 3 to 8) (size 9 to 14) (size 15 to 20)
#    0.000    2.571    1.429    1.286    0.000    4.571 
#    0.000    1.429    3.143    0.000    3.714    0.000 
#    0.000    0.000    0.000    0.000    0.000    0.000 
#
# Total GULP energy -156381.542660 kJ/mol
# GULP energy per Si atom -5585.055095 kJ/mol
# Density = 2.574552 g / cm^3
# Si number density = 25.804247 Si / 1000 Ang^3
#
#
#
# Elastic Constant Matrix: (Units=GPa)
#
#
# Indices 1 2 3 4 5 6 
#
# 1 97.9942 23.1701 30.6027 0.0000 -2.5103 0.0000
# 2 23.1701 51.1239 -3.6066 0.0000 -6.5928 0.0000
# 3 30.6027 -3.6066 134.3637 0.0000 -23.5125 0.0000
# 4 0.0000 0.0000 0.0000 32.6434 0.0000 -1.8718
# 5 -2.5103 -6.5928 -23.5125 0.0000 33.3853 0.0000
# 6 0.0000 0.0000 0.0000 -1.8718 0.0000 21.4478
#
#
#
# Elastic Compliance Matrix: (Units=1/GPa)
#
#
# Indices 1 2 3 4 5 6 
#
# 1 0.012761 -0.006399 -0.003572 0.000000 -0.002820 0.000000
# 2 -0.006399 0.023516 0.003213 0.000000 0.006426 0.000000
# 3 -0.003572 0.003213 0.009588 0.000000 0.007118 0.000000
# 4 0.000000 0.000000 0.000000 0.030788 0.000000 0.002687
# 5 -0.002820 0.006426 0.007118 0.000000 0.036024 0.000000
# 6 0.000000 0.000000 0.000000 0.002687 0.000000 0.046859
#
#
# Mechanical properties :
#
#
# Convention : Reuss Voigt Hill
#
# Bulk Modulus (GPa) = 30.91239 42.64602 36.77920
# Shear Modulus (GPa) = 27.19854 33.04968 30.12411
#
# Velocity S-wave (km/s) = 3.25011 3.58269 3.42044
# Velocity P-wave (km/s) = 5.10782 5.80317 5.46657
#
# Compressibility (1/GPa) = 0.03234949
#
# Stress axis : x y z
#
# Youngs Moduli (GPa) = 78.36490 42.52471 104.29856
#
# Poissons Ratio (x) = 0.27211 0.37251
# Poissons Ratio (y) = 0.50145 -0.33512
# Poissons Ratio (z) = 0.27988 -0.13663
#
# Static dielectric constant tensor:
#      x y z
#    x 2.162480 0.000000 0.082830 
#    y 0.000000 1.985470 0.000000 
#    z 0.082830 0.000000 2.051940 
# 
# From -- ./inp_files/145739.got.cif
#   From: 2010.05.17/outbox.cif.g08.bks.cpg/sg15_73_cif.got.tgz:145739.got - 2010.06.03 18:47:42.
