data_PCOD9264876
_publ_section_title
;
Structure prediction by ZEFSAII (Michael W. Deem and Ramdas Pophale) SiO2 
 PCOD9264876
Probable space group: C 2/C
;
_chemical_formula_sum "Si O2"
_cell_formula_units_Z 56
_cell_length_a 16.197191
_cell_length_b 11.315765
_cell_length_c 17.269283
_cell_angle_alpha 90.000000
_cell_angle_beta 124.269740
_cell_angle_gamma 90.000000
_cell_volume 2615.688542
_symmetry_space_group_name_H-M "C 2/C"
_symmetry_group_IT_number 15
_symmetry_cell_setting 'monoclinic'
loop_
_space_group_symop_operation_xyz
x,y,z
-x,y,1/2-z
-x,-y,-z
x,-y,1/2+z
1/2+x,1/2+y,z
1/2-x,1/2+y,1/2-z
1/2-x,1/2-y,-z
1/2+x,1/2-y,1/2+z
loop_
_atom_site_type_symbol
_atom_site_label
_atom_site_fract_x
_atom_site_fract_y
_atom_site_fract_z
Si Si1 0.754639 0.357317 0.615809
Si Si2 0.099681 0.763575 0.657411
Si Si3 0.438592 0.963981 0.543172
Si Si4 0.776124 0.113452 0.574323
Si Si5 0.620939 0.774042 0.482506
Si Si6 0.316554 0.351437 0.643013
Si Si7 0.581587 0.975333 0.232081
O O1 0.679587 0.325199 0.644812
O O2 0.814507 0.235571 0.629731
O O3 0.704310 0.390794 0.507203
O O4 0.826992 0.462897 0.678301
O O5 0.110762 0.822486 0.748008
O O6 0.115409 0.625951 0.689926
O O7 0.991197 0.768090 0.559328
O O8 0.345538 0.879519 0.481586
O O9 0.518806 0.928636 0.649561
O O10 0.500000 0.000000 0.500000
O O11 0.390050 0.087769 0.546229
O O12 0.805859 0.992250 0.630691
O O13 0.650706 0.698851 0.423137
O O14 0.707970 0.784355 0.593147
O O15 0.500000 0.925894 0.250000
#
# Coordination Sequence:
#
# PCOD9264876 Si02
#       7
#     8   8   8   8   8   8   8
#     4  11  25  40  62  93 132 168 204 272 330 389
#     4  11  23  39  68  97 131 158 222 282 319 372
#     4  10  19  35  67  93 117 157 221 274 312 370
#     4  10  22  43  59  87 135 173 204 254 341 393
#     4   9  20  37  60  99 123 163 214 269 324 377
#     4  10  21  38  70  93 125 172 219 266 324 391
#     4  11  22  41  67  96 119 167 229 271 316 382
#
# _framework density 21.409276999999999
#
# number of rings (size 3 to 8) (size 9 to 14) (size 15 to 20)
#    0.000    1.714    1.429    3.857   10.000    0.000 
#    0.000    2.143    0.000    0.000    0.000    0.000 
#    0.000    0.000    0.000    0.000    0.000    0.000 
#
# Total GULP energy -156155.465374 kJ/mol
# GULP energy per Si atom -5576.980906 kJ/mol
# Density = 2.136055 g / cm^3
# Si number density = 21.409277 Si / 1000 Ang^3
#
#
#
# Elastic Constant Matrix: (Units=GPa)
#
#
# Indices 1 2 3 4 5 6 
#
# 1 85.3084 15.7655 2.6892 0.0000 -5.6814 0.0000
# 2 15.7655 60.7660 4.5462 0.0000 4.7388 0.0000
# 3 2.6892 4.5462 32.3401 0.0000 -2.4665 0.0000
# 4 0.0000 0.0000 0.0000 23.9381 0.0000 -5.4026
# 5 -5.6814 4.7388 -2.4665 0.0000 23.9310 0.0000
# 6 0.0000 0.0000 0.0000 -5.4026 0.0000 27.7759
#
#
#
# Elastic Compliance Matrix: (Units=1/GPa)
#
#
# Indices 1 2 3 4 5 6 
#
# 1 0.012630 -0.003543 -0.000272 0.000000 0.003672 0.000000
# 2 -0.003543 0.017932 -0.002581 0.000000 -0.004658 0.000000
# 3 -0.000272 -0.002581 0.031589 0.000000 0.003702 0.000000
# 4 0.000000 0.000000 0.000000 0.043692 0.000000 0.008498
# 5 0.003672 -0.004658 0.003702 0.000000 0.043963 0.000000
# 6 0.000000 0.000000 0.000000 0.008498 0.000000 0.037655
#
#
# Mechanical properties :
#
#
# Convention : Reuss Voigt Hill
#
# Bulk Modulus (GPa) = 20.25991 24.93515 22.59753
# Shear Modulus (GPa) = 23.07255 25.48990 24.28123
#
# Velocity S-wave (km/s) = 3.28638 3.45425 3.37136
# Velocity P-wave (km/s) = 4.88713 5.25179 5.07274
#
# Compressibility (1/GPa) = 0.04935857
#
# Stress axis : x y z
#
# Youngs Moduli (GPa) = 79.17633 55.76581 31.65631
#
# Poissons Ratio (x) = 0.19757 0.00862
# Poissons Ratio (y) = 0.28051 0.08172
# Poissons Ratio (z) = 0.02155 0.14396
#
# Static dielectric constant tensor:
#      x y z
#    x 1.843440 0.000000 0.016580 
#    y 0.000000 1.773700 0.000000 
#    z 0.016580 0.000000 1.843580 
# 
# From -- ./inp_files/204554.got.cif
#   From: 2010.05.17/outbox.cif.g08.bks.cpg/sg15_103_cif.got.tgz:204554.got - 2010.06.03 18:47:42.
