data_PCOD9264666
_publ_section_title
;
Structure prediction by ZEFSAII (Michael W. Deem and Ramdas Pophale) SiO2 
 PCOD9264666
Probable space group: C 2/C
;
_chemical_formula_sum "Si O2"
_cell_formula_units_Z 60
_cell_length_a 16.092990
_cell_length_b 19.867151
_cell_length_c 20.922341
_cell_angle_alpha 90.000000
_cell_angle_beta 26.992095
_cell_angle_gamma 90.000000
_cell_volume 3036.069840
_symmetry_space_group_name_H-M "C 2/C"
_symmetry_group_IT_number 15
_symmetry_cell_setting 'monoclinic'
loop_
_space_group_symop_operation_xyz
x,y,z
-x,y,1/2-z
-x,-y,-z
x,-y,1/2+z
1/2+x,1/2+y,z
1/2-x,1/2+y,1/2-z
1/2-x,1/2-y,-z
1/2+x,1/2-y,1/2+z
loop_
_atom_site_type_symbol
_atom_site_label
_atom_site_fract_x
_atom_site_fract_y
_atom_site_fract_z
Si Si1 0.528645 0.908674 0.805376
Si Si2 0.665319 0.246426 0.423662
Si Si3 0.253702 0.958073 0.305470
Si Si4 0.015897 0.948390 0.584354
Si Si5 0.095390 0.611083 0.548159
Si Si6 0.812490 0.018241 0.912411
Si Si7 0.500000 0.834330 0.250000
Si Si8 0.201835 0.823324 0.790330
O O1 0.500000 0.893242 0.750000
O O2 0.659128 0.856143 0.753425
O O3 0.628576 0.981306 0.744012
O O4 0.334035 0.923169 0.973396
O O5 0.655350 0.179003 0.473541
O O6 0.837791 0.288751 0.331856
O O7 0.699685 0.224738 0.327437
O O8 0.472004 0.284328 0.561906
O O9 0.145887 0.924731 0.437419
O O10 0.385888 0.908580 0.177313
O O11 0.110301 0.993280 0.358023
O O12 0.128019 0.983207 0.562564
O O13 0.887773 0.885534 0.688136
O O14 0.213710 0.545951 0.446701
O O15 0.084161 0.623660 0.632859
O O16 0.000000 0.039513 0.750000
#
# Coordination Sequence:
#
# PCOD9264666 Si02
#       8
#     8   8   8   8   8   8   4   8
#     4  10  21  43  65  91 121 162 209 258 310 372
#     4  12  25  42  58  89 126 172 209 251 303 365
#     4   9  19  35  60  93 118 156 195 250 305 372
#     4  10  19  35  61  90 124 152 198 247 312 367
#     4  11  22  35  60  86 129 160 202 243 302 370
#     4  11  22  35  61  98 127 157 195 252 317 370
#     4  12  24  38  60  92 128 170 210 246 298 368
#     4  11  25  42  64  89 127 165 209 258 306 364
#
# _framework density 19.762391000000001
#
# number of rings (size 3 to 8) (size 9 to 14) (size 15 to 20)
#    0.000    1.333    2.667    3.600    4.667    1.067 
#    0.000    6.000    0.000    0.000    0.000    0.000 
#    0.000    0.000    0.000    0.000    0.000    0.000 
#
# Total GULP energy -167523.840203 kJ/mol
# GULP energy per Si atom -5584.128007 kJ/mol
# Density = 1.971741 g / cm^3
# Si number density = 19.762391 Si / 1000 Ang^3
#
#
#
# Elastic Constant Matrix: (Units=GPa)
#
#
# Indices 1 2 3 4 5 6 
#
# 1 58.8321 41.0239 45.5537 0.0087 -13.5907 0.0054
# 2 41.0239 63.9407 54.6428 -0.0124 -2.1733 -0.0068
# 3 45.5537 54.6428 140.0240 -0.0477 -4.1145 -0.0017
# 4 0.0087 -0.0124 -0.0477 25.9224 -0.0121 -8.6793
# 5 -13.5907 -2.1733 -4.1145 -0.0121 24.6390 0.0023
# 6 0.0054 -0.0068 -0.0017 -8.6793 0.0023 16.4957
#
#
#
# Elastic Compliance Matrix: (Units=1/GPa)
#
#
# Indices 1 2 3 4 5 6 
#
# 1 0.039197 -0.021127 -0.003946 -0.000036 0.019098 -0.000044
# 2 -0.021127 0.034860 -0.007017 0.000017 -0.009751 0.000031
# 3 -0.003946 -0.007017 0.011136 0.000022 -0.000936 0.000011
# 4 -0.000036 0.000017 0.000022 0.046826 0.000006 0.024638
# 5 0.019098 -0.009751 -0.000936 0.000006 0.050104 -0.000014
# 6 -0.000044 0.000031 0.000011 0.024638 -0.000014 0.073585
#
#
# Mechanical properties :
#
#
# Convention : Reuss Voigt Hill
#
# Bulk Modulus (GPa) = 47.59043 60.58197 54.08620
# Shear Modulus (GPa) = 15.29557 21.51651 18.40604
#
# Velocity S-wave (km/s) = 2.78506 3.30322 3.05514
# Velocity P-wave (km/s) = 5.87160 6.72830 6.31449
#
# Compressibility (1/GPa) = 0.02101263
#
# Stress axis : x y z
#
# Youngs Moduli (GPa) = 25.51224 28.68646 89.79773
#
# Poissons Ratio (x) = 0.60606 0.35434
# Poissons Ratio (y) = 0.53900 0.63010
# Poissons Ratio (z) = 0.10067 0.20129
#
# Static dielectric constant tensor:
#      x y z
#    x 1.722910 0.000010 -0.023290 
#    y 0.000010 1.681410 0.000010 
#    z -0.023290 0.000010 1.742700 
# 
# From -- ./inp_files/245435.got.cif
#   From: 2010.05.17/outbox.cif.g08.bks.cpg/sg15_123_cif.got.tgz:245435.got - 2010.06.03 18:47:42.
