data_PCOD9264114
_publ_section_title
;
Structure prediction by ZEFSAII (Michael W. Deem and Ramdas Pophale) SiO2 
 PCOD9264114
Probable space group: C 2/C
;
_chemical_formula_sum "Si O2"
_cell_formula_units_Z 56
_cell_length_a 30.267672
_cell_length_b 20.193995
_cell_length_c 5.478765
_cell_angle_alpha 90.000000
_cell_angle_beta 55.507023
_cell_angle_gamma 90.000000
_cell_volume 2760.032733
_symmetry_space_group_name_H-M "C 2/C"
_symmetry_group_IT_number 15
_symmetry_cell_setting 'monoclinic'
loop_
_space_group_symop_operation_xyz
x,y,z
-x,y,1/2-z
-x,-y,-z
x,-y,1/2+z
1/2+x,1/2+y,z
1/2-x,1/2+y,1/2-z
1/2-x,1/2-y,-z
1/2+x,1/2-y,1/2+z
loop_
_atom_site_type_symbol
_atom_site_label
_atom_site_fract_x
_atom_site_fract_y
_atom_site_fract_z
Si Si1 0.218432 0.019481 0.070592
Si Si2 0.840004 0.532785 0.144332
Si Si3 0.388734 0.280087 0.941862
Si Si4 0.884788 0.645467 0.692275
Si Si5 0.310808 0.786656 0.071140
Si Si6 0.000000 0.339964 0.750000
Si Si7 0.704674 0.334495 0.505170
Si Si8 0.000000 0.747327 0.750000
O O1 0.223117 0.098281 0.073294
O O2 0.190730 0.005955 0.899774
O O3 0.275828 0.981275 0.864363
O O4 0.859866 0.488913 0.849390
O O5 0.857528 0.605128 0.997959
O O6 0.349288 0.243678 0.252028
O O7 0.353122 0.338436 0.942012
O O8 0.396939 0.222319 0.716667
O O9 0.446442 0.290360 0.879025
O O10 0.841543 0.653641 0.613680
O O11 0.944283 0.619527 0.447830
O O12 0.300344 0.725801 0.289625
O O13 0.252996 0.814216 0.172321
O O14 0.993244 0.297727 0.516832
#
# Coordination Sequence:
#
# PCOD9264114 Si02
#       8
#     8   8   8   8   8   4   8   4
#     4  10  22  37  55  77 110 156 192 234 272 341
#     4  10  22  36  54  77 104 152 201 238 274 330
#     4  10  21  34  59  85 116 150 183 242 289 359
#     4  10  21  35  57  81 113 154 198 234 295 336
#     4  10  19  35  55  84 119 150 182 243 293 360
#     4  10  20  36  56  85 112 151 192 242 280 344
#     4  10  22  34  53  87 117 151 193 234 299 341
#     4  10  20  38  58  87 118 149 192 224 302 348
#
# _framework density 20.289614
#
# number of rings (size 3 to 8) (size 9 to 14) (size 15 to 20)
#    0.000    2.000    1.429    2.143    8.000    0.000 
#    0.000    0.714    0.000    0.000    0.000    1.000 
#    0.000    0.000    0.000    0.000    0.000    0.000 
#
# Total GULP energy -155967.950424 kJ/mol
# GULP energy per Si atom -5570.283944 kJ/mol
# Density = 2.024343 g / cm^3
# Si number density = 20.289614 Si / 1000 Ang^3
#
#
#
# Elastic Constant Matrix: (Units=GPa)
#
#
# Indices 1 2 3 4 5 6 
#
# 1 99.4699 26.3173 20.8697 0.0000 -19.3464 0.0000
# 2 26.3173 56.8346 3.6452 0.0000 -7.6405 0.0000
# 3 20.8697 3.6452 68.0012 0.0000 15.3571 0.0000
# 4 0.0000 0.0000 0.0000 12.9897 0.0000 1.4437
# 5 -19.3464 -7.6405 15.3571 0.0000 34.8301 0.0000
# 6 0.0000 0.0000 0.0000 1.4437 0.0000 17.1729
#
#
#
# Elastic Compliance Matrix: (Units=1/GPa)
#
#
# Indices 1 2 3 4 5 6 
#
# 1 0.014669 -0.005048 -0.006465 0.000000 0.009891 0.000000
# 2 -0.005048 0.020135 0.000117 0.000000 0.001561 0.000000
# 3 -0.006465 0.000117 0.019423 0.000000 -0.012129 0.000000
# 4 0.000000 0.000000 0.000000 0.077710 0.000000 -0.006533
# 5 0.009891 0.001561 -0.012129 0.000000 0.039895 0.000000
# 6 0.000000 0.000000 0.000000 -0.006533 0.000000 0.058780
#
#
# Mechanical properties :
#
#
# Convention : Reuss Voigt Hill
#
# Bulk Modulus (GPa) = 31.81189 36.21890 34.01539
# Shear Modulus (GPa) = 18.94781 24.56345 21.75563
#
# Velocity S-wave (km/s) = 3.05924 3.48320 3.27808
# Velocity P-wave (km/s) = 5.30957 5.83666 5.57934
#
# Compressibility (1/GPa) = 0.03143479
#
# Stress axis : x y z
#
# Youngs Moduli (GPa) = 68.17024 49.66522 51.48621
#
# Poissons Ratio (x) = 0.25072 0.33287
# Poissons Ratio (y) = 0.34414 -0.00605
# Poissons Ratio (z) = 0.44073 -0.00583
#
# Static dielectric constant tensor:
#      x y z
#    x 1.806980 0.000000 0.027910 
#    y 0.000000 1.747130 0.000000 
#    z 0.027910 0.000000 1.787850 
# 
# From -- ./inp_files/15665.got.cif
#   From: 2010.05.17/outbox.cif.g08.bks.cpg/sg15_8_cif.got.tgz:15665.got - 2010.06.03 18:47:42.
