data_PCOD9264833
_publ_section_title
;
Structure prediction by ZEFSAII (Michael W. Deem and Ramdas Pophale) SiO2 
 PCOD9264833
Probable space group: C 2/C
;
_chemical_formula_sum "Si O2"
_cell_formula_units_Z 48
_cell_length_a 8.330017
_cell_length_b 28.983010
_cell_length_c 9.423732
_cell_angle_alpha 90.000000
_cell_angle_beta 81.128283
_cell_angle_gamma 90.000000
_cell_volume 2247.942098
_symmetry_space_group_name_H-M "C 2/C"
_symmetry_group_IT_number 15
_symmetry_cell_setting 'monoclinic'
loop_
_space_group_symop_operation_xyz
x,y,z
-x,y,1/2-z
-x,-y,-z
x,-y,1/2+z
1/2+x,1/2+y,z
1/2-x,1/2+y,1/2-z
1/2-x,1/2-y,-z
1/2+x,1/2-y,1/2+z
loop_
_atom_site_type_symbol
_atom_site_label
_atom_site_fract_x
_atom_site_fract_y
_atom_site_fract_z
Si Si1 0.355363 0.868346 0.161900
Si Si2 0.855298 0.710958 0.153131
Si Si3 0.916164 0.394195 0.615246
Si Si4 0.171607 0.482193 0.033337
Si Si5 0.125501 0.737319 0.892421
Si Si6 0.819292 0.044087 0.801994
O O1 0.500000 0.880199 0.250000
O O2 0.333809 0.814127 0.166679
O O3 0.203751 0.901036 0.206648
O O4 0.428353 0.883060 0.002541
O O5 0.829892 0.655860 0.135980
O O6 0.691577 0.731531 0.250267
O O7 0.000000 0.714974 0.250000
O O8 0.946881 0.732675 0.998612
O O9 0.810072 0.433273 0.551838
O O10 0.000000 0.409608 0.750000
O O11 0.283858 0.522432 0.958703
O O12 0.200511 0.475447 0.195564
O O13 0.000000 0.500000 0.000000
O O14 0.250000 0.750000 0.000000
O O15 0.000000 0.030027 0.750000
#
# Coordination Sequence:
#
# PCOD9264833 Si02
#       6
#     8   8   8   8   8   8
#     4  11  21  41  66  93 125 174 229 270 322 414
#     4   8  16  31  55  89 121 163 207 269 324 389
#     4  10  19  35  64  94 121 165 227 270 312 397
#     4  12  22  42  69  95 128 173 227 265 325 411
#     4   9  18  34  60  88 127 164 219 268 331 397
#     4  12  26  42  63  98 136 170 213 280 346 389
#
# _framework density 21.352864
#
# number of rings (size 3 to 8) (size 9 to 14) (size 15 to 20)
#    0.000    1.667    3.333    3.000    0.000    2.000 
#    0.000    3.333    3.667    0.000    0.000    0.000 
#    0.000    0.000    0.000    0.000    0.000    0.000 
#
# Total GULP energy -133626.928149 kJ/mol
# GULP energy per Si atom -5567.788673 kJ/mol
# Density = 2.130426 g / cm^3
# Si number density = 21.352864 Si / 1000 Ang^3
#
#
#
# Elastic Constant Matrix: (Units=GPa)
#
#
# Indices 1 2 3 4 5 6 
#
# 1 40.9134 10.3088 0.2482 0.0000 -16.3717 0.0000
# 2 10.3088 98.5747 23.8735 0.0000 -11.7294 0.0000
# 3 0.2482 23.8735 88.0285 0.0000 6.9345 0.0000
# 4 0.0000 0.0000 0.0000 53.7729 0.0000 -1.5102
# 5 -16.3717 -11.7294 6.9345 0.0000 32.6586 0.0000
# 6 0.0000 0.0000 0.0000 -1.5102 0.0000 23.4450
#
#
#
# Elastic Compliance Matrix: (Units=1/GPa)
#
#
# Indices 1 2 3 4 5 6 
#
# 1 0.030845 -0.001177 -0.000969 0.000000 0.015245 0.000000
# 2 -0.001177 0.011628 -0.003491 0.000000 0.004327 0.000000
# 3 -0.000969 -0.003491 0.012658 0.000000 -0.004427 0.000000
# 4 0.000000 0.000000 0.000000 0.018630 0.000000 0.001200
# 5 0.015245 0.004327 -0.004427 0.000000 0.040757 0.000000
# 6 0.000000 0.000000 0.000000 0.001200 0.000000 0.042730
#
#
# Mechanical properties :
#
#
# Convention : Reuss Voigt Hill
#
# Bulk Modulus (GPa) = 22.80116 32.93085 27.86600
# Shear Modulus (GPa) = 27.30129 34.84771 31.07450
#
# Velocity S-wave (km/s) = 3.57960 4.04417 3.81896
# Velocity P-wave (km/s) = 5.27126 6.10433 5.70302
#
# Compressibility (1/GPa) = 0.04385742
#
# Stress axis : x y z
#
# Youngs Moduli (GPa) = 32.42029 85.99836 78.99985
#
# Poissons Ratio (x) = 0.10122 0.07653
# Poissons Ratio (y) = 0.03816 0.27580
# Poissons Ratio (z) = 0.03141 0.30023
#
# Static dielectric constant tensor:
#      x y z
#    x 1.728250 0.000000 0.001580 
#    y 0.000000 2.217060 0.000000 
#    z 0.001580 0.000000 1.722330 
# 
# From -- ./inp_files/26073.got.cif
#   From: 2010.05.17/outbox.cif.g08.bks.cpg/sg15_14_cif.got.tgz:26073.got - 2010.06.03 18:47:42.
