data_PCOD9264613
_publ_section_title
;
Structure prediction by ZEFSAII (Michael W. Deem and Ramdas Pophale) SiO2 
 PCOD9264613
Probable space group: C 2/C
;
_chemical_formula_sum "Si O2"
_cell_formula_units_Z 56
_cell_length_a 20.460524
_cell_length_b 20.867145
_cell_length_c 18.253102
_cell_angle_alpha 90.000000
_cell_angle_beta 21.158823
_cell_angle_gamma 90.000000
_cell_volume 2812.994314
_symmetry_space_group_name_H-M "C 2/C"
_symmetry_group_IT_number 15
_symmetry_cell_setting 'monoclinic'
loop_
_space_group_symop_operation_xyz
x,y,z
-x,y,1/2-z
-x,-y,-z
x,-y,1/2+z
1/2+x,1/2+y,z
1/2-x,1/2+y,1/2-z
1/2-x,1/2-y,-z
1/2+x,1/2-y,1/2+z
loop_
_atom_site_type_symbol
_atom_site_label
_atom_site_fract_x
_atom_site_fract_y
_atom_site_fract_z
Si Si1 0.426459 0.947828 0.433946
Si Si2 0.730255 0.716085 0.940739
Si Si3 0.675624 0.813078 0.724784
Si Si4 0.194761 0.921262 0.531850
Si Si5 0.592883 0.910205 0.573672
Si Si6 0.919903 0.321715 0.510885
Si Si7 0.566240 0.318441 0.264273
O O1 0.309393 0.919389 0.487835
O O2 0.382350 0.897404 0.543562
O O3 0.371679 0.021211 0.499924
O O4 0.643547 0.948797 0.188927
O O5 0.674515 0.775945 0.949431
O O6 0.881842 0.687365 0.728622
O O7 0.750000 0.750000 0.000000
O O8 0.640045 0.648146 0.055841
O O9 0.545694 0.867344 0.827885
O O10 0.617796 0.799052 0.868227
O O11 0.646902 0.749224 0.706677
O O12 0.885738 0.832070 0.499806
O O13 0.000000 0.955206 0.750000
O O14 0.500000 0.922116 0.750000
O O15 0.777370 0.870913 0.391583
O O16 0.500000 0.314099 0.250000
#
# Coordination Sequence:
#
# PCOD9264613 Si02
#       7
#     8   8   8   8   8   8   8
#     4  10  23  41  61  93 134 171 215 267 324 391
#     4  11  20  35  64  96 124 172 229 268 312 376
#     4  12  25  43  66  99 133 168 215 272 345 393
#     4  10  19  35  60  92 124 164 222 267 311 373
#     4  12  24  43  70  97 128 171 221 273 330 396
#     4  11  24  41  62  95 141 175 211 278 331 389
#     4  12  24  43  72 100 125 165 223 283 328 393
#
# _framework density 19.907612
#
# number of rings (size 3 to 8) (size 9 to 14) (size 15 to 20)
#    0.000    0.857    5.714    3.000    0.000    2.286 
#    0.000    0.714    0.000    0.000    0.000    0.000 
#    0.000    0.000    0.000    0.000    0.000    0.000 
#
# Total GULP energy -155893.605475 kJ/mol
# GULP energy per Si atom -5567.628767 kJ/mol
# Density = 1.986230 g / cm^3
# Si number density = 19.907612 Si / 1000 Ang^3
#
#
#
# Elastic Constant Matrix: (Units=GPa)
#
#
# Indices 1 2 3 4 5 6 
#
# 1 45.4514 31.0432 14.5528 0.0305 1.3486 0.0701
# 2 31.0432 150.8465 16.8218 0.2576 -11.7119 0.4289
# 3 14.5528 16.8218 108.8755 0.3351 -10.8059 0.5539
# 4 0.0305 0.2576 0.3351 -104.0365 -0.0575 -160.2654
# 5 1.3486 -11.7119 -10.8059 -0.0575 28.9607 -0.1360
# 6 0.0701 0.4289 0.5539 -160.2654 -0.1360 -193.1144
#
#
#
# Elastic Compliance Matrix: (Units=1/GPa)
#
#
# Indices 1 2 3 4 5 6 
#
# 1 0.026964 -0.005556 -0.003212 0.000002 -0.004701 -0.000010
# 2 -0.005556 0.008059 -0.000159 0.000015 0.003458 0.000001
# 3 -0.003212 -0.000159 0.010018 0.000032 0.003823 -0.000002
# 4 0.000002 0.000015 0.000032 0.034522 -0.000048 -0.028649
# 5 -0.004701 0.003458 0.003823 -0.000048 0.037574 0.000030
# 6 -0.000010 0.000001 -0.000002 -0.028649 0.000030 0.018598
#
#
# Mechanical properties :
#
#
# Convention : Reuss Voigt Hill
#
# Bulk Modulus (GPa) = 36.78315 47.77877 42.28096
# Shear Modulus (GPa) = 30.74066 -37.45433 -3.35684
#
# Velocity S-wave (km/s) = 3.93385 -4.34223 -1.29995
# Velocity P-wave (km/s) = 6.25705 1.04285 4.36252
#
# Compressibility (1/GPa) = 0.02718636
#
# Stress axis : x y z
#
# Youngs Moduli (GPa) = 37.08626 124.08717 99.81875
#
# Poissons Ratio (x) = 0.68940 0.32065
# Poissons Ratio (y) = 0.20604 0.01590
# Poissons Ratio (z) = 0.11913 0.01977
#
# Static dielectric constant tensor:
#      x y z
#    x 1.698630 0.000000 -0.027560 
#    y 0.000000 1.738610 0.000020 
#    z -0.027560 0.000020 1.734820 
# 
# From -- ./inp_files/216631.got.cif
#   From: 2010.05.17/outbox.cif.g08.bks.cpg/sg15_109_cif.got.tgz:216631.got - 2010.06.03 18:47:42.
