data_PCOD9264078
_publ_section_title
;
Structure prediction by ZEFSAII (Michael W. Deem and Ramdas Pophale) SiO2 
 PCOD9264078
Probable space group: C 2/C
;
_chemical_formula_sum "Si O2"
_cell_formula_units_Z 56
_cell_length_a 8.611889
_cell_length_b 23.357658
_cell_length_c 17.198836
_cell_angle_alpha 90.000000
_cell_angle_beta 54.362319
_cell_angle_gamma 90.000000
_cell_volume 2811.684053
_symmetry_space_group_name_H-M "C 2/C"
_symmetry_group_IT_number 15
_symmetry_cell_setting 'monoclinic'
loop_
_space_group_symop_operation_xyz
x,y,z
-x,y,1/2-z
-x,-y,-z
x,-y,1/2+z
1/2+x,1/2+y,z
1/2-x,1/2+y,1/2-z
1/2-x,1/2-y,-z
1/2+x,1/2-y,1/2+z
loop_
_atom_site_type_symbol
_atom_site_label
_atom_site_fract_x
_atom_site_fract_y
_atom_site_fract_z
Si Si1 0.870942 0.363621 0.862567
Si Si2 0.485344 0.718812 0.007125
Si Si3 0.214918 0.880763 0.499812
Si Si4 0.506061 0.669944 0.832719
Si Si5 0.575734 0.852392 0.480871
Si Si6 0.093854 0.034517 0.400812
Si Si7 0.227204 0.577113 0.691013
O O1 0.712491 0.314128 0.918508
O O2 0.758059 0.423218 0.883953
O O3 0.000000 0.354058 0.750000
O O4 0.977275 0.364298 0.914036
O O5 0.636593 0.684363 0.016418
O O6 0.530219 0.709251 0.901975
O O7 0.456858 0.785442 0.028459
O O8 0.427263 0.885313 0.470190
O O9 0.207107 0.901052 0.413082
O O10 0.067201 0.922938 0.586191
O O11 0.500000 0.699110 0.750000
O O12 0.678674 0.624244 0.780752
O O13 0.302646 0.637867 0.905503
O O14 0.185469 0.985608 0.320503
O O15 0.000000 0.000000 0.500000
O O16 0.000000 0.575363 0.750000
#
# Coordination Sequence:
#
# PCOD9264078 Si02
#       7
#     8   8   8   8   8   8   8
#     4  10  20  35  54  78 107 143 183 224 270 323
#     4   9  20  35  54  77 109 147 179 216 270 324
#     4   9  19  35  54  77 107 139 177 222 265 314
#     4  10  20  34  54  83 109 135 180 227 264 318
#     4  11  20  34  55  80 108 143 181 223 267 317
#     4   9  18  36  56  74 104 143 178 218 274 329
#     4  10  19  35  55  77 104 138 173 216 272 323
#
# _framework density 19.916888
#
# number of rings (size 3 to 8) (size 9 to 14) (size 15 to 20)
#    0.000    2.286    0.000    6.000    0.000    2.286 
#    0.000   12.143    0.000    5.143    0.000    0.000 
#    0.000    0.000    0.000    0.000    0.000    0.000 
#
# Total GULP energy -156084.065961 kJ/mol
# GULP energy per Si atom -5574.430927 kJ/mol
# Density = 1.987156 g / cm^3
# Si number density = 19.916888 Si / 1000 Ang^3
#
#
#
# Elastic Constant Matrix: (Units=GPa)
#
#
# Indices 1 2 3 4 5 6 
#
# 1 62.1037 -6.6164 -7.0679 0.0000 -10.9003 0.0000
# 2 -6.6164 70.6969 -1.7099 0.0000 -12.4672 0.0000
# 3 -7.0679 -1.7099 64.8127 0.0000 -0.3137 0.0000
# 4 0.0000 0.0000 0.0000 5.8043 0.0000 1.7152
# 5 -10.9003 -12.4672 -0.3137 0.0000 26.5519 0.0000
# 6 0.0000 0.0000 0.0000 1.7152 0.0000 3.9716
#
#
#
# Elastic Compliance Matrix: (Units=1/GPa)
#
#
# Indices 1 2 3 4 5 6 
#
# 1 0.018305 0.003374 0.002129 0.000000 0.009124 0.000000
# 2 0.003374 0.016056 0.000835 0.000000 0.008934 0.000000
# 3 0.002129 0.000835 0.015690 0.000000 0.001452 0.000000
# 4 0.000000 0.000000 0.000000 0.197490 0.000000 -0.085288
# 5 0.009124 0.008934 0.001452 0.000000 0.045620 0.000000
# 6 0.000000 0.000000 0.000000 -0.085288 0.000000 0.288622
#
#
# Mechanical properties :
#
#
# Convention : Reuss Voigt Hill
#
# Bulk Modulus (GPa) = 15.94195 18.53608 17.23902
# Shear Modulus (GPa) = 8.47433 21.46606 14.97019
#
# Velocity S-wave (km/s) = 2.06497 3.28652 2.74457
# Velocity P-wave (km/s) = 3.70230 4.87119 4.32641
#
# Compressibility (1/GPa) = 0.06272757
#
# Stress axis : x y z
#
# Youngs Moduli (GPa) = 54.62903 62.28085 63.73349
#
# Poissons Ratio (x) = -0.21011 -0.13571
# Poissons Ratio (y) = -0.18430 -0.05320
# Poissons Ratio (z) = -0.11633 -0.05199
#
# Static dielectric constant tensor:
#      x y z
#    x 1.746680 0.000000 -0.021630 
#    y 0.000000 1.733060 0.000000 
#    z -0.021630 0.000000 1.734260 
# 
# From -- ./inp_files/193223.got.cif
#   From: 2010.05.17/outbox.cif.g08.bks.cpg/sg15_97_cif.got.tgz:193223.got - 2010.06.03 18:47:42.
