data_PCOD9264703
_publ_section_title
;
Structure prediction by ZEFSAII (Michael W. Deem and Ramdas Pophale) SiO2 
 PCOD9264703
Probable space group: C 2/C
;
_chemical_formula_sum "Si O2"
_cell_formula_units_Z 40
_cell_length_a 17.261966
_cell_length_b 9.858933
_cell_length_c 24.087427
_cell_angle_alpha 90.000000
_cell_angle_beta 18.859390
_cell_angle_gamma 90.000000
_cell_volume 1325.088181
_symmetry_space_group_name_H-M "C 2/C"
_symmetry_group_IT_number 15
_symmetry_cell_setting 'monoclinic'
loop_
_space_group_symop_operation_xyz
x,y,z
-x,y,1/2-z
-x,-y,-z
x,-y,1/2+z
1/2+x,1/2+y,z
1/2-x,1/2+y,1/2-z
1/2-x,1/2-y,-z
1/2+x,1/2-y,1/2+z
loop_
_atom_site_type_symbol
_atom_site_label
_atom_site_fract_x
_atom_site_fract_y
_atom_site_fract_z
Si Si1 0.263948 0.597656 0.936977
Si Si2 0.648397 0.396035 0.344300
Si Si3 0.120560 0.338592 0.976755
Si Si4 0.865247 0.599500 0.284084
Si Si5 0.474454 0.375681 0.879638
O O1 0.500000 0.665267 0.750000
O O2 0.153565 0.499425 0.964998
O O3 0.359577 0.482272 0.914991
O O4 0.057004 0.669165 0.112559
O O5 0.390277 0.327899 0.531540
O O6 0.564086 0.529663 0.368199
O O7 0.783806 0.464798 0.305016
O O8 0.835664 0.323045 0.176568
O O9 0.291175 0.311593 0.809269
O O10 0.193509 0.238319 0.978249
O O11 0.000000 0.562297 0.250000
#
# Coordination Sequence:
#
# PCOD9264703 Si02
#       5
#     8   8   8   8   8
#     4   9  19  35  53  89 124 152 183 236 306 357
#     4  10  22  37  59  88 118 160 194 237 300 344
#     4  10  23  35  57  89 121 158 194 235 298 352
#     4  10  19  35  62  85 115 151 199 239 286 351
#     4  11  21  37  59  84 124 154 193 246 288 355
#
# _framework density 30.186669999999999
#
# number of rings (size 3 to 8) (size 9 to 14) (size 15 to 20)
#    0.000    2.000    2.000    1.200    8.400    0.000 
#    0.000    0.000    0.000    1.200    0.000    0.000 
#    0.000    0.000    0.000    0.000    0.000    0.000 
#
# Total GULP energy -112079.109832 kJ/mol
# GULP energy per Si atom -5603.955492 kJ/mol
# Density = 3.011796 g / cm^3
# Si number density = 30.186670 Si / 1000 Ang^3
#
#
#
# Elastic Constant Matrix: (Units=GPa)
#
#
# Indices 1 2 3 4 5 6 
#
# 1 120.0518 23.7438 71.5504 0.0050 18.3273 0.0121
# 2 23.7438 80.6687 30.8887 -0.0103 6.3285 0.0093
# 3 71.5504 30.8887 294.3927 -0.0107 47.5193 0.0314
# 4 0.0050 -0.0103 -0.0107 63.3691 0.0144 16.0076
# 5 18.3273 6.3285 47.5193 0.0144 89.2686 0.0078
# 6 0.0121 0.0093 0.0314 16.0076 0.0078 36.3507
#
#
#
# Elastic Compliance Matrix: (Units=1/GPa)
#
#
# Indices 1 2 3 4 5 6 
#
# 1 0.010128 -0.002110 -0.002110 -0.000001 -0.000807 0.000000
# 2 -0.002110 0.013358 -0.000882 0.000003 -0.000045 -0.000003
# 3 -0.002110 -0.000882 0.004291 0.000002 -0.001788 -0.000003
# 4 -0.000001 0.000003 0.000002 0.017756 -0.000003 -0.007819
# 5 -0.000807 -0.000045 -0.001788 -0.000003 0.012323 0.000001
# 6 0.000000 -0.000003 -0.000003 -0.007819 0.000001 0.030953
#
#
# Mechanical properties :
#
#
# Convention : Reuss Voigt Hill
#
# Bulk Modulus (GPa) = 56.90150 83.05323 69.97736
# Shear Modulus (GPa) = 47.67842 62.39303 55.03572
#
# Velocity S-wave (km/s) = 3.97854 4.55126 4.27450
# Velocity P-wave (km/s) = 6.32423 7.42910 6.89882
#
# Compressibility (1/GPa) = 0.01757423
#
# Stress axis : x y z
#
# Youngs Moduli (GPa) = 98.73971 74.85893 233.05648
#
# Poissons Ratio (x) = 0.15794 0.49173
# Poissons Ratio (y) = 0.20832 0.20548
# Poissons Ratio (z) = 0.20833 0.06600
#
# Static dielectric constant tensor:
#      x y z
#    x 2.422690 0.000000 -0.039330 
#    y 0.000000 2.284480 0.000050 
#    z -0.039330 0.000050 2.374010 
# 
# From -- ./inp_files/299059.got.cif
#   From: 2010.05.17/outbox.cif.g08.bks.cpg/sg15_150_cif.got.tgz:299059.got - 2010.06.03 18:47:42.
