data_PCOD9264424
_publ_section_title
;
Structure prediction by ZEFSAII (Michael W. Deem and Ramdas Pophale) SiO2 
 PCOD9264424
Probable space group: C 2/C
;
_chemical_formula_sum "Si O2"
_cell_formula_units_Z 48
_cell_length_a 15.247109
_cell_length_b 14.015384
_cell_length_c 12.136421
_cell_angle_alpha 90.000000
_cell_angle_beta 126.027453
_cell_angle_gamma 90.000000
_cell_volume 2097.439882
_symmetry_space_group_name_H-M "C 2/C"
_symmetry_group_IT_number 15
_symmetry_cell_setting 'monoclinic'
loop_
_space_group_symop_operation_xyz
x,y,z
-x,y,1/2-z
-x,-y,-z
x,-y,1/2+z
1/2+x,1/2+y,z
1/2-x,1/2+y,1/2-z
1/2-x,1/2-y,-z
1/2+x,1/2-y,1/2+z
loop_
_atom_site_type_symbol
_atom_site_label
_atom_site_fract_x
_atom_site_fract_y
_atom_site_fract_z
Si Si1 0.611220 0.185441 0.449079
Si Si2 0.956243 0.523884 0.340475
Si Si3 0.616434 0.403195 0.968114
Si Si4 0.247329 0.407737 0.238659
Si Si5 0.693476 0.620591 0.051279
Si Si6 0.140407 0.092994 0.246982
O O1 0.495793 0.134218 0.366799
O O2 0.677338 0.158537 0.608775
O O3 0.616096 0.298445 0.441795
O O4 0.689899 0.136262 0.417347
O O5 0.838964 0.475676 0.261865
O O6 0.000000 0.488612 0.250000
O O7 0.000000 0.500000 0.500000
O O8 0.643233 0.516177 0.998142
O O9 0.487185 0.395574 0.871710
O O10 0.660869 0.368248 0.883679
O O11 0.676138 0.357479 0.115952
O O12 0.322528 0.481910 0.226441
O O13 0.699459 0.637850 0.186656
#
# Coordination Sequence:
#
# PCOD9264424 Si02
#       6
#     8   8   8   8   8   8
#     4  10  21  37  55  91 120 149 184 242 297 349
#     4  10  21  36  58  86 119 160 199 233 285 360
#     4  10  20  37  59  84 106 150 204 237 281 347
#     4  10  19  35  59  80 118 149 194 231 292 354
#     4  10  19  37  60  84 121 143 189 248 291 336
#     4  10  20  36  59  82 108 150 201 239 282 345
#
# _framework density 22.885041999999999
#
# number of rings (size 3 to 8) (size 9 to 14) (size 15 to 20)
#    0.000    2.000    1.667    4.000    2.333    0.000 
#    3.000    9.167   14.667    0.000    0.000    0.000 
#    0.000    0.000    0.000    0.000    0.000    0.000 
#
# Total GULP energy -133709.742691 kJ/mol
# GULP energy per Si atom -5571.239279 kJ/mol
# Density = 2.283296 g / cm^3
# Si number density = 22.885042 Si / 1000 Ang^3
#
#
#
# Elastic Constant Matrix: (Units=GPa)
#
#
# Indices 1 2 3 4 5 6 
#
# 1 78.7024 0.3057 29.8228 0.0000 -19.4273 0.0000
# 2 0.3057 44.0291 -5.0963 0.0000 0.4730 0.0000
# 3 29.8228 -5.0963 125.2715 0.0000 -7.7139 0.0000
# 4 0.0000 0.0000 0.0000 18.4229 0.0000 3.0027
# 5 -19.4273 0.4730 -7.7139 0.0000 40.1925 0.0000
# 6 0.0000 0.0000 0.0000 3.0027 0.0000 5.1040
#
#
#
# Elastic Compliance Matrix: (Units=1/GPa)
#
#
# Indices 1 2 3 4 5 6 
#
# 1 0.015685 -0.000569 -0.003329 0.000000 0.006949 0.000000
# 2 -0.000569 0.022841 0.001043 0.000000 -0.000344 0.000000
# 3 -0.003329 0.001043 0.008822 0.000000 0.000072 0.000000
# 4 0.000000 0.000000 0.000000 0.060037 0.000000 -0.035319
# 5 0.006949 -0.000344 0.000072 0.000000 0.028257 0.000000
# 6 0.000000 0.000000 0.000000 -0.035319 0.000000 0.216702
#
#
# Mechanical properties :
#
#
# Convention : Reuss Voigt Hill
#
# Bulk Modulus (GPa) = 24.01620 33.11861 28.56741
# Shear Modulus (GPa) = 13.44327 27.60860 20.52593
#
# Velocity S-wave (km/s) = 2.42632 3.47710 2.99810
# Velocity P-wave (km/s) = 4.28561 5.53385 4.94924
#
# Compressibility (1/GPa) = 0.04163855
#
# Stress axis : x y z
#
# Youngs Moduli (GPa) = 63.75392 43.78151 113.35136
#
# Poissons Ratio (x) = 0.02491 0.37739
# Poissons Ratio (y) = 0.03627 -0.11828
# Poissons Ratio (z) = 0.21226 -0.04569
#
# Static dielectric constant tensor:
#      x y z
#    x 1.874320 0.000000 -0.023940 
#    y 0.000000 1.871880 0.000000 
#    z -0.023940 0.000000 1.967490 
# 
# From -- ./inp_files/97165.got.cif
#   From: 2010.05.17/outbox.cif.g08.bks.cpg/sg15_49_cif.got.tgz:97165.got - 2010.06.03 18:47:42.
