data_PCOD9264321
_publ_section_title
;
Structure prediction by ZEFSAII (Michael W. Deem and Ramdas Pophale) SiO2 
 PCOD9264321
Probable space group: C 2/C
;
_chemical_formula_sum "Si O2"
_cell_formula_units_Z 48
_cell_length_a 6.582419
_cell_length_b 27.025747
_cell_length_c 13.630190
_cell_angle_alpha 90.000000
_cell_angle_beta 91.768246
_cell_angle_gamma 90.000000
_cell_volume 2423.585171
_symmetry_space_group_name_H-M "C 2/C"
_symmetry_group_IT_number 15
_symmetry_cell_setting 'monoclinic'
loop_
_space_group_symop_operation_xyz
x,y,z
-x,y,1/2-z
-x,-y,-z
x,-y,1/2+z
1/2+x,1/2+y,z
1/2-x,1/2+y,1/2-z
1/2-x,1/2-y,-z
1/2+x,1/2-y,1/2+z
loop_
_atom_site_type_symbol
_atom_site_label
_atom_site_fract_x
_atom_site_fract_y
_atom_site_fract_z
Si Si1 0.566336 0.730031 0.564024
Si Si2 0.000000 0.169149 0.750000
Si Si3 0.868023 0.577054 0.150886
Si Si4 0.690761 0.822235 0.966483
Si Si5 0.500000 0.523999 0.250000
Si Si6 0.381157 0.125698 0.849272
Si Si7 0.387681 0.984092 0.353718
O O1 0.750000 0.750000 0.500000
O O2 0.609487 0.702566 0.667963
O O3 0.423325 0.777127 0.586484
O O4 0.419619 0.694468 0.496519
O O5 0.150900 0.134530 0.812585
O O6 0.826719 0.626699 0.091313
O O7 0.653974 0.555359 0.185373
O O8 0.000000 0.589348 0.250000
O O9 0.997853 0.532329 0.101500
O O10 0.578485 0.833120 0.068612
O O11 0.652162 0.494426 0.324461
O O12 0.500000 0.131028 0.750000
O O13 0.410512 0.071081 0.894290
O O14 0.500000 0.980404 0.250000
#
# Coordination Sequence:
#
# PCOD9264321 Si02
#       7
#     8   4   8   8   4   8   8
#     4  10  22  40  57  80 114 142 185 240 282 329
#     4  10  21  36  60  84 106 148 190 227 286 342
#     4   9  19  34  53  79 113 147 184 224 270 330
#     4  10  22  37  54  83 111 138 191 233 270 342
#     4   8  15  32  50  72 110 146 182 219 270 318
#     4  10  19  35  58  81 109 145 180 229 285 328
#     4   8  16  30  52  79 109 143 182 224 268 332
#
# _framework density 19.80537
#
# number of rings (size 3 to 8) (size 9 to 14) (size 15 to 20)
#    0.000    3.000    0.000    1.500    1.167    3.333 
#    0.000    0.833    0.000    0.000    0.000    0.000 
#    0.000    0.000    0.000    0.000    0.000    0.000 
#
# Total GULP energy -133605.918031 kJ/mol
# GULP energy per Si atom -5566.913251 kJ/mol
# Density = 1.976029 g / cm^3
# Si number density = 19.805370 Si / 1000 Ang^3
#
#
#
# Elastic Constant Matrix: (Units=GPa)
#
#
# Indices 1 2 3 4 5 6 
#
# 1 90.3035 30.9085 20.8998 0.0000 -10.3327 0.0000
# 2 30.9085 112.7566 32.0183 0.0000 5.2779 0.0000
# 3 20.8998 32.0183 54.4325 0.0000 -8.5594 0.0000
# 4 0.0000 0.0000 0.0000 25.4520 0.0000 11.0338
# 5 -10.3327 5.2779 -8.5594 0.0000 11.9716 0.0000
# 6 0.0000 0.0000 0.0000 11.0338 0.0000 10.9610
#
#
#
# Elastic Compliance Matrix: (Units=1/GPa)
#
#
# Indices 1 2 3 4 5 6 
#
# 1 0.014309 -0.004340 -0.000786 0.000000 0.013701 0.000000
# 2 -0.004340 0.013234 -0.008590 0.000000 -0.015722 0.000000
# 3 -0.000786 -0.008590 0.027282 0.000000 0.022614 0.000000
# 4 0.000000 0.000000 0.000000 0.069711 0.000000 -0.070174
# 5 0.013701 -0.015722 0.022614 0.000000 0.118457 0.000000
# 6 0.000000 0.000000 0.000000 -0.070174 0.000000 0.161873
#
#
# Mechanical properties :
#
#
# Convention : Reuss Voigt Hill
#
# Bulk Modulus (GPa) = 36.50811 47.23844 41.87327
# Shear Modulus (GPa) = 11.32683 21.25465 16.29074
#
# Velocity S-wave (km/s) = 2.39405 3.27949 2.87111
# Velocity P-wave (km/s) = 5.11033 6.18411 5.67268
#
# Compressibility (1/GPa) = 0.02739118
#
# Stress axis : x y z
#
# Youngs Moduli (GPa) = 69.88552 75.56548 36.65395
#
# Poissons Ratio (x) = 0.32798 0.02883
# Poissons Ratio (y) = 0.30333 0.31486
# Poissons Ratio (z) = 0.05496 0.64911
#
# Static dielectric constant tensor:
#      x y z
#    x 1.734990 0.000000 0.017610 
#    y 0.000000 1.712430 0.000000 
#    z 0.017610 0.000000 1.718230 
# 
# From -- ./inp_files/130086.got.cif
#   From: 2010.05.17/outbox.cif.g08.bks.cpg/sg15_66_cif.got.tgz:130086.got - 2010.06.03 18:47:42.
