data_PCOD9264824
_publ_section_title
;
Structure prediction by ZEFSAII (Michael W. Deem and Ramdas Pophale) SiO2 
 PCOD9264824
Probable space group: C 2/C
;
_chemical_formula_sum "Si O2"
_cell_formula_units_Z 44
_cell_length_a 11.957688
_cell_length_b 10.494382
_cell_length_c 14.866612
_cell_angle_alpha 90.000000
_cell_angle_beta 75.386336
_cell_angle_gamma 90.000000
_cell_volume 1805.235887
_symmetry_space_group_name_H-M "C 2/C"
_symmetry_group_IT_number 15
_symmetry_cell_setting 'monoclinic'
loop_
_space_group_symop_operation_xyz
x,y,z
-x,y,1/2-z
-x,-y,-z
x,-y,1/2+z
1/2+x,1/2+y,z
1/2-x,1/2+y,1/2-z
1/2-x,1/2-y,-z
1/2+x,1/2-y,1/2+z
loop_
_atom_site_type_symbol
_atom_site_label
_atom_site_fract_x
_atom_site_fract_y
_atom_site_fract_z
Si Si1 0.023498 0.637645 0.948937
Si Si2 0.375403 0.449660 0.733193
Si Si3 0.462290 0.649863 0.588401
Si Si4 0.655887 0.832184 0.741362
Si Si5 0.500000 0.929794 0.250000
Si Si6 0.704560 0.640201 0.597644
O O1 0.159978 0.651406 0.944415
O O2 0.995606 0.637261 0.848013
O O3 0.000000 0.500000 0.000000
O O4 0.951560 0.754893 0.006678
O O5 0.500000 0.422107 0.750000
O O6 0.393478 0.523733 0.634848
O O7 0.288305 0.332727 0.746563
O O8 0.313846 0.545982 0.814722
O O9 0.423382 0.745637 0.678459
O O10 0.596631 0.604171 0.556811
O O11 0.663599 0.777212 0.640664
O O12 0.607067 0.973252 0.742907
#
# Coordination Sequence:
#
# PCOD9264824 Si02
#       6
#     8   8   8   8   4   8
#     4  12  22  38  62  96 127 163 212 256 311 370
#     4   9  19  35  58  88 121 164 207 253 306 367
#     4  10  20  36  62  89 119 160 219 256 301 372
#     4  11  18  39  60  91 125 160 205 259 310 368
#     4  12  22  36  62  94 126 158 200 262 320 356
#     4  10  19  35  64  91 120 160 213 256 301 368
#
# _framework density 24.373546000000001
#
# number of rings (size 3 to 8) (size 9 to 14) (size 15 to 20)
#    0.000    1.455    5.455    1.636    0.000    0.000 
#    1.636    1.818    0.000    0.000    0.000    0.000 
#    0.000    0.000    0.000    0.000    0.000    0.000 
#
# Total GULP energy -122660.826848 kJ/mol
# GULP energy per Si atom -5575.492129 kJ/mol
# Density = 2.431807 g / cm^3
# Si number density = 24.373546 Si / 1000 Ang^3
#
#
#
# Elastic Constant Matrix: (Units=GPa)
#
#
# Indices 1 2 3 4 5 6 
#
# 1 109.2857 15.2347 33.1161 0.0000 -28.0150 0.0000
# 2 15.2347 42.0309 36.2806 0.0000 -2.9096 0.0000
# 3 33.1161 36.2806 132.9290 0.0000 13.0860 0.0000
# 4 0.0000 0.0000 0.0000 46.3099 0.0000 -9.9384
# 5 -28.0150 -2.9096 13.0860 0.0000 37.1437 0.0000
# 6 0.0000 0.0000 0.0000 -9.9384 0.0000 31.0154
#
#
#
# Elastic Compliance Matrix: (Units=1/GPa)
#
#
# Indices 1 2 3 4 5 6 
#
# 1 0.013560 -0.000238 -0.004473 0.000000 0.011785 0.000000
# 2 -0.000238 0.032307 -0.009313 0.000000 0.005632 0.000000
# 3 -0.004473 -0.009313 0.011999 0.000000 -0.008331 0.000000
# 4 0.000000 0.000000 0.000000 0.023188 0.000000 0.007430
# 5 0.011785 0.005632 -0.008331 0.000000 0.039187 0.000000
# 6 0.000000 0.000000 0.000000 0.007430 0.000000 0.034623
#
#
# Mechanical properties :
#
#
# Convention : Reuss Voigt Hill
#
# Bulk Modulus (GPa) = 33.53686 50.38981 41.96334
# Shear Modulus (GPa) = 25.92668 36.20141 31.06404
#
# Velocity S-wave (km/s) = 3.26501 3.85811 3.57388
# Velocity P-wave (km/s) = 5.29180 6.36911 5.85528
#
# Compressibility (1/GPa) = 0.02981794
#
# Stress axis : x y z
#
# Youngs Moduli (GPa) = 73.74627 30.95327 83.33948
#
# Poissons Ratio (x) = 0.00736 0.37281
# Poissons Ratio (y) = 0.01754 0.77612
# Poissons Ratio (z) = 0.32989 0.28826
#
# Static dielectric constant tensor:
#      x y z
#    x 1.991160 0.000000 0.021540 
#    y 0.000000 2.027430 0.000000 
#    z 0.021540 0.000000 1.955440 
# 
# From -- ./inp_files/195935.got.cif
#   From: 2010.05.17/outbox.cif.g08.bks.cpg/sg15_98_cif.got.tgz:195935.got - 2010.06.03 18:47:42.
