data_PCOD9264190
_publ_section_title
;
Structure prediction by ZEFSAII (Michael W. Deem and Ramdas Pophale) SiO2 
 PCOD9264190
Probable space group: C 2/C
;
_chemical_formula_sum "Si O2"
_cell_formula_units_Z 48
_cell_length_a 16.097490
_cell_length_b 11.240896
_cell_length_c 14.284482
_cell_angle_alpha 90.000000
_cell_angle_beta 73.121584
_cell_angle_gamma 90.000000
_cell_volume 2473.435532
_symmetry_space_group_name_H-M "C 2/C"
_symmetry_group_IT_number 15
_symmetry_cell_setting 'monoclinic'
loop_
_space_group_symop_operation_xyz
x,y,z
-x,y,1/2-z
-x,-y,-z
x,-y,1/2+z
1/2+x,1/2+y,z
1/2-x,1/2+y,1/2-z
1/2-x,1/2-y,-z
1/2+x,1/2-y,1/2+z
loop_
_atom_site_type_symbol
_atom_site_label
_atom_site_fract_x
_atom_site_fract_y
_atom_site_fract_z
Si Si1 0.567517 0.043430 0.098256
Si Si2 0.225388 0.370079 0.063033
Si Si3 0.186388 0.766821 0.749673
Si Si4 0.101932 0.435058 0.372489
Si Si5 0.305882 0.758219 0.884714
Si Si6 0.294759 0.494939 0.871157
O O1 0.617596 0.148206 0.132786
O O2 0.627919 0.924664 0.087223
O O3 0.468264 0.017333 0.154777
O O4 0.569042 0.083010 0.988797
O O5 0.236591 0.328050 0.165841
O O6 0.250000 0.250000 0.000000
O O7 0.281197 0.465371 0.986022
O O8 0.108490 0.688760 0.816163
O O9 0.243661 0.798357 0.820744
O O10 0.164711 0.882960 0.695985
O O11 0.197892 0.489393 0.357381
O O12 0.336427 0.624328 0.851588
O O13 0.250000 0.750000 0.000000
#
# Coordination Sequence:
#
# PCOD9264190 Si02
#       6
#     8   8   8   8   8   8
#     4  10  19  35  56  87 119 147 197 243 301 351
#     4   9  18  33  52  79 109 152 196 241 279 344
#     4  10  20  33  53  85 114 153 198 237 289 352
#     4   9  19  34  56  89 114 149 192 250 293 349
#     4  11  19  32  54  85 119 155 190 244 296 350
#     4   9  19  35  55  85 115 152 199 238 291 357
#
# _framework density 19.406206000000001
#
# number of rings (size 3 to 8) (size 9 to 14) (size 15 to 20)
#    0.000    2.333    5.000    0.000    4.667    0.667 
#    0.000    0.000    0.000    0.000   39.000   24.500 
#    0.000    0.000    0.000    0.000    0.000    0.000 
#
# Total GULP energy -133611.370720 kJ/mol
# GULP energy per Si atom -5567.140447 kJ/mol
# Density = 1.936204 g / cm^3
# Si number density = 19.406206 Si / 1000 Ang^3
#
#
#
# Elastic Constant Matrix: (Units=GPa)
#
#
# Indices 1 2 3 4 5 6 
#
# 1 71.6070 47.9296 26.2690 0.0000 0.8688 0.0000
# 2 47.9296 127.6478 31.9844 0.0000 -6.8120 0.0000
# 3 26.2690 31.9844 81.1996 0.0000 23.4510 0.0000
# 4 0.0000 0.0000 0.0000 36.8902 0.0000 2.4110
# 5 0.8688 -6.8120 23.4510 0.0000 20.8522 0.0000
# 6 0.0000 0.0000 0.0000 2.4110 0.0000 34.1942
#
#
#
# Elastic Compliance Matrix: (Units=1/GPa)
#
#
# Indices 1 2 3 4 5 6 
#
# 1 0.019744 -0.006106 -0.004693 0.000000 0.002460 0.000000
# 2 -0.006106 0.012224 -0.006022 0.000000 0.011021 0.000000
# 3 -0.004693 -0.006022 0.024759 0.000000 -0.029617 0.000000
# 4 0.000000 0.000000 0.000000 0.027233 0.000000 -0.001920
# 5 0.002460 0.011021 -0.029617 0.000000 0.084763 0.000000
# 6 0.000000 0.000000 0.000000 -0.001920 0.000000 0.029380
#
#
# Mechanical properties :
#
#
# Convention : Reuss Voigt Hill
#
# Bulk Modulus (GPa) = 43.31914 54.75782 49.03848
# Shear Modulus (GPa) = 20.88200 30.00539 25.44369
#
# Velocity S-wave (km/s) = 3.28387 3.93641 3.62486
# Velocity P-wave (km/s) = 6.06211 6.99559 6.54552
#
# Compressibility (1/GPa) = 0.02308448
#
# Stress axis : x y z
#
# Youngs Moduli (GPa) = 50.64818 81.80566 40.38902
#
# Poissons Ratio (x) = 0.49955 0.18953
# Poissons Ratio (y) = 0.30928 0.24324
# Poissons Ratio (z) = 0.23767 0.49267
#
# Static dielectric constant tensor:
#      x y z
#    x 1.702450 0.000000 0.008100 
#    y 0.000000 1.708650 0.000000 
#    z 0.008100 0.000000 1.754610 
# 
# From -- ./inp_files/160300.got.cif
#   From: 2010.05.17/outbox.cif.g08.bks.cpg/sg15_81_cif.got.tgz:160300.got - 2010.06.03 18:47:42.
