data_PCOD9264892
_publ_section_title
;
Structure prediction by ZEFSAII (Michael W. Deem and Ramdas Pophale) SiO2 
 PCOD9264892
Probable space group: C 2/C
;
_chemical_formula_sum "Si O2"
_cell_formula_units_Z 32
_cell_length_a 15.577275
_cell_length_b 12.086202
_cell_length_c 11.410009
_cell_angle_alpha 90.000000
_cell_angle_beta 145.350883
_cell_angle_gamma 90.000000
_cell_volume 1221.336551
_symmetry_space_group_name_H-M "C 2/C"
_symmetry_group_IT_number 15
_symmetry_cell_setting 'monoclinic'
loop_
_space_group_symop_operation_xyz
x,y,z
-x,y,1/2-z
-x,-y,-z
x,-y,1/2+z
1/2+x,1/2+y,z
1/2-x,1/2+y,1/2-z
1/2-x,1/2-y,-z
1/2+x,1/2-y,1/2+z
loop_
_atom_site_type_symbol
_atom_site_label
_atom_site_fract_x
_atom_site_fract_y
_atom_site_fract_z
Si Si1 0.207025 0.529870 0.796680
Si Si2 0.181086 0.653511 0.999343
Si Si3 0.994036 0.839043 0.554019
Si Si4 0.983811 0.336417 0.870546
O O1 0.376996 0.570315 0.968497
O O2 0.164686 0.401827 0.753026
O O3 0.114856 0.595030 0.589604
O O4 0.147786 0.564666 0.860759
O O5 0.058343 0.724602 0.935284
O O6 0.335796 0.618944 0.238153
O O7 0.250000 0.750000 0.000000
O O8 0.978766 0.790305 0.407115
O O9 0.000000 0.340548 0.750000
#
# Coordination Sequence:
#
# PCOD9264892 Si02
#       4
#     8   8   8   8
#     4  10  23  39  67  98 138 178 232 274 333 413
#     4  10  19  35  70  98 130 168 235 276 326 393
#     4  11  21  42  71 101 130 182 230 285 329 406
#     4  11  25  40  66 102 140 182 223 277 348 413
#
# _framework density 26.200801999999999
#
# number of rings (size 3 to 8) (size 9 to 14) (size 15 to 20)
#    0.000    1.500    5.000    3.000    7.000    1.000 
#    0.000    1.250    5.500    0.000    0.000    0.000 
#    0.000    0.000    0.000    0.000    0.000    0.000 
#
# Total GULP energy -89265.559210 kJ/mol
# GULP energy per Si atom -5579.097451 kJ/mol
# Density = 2.614117 g / cm^3
# Si number density = 26.200802 Si / 1000 Ang^3
#
#
#
# Elastic Constant Matrix: (Units=GPa)
#
#
# Indices 1 2 3 4 5 6 
#
# 1 159.5717 6.2930 80.8509 0.0000 -12.9343 0.0000
# 2 6.2930 49.8066 19.8970 0.0000 -16.3696 0.0000
# 3 80.8509 19.8970 118.2293 0.0000 -3.8796 0.0000
# 4 0.0000 0.0000 0.0000 27.6354 0.0000 -5.3836
# 5 -12.9343 -16.3696 -3.8796 0.0000 42.2296 0.0000
# 6 0.0000 0.0000 0.0000 -5.3836 0.0000 29.5818
#
#
#
# Elastic Compliance Matrix: (Units=1/GPa)
#
#
# Indices 1 2 3 4 5 6 
#
# 1 0.010131 0.002783 -0.007281 0.000000 0.003513 0.000000
# 2 0.002783 0.025401 -0.005845 0.000000 0.010162 0.000000
# 3 -0.007281 -0.005845 0.014317 0.000000 -0.003180 0.000000
# 4 0.000000 0.000000 0.000000 0.037515 0.000000 0.006827
# 5 0.003513 0.010162 -0.003180 0.000000 0.028403 0.000000
# 6 0.000000 0.000000 0.000000 0.006827 0.000000 0.035047
#
#
# Mechanical properties :
#
#
# Convention : Reuss Voigt Hill
#
# Bulk Modulus (GPa) = 34.28987 60.18773 47.23880
# Shear Modulus (GPa) = 27.59084 34.59380 31.09232
#
# Velocity S-wave (km/s) = 3.24860 3.63758 3.44858
# Velocity P-wave (km/s) = 5.21411 6.37685 5.82457
#
# Compressibility (1/GPa) = 0.02916313
#
# Stress axis : x y z
#
# Youngs Moduli (GPa) = 98.70751 39.36916 69.84904
#
# Poissons Ratio (x) = -0.10957 0.50858
# Poissons Ratio (y) = -0.27473 0.40824
# Poissons Ratio (z) = 0.71871 0.23010
#
# Static dielectric constant tensor:
#      x y z
#    x 2.218540 0.000000 -0.232280 
#    y 0.000000 2.049580 0.000000 
#    z -0.232280 0.000000 2.444620 
# 
# From -- ./inp_files/105581.got.cif
#   From: 2010.05.17/outbox.cif.g08.bks.cpg/sg15_53_cif.got.tgz:105581.got - 2010.06.03 18:47:42.
