data_PCOD9264609
_publ_section_title
;
Structure prediction by ZEFSAII (Michael W. Deem and Ramdas Pophale) SiO2 
 PCOD9264609
Probable space group: C 2/C
;
_chemical_formula_sum "Si O2"
_cell_formula_units_Z 44
_cell_length_a 31.757624
_cell_length_b 11.701189
_cell_length_c 5.386662
_cell_angle_alpha 90.000000
_cell_angle_beta 109.218378
_cell_angle_gamma 90.000000
_cell_volume 1890.141417
_symmetry_space_group_name_H-M "C 2/C"
_symmetry_group_IT_number 15
_symmetry_cell_setting 'monoclinic'
loop_
_space_group_symop_operation_xyz
x,y,z
-x,y,1/2-z
-x,-y,-z
x,-y,1/2+z
1/2+x,1/2+y,z
1/2-x,1/2+y,1/2-z
1/2-x,1/2-y,-z
1/2+x,1/2-y,1/2+z
loop_
_atom_site_type_symbol
_atom_site_label
_atom_site_fract_x
_atom_site_fract_y
_atom_site_fract_z
Si Si1 0.355372 0.073308 0.982531
Si Si2 0.044637 0.570911 0.404257
Si Si3 0.400586 0.633968 0.039853
Si Si4 0.137844 0.124485 0.035575
Si Si5 0.721569 0.738106 0.194890
Si Si6 0.500000 0.423118 0.750000
O O1 0.316295 0.164644 0.879146
O O2 0.350952 0.984252 0.744908
O O3 0.406319 0.116405 0.049840
O O4 0.042049 0.528833 0.684842
O O5 0.000000 0.642452 0.250000
O O6 0.377404 0.680824 0.238292
O O7 0.386307 0.499335 0.008544
O O8 0.453600 0.644631 0.155873
O O9 0.379508 0.681079 0.749721
O O10 0.191329 0.122748 0.133997
O O11 0.750000 0.750000 0.500000
O O12 0.750000 0.750000 0.000000
O O13 0.500000 0.500000 0.500000
#
# Coordination Sequence:
#
# PCOD9264609 Si02
#       6
#     8   8   8   8   8   4
#     4  10  21  41  64  89 119 155 201 247 299 368
#     4   8  14  27  54  85 108 141 182 229 283 347
#     4  10  19  35  60  92 118 170 194 237 295 365
#     4  10  20  37  56  82 119 155 202 246 302 353
#     4  12  26  45  61  89 123 161 203 267 322 348
#     4  12  16  30  58  92 130 158 210 236 280 364
#
# _framework density 23.278680000000001
#
# number of rings (size 3 to 8) (size 9 to 14) (size 15 to 20)
#    0.000    1.818    3.636    2.182    0.000    0.000 
#   19.636    0.000    6.000    0.000    4.727    0.000 
#    0.000    0.000    0.000    0.000    0.000    0.000 
#
# Total GULP energy -122820.659581 kJ/mol
# GULP energy per Si atom -5582.757254 kJ/mol
# Density = 2.322570 g / cm^3
# Si number density = 23.278680 Si / 1000 Ang^3
#
#
#
# Elastic Constant Matrix: (Units=GPa)
#
#
# Indices 1 2 3 4 5 6 
#
# 1 200.1627 18.9840 90.7766 0.0000 8.2163 0.0000
# 2 18.9840 37.1002 15.3235 0.0000 9.2539 0.0000
# 3 90.7766 15.3235 216.3440 0.0000 -9.9579 0.0000
# 4 0.0000 0.0000 0.0000 22.1112 0.0000 -14.1971
# 5 8.2163 9.2539 -9.9579 0.0000 71.5190 0.0000
# 6 0.0000 0.0000 0.0000 -14.1971 0.0000 -10.0606
#
#
#
# Elastic Compliance Matrix: (Units=1/GPa)
#
#
# Indices 1 2 3 4 5 6 
#
# 1 0.006388 -0.001996 -0.002578 0.000000 -0.000835 0.000000
# 2 -0.001996 0.029510 -0.001427 0.000000 -0.003788 0.000000
# 3 -0.002578 -0.001427 0.005865 0.000000 0.001297 0.000000
# 4 0.000000 0.000000 0.000000 0.023727 0.000000 -0.033483
# 5 -0.000835 -0.003788 0.001297 0.000000 0.014749 0.000000
# 6 0.000000 0.000000 0.000000 -0.033483 0.000000 -0.052148
#
#
# Mechanical properties :
#
#
# Convention : Reuss Voigt Hill
#
# Bulk Modulus (GPa) = 33.60072 78.19725 55.89899
# Shear Modulus (GPa) = 99.97449 38.61544 69.29496
#
# Velocity S-wave (km/s) = 6.56049 4.07730 5.46188
# Velocity P-wave (km/s) = 8.47657 7.47198 7.99008
#
# Compressibility (1/GPa) = 0.02976126
#
# Stress axis : x y z
#
# Youngs Moduli (GPa) = 156.53154 33.88737 170.51493
#
# Poissons Ratio (x) = 0.06765 0.43952
# Poissons Ratio (y) = 0.31247 0.24331
# Poissons Ratio (z) = 0.40347 0.04835
#
# Static dielectric constant tensor:
#      x y z
#    x 1.866290 0.000000 0.063040 
#    y 0.000000 1.880460 0.000000 
#    z 0.063040 0.000000 1.640400 
# 
# From -- ./inp_files/16949.got.cif
#   From: 2010.05.17/outbox.cif.g08.bks.cpg/sg15_9_cif.got.tgz:16949.got - 2010.06.03 18:47:42.
