data_PCOD9264763
_publ_section_title
;
Structure prediction by ZEFSAII (Michael W. Deem and Ramdas Pophale) SiO2 
 PCOD9264763
Probable space group: C 2/C
;
_chemical_formula_sum "Si O2"
_cell_formula_units_Z 40
_cell_length_a 11.536174
_cell_length_b 16.195922
_cell_length_c 9.194164
_cell_angle_alpha 90.000000
_cell_angle_beta 108.604294
_cell_angle_gamma 90.000000
_cell_volume 1628.062207
_symmetry_space_group_name_H-M "C 2/C"
_symmetry_group_IT_number 15
_symmetry_cell_setting 'monoclinic'
loop_
_space_group_symop_operation_xyz
x,y,z
-x,y,1/2-z
-x,-y,-z
x,-y,1/2+z
1/2+x,1/2+y,z
1/2-x,1/2+y,1/2-z
1/2-x,1/2-y,-z
1/2+x,1/2-y,1/2+z
loop_
_atom_site_type_symbol
_atom_site_label
_atom_site_fract_x
_atom_site_fract_y
_atom_site_fract_z
Si Si1 0.130847 0.541855 0.727402
Si Si2 0.944790 0.197907 0.574780
Si Si3 0.361619 0.777417 0.256849
Si Si4 0.257437 0.451545 0.997902
Si Si5 0.883289 0.874059 0.598297
O O1 0.187394 0.631536 0.795196
O O2 0.208652 0.464580 0.815925
O O3 0.141360 0.547538 0.559107
O O4 0.000000 0.537293 0.750000
O O5 0.876420 0.259655 0.435014
O O6 0.848824 0.123471 0.560847
O O7 0.000000 0.229026 0.750000
O O8 0.056575 0.161683 0.524655
O O9 0.500000 0.781224 0.250000
O O10 0.307083 0.698141 0.151617
O O11 0.325867 0.537054 0.056309
O O12 0.000000 0.888379 0.750000
#
# Coordination Sequence:
#
# PCOD9264763 Si02
#       5
#     8   8   8   8   8
#     4  11  24  42  56  78 117 162 209 241 271 336
#     4  10  19  35  62  97 122 139 181 248 308 356
#     4   8  19  39  58  79 119 161 192 232 288 348
#     4  12  22  36  63  89 117 155 194 243 297 344
#     4   9  18  36  60  89 120 149 185 237 304 364
#
# _framework density 24.569085999999999
#
# number of rings (size 3 to 8) (size 9 to 14) (size 15 to 20)
#    0.000    2.400    0.000    5.400    0.000    1.600 
#    0.000    9.000    0.000    0.000    0.000    0.000 
#    0.000    0.000    0.000    0.000    0.000    0.000 
#
# Total GULP energy -111690.130581 kJ/mol
# GULP energy per Si atom -5584.506529 kJ/mol
# Density = 2.451317 g / cm^3
# Si number density = 24.569086 Si / 1000 Ang^3
#
#
#
# Elastic Constant Matrix: (Units=GPa)
#
#
# Indices 1 2 3 4 5 6 
#
# 1 68.2281 20.6332 27.3113 0.0000 -11.1498 0.0000
# 2 20.6332 51.2136 5.5999 0.0000 13.8666 0.0000
# 3 27.3113 5.5999 122.8711 0.0000 -21.9460 0.0000
# 4 0.0000 0.0000 0.0000 20.5582 0.0000 0.4765
# 5 -11.1498 13.8666 -21.9460 0.0000 30.7219 0.0000
# 6 0.0000 0.0000 0.0000 0.4765 0.0000 17.8398
#
#
#
# Elastic Compliance Matrix: (Units=1/GPa)
#
#
# Indices 1 2 3 4 5 6 
#
# 1 0.020641 -0.011051 -0.002127 0.000000 0.010960 0.000000
# 2 -0.011051 0.029329 -0.002248 0.000000 -0.018854 0.000000
# 3 -0.002127 -0.002248 0.010038 0.000000 0.007413 0.000000
# 4 0.000000 0.000000 0.000000 0.048672 0.000000 -0.001300
# 5 0.010960 -0.018854 0.007413 0.000000 0.050333 0.000000
# 6 0.000000 0.000000 0.000000 -0.001300 0.000000 0.056089
#
#
# Mechanical properties :
#
#
# Convention : Reuss Voigt Hill
#
# Bulk Modulus (GPa) = 34.29735 38.82239 36.55987
# Shear Modulus (GPa) = 19.55622 26.40855 22.98239
#
# Velocity S-wave (km/s) = 2.82435 3.28208 3.06178
# Velocity P-wave (km/s) = 4.96244 5.49530 5.23565
#
# Compressibility (1/GPa) = 0.02915677
#
# Stress axis : x y z
#
# Youngs Moduli (GPa) = 48.44709 34.09582 99.62263
#
# Poissons Ratio (x) = 0.37679 0.21188
# Poissons Ratio (y) = 0.53538 0.22394
# Poissons Ratio (z) = 0.10304 0.07664
#
# Static dielectric constant tensor:
#      x y z
#    x 1.928300 0.000000 0.018260 
#    y 0.000000 1.967290 0.000000 
#    z 0.018260 0.000000 2.011630 
# 
# From -- ./inp_files/29353.got.cif
#   From: 2010.05.17/outbox.cif.g08.bks.cpg/sg15_15_cif.got.tgz:29353.got - 2010.06.03 18:47:42.
