data_PCOD9264748
_publ_section_title
;
Structure prediction by ZEFSAII (Michael W. Deem and Ramdas Pophale) SiO2 
 PCOD9264748
Probable space group: C 2/C
;
_chemical_formula_sum "Si O2"
_cell_formula_units_Z 60
_cell_length_a 16.767934
_cell_length_b 16.016857
_cell_length_c 8.513594
_cell_angle_alpha 90.000000
_cell_angle_beta 85.495982
_cell_angle_gamma 90.000000
_cell_volume 2279.431465
_symmetry_space_group_name_H-M "C 2/C"
_symmetry_group_IT_number 15
_symmetry_cell_setting 'monoclinic'
loop_
_space_group_symop_operation_xyz
x,y,z
-x,y,1/2-z
-x,-y,-z
x,-y,1/2+z
1/2+x,1/2+y,z
1/2-x,1/2+y,1/2-z
1/2-x,1/2-y,-z
1/2+x,1/2-y,1/2+z
loop_
_atom_site_type_symbol
_atom_site_label
_atom_site_fract_x
_atom_site_fract_y
_atom_site_fract_z
Si Si1 0.136200 0.729288 0.928821
Si Si2 0.590329 0.680492 0.733820
Si Si3 0.587650 0.483272 0.053932
Si Si4 0.606730 0.104205 0.511341
Si Si5 0.703810 0.461451 0.762386
Si Si6 0.500000 0.780257 0.250000
Si Si7 0.743849 0.651830 0.833275
Si Si8 0.623352 0.921034 0.655819
O O1 0.142400 0.783409 0.082911
O O2 0.110774 0.641149 0.012770
O O3 0.063171 0.768787 0.843110
O O4 0.205625 0.709178 0.795526
O O5 0.500000 0.716395 0.750000
O O6 0.579159 0.583913 0.693149
O O7 0.653348 0.686780 0.866239
O O8 0.640069 0.446844 0.907124
O O9 0.500000 0.500000 0.000000
O O10 0.649759 0.551581 0.115642
O O11 0.550371 0.162829 0.622735
O O12 0.697641 0.137112 0.528308
O O13 0.583565 0.098652 0.331378
O O14 0.604787 0.012555 0.591248
O O15 0.734230 0.558884 0.757119
O O16 0.783372 0.415000 0.805866
#
# Coordination Sequence:
#
# PCOD9264748 Si02
#       8
#     8   8   8   8   8   4   8   8
#     4  11  24  42  66  88 132 179 219 267 339 405
#     4  11  24  41  66  93 132 179 221 270 334 399
#     4  11  21  38  63  95 130 165 212 280 338 382
#     4  10  21  37  63  94 126 163 217 275 332 387
#     4  10  19  35  62  94 123 157 211 267 323 387
#     4  10  24  42  60  88 126 168 218 286 326 392
#     4   9  19  41  64  90 127 167 211 266 325 390
#     4  11  21  36  62  94 124 168 214 271 330 394
#
# _framework density 26.322351999999999
#
# number of rings (size 3 to 8) (size 9 to 14) (size 15 to 20)
#    0.000    1.600    0.000    8.000    1.867    2.133 
#    2.400    0.667    2.933    0.000    0.000    0.000 
#    0.000    0.000    0.000    0.000    0.000    0.000 
#
# Total GULP energy -167633.727573 kJ/mol
# GULP energy per Si atom -5587.790919 kJ/mol
# Density = 2.626244 g / cm^3
# Si number density = 26.322352 Si / 1000 Ang^3
#
#
#
# Elastic Constant Matrix: (Units=GPa)
#
#
# Indices 1 2 3 4 5 6 
#
# 1 120.4776 4.9569 30.6737 0.0000 25.6458 0.0000
# 2 4.9569 37.6190 4.1444 0.0000 -0.3886 0.0000
# 3 30.6737 4.1444 77.4436 0.0000 15.9533 0.0000
# 4 0.0000 0.0000 0.0000 39.9822 0.0000 5.0141
# 5 25.6458 -0.3886 15.9533 0.0000 53.2493 0.0000
# 6 0.0000 0.0000 0.0000 5.0141 0.0000 13.4792
#
#
#
# Elastic Compliance Matrix: (Units=1/GPa)
#
#
# Indices 1 2 3 4 5 6 
#
# 1 0.009954 -0.001011 -0.003090 0.000000 -0.003875 0.000000
# 2 -0.001011 0.026865 -0.001255 0.000000 0.001059 0.000000
# 3 -0.003090 -0.001255 0.014813 0.000000 -0.002959 0.000000
# 4 0.000000 0.000000 0.000000 0.026235 0.000000 -0.009759
# 5 -0.003875 0.001059 -0.002959 0.000000 0.021540 0.000000
# 6 0.000000 0.000000 0.000000 -0.009759 0.000000 0.077818
#
#
# Mechanical properties :
#
#
# Convention : Reuss Voigt Hill
#
# Bulk Modulus (GPa) = 24.43875 35.01004 29.72439
# Shear Modulus (GPa) = 24.80433 34.39315 29.59874
#
# Velocity S-wave (km/s) = 3.07307 3.61863 3.35695
# Velocity P-wave (km/s) = 4.67934 5.54876 5.13249
#
# Compressibility (1/GPa) = 0.04091863
#
# Stress axis : x y z
#
# Youngs Moduli (GPa) = 100.46659 37.22343 67.50734
#
# Poissons Ratio (x) = 0.03764 0.20859
# Poissons Ratio (y) = 0.10159 0.08475
# Poissons Ratio (z) = 0.31044 0.04673
#
# Static dielectric constant tensor:
#      x y z
#    x 2.114270 0.000000 0.024450 
#    y 0.000000 2.116990 0.000000 
#    z 0.024450 0.000000 2.061030 
# 
# From -- ./inp_files/49098.got.cif
#   From: 2010.05.17/outbox.cif.g08.bks.cpg/sg15_25_cif.got.tgz:49098.got - 2010.06.03 18:47:42.
