data_PCOD9264206
_publ_section_title
;
Structure prediction by ZEFSAII (Michael W. Deem and Ramdas Pophale) SiO2 
 PCOD9264206
Probable space group: C 2/C
;
_chemical_formula_sum "Si O2"
_cell_formula_units_Z 44
_cell_length_a 11.595952
_cell_length_b 19.602601
_cell_length_c 8.782209
_cell_angle_alpha 90.000000
_cell_angle_beta 119.346243
_cell_angle_gamma 90.000000
_cell_volume 1740.115099
_symmetry_space_group_name_H-M "C 2/C"
_symmetry_group_IT_number 15
_symmetry_cell_setting 'monoclinic'
loop_
_space_group_symop_operation_xyz
x,y,z
-x,y,1/2-z
-x,-y,-z
x,-y,1/2+z
1/2+x,1/2+y,z
1/2-x,1/2+y,1/2-z
1/2-x,1/2-y,-z
1/2+x,1/2-y,1/2+z
loop_
_atom_site_type_symbol
_atom_site_label
_atom_site_fract_x
_atom_site_fract_y
_atom_site_fract_z
Si Si1 0.637071 0.537956 0.406784
Si Si2 0.000000 0.514317 0.250000
Si Si3 0.309577 0.118366 0.278413
Si Si4 0.888942 0.287164 0.084601
Si Si5 0.680518 0.905409 0.232927
Si Si6 0.362102 0.374486 0.090868
O O1 0.500000 0.564346 0.250000
O O2 0.749667 0.566133 0.365763
O O3 0.688043 0.562025 0.603897
O O4 0.623409 0.456861 0.411742
O O5 0.885190 0.570512 0.205308
O O6 0.940264 0.460169 0.338483
O O7 0.396394 0.175424 0.423544
O O8 0.187623 0.150983 0.105178
O O9 0.868907 0.348298 0.188216
O O10 0.000000 0.244954 0.250000
O O11 0.750000 0.250000 0.000000
O O12 0.739138 0.867659 0.125825
O O13 0.500000 0.347479 0.250000
#
# Coordination Sequence:
#
# PCOD9264206 Si02
#       6
#     8   4   8   8   8   8
#     4  10  19  35  56  93 143 189 228 269 348 438
#     4  12  22  40  70 112 158 174 238 280 396 418
#     4  11  25  39  70 106 143 189 226 299 361 432
#     4  11  28  51  75  98 134 192 261 297 353 432
#     4  11  23  38  68 102 144 190 224 297 359 432
#     4  11  21  36  60 103 148 185 225 282 364 435
#
# _framework density 25.285684
#
# number of rings (size 3 to 8) (size 9 to 14) (size 15 to 20)
#    0.000    1.091    4.545    1.091    2.545   10.909 
#    0.000    0.909    2.000    0.000    0.000    0.000 
#    0.000    0.000    0.000    0.000    0.000    0.000 
#
# Total GULP energy -122525.898826 kJ/mol
# GULP energy per Si atom -5569.359038 kJ/mol
# Density = 2.522813 g / cm^3
# Si number density = 25.285684 Si / 1000 Ang^3
#
#
#
# Elastic Constant Matrix: (Units=GPa)
#
#
# Indices 1 2 3 4 5 6 
#
# 1 104.6747 15.9785 37.0673 0.0000 17.5149 0.0000
# 2 15.9785 23.9664 18.2183 0.0000 15.5002 0.0000
# 3 37.0673 18.2183 158.0993 0.0000 23.4423 0.0000
# 4 0.0000 0.0000 0.0000 16.8694 0.0000 9.4394
# 5 17.5149 15.5002 23.4423 0.0000 35.4830 0.0000
# 6 0.0000 0.0000 0.0000 9.4394 0.0000 5.0840
#
#
#
# Elastic Compliance Matrix: (Units=1/GPa)
#
#
# Indices 1 2 3 4 5 6 
#
# 1 0.011283 -0.004649 -0.001757 0.000000 -0.002378 0.000000
# 2 -0.004649 0.061620 -0.002616 0.000000 -0.022895 0.000000
# 3 -0.001757 -0.002616 0.007473 0.000000 -0.002927 0.000000
# 4 0.000000 0.000000 0.000000 -1.523178 0.000000 2.828060
# 5 -0.002378 -0.022895 -0.002927 0.000000 0.041291 0.000000
# 6 0.000000 0.000000 0.000000 2.828060 0.000000 -5.054118
#
#
# Mechanical properties :
#
#
# Convention : Reuss Voigt Hill
#
# Bulk Modulus (GPa) = 16.04315 47.69650 31.86983
# Shear Modulus (GPa) = -0.77920 25.85237 12.53658
#
# Velocity S-wave (km/s) = -0.55572 3.20099 2.22907
# Velocity P-wave (km/s) = 2.43860 5.70664 4.38819
#
# Compressibility (1/GPa) = 0.06233188
#
# Stress axis : x y z
#
# Youngs Moduli (GPa) = 88.62751 16.22838 133.82380
#
# Poissons Ratio (x) = 0.07545 0.23514
# Poissons Ratio (y) = 0.41203 0.35008
# Poissons Ratio (z) = 0.15573 0.04245
#
# Static dielectric constant tensor:
#      x y z
#    x 1.968590 0.000000 0.041620 
#    y 0.000000 1.976570 0.000000 
#    z 0.041620 0.000000 2.191050 
# 
# From -- ./inp_files/32744.got.cif
#   From: 2010.05.17/outbox.cif.g08.bks.cpg/sg15_17_cif.got.tgz:32744.got - 2010.06.03 18:47:42.
