data_PCOD9264717
_publ_section_title
;
Structure prediction by ZEFSAII (Michael W. Deem and Ramdas Pophale) SiO2 
 PCOD9264717
Probable space group: C 2/C
;
_chemical_formula_sum "Si O2"
_cell_formula_units_Z 56
_cell_length_a 26.120291
_cell_length_b 9.876726
_cell_length_c 15.225456
_cell_angle_alpha 90.000000
_cell_angle_beta 135.710285
_cell_angle_gamma 90.000000
_cell_volume 2742.806432
_symmetry_space_group_name_H-M "C 2/C"
_symmetry_group_IT_number 15
_symmetry_cell_setting 'monoclinic'
loop_
_space_group_symop_operation_xyz
x,y,z
-x,y,1/2-z
-x,-y,-z
x,-y,1/2+z
1/2+x,1/2+y,z
1/2-x,1/2+y,1/2-z
1/2-x,1/2-y,-z
1/2+x,1/2-y,1/2+z
loop_
_atom_site_type_symbol
_atom_site_label
_atom_site_fract_x
_atom_site_fract_y
_atom_site_fract_z
Si Si1 0.114709 0.908226 0.511623
Si Si2 0.843935 0.394407 0.610577
Si Si3 0.889696 0.800126 0.426961
Si Si4 0.087066 0.325017 0.353896
Si Si5 0.578737 0.465885 0.796031
Si Si6 0.749255 0.267744 0.646920
Si Si7 0.463826 0.720066 0.848802
O O1 0.191070 0.847251 0.635062
O O2 0.049194 0.800236 0.434749
O O3 0.090542 0.044271 0.530136
O O4 0.129036 0.959071 0.429221
O O5 0.866239 0.548382 0.620776
O O6 0.793266 0.364062 0.633044
O O7 0.799314 0.333310 0.473012
O O8 0.919279 0.313922 0.726777
O O9 0.891323 0.722340 0.521223
O O10 0.810912 0.797168 0.283648
O O11 0.946566 0.738132 0.426837
O O12 0.097793 0.190087 0.307067
O O13 0.000000 0.357037 0.250000
O O14 0.500000 0.464102 0.750000
O O15 0.570812 0.569092 0.706956
#
# Coordination Sequence:
#
# PCOD9264717 Si02
#       7
#     8   8   8   8   8   8   8
#     4  10  19  35  62  88 116 163 210 243 296 364
#     4  10  22  39  63  87 122 164 200 254 302 369
#     4  10  23  40  59  92 129 156 200 261 307 357
#     4  10  22  39  63  87 126 158 200 257 323 349
#     4   8  16  33  57  88 113 151 202 253 287 353
#     4  10  22  39  58  88 124 159 209 243 302 371
#     4  10  19  38  68  91 115 158 218 251 292 359
#
# _framework density 20.417041999999999
#
# number of rings (size 3 to 8) (size 9 to 14) (size 15 to 20)
#    0.000    2.286    1.429    1.286    4.000    0.000 
#    0.000    8.571    0.000    0.000    0.000    0.000 
#    0.000    0.000    0.000    0.000    0.000    0.000 
#
# Total GULP energy -156161.138603 kJ/mol
# GULP energy per Si atom -5577.183522 kJ/mol
# Density = 2.037057 g / cm^3
# Si number density = 20.417042 Si / 1000 Ang^3
#
#
#
# Elastic Constant Matrix: (Units=GPa)
#
#
# Indices 1 2 3 4 5 6 
#
# 1 30.5574 20.2778 26.6860 0.0000 6.1183 0.0000
# 2 20.2778 93.2967 17.9907 0.0000 5.1845 0.0000
# 3 26.6860 17.9907 93.7773 0.0000 11.1022 0.0000
# 4 0.0000 0.0000 0.0000 18.8289 0.0000 9.1425
# 5 6.1183 5.1845 11.1022 0.0000 34.4504 0.0000
# 6 0.0000 0.0000 0.0000 9.1425 0.0000 24.5410
#
#
#
# Elastic Compliance Matrix: (Units=1/GPa)
#
#
# Indices 1 2 3 4 5 6 
#
# 1 0.049443 -0.008217 -0.012060 0.000000 -0.003658 0.000000
# 2 -0.008217 0.012531 -0.000016 0.000000 -0.000421 0.000000
# 3 -0.012060 -0.000016 0.014394 0.000000 -0.002494 0.000000
# 4 0.000000 0.000000 0.000000 0.064839 0.000000 -0.024155
# 5 -0.003658 -0.000421 -0.002494 0.000000 0.030544 0.000000
# 6 0.000000 0.000000 0.000000 -0.024155 0.000000 0.049747
#
#
# Mechanical properties :
#
#
# Convention : Reuss Voigt Hill
#
# Bulk Modulus (GPa) = 27.94786 38.61558 33.28172
# Shear Modulus (GPa) = 18.24741 25.74250 21.99496
#
# Velocity S-wave (km/s) = 2.99278 3.55467 3.28576
# Velocity P-wave (km/s) = 5.06562 5.98348 5.54358
#
# Compressibility (1/GPa) = 0.03578091
#
# Stress axis : x y z
#
# Youngs Moduli (GPa) = 20.22527 79.80227 69.47394
#
# Poissons Ratio (x) = 0.65577 0.83788
# Poissons Ratio (y) = 0.16620 0.00109
# Poissons Ratio (z) = 0.24392 0.00125
#
# Static dielectric constant tensor:
#      x y z
#    x 1.738140 0.000000 0.001480 
#    y 0.000000 1.729260 0.000000 
#    z 0.001480 0.000000 1.750570 
# 
# From -- ./inp_files/224431.got.cif
#   From: 2010.05.17/outbox.cif.g08.bks.cpg/sg15_113_cif.got.tgz:224431.got - 2010.06.03 18:47:42.
