data_PCOD9264165
_publ_section_title
;
Structure prediction by ZEFSAII (Michael W. Deem and Ramdas Pophale) SiO2 
 PCOD9264165
Probable space group: C 2/C
;
_chemical_formula_sum "Si O2"
_cell_formula_units_Z 64
_cell_length_a 12.395189
_cell_length_b 18.445199
_cell_length_c 17.766662
_cell_angle_alpha 90.000000
_cell_angle_beta 56.598286
_cell_angle_gamma 90.000000
_cell_volume 3391.104019
_symmetry_space_group_name_H-M "C 2/C"
_symmetry_group_IT_number 15
_symmetry_cell_setting 'monoclinic'
loop_
_space_group_symop_operation_xyz
x,y,z
-x,y,1/2-z
-x,-y,-z
x,-y,1/2+z
1/2+x,1/2+y,z
1/2-x,1/2+y,1/2-z
1/2-x,1/2-y,-z
1/2+x,1/2-y,1/2+z
loop_
_atom_site_type_symbol
_atom_site_label
_atom_site_fract_x
_atom_site_fract_y
_atom_site_fract_z
Si Si1 0.786719 0.598884 0.937870
Si Si2 0.806387 0.460932 0.263714
Si Si3 0.111362 0.538682 0.008145
Si Si4 0.968058 0.673382 0.674239
Si Si5 0.585098 0.617308 0.131148
Si Si6 0.359437 0.461324 0.314797
Si Si7 0.560364 0.114825 0.304058
Si Si8 0.675879 0.684536 0.245631
O O1 0.775361 0.576248 0.855226
O O2 0.833659 0.526005 0.961295
O O3 0.891253 0.662089 0.915272
O O4 0.653498 0.622195 0.025514
O O5 0.900108 0.403202 0.187968
O O6 0.690693 0.471591 0.250611
O O7 0.878985 0.536960 0.243382
O O8 0.041684 0.596638 0.090039
O O9 0.235370 0.566713 0.911574
O O10 0.000000 0.500000 0.000000
O O11 0.869918 0.739241 0.701202
O O12 0.000000 0.677889 0.750000
O O13 0.612958 0.539104 0.156893
O O14 0.646344 0.675240 0.167166
O O15 0.433671 0.630341 0.181117
O O16 0.500000 0.423627 0.250000
O O17 0.500000 0.145632 0.250000
O O18 0.679759 0.161729 0.289994
#
# Coordination Sequence:
#
# PCOD9264165 Si02
#       8
#     8   8   8   8   8   8   8   8
#     4  10  20  33  56  88 114 142 191 238 292 345
#     4  11  19  36  57  82 117 145 185 243 288 331
#     4  11  19  32  58  86 112 149 194 230 285 348
#     4  10  19  35  56  82 112 148 186 231 293 338
#     4  10  19  36  56  84 114 150 188 234 289 351
#     4  11  20  36  58  85 117 146 191 239 288 344
#     4  12  20  36  57  81 116 151 192 241 281 340
#     4  11  21  37  57  79 118 151 190 237 291 344
#
# _framework density 18.872910000000001
#
# number of rings (size 3 to 8) (size 9 to 14) (size 15 to 20)
#    0.000    1.250    7.500    1.125    0.000    0.500 
#    2.250    2.500    0.000    0.000    0.000    5.250 
#    0.000    0.000    0.000    0.000    0.000    0.000 
#
# Total GULP energy -178167.265192 kJ/mol
# GULP energy per Si atom -5567.727037 kJ/mol
# Density = 1.882995 g / cm^3
# Si number density = 18.872910 Si / 1000 Ang^3
#
#
#
# Elastic Constant Matrix: (Units=GPa)
#
#
# Indices 1 2 3 4 5 6 
#
# 1 97.9673 1.4908 39.0165 0.0000 -11.2086 0.0000
# 2 1.4908 39.8992 5.9843 0.0000 -8.7748 0.0000
# 3 39.0165 5.9843 134.5902 0.0000 -21.5749 0.0000
# 4 0.0000 0.0000 0.0000 12.0315 0.0000 -4.3099
# 5 -11.2086 -8.7748 -21.5749 0.0000 28.9859 0.0000
# 6 0.0000 0.0000 0.0000 -4.3099 0.0000 18.6899
#
#
#
# Elastic Compliance Matrix: (Units=1/GPa)
#
#
# Indices 1 2 3 4 5 6 
#
# 1 0.011681 0.000552 -0.003020 0.000000 0.002436 0.000000
# 2 0.000552 0.026879 -0.000019 0.000000 0.008336 0.000000
# 3 -0.003020 -0.000019 0.009218 0.000000 0.005688 0.000000
# 4 0.000000 0.000000 0.000000 0.090600 0.000000 0.020892
# 5 0.002436 0.008336 0.005688 0.000000 0.042199 0.000000
# 6 0.000000 0.000000 0.000000 0.020892 0.000000 0.058323
#
#
# Mechanical properties :
#
#
# Convention : Reuss Voigt Hill
#
# Bulk Modulus (GPa) = 23.36236 40.60441 31.98339
# Shear Modulus (GPa) = 19.36935 27.00579 23.18757
#
# Velocity S-wave (km/s) = 3.20707 3.78687 3.50897
# Velocity P-wave (km/s) = 5.11072 6.37823 5.77933
#
# Compressibility (1/GPa) = 0.04280389
#
# Stress axis : x y z
#
# Youngs Moduli (GPa) = 85.61198 37.20413 108.48282
#
# Poissons Ratio (x) = -0.02055 0.32764
# Poissons Ratio (y) = -0.04728 0.00205
# Poissons Ratio (z) = 0.25856 0.00070
#
# Static dielectric constant tensor:
#      x y z
#    x 1.686250 0.000000 -0.034920 
#    y 0.000000 1.698060 0.000000 
#    z -0.034920 0.000000 1.717300 
# 
# From -- ./inp_files/200158.got.cif
#   From: 2010.05.17/outbox.cif.g08.bks.cpg/sg15_101_cif.got.tgz:200158.got - 2010.06.03 18:47:42.
