data_PCOD9264521
_publ_section_title
;
Structure prediction by ZEFSAII (Michael W. Deem and Ramdas Pophale) SiO2 
 PCOD9264521
Probable space group: C 2/C
;
_chemical_formula_sum "Si O2"
_cell_formula_units_Z 56
_cell_length_a 11.957634
_cell_length_b 12.810388
_cell_length_c 18.252770
_cell_angle_alpha 90.000000
_cell_angle_beta 92.785586
_cell_angle_gamma 90.000000
_cell_volume 2792.690795
_symmetry_space_group_name_H-M "C 2/C"
_symmetry_group_IT_number 15
_symmetry_cell_setting 'monoclinic'
loop_
_space_group_symop_operation_xyz
x,y,z
-x,y,1/2-z
-x,-y,-z
x,-y,1/2+z
1/2+x,1/2+y,z
1/2-x,1/2+y,1/2-z
1/2-x,1/2-y,-z
1/2+x,1/2-y,1/2+z
loop_
_atom_site_type_symbol
_atom_site_label
_atom_site_fract_x
_atom_site_fract_y
_atom_site_fract_z
Si Si1 0.620200 0.109631 0.075386
Si Si2 0.972970 0.361712 0.167911
Si Si3 0.100212 0.399542 0.842996
Si Si4 0.263137 0.315844 0.401784
Si Si5 0.372679 0.303200 0.246072
Si Si6 0.215655 0.412708 0.124052
Si Si7 0.767626 0.524729 0.027709
O O1 0.503965 0.135012 0.109531
O O2 0.686283 0.213579 0.059497
O O3 0.692442 0.036880 0.133100
O O4 0.621860 0.033485 0.004507
O O5 0.090458 0.365029 0.127982
O O6 0.000000 0.318217 0.250000
O O7 0.928830 0.481315 0.179312
O O8 0.870016 0.310576 0.120668
O O9 0.120997 0.317774 0.779820
O O10 0.204067 0.406568 0.901725
O O11 0.319782 0.316411 0.323596
O O12 0.295457 0.422430 0.445116
O O13 0.500000 0.342221 0.250000
O O14 0.296196 0.363317 0.185571
O O15 0.268473 0.409265 0.043958
#
# Coordination Sequence:
#
# PCOD9264521 Si02
#       7
#     8   8   8   8   8   8   8
#     4   9  19  37  58  88 112 154 190 245 292 347
#     4  10  19  35  59  91 117 148 196 253 294 338
#     4  10  20  33  63  86 112 152 202 242 291 340
#     4  11  21  34  62  90 119 152 199 245 295 347
#     4  12  23  38  58  89 120 159 198 240 289 356
#     4   9  22  39  61  84 122 152 196 246 296 343
#     4   9  21  38  62  89 116 152 197 254 291 342
#
# _framework density 20.052344000000002
#
# number of rings (size 3 to 8) (size 9 to 14) (size 15 to 20)
#    0.857    1.143    2.857    1.286    4.000    0.571 
#    0.000    1.429    6.286    0.000    0.000    0.000 
#    0.000    0.000    0.000    0.000    0.000    0.000 
#
# Total GULP energy -155917.699408 kJ/mol
# GULP energy per Si atom -5568.489265 kJ/mol
# Density = 2.000670 g / cm^3
# Si number density = 20.052344 Si / 1000 Ang^3
#
#
#
# Elastic Constant Matrix: (Units=GPa)
#
#
# Indices 1 2 3 4 5 6 
#
# 1 54.4217 9.2479 -9.8800 0.0000 -8.4053 0.0000
# 2 9.2479 34.6600 -4.2146 0.0000 -7.1394 0.0000
# 3 -9.8800 -4.2146 66.9506 0.0000 -10.6384 0.0000
# 4 0.0000 0.0000 0.0000 35.1598 0.0000 4.4933
# 5 -8.4053 -7.1394 -10.6384 0.0000 17.2811 0.0000
# 6 0.0000 0.0000 0.0000 4.4933 0.0000 21.6662
#
#
#
# Elastic Compliance Matrix: (Units=1/GPa)
#
#
# Indices 1 2 3 4 5 6 
#
# 1 0.021669 -0.002580 0.005033 0.000000 0.012572 0.000000
# 2 -0.002580 0.033112 0.004077 0.000000 0.014934 0.000000
# 3 0.005033 0.004077 0.018391 0.000000 0.015454 0.000000
# 4 0.000000 0.000000 0.000000 0.029216 0.000000 -0.006059
# 5 0.012572 0.014934 0.015454 0.000000 0.079665 0.000000
# 6 0.000000 0.000000 0.000000 -0.006059 0.000000 0.047411
#
#
# Mechanical properties :
#
#
# Convention : Reuss Voigt Hill
#
# Bulk Modulus (GPa) = 11.59669 16.25990 13.92830
# Shear Modulus (GPa) = 20.39574 25.54668 22.97121
#
# Velocity S-wave (km/s) = 3.19270 3.57319 3.38829
# Velocity P-wave (km/s) = 4.40305 5.01496 4.71894
#
# Compressibility (1/GPa) = 0.08623152
#
# Stress axis : x y z
#
# Youngs Moduli (GPa) = 46.14920 30.20045 54.37332
#
# Poissons Ratio (x) = 0.07792 -0.27366
# Poissons Ratio (y) = 0.11907 -0.22167
# Poissons Ratio (z) = -0.23227 -0.12312
#
# Static dielectric constant tensor:
#      x y z
#    x 1.705670 0.000000 0.005220 
#    y 0.000000 1.724550 0.000000 
#    z 0.005220 0.000000 1.797540 
# 
# From -- ./inp_files/236955.got.cif
#   From: 2010.05.17/outbox.cif.g08.bks.cpg/sg15_119_cif.got.tgz:236955.got - 2010.06.03 18:47:42.
