data_PCOD9264199
_publ_section_title
;
Structure prediction by ZEFSAII (Michael W. Deem and Ramdas Pophale) SiO2 
 PCOD9264199
Probable space group: C 2/C
;
_chemical_formula_sum "Si O2"
_cell_formula_units_Z 56
_cell_length_a 27.102642
_cell_length_b 9.023284
_cell_length_c 11.530385
_cell_angle_alpha 90.000000
_cell_angle_beta 69.616800
_cell_angle_gamma 90.000000
_cell_volume 2643.246540
_symmetry_space_group_name_H-M "C 2/C"
_symmetry_group_IT_number 15
_symmetry_cell_setting 'monoclinic'
loop_
_space_group_symop_operation_xyz
x,y,z
-x,y,1/2-z
-x,-y,-z
x,-y,1/2+z
1/2+x,1/2+y,z
1/2-x,1/2+y,1/2-z
1/2-x,1/2-y,-z
1/2+x,1/2-y,1/2+z
loop_
_atom_site_type_symbol
_atom_site_label
_atom_site_fract_x
_atom_site_fract_y
_atom_site_fract_z
Si Si1 0.160865 0.983377 0.291659
Si Si2 0.707194 0.768663 0.635048
Si Si3 0.603723 0.278037 0.695462
Si Si4 0.918386 0.743814 0.056699
Si Si5 0.471680 0.659951 0.033711
Si Si6 0.860416 0.778927 0.515872
Si Si7 0.846876 0.520856 0.704492
O O1 0.206762 0.869412 0.223001
O O2 0.109518 0.882958 0.358372
O O3 0.146164 0.097212 0.200483
O O4 0.168693 0.082038 0.399854
O O5 0.750000 0.750000 0.500000
O O6 0.653292 0.746797 0.605135
O O7 0.701318 0.923066 0.707140
O O8 0.589876 0.274857 0.573018
O O9 0.553616 0.312521 0.818776
O O10 0.628041 0.120906 0.714569
O O11 0.887665 0.599444 0.122509
O O12 0.980043 0.731135 0.030217
O O13 0.421920 0.689457 0.990701
O O14 0.500000 0.500000 0.000000
O O15 0.840235 0.637747 0.605813
#
# Coordination Sequence:
#
# PCOD9264199 Si02
#       7
#     8   8   8   8   8   8   8
#     4   9  20  36  57  86 113 147 193 243 287 348
#     4  11  23  40  62  85 110 154 203 244 303 349
#     4  10  20  35  58  84 120 154 187 231 289 338
#     4  11  18  35  57  82 120 154 189 226 283 346
#     4  10  19  35  56  90 116 152 192 228 278 351
#     4  10  21  40  57  83 124 147 188 250 287 338
#     4   9  22  39  57  85 118 152 193 241 288 348
#
# _framework density 21.186069
#
# number of rings (size 3 to 8) (size 9 to 14) (size 15 to 20)
#    0.000    2.286    2.857    2.143    0.000    3.429 
#    0.000    8.571    0.000    0.000    0.000    0.000 
#    0.000    0.000    0.000    0.000    0.000    0.000 
#
# Total GULP energy -156267.244494 kJ/mol
# GULP energy per Si atom -5580.973018 kJ/mol
# Density = 2.113785 g / cm^3
# Si number density = 21.186069 Si / 1000 Ang^3
#
#
#
# Elastic Constant Matrix: (Units=GPa)
#
#
# Indices 1 2 3 4 5 6 
#
# 1 50.7225 12.8001 18.2457 0.0000 2.5035 0.0000
# 2 12.8001 132.0187 36.4856 0.0000 -14.8200 0.0000
# 3 18.2457 36.4856 71.2367 0.0000 -12.2001 0.0000
# 4 0.0000 0.0000 0.0000 22.6190 0.0000 3.3778
# 5 2.5035 -14.8200 -12.2001 0.0000 42.0310 0.0000
# 6 0.0000 0.0000 0.0000 3.3778 0.0000 2.1388
#
#
#
# Elastic Compliance Matrix: (Units=1/GPa)
#
#
# Indices 1 2 3 4 5 6 
#
# 1 0.022192 -0.000928 -0.005778 0.000000 -0.003326 0.000000
# 2 -0.000928 0.009008 -0.004023 0.000000 0.002064 0.000000
# 3 -0.005778 -0.004023 0.018304 0.000000 0.004239 0.000000
# 4 0.000000 0.000000 0.000000 0.057856 0.000000 -0.091372
# 5 -0.003326 0.002064 0.004239 0.000000 0.025948 0.000000
# 6 0.000000 0.000000 0.000000 -0.091372 0.000000 0.611860
#
#
# Mechanical properties :
#
#
# Convention : Reuss Voigt Hill
#
# Bulk Modulus (GPa) = 35.65561 43.22675 39.44118
# Shear Modulus (GPa) = 6.44351 25.78751 16.11551
#
# Velocity S-wave (km/s) = 1.74585 3.49261 2.76101
# Velocity P-wave (km/s) = 4.57496 6.05905 5.36854
#
# Compressibility (1/GPa) = 0.02804607
#
# Stress axis : x y z
#
# Youngs Moduli (GPa) = 45.06113 111.01180 54.63325
#
# Poissons Ratio (x) = 0.10303 0.31569
# Poissons Ratio (y) = 0.04182 0.21976
# Poissons Ratio (z) = 0.26038 0.44655
#
# Static dielectric constant tensor:
#      x y z
#    x 1.806770 0.000000 -0.028120 
#    y 0.000000 1.805860 0.000000 
#    z -0.028120 0.000000 1.738730 
# 
# From -- ./inp_files/125820.got.cif
#   From: 2010.05.17/outbox.cif.g08.bks.cpg/sg15_63_cif.got.tgz:125820.got - 2010.06.03 18:47:42.
