data_PCOD9264902
_publ_section_title
;
Structure prediction by ZEFSAII (Michael W. Deem and Ramdas Pophale) SiO2 
 PCOD9264902
Probable space group: C 2/C
;
_chemical_formula_sum "Si O2"
_cell_formula_units_Z 64
_cell_length_a 24.777248
_cell_length_b 17.732877
_cell_length_c 26.794700
_cell_angle_alpha 90.000000
_cell_angle_beta 20.048146
_cell_angle_gamma 90.000000
_cell_volume 4035.842503
_symmetry_space_group_name_H-M "C 2/C"
_symmetry_group_IT_number 15
_symmetry_cell_setting 'monoclinic'
loop_
_space_group_symop_operation_xyz
x,y,z
-x,y,1/2-z
-x,-y,-z
x,-y,1/2+z
1/2+x,1/2+y,z
1/2-x,1/2+y,1/2-z
1/2-x,1/2-y,-z
1/2+x,1/2-y,1/2+z
loop_
_atom_site_type_symbol
_atom_site_label
_atom_site_fract_x
_atom_site_fract_y
_atom_site_fract_z
Si Si1 0.995583 0.825042 0.313737
Si Si2 0.138931 0.332921 0.668967
Si Si3 0.175622 0.164958 0.324057
Si Si4 0.766200 0.556332 0.331616
Si Si5 0.979147 0.322758 0.020797
Si Si6 0.531056 0.482135 0.915393
Si Si7 0.236545 0.919368 0.169351
Si Si8 0.005310 0.471064 0.052947
O O1 0.814676 0.824035 0.491631
O O2 0.000000 0.838645 0.250000
O O3 0.082444 0.744189 0.244930
O O4 0.105313 0.884632 0.247386
O O5 0.142650 0.401959 0.703986
O O6 0.000000 0.345859 0.750000
O O7 0.189510 0.124537 0.365972
O O8 0.078965 0.241304 0.412028
O O9 0.097283 0.101961 0.356309
O O10 0.350880 0.180683 0.152542
O O11 0.632812 0.500982 0.468730
O O12 0.867207 0.508019 0.204869
O O13 0.856673 0.356763 0.086377
O O14 0.991942 0.381964 0.055823
O O15 0.651777 0.543155 0.790205
O O16 0.500000 0.500000 0.000000
O O17 0.338963 0.989632 0.059633
O O18 0.000000 0.500000 0.000000
#
# Coordination Sequence:
#
# PCOD9264902 Si02
#       8
#     8   8   8   8   8   8   8   8
#     4  11  24  38  55  77 105 141 178 224 266 303
#     4  11  24  38  54  78 107 138 179 223 265 306
#     4  11  22  32  48  74 107 138 174 210 253 309
#     4  11  21  35  56  74 101 142 179 214 261 307
#     4  11  22  32  48  75 105 140 174 209 253 307
#     4  10  20  35  51  73 103 135 175 220 255 308
#     4  11  20  36  55  70 102 142 183 210 260 311
#     4  10  19  36  52  73 102 140 177 214 258 307
#
# _framework density 15.857903
#
# number of rings (size 3 to 8) (size 9 to 14) (size 15 to 20)
#    0.000    1.250    5.000    4.500    8.750    2.000 
#    0.000    0.000    0.000    0.000    0.000    0.000 
#    0.000    6.000    0.000    0.000    0.000    0.000 
#
# Total GULP energy -178348.954609 kJ/mol
# GULP energy per Si atom -5573.404832 kJ/mol
# Density = 1.582181 g / cm^3
# Si number density = 15.857903 Si / 1000 Ang^3
#
#
#
# Elastic Constant Matrix: (Units=GPa)
#
#
# Indices 1 2 3 4 5 6 
#
# 1 45.7985 35.2583 23.0535 -0.0223 -15.9087 0.0037
# 2 35.2583 96.2513 47.8301 -0.0265 -12.9916 0.0180
# 3 23.0535 47.8301 114.5554 0.0248 -15.3717 0.0043
# 4 -0.0223 -0.0265 0.0248 34.4167 -0.0061 -4.6430
# 5 -15.9087 -12.9916 -15.3717 -0.0061 22.9906 -0.0022
# 6 0.0037 0.0180 0.0043 -4.6430 -0.0022 27.2097
#
#
#
# Elastic Compliance Matrix: (Units=1/GPa)
#
#
# Indices 1 2 3 4 5 6 
#
# 1 0.037009 -0.010775 -0.000362 0.000020 0.019278 0.000007
# 2 -0.010775 0.016611 -0.004953 0.000008 -0.001380 -0.000007
# 3 -0.000362 -0.004953 0.011492 -0.000012 0.004634 0.000000
# 4 0.000020 0.000008 -0.000012 0.029740 0.000019 0.005075
# 5 0.019278 -0.001380 0.004634 0.000019 0.059154 0.000006
# 6 0.000007 -0.000007 0.000000 0.005075 0.000006 0.037617
#
#
# Mechanical properties :
#
#
# Convention : Reuss Voigt Hill
#
# Bulk Modulus (GPa) = 30.36488 52.09879 41.23183
# Shear Modulus (GPa) = 21.29652 26.95430 24.12541
#
# Velocity S-wave (km/s) = 3.66862 4.12726 3.90468
# Velocity P-wave (km/s) = 6.09382 7.45904 6.81072
#
# Compressibility (1/GPa) = 0.03293279
#
# Stress axis : x y z
#
# Youngs Moduli (GPa) = 27.02080 60.20034 87.01723
#
# Poissons Ratio (x) = 0.64865 0.03151
# Poissons Ratio (y) = 0.29114 0.43096
# Poissons Ratio (z) = 0.00978 0.29814
#
# Static dielectric constant tensor:
#      x y z
#    x 1.546810 0.000000 -0.033840 
#    y 0.000000 1.559470 0.000030 
#    z -0.033840 0.000030 1.605720 
# 
# From -- ./inp_files/282231.got.cif
#   From: 2010.05.17/outbox.cif.g08.bks.cpg/sg15_142_cif.got.tgz:282231.got - 2010.06.03 18:47:42.
