data_PCOD9264411
_publ_section_title
;
Structure prediction by ZEFSAII (Michael W. Deem and Ramdas Pophale) SiO2 
 PCOD9264411
Probable space group: C 2/C
;
_chemical_formula_sum "Si O2"
_cell_formula_units_Z 48
_cell_length_a 5.714045
_cell_length_b 13.962418
_cell_length_c 23.266091
_cell_angle_alpha 90.000000
_cell_angle_beta 71.942698
_cell_angle_gamma 90.000000
_cell_volume 1764.788534
_symmetry_space_group_name_H-M "C 2/C"
_symmetry_group_IT_number 15
_symmetry_cell_setting 'monoclinic'
loop_
_space_group_symop_operation_xyz
x,y,z
-x,y,1/2-z
-x,-y,-z
x,-y,1/2+z
1/2+x,1/2+y,z
1/2-x,1/2+y,1/2-z
1/2-x,1/2-y,-z
1/2+x,1/2-y,1/2+z
loop_
_atom_site_type_symbol
_atom_site_label
_atom_site_fract_x
_atom_site_fract_y
_atom_site_fract_z
Si Si1 0.642821 0.343557 0.540143
Si Si2 0.000000 0.235730 0.250000
Si Si3 0.508076 0.179860 0.628778
Si Si4 0.500000 0.393847 0.250000
Si Si5 0.607648 0.116203 0.067553
Si Si6 0.632875 0.933689 0.800171
Si Si7 0.523635 0.668961 0.620436
O O1 0.750000 0.250000 0.500000
O O2 0.532986 0.289924 0.604607
O O3 0.398563 0.390422 0.530176
O O4 0.882050 0.404340 0.540616
O O5 0.070830 0.300414 0.299367
O O6 0.799262 0.160801 0.289343
O O7 0.304000 0.131983 0.603384
O O8 0.776614 0.131424 0.609002
O O9 0.705557 0.471770 0.215301
O O10 0.546940 0.336426 0.306030
O O11 0.547315 0.064605 0.132056
O O12 0.563748 0.228667 0.087093
O O13 0.500000 0.927412 0.750000
#
# Coordination Sequence:
#
# PCOD9264411 Si02
#       7
#     8   4   8   4   8   8   8
#     4  10  19  35  58  92 116 140 196 261 294 329
#     4  11  18  32  52  78 113 148 190 217 278 362
#     4  10  20  32  58  82 109 153 188 229 287 347
#     4  11  26  34  52  86 121 162 192 241 282 344
#     4  10  21  37  59  85 115 158 195 235 301 350
#     4  11  23  35  52  81 123 158 193 232 287 359
#     4  10  20  35  52  78 114 151 194 224 281 341
#
# _framework density 27.198727000000002
#
# number of rings (size 3 to 8) (size 9 to 14) (size 15 to 20)
#    0.000    1.667    3.333    3.500    5.833    0.000 
#    0.000    0.000    0.000    0.000    0.000   28.000 
#    0.000    0.000    0.000    0.000    0.000    0.000 
#
# Total GULP energy -133984.715001 kJ/mol
# GULP energy per Si atom -5582.696458 kJ/mol
# Density = 2.713682 g / cm^3
# Si number density = 27.198727 Si / 1000 Ang^3
#
#
#
# Elastic Constant Matrix: (Units=GPa)
#
#
# Indices 1 2 3 4 5 6 
#
# 1 276.7544 31.8796 2.6021 0.0000 -7.5639 0.0000
# 2 31.8796 112.1630 7.9813 0.0000 -5.1222 0.0000
# 3 2.6021 7.9813 52.2379 0.0000 -23.6087 0.0000
# 4 0.0000 0.0000 0.0000 -3.9295 0.0000 -19.1912
# 5 -7.5639 -5.1222 -23.6087 0.0000 34.0701 0.0000
# 6 0.0000 0.0000 0.0000 -19.1912 0.0000 10.5374
#
#
#
# Elastic Compliance Matrix: (Units=1/GPa)
#
#
# Indices 1 2 3 4 5 6 
#
# 1 0.003757 -0.001053 0.000406 0.000000 0.000957 0.000000
# 2 -0.001053 0.009317 -0.001228 0.000000 0.000316 0.000000
# 3 0.000406 -0.001228 0.028054 0.000000 0.019345 0.000000
# 4 0.000000 0.000000 0.000000 -0.025719 0.000000 -0.046841
# 5 0.000957 0.000316 0.019345 0.000000 0.043016 0.000000
# 6 0.000000 0.000000 0.000000 -0.046841 0.000000 0.009591
#
#
# Mechanical properties :
#
#
# Convention : Reuss Voigt Hill
#
# Bulk Modulus (GPa) = 26.75414 58.45349 42.60381
# Shear Modulus (GPa) = 59.36541 34.71509 47.04025
#
# Velocity S-wave (km/s) = 4.67696 3.57648 4.16324
# Velocity P-wave (km/s) = 6.24685 6.21231 6.22961
#
# Compressibility (1/GPa) = 0.03737739
#
# Stress axis : x y z
#
# Youngs Moduli (GPa) = 266.17297 107.33394 35.64617
#
# Poissons Ratio (x) = 0.11303 -0.01449
# Poissons Ratio (y) = 0.28029 0.04378
# Poissons Ratio (z) = -0.10818 0.13184
#
# Static dielectric constant tensor:
#      x y z
#    x 1.845480 0.000000 -0.712670 
#    y 0.000000 2.077270 0.000000 
#    z -0.712670 0.000000 1.353700 
# 
# From -- ./inp_files/260687.got.cif
#   From: 2010.05.17/outbox.cif.g08.bks.cpg/sg15_131_cif.got.tgz:260687.got - 2010.06.03 18:47:42.
