data_PCOD9264710
_publ_section_title
;
Structure prediction by ZEFSAII (Michael W. Deem and Ramdas Pophale) SiO2 
 PCOD9264710
Probable space group: C 2/C
;
_chemical_formula_sum "Si O2"
_cell_formula_units_Z 64
_cell_length_a 17.122157
_cell_length_b 20.103166
_cell_length_c 17.891474
_cell_angle_alpha 90.000000
_cell_angle_beta 143.956179
_cell_angle_gamma 90.000000
_cell_volume 3623.635860
_symmetry_space_group_name_H-M "C 2/C"
_symmetry_group_IT_number 15
_symmetry_cell_setting 'monoclinic'
loop_
_space_group_symop_operation_xyz
x,y,z
-x,y,1/2-z
-x,-y,-z
x,-y,1/2+z
1/2+x,1/2+y,z
1/2-x,1/2+y,1/2-z
1/2-x,1/2-y,-z
1/2+x,1/2-y,1/2+z
loop_
_atom_site_type_symbol
_atom_site_label
_atom_site_fract_x
_atom_site_fract_y
_atom_site_fract_z
Si Si1 0.912572 0.729904 0.482791
Si Si2 0.590748 0.678708 0.665932
Si Si3 0.405081 0.760817 0.607189
Si Si4 0.091282 0.864954 0.931894
Si Si5 0.157604 0.509425 0.615889
Si Si6 0.296126 0.614774 0.145258
Si Si7 0.365065 0.838489 0.433872
Si Si8 0.627398 0.452621 0.104564
O O1 0.901223 0.774131 0.399703
O O2 0.910725 0.786676 0.545659
O O3 0.794354 0.677729 0.402159
O O4 0.044644 0.685989 0.566357
O O5 0.462625 0.693749 0.615043
O O6 0.721600 0.694858 0.814274
O O7 0.592410 0.604306 0.637497
O O8 0.500000 0.776520 0.750000
O O9 0.250000 0.750000 0.500000
O O10 0.426134 0.815719 0.559023
O O11 0.172130 0.878704 0.918428
O O12 0.937837 0.882888 0.796693
O O13 0.144765 0.911938 0.040383
O O14 0.221488 0.452252 0.613633
O O15 0.163833 0.583743 0.588578
O O16 0.242404 0.511663 0.759441
O O17 0.000000 0.500000 0.500000
O O18 0.500000 0.500000 0.000000
#
# Coordination Sequence:
#
# PCOD9264710 Si02
#       8
#     8   8   8   8   8   8   8   8
#     4  10  19  35  62  86 122 155 204 250 304 363
#     4   9  20  35  59  86 114 153 202 245 299 362
#     4  11  21  39  58  87 122 152 201 259 308 357
#     4  10  22  38  60  97 120 158 208 255 311 359
#     4  11  22  41  63  87 123 164 207 248 304 366
#     4  11  21  38  62  90 128 159 200 259 309 366
#     4  10  20  37  59  86 118 162 202 245 308 369
#     4  10  20  41  62  87 116 160 206 246 290 371
#
# _framework density 17.661819000000001
#
# number of rings (size 3 to 8) (size 9 to 14) (size 15 to 20)
#    0.000    1.750    3.750    1.125    0.000    0.000 
#    4.500    0.625    0.000    0.000    0.000    0.000 
#    0.000    0.000    0.000    0.000    0.000    0.000 
#
# Total GULP energy -178195.388057 kJ/mol
# GULP energy per Si atom -5568.605877 kJ/mol
# Density = 1.762162 g / cm^3
# Si number density = 17.661819 Si / 1000 Ang^3
#
#
#
# Elastic Constant Matrix: (Units=GPa)
#
#
# Indices 1 2 3 4 5 6 
#
# 1 101.9181 40.7346 57.5423 -0.0006 14.8658 -0.0003
# 2 40.7346 97.1690 35.6440 -0.0013 3.3170 -0.0007
# 3 57.5423 35.6440 114.6411 -0.0018 5.9075 -0.0011
# 4 -0.0006 -0.0013 -0.0018 27.4926 -0.0008 5.1679
# 5 14.8658 3.3170 5.9075 -0.0008 35.0014 -0.0003
# 6 -0.0003 -0.0007 -0.0011 5.1679 -0.0003 21.1977
#
#
#
# Elastic Compliance Matrix: (Units=1/GPa)
#
#
# Indices 1 2 3 4 5 6 
#
# 1 0.015834 -0.004111 -0.006399 0.000000 -0.005256 0.000000
# 2 -0.004111 0.012692 -0.001927 0.000000 0.000869 0.000000
# 3 -0.006399 -0.001927 0.012493 0.000001 0.000792 0.000000
# 4 0.000000 0.000000 0.000001 0.038120 0.000001 -0.009294
# 5 -0.005256 0.000869 0.000792 0.000001 0.030586 0.000000
# 6 0.000000 0.000000 0.000000 -0.009294 0.000000 0.049441
#
#
# Mechanical properties :
#
#
# Convention : Reuss Voigt Hill
#
# Bulk Modulus (GPa) = 61.93956 64.61889 63.27922
# Shear Modulus (GPa) = 26.39590 28.72550 27.56070
#
# Velocity S-wave (km/s) = 3.87009 4.03726 3.95456
# Velocity P-wave (km/s) = 7.42402 7.64191 7.53375
#
# Compressibility (1/GPa) = 0.01614477
#
# Stress axis : x y z
#
# Youngs Moduli (GPa) = 63.15431 78.78826 80.04463
#
# Poissons Ratio (x) = 0.32393 0.51218
# Poissons Ratio (y) = 0.25965 0.15428
# Poissons Ratio (z) = 0.40410 0.15185
#
# Static dielectric constant tensor:
#      x y z
#    x 1.620640 0.000000 -0.007890 
#    y 0.000000 1.620540 0.000000 
#    z -0.007890 0.000000 1.648180 
# 
# From -- ./inp_files/211975.got.cif
#   From: 2010.05.17/outbox.cif.g08.bks.cpg/sg15_106_cif.got.tgz:211975.got - 2010.06.03 18:47:42.
