data_PCOD9264497
_publ_section_title
;
Structure prediction by ZEFSAII (Michael W. Deem and Ramdas Pophale) SiO2 
 PCOD9264497
Probable space group: C 2/C
;
_chemical_formula_sum "Si O2"
_cell_formula_units_Z 56
_cell_length_a 7.889545
_cell_length_b 17.556169
_cell_length_c 28.630791
_cell_angle_alpha 90.000000
_cell_angle_beta 45.287677
_cell_angle_gamma 90.000000
_cell_volume 2818.186313
_symmetry_space_group_name_H-M "C 2/C"
_symmetry_group_IT_number 15
_symmetry_cell_setting 'monoclinic'
loop_
_space_group_symop_operation_xyz
x,y,z
-x,y,1/2-z
-x,-y,-z
x,-y,1/2+z
1/2+x,1/2+y,z
1/2-x,1/2+y,1/2-z
1/2-x,1/2-y,-z
1/2+x,1/2-y,1/2+z
loop_
_atom_site_type_symbol
_atom_site_label
_atom_site_fract_x
_atom_site_fract_y
_atom_site_fract_z
Si Si1 0.088814 0.769292 0.162321
Si Si2 0.655329 0.716420 0.294391
Si Si3 0.074679 0.904945 0.105201
Si Si4 0.480757 0.427761 0.872354
Si Si5 0.445788 0.109749 0.458255
Si Si6 0.413022 0.350895 0.548553
Si Si7 0.643478 0.278163 0.420328
O O1 0.211406 0.752915 0.187467
O O2 0.104650 0.857262 0.146350
O O3 0.243338 0.718862 0.096907
O O4 0.816881 0.738607 0.218977
O O5 0.637125 0.626310 0.308462
O O6 0.392365 0.749646 0.351302
O O7 0.946323 0.843796 0.096652
O O8 0.946424 0.984710 0.137831
O O9 0.319207 0.919263 0.029781
O O10 0.496515 0.390938 0.921539
O O11 0.210619 0.424116 0.904879
O O12 0.260779 0.098151 0.451084
O O13 0.485834 0.201283 0.453852
O O14 0.624314 0.316767 0.475341
#
# Coordination Sequence:
#
# PCOD9264497 Si02
#       7
#     8   8   8   8   8   8   8
#     4  10  19  38  62  78 113 156 194 237 283 343
#     4   9  22  38  57  84 109 153 201 230 284 355
#     4  11  20  36  59  86 118 146 190 247 289 332
#     4  10  23  36  57  89 120 148 189 242 299 338
#     4  10  19  36  57  91 116 155 191 234 283 359
#     4  10  19  37  61  82 117 157 190 238 286 340
#     4  10  19  35  59  88 112 149 207 232 271 360
#
# _framework density 19.870937000000001
#
# number of rings (size 3 to 8) (size 9 to 14) (size 15 to 20)
#    0.000    2.000    2.857    1.286    2.000    4.571 
#    2.571    5.714    3.143    0.000    0.000    0.000 
#    0.000    0.000    0.000    0.000    0.000    0.000 
#
# Total GULP energy -156049.104714 kJ/mol
# GULP energy per Si atom -5573.182311 kJ/mol
# Density = 1.982571 g / cm^3
# Si number density = 19.870937 Si / 1000 Ang^3
#
#
#
# Elastic Constant Matrix: (Units=GPa)
#
#
# Indices 1 2 3 4 5 6 
#
# 1 36.6547 -0.2531 1.6098 -0.0050 -1.8453 0.0090
# 2 -0.2531 92.5746 1.1990 -0.0025 6.4831 0.0035
# 3 1.6098 1.1990 34.5924 -0.0092 -9.6511 0.0047
# 4 -0.0050 -0.0025 -0.0092 8.3000 0.0040 -0.5246
# 5 -1.8453 6.4831 -9.6511 0.0040 14.8386 -0.0027
# 6 0.0090 0.0035 0.0047 -0.5246 -0.0027 16.3200
#
#
#
# Elastic Compliance Matrix: (Units=1/GPa)
#
#
# Indices 1 2 3 4 5 6 
#
# 1 0.027460 -0.000147 -0.000369 0.000014 0.003239 -0.000014
# 2 -0.000147 0.011274 -0.002154 0.000004 -0.006345 -0.000003
# 3 -0.000369 -0.002154 0.035734 0.000027 0.024137 -0.000005
# 4 0.000014 0.000004 0.000027 0.120728 -0.000015 0.003881
# 5 0.003239 -0.006345 0.024137 -0.000015 0.086265 0.000006
# 6 -0.000014 -0.000003 -0.000005 0.003881 0.000006 0.061399
#
#
# Mechanical properties :
#
#
# Convention : Reuss Voigt Hill
#
# Bulk Modulus (GPa) = 14.46605 18.77033 16.61819
# Shear Modulus (GPa) = 13.46826 18.64279 16.05553
#
# Velocity S-wave (km/s) = 2.60626 3.06632 2.84560
# Velocity P-wave (km/s) = 4.04383 4.69074 4.37925
#
# Compressibility (1/GPa) = 0.06912739
#
# Stress axis : x y z
#
# Youngs Moduli (GPa) = 36.41677 88.70007 27.98453
#
# Poissons Ratio (x) = 0.01304 0.01033
# Poissons Ratio (y) = 0.00535 0.06028
# Poissons Ratio (z) = 0.01344 0.19107
#
# Static dielectric constant tensor:
#      x y z
#    x 1.821260 0.000000 -0.033010 
#    y 0.000000 1.687280 0.000000 
#    z -0.033010 0.000000 1.807350 
# 
# From -- ./inp_files/232111.got.cif
#   From: 2010.05.17/outbox.cif.g08.bks.cpg/sg15_117_cif.got.tgz:232111.got - 2010.06.03 18:47:42.
