data_PCOD9264233
_publ_section_title
;
Structure prediction by ZEFSAII (Michael W. Deem and Ramdas Pophale) SiO2 
 PCOD9264233
Probable space group: C 2/C
;
_chemical_formula_sum "Si O2"
_cell_formula_units_Z 60
_cell_length_a 22.606927
_cell_length_b 30.454716
_cell_length_c 5.016379
_cell_angle_alpha 90.000000
_cell_angle_beta 71.426605
_cell_angle_gamma 90.000000
_cell_volume 3273.832614
_symmetry_space_group_name_H-M "C 2/C"
_symmetry_group_IT_number 15
_symmetry_cell_setting 'monoclinic'
loop_
_space_group_symop_operation_xyz
x,y,z
-x,y,1/2-z
-x,-y,-z
x,-y,1/2+z
1/2+x,1/2+y,z
1/2-x,1/2+y,1/2-z
1/2-x,1/2-y,-z
1/2+x,1/2-y,1/2+z
loop_
_atom_site_type_symbol
_atom_site_label
_atom_site_fract_x
_atom_site_fract_y
_atom_site_fract_z
Si Si1 0.000000 0.967533 0.250000
Si Si2 0.299882 0.969932 0.991142
Si Si3 0.044253 0.189025 0.435431
Si Si4 0.696216 0.401587 0.316377
Si Si5 0.737306 0.305660 0.219732
Si Si6 0.934593 0.530438 0.410195
Si Si7 0.610635 0.401558 0.932216
Si Si8 0.328997 0.265350 0.685394
O O1 0.941248 0.936097 0.396903
O O2 0.000000 0.000000 0.500000
O O3 0.243984 0.938057 0.145549
O O4 0.296944 0.011466 0.196879
O O5 0.367867 0.948156 0.945756
O O6 0.078764 0.142041 0.356311
O O7 0.098093 0.224311 0.418538
O O8 0.000000 0.198896 0.250000
O O9 0.000000 0.184382 0.750000
O O10 0.732503 0.356008 0.311954
O O11 0.658035 0.416899 0.632079
O O12 0.648650 0.391139 0.144910
O O13 0.695044 0.278151 0.487232
O O14 0.805109 0.283194 0.144599
O O15 0.707679 0.296528 0.972444
O O16 0.935057 0.511680 0.708452
O O17 0.000000 0.553987 0.250000
#
# Coordination Sequence:
#
# PCOD9264233 Si02
#       8
#     4   8   8   8   8   8   8   8
#     4  12  28  44  56  74 108 158 202 252 308 350
#     4  10  21  34  51  79 110 143 186 230 276 333
#     4  12  22  36  60  84 113 144 186 239 288 324
#     4  12  22  37  59  82 113 147 186 239 298 337
#     4  10  19  35  57  82 112 138 175 225 277 345
#     4   8  14  27  47  70  97 127 163 210 253 301
#     4  12  25  39  58  80 106 144 202 249 285 346
#     4  10  20  35  56  85 110 138 176 224 283 340
#
# _framework density 18.327143
#
# number of rings (size 3 to 8) (size 9 to 14) (size 15 to 20)
#    0.000    1.333    3.333    3.200    0.933    3.200 
#    0.000    0.000    0.000    0.800    0.000    7.467 
#    0.000    0.000    0.000    0.000    0.000    0.000 
#
# Total GULP energy -167358.338734 kJ/mol
# GULP energy per Si atom -5578.611291 kJ/mol
# Density = 1.828543 g / cm^3
# Si number density = 18.327143 Si / 1000 Ang^3
#
#
#
# Elastic Constant Matrix: (Units=GPa)
#
#
# Indices 1 2 3 4 5 6 
#
# 1 86.5183 34.2196 15.2749 0.0000 -11.4558 0.0000
# 2 34.2196 57.4673 7.3391 0.0000 -15.9406 0.0000
# 3 15.2749 7.3391 87.3603 0.0000 -4.4742 0.0000
# 4 0.0000 0.0000 0.0000 18.4804 0.0000 -1.9854
# 5 -11.4558 -15.9406 -4.4742 0.0000 40.6490 0.0000
# 6 0.0000 0.0000 0.0000 -1.9854 0.0000 20.2336
#
#
#
# Elastic Compliance Matrix: (Units=1/GPa)
#
#
# Indices 1 2 3 4 5 6 
#
# 1 0.015458 -0.008762 -0.001931 0.000000 0.000708 0.000000
# 2 -0.008762 0.024629 -0.000170 0.000000 0.007170 0.000000
# 3 -0.001931 -0.000170 0.011834 0.000000 0.000692 0.000000
# 4 0.000000 0.000000 0.000000 0.054688 0.000000 0.005366
# 5 0.000708 0.007170 0.000692 0.000000 0.027688 0.000000
# 6 0.000000 0.000000 0.000000 0.005366 0.000000 0.049949
#
#
# Mechanical properties :
#
#
# Convention : Reuss Voigt Hill
#
# Bulk Modulus (GPa) = 33.11574 38.33479 35.72526
# Shear Modulus (GPa) = 23.14410 27.50674 25.32542
#
# Velocity S-wave (km/s) = 3.55749 3.87831 3.72136
# Velocity P-wave (km/s) = 5.91462 6.40449 6.16442
#
# Compressibility (1/GPa) = 0.03019712
#
# Stress axis : x y z
#
# Youngs Moduli (GPa) = 64.69001 40.60215 84.50151
#
# Poissons Ratio (x) = 0.35575 0.16313
# Poissons Ratio (y) = 0.56681 0.01435
# Poissons Ratio (z) = 0.12489 0.00690
#
# Static dielectric constant tensor:
#      x y z
#    x 1.663510 0.000000 -0.019320 
#    y 0.000000 1.641510 0.000000 
#    z -0.019320 0.000000 1.632000 
# 
# From -- ./inp_files/14637.got.cif
#   From: 2010.05.17/outbox.cif.g08.bks.cpg/sg15_8_cif.got.tgz:14637.got - 2010.06.03 18:47:42.
