data_PCOD9264924
_publ_section_title
;
Structure prediction by ZEFSAII (Michael W. Deem and Ramdas Pophale) SiO2 
 PCOD9264924
Probable space group: C 2/C
;
_chemical_formula_sum "Si O2"
_cell_formula_units_Z 52
_cell_length_a 14.042770
_cell_length_b 10.632186
_cell_length_c 16.781548
_cell_angle_alpha 90.000000
_cell_angle_beta 65.842266
_cell_angle_gamma 90.000000
_cell_volume 2286.142198
_symmetry_space_group_name_H-M "C 2/C"
_symmetry_group_IT_number 15
_symmetry_cell_setting 'monoclinic'
loop_
_space_group_symop_operation_xyz
x,y,z
-x,y,1/2-z
-x,-y,-z
x,-y,1/2+z
1/2+x,1/2+y,z
1/2-x,1/2+y,1/2-z
1/2-x,1/2-y,-z
1/2+x,1/2-y,1/2+z
loop_
_atom_site_type_symbol
_atom_site_label
_atom_site_fract_x
_atom_site_fract_y
_atom_site_fract_z
Si Si1 0.663778 0.812988 0.841881
Si Si2 0.515822 0.827480 0.409927
Si Si3 0.326820 0.479034 0.872492
Si Si4 0.122438 0.736846 0.184840
Si Si5 0.074971 0.601187 0.050075
Si Si6 0.329906 0.657229 0.518449
Si Si7 0.000000 0.784669 0.750000
O O1 0.725796 0.924445 0.863144
O O2 0.685754 0.804747 0.741135
O O3 0.541942 0.843919 0.895610
O O4 0.688585 0.683880 0.882071
O O5 0.599240 0.854477 0.451466
O O6 0.445751 0.710138 0.462272
O O7 0.543555 0.798892 0.308723
O O8 0.441874 0.951669 0.436779
O O9 0.358427 0.617081 0.837118
O O10 0.318182 0.469021 0.971733
O O11 0.412339 0.376820 0.814784
O O12 0.142145 0.657745 0.098290
O O13 0.000000 0.720475 0.250000
O O14 0.250000 0.750000 0.500000
#
# Coordination Sequence:
#
# PCOD9264924 Si02
#       7
#     8   8   8   8   8   8   4
#     4   9  19  34  55  79 105 148 187 217 280 332
#     4   9  18  33  56  80 107 140 188 224 263 336
#     4  10  19  36  54  79 115 139 186 234 274 332
#     4  10  20  36  54  82 114 144 183 226 280 328
#     4   9  19  36  55  80 108 145 184 226 272 328
#     4   8  16  34  54  76 102 145 181 221 275 324
#     4  10  20  32  54  84 106 144 184 232 274 320
#
# _framework density 22.745740999999999
#
# number of rings (size 3 to 8) (size 9 to 14) (size 15 to 20)
#    0.000    2.769    0.769    0.000    3.231    1.231 
#    8.308    3.077    0.000   15.692    0.000    0.000 
#    0.000    0.000    0.000    0.000    0.000    0.000 
#
# Total GULP energy -145027.132117 kJ/mol
# GULP energy per Si atom -5577.966620 kJ/mol
# Density = 2.269397 g / cm^3
# Si number density = 22.745741 Si / 1000 Ang^3
#
#
#
# Elastic Constant Matrix: (Units=GPa)
#
#
# Indices 1 2 3 4 5 6 
#
# 1 41.2197 1.1845 43.6250 0.0000 16.0260 0.0000
# 2 1.1845 63.2559 62.5633 0.0000 25.6906 0.0000
# 3 43.6250 62.5633 168.6362 0.0000 49.4568 0.0000
# 4 0.0000 0.0000 0.0000 34.1031 0.0000 -5.2776
# 5 16.0260 25.6906 49.4568 0.0000 40.2735 0.0000
# 6 0.0000 0.0000 0.0000 -5.2776 0.0000 13.0528
#
#
#
# Elastic Compliance Matrix: (Units=1/GPa)
#
#
# Indices 1 2 3 4 5 6 
#
# 1 0.043763 0.018358 -0.014988 0.000000 -0.010720 0.000000
# 2 0.018358 0.034050 -0.013861 0.000000 -0.012004 0.000000
# 3 -0.014988 -0.013861 0.016578 0.000000 -0.005552 0.000000
# 4 0.000000 0.000000 0.000000 0.031280 0.000000 0.012647
# 5 -0.010720 -0.012004 -0.005552 0.000000 0.043571 0.000000
# 6 0.000000 0.000000 0.000000 0.012647 0.000000 0.081726
#
#
# Mechanical properties :
#
#
# Convention : Reuss Voigt Hill
#
# Bulk Modulus (GPa) = 13.62232 54.20639 33.91436
# Shear Modulus (GPa) = 16.86802 28.53513 22.70158
#
# Velocity S-wave (km/s) = 2.72617 3.54577 3.16263
# Velocity P-wave (km/s) = 3.98890 6.37546 5.31779
#
# Compressibility (1/GPa) = 0.07340892
#
# Stress axis : x y z
#
# Youngs Moduli (GPa) = 22.85016 29.36898 60.32148
#
# Poissons Ratio (x) = -0.53917 0.90412
# Poissons Ratio (y) = -0.41949 0.83611
# Poissons Ratio (z) = 0.34249 0.40708
#
# Static dielectric constant tensor:
#      x y z
#    x 1.909980 0.000000 -0.017290 
#    y 0.000000 1.805240 0.000000 
#    z -0.017290 0.000000 1.945430 
# 
# From -- ./inp_files/160367.got.cif
#   From: 2010.05.17/outbox.cif.g08.bks.cpg/sg15_81_cif.got.tgz:160367.got - 2010.06.03 18:47:42.
