data_PCOD9264509
_publ_section_title
;
Structure prediction by ZEFSAII (Michael W. Deem and Ramdas Pophale) SiO2 
 PCOD9264509
Probable space group: C 2/C
;
_chemical_formula_sum "Si O2"
_cell_formula_units_Z 64
_cell_length_a 30.392389
_cell_length_b 18.846726
_cell_length_c 9.344400
_cell_angle_alpha 90.000000
_cell_angle_beta 38.421922
_cell_angle_gamma 90.000000
_cell_volume 3326.263736
_symmetry_space_group_name_H-M "C 2/C"
_symmetry_group_IT_number 15
_symmetry_cell_setting 'monoclinic'
loop_
_space_group_symop_operation_xyz
x,y,z
-x,y,1/2-z
-x,-y,-z
x,-y,1/2+z
1/2+x,1/2+y,z
1/2-x,1/2+y,1/2-z
1/2-x,1/2-y,-z
1/2+x,1/2-y,1/2+z
loop_
_atom_site_type_symbol
_atom_site_label
_atom_site_fract_x
_atom_site_fract_y
_atom_site_fract_z
Si Si1 0.934139 0.878176 0.602442
Si Si2 0.088830 0.124899 0.761276
Si Si3 0.286915 0.574916 0.505302
Si Si4 0.074722 0.249286 0.603770
Si Si5 0.762994 0.063359 0.237533
Si Si6 0.579575 0.700330 0.064347
Si Si7 0.197478 0.680212 0.236073
Si Si8 0.286093 0.806331 0.133782
O O1 0.870948 0.934045 0.762064
O O2 0.920312 0.818558 0.516005
O O3 0.922271 0.835352 0.777407
O O4 0.013939 0.909000 0.402216
O O5 0.073209 0.207140 0.756957
O O6 0.159257 0.093628 0.510743
O O7 0.097349 0.136031 0.908833
O O8 0.255177 0.569090 0.427521
O O9 0.260850 0.515290 0.680214
O O10 0.267744 0.649438 0.630601
O O11 0.142967 0.297934 0.451515
O O12 0.000000 0.283921 0.750000
O O13 0.702388 0.109448 0.315017
O O14 0.500000 0.726816 0.250000
O O15 0.632354 0.765840 0.914451
O O16 0.259113 0.728450 0.153494
O O17 0.206461 0.661253 0.045217
#
# Coordination Sequence:
#
# PCOD9264509 Si02
#       8
#     8   8   8   8   8   8   8   8
#     4  10  21  34  58  85 120 153 193 239 284 353
#     4  10  19  38  56  84 119 155 191 236 294 345
#     4  12  26  40  56  84 116 159 201 241 290 348
#     4  10  19  35  59  89 120 149 188 243 295 346
#     4  12  26  40  58  81 118 158 200 243 291 347
#     4  10  20  34  59  93 121 149 191 242 295 345
#     4  11  20  37  63  87 116 154 194 247 291 342
#     4  11  21  37  62  88 116 154 197 242 295 345
#
# _framework density 19.240807
#
# number of rings (size 3 to 8) (size 9 to 14) (size 15 to 20)
#    0.000    1.250    5.000    1.500    3.500    1.500 
#    0.000    0.000    0.000    0.750    0.000    3.500 
#    0.000    0.000    0.000    0.000    0.000    0.000 
#
# Total GULP energy -178275.522945 kJ/mol
# GULP energy per Si atom -5571.110092 kJ/mol
# Density = 1.919701 g / cm^3
# Si number density = 19.240807 Si / 1000 Ang^3
#
#
#
# Elastic Constant Matrix: (Units=GPa)
#
#
# Indices 1 2 3 4 5 6 
#
# 1 92.0818 17.0854 29.1374 0.0000 0.9240 0.0000
# 2 17.0854 27.8224 -0.4005 0.0000 5.8276 0.0000
# 3 29.1374 -0.4005 52.3674 0.0000 17.3274 0.0000
# 4 0.0000 0.0000 0.0000 18.4943 0.0000 1.2363
# 5 0.9240 5.8276 17.3274 0.0000 44.1603 0.0000
# 6 0.0000 0.0000 0.0000 1.2363 0.0000 16.2424
#
#
#
# Elastic Compliance Matrix: (Units=1/GPa)
#
#
# Indices 1 2 3 4 5 6 
#
# 1 0.016408 -0.011384 -0.011032 0.000000 0.005488 0.000000
# 2 -0.011384 0.045080 0.009847 0.000000 -0.009575 0.000000
# 3 -0.011032 0.009847 0.029492 0.000000 -0.012641 0.000000
# 4 0.000000 0.000000 0.000000 0.054347 0.000000 -0.004137
# 5 0.005488 -0.009575 -0.012641 0.000000 0.028753 0.000000
# 6 0.000000 0.000000 0.000000 -0.004137 0.000000 0.061882
#
#
# Mechanical properties :
#
#
# Convention : Reuss Voigt Hill
#
# Bulk Modulus (GPa) = 15.18803 29.32404 22.25603
# Shear Modulus (GPa) = 17.66474 24.20937 20.93706
#
# Velocity S-wave (km/s) = 3.03328 3.55100 3.30230
# Velocity P-wave (km/s) = 4.49205 5.66449 5.11200
#
# Compressibility (1/GPa) = 0.06584132
#
# Stress axis : x y z
#
# Youngs Moduli (GPa) = 60.94541 22.18259 33.90729
#
# Poissons Ratio (x) = 0.25253 0.37408
# Poissons Ratio (y) = 0.69382 -0.33389
# Poissons Ratio (z) = 0.67238 -0.21843
#
# Static dielectric constant tensor:
#      x y z
#    x 1.746600 0.000000 -0.040680 
#    y 0.000000 1.653870 0.000000 
#    z -0.040680 0.000000 1.736970 
# 
# From -- ./inp_files/70595.got.cif
#   From: 2010.05.17/outbox.cif.g08.bks.cpg/sg15_36_cif.got.tgz:70595.got - 2010.06.03 18:47:42.
