data_PCOD9264500
_publ_section_title
;
Structure prediction by ZEFSAII (Michael W. Deem and Ramdas Pophale) SiO2 
 PCOD9264500
Probable space group: C 2/C
;
_chemical_formula_sum "Si O2"
_cell_formula_units_Z 40
_cell_length_a 9.153849
_cell_length_b 27.779462
_cell_length_c 8.429611
_cell_angle_alpha 90.000000
_cell_angle_beta 56.460022
_cell_angle_gamma 90.000000
_cell_volume 1786.656141
_symmetry_space_group_name_H-M "C 2/C"
_symmetry_group_IT_number 15
_symmetry_cell_setting 'monoclinic'
loop_
_space_group_symop_operation_xyz
x,y,z
-x,y,1/2-z
-x,-y,-z
x,-y,1/2+z
1/2+x,1/2+y,z
1/2-x,1/2+y,1/2-z
1/2-x,1/2-y,-z
1/2+x,1/2-y,1/2+z
loop_
_atom_site_type_symbol
_atom_site_label
_atom_site_fract_x
_atom_site_fract_y
_atom_site_fract_z
Si Si1 0.016614 0.228174 0.426636
Si Si2 0.613922 0.821655 0.827450
Si Si3 0.333019 0.360498 0.966604
Si Si4 0.876973 0.475834 0.945706
Si Si5 0.149475 0.959764 0.367647
O O1 0.199760 0.200541 0.342875
O O2 0.000000 0.240810 0.250000
O O3 0.990600 0.275766 0.542051
O O4 0.859386 0.189392 0.546009
O O5 0.500000 0.841220 0.750000
O O6 0.667374 0.856088 0.945402
O O7 0.500000 0.362126 0.750000
O O8 0.364536 0.406113 0.058069
O O9 0.802044 0.518044 0.883167
O O10 0.000000 0.446139 0.750000
O O11 0.714114 0.455921 0.146457
O O12 0.000000 0.500000 0.000000
O O13 0.000000 0.000000 0.500000
#
# Coordination Sequence:
#
# PCOD9264500 Si02
#       5
#     8   8   8   8   8
#     4   9  18  35  58  85 121 161 197 242 304 371
#     4  10  19  35  59  88 121 158 198 250 308 369
#     4   9  19  35  56  87 122 159 205 254 304 369
#     4   9  20  38  58  85 119 154 192 248 316 368
#     4  11  20  37  64  87 114 162 211 252 303 371
#
# _framework density 22.388193000000001
#
# number of rings (size 3 to 8) (size 9 to 14) (size 15 to 20)
#    0.000    2.800    0.000    4.800    0.000    0.000 
#    0.000   18.000    0.000    2.400    0.000    0.000 
#    0.000    0.000    0.000    0.000    0.000    0.000 
#
# Total GULP energy -111338.349118 kJ/mol
# GULP energy per Si atom -5566.917456 kJ/mol
# Density = 2.233724 g / cm^3
# Si number density = 22.388193 Si / 1000 Ang^3
#
#
#
# Elastic Constant Matrix: (Units=GPa)
#
#
# Indices 1 2 3 4 5 6 
#
# 1 103.5196 2.8947 17.2903 0.0000 1.6377 0.0000
# 2 2.8947 107.3706 50.5742 0.0000 10.4441 0.0000
# 3 17.2903 50.5742 117.5040 0.0000 3.3251 0.0000
# 4 0.0000 0.0000 0.0000 15.1620 0.0000 23.9431
# 5 1.6377 10.4441 3.3251 0.0000 26.3951 0.0000
# 6 0.0000 0.0000 0.0000 23.9431 0.0000 3.4719
#
#
#
# Elastic Compliance Matrix: (Units=1/GPa)
#
#
# Indices 1 2 3 4 5 6 
#
# 1 0.009937 0.000595 -0.001700 0.000000 -0.000638 0.000000
# 2 0.000595 0.012155 -0.005200 0.000000 -0.004191 0.000000
# 3 -0.001700 -0.005200 0.010977 0.000000 0.000780 0.000000
# 4 0.000000 0.000000 0.000000 -0.006669 0.000000 0.045988
# 5 -0.000638 -0.004191 0.000780 0.000000 0.039485 0.000000
# 6 0.000000 0.000000 0.000000 0.045988 0.000000 -0.029122
#
#
# Mechanical properties :
#
#
# Convention : Reuss Voigt Hill
#
# Bulk Modulus (GPa) = 48.88179 52.21252 50.54715
# Shear Modulus (GPa) = 88.97743 26.18147 57.57945
#
# Velocity S-wave (km/s) = 6.31105 3.42341 5.07686
# Velocity P-wave (km/s) = 8.65950 6.24487 7.54934
#
# Compressibility (1/GPa) = 0.02045752
#
# Stress axis : x y z
#
# Youngs Moduli (GPa) = 100.62945 82.27269 91.10185
#
# Poissons Ratio (x) = -0.04895 0.15490
# Poissons Ratio (y) = -0.05988 0.47376
# Poissons Ratio (z) = 0.17110 0.42785
#
# Static dielectric constant tensor:
#      x y z
#    x 1.882710 0.000000 -0.074040 
#    y 0.000000 1.902180 0.000000 
#    z -0.074040 0.000000 1.874540 
# 
# From -- ./inp_files/25391.got.cif
#   From: 2010.05.17/outbox.cif.g08.bks.cpg/sg15_13_cif.got.tgz:25391.got - 2010.06.03 18:47:42.
