data_PCOD9264377
_publ_section_title
;
Structure prediction by ZEFSAII (Michael W. Deem and Ramdas Pophale) SiO2 
 PCOD9264377
Probable space group: C 2/C
;
_chemical_formula_sum "Si O2"
_cell_formula_units_Z 56
_cell_length_a 17.098009
_cell_length_b 10.324395
_cell_length_c 23.292726
_cell_angle_alpha 90.000000
_cell_angle_beta 136.766355
_cell_angle_gamma 90.000000
_cell_volume 2816.470611
_symmetry_space_group_name_H-M "C 2/C"
_symmetry_group_IT_number 15
_symmetry_cell_setting 'monoclinic'
loop_
_space_group_symop_operation_xyz
x,y,z
-x,y,1/2-z
-x,-y,-z
x,-y,1/2+z
1/2+x,1/2+y,z
1/2-x,1/2+y,1/2-z
1/2-x,1/2-y,-z
1/2+x,1/2-y,1/2+z
loop_
_atom_site_type_symbol
_atom_site_label
_atom_site_fract_x
_atom_site_fract_y
_atom_site_fract_z
Si Si1 0.000000 0.578588 0.750000
Si Si2 0.971187 0.114833 0.942278
Si Si3 0.207943 0.019708 0.370667
Si Si4 0.500000 0.360006 0.250000
Si Si5 0.749692 0.813123 0.371337
Si Si6 0.437439 0.882940 0.498375
Si Si7 0.088867 0.637215 0.381420
Si Si8 0.173395 0.004898 0.985396
O O1 0.115230 0.654849 0.795862
O O2 0.032926 0.484798 0.819633
O O3 0.834609 0.134243 0.866793
O O4 0.018005 0.244719 0.997499
O O5 0.052755 0.074121 0.933463
O O6 0.000000 0.000000 0.000000
O O7 0.254260 0.157794 0.374756
O O8 0.305324 0.911767 0.418257
O O9 0.179400 0.039853 0.422933
O O10 0.098784 0.957236 0.282053
O O11 0.552074 0.263893 0.326115
O O12 0.796946 0.887817 0.454112
O O13 0.452614 0.872358 0.575320
O O14 0.500000 0.000000 0.500000
O O15 0.225136 0.610658 0.452002
#
# Coordination Sequence:
#
# PCOD9264377 Si02
#       8
#     4   8   8   4   8   8   8   8
#     4   9  19  38  60  82 123 167 194 236 308 376
#     4  10  20  35  57  86 117 148 193 255 304 351
#     4  11  21  35  59  89 119 156 201 258 306 366
#     4  11  21  34  56  86 121 149 204 252 312 380
#     4  10  19  35  58  86 125 157 201 252 304 366
#     4  11  21  39  63  85 119 155 207 257 300 353
#     4   9  20  38  61  85 113 161 206 250 299 368
#     4   9  19  36  61  87 111 158 211 251 301 355
#
# _framework density 19.883042
#
# number of rings (size 3 to 8) (size 9 to 14) (size 15 to 20)
#    0.000    2.000    1.429    2.571    0.000    3.429 
#    0.000    2.857    0.000    0.000    0.000    0.000 
#    0.000    0.000    0.000    0.000    0.000    0.000 
#
# Total GULP energy -156069.225225 kJ/mol
# GULP energy per Si atom -5573.900901 kJ/mol
# Density = 1.983779 g / cm^3
# Si number density = 19.883042 Si / 1000 Ang^3
#
#
#
# Elastic Constant Matrix: (Units=GPa)
#
#
# Indices 1 2 3 4 5 6 
#
# 1 89.7581 24.3510 32.9354 0.0000 24.0139 0.0000
# 2 24.3510 111.4459 18.5429 0.0000 9.2607 0.0000
# 3 32.9354 18.5429 63.4499 0.0000 22.7275 0.0000
# 4 0.0000 0.0000 0.0000 20.2672 0.0000 9.8117
# 5 24.0139 9.2607 22.7275 0.0000 30.6021 0.0000
# 6 0.0000 0.0000 0.0000 9.8117 0.0000 29.0604
#
#
#
# Elastic Compliance Matrix: (Units=1/GPa)
#
#
# Indices 1 2 3 4 5 6 
#
# 1 0.015541 -0.001955 -0.004550 0.000000 -0.008225 0.000000
# 2 -0.001955 0.009705 -0.001797 0.000000 -0.000068 0.000000
# 3 -0.004550 -0.001797 0.023398 0.000000 -0.013263 0.000000
# 4 0.000000 0.000000 0.000000 0.058982 0.000000 -0.019914
# 5 -0.008225 -0.000068 -0.013263 0.000000 0.049003 0.000000
# 6 0.000000 0.000000 0.000000 -0.019914 0.000000 0.041135
#
#
# Mechanical properties :
#
#
# Convention : Reuss Voigt Hill
#
# Bulk Modulus (GPa) = 31.21034 46.25694 38.73364
# Shear Modulus (GPa) = 22.21756 28.57423 25.39589
#
# Velocity S-wave (km/s) = 3.34640 3.79504 3.57776
# Velocity P-wave (km/s) = 5.53735 6.52060 6.04898
#
# Compressibility (1/GPa) = 0.03204066
#
# Stress axis : x y z
#
# Youngs Moduli (GPa) = 64.34397 103.04152 42.73863
#
# Poissons Ratio (x) = 0.20148 0.19444
# Poissons Ratio (y) = 0.12582 0.07680
# Poissons Ratio (z) = 0.29274 0.18515
#
# Static dielectric constant tensor:
#      x y z
#    x 1.760680 0.000000 0.029180 
#    y 0.000000 1.703790 0.000000 
#    z 0.029180 0.000000 1.703230 
# 
# From -- ./inp_files/298612.got.cif
#   From: 2010.05.17/outbox.cif.g08.bks.cpg/sg15_150_cif.got.tgz:298612.got - 2010.06.03 18:47:42.
