data_PCOD9264160
_publ_section_title
;
Structure prediction by ZEFSAII (Michael W. Deem and Ramdas Pophale) SiO2 
 PCOD9264160
Probable space group: C 2/C
;
_chemical_formula_sum "Si O2"
_cell_formula_units_Z 64
_cell_length_a 8.221182
_cell_length_b 14.946010
_cell_length_c 25.923731
_cell_angle_alpha 90.000000
_cell_angle_beta 114.334639
_cell_angle_gamma 90.000000
_cell_volume 2902.344613
_symmetry_space_group_name_H-M "C 2/C"
_symmetry_group_IT_number 15
_symmetry_cell_setting 'monoclinic'
loop_
_space_group_symop_operation_xyz
x,y,z
-x,y,1/2-z
-x,-y,-z
x,-y,1/2+z
1/2+x,1/2+y,z
1/2-x,1/2+y,1/2-z
1/2-x,1/2-y,-z
1/2+x,1/2-y,1/2+z
loop_
_atom_site_type_symbol
_atom_site_label
_atom_site_fract_x
_atom_site_fract_y
_atom_site_fract_z
Si Si1 0.564405 0.421266 0.471540
Si Si2 0.855117 0.622890 0.885613
Si Si3 0.546421 0.501899 0.314124
Si Si4 0.270869 0.660672 0.114969
Si Si5 0.949392 0.216304 0.038181
Si Si6 0.947236 0.672865 0.686313
Si Si7 0.774436 0.997077 0.360866
Si Si8 0.082231 0.556245 0.435418
O O1 0.500000 0.500000 0.500000
O O2 0.522725 0.332342 0.497587
O O3 0.429434 0.437206 0.407795
O O4 0.777054 0.436265 0.499078
O O5 0.662381 0.576965 0.856159
O O6 0.912552 0.706089 0.928439
O O7 0.893580 0.662345 0.833606
O O8 0.990647 0.541557 0.918378
O O9 0.500000 0.477505 0.250000
O O10 0.671079 0.588868 0.334568
O O11 0.371220 0.532027 0.322685
O O12 0.401109 0.653382 0.081569
O O13 0.307196 0.758813 0.141894
O O14 0.069037 0.631060 0.076887
O O15 0.750000 0.250000 0.000000
O O16 0.870329 0.573157 0.677732
O O17 0.000000 0.703296 0.750000
O O18 0.690552 0.060941 0.394453
#
# Coordination Sequence:
#
# PCOD9264160 Si02
#       8
#     8   8   8   8   8   8   8   8
#     4  10  19  35  56  81 113 148 181 226 284 339
#     4   9  21  37  55  82 113 149 194 233 284 350
#     4  11  22  39  61  85 112 151 199 248 291 338
#     4  10  21  36  58  86 113 148 197 238 281 348
#     4  11  21  37  59  85 119 155 189 234 291 350
#     4  10  19  36  57  78 110 149 187 238 288 335
#     4  10  21  37  57  83 113 148 189 232 287 349
#     4   9  19  37  57  82 116 150 185 233 289 345
#
# _framework density 22.051138000000002
#
# number of rings (size 3 to 8) (size 9 to 14) (size 15 to 20)
#    0.000    2.000    0.000    5.625    0.000    2.000 
#    0.000    8.125    0.000    1.500    0.000    0.000 
#    0.000    0.000    0.000    0.000    0.000    0.000 
#
# Total GULP energy -178474.909864 kJ/mol
# GULP energy per Si atom -5577.340933 kJ/mol
# Density = 2.200095 g / cm^3
# Si number density = 22.051138 Si / 1000 Ang^3
#
#
#
# Elastic Constant Matrix: (Units=GPa)
#
#
# Indices 1 2 3 4 5 6 
#
# 1 74.6568 11.3213 9.3982 0.0000 -7.6649 0.0000
# 2 11.3213 49.2776 -2.2166 0.0000 -2.5776 0.0000
# 3 9.3982 -2.2166 59.8626 0.0000 -3.5900 0.0000
# 4 0.0000 0.0000 0.0000 30.2021 0.0000 0.1375
# 5 -7.6649 -2.5776 -3.5900 0.0000 25.2062 0.0000
# 6 0.0000 0.0000 0.0000 0.1375 0.0000 26.1369
#
#
#
# Elastic Compliance Matrix: (Units=1/GPa)
#
#
# Indices 1 2 3 4 5 6 
#
# 1 0.014549 -0.003243 -0.002177 0.000000 0.003782 0.000000
# 2 -0.003243 0.021172 0.001375 0.000000 0.001375 0.000000
# 3 -0.002177 0.001375 0.017213 0.000000 0.001930 0.000000
# 4 0.000000 0.000000 0.000000 0.033111 0.000000 -0.000174
# 5 0.003782 0.001375 0.001930 0.000000 0.041239 0.000000
# 6 0.000000 0.000000 0.000000 -0.000174 0.000000 0.038261
#
#
# Mechanical properties :
#
#
# Convention : Reuss Voigt Hill
#
# Bulk Modulus (GPa) = 22.29889 24.53363 23.41626
# Shear Modulus (GPa) = 26.51365 27.32863 26.92114
#
# Velocity S-wave (km/s) = 3.47128 3.52423 3.49786
# Velocity P-wave (km/s) = 5.11866 5.26405 5.19187
#
# Compressibility (1/GPa) = 0.04484529
#
# Stress axis : x y z
#
# Youngs Moduli (GPa) = 68.73429 47.23226 58.09412
#
# Poissons Ratio (x) = 0.15316 0.12649
# Poissons Ratio (y) = 0.22288 -0.07991
# Poissons Ratio (z) = 0.14966 -0.06497
#
# Static dielectric constant tensor:
#      x y z
#    x 1.898400 0.000000 -0.014310 
#    y 0.000000 1.502180 0.000000 
#    z -0.014310 0.000000 1.848000 
# 
# From -- ./inp_files/308025.got.cif
#   From: 2010.05.17/outbox.cif.g08.bks.cpg/sg15_155_cif.got.tgz:308025.got - 2010.06.03 18:47:42.
