data_PCOD9264914
_publ_section_title
;
Structure prediction by ZEFSAII (Michael W. Deem and Ramdas Pophale) SiO2 
 PCOD9264914
Probable space group: C 2/C
;
_chemical_formula_sum "Si O2"
_cell_formula_units_Z 52
_cell_length_a 29.308673
_cell_length_b 23.419269
_cell_length_c 8.370216
_cell_angle_alpha 90.000000
_cell_angle_beta 152.107757
_cell_angle_gamma 90.000000
_cell_volume 2687.669152
_symmetry_space_group_name_H-M "C 2/C"
_symmetry_group_IT_number 15
_symmetry_cell_setting 'monoclinic'
loop_
_space_group_symop_operation_xyz
x,y,z
-x,y,1/2-z
-x,-y,-z
x,-y,1/2+z
1/2+x,1/2+y,z
1/2-x,1/2+y,1/2-z
1/2-x,1/2-y,-z
1/2+x,1/2-y,1/2+z
loop_
_atom_site_type_symbol
_atom_site_label
_atom_site_fract_x
_atom_site_fract_y
_atom_site_fract_z
Si Si1 0.000000 0.207157 0.750000
Si Si2 0.772596 0.317438 0.422711
Si Si3 0.636370 0.411566 0.366733
Si Si4 0.157213 0.709103 0.680912
Si Si5 0.914838 0.120542 0.236748
Si Si6 0.616004 0.520404 0.127640
Si Si7 0.294183 0.186262 0.329938
O O1 0.930644 0.248711 0.635168
O O2 0.935065 0.166219 0.440553
O O3 0.819321 0.332118 0.394781
O O4 0.747230 0.250413 0.321457
O O5 0.833856 0.326818 0.774049
O O6 0.669674 0.350158 0.126623
O O7 0.658576 0.458646 0.299841
O O8 0.647762 0.446019 0.568740
O O9 0.706723 0.357825 0.590171
O O10 0.522804 0.392251 0.003661
O O11 0.250000 0.750000 0.000000
O O12 0.140300 0.684065 0.807089
O O13 0.875252 0.062893 0.194861
O O14 0.500000 0.511724 0.750000
#
# Coordination Sequence:
#
# PCOD9264914 Si02
#       7
#     4   8   8   8   8   8   8
#     4  12  18  32  62  80 106 166 184 218 304 334
#     4  10  21  34  54  76 109 146 188 235 286 321
#     4  11  22  34  52  75 115 157 195 230 274 331
#     4  10  19  36  53  76 114 143 185 238 270 348
#     4  11  18  32  54  78 109 157 192 225 278 340
#     4  10  21  32  46  75 110 148 199 232 257 333
#     4  10  21  36  51  76 108 150 186 240 274 327
#
# _framework density 19.347619000000002
#
# number of rings (size 3 to 8) (size 9 to 14) (size 15 to 20)
#    0.000    1.538    5.385    4.615    4.308    0.000 
#    0.000    0.769    0.000    0.000    0.000    0.000 
#    0.000    4.923    0.000    0.154    0.000    0.000 
#
# Total GULP energy -144941.838334 kJ/mol
# GULP energy per Si atom -5574.686090 kJ/mol
# Density = 1.930358 g / cm^3
# Si number density = 19.347619 Si / 1000 Ang^3
#
#
#
# Elastic Constant Matrix: (Units=GPa)
#
#
# Indices 1 2 3 4 5 6 
#
# 1 79.3915 16.3169 14.7304 0.0000 -29.0728 0.0000
# 2 16.3169 112.2706 29.3107 0.0000 5.8895 0.0000
# 3 14.7304 29.3107 17.0380 0.0000 -10.6824 0.0000
# 4 0.0000 0.0000 0.0000 29.4233 0.0000 -1.0252
# 5 -29.0728 5.8895 -10.6824 0.0000 34.7617 0.0000
# 6 0.0000 0.0000 0.0000 -1.0252 0.0000 16.0526
#
#
#
# Elastic Compliance Matrix: (Units=1/GPa)
#
#
# Indices 1 2 3 4 5 6 
#
# 1 0.019601 -0.003899 0.000562 0.000000 0.017227 0.000000
# 2 -0.003899 0.025247 -0.055477 0.000000 -0.024587 0.000000
# 3 0.000562 -0.055477 0.197975 0.000000 0.070708 0.000000
# 4 0.000000 0.000000 0.000000 0.034062 0.000000 0.002175
# 5 0.017227 -0.024587 0.070708 0.000000 0.069069 0.000000
# 6 0.000000 0.000000 0.000000 0.002175 0.000000 0.062434
#
#
# Mechanical properties :
#
#
# Convention : Reuss Voigt Hill
#
# Bulk Modulus (GPa) = 7.98749 36.60180 22.29465
# Shear Modulus (GPa) = 8.80672 25.93701 17.37186
#
# Velocity S-wave (km/s) = 2.13582 3.66536 2.99972
# Velocity P-wave (km/s) = 3.19682 6.07225 4.85242
#
# Compressibility (1/GPa) = 0.12519571
#
# Stress axis : x y z
#
# Youngs Moduli (GPa) = 51.01701 39.60875 5.05114
#
# Poissons Ratio (x) = 0.15444 -0.00284
# Poissons Ratio (y) = 0.19893 0.28022
# Poissons Ratio (z) = -0.02868 2.19736
#
# Static dielectric constant tensor:
#      x y z
#    x 1.890750 0.000000 -0.114370 
#    y 0.000000 1.672170 0.000000 
#    z -0.114370 0.000000 1.714030 
# 
# From -- ./inp_files/67688.got.cif
#   From: 2010.05.17/outbox.cif.g08.bks.cpg/sg15_34_cif.got.tgz:67688.got - 2010.06.03 18:47:42.
