data_PCOD9264410
_publ_section_title
;
Structure prediction by ZEFSAII (Michael W. Deem and Ramdas Pophale) SiO2 
 PCOD9264410
Probable space group: C 2/C
;
_chemical_formula_sum "Si O2"
_cell_formula_units_Z 64
_cell_length_a 15.156970
_cell_length_b 21.357957
_cell_length_c 8.336391
_cell_angle_alpha 90.000000
_cell_angle_beta 92.489212
_cell_angle_gamma 90.000000
_cell_volume 2696.126024
_symmetry_space_group_name_H-M "C 2/C"
_symmetry_group_IT_number 15
_symmetry_cell_setting 'monoclinic'
loop_
_space_group_symop_operation_xyz
x,y,z
-x,y,1/2-z
-x,-y,-z
x,-y,1/2+z
1/2+x,1/2+y,z
1/2-x,1/2+y,1/2-z
1/2-x,1/2-y,-z
1/2+x,1/2-y,1/2+z
loop_
_atom_site_type_symbol
_atom_site_label
_atom_site_fract_x
_atom_site_fract_y
_atom_site_fract_z
Si Si1 0.686564 0.605804 0.027800
Si Si2 0.137828 0.592148 0.966742
Si Si3 0.098969 0.983563 0.300113
Si Si4 0.197167 0.703441 0.611443
Si Si5 0.358515 0.963415 0.678399
Si Si6 0.972198 0.645582 0.068336
Si Si7 0.163085 0.097107 0.503601
Si Si8 0.396926 0.699685 0.213370
O O1 0.765162 0.561565 0.101762
O O2 0.644463 0.653382 0.152660
O O3 0.609030 0.563530 0.950520
O O4 0.737581 0.644019 0.890254
O O5 0.133060 0.557293 0.138138
O O6 0.235990 0.617993 0.972751
O O7 0.057796 0.640344 0.963814
O O8 0.130742 0.537268 0.836878
O O9 0.000000 0.001553 0.250000
O O10 0.150408 0.045357 0.360836
O O11 0.134521 0.942466 0.155619
O O12 0.250000 0.750000 0.500000
O O13 0.106667 0.684717 0.513826
O O14 0.165531 0.739610 0.767746
O O15 0.432459 0.924274 0.589048
O O16 0.000000 0.667439 0.250000
O O17 0.110424 0.159219 0.449724
O O18 0.500000 0.713295 0.250000
#
# Coordination Sequence:
#
# PCOD9264410 Si02
#       8
#     8   8   8   8   8   8   8   8
#     4  10  20  41  65  89 127 168 214 256 325 389
#     4  11  20  35  59  93 133 165 207 250 317 384
#     4  12  24  40  63  96 129 167 217 264 323 389
#     4   9  21  42  68  88 120 175 216 263 323 383
#     4  10  19  35  58  91 130 171 203 246 312 387
#     4   9  20  37  62  94 125 164 214 259 306 379
#     4  12  23  38  62  95 129 170 204 266 323 380
#     4  11  22  42  65  89 120 164 218 268 322 370
#
# _framework density 23.737762
#
# number of rings (size 3 to 8) (size 9 to 14) (size 15 to 20)
#    0.000    1.500    2.500    3.375    1.750    0.000 
#    2.250    5.625    0.000    0.000    0.000    0.000 
#    0.000    0.000    0.000    0.000    0.000    0.000 
#
# Total GULP energy -178926.027461 kJ/mol
# GULP energy per Si atom -5591.438358 kJ/mol
# Density = 2.368373 g / cm^3
# Si number density = 23.737762 Si / 1000 Ang^3
#
#
#
# Elastic Constant Matrix: (Units=GPa)
#
#
# Indices 1 2 3 4 5 6 
#
# 1 132.1998 25.2210 15.9656 0.0000 -7.4547 0.0000
# 2 25.2210 62.4409 23.8119 0.0000 2.4948 0.0000
# 3 15.9656 23.8119 52.4073 0.0000 -5.3032 0.0000
# 4 0.0000 0.0000 0.0000 27.4755 0.0000 -1.9221
# 5 -7.4547 2.4948 -5.3032 0.0000 27.8835 0.0000
# 6 0.0000 0.0000 0.0000 -1.9221 0.0000 38.2255
#
#
#
# Elastic Compliance Matrix: (Units=1/GPa)
#
#
# Indices 1 2 3 4 5 6 
#
# 1 0.008406 -0.003150 -0.000891 0.000000 0.002360 0.000000
# 2 -0.003150 0.020888 -0.008978 0.000000 -0.004419 0.000000
# 3 -0.000891 -0.008978 0.023950 0.000000 0.005120 0.000000
# 4 0.000000 0.000000 0.000000 0.036524 0.000000 0.001837
# 5 0.002360 -0.004419 0.005120 0.000000 0.037864 0.000000
# 6 0.000000 0.000000 0.000000 0.001837 0.000000 0.026253
#
#
# Mechanical properties :
#
#
# Convention : Reuss Voigt Hill
#
# Bulk Modulus (GPa) = 36.75643 41.89389 39.32516
# Shear Modulus (GPa) = 26.45625 30.85354 28.65490
#
# Velocity S-wave (km/s) = 3.34207 3.60914 3.47817
# Velocity P-wave (km/s) = 5.51457 5.92071 5.72125
#
# Compressibility (1/GPa) = 0.02720613
#
# Stress axis : x y z
#
# Youngs Moduli (GPa) = 118.96434 47.87487 41.75336
#
# Poissons Ratio (x) = 0.15080 0.03720
# Poissons Ratio (y) = 0.37472 0.37487
# Poissons Ratio (z) = 0.10598 0.42983
#
# Static dielectric constant tensor:
#      x y z
#    x 1.872140 0.000000 -0.035940 
#    y 0.000000 1.907330 0.000000 
#    z -0.035940 0.000000 1.976380 
# 
# From -- ./inp_files/42661.got.cif
#   From: 2010.05.17/outbox.cif.g08.bks.cpg/sg15_22_cif.got.tgz:42661.got - 2010.06.03 18:47:42.
