data_PCOD9264578
_publ_section_title
;
Structure prediction by ZEFSAII (Michael W. Deem and Ramdas Pophale) SiO2 
 PCOD9264578
Probable space group: C 2/C
;
_chemical_formula_sum "Si O2"
_cell_formula_units_Z 40
_cell_length_a 16.862662
_cell_length_b 18.716746
_cell_length_c 5.389376
_cell_angle_alpha 90.000000
_cell_angle_beta 93.107804
_cell_angle_gamma 90.000000
_cell_volume 1698.461772
_symmetry_space_group_name_H-M "C 2/C"
_symmetry_group_IT_number 15
_symmetry_cell_setting 'monoclinic'
loop_
_space_group_symop_operation_xyz
x,y,z
-x,y,1/2-z
-x,-y,-z
x,-y,1/2+z
1/2+x,1/2+y,z
1/2-x,1/2+y,1/2-z
1/2-x,1/2-y,-z
1/2+x,1/2-y,1/2+z
loop_
_atom_site_type_symbol
_atom_site_label
_atom_site_fract_x
_atom_site_fract_y
_atom_site_fract_z
Si Si1 0.452372 0.912571 0.000700
Si Si2 0.783899 0.086637 0.531075
Si Si3 0.904931 0.193683 0.696489
Si Si4 0.089326 0.255321 0.304094
Si Si5 0.278708 0.929314 0.979042
O O1 0.500000 0.941729 0.250000
O O2 0.425552 0.833939 0.088734
O O3 0.500000 0.905510 0.750000
O O4 0.369258 0.952461 0.949145
O O5 0.870037 0.118184 0.600879
O O6 0.750073 0.113590 0.264523
O O7 0.774613 0.000971 0.511213
O O8 0.730718 0.108040 0.758263
O O9 0.879151 0.247814 0.470606
O O10 0.000000 0.194892 0.750000
O O11 0.871065 0.213471 0.961851
O O12 0.000000 0.224323 0.250000
#
# Coordination Sequence:
#
# PCOD9264578 Si02
#       5
#     8   8   8   8   8
#     4  11  21  38  62  88 116 154 198 243 291 351
#     4  10  21  40  57  79 120 159 193 247 293 337
#     4  10  19  35  60  87 114 153 197 237 289 350
#     4   9  18  33  56  87 117 143 188 248 292 340
#     4  10  22  40  58  81 119 159 194 245 297 338
#
# _framework density 23.550723999999999
#
# number of rings (size 3 to 8) (size 9 to 14) (size 15 to 20)
#    0.000    2.000    0.000    5.400    0.000    0.000 
#    0.000   22.000    0.000    0.000    0.000    0.000 
#    0.000    0.000    0.000    0.000    0.000    0.000 
#
# Total GULP energy -111531.249298 kJ/mol
# GULP energy per Si atom -5576.562465 kJ/mol
# Density = 2.349712 g / cm^3
# Si number density = 23.550724 Si / 1000 Ang^3
#
#
#
# Elastic Constant Matrix: (Units=GPa)
#
#
# Indices 1 2 3 4 5 6 
#
# 1 42.2180 37.9443 46.8160 0.0000 7.1209 0.0000
# 2 37.9443 75.6438 31.6110 0.0000 10.9656 0.0000
# 3 46.8160 31.6110 232.0595 0.0000 7.7795 0.0000
# 4 0.0000 0.0000 0.0000 -168.9037 0.0000 -153.1241
# 5 7.1209 10.9656 7.7795 0.0000 33.3160 0.0000
# 6 0.0000 0.0000 0.0000 -153.1241 0.0000 -118.5600
#
#
#
# Elastic Compliance Matrix: (Units=1/GPa)
#
#
# Indices 1 2 3 4 5 6 
#
# 1 0.053300 -0.023312 -0.007511 0.000000 -0.001965 0.000000
# 2 -0.023312 0.024823 0.001440 0.000000 -0.003524 0.000000
# 3 -0.007511 0.001440 0.005635 0.000000 -0.000184 0.000000
# 4 0.000000 0.000000 0.000000 0.034649 0.000000 -0.044750
# 5 -0.001965 -0.003524 -0.000184 0.000000 0.031638 0.000000
# 6 0.000000 0.000000 0.000000 -0.044750 0.000000 0.049361
#
#
# Mechanical properties :
#
#
# Convention : Reuss Voigt Hill
#
# Bulk Modulus (GPa) = 40.01645 64.74043 52.37844
# Shear Modulus (GPa) = 18.76148 -35.25952 -8.24902
#
# Velocity S-wave (km/s) = 2.82555 -3.87353 -1.87357
# Velocity P-wave (km/s) = 5.26055 2.74660 4.19626
#
# Compressibility (1/GPa) = 0.02498972
#
# Stress axis : x y z
#
# Youngs Moduli (GPa) = 18.76174 40.28546 177.47413
#
# Poissons Ratio (x) = 0.93915 1.33307
# Poissons Ratio (y) = 0.43738 -0.25553
# Poissons Ratio (z) = 0.14093 -0.05800
#
# Static dielectric constant tensor:
#      x y z
#    x 1.897950 0.000000 0.002040 
#    y 0.000000 1.931860 0.000000 
#    z 0.002040 0.000000 2.005610 
# 
# From -- ./inp_files/10161.got.cif
#   From: 2010.05.17/outbox.cif.g08.bks.cpg/sg15_6_cif.got.tgz:10161.got - 2010.06.03 18:47:42.
