data_PCOD9264662
_publ_section_title
;
Structure prediction by ZEFSAII (Michael W. Deem and Ramdas Pophale) SiO2 
 PCOD9264662
Probable space group: C 2/C
;
_chemical_formula_sum "Si O2"
_cell_formula_units_Z 56
_cell_length_a 13.521569
_cell_length_b 13.004620
_cell_length_c 27.323374
_cell_angle_alpha 90.000000
_cell_angle_beta 30.553972
_cell_angle_gamma 90.000000
_cell_volume 2442.427743
_symmetry_space_group_name_H-M "C 2/C"
_symmetry_group_IT_number 15
_symmetry_cell_setting 'monoclinic'
loop_
_space_group_symop_operation_xyz
x,y,z
-x,y,1/2-z
-x,-y,-z
x,-y,1/2+z
1/2+x,1/2+y,z
1/2-x,1/2+y,1/2-z
1/2-x,1/2-y,-z
1/2+x,1/2-y,1/2+z
loop_
_atom_site_type_symbol
_atom_site_label
_atom_site_fract_x
_atom_site_fract_y
_atom_site_fract_z
Si Si1 0.369770 0.580311 0.643215
Si Si2 0.389671 0.266504 0.712959
Si Si3 0.718123 0.300715 0.958866
Si Si4 0.277575 0.637860 0.856238
Si Si5 0.106089 0.413889 0.777189
Si Si6 0.464985 0.904683 0.407901
Si Si7 0.101024 0.037537 0.128593
O O1 0.251957 0.686497 0.699938
O O2 0.552977 0.612813 0.533053
O O3 0.221179 0.489670 0.691087
O O4 0.460929 0.537526 0.655848
O O5 0.259257 0.327589 0.728816
O O6 0.552442 0.191079 0.621449
O O7 0.489698 0.362970 0.695843
O O8 0.674888 0.208423 0.940543
O O9 0.908351 0.352601 0.854269
O O10 0.750000 0.250000 0.000000
O O11 0.500000 0.670954 0.750000
O O12 0.138776 0.628773 0.869466
O O13 0.303655 0.526607 0.869197
O O14 0.039433 0.494169 0.847998
O O15 0.268684 0.927100 0.520045
#
# Coordination Sequence:
#
# PCOD9264662 Si02
#       7
#     8   8   8   8   8   8   8
#     4  10  20  35  59  90 115 163 216 251 294 365
#     4  10  20  35  59  88 125 162 209 252 303 370
#     4  12  20  38  64  92 124 170 214 250 309 389
#     4  12  24  39  62  97 131 157 205 265 333 368
#     4  10  19  35  61  89 124 162 214 258 297 374
#     4  11  22  38  60  98 126 162 206 268 319 365
#     4  11  21  38  60  93 124 164 208 260 309 376
#
# _framework density 22.928007000000001
#
# number of rings (size 3 to 8) (size 9 to 14) (size 15 to 20)
#    0.000    1.143    4.286    4.286    0.000    0.000 
#    2.571    0.000    0.000    7.714   11.143    0.000 
#    0.000    0.000    0.000    0.000    0.000    0.000 
#
# Total GULP energy -156402.123069 kJ/mol
# GULP energy per Si atom -5585.790110 kJ/mol
# Density = 2.287582 g / cm^3
# Si number density = 22.928007 Si / 1000 Ang^3
#
#
#
# Elastic Constant Matrix: (Units=GPa)
#
#
# Indices 1 2 3 4 5 6 
#
# 1 26.9850 16.2087 -14.3858 0.0000 0.2436 0.0000
# 2 16.2087 138.1341 31.4924 0.0003 -3.9306 0.0000
# 3 -14.3858 31.4924 99.1997 0.0002 -16.1971 0.0009
# 4 0.0000 0.0003 0.0002 50.8627 0.0002 -1.3583
# 5 0.2436 -3.9306 -16.1971 0.0002 20.7673 0.0000
# 6 0.0000 0.0000 0.0009 -1.3583 0.0000 7.2429
#
#
#
# Elastic Compliance Matrix: (Units=1/GPa)
#
#
# Indices 1 2 3 4 5 6 
#
# 1 0.047086 -0.007691 0.010247 0.000000 0.005984 -0.000001
# 2 -0.007691 0.009065 -0.004238 0.000000 -0.001499 0.000001
# 3 0.010247 -0.004238 0.014624 0.000000 0.010483 -0.000002
# 4 0.000000 0.000000 0.000000 0.019760 0.000000 0.003706
# 5 0.005984 -0.001499 0.010483 0.000000 0.055975 -0.000002
# 6 -0.000001 0.000001 -0.000002 0.003706 -0.000002 0.138761
#
#
# Mechanical properties :
#
#
# Convention : Reuss Voigt Hill
#
# Bulk Modulus (GPa) = 14.83433 36.77214 25.80324
# Shear Modulus (GPa) = 16.07171 31.17481 23.62326
#
# Velocity S-wave (km/s) = 2.65044 3.69139 3.21335
# Velocity P-wave (km/s) = 3.98127 5.85161 5.00459
#
# Compressibility (1/GPa) = 0.06741119
#
# Stress axis : x y z
#
# Youngs Moduli (GPa) = 21.23772 110.30998 68.38151
#
# Poissons Ratio (x) = 0.84839 -0.70071
# Poissons Ratio (y) = 0.16334 0.28981
# Poissons Ratio (z) = -0.21762 0.46750
#
# Static dielectric constant tensor:
#      x y z
#    x 1.884860 0.000000 -0.008580 
#    y 0.000000 1.841650 0.000000 
#    z -0.008580 0.000000 1.874110 
# 
# From -- ./inp_files/313730.got.cif
#   From: 2010.05.17/outbox.cif.g08.bks.cpg/sg15_157_cif.got.tgz:313730.got - 2010.06.03 18:47:42.
