data_PCOD9264963
_publ_section_title
;
Structure prediction by ZEFSAII (Michael W. Deem and Ramdas Pophale) SiO2 
 PCOD9264963
Probable space group: C 2/C
;
_chemical_formula_sum "Si O2"
_cell_formula_units_Z 64
_cell_length_a 18.043474
_cell_length_b 19.825545
_cell_length_c 8.976864
_cell_angle_alpha 90.000000
_cell_angle_beta 81.195243
_cell_angle_gamma 90.000000
_cell_volume 3173.377057
_symmetry_space_group_name_H-M "C 2/C"
_symmetry_group_IT_number 15
_symmetry_cell_setting 'monoclinic'
loop_
_space_group_symop_operation_xyz
x,y,z
-x,y,1/2-z
-x,-y,-z
x,-y,1/2+z
1/2+x,1/2+y,z
1/2-x,1/2+y,1/2-z
1/2-x,1/2-y,-z
1/2+x,1/2-y,1/2+z
loop_
_atom_site_type_symbol
_atom_site_label
_atom_site_fract_x
_atom_site_fract_y
_atom_site_fract_z
Si Si1 0.274135 0.297591 0.210259
Si Si2 0.105753 0.679320 0.806979
Si Si3 0.266068 0.648954 0.377107
Si Si4 0.852150 0.452924 0.686772
Si Si5 0.925849 0.164089 0.187319
Si Si6 0.572867 0.848392 0.627897
Si Si7 0.577751 0.058064 0.645051
Si Si8 0.419395 0.312205 0.351504
O O1 0.194570 0.314904 0.310711
O O2 0.272614 0.215698 0.187594
O O3 0.345827 0.326072 0.275680
O O4 0.272043 0.330017 0.047280
O O5 0.075726 0.754350 0.798702
O O6 0.090090 0.637729 0.663130
O O7 0.067426 0.638726 0.953928
O O8 0.220673 0.580219 0.365574
O O9 0.348999 0.640916 0.285798
O O10 0.870673 0.398208 0.809298
O O11 0.857174 0.522204 0.776091
O O12 0.910780 0.458135 0.531220
O O13 0.000000 0.139368 0.250000
O O14 0.922216 0.152397 0.011240
O O15 0.500000 0.857857 0.750000
O O16 0.589062 0.768737 0.624383
O O17 0.500000 0.037596 0.750000
O O18 0.500000 0.323559 0.250000
#
# Coordination Sequence:
#
# PCOD9264963 Si02
#       8
#     8   8   8   8   8   8   8   8
#     4  10  19  36  55  83 114 150 193 233 290 344
#     4  10  21  35  57  82 114 156 191 234 280 338
#     4  10  21  35  58  81 115 151 188 241 290 343
#     4  12  23  39  55  81 110 154 198 241 281 331
#     4  10  21  35  57  88 120 149 185 234 291 349
#     4  10  20  33  51  78 111 150 189 233 275 331
#     4  12  24  39  57  79 112 156 199 239 276 330
#     4  10  20  32  54  83 117 152 186 226 281 347
#
# _framework density 20.16779
#
# number of rings (size 3 to 8) (size 9 to 14) (size 15 to 20)
#    0.000    1.500    2.500    3.375    1.750    3.500 
#    0.000    0.000    0.000    0.000    0.000    1.750 
#    0.000    0.000    0.000    0.000    0.000    0.000 
#
# Total GULP energy -178543.148870 kJ/mol
# GULP energy per Si atom -5579.473402 kJ/mol
# Density = 2.012189 g / cm^3
# Si number density = 20.167790 Si / 1000 Ang^3
#
#
#
# Elastic Constant Matrix: (Units=GPa)
#
#
# Indices 1 2 3 4 5 6 
#
# 1 123.7362 4.2169 42.9195 0.0000 5.5951 0.0000
# 2 4.2169 29.0176 6.2908 0.0000 1.0720 0.0000
# 3 42.9195 6.2908 87.8073 0.0000 -6.2461 0.0000
# 4 0.0000 0.0000 0.0000 14.4752 0.0000 4.3188
# 5 5.5951 1.0720 -6.2461 0.0000 33.1545 0.0000
# 6 0.0000 0.0000 0.0000 4.3188 0.0000 15.4910
#
#
#
# Elastic Compliance Matrix: (Units=1/GPa)
#
#
# Indices 1 2 3 4 5 6 
#
# 1 0.009955 -0.000259 -0.005034 0.000000 -0.002620 0.000000
# 2 -0.000259 0.035099 -0.002499 0.000000 -0.001562 0.000000
# 3 -0.005034 -0.002499 0.014286 0.000000 0.003622 0.000000
# 4 0.000000 0.000000 0.000000 0.075352 0.000000 -0.021008
# 5 -0.002620 -0.001562 0.003622 0.000000 0.031337 0.000000
# 6 0.000000 0.000000 0.000000 -0.021008 0.000000 0.070411
#
#
# Mechanical properties :
#
#
# Convention : Reuss Voigt Hill
#
# Bulk Modulus (GPa) = 22.85384 38.60173 30.72779
# Shear Modulus (GPa) = 18.75416 25.09971 21.92693
#
# Velocity S-wave (km/s) = 3.05274 3.53164 3.30089
# Velocity P-wave (km/s) = 4.87669 5.98430 5.45866
#
# Compressibility (1/GPa) = 0.04375631
#
# Stress axis : x y z
#
# Youngs Moduli (GPa) = 100.45178 28.49086 69.99999
#
# Poissons Ratio (x) = 0.00737 0.35236
# Poissons Ratio (y) = 0.02598 0.17495
# Poissons Ratio (z) = 0.50565 0.07121
#
# Static dielectric constant tensor:
#      x y z
#    x 1.752350 0.000000 0.008340 
#    y 0.000000 1.707560 0.000000 
#    z 0.008340 0.000000 1.742480 
# 
# From -- ./inp_files/51243.got.cif
#   From: 2010.05.17/outbox.cif.g08.bks.cpg/sg15_26_cif.got.tgz:51243.got - 2010.06.03 18:47:42.
