data_PCOD9264962
_publ_section_title
;
Structure prediction by ZEFSAII (Michael W. Deem and Ramdas Pophale) SiO2 
 PCOD9264962
Probable space group: C 2/C
;
_chemical_formula_sum "Si O2"
_cell_formula_units_Z 32
_cell_length_a 11.937240
_cell_length_b 6.042020
_cell_length_c 20.530637
_cell_angle_alpha 90.000000
_cell_angle_beta 128.868615
_cell_angle_gamma 90.000000
_cell_volume 1152.910682
_symmetry_space_group_name_H-M "C 2/C"
_symmetry_group_IT_number 15
_symmetry_cell_setting 'monoclinic'
loop_
_space_group_symop_operation_xyz
x,y,z
-x,y,1/2-z
-x,-y,-z
x,-y,1/2+z
1/2+x,1/2+y,z
1/2-x,1/2+y,1/2-z
1/2-x,1/2-y,-z
1/2+x,1/2-y,1/2+z
loop_
_atom_site_type_symbol
_atom_site_label
_atom_site_fract_x
_atom_site_fract_y
_atom_site_fract_z
Si Si1 0.840525 0.069024 0.991979
Si Si2 0.380314 0.536650 0.247251
Si Si3 0.894343 0.318516 0.380460
Si Si4 0.415919 0.182809 0.120717
O O1 0.993929 0.187623 0.031735
O O2 0.870312 0.876850 0.054887
O O3 0.750000 0.250000 0.000000
O O4 0.725105 0.946787 0.901698
O O5 0.500000 0.671050 0.250000
O O6 0.244782 0.468234 0.153488
O O7 0.347755 0.661087 0.302676
O O8 0.462689 0.311450 0.295407
O O9 0.999523 0.498319 0.387555
#
# Coordination Sequence:
#
# PCOD9264962 Si02
#       4
#     8   8   8   8
#     4   8  16  31  59  84 108 152 190 231 287 333
#     4  11  22  35  56  85 115 151 193 233 284 343
#     4  10  19  36  55  82 116 149 189 238 285 333
#     4   9  17  34  57  81 114 152 186 234 289 330
#
# _framework density 27.755835000000001
#
# number of rings (size 3 to 8) (size 9 to 14) (size 15 to 20)
#    0.000    2.500    2.500    0.000    0.000    1.000 
#    0.000    1.250    0.000   51.000    0.000    0.000 
#    0.000    0.000    0.000    0.000    0.000    0.000 
#
# Total GULP energy -89339.260861 kJ/mol
# GULP energy per Si atom -5583.703804 kJ/mol
# Density = 2.769266 g / cm^3
# Si number density = 27.755835 Si / 1000 Ang^3
#
#
#
# Elastic Constant Matrix: (Units=GPa)
#
#
# Indices 1 2 3 4 5 6 
#
# 1 95.3270 0.6543 42.9790 0.0000 34.3704 0.0000
# 2 0.6543 104.8477 43.7233 0.0000 -0.3115 0.0000
# 3 42.9790 43.7233 103.8129 0.0000 45.3380 0.0000
# 4 0.0000 0.0000 0.0000 43.0138 0.0000 2.9516
# 5 34.3704 -0.3115 45.3380 0.0000 69.0211 0.0000
# 6 0.0000 0.0000 0.0000 2.9516 0.0000 26.0797
#
#
#
# Elastic Compliance Matrix: (Units=1/GPa)
#
#
# Indices 1 2 3 4 5 6 
#
# 1 0.014091 0.002020 -0.005082 0.000000 -0.003669 0.000000
# 2 0.002020 0.012983 -0.008261 0.000000 0.004479 0.000000
# 3 -0.005082 -0.008261 0.019810 0.000000 -0.010519 0.000000
# 4 0.000000 0.000000 0.000000 0.023430 0.000000 -0.002652
# 5 -0.003669 0.004479 -0.010519 0.000000 0.023245 0.000000
# 6 0.000000 0.000000 0.000000 -0.002652 0.000000 0.038644
#
#
# Mechanical properties :
#
#
# Convention : Reuss Voigt Hill
#
# Bulk Modulus (GPa) = 41.25537 53.18897 47.22217
# Shear Modulus (GPa) = 30.68848 42.06498 36.37673
#
# Velocity S-wave (km/s) = 3.32875 3.89721 3.62414
# Velocity P-wave (km/s) = 5.44702 6.28138 5.87902
#
# Compressibility (1/GPa) = 0.02423927
#
# Stress axis : x y z
#
# Youngs Moduli (GPa) = 70.96928 77.02293 50.47997
#
# Poissons Ratio (x) = -0.15562 0.25654
# Poissons Ratio (y) = -0.14339 0.41699
# Poissons Ratio (z) = 0.36067 0.63625
#
# Static dielectric constant tensor:
#      x y z
#    x 2.479850 0.000000 -0.011920 
#    y 0.000000 2.084230 0.000000 
#    z -0.011920 0.000000 2.258640 
# 
# From -- ./inp_files/201716.got.cif
#   From: 2010.05.17/outbox.cif.g08.bks.cpg/sg15_101_cif.got.tgz:201716.got - 2010.06.03 18:47:42.
