data_PCOD9264303
_publ_section_title
;
Structure prediction by ZEFSAII (Michael W. Deem and Ramdas Pophale) SiO2 
 PCOD9264303
Probable space group: C 2/C
;
_chemical_formula_sum "Si O2"
_cell_formula_units_Z 56
_cell_length_a 17.376864
_cell_length_b 16.861012
_cell_length_c 8.286664
_cell_angle_alpha 90.000000
_cell_angle_beta 69.309291
_cell_angle_gamma 90.000000
_cell_volume 2271.324483
_symmetry_space_group_name_H-M "C 2/C"
_symmetry_group_IT_number 15
_symmetry_cell_setting 'monoclinic'
loop_
_space_group_symop_operation_xyz
x,y,z
-x,y,1/2-z
-x,-y,-z
x,-y,1/2+z
1/2+x,1/2+y,z
1/2-x,1/2+y,1/2-z
1/2-x,1/2-y,-z
1/2+x,1/2-y,1/2+z
loop_
_atom_site_type_symbol
_atom_site_label
_atom_site_fract_x
_atom_site_fract_y
_atom_site_fract_z
Si Si1 0.077686 0.063811 0.802029
Si Si2 0.147311 0.436294 0.898075
Si Si3 0.329714 0.307795 0.119215
Si Si4 0.582482 0.911921 0.286889
Si Si5 0.548096 0.389993 0.849649
Si Si6 0.293830 0.669910 0.266134
Si Si7 0.521568 0.808015 0.914854
O O1 0.155954 0.119463 0.768191
O O2 0.000000 0.088836 0.750000
O O3 0.094511 0.971430 0.761963
O O4 0.030964 0.074849 0.004526
O O5 0.124016 0.526856 0.880601
O O6 0.233382 0.402905 0.770285
O O7 0.074915 0.388590 0.862454
O O8 0.143130 0.407306 0.088303
O O9 0.255500 0.250504 0.227611
O O10 0.413116 0.255446 0.067585
O O11 0.314881 0.330358 0.943121
O O12 0.500000 0.940572 0.250000
O O13 0.551115 0.834765 0.408548
O O14 0.500000 0.341674 0.750000
O O15 0.618118 0.340473 0.884702
O O16 0.500000 0.783602 0.750000
#
# Coordination Sequence:
#
# PCOD9264303 Si02
#       7
#     8   8   8   8   8   8   8
#     4  10  21  39  67  95 119 156 211 270 303 364
#     4  10  20  35  57  87 130 166 205 258 307 375
#     4  10  21  40  62  89 130 159 203 260 320 370
#     4  10  19  35  57  92 124 166 213 252 306 384
#     4  10  20  41  68  90 116 164 216 253 312 369
#     4  10  22  40  61  90 125 169 205 256 316 382
#     4  10  19  35  61  86 123 165 207 254 312 380
#
# _framework density 24.655218999999999
#
# number of rings (size 3 to 8) (size 9 to 14) (size 15 to 20)
#    0.000    2.000    1.429    3.429    0.000    1.143 
#   15.429    0.714    6.286    0.000    0.000    0.000 
#    0.000    0.000    0.000    0.000    0.000    0.000 
#
# Total GULP energy -156108.464806 kJ/mol
# GULP energy per Si atom -5575.302314 kJ/mol
# Density = 2.459910 g / cm^3
# Si number density = 24.655219 Si / 1000 Ang^3
#
#
#
# Elastic Constant Matrix: (Units=GPa)
#
#
# Indices 1 2 3 4 5 6 
#
# 1 106.1512 55.8948 22.0651 0.0000 -0.4409 0.0000
# 2 55.8948 111.5995 10.3932 0.0000 3.4300 0.0000
# 3 22.0651 10.3932 36.8600 0.0000 2.7868 0.0000
# 4 0.0000 0.0000 0.0000 20.9021 0.0000 5.3344
# 5 -0.4409 3.4300 2.7868 0.0000 35.1229 0.0000
# 6 0.0000 0.0000 0.0000 5.3344 0.0000 45.1380
#
#
#
# Elastic Compliance Matrix: (Units=1/GPa)
#
#
# Indices 1 2 3 4 5 6 
#
# 1 0.014302 -0.006571 -0.006812 0.000000 0.001362 0.000000
# 2 -0.006571 0.012238 0.000583 0.000000 -0.001324 0.000000
# 3 -0.006812 0.000583 0.031241 0.000000 -0.002621 0.000000
# 4 0.000000 0.000000 0.000000 0.049330 0.000000 -0.005830
# 5 0.001362 -0.001324 -0.002621 0.000000 0.028826 0.000000
# 6 0.000000 0.000000 0.000000 -0.005830 0.000000 0.022843
#
#
# Mechanical properties :
#
#
# Convention : Reuss Voigt Hill
#
# Bulk Modulus (GPa) = 31.07338 47.92411 39.49875
# Shear Modulus (GPa) = 25.62703 31.31643 28.47173
#
# Velocity S-wave (km/s) = 3.22750 3.56782 3.40191
# Velocity P-wave (km/s) = 5.14971 6.03758 5.61123
#
# Compressibility (1/GPa) = 0.03218188
#
# Stress axis : x y z
#
# Youngs Moduli (GPa) = 69.92078 81.71316 32.00905
#
# Poissons Ratio (x) = 0.53691 0.21803
# Poissons Ratio (y) = 0.45942 -0.01865
# Poissons Ratio (z) = 0.47628 -0.04762
#
# Static dielectric constant tensor:
#      x y z
#    x 1.973070 0.000000 0.035510 
#    y 0.000000 2.049840 0.000000 
#    z 0.035510 0.000000 2.285260 
# 
# From -- ./inp_files/49007.got.cif
#   From: 2010.05.17/outbox.cif.g08.bks.cpg/sg15_25_cif.got.tgz:49007.got - 2010.06.03 18:47:42.
