data_PCOD9264508
_publ_section_title
;
Structure prediction by ZEFSAII (Michael W. Deem and Ramdas Pophale) SiO2 
 PCOD9264508
Probable space group: C 2/C
;
_chemical_formula_sum "Si O2"
_cell_formula_units_Z 48
_cell_length_a 16.944339
_cell_length_b 7.904903
_cell_length_c 18.189958
_cell_angle_alpha 90.000000
_cell_angle_beta 49.651597
_cell_angle_gamma 90.000000
_cell_volume 1856.851509
_symmetry_space_group_name_H-M "C 2/C"
_symmetry_group_IT_number 15
_symmetry_cell_setting 'monoclinic'
loop_
_space_group_symop_operation_xyz
x,y,z
-x,y,1/2-z
-x,-y,-z
x,-y,1/2+z
1/2+x,1/2+y,z
1/2-x,1/2+y,1/2-z
1/2-x,1/2-y,-z
1/2+x,1/2-y,1/2+z
loop_
_atom_site_type_symbol
_atom_site_label
_atom_site_fract_x
_atom_site_fract_y
_atom_site_fract_z
Si Si1 0.588683 0.326429 0.847765
Si Si2 0.986156 0.517469 0.422854
Si Si3 0.105833 0.647867 0.229492
Si Si4 0.190235 0.743074 0.943872
Si Si5 0.703496 0.774638 0.142713
Si Si6 0.122485 0.925756 0.551262
O O1 0.630451 0.306844 0.905095
O O2 0.681568 0.318313 0.733321
O O3 0.499046 0.462854 0.889745
O O4 0.516299 0.163166 0.872588
O O5 0.069917 0.640720 0.335407
O O6 0.000000 0.500000 0.500000
O O7 0.870912 0.586490 0.484765
O O8 0.194105 0.778812 0.154971
O O9 0.152839 0.462438 0.180756
O O10 0.000000 0.673806 0.250000
O O11 0.178268 0.893926 0.008928
O O12 0.648476 0.665771 0.112153
O O13 0.820981 0.811493 0.046138
#
# Coordination Sequence:
#
# PCOD9264508 Si02
#       6
#     8   8   8   8   8   8
#     4  10  19  36  60  86 121 163 205 245 301 376
#     4   9  20  39  61  85 119 164 201 239 306 375
#     4  10  20  38  61  85 119 163 210 252 297 365
#     4  10  22  37  57  90 122 153 202 262 311 355
#     4   9  19  35  61  88 116 163 208 244 301 369
#     4  10  19  35  59  89 119 152 202 260 306 350
#
# _framework density 25.850209
#
# number of rings (size 3 to 8) (size 9 to 14) (size 15 to 20)
#    0.000    2.333    0.000    3.000    0.000    3.333 
#    0.000    6.667    0.000    0.000    0.000    0.000 
#    0.000    0.000    0.000    0.000    0.000    0.000 
#
# Total GULP energy -134267.489195 kJ/mol
# GULP energy per Si atom -5594.478716 kJ/mol
# Density = 2.579137 g / cm^3
# Si number density = 25.850209 Si / 1000 Ang^3
#
#
#
# Elastic Constant Matrix: (Units=GPa)
#
#
# Indices 1 2 3 4 5 6 
#
# 1 78.9538 3.0842 40.6469 0.0000 -5.1745 0.0001
# 2 3.0842 70.9855 28.3963 -0.0001 -0.8869 0.0002
# 3 40.6469 28.3963 175.2669 0.0000 5.2848 0.0000
# 4 0.0000 -0.0001 0.0000 32.3012 0.0000 -7.6082
# 5 -5.1745 -0.8869 5.2848 0.0000 51.5759 0.0000
# 6 0.0001 0.0002 0.0000 -7.6082 0.0000 23.9891
#
#
#
# Elastic Compliance Matrix: (Units=1/GPa)
#
#
# Indices 1 2 3 4 5 6 
#
# 1 0.014594 0.000818 -0.003573 0.000000 0.001844 0.000000
# 2 0.000818 0.015123 -0.002658 0.000000 0.000615 0.000000
# 3 -0.003573 -0.002658 0.006999 0.000000 -0.001121 0.000000
# 4 0.000000 0.000000 0.000000 0.033458 0.000000 0.010611
# 5 0.001844 0.000615 -0.001121 0.000000 0.019699 0.000000
# 6 0.000000 0.000000 0.000000 0.010611 0.000000 0.045051
#
#
# Mechanical properties :
#
#
# Convention : Reuss Voigt Hill
#
# Bulk Modulus (GPa) = 38.62570 52.16234 45.39402
# Shear Modulus (GPa) = 32.38765 38.44515 35.41640
#
# Velocity S-wave (km/s) = 3.54347 3.86064 3.70545
# Velocity P-wave (km/s) = 5.63171 6.33208 5.99214
#
# Compressibility (1/GPa) = 0.02588950
#
# Stress axis : x y z
#
# Youngs Moduli (GPa) = 68.52207 66.12455 142.88435
#
# Poissons Ratio (x) = -0.05410 0.51048
# Poissons Ratio (y) = -0.05606 0.37985
# Poissons Ratio (z) = 0.24481 0.17579
#
# Static dielectric constant tensor:
#      x y z
#    x 2.040380 0.000000 -0.042820 
#    y 0.000000 2.164260 0.000000 
#    z -0.042820 0.000000 2.058600 
# 
# From -- ./inp_files/251785.got.cif
#   From: 2010.05.17/outbox.cif.g08.bks.cpg/sg15_126_cif.got.tgz:251785.got - 2010.06.03 18:47:42.
