data_PCOD9264045
_publ_section_title
;
Structure prediction by ZEFSAII (Michael W. Deem and Ramdas Pophale) SiO2 
 PCOD9264045
Probable space group: C 2/C
;
_chemical_formula_sum "Si O2"
_cell_formula_units_Z 48
_cell_length_a 27.297140
_cell_length_b 12.700310
_cell_length_c 22.983693
_cell_angle_alpha 90.000000
_cell_angle_beta 158.627733
_cell_angle_gamma 90.000000
_cell_volume 2903.760085
_symmetry_space_group_name_H-M "C 2/C"
_symmetry_group_IT_number 15
_symmetry_cell_setting 'monoclinic'
loop_
_space_group_symop_operation_xyz
x,y,z
-x,y,1/2-z
-x,-y,-z
x,-y,1/2+z
1/2+x,1/2+y,z
1/2-x,1/2+y,1/2-z
1/2-x,1/2-y,-z
1/2+x,1/2-y,1/2+z
loop_
_atom_site_type_symbol
_atom_site_label
_atom_site_fract_x
_atom_site_fract_y
_atom_site_fract_z
Si Si1 0.898826 0.635544 0.930825
Si Si2 0.813413 0.658954 0.490374
Si Si3 0.119999 0.352574 0.301040
Si Si4 0.164634 0.495761 0.747820
Si Si5 0.403029 0.385105 0.951094
Si Si6 0.316793 0.506657 0.738700
O O1 0.848861 0.593301 0.812685
O O2 0.898629 0.760016 0.938812
O O3 0.800092 0.582860 0.868225
O O4 0.045274 0.585224 0.101400
O O5 0.840547 0.631654 0.587931
O O6 0.716339 0.760370 0.383362
O O7 0.738534 0.566176 0.373622
O O8 0.960971 0.676835 0.624849
O O9 0.145333 0.454862 0.289826
O O10 0.301354 0.434107 0.885730
O O11 0.356986 0.433611 0.838175
O O12 0.551509 0.426091 0.129752
#
# Coordination Sequence:
#
# PCOD9264045 Si02
#       6
#     8   8   8   8   8   8
#     4  10  19  35  54  77 111 142 176 219 266 320
#     4  10  21  37  58  80 109 140 177 225 269 320
#     4  10  21  37  57  82 107 141 179 220 273 319
#     4  10  20  34  55  80 108 142 178 219 268 319
#     4  10  21  33  54  81 109 142 177 218 265 323
#     4  10  20  36  53  80 109 140 177 219 270 313
#
# _framework density 16.530291999999999
#
# number of rings (size 3 to 8) (size 9 to 14) (size 15 to 20)
#    0.000    2.000    1.667    2.000    2.333    0.000 
#    6.000    0.000    0.000    6.000    0.000    0.000 
#    0.000    0.000    0.000    0.000    0.000    0.000 
#
# Total GULP energy -133892.627602 kJ/mol
# GULP energy per Si atom -5578.859483 kJ/mol
# Density = 1.649267 g / cm^3
# Si number density = 16.530292 Si / 1000 Ang^3
#
#
#
# Elastic Constant Matrix: (Units=GPa)
#
#
# Indices 1 2 3 4 5 6 
#
# 1 57.4994 37.5585 29.4307 0.0000 20.2520 0.0000
# 2 37.5585 102.2547 29.1446 0.0000 3.8997 0.0000
# 3 29.4307 29.1446 64.6465 0.0000 16.9330 0.0001
# 4 0.0000 0.0000 0.0000 18.8829 0.0000 -2.5729
# 5 20.2520 3.8997 16.9330 0.0000 26.7698 0.0000
# 6 0.0000 0.0000 0.0001 -2.5729 0.0000 22.5382
#
#
#
# Elastic Compliance Matrix: (Units=1/GPa)
#
#
# Indices 1 2 3 4 5 6 
#
# 1 0.034260 -0.010216 -0.005504 0.000000 -0.020949 0.000000
# 2 -0.010216 0.014347 -0.003948 0.000000 0.008136 0.000000
# 3 -0.005504 -0.003948 0.022190 0.000000 -0.009297 0.000000
# 4 0.000000 0.000000 0.000000 0.053795 0.000000 0.006141
# 5 -0.020949 0.008136 -0.009297 0.000000 0.057899 0.000000
# 6 0.000000 0.000000 0.000000 0.006141 0.000000 0.045070
#
#
# Mechanical properties :
#
#
# Convention : Reuss Voigt Hill
#
# Bulk Modulus (GPa) = 31.78673 46.29646 39.04159
# Shear Modulus (GPa) = 18.02547 22.18930 20.10739
#
# Velocity S-wave (km/s) = 3.30578 3.66777 3.49147
# Velocity P-wave (km/s) = 5.81739 6.78267 6.31849
#
# Compressibility (1/GPa) = 0.03145966
#
# Stress axis : x y z
#
# Youngs Moduli (GPa) = 29.18814 69.70103 45.06610
#
# Poissons Ratio (x) = 0.71208 0.24806
# Poissons Ratio (y) = 0.29819 0.17793
# Poissons Ratio (z) = 0.16066 0.27519
#
# Static dielectric constant tensor:
#      x y z
#    x 1.553620 0.000000 0.013430 
#    y 0.000000 1.524510 0.000000 
#    z 0.013430 0.000000 1.558070 
# 
# From -- ./inp_files/60530.got.cif
#   From: 2010.05.17/outbox.cif.g08.bks.cpg/sg15_31_cif.got.tgz:60530.got - 2010.06.03 18:47:42.
