data_PCOD9264634
_publ_section_title
;
Structure prediction by ZEFSAII (Michael W. Deem and Ramdas Pophale) SiO2 
 PCOD9264634
Probable space group: C 2/C
;
_chemical_formula_sum "Si O2"
_cell_formula_units_Z 40
_cell_length_a 14.650018
_cell_length_b 22.355664
_cell_length_c 9.502001
_cell_angle_alpha 90.000000
_cell_angle_beta 43.335704
_cell_angle_gamma 90.000000
_cell_volume 2135.683610
_symmetry_space_group_name_H-M "C 2/C"
_symmetry_group_IT_number 15
_symmetry_cell_setting 'monoclinic'
loop_
_space_group_symop_operation_xyz
x,y,z
-x,y,1/2-z
-x,-y,-z
x,-y,1/2+z
1/2+x,1/2+y,z
1/2-x,1/2+y,1/2-z
1/2-x,1/2-y,-z
1/2+x,1/2-y,1/2+z
loop_
_atom_site_type_symbol
_atom_site_label
_atom_site_fract_x
_atom_site_fract_y
_atom_site_fract_z
Si Si1 0.373216 0.462569 0.790727
Si Si2 0.598198 0.800925 0.274111
Si Si3 0.134256 0.828789 0.688587
Si Si4 0.995760 0.403768 0.587901
Si Si5 0.287618 0.003114 0.767048
O O1 0.500000 0.472540 0.750000
O O2 0.369094 0.394237 0.741786
O O3 0.341084 0.501563 0.690001
O O4 0.251224 0.474882 0.034539
O O5 0.500000 0.799943 0.250000
O O6 0.628968 0.732263 0.284515
O O7 0.529865 0.843309 0.465353
O O8 0.738542 0.825145 0.057276
O O9 0.000000 0.827284 0.750000
O O10 0.860250 0.438604 0.697256
O O11 0.000000 0.394028 0.750000
O O12 0.109641 0.450756 0.416069
#
# Coordination Sequence:
#
# PCOD9264634 Si02
#       5
#     8   8   8   8   8
#     4  11  21  37  58  84 120 155 188 238 290 353
#     4  10  19  35  61  84 109 150 201 241 281 339
#     4   9  19  34  57  85 109 147 198 243 279 333
#     4  11  22  35  57  84 123 150 186 247 293 341
#     4  11  22  36  55  89 118 152 193 235 296 343
#
# _framework density 18.729365999999999
#
# number of rings (size 3 to 8) (size 9 to 14) (size 15 to 20)
#    0.000    1.600    4.000    1.800    0.000    0.000 
#    0.000    0.000    0.000   27.600    0.000    0.000 
#    0.000    0.000    0.000    0.000    0.000    0.000 
#
# Total GULP energy -111435.913501 kJ/mol
# GULP energy per Si atom -5571.795675 kJ/mol
# Density = 1.868674 g / cm^3
# Si number density = 18.729366 Si / 1000 Ang^3
#
#
#
# Elastic Constant Matrix: (Units=GPa)
#
#
# Indices 1 2 3 4 5 6 
#
# 1 79.0652 13.4761 19.9622 0.0000 -2.3713 0.0000
# 2 13.4761 77.5002 27.9917 0.0000 14.2475 0.0000
# 3 19.9622 27.9917 81.3596 0.0000 11.3151 0.0000
# 4 0.0000 0.0000 0.0000 25.8579 0.0000 -5.8097
# 5 -2.3713 14.2475 11.3151 0.0000 38.0468 0.0000
# 6 0.0000 0.0000 0.0000 -5.8097 0.0000 18.6204
#
#
#
# Elastic Compliance Matrix: (Units=1/GPa)
#
#
# Indices 1 2 3 4 5 6 
#
# 1 0.013805 -0.001716 -0.003136 0.000000 0.002435 0.000000
# 2 -0.001716 0.015614 -0.004301 0.000000 -0.004675 0.000000
# 3 -0.003136 -0.004301 0.014962 0.000000 -0.003035 0.000000
# 4 0.000000 0.000000 0.000000 0.041588 0.000000 0.012976
# 5 0.002435 -0.004675 -0.003035 0.000000 0.029088 0.000000
# 6 0.000000 0.000000 0.000000 0.012976 0.000000 0.057753
#
#
# Mechanical properties :
#
#
# Convention : Reuss Voigt Hill
#
# Bulk Modulus (GPa) = 38.34784 40.08721 39.21752
# Shear Modulus (GPa) = 25.02403 28.27137 26.64770
#
# Velocity S-wave (km/s) = 3.65922 3.88940 3.77606
# Velocity P-wave (km/s) = 6.19454 6.45134 6.32424
#
# Compressibility (1/GPa) = 0.02607709
#
# Stress axis : x y z
#
# Youngs Moduli (GPa) = 72.43798 64.04342 66.83497
#
# Poissons Ratio (x) = 0.10988 0.20956
# Poissons Ratio (y) = 0.12428 0.28746
# Poissons Ratio (z) = 0.22713 0.27545
#
# Static dielectric constant tensor:
#      x y z
#    x 1.623370 0.000000 -0.019600 
#    y 0.000000 1.697320 0.000000 
#    z -0.019600 0.000000 1.615000 
# 
# From -- ./inp_files/31747.got.cif
#   From: 2010.05.17/outbox.cif.g08.bks.cpg/sg15_16_cif.got.tgz:31747.got - 2010.06.03 18:47:42.
