data_PCOD9264077
_publ_section_title
;
Structure prediction by ZEFSAII (Michael W. Deem and Ramdas Pophale) SiO2 
 PCOD9264077
Probable space group: C 2/C
;
_chemical_formula_sum "Si O2"
_cell_formula_units_Z 44
_cell_length_a 20.443867
_cell_length_b 24.748538
_cell_length_c 5.276862
_cell_angle_alpha 90.000000
_cell_angle_beta 124.392353
_cell_angle_gamma 90.000000
_cell_volume 2203.138027
_symmetry_space_group_name_H-M "C 2/C"
_symmetry_group_IT_number 15
_symmetry_cell_setting 'monoclinic'
loop_
_space_group_symop_operation_xyz
x,y,z
-x,y,1/2-z
-x,-y,-z
x,-y,1/2+z
1/2+x,1/2+y,z
1/2-x,1/2+y,1/2-z
1/2-x,1/2-y,-z
1/2+x,1/2-y,1/2+z
loop_
_atom_site_type_symbol
_atom_site_label
_atom_site_fract_x
_atom_site_fract_y
_atom_site_fract_z
Si Si1 0.271897 0.851835 0.008199
Si Si2 0.324674 0.036592 0.820349
Si Si3 0.021195 0.190042 0.544222
Si Si4 0.296060 0.694775 0.638257
Si Si5 0.500000 0.963305 0.750000
Si Si6 0.546633 0.810324 0.102723
O O1 0.274019 0.912698 0.118490
O O2 0.219414 0.821513 0.105085
O O3 0.361203 0.826289 0.198245
O O4 0.238392 0.845961 0.650376
O O5 0.315446 0.992495 0.573083
O O6 0.413689 0.062248 0.037216
O O7 0.112691 0.204610 0.727609
O O8 0.000000 0.159509 0.750000
O O9 0.967757 0.245001 0.426382
O O10 0.000000 0.157430 0.250000
O O11 0.250000 0.750000 0.500000
O O12 0.500000 0.000000 0.500000
O O13 0.500000 0.831297 0.250000
O O14 0.500000 0.828744 0.750000
#
# Coordination Sequence:
#
# PCOD9264077 Si02
#       6
#     8   8   8   8   4   8
#     4  12  24  38  60  87 117 161 202 245 297 355
#     4  10  21  39  58  82 117 151 199 254 298 341
#     4  10  19  35  55  76 110 153 189 230 284 337
#     4  12  23  38  57  85 123 154 200 246 292 349
#     4   8  16  32  52  74 104 146 186 238 290 320
#     4  10  20  35  51  76 107 151 201 231 277 336
#
# _framework density 19.971513000000002
#
# number of rings (size 3 to 8) (size 9 to 14) (size 15 to 20)
#    0.000    1.455    0.000    8.182    1.273    0.000 
#    6.545    0.000    0.000    0.000    0.000    0.000 
#    0.000   50.909    0.000    0.000    0.000    0.000 
#
# Total GULP energy -122700.951238 kJ/mol
# GULP energy per Si atom -5577.315965 kJ/mol
# Density = 1.992606 g / cm^3
# Si number density = 19.971513 Si / 1000 Ang^3
#
#
#
# Elastic Constant Matrix: (Units=GPa)
#
#
# Indices 1 2 3 4 5 6 
#
# 1 114.4101 -3.5436 34.6515 0.0000 -15.4256 0.0000
# 2 -3.5436 39.7360 -3.5335 0.0000 5.6233 0.0000
# 3 34.6515 -3.5335 109.0806 0.0000 -22.3331 0.0000
# 4 0.0000 0.0000 0.0000 21.5395 0.0000 -0.2125
# 5 -15.4256 5.6233 -22.3331 0.0000 46.6430 0.0000
# 6 0.0000 0.0000 0.0000 -0.2125 0.0000 9.7603
#
#
#
# Elastic Compliance Matrix: (Units=1/GPa)
#
#
# Indices 1 2 3 4 5 6 
#
# 1 0.009833 0.000365 -0.002722 0.000000 0.001905 0.000000
# 2 0.000365 0.025621 0.000118 0.000000 -0.002912 0.000000
# 3 -0.002722 0.000118 0.010919 0.000000 0.004314 0.000000
# 4 0.000000 0.000000 0.000000 0.046436 0.000000 0.001011
# 5 0.001905 -0.002912 0.004314 0.000000 0.024486 0.000000
# 6 0.000000 0.000000 0.000000 0.001011 0.000000 0.102478
#
#
# Mechanical properties :
#
#
# Convention : Reuss Voigt Hill
#
# Bulk Modulus (GPa) = 23.86872 35.37507 29.62190
# Shear Modulus (GPa) = 20.98933 31.29871 26.14402
#
# Velocity S-wave (km/s) = 3.24537 3.96304 3.62203
# Velocity P-wave (km/s) = 5.10104 6.22030 5.68827
#
# Compressibility (1/GPa) = 0.04189583
#
# Stress axis : x y z
#
# Youngs Moduli (GPa) = 101.69877 39.03024 91.58166
#
# Poissons Ratio (x) = -0.01426 0.24927
# Poissons Ratio (y) = -0.03715 -0.01079
# Poissons Ratio (z) = 0.27681 -0.00460
#
# Static dielectric constant tensor:
#      x y z
#    x 1.724970 0.000000 -0.057390 
#    y 0.000000 1.716770 0.000000 
#    z -0.057390 0.000000 1.779300 
# 
# From -- ./inp_files/7628.got.cif
#   From: 2010.05.17/outbox.cif.g08.bks.cpg/sg15_4_cif.got.tgz:7628.got - 2010.06.03 18:47:42.
