data_PCOD9264679
_publ_section_title
;
Structure prediction by ZEFSAII (Michael W. Deem and Ramdas Pophale) SiO2 
 PCOD9264679
Probable space group: C 2/C
;
_chemical_formula_sum "Si O2"
_cell_formula_units_Z 56
_cell_length_a 9.160289
_cell_length_b 17.555943
_cell_length_c 21.861208
_cell_angle_alpha 90.000000
_cell_angle_beta 129.780839
_cell_angle_gamma 90.000000
_cell_volume 2701.779985
_symmetry_space_group_name_H-M "C 2/C"
_symmetry_group_IT_number 15
_symmetry_cell_setting 'monoclinic'
loop_
_space_group_symop_operation_xyz
x,y,z
-x,y,1/2-z
-x,-y,-z
x,-y,1/2+z
1/2+x,1/2+y,z
1/2-x,1/2+y,1/2-z
1/2-x,1/2-y,-z
1/2+x,1/2-y,1/2+z
loop_
_atom_site_type_symbol
_atom_site_label
_atom_site_fract_x
_atom_site_fract_y
_atom_site_fract_z
Si Si1 0.767737 0.813055 0.086458
Si Si2 0.305554 0.849573 0.112029
Si Si3 0.930647 0.547193 0.402847
Si Si4 0.975767 0.940066 0.379352
Si Si5 0.750579 0.942580 0.514140
Si Si6 0.063066 0.283215 0.596143
Si Si7 0.778802 0.601652 0.802614
O O1 0.750692 0.834881 0.152775
O O2 0.832411 0.890204 0.069565
O O3 0.940548 0.757574 0.116077
O O4 0.578837 0.785454 0.001049
O O5 0.169456 0.909991 0.109373
O O6 0.240569 0.768506 0.122284
O O7 0.526009 0.871882 0.178002
O O8 0.258439 0.865954 0.027798
O O9 0.876345 0.562339 0.459096
O O10 0.899958 0.631742 0.369823
O O11 0.800651 0.479191 0.343053
O O12 0.135125 0.507882 0.445829
O O13 0.880062 0.916347 0.289790
O O14 0.045128 0.025336 0.411545
#
# Coordination Sequence:
#
# PCOD9264679 Si02
#       7
#     8   8   8   8   8   8   8
#     4  10  20  35  63  88 112 161 203 242 298 373
#     4  10  23  36  62  89 125 159 201 260 310 355
#     4  10  19  35  62  92 118 149 203 260 300 350
#     4  11  20  38  62  88 117 164 211 251 298 370
#     4  10  19  35  61  92 114 153 210 253 294 361
#     4  10  20  38  61  90 124 149 197 259 312 351
#     4  11  22  38  64  86 120 165 211 247 302 377
#
# _framework density 20.727076
#
# number of rings (size 3 to 8) (size 9 to 14) (size 15 to 20)
#    0.000    1.714    2.857    3.000    0.000    2.286 
#    0.000    0.000   22.000    0.000    0.000    0.000 
#    0.000    0.000    0.000    0.000    0.000    0.000 
#
# Total GULP energy -155992.993149 kJ/mol
# GULP energy per Si atom -5571.178327 kJ/mol
# Density = 2.067990 g / cm^3
# Si number density = 20.727076 Si / 1000 Ang^3
#
#
#
# Elastic Constant Matrix: (Units=GPa)
#
#
# Indices 1 2 3 4 5 6 
#
# 1 84.6079 21.5227 8.2789 0.0000 1.3052 0.0000
# 2 21.5227 101.7188 10.9031 0.0000 3.4307 0.0000
# 3 8.2789 10.9031 55.1435 0.0000 0.8180 0.0000
# 4 0.0000 0.0000 0.0000 20.2732 0.0000 -0.8899
# 5 1.3052 3.4307 0.8180 0.0000 26.5701 0.0000
# 6 0.0000 0.0000 0.0000 -0.8899 0.0000 28.2233
#
#
#
# Elastic Compliance Matrix: (Units=1/GPa)
#
#
# Indices 1 2 3 4 5 6 
#
# 1 0.012597 -0.002508 -0.001392 0.000000 -0.000252 0.000000
# 2 -0.002508 0.010584 -0.001698 0.000000 -0.001191 0.000000
# 3 -0.001392 -0.001698 0.018684 0.000000 -0.000288 0.000000
# 4 0.000000 0.000000 0.000000 0.049395 0.000000 0.001557
# 5 -0.000252 -0.001191 -0.000288 0.000000 0.037811 0.000000
# 6 0.000000 0.000000 0.000000 0.001557 0.000000 0.035481
#
#
# Mechanical properties :
#
#
# Convention : Reuss Voigt Hill
#
# Bulk Modulus (GPa) = 32.60650 35.87551 34.24100
# Shear Modulus (GPa) = 26.88602 28.39768 27.64185
#
# Velocity S-wave (km/s) = 3.60550 3.70547 3.65583
# Velocity P-wave (km/s) = 5.75311 5.97105 5.86309
#
# Compressibility (1/GPa) = 0.03066873
#
# Stress axis : x y z
#
# Youngs Moduli (GPa) = 79.38260 94.48337 53.52308
#
# Poissons Ratio (x) = 0.23694 0.07449
# Poissons Ratio (y) = 0.19907 0.09091
# Poissons Ratio (z) = 0.11048 0.16048
#
# Static dielectric constant tensor:
#      x y z
#    x 1.764820 0.000000 0.005340 
#    y 0.000000 1.808300 0.000000 
#    z 0.005340 0.000000 1.799800 
# 
# From -- ./inp_files/265579.got.cif
#   From: 2010.05.17/outbox.cif.g08.bks.cpg/sg15_133_cif.got.tgz:265579.got - 2010.06.03 18:47:42.
