data_PCOD9264922
_publ_section_title
;
Structure prediction by ZEFSAII (Michael W. Deem and Ramdas Pophale) SiO2 
 PCOD9264922
Probable space group: C 2/C
;
_chemical_formula_sum "Si O2"
_cell_formula_units_Z 64
_cell_length_a 30.371700
_cell_length_b 5.278865
_cell_length_c 20.249926
_cell_angle_alpha 90.000000
_cell_angle_beta 90.768163
_cell_angle_gamma 90.000000
_cell_volume 3246.340462
_symmetry_space_group_name_H-M "C 2/C"
_symmetry_group_IT_number 15
_symmetry_cell_setting 'monoclinic'
loop_
_space_group_symop_operation_xyz
x,y,z
-x,y,1/2-z
-x,-y,-z
x,-y,1/2+z
1/2+x,1/2+y,z
1/2-x,1/2+y,1/2-z
1/2-x,1/2-y,-z
1/2+x,1/2-y,1/2+z
loop_
_atom_site_type_symbol
_atom_site_label
_atom_site_fract_x
_atom_site_fract_y
_atom_site_fract_z
Si Si1 0.736881 0.762134 0.711230
Si Si2 0.348743 0.997603 0.455558
Si Si3 0.954384 0.984965 0.787707
Si Si4 0.078172 0.513474 0.157730
Si Si5 0.347454 0.489203 0.040256
Si Si6 0.348079 0.027541 0.235707
Si Si7 0.749813 0.089704 0.067365
Si Si8 0.373904 0.475024 0.679661
O O1 0.740652 0.489007 0.745788
O O2 0.687258 0.866441 0.713898
O O3 0.750614 0.751593 0.635340
O O4 0.360450 0.770474 0.505330
O O5 0.386051 0.999670 0.399864
O O6 0.347854 0.273680 0.489852
O O7 0.297525 0.946732 0.432268
O O8 0.950899 0.736123 0.833429
O O9 0.915874 0.980408 0.729851
O O10 0.000000 0.997650 0.750000
O O11 0.947769 0.224799 0.835844
O O12 0.106851 0.513090 0.224799
O O13 0.296843 0.450104 0.064769
O O14 0.378860 0.565382 0.101963
O O15 0.351799 0.248915 0.182887
O O16 0.342358 0.750807 0.205247
O O17 0.750000 0.250000 0.000000
#
# Coordination Sequence:
#
# PCOD9264922 Si02
#       8
#     8   8   8   8   8   8   8   8
#     4  12  24  36  56  81 116 155 204 259 305 333
#     4  11  22  38  57  81 115 162 202 234 281 340
#     4  10  21  38  66  92 113 142 182 241 305 364
#     4  10  20  37  60  85 116 146 190 235 286 355
#     4  11  22  36  56  81 116 158 202 241 282 333
#     4  10  19  36  54  79 108 149 189 240 290 345
#     4  10  23  40  56  84 119 166 213 254 284 344
#     4  10  21  37  60  84 117 146 191 238 304 351
#
# _framework density 19.714507000000001
#
# number of rings (size 3 to 8) (size 9 to 14) (size 15 to 20)
#    0.000    1.500    1.250    4.500    0.000    5.000 
#    0.000    0.000    0.000    4.500    0.000    0.000 
#    0.000    0.000    0.000    0.000    0.000    0.000 
#
# Total GULP energy -178298.981627 kJ/mol
# GULP energy per Si atom -5571.843176 kJ/mol
# Density = 1.966964 g / cm^3
# Si number density = 19.714507 Si / 1000 Ang^3
#
#
#
# Elastic Constant Matrix: (Units=GPa)
#
#
# Indices 1 2 3 4 5 6 
#
# 1 59.3672 41.4841 23.4283 0.0000 -26.8167 0.0000
# 2 41.4841 115.3803 33.6578 0.0000 -22.4161 0.0000
# 3 23.4283 33.6578 97.5114 0.0000 -15.5165 0.0000
# 4 0.0000 0.0000 0.0000 25.2878 0.0000 -13.4113
# 5 -26.8167 -22.4161 -15.5165 0.0000 28.7537 0.0000
# 6 0.0000 0.0000 0.0000 -13.4113 0.0000 14.0378
#
#
#
# Elastic Compliance Matrix: (Units=1/GPa)
#
#
# Indices 1 2 3 4 5 6 
#
# 1 0.033557 -0.006666 -0.001760 0.000000 0.025151 0.000000
# 2 -0.006666 0.012113 -0.002260 0.000000 0.002007 0.000000
# 3 -0.001760 -0.002260 0.011942 0.000000 0.003041 0.000000
# 4 0.000000 0.000000 0.000000 0.080161 0.000000 0.076583
# 5 0.025151 0.002007 0.003041 0.000000 0.061440 0.000000
# 6 0.000000 0.000000 0.000000 0.076583 0.000000 0.144402
#
#
# Mechanical properties :
#
#
# Convention : Reuss Voigt Hill
#
# Bulk Modulus (GPa) = 27.59298 52.15550 39.87424
# Shear Modulus (GPa) = 13.26028 25.19508 19.22768
#
# Velocity S-wave (km/s) = 2.59630 3.57879 3.12638
# Velocity P-wave (km/s) = 4.79733 6.60226 5.77079
#
# Compressibility (1/GPa) = 0.03624111
#
# Stress axis : x y z
#
# Youngs Moduli (GPa) = 29.79984 82.55756 83.73772
#
# Poissons Ratio (x) = 0.55030 0.14735
# Poissons Ratio (y) = 0.19864 0.18926
# Poissons Ratio (z) = 0.05244 0.18659
#
# Static dielectric constant tensor:
#      x y z
#    x 1.715160 0.000000 0.013320 
#    y 0.000000 1.728010 0.000000 
#    z 0.013320 0.000000 1.690250 
# 
# From -- ./inp_files/223895.got.cif
#   From: 2010.05.17/outbox.cif.g08.bks.cpg/sg15_112_cif.got.tgz:223895.got - 2010.06.03 18:47:42.
