data_PCOD9264482
_publ_section_title
;
Structure prediction by ZEFSAII (Michael W. Deem and Ramdas Pophale) SiO2 
 PCOD9264482
Probable space group: C 2/C
;
_chemical_formula_sum "Si O2"
_cell_formula_units_Z 52
_cell_length_a 8.151244
_cell_length_b 23.651060
_cell_length_c 13.252862
_cell_angle_alpha 90.000000
_cell_angle_beta 72.068418
_cell_angle_gamma 90.000000
_cell_volume 2430.852826
_symmetry_space_group_name_H-M "C 2/C"
_symmetry_group_IT_number 15
_symmetry_cell_setting 'monoclinic'
loop_
_space_group_symop_operation_xyz
x,y,z
-x,y,1/2-z
-x,-y,-z
x,-y,1/2+z
1/2+x,1/2+y,z
1/2-x,1/2+y,1/2-z
1/2-x,1/2-y,-z
1/2+x,1/2-y,1/2+z
loop_
_atom_site_type_symbol
_atom_site_label
_atom_site_fract_x
_atom_site_fract_y
_atom_site_fract_z
Si Si1 0.664947 0.679351 0.285517
Si Si2 0.597761 0.055432 0.524031
Si Si3 0.716706 0.702200 0.790254
Si Si4 0.488348 0.823832 0.416804
Si Si5 0.927740 0.217310 0.984536
Si Si6 0.500000 0.014348 0.750000
Si Si7 0.304113 0.444943 0.802034
O O1 0.500000 0.696737 0.250000
O O2 0.790952 0.731358 0.239503
O O3 0.609185 0.677022 0.413000
O O4 0.716456 0.618451 0.236153
O O5 0.519958 0.117649 0.520811
O O6 0.772369 0.055114 0.428034
O O7 0.500000 0.000000 0.500000
O O8 0.592700 0.049759 0.644957
O O9 0.840963 0.684131 0.860033
O O10 0.826316 0.677426 0.675395
O O11 0.526575 0.689918 0.871250
O O12 0.460819 0.769550 0.492770
O O13 0.750000 0.250000 0.000000
O O14 0.653540 0.979582 0.774591
O O15 0.500000 0.464438 0.750000
#
# Coordination Sequence:
#
# PCOD9264482 Si02
#       7
#     8   8   8   8   8   4   8
#     4  10  20  37  56  90 123 162 203 245 313 398
#     4  10  22  41  66  90 122 162 221 274 326 387
#     4  10  19  35  59  86 118 160 209 240 303 386
#     4  10  20  36  62  87 115 165 208 254 312 379
#     4  11  23  34  57  93 132 163 201 260 320 385
#     4  10  22  44  66  88 124 166 220 280 334 370
#     4  10  23  38  64  95 126 164 215 266 330 398
#
# _framework density 21.391669
#
# number of rings (size 3 to 8) (size 9 to 14) (size 15 to 20)
#    0.000    1.846    3.077    2.308    4.308    6.769 
#    0.000    0.000   20.308    0.000    0.000    0.000 
#    0.000    0.000    0.000    0.000    0.000    0.000 
#
# Total GULP energy -144852.801227 kJ/mol
# GULP energy per Si atom -5571.261586 kJ/mol
# Density = 2.134298 g / cm^3
# Si number density = 21.391669 Si / 1000 Ang^3
#
#
#
# Elastic Constant Matrix: (Units=GPa)
#
#
# Indices 1 2 3 4 5 6 
#
# 1 83.7025 0.9989 29.4335 0.0000 -22.9705 0.0000
# 2 0.9989 62.1102 7.2064 0.0000 -4.2088 0.0000
# 3 29.4335 7.2064 173.1543 0.0000 -35.3658 0.0000
# 4 0.0000 0.0000 0.0000 33.7809 0.0000 -0.5098
# 5 -22.9705 -4.2088 -35.3658 0.0000 29.7734 0.0000
# 6 0.0000 0.0000 0.0000 -0.5098 0.0000 12.0570
#
#
#
# Elastic Compliance Matrix: (Units=1/GPa)
#
#
# Indices 1 2 3 4 5 6 
#
# 1 0.015184 0.000564 -0.000258 0.000000 0.011487 0.000000
# 2 0.000564 0.016287 -0.000283 0.000000 0.002401 0.000000
# 3 -0.000258 -0.000283 0.007634 0.000000 0.008829 0.000000
# 4 0.000000 0.000000 0.000000 0.029621 0.000000 0.001252
# 5 0.011487 0.002401 0.008829 0.000000 0.053276 0.000000
# 6 0.000000 0.000000 0.000000 0.001252 0.000000 0.082992
#
#
# Mechanical properties :
#
#
# Convention : Reuss Voigt Hill
#
# Bulk Modulus (GPa) = 25.54286 43.80497 34.67392
# Shear Modulus (GPa) = 22.93586 33.87746 28.40666
#
# Velocity S-wave (km/s) = 3.27798 3.98386 3.64803
# Velocity P-wave (km/s) = 5.12770 6.45628 5.82996
#
# Compressibility (1/GPa) = 0.03914988
#
# Stress axis : x y z
#
# Youngs Moduli (GPa) = 65.86047 61.39898 130.99104
#
# Poissons Ratio (x) = -0.03464 0.03383
# Poissons Ratio (y) = -0.03716 0.03711
# Poissons Ratio (z) = 0.01701 0.01740
#
# Static dielectric constant tensor:
#      x y z
#    x 1.833400 0.000000 0.020190 
#    y 0.000000 1.818750 0.000000 
#    z 0.020190 0.000000 1.826470 
# 
# From -- ./inp_files/138190.got.cif
#   From: 2010.05.17/outbox.cif.g08.bks.cpg/sg15_70_cif.got.tgz:138190.got - 2010.06.03 18:47:42.
