data_PCOD9264416
_publ_section_title
;
Structure prediction by ZEFSAII (Michael W. Deem and Ramdas Pophale) SiO2 
 PCOD9264416
Probable space group: C 2/C
;
_chemical_formula_sum "Si O2"
_cell_formula_units_Z 44
_cell_length_a 19.558813
_cell_length_b 15.123909
_cell_length_c 28.067779
_cell_angle_alpha 90.000000
_cell_angle_beta 164.025648
_cell_angle_gamma 90.000000
_cell_volume 2284.936405
_symmetry_space_group_name_H-M "C 2/C"
_symmetry_group_IT_number 15
_symmetry_cell_setting 'monoclinic'
loop_
_space_group_symop_operation_xyz
x,y,z
-x,y,1/2-z
-x,-y,-z
x,-y,1/2+z
1/2+x,1/2+y,z
1/2-x,1/2+y,1/2-z
1/2-x,1/2-y,-z
1/2+x,1/2-y,1/2+z
loop_
_atom_site_type_symbol
_atom_site_label
_atom_site_fract_x
_atom_site_fract_y
_atom_site_fract_z
Si Si1 0.601313 0.761778 0.736147
Si Si2 0.243382 0.410201 0.288519
Si Si3 0.680031 0.048976 0.326536
Si Si4 0.000199 0.460639 0.947506
Si Si5 0.377842 0.229819 0.361538
Si Si6 0.000000 0.863694 0.250000
O O1 0.571973 0.866147 0.725799
O O2 0.579565 0.744948 0.665545
O O3 0.443476 0.700694 0.666754
O O4 0.878998 0.739617 0.941961
O O5 0.196324 0.461486 0.305873
O O6 0.535239 0.424873 0.471038
O O7 0.194994 0.305723 0.257548
O O8 0.085953 0.461501 0.144230
O O9 0.500000 0.036188 0.250000
O O10 0.820006 0.374377 0.823711
O O11 0.266230 0.423041 0.108298
O O12 0.000000 0.500000 0.000000
#
# Coordination Sequence:
#
# PCOD9264416 Si02
#       6
#     8   8   8   8   8   4
#     4  10  19  35  58  95 119 152 199 266 322 360
#     4  10  21  37  58  90 123 160 200 251 312 370
#     4  10  20  36  60  88 122 155 202 259 312 364
#     4  11  23  40  61  93 127 163 202 256 317 373
#     4  10  21  37  62  88 126 159 205 253 311 372
#     4  10  22  36  64  94 124 160 208 260 322 364
#
# _framework density 19.256553
#
# number of rings (size 3 to 8) (size 9 to 14) (size 15 to 20)
#    0.000    1.818    2.727    2.182    0.000    7.273 
#    0.000    0.000    2.000    2.182    0.000    0.000 
#    0.000    0.000    0.000    0.000    0.000    0.000 
#
# Total GULP energy -122711.518591 kJ/mol
# GULP energy per Si atom -5577.796300 kJ/mol
# Density = 1.921272 g / cm^3
# Si number density = 19.256553 Si / 1000 Ang^3
#
#
#
# Elastic Constant Matrix: (Units=GPa)
#
#
# Indices 1 2 3 4 5 6 
#
# 1 81.5847 27.1349 9.3478 -0.0437 -3.4765 0.0985
# 2 27.1349 117.9832 19.2732 -0.0659 4.5717 0.1650
# 3 9.3478 19.2732 31.8990 0.0137 -0.4287 0.1179
# 4 -0.0437 -0.0659 0.0137 26.7094 0.0356 1.9822
# 5 -3.4765 4.5717 -0.4287 0.0356 30.2186 -0.0668
# 6 0.0985 0.1650 0.1179 1.9822 -0.0668 26.7909
#
#
#
# Elastic Compliance Matrix: (Units=1/GPa)
#
#
# Indices 1 2 3 4 5 6 
#
# 1 0.013536 -0.002824 -0.002234 0.000015 0.001953 -0.000019
# 2 -0.002824 0.010062 -0.005278 0.000028 -0.001922 -0.000035
# 3 -0.002234 -0.005278 0.035207 -0.000028 0.001041 -0.000110
# 4 0.000015 0.000028 -0.000028 0.037647 -0.000053 -0.002786
# 5 0.001953 -0.001922 0.001041 -0.000053 0.033623 0.000088
# 6 -0.000019 -0.000035 -0.000110 -0.002786 0.000088 0.037533
#
#
# Mechanical properties :
#
#
# Convention : Reuss Voigt Hill
#
# Bulk Modulus (GPa) = 26.22379 38.10875 32.16627
# Shear Modulus (GPa) = 24.87700 28.45785 26.66743
#
# Velocity S-wave (km/s) = 3.59816 3.84842 3.72539
# Velocity P-wave (km/s) = 5.55968 6.29127 5.93676
#
# Compressibility (1/GPa) = 0.03813332
#
# Stress axis : x y z
#
# Youngs Moduli (GPa) = 73.87940 99.38506 28.40371
#
# Poissons Ratio (x) = 0.28064 0.06346
# Poissons Ratio (y) = 0.20861 0.14990
# Poissons Ratio (z) = 0.16506 0.52451
#
# Static dielectric constant tensor:
#      x y z
#    x 1.763090 0.014780 -0.060330 
#    y 0.014780 1.171170 -0.010850 
#    z -0.060330 -0.010850 1.746610 
# 
# From -- ./inp_files/105180.got.cif
#   From: 2010.05.17/outbox.cif.g08.bks.cpg/sg15_53_cif.got.tgz:105180.got - 2010.06.03 18:47:42.
