data_PCOD9264983
_publ_section_title
;
Structure prediction by ZEFSAII (Michael W. Deem and Ramdas Pophale) SiO2 
 PCOD9264983
Probable space group: C 2/C
;
_chemical_formula_sum "Si O2"
_cell_formula_units_Z 48
_cell_length_a 16.134909
_cell_length_b 16.373416
_cell_length_c 15.145055
_cell_angle_alpha 90.000000
_cell_angle_beta 152.993334
_cell_angle_gamma 90.000000
_cell_volume 1816.864702
_symmetry_space_group_name_H-M "C 2/C"
_symmetry_group_IT_number 15
_symmetry_cell_setting 'monoclinic'
loop_
_space_group_symop_operation_xyz
x,y,z
-x,y,1/2-z
-x,-y,-z
x,-y,1/2+z
1/2+x,1/2+y,z
1/2-x,1/2+y,1/2-z
1/2-x,1/2-y,-z
1/2+x,1/2-y,1/2+z
loop_
_atom_site_type_symbol
_atom_site_label
_atom_site_fract_x
_atom_site_fract_y
_atom_site_fract_z
Si Si1 0.563592 0.489206 0.163659
Si Si2 0.123692 0.647109 0.282352
Si Si3 0.342523 0.029072 0.676023
Si Si4 0.678005 0.651387 0.253785
Si Si5 0.304341 0.296929 0.462811
Si Si6 0.498336 0.681489 0.604408
O O1 0.718906 0.558309 0.319044
O O2 0.500000 0.500000 0.000000
O O3 0.378331 0.507926 0.044804
O O4 0.629230 0.396705 0.240391
O O5 0.000000 0.643712 0.250000
O O6 0.111630 0.556026 0.228321
O O7 0.329260 0.667483 0.509433
O O8 0.065794 0.727361 0.174317
O O9 0.500000 0.031440 0.750000
O O10 0.321923 0.125153 0.682720
O O11 0.812142 0.724494 0.399108
O O12 0.600301 0.661950 0.082210
O O13 0.507398 0.669921 0.155428
O O14 0.250000 0.250000 0.500000
#
# Coordination Sequence:
#
# PCOD9264983 Si02
#       6
#     8   8   8   8   8   8
#     4   8  17  33  53  74 104 140 177 217 261 311
#     4  10  20  35  55  78 108 144 179 219 267 318
#     4   9  18  33  52  74 106 142 173 217 269 313
#     4  10  20  35  56  81 107 141 179 221 267 319
#     4  11  21  36  56  80 109 142 180 222 270 320
#     4  10  19  36  56  79 108 141 178 220 266 319
#
# _framework density 26.419139000000001
#
# number of rings (size 3 to 8) (size 9 to 14) (size 15 to 20)
#    0.000    2.333    0.000    3.000    0.000    0.000 
#    0.000   10.833    0.000    0.000    0.000    0.000 
#    0.000    0.000    0.000    0.000    0.000    0.000 
#
# Total GULP energy -133660.184141 kJ/mol
# GULP energy per Si atom -5569.174339 kJ/mol
# Density = 2.635901 g / cm^3
# Si number density = 26.419139 Si / 1000 Ang^3
#
#
#
# Elastic Constant Matrix: (Units=GPa)
#
#
# Indices 1 2 3 4 5 6 
#
# 1 87.1993 19.4263 12.1567 0.0033 20.2910 0.0007
# 2 19.4263 279.9852 55.2003 0.0008 -14.6526 -0.0013
# 3 12.1567 55.2003 32.1415 0.0073 2.7526 0.0038
# 4 0.0033 0.0008 0.0073 27.7203 0.0030 -3.4240
# 5 20.2910 -14.6526 2.7526 0.0030 27.1169 0.0002
# 6 0.0007 -0.0013 0.0038 -3.4240 0.0002 12.3561
#
#
#
# Elastic Compliance Matrix: (Units=1/GPa)
#
#
# Indices 1 2 3 4 5 6 
#
# 1 0.014724 -0.001069 -0.002765 0.000000 -0.011315 0.000000
# 2 -0.001069 0.005918 -0.010191 0.000003 0.005032 0.000004
# 3 -0.002765 -0.010191 0.050393 -0.000014 -0.008553 -0.000020
# 4 0.000000 0.000003 -0.000014 0.037353 -0.000001 0.010351
# 5 -0.011315 0.005032 -0.008553 -0.000001 0.048931 0.000002
# 6 0.000000 0.000004 -0.000020 0.010351 0.000002 0.083800
#
#
# Mechanical properties :
#
#
# Convention : Reuss Voigt Hill
#
# Bulk Modulus (GPa) = 23.26303 63.65475 43.45889
# Shear Modulus (GPa) = 17.63682 34.27483 25.95583
#
# Velocity S-wave (km/s) = 2.58656 3.60578 3.13783
# Velocity P-wave (km/s) = 4.21246 6.44065 5.44182
#
# Compressibility (1/GPa) = 0.04298666
#
# Stress axis : x y z
#
# Youngs Moduli (GPa) = 67.91433 168.96745 19.84416
#
# Poissons Ratio (x) = 0.18057 0.05486
# Poissons Ratio (y) = 0.07258 0.20223
# Poissons Ratio (z) = 0.18777 1.72193
#
# Static dielectric constant tensor:
#      x y z
#    x 2.239230 0.000000 -0.040440 
#    y 0.000000 2.203890 0.000000 
#    z -0.040440 0.000000 2.140310 
# 
# From -- ./inp_files/66387.got.cif
#   From: 2010.05.17/outbox.cif.g08.bks.cpg/sg15_34_cif.got.tgz:66387.got - 2010.06.03 18:47:42.
