data_PCOD9264894
_publ_section_title
;
Structure prediction by ZEFSAII (Michael W. Deem and Ramdas Pophale) SiO2 
 PCOD9264894
Probable space group: C 2/C
;
_chemical_formula_sum "Si O2"
_cell_formula_units_Z 56
_cell_length_a 23.151698
_cell_length_b 12.656416
_cell_length_c 19.047121
_cell_angle_alpha 90.000000
_cell_angle_beta 23.921222
_cell_angle_gamma 90.000000
_cell_volume 2263.041796
_symmetry_space_group_name_H-M "C 2/C"
_symmetry_group_IT_number 15
_symmetry_cell_setting 'monoclinic'
loop_
_space_group_symop_operation_xyz
x,y,z
-x,y,1/2-z
-x,-y,-z
x,-y,1/2+z
1/2+x,1/2+y,z
1/2-x,1/2+y,1/2-z
1/2-x,1/2-y,-z
1/2+x,1/2-y,1/2+z
loop_
_atom_site_type_symbol
_atom_site_label
_atom_site_fract_x
_atom_site_fract_y
_atom_site_fract_z
Si Si1 0.376174 0.975064 0.483516
Si Si2 0.386856 0.635297 0.935462
Si Si3 0.883595 0.883632 0.965249
Si Si4 0.441076 0.667002 0.030253
Si Si5 0.703235 0.437216 0.285192
Si Si6 0.671742 0.719608 0.197714
Si Si7 0.630975 0.918225 0.641715
O O1 0.302598 0.861989 0.567604
O O2 0.293419 0.030378 0.509755
O O3 0.541805 0.989343 0.280750
O O4 0.349747 0.039242 0.584103
O O5 0.500000 0.656561 0.750000
O O6 0.395715 0.506406 0.933045
O O7 0.400220 0.691678 0.995868
O O8 0.228747 0.650469 0.081154
O O9 0.815239 0.888525 0.118744
O O10 0.760738 0.815278 0.063986
O O11 0.040438 0.830003 0.798420
O O12 0.367528 0.553715 0.129924
O O13 0.401492 0.735678 0.142937
O O14 0.607345 0.638809 0.844236
O O15 0.500000 0.860011 0.750000
#
# Coordination Sequence:
#
# PCOD9264894 Si02
#       7
#     8   8   8   8   8   8   8
#     4   8  16  32  52  65 101 128 163 201 241 279
#     4  11  19  34  52  79  95 129 170 206 237 296
#     4  10  22  31  51  73 101 130 171 193 251 290
#     4   8  16  28  53  69  95 122 172 199 242 279
#     4   8  13  31  49  71  88 130 161 210 234 282
#     4  10  19  36  47  72 101 138 158 205 239 293
#     4   8  19  30  48  75  99 125 156 200 252 289
#
# _framework density 24.745453999999999
#
# number of rings (size 3 to 8) (size 9 to 14) (size 15 to 20)
#    0.857    2.000    0.000    4.286    2.000    0.000 
#    5.143    3.571    0.000    0.000    3.714    3.000 
#    0.000    0.000    0.000    0.000    0.000    0.000 
#
# Total GULP energy -155944.335796 kJ/mol
# GULP energy per Si atom -5569.440564 kJ/mol
# Density = 2.468913 g / cm^3
# Si number density = 24.745454 Si / 1000 Ang^3
#
#
#
# Elastic Constant Matrix: (Units=GPa)
#
#
# Indices 1 2 3 4 5 6 
#
# 1 72.0759 -1.6140 20.6012 0.0001 -3.8055 -0.0001
# 2 -1.6140 67.9803 38.0943 0.0001 -13.6069 -0.0001
# 3 20.6012 38.0943 101.4145 0.0002 10.1409 -0.0002
# 4 0.0001 0.0001 0.0002 36.1505 -0.0001 -7.2039
# 5 -3.8055 -13.6069 10.1409 -0.0001 32.9998 0.0001
# 6 -0.0001 -0.0001 -0.0002 -7.2039 0.0001 7.9017
#
#
#
# Elastic Compliance Matrix: (Units=1/GPa)
#
#
# Indices 1 2 3 4 5 6 
#
# 1 0.015809 0.004489 -0.005432 0.000000 0.005343 0.000000
# 2 0.004489 0.023905 -0.011275 0.000000 0.013839 0.000000
# 3 -0.005432 -0.011275 0.016225 0.000000 -0.010262 0.000000
# 4 0.000000 0.000000 0.000000 0.033804 0.000000 0.030819
# 5 0.005343 0.013839 -0.010262 0.000000 0.039779 -0.000001
# 6 0.000000 0.000000 0.000000 0.030819 -0.000001 0.154653
#
#
# Mechanical properties :
#
#
# Convention : Reuss Voigt Hill
#
# Bulk Modulus (GPa) = 31.74274 39.51486 35.62880
# Shear Modulus (GPa) = 15.66841 27.70299 21.68570
#
# Velocity S-wave (km/s) = 2.51904 3.34955 2.96353
# Velocity P-wave (km/s) = 4.61696 5.56440 5.11267
#
# Compressibility (1/GPa) = 0.03150327
#
# Stress axis : x y z
#
# Youngs Moduli (GPa) = 63.25312 41.83206 61.63192
#
# Poissons Ratio (x) = -0.18777 0.33478
# Poissons Ratio (y) = -0.28393 0.69491
# Poissons Ratio (z) = 0.34359 0.47166
#
# Static dielectric constant tensor:
#      x y z
#    x 2.137920 0.000000 0.144850 
#    y 0.000000 2.069150 0.000000 
#    z 0.144850 0.000000 2.150710 
# 
# From -- ./inp_files/258001.got.cif
#   From: 2010.05.17/outbox.cif.g08.bks.cpg/sg15_130_cif.got.tgz:258001.got - 2010.06.03 18:47:42.
