data_PCOD9264886
_publ_section_title
;
Structure prediction by ZEFSAII (Michael W. Deem and Ramdas Pophale) SiO2 
 PCOD9264886
Probable space group: C 2/C
;
_chemical_formula_sum "Si O2"
_cell_formula_units_Z 40
_cell_length_a 5.364715
_cell_length_b 18.300776
_cell_length_c 19.580510
_cell_angle_alpha 90.000000
_cell_angle_beta 107.579895
_cell_angle_gamma 90.000000
_cell_volume 1832.602413
_symmetry_space_group_name_H-M "C 2/C"
_symmetry_group_IT_number 15
_symmetry_cell_setting 'monoclinic'
loop_
_space_group_symop_operation_xyz
x,y,z
-x,y,1/2-z
-x,-y,-z
x,-y,1/2+z
1/2+x,1/2+y,z
1/2-x,1/2+y,1/2-z
1/2-x,1/2-y,-z
1/2+x,1/2-y,1/2+z
loop_
_atom_site_type_symbol
_atom_site_label
_atom_site_fract_x
_atom_site_fract_y
_atom_site_fract_z
Si Si1 0.607926 0.092120 0.995537
Si Si2 0.404190 0.478361 0.089546
Si Si3 0.198065 0.089792 0.206221
Si Si4 0.414806 0.319027 0.438160
Si Si5 0.149120 0.321334 0.910583
O O1 0.511379 0.115524 0.062643
O O2 0.867596 0.044474 0.030750
O O3 0.401982 0.044860 0.935528
O O4 0.645407 0.166325 0.955539
O O5 0.552927 0.519513 0.161921
O O6 0.533314 0.398838 0.090126
O O7 0.500000 0.071638 0.250000
O O8 0.238979 0.151416 0.151545
O O9 0.000000 0.114317 0.250000
O O10 0.614847 0.309475 0.517377
O O11 0.467076 0.250678 0.394094
#
# Coordination Sequence:
#
# PCOD9264886 Si02
#       5
#     8   8   8   8   8
#     4  10  19  35  69 100 136 164 212 302 355 413
#     4  10  22  37  64  99 129 171 226 277 355 398
#     4  12  27  45  67  92 137 197 242 281 327 432
#     4  10  20  37  68 101 134 161 213 308 353 403
#     4  10  22  39  62 102 133 173 227 272 368 408
#
# _framework density 21.826884
#
# number of rings (size 3 to 8) (size 9 to 14) (size 15 to 20)
#    0.000    1.600    2.000    2.400    8.400    0.000 
#    0.000    1.000    0.000    7.200    0.000    0.000 
#    0.000    0.000    0.000    0.000    0.000    0.000 
#
# Total GULP energy -111368.867982 kJ/mol
# GULP energy per Si atom -5568.443399 kJ/mol
# Density = 2.177721 g / cm^3
# Si number density = 21.826884 Si / 1000 Ang^3
#
#
#
# Elastic Constant Matrix: (Units=GPa)
#
#
# Indices 1 2 3 4 5 6 
#
# 1 99.5434 53.1698 53.8525 0.0000 -32.3860 0.0000
# 2 53.1698 150.0348 47.9050 0.0000 -38.8044 0.0000
# 3 53.8525 47.9050 86.9377 0.0000 -17.6630 0.0000
# 4 0.0000 0.0000 0.0000 11.9313 0.0000 1.9323
# 5 -32.3860 -38.8044 -17.6630 0.0000 34.6297 0.0000
# 6 0.0000 0.0000 0.0000 1.9323 0.0000 42.3878
#
#
#
# Elastic Compliance Matrix: (Units=1/GPa)
#
#
# Indices 1 2 3 4 5 6 
#
# 1 0.019513 -0.000690 -0.009099 0.000000 0.012834 0.000000
# 2 -0.000690 0.010397 -0.003420 0.000000 0.009260 0.000000
# 3 -0.009099 -0.003420 0.018425 0.000000 -0.002944 0.000000
# 4 0.000000 0.000000 0.000000 0.084437 0.000000 -0.003849
# 5 0.012834 0.009260 -0.002944 0.000000 0.049754 0.000000
# 6 0.000000 0.000000 0.000000 -0.003849 0.000000 0.023767
#
#
# Mechanical properties :
#
#
# Convention : Reuss Voigt Hill
#
# Bulk Modulus (GPa) = 45.62900 71.81894 58.72397
# Shear Modulus (GPa) = 20.83194 29.89566 25.36380
#
# Velocity S-wave (km/s) = 3.09271 3.70492 3.41257
# Velocity P-wave (km/s) = 5.80547 7.16081 6.51846
#
# Compressibility (1/GPa) = 0.02191589
#
# Stress axis : x y z
#
# Youngs Moduli (GPa) = 51.24918 96.18427 54.27397
#
# Poissons Ratio (x) = 0.06641 0.49383
# Poissons Ratio (y) = 0.03538 0.18561
# Poissons Ratio (z) = 0.46631 0.32893
#
# Static dielectric constant tensor:
#      x y z
#    x 1.976920 0.000000 -0.049640 
#    y 0.000000 1.900220 0.000000 
#    z -0.049640 0.000000 1.807620 
# 
# From -- ./inp_files/226855.got.cif
#   From: 2010.05.17/outbox.cif.g08.bks.cpg/sg15_114_cif.got.tgz:226855.got - 2010.06.03 18:47:42.
