data_PCOD9264194
_publ_section_title
;
Structure prediction by ZEFSAII (Michael W. Deem and Ramdas Pophale) SiO2 
 PCOD9264194
Probable space group: C 2/C
;
_chemical_formula_sum "Si O2"
_cell_formula_units_Z 60
_cell_length_a 13.641276
_cell_length_b 22.265842
_cell_length_c 19.355500
_cell_angle_alpha 90.000000
_cell_angle_beta 32.373875
_cell_angle_gamma 90.000000
_cell_volume 3147.826215
_symmetry_space_group_name_H-M "C 2/C"
_symmetry_group_IT_number 15
_symmetry_cell_setting 'monoclinic'
loop_
_space_group_symop_operation_xyz
x,y,z
-x,y,1/2-z
-x,-y,-z
x,-y,1/2+z
1/2+x,1/2+y,z
1/2-x,1/2+y,1/2-z
1/2-x,1/2-y,-z
1/2+x,1/2-y,1/2+z
loop_
_atom_site_type_symbol
_atom_site_label
_atom_site_fract_x
_atom_site_fract_y
_atom_site_fract_z
Si Si1 0.964929 0.089632 0.657117
Si Si2 0.146137 0.466289 0.019799
Si Si3 0.132624 0.872522 0.434193
Si Si4 0.285341 0.249395 0.896699
Si Si5 0.361866 0.872263 0.580245
Si Si6 0.500000 0.944583 0.250000
Si Si7 0.705893 0.903362 0.440566
Si Si8 0.457435 0.447101 0.656760
O O1 0.924664 0.123572 0.610829
O O2 0.834530 0.107242 0.798080
O O3 0.169113 0.100657 0.565455
O O4 0.931549 0.018435 0.662344
O O5 0.056679 0.479474 0.147263
O O6 0.056950 0.411262 0.032042
O O7 0.146331 0.526700 0.976008
O O8 0.353994 0.444985 0.911610
O O9 0.162806 0.804911 0.440873
O O10 0.327734 0.904457 0.331041
O O11 0.994454 0.910757 0.564378
O O12 0.500000 0.240012 0.750000
O O13 0.222254 0.311594 0.899434
O O14 0.250000 0.250000 0.000000
O O15 0.524329 0.864404 0.538723
O O16 0.205848 0.914399 0.706382
#
# Coordination Sequence:
#
# PCOD9264194 Si02
#       8
#     8   8   8   8   8   4   8   8
#     4  10  21  40  61  87 123 158 202 255 310 362
#     4  10  19  35  56  88 120 156 195 255 304 367
#     4  11  22  39  60  90 122 161 200 254 310 361
#     4  12  26  43  64  94 128 162 210 260 312 371
#     4  12  22  37  61  87 122 167 204 250 310 369
#     4  10  20  32  58  90 116 154 204 240 308 366
#     4  10  22  37  59  88 118 158 207 248 301 377
#     4  10  21  37  59  89 127 158 195 252 323 371
#
# _framework density 19.060773000000001
#
# number of rings (size 3 to 8) (size 9 to 14) (size 15 to 20)
#    0.000    1.333    2.000    5.200    3.733    0.000 
#    0.000    0.667    0.000    0.000    0.000    0.000 
#    0.000    0.000    0.000    0.000    0.000    0.000 
#
# Total GULP energy -167555.718761 kJ/mol
# GULP energy per Si atom -5585.190625 kJ/mol
# Density = 1.901739 g / cm^3
# Si number density = 19.060773 Si / 1000 Ang^3
#
#
#
# Elastic Constant Matrix: (Units=GPa)
#
#
# Indices 1 2 3 4 5 6 
#
# 1 117.4384 55.1498 42.2742 -0.0015 18.1670 -0.0041
# 2 55.1498 63.2096 19.4803 -0.0099 7.4497 0.0150
# 3 42.2742 19.4803 92.4041 0.0180 13.1162 -0.0051
# 4 -0.0015 -0.0099 0.0180 8.8518 0.0063 5.2765
# 5 18.1670 7.4497 13.1162 0.0063 29.5933 -0.0006
# 6 -0.0041 0.0150 -0.0051 5.2765 -0.0006 32.0413
#
#
#
# Elastic Compliance Matrix: (Units=1/GPa)
#
#
# Indices 1 2 3 4 5 6 
#
# 1 0.016868 -0.012781 -0.004279 -0.000004 -0.005241 0.000008
# 2 -0.012781 0.026833 0.000038 0.000039 0.001074 -0.000021
# 3 -0.004279 0.000038 0.013233 -0.000029 -0.003248 0.000006
# 4 -0.000004 0.000039 -0.000029 0.125268 -0.000022 -0.020629
# 5 -0.005241 0.001074 -0.003248 -0.000022 0.038178 0.000003
# 6 0.000008 -0.000021 0.000006 -0.020629 0.000003 0.034607
#
#
# Mechanical properties :
#
#
# Convention : Reuss Voigt Hill
#
# Bulk Modulus (GPa) = 43.68643 56.31785 50.00214
# Shear Modulus (GPa) = 16.85427 24.50713 20.68070
#
# Velocity S-wave (km/s) = 2.97684 3.58961 3.29749
# Velocity P-wave (km/s) = 5.89786 6.84039 6.38654
#
# Compressibility (1/GPa) = 0.02289040
#
# Stress axis : x y z
#
# Youngs Moduli (GPa) = 59.28368 37.26706 75.57141
#
# Poissons Ratio (x) = 0.47631 0.32334
# Poissons Ratio (y) = 0.75770 -0.00285
# Poissons Ratio (z) = 0.25365 -0.00141
#
# Static dielectric constant tensor:
#      x y z
#    x 1.686030 -0.000010 -0.001720 
#    y -0.000010 1.642250 0.000010 
#    z -0.001720 0.000010 1.712860 
# 
# From -- ./inp_files/200528.got.cif
#   From: 2010.05.17/outbox.cif.g08.bks.cpg/sg15_101_cif.got.tgz:200528.got - 2010.06.03 18:47:42.
