data_PCOD9264822
_publ_section_title
;
Structure prediction by ZEFSAII (Michael W. Deem and Ramdas Pophale) SiO2 
 PCOD9264822
Probable space group: C 2/C
;
_chemical_formula_sum "Si O2"
_cell_formula_units_Z 52
_cell_length_a 18.828471
_cell_length_b 18.930564
_cell_length_c 14.789806
_cell_angle_alpha 90.000000
_cell_angle_beta 28.963914
_cell_angle_gamma 90.000000
_cell_volume 2552.809989
_symmetry_space_group_name_H-M "C 2/C"
_symmetry_group_IT_number 15
_symmetry_cell_setting 'monoclinic'
loop_
_space_group_symop_operation_xyz
x,y,z
-x,y,1/2-z
-x,-y,-z
x,-y,1/2+z
1/2+x,1/2+y,z
1/2-x,1/2+y,1/2-z
1/2-x,1/2-y,-z
1/2+x,1/2-y,1/2+z
loop_
_atom_site_type_symbol
_atom_site_label
_atom_site_fract_x
_atom_site_fract_y
_atom_site_fract_z
Si Si1 0.889239 0.357396 0.556664
Si Si2 0.638430 0.731709 0.044103
Si Si3 0.193346 0.518536 0.126670
Si Si4 0.224313 0.390394 0.221883
Si Si5 0.756282 0.328057 0.887577
Si Si6 0.343289 0.012865 0.544423
Si Si7 0.000000 0.732114 0.250000
O O1 0.897170 0.306641 0.462120
O O2 0.800104 0.319595 0.735021
O O3 0.824444 0.434603 0.606709
O O4 0.053811 0.369644 0.406712
O O5 0.500000 0.700098 0.250000
O O6 0.750000 0.750000 0.000000
O O7 0.689343 0.677949 0.909130
O O8 0.249059 0.451170 0.119343
O O9 0.275210 0.589571 0.062942
O O10 0.020138 0.526066 0.346708
O O11 0.202032 0.511066 0.009387
O O12 0.238353 0.428121 0.304086
O O13 0.897221 0.311219 0.794959
O O14 0.618870 0.280016 0.065956
#
# Coordination Sequence:
#
# PCOD9264822 Si02
#       7
#     8   8   8   8   8   8   4
#     4  11  22  38  66  93 127 161 223 264 314 377
#     4  12  26  43  64  94 134 174 211 264 331 387
#     4  10  19  35  64  90 128 158 219 266 316 372
#     4  11  21  40  62  98 127 169 215 267 319 387
#     4  11  22  42  61  94 123 169 203 269 314 387
#     4  10  19  35  64  98 121 166 218 270 310 377
#     4  10  26  38  62  90 130 164 212 246 336 380
#
# _framework density 20.369712
#
# number of rings (size 3 to 8) (size 9 to 14) (size 15 to 20)
#    0.000    1.231    4.615    2.769    4.308    1.231 
#    1.385    0.000    0.000    2.769    0.000    0.000 
#    0.000    0.000    0.000    0.000    0.000    0.000 
#
# Total GULP energy -145217.073056 kJ/mol
# GULP energy per Si atom -5585.272041 kJ/mol
# Density = 2.032335 g / cm^3
# Si number density = 20.369712 Si / 1000 Ang^3
#
#
#
# Elastic Constant Matrix: (Units=GPa)
#
#
# Indices 1 2 3 4 5 6 
#
# 1 47.3020 8.8886 34.0281 0.0010 23.8969 -0.0012
# 2 8.8886 92.0263 38.3774 0.0012 11.1335 -0.0015
# 3 34.0281 38.3774 92.2510 0.0029 27.6954 -0.0041
# 4 0.0010 0.0012 0.0029 27.6345 -0.0023 21.6926
# 5 23.8969 11.1335 27.6954 -0.0023 31.5828 0.0026
# 6 -0.0012 -0.0015 -0.0041 21.6926 0.0026 21.9244
#
#
#
# Elastic Compliance Matrix: (Units=1/GPa)
#
#
# Indices 1 2 3 4 5 6 
#
# 1 0.037918 0.002512 -0.008351 -0.000022 -0.022253 0.000025
# 2 0.002512 0.013315 -0.006089 -0.000001 -0.001255 0.000001
# 3 -0.008351 -0.006089 0.018883 -0.000022 -0.008094 0.000025
# 4 -0.000022 -0.000001 -0.000022 0.162042 0.000061 -0.160329
# 5 -0.022253 -0.001255 -0.008094 0.000061 0.056040 -0.000070
# 6 0.000025 0.000001 0.000025 -0.160329 -0.000070 0.204245
#
#
# Mechanical properties :
#
#
# Convention : Reuss Voigt Hill
#
# Bulk Modulus (GPa) = 21.61640 43.79640 32.70640
# Shear Modulus (GPa) = 9.40344 26.24735 17.82540
#
# Velocity S-wave (km/s) = 2.15091 3.59353 2.96141
# Velocity P-wave (km/s) = 4.09922 6.22618 5.27110
#
# Compressibility (1/GPa) = 0.04626118
#
# Stress axis : x y z
#
# Youngs Moduli (GPa) = 26.37235 75.10360 52.95645
#
# Poissons Ratio (x) = -0.18869 0.44225
# Poissons Ratio (y) = -0.06626 0.32246
# Poissons Ratio (z) = 0.22024 0.45731
#
# Static dielectric constant tensor:
#      x y z
#    x 1.721710 0.000000 0.027160 
#    y 0.000000 1.727140 0.000000 
#    z 0.027160 0.000000 1.723980 
# 
# From -- ./inp_files/168971.got.cif
#   From: 2010.05.17/outbox.cif.g08.bks.cpg/sg15_85_cif.got.tgz:168971.got - 2010.06.03 18:47:42.
