data_PCOD9264124
_publ_section_title
;
Structure prediction by ZEFSAII (Michael W. Deem and Ramdas Pophale) SiO2 
 PCOD9264124
Probable space group: C 2/C
;
_chemical_formula_sum "Si O2"
_cell_formula_units_Z 64
_cell_length_a 9.040660
_cell_length_b 26.971312
_cell_length_c 15.299857
_cell_angle_alpha 90.000000
_cell_angle_beta 64.924346
_cell_angle_gamma 90.000000
_cell_volume 3379.071868
_symmetry_space_group_name_H-M "C 2/C"
_symmetry_group_IT_number 15
_symmetry_cell_setting 'monoclinic'
loop_
_space_group_symop_operation_xyz
x,y,z
-x,y,1/2-z
-x,-y,-z
x,-y,1/2+z
1/2+x,1/2+y,z
1/2-x,1/2+y,1/2-z
1/2-x,1/2-y,-z
1/2+x,1/2-y,1/2+z
loop_
_atom_site_type_symbol
_atom_site_label
_atom_site_fract_x
_atom_site_fract_y
_atom_site_fract_z
Si Si1 0.484188 0.056492 0.030646
Si Si2 0.191397 0.905389 0.727278
Si Si3 0.277075 0.104255 0.395448
Si Si4 0.393795 0.709771 0.702261
Si Si5 0.035893 0.171436 0.008204
Si Si6 0.566611 0.178072 0.349862
Si Si7 0.964260 0.739361 0.661600
Si Si8 0.114480 0.350418 0.032504
O O1 0.319517 0.067998 0.129237
O O2 0.641071 0.070295 0.050964
O O3 0.468059 0.095567 0.954020
O O4 0.500000 0.000000 0.000000
O O5 0.232647 0.922768 0.815722
O O6 0.259773 0.848478 0.713158
O O7 0.000000 0.908703 0.750000
O O8 0.116689 0.134860 0.460262
O O9 0.420057 0.145197 0.349269
O O10 0.500000 0.683728 0.750000
O O11 0.411620 0.685949 0.602885
O O12 0.452365 0.766100 0.672968
O O13 0.216399 0.717585 0.787398
O O14 0.993815 0.219067 0.080105
O O15 0.190293 0.144888 0.014700
O O16 0.556880 0.175137 0.457043
O O17 0.000000 0.759230 0.750000
O O18 0.071992 0.690434 0.615476
#
# Coordination Sequence:
#
# PCOD9264124 Si02
#       8
#     8   8   8   8   8   8   8   8
#     4  10  23  43  70  91 121 157 206 273 342 385
#     4  10  19  37  64  96 123 154 212 264 317 372
#     4  10  21  37  65  89 126 157 210 264 319 366
#     4  12  25  33  54  85 129 174 220 246 307 369
#     4  12  23  39  59  93 131 169 215 264 302 382
#     4  10  19  35  55  88 120 168 206 259 302 359
#     4  12  23  38  59  87 133 177 217 251 310 381
#     4  10  21  40  60  85 124 165 210 259 320 374
#
# _framework density 18.940111999999999
#
# number of rings (size 3 to 8) (size 9 to 14) (size 15 to 20)
#    0.000    1.500    2.500    6.375    3.500    3.000 
#    0.000    3.750    2.750    0.000    0.000    0.000 
#    0.000    0.000    0.000    0.000    0.000    0.000 
#
# Total GULP energy -178427.860145 kJ/mol
# GULP energy per Si atom -5575.870630 kJ/mol
# Density = 1.889700 g / cm^3
# Si number density = 18.940112 Si / 1000 Ang^3
#
#
#
# Elastic Constant Matrix: (Units=GPa)
#
#
# Indices 1 2 3 4 5 6 
#
# 1 139.6484 26.5863 39.4645 0.0000 10.7941 0.0000
# 2 26.5863 88.8442 27.3053 0.0000 12.5121 0.0000
# 3 39.4645 27.3053 64.9786 0.0000 15.5162 0.0000
# 4 0.0000 0.0000 0.0000 -7.9475 0.0000 -77.4265
# 5 10.7941 12.5121 15.5162 0.0000 19.1382 0.0000
# 6 0.0000 0.0000 0.0000 -77.4265 0.0000 -224.3035
#
#
#
# Elastic Compliance Matrix: (Units=1/GPa)
#
#
# Indices 1 2 3 4 5 6 
#
# 1 0.008744 -0.001103 -0.004764 0.000000 -0.000348 0.000000
# 2 -0.001103 0.013465 -0.003763 0.000000 -0.005130 0.000000
# 3 -0.004764 -0.003763 0.023109 0.000000 -0.013589 0.000000
# 4 0.000000 0.000000 0.000000 0.053251 0.000000 -0.018381
# 5 -0.000348 -0.005130 -0.013589 0.000000 0.066818 0.000000
# 6 0.000000 0.000000 0.000000 -0.018381 0.000000 0.001887
#
#
# Mechanical properties :
#
#
# Convention : Reuss Voigt Hill
#
# Bulk Modulus (GPa) = 38.37715 53.35371 45.86543
# Shear Modulus (GPa) = 25.61206 -29.28153 -1.83473
#
# Velocity S-wave (km/s) = 3.68131 -3.93619 -0.98530
# Velocity P-wave (km/s) = 6.19481 2.75185 4.79314
#
# Compressibility (1/GPa) = 0.02605717
#
# Stress axis : x y z
#
# Youngs Moduli (GPa) = 114.36300 74.26752 43.27298
#
# Poissons Ratio (x) = 0.08195 0.20615
# Poissons Ratio (y) = 0.12620 0.16284
# Poissons Ratio (z) = 0.54481 0.27947
#
# Static dielectric constant tensor:
#      x y z
#    x 1.699560 0.000000 0.006590 
#    y 0.000000 1.642640 0.000000 
#    z 0.006590 0.000000 1.765740 
# 
# From -- ./inp_files/139522.got.cif
#   From: 2010.05.17/outbox.cif.g08.bks.cpg/sg15_70_cif.got.tgz:139522.got - 2010.06.03 18:47:42.
