data_PCOD9264835
_publ_section_title
;
Structure prediction by ZEFSAII (Michael W. Deem and Ramdas Pophale) SiO2 
 PCOD9264835
Probable space group: C 2/C
;
_chemical_formula_sum "Si O2"
_cell_formula_units_Z 40
_cell_length_a 14.096725
_cell_length_b 25.156286
_cell_length_c 7.477617
_cell_angle_alpha 90.000000
_cell_angle_beta 138.420217
_cell_angle_gamma 90.000000
_cell_volume 1759.847848
_symmetry_space_group_name_H-M "C 2/C"
_symmetry_group_IT_number 15
_symmetry_cell_setting 'monoclinic'
loop_
_space_group_symop_operation_xyz
x,y,z
-x,y,1/2-z
-x,-y,-z
x,-y,1/2+z
1/2+x,1/2+y,z
1/2-x,1/2+y,1/2-z
1/2-x,1/2-y,-z
1/2+x,1/2-y,1/2+z
loop_
_atom_site_type_symbol
_atom_site_label
_atom_site_fract_x
_atom_site_fract_y
_atom_site_fract_z
Si Si1 0.069855 0.055325 0.535713
Si Si2 0.760344 0.778659 0.822248
Si Si3 0.454344 0.812036 0.472771
Si Si4 0.000000 0.136049 0.750000
Si Si5 0.500000 0.995515 0.750000
Si Si6 0.131419 0.570648 0.710809
O O1 0.047799 0.098824 0.655867
O O2 0.235559 0.053019 0.720234
O O3 0.000000 0.072188 0.250000
O O4 0.000000 0.000000 0.500000
O O5 0.598056 0.797674 0.566042
O O6 0.750000 0.750000 0.000000
O O7 0.838255 0.735314 0.807353
O O8 0.869856 0.827147 0.000529
O O9 0.500000 0.819034 0.750000
O O10 0.386042 0.866703 0.307294
O O11 0.627110 0.037935 0.888686
O O12 0.499866 0.954576 0.585021
#
# Coordination Sequence:
#
# PCOD9264835 Si02
#       6
#     8   8   8   4   4   8
#     4  12  26  44  66 102 141 183 231 280 341 416
#     4  10  19  36  63 104 123 175 234 273 335 417
#     4  10  19  35  64  94 128 164 228 273 329 405
#     4  12  24  39  76  98 141 184 226 284 352 396
#     4  10  24  39  66  94 129 178 224 276 344 414
#     4  11  23  42  65  97 135 176 225 284 339 409
#
# _framework density 22.729237000000001
#
# number of rings (size 3 to 8) (size 9 to 14) (size 15 to 20)
#    0.000    1.200    5.000    3.600    0.000    3.200 
#    0.000    0.000    2.200    3.600    0.000    0.000 
#    0.000    0.000    0.000    0.000    0.000    0.000 
#
# Total GULP energy -111712.893791 kJ/mol
# GULP energy per Si atom -5585.644690 kJ/mol
# Density = 2.267750 g / cm^3
# Si number density = 22.729237 Si / 1000 Ang^3
#
#
#
# Elastic Constant Matrix: (Units=GPa)
#
#
# Indices 1 2 3 4 5 6 
#
# 1 161.9955 97.1539 35.6390 0.0000 32.0169 0.0000
# 2 97.1539 201.4823 43.2638 0.0000 25.6986 0.0000
# 3 35.6390 43.2638 49.7833 0.0000 8.5374 0.0000
# 4 0.0000 0.0000 0.0000 -0.2166 0.0000 -29.1564
# 5 32.0169 25.6986 8.5374 0.0000 47.3704 0.0000
# 6 0.0000 0.0000 0.0000 -29.1564 0.0000 7.3252
#
#
#
# Elastic Compliance Matrix: (Units=1/GPa)
#
#
# Indices 1 2 3 4 5 6 
#
# 1 0.009810 -0.003500 -0.003271 0.000000 -0.004142 0.000000
# 2 -0.003500 0.007634 -0.003946 0.000000 -0.001065 0.000000
# 3 -0.003271 -0.003946 0.025913 0.000000 -0.000318 0.000000
# 4 0.000000 0.000000 0.000000 -0.008601 0.000000 -0.034234
# 5 -0.004142 -0.001065 -0.000318 0.000000 0.024545 0.000000
# 6 0.000000 0.000000 0.000000 -0.034234 0.000000 0.000254
#
#
# Mechanical properties :
#
#
# Convention : Reuss Voigt Hill
#
# Bulk Modulus (GPa) = 45.61456 85.04161 65.32809
# Shear Modulus (GPa) = 56.62669 26.70943 41.66806
#
# Velocity S-wave (km/s) = 4.99677 3.43171 4.28628
# Velocity P-wave (km/s) = 7.30770 7.29373 7.30072
#
# Compressibility (1/GPa) = 0.02192282
#
# Stress axis : x y z
#
# Youngs Moduli (GPa) = 101.93401 130.99410 38.59078
#
# Poissons Ratio (x) = 0.45844 0.12624
# Poissons Ratio (y) = 0.35674 0.15229
# Poissons Ratio (z) = 0.33345 0.51693
#
# Static dielectric constant tensor:
#      x y z
#    x 1.907660 0.000000 -0.123050 
#    y 0.000000 1.797480 0.000000 
#    z -0.123050 0.000000 2.008340 
# 
# From -- ./inp_files/32301.got.cif
#   From: 2010.05.17/outbox.cif.g08.bks.cpg/sg15_17_cif.got.tgz:32301.got - 2010.06.03 18:47:42.
