data_PCOD9264793
_publ_section_title
;
Structure prediction by ZEFSAII (Michael W. Deem and Ramdas Pophale) SiO2 
 PCOD9264793
Probable space group: C 2/C
;
_chemical_formula_sum "Si O2"
_cell_formula_units_Z 48
_cell_length_a 7.325045
_cell_length_b 28.185647
_cell_length_c 13.964874
_cell_angle_alpha 90.000000
_cell_angle_beta 44.600538
_cell_angle_gamma 90.000000
_cell_volume 2024.469559
_symmetry_space_group_name_H-M "C 2/C"
_symmetry_group_IT_number 15
_symmetry_cell_setting 'monoclinic'
loop_
_space_group_symop_operation_xyz
x,y,z
-x,y,1/2-z
-x,-y,-z
x,-y,1/2+z
1/2+x,1/2+y,z
1/2-x,1/2+y,1/2-z
1/2-x,1/2-y,-z
1/2+x,1/2-y,1/2+z
loop_
_atom_site_type_symbol
_atom_site_label
_atom_site_fract_x
_atom_site_fract_y
_atom_site_fract_z
Si Si1 0.212076 0.410045 0.256388
Si Si2 0.531157 0.654352 0.502745
Si Si3 0.793613 0.253202 0.596273
Si Si4 0.131842 0.356692 0.969096
Si Si5 0.500000 0.576064 0.250000
Si Si6 0.907235 0.988716 0.641500
Si Si7 0.000000 0.406180 0.750000
O O1 0.425766 0.376542 0.129725
O O2 0.312386 0.463516 0.226594
O O3 0.000000 0.412592 0.250000
O O4 0.097763 0.384793 0.392590
O O5 0.479823 0.709074 0.551375
O O6 0.347248 0.647833 0.475770
O O7 0.803591 0.630082 0.376089
O O8 0.500000 0.249971 0.750000
O O9 0.750000 0.250000 0.500000
O O10 0.917780 0.305279 0.558358
O O11 0.264314 0.386649 0.836472
O O12 0.386497 0.539468 0.371949
O O13 0.695014 0.946686 0.720766
O O14 0.000000 0.000000 0.500000
#
# Coordination Sequence:
#
# PCOD9264793 Si02
#       7
#     8   8   8   8   4   8   4
#     4  10  19  37  62  91 128 171 223 271 327 400
#     4  10  20  36  62  93 123 175 218 266 345 388
#     4  10  19  35  63  92 125 167 226 282 326 395
#     4  10  20  37  61  94 129 163 226 282 321 395
#     4  12  24  40  64  98 130 170 234 270 322 410
#     4  12  24  43  65  94 132 180 225 269 338 400
#     4  12  22  38  66  94 136 168 216 282 322 404
#
# _framework density 23.709913
#
# number of rings (size 3 to 8) (size 9 to 14) (size 15 to 20)
#    0.000    1.333    5.000    3.500    0.000    0.667 
#    0.000    0.000    0.000   17.000    0.000    0.000 
#    0.000    0.000    0.000    0.000    0.000    0.000 
#
# Total GULP energy -133793.653153 kJ/mol
# GULP energy per Si atom -5574.735548 kJ/mol
# Density = 2.365595 g / cm^3
# Si number density = 23.709913 Si / 1000 Ang^3
#
#
#
# Elastic Constant Matrix: (Units=GPa)
#
#
# Indices 1 2 3 4 5 6 
#
# 1 41.2573 39.7472 18.8927 0.0000 -2.5406 0.0000
# 2 39.7472 295.7292 121.7863 0.0000 -19.5110 0.0000
# 3 18.8927 121.7863 165.7465 0.0000 -12.5765 0.0000
# 4 0.0000 0.0000 0.0000 51.0999 0.0000 -4.0918
# 5 -2.5406 -19.5110 -12.5765 0.0000 24.2340 0.0000
# 6 0.0000 0.0000 0.0000 -4.0918 0.0000 14.2326
#
#
#
# Elastic Compliance Matrix: (Units=1/GPa)
#
#
# Indices 1 2 3 4 5 6 
#
# 1 0.027887 -0.003508 -0.000618 0.000000 -0.000222 0.000000
# 2 -0.003508 0.005399 -0.003399 0.000000 0.002215 0.000000
# 3 -0.000618 -0.003399 0.008733 0.000000 0.001731 0.000000
# 4 0.000000 0.000000 0.000000 0.020031 0.000000 0.005759
# 5 -0.000222 0.002215 0.001731 0.000000 0.043922 0.000000
# 6 0.000000 0.000000 0.000000 0.005759 0.000000 0.071917
#
#
# Mechanical properties :
#
#
# Convention : Reuss Voigt Hill
#
# Bulk Modulus (GPa) = 37.08018 95.95394 66.51706
# Shear Modulus (GPa) = 24.76121 39.40042 32.08082
#
# Velocity S-wave (km/s) = 3.23513 4.08090 3.68238
# Velocity P-wave (km/s) = 5.44314 7.92230 6.79672
#
# Compressibility (1/GPa) = 0.02696859
#
# Stress axis : x y z
#
# Youngs Moduli (GPa) = 35.85855 185.22204 114.51430
#
# Poissons Ratio (x) = 0.64984 0.07073
# Poissons Ratio (y) = 0.12581 0.38924
# Poissons Ratio (z) = 0.02215 0.62957
#
# Static dielectric constant tensor:
#      x y z
#    x 1.354850 0.000000 0.017860 
#    y 0.000000 1.944580 0.000000 
#    z 0.017860 0.000000 2.216130 
# 
# From -- ./inp_files/138950.got.cif
#   From: 2010.05.17/outbox.cif.g08.bks.cpg/sg15_70_cif.got.tgz:138950.got - 2010.06.03 18:47:42.
