data_PCOD9264851
_publ_section_title
;
Structure prediction by ZEFSAII (Michael W. Deem and Ramdas Pophale) SiO2 
 PCOD9264851
Probable space group: C 2/C
;
_chemical_formula_sum "Si O2"
_cell_formula_units_Z 52
_cell_length_a 17.692192
_cell_length_b 18.956084
_cell_length_c 8.518524
_cell_angle_alpha 90.000000
_cell_angle_beta 127.422992
_cell_angle_gamma 90.000000
_cell_volume 2268.864439
_symmetry_space_group_name_H-M "C 2/C"
_symmetry_group_IT_number 15
_symmetry_cell_setting 'monoclinic'
loop_
_space_group_symop_operation_xyz
x,y,z
-x,y,1/2-z
-x,-y,-z
x,-y,1/2+z
1/2+x,1/2+y,z
1/2-x,1/2+y,1/2-z
1/2-x,1/2-y,-z
1/2+x,1/2-y,1/2+z
loop_
_atom_site_type_symbol
_atom_site_label
_atom_site_fract_x
_atom_site_fract_y
_atom_site_fract_z
Si Si1 0.847188 0.238941 0.024354
Si Si2 0.089678 0.663303 0.431411
Si Si3 0.794500 0.979288 0.035314
Si Si4 0.790561 0.347775 0.721299
Si Si5 0.577003 0.307612 0.563125
Si Si6 0.758153 0.896110 0.304641
Si Si7 0.000000 0.921529 0.250000
O O1 0.856948 0.311233 0.938004
O O2 0.822141 0.173850 0.878569
O O3 0.750000 0.250000 0.000000
O O4 0.917429 0.209166 0.245831
O O5 0.165400 0.677991 0.388386
O O6 0.047565 0.734142 0.449996
O O7 0.149688 0.626294 0.642550
O O8 0.000000 0.621174 0.250000
O O9 0.782389 0.948634 0.193579
O O10 0.904689 0.966721 0.133948
O O11 0.726612 0.930818 0.837879
O O12 0.772443 0.061112 0.982737
O O13 0.683531 0.322605 0.629046
O O14 0.511824 0.370275 0.415986
#
# Coordination Sequence:
#
# PCOD9264851 Si02
#       7
#     8   8   8   8   8   8   4
#     4  10  20  36  67  91 123 167 212 264 303 390
#     4  11  21  37  64  93 123 163 212 270 317 367
#     4  10  25  40  65  89 131 175 206 262 316 402
#     4   9  20  38  61  91 123 167 209 249 327 375
#     4  10  19  35  65  91 128 159 205 265 316 375
#     4  11  24  42  62  91 126 174 217 252 327 377
#     4  10  22  40  62  96 130 166 208 260 322 378
#
# _framework density 22.918953999999999
#
# number of rings (size 3 to 8) (size 9 to 14) (size 15 to 20)
#    0.000    1.846    3.846    0.462   10.769    0.615 
#    0.000    5.385    0.000    0.000    0.000    0.000 
#    0.000    0.000    0.000    0.000    0.000    0.000 
#
# Total GULP energy -145106.807148 kJ/mol
# GULP energy per Si atom -5581.031044 kJ/mol
# Density = 2.286679 g / cm^3
# Si number density = 22.918954 Si / 1000 Ang^3
#
#
#
# Elastic Constant Matrix: (Units=GPa)
#
#
# Indices 1 2 3 4 5 6 
#
# 1 59.4142 6.6416 13.7174 0.0000 -1.4207 0.0000
# 2 6.6416 53.8176 22.7354 0.0000 6.3775 0.0000
# 3 13.7174 22.7354 119.8854 0.0000 10.3186 0.0000
# 4 0.0000 0.0000 0.0000 46.1601 0.0000 -10.0952
# 5 -1.4207 6.3775 10.3186 0.0000 27.0202 0.0000
# 6 0.0000 0.0000 0.0000 -10.0952 0.0000 1.0900
#
#
#
# Elastic Compliance Matrix: (Units=1/GPa)
#
#
# Indices 1 2 3 4 5 6 
#
# 1 0.017490 -0.001607 -0.001870 0.000000 0.002013 0.000000
# 2 -0.001607 0.020657 -0.003419 0.000000 -0.003654 0.000000
# 3 -0.001870 -0.003419 0.009453 0.000000 -0.002901 0.000000
# 4 0.000000 0.000000 0.000000 -0.021124 0.000000 -0.195647
# 5 0.002013 -0.003654 -0.002901 0.000000 0.039086 0.000000
# 6 0.000000 0.000000 0.000000 -0.195647 0.000000 -0.894592
#
#
# Mechanical properties :
#
#
# Convention : Reuss Voigt Hill
#
# Bulk Modulus (GPa) = 29.57789 35.47844 32.52816
# Shear Modulus (GPa) = -6.21916 27.52223 10.65154
#
# Velocity S-wave (km/s) = -1.64907 3.46909 2.15814
# Velocity P-wave (km/s) = 3.05083 5.61780 4.52035
#
# Compressibility (1/GPa) = 0.03380903
#
# Stress axis : x y z
#
# Youngs Moduli (GPa) = 57.17396 48.40958 105.78252
#
# Poissons Ratio (x) = 0.07780 0.19779
# Poissons Ratio (y) = 0.09189 0.36167
# Poissons Ratio (z) = 0.10690 0.16551
#
# Static dielectric constant tensor:
#      x y z
#    x 1.850480 0.000000 -0.003680 
#    y 0.000000 1.845110 0.000000 
#    z -0.003680 0.000000 1.951960 
# 
# From -- ./inp_files/49246.got.cif
#   From: 2010.05.17/outbox.cif.g08.bks.cpg/sg15_25_cif.got.tgz:49246.got - 2010.06.03 18:47:42.
