data_PCOD9264997
_publ_section_title
;
Structure prediction by ZEFSAII (Michael W. Deem and Ramdas Pophale) SiO2 
 PCOD9264997
Probable space group: C 2/C
;
_chemical_formula_sum "Si O2"
_cell_formula_units_Z 56
_cell_length_a 24.258774
_cell_length_b 21.542471
_cell_length_c 5.232185
_cell_angle_alpha 90.000000
_cell_angle_beta 100.758732
_cell_angle_gamma 90.000000
_cell_volume 2686.244371
_symmetry_space_group_name_H-M "C 2/C"
_symmetry_group_IT_number 15
_symmetry_cell_setting 'monoclinic'
loop_
_space_group_symop_operation_xyz
x,y,z
-x,y,1/2-z
-x,-y,-z
x,-y,1/2+z
1/2+x,1/2+y,z
1/2-x,1/2+y,1/2-z
1/2-x,1/2-y,-z
1/2+x,1/2-y,1/2+z
loop_
_atom_site_type_symbol
_atom_site_label
_atom_site_fract_x
_atom_site_fract_y
_atom_site_fract_z
Si Si1 0.566209 0.456801 0.807203
Si Si2 0.667061 0.356651 0.905455
Si Si3 0.249021 0.033305 0.540822
Si Si4 0.381650 0.850030 0.685330
Si Si5 0.123567 0.565260 0.819185
Si Si6 0.500000 0.945545 0.250000
Si Si7 0.686649 0.726204 0.925363
Si Si8 0.500000 0.139300 0.250000
O O1 0.500000 0.436545 0.750000
O O2 0.574633 0.498477 0.560153
O O3 0.611847 0.401115 0.855848
O O4 0.668869 0.311613 0.662585
O O5 0.721907 0.401310 0.944423
O O6 0.673269 0.316449 0.168478
O O7 0.316821 0.032030 0.599478
O O8 0.229707 0.985423 0.306705
O O9 0.374100 0.898795 0.448104
O O10 0.343289 0.791721 0.629164
O O11 0.443943 0.822985 0.708542
O O12 0.377178 0.885424 0.949669
O O13 0.064034 0.527705 0.791674
O O14 0.500432 0.904447 0.503623
O O15 0.750000 0.750000 0.000000
#
# Coordination Sequence:
#
# PCOD9264997 Si02
#       8
#     8   8   8   8   8   4   8   4
#     4  10  21  41  67  91 120 161 205 254 320 382
#     4  12  24  41  60  89 118 158 196 251 298 358
#     4  12  24  39  59  84 111 145 190 241 292 342
#     4  10  19  36  56  82 110 151 187 228 272 337
#     4  10  19  36  58  81 112 149 191 233 278 340
#     4   8  16  30  54  77 106 144 182 217 270 332
#     4  12  24  39  59  87 121 159 197 239 299 352
#     4   8  16  30  52  77 104 142 184 213 264 316
#
# _framework density 20.846948999999999
#
# number of rings (size 3 to 8) (size 9 to 14) (size 15 to 20)
#    0.000    1.429    0.000    6.429    0.000    0.000 
#    2.571    0.714    0.000    0.000    0.000    0.000 
#    0.000    0.000    0.000    0.000    0.000    0.000 
#
# Total GULP energy -156362.468101 kJ/mol
# GULP energy per Si atom -5584.373861 kJ/mol
# Density = 2.079950 g / cm^3
# Si number density = 20.846949 Si / 1000 Ang^3
#
#
#
# Elastic Constant Matrix: (Units=GPa)
#
#
# Indices 1 2 3 4 5 6 
#
# 1 114.5534 54.2387 62.1660 0.0000 14.6252 0.0000
# 2 54.2387 80.3578 31.6922 0.0000 13.4634 0.0000
# 3 62.1660 31.6922 75.1218 0.0000 15.1132 0.0000
# 4 0.0000 0.0000 0.0000 39.4414 0.0000 1.9620
# 5 14.6252 13.4634 15.1132 0.0000 22.2877 0.0000
# 6 0.0000 0.0000 0.0000 1.9620 0.0000 41.6117
#
#
#
# Elastic Compliance Matrix: (Units=1/GPa)
#
#
# Indices 1 2 3 4 5 6 
#
# 1 0.019472 -0.008237 -0.012818 0.000000 0.000890 0.000000
# 2 -0.008237 0.019017 0.000020 0.000000 -0.006096 0.000000
# 3 -0.012818 0.000020 0.025731 0.000000 -0.009049 0.000000
# 4 0.000000 0.000000 0.000000 0.025414 0.000000 -0.001198
# 5 0.000890 -0.006096 -0.009049 0.000000 0.054103 0.000000
# 6 0.000000 0.000000 0.000000 -0.001198 0.000000 0.024088
#
#
# Mechanical properties :
#
#
# Convention : Reuss Voigt Hill
#
# Bulk Modulus (GPa) = 45.14541 62.91410 54.02975
# Shear Modulus (GPa) = 23.01196 28.79723 25.90460
#
# Velocity S-wave (km/s) = 3.32603 3.72070 3.52889
# Velocity P-wave (km/s) = 6.03760 6.97873 6.52516
#
# Compressibility (1/GPa) = 0.02215065
#
# Stress axis : x y z
#
# Youngs Moduli (GPa) = 51.35623 52.58321 38.86338
#
# Poissons Ratio (x) = 0.43311 0.49814
# Poissons Ratio (y) = 0.42300 -0.00076
# Poissons Ratio (z) = 0.65827 -0.00103
#
# Static dielectric constant tensor:
#      x y z
#    x 1.743620 0.000000 -0.020510 
#    y 0.000000 1.936390 0.000000 
#    z -0.020510 0.000000 1.725750 
# 
# From -- ./inp_files/15875.got.cif
#   From: 2010.05.17/outbox.cif.g08.bks.cpg/sg15_8_cif.got.tgz:15875.got - 2010.06.03 18:47:42.
