data_PCOD9264146
_publ_section_title
;
Structure prediction by ZEFSAII (Michael W. Deem and Ramdas Pophale) SiO2 
 PCOD9264146
Probable space group: C 2/C
;
_chemical_formula_sum "Si O2"
_cell_formula_units_Z 48
_cell_length_a 24.731253
_cell_length_b 10.079955
_cell_length_c 17.909372
_cell_angle_alpha 90.000000
_cell_angle_beta 21.187848
_cell_angle_gamma 90.000000
_cell_volume 1613.635543
_symmetry_space_group_name_H-M "C 2/C"
_symmetry_group_IT_number 15
_symmetry_cell_setting 'monoclinic'
loop_
_space_group_symop_operation_xyz
x,y,z
-x,y,1/2-z
-x,-y,-z
x,-y,1/2+z
1/2+x,1/2+y,z
1/2-x,1/2+y,1/2-z
1/2-x,1/2-y,-z
1/2+x,1/2-y,1/2+z
loop_
_atom_site_type_symbol
_atom_site_label
_atom_site_fract_x
_atom_site_fract_y
_atom_site_fract_z
Si Si1 0.605805 0.199713 0.349847
Si Si2 0.247493 0.559793 0.298021
Si Si3 0.309320 0.773142 0.316684
Si Si4 0.517507 0.580235 0.854446
Si Si5 0.913384 0.509499 0.254365
Si Si6 0.000000 0.707282 0.250000
Si Si7 0.500000 0.388198 0.750000
O O1 0.694112 0.183174 0.312998
O O2 0.432849 0.177736 0.597434
O O3 0.607393 0.335409 0.301056
O O4 0.652639 0.082304 0.233282
O O5 0.309339 0.618572 0.295854
O O6 0.383540 0.509098 0.072696
O O7 0.093554 0.485475 0.511126
O O8 0.368185 0.854957 0.313174
O O9 0.136143 0.811318 0.537338
O O10 0.459760 0.698502 0.871640
O O11 0.573506 0.479308 0.719580
O O12 0.882744 0.605408 0.363019
#
# Coordination Sequence:
#
# PCOD9264146 Si02
#       7
#     8   8   8   8   8   4   4
#     4   9  18  36  60  81 103 145 194 228 266 325
#     4  10  19  35  56  79 107 145 188 223 261 329
#     4  10  21  34  53  80 110 145 179 216 276 332
#     4   9  19  34  57  84 108 140 187 234 273 312
#     4  10  19  37  60  81 109 149 186 224 273 329
#     4   9  20  35  56  86 112 139 186 231 270 322
#     4  11  20  35  52  80 120 147 170 229 288 322
#
# _framework density 29.746493999999998
#
# number of rings (size 3 to 8) (size 9 to 14) (size 15 to 20)
#    0.000    2.333    0.000    4.000    0.000    2.000 
#    0.000   15.000    0.000    0.000    0.000    0.000 
#    0.000    0.000    0.000    0.000    0.000    0.000 
#
# Total GULP energy -134273.169193 kJ/mol
# GULP energy per Si atom -5594.715383 kJ/mol
# Density = 2.967879 g / cm^3
# Si number density = 29.746494 Si / 1000 Ang^3
#
#
#
# Elastic Constant Matrix: (Units=GPa)
#
#
# Indices 1 2 3 4 5 6 
#
# 1 167.7298 31.0192 26.5525 0.0000 23.4332 0.0000
# 2 31.0192 82.4657 37.6847 0.0000 27.3044 0.0000
# 3 26.5525 37.6847 155.1856 0.0000 15.2386 0.0000
# 4 0.0000 0.0000 0.0000 52.8522 0.0000 8.1413
# 5 23.4332 27.3044 15.2386 0.0000 43.6962 0.0000
# 6 0.0000 0.0000 0.0000 8.1413 0.0000 73.6268
#
#
#
# Elastic Compliance Matrix: (Units=1/GPa)
#
#
# Indices 1 2 3 4 5 6 
#
# 1 0.006661 -0.001432 -0.000548 0.000000 -0.002486 0.000000
# 2 -0.001432 0.016943 -0.003008 0.000000 -0.008770 0.000000
# 3 -0.000548 -0.003008 0.007305 0.000000 -0.000374 0.000000
# 4 0.000000 0.000000 0.000000 0.019249 0.000000 -0.002128
# 5 -0.002486 -0.008770 -0.000374 0.000000 0.029829 0.000000
# 6 0.000000 0.000000 0.000000 -0.002128 0.000000 0.013817
#
#
# Mechanical properties :
#
#
# Convention : Reuss Voigt Hill
#
# Bulk Modulus (GPa) = 47.77108 66.21044 56.99076
# Shear Modulus (GPa) = 45.14338 54.71002 49.92670
#
# Velocity S-wave (km/s) = 3.89987 4.29325 4.10128
# Velocity P-wave (km/s) = 6.03099 6.84709 6.45196
#
# Compressibility (1/GPa) = 0.02093317
#
# Stress axis : x y z
#
# Youngs Moduli (GPa) = 150.13091 59.01980 136.89505
#
# Poissons Ratio (x) = 0.08451 0.07499
# Poissons Ratio (y) = 0.21498 0.41182
# Poissons Ratio (z) = 0.08224 0.17755
#
# Static dielectric constant tensor:
#      x y z
#    x 2.274550 0.000000 -0.074050 
#    y 0.000000 2.284730 0.000000 
#    z -0.074050 0.000000 2.233450 
# 
# From -- ./inp_files/103791.got.cif
#   From: 2010.05.17/outbox.cif.g08.bks.cpg/sg15_52_cif.got.tgz:103791.got - 2010.06.03 18:47:42.
