data_PCOD9264187
_publ_section_title
;
Structure prediction by ZEFSAII (Michael W. Deem and Ramdas Pophale) SiO2 
 PCOD9264187
Probable space group: C 2/C
;
_chemical_formula_sum "Si O2"
_cell_formula_units_Z 48
_cell_length_a 5.333879
_cell_length_b 27.009635
_cell_length_c 14.845325
_cell_angle_alpha 90.000000
_cell_angle_beta 99.456402
_cell_angle_gamma 90.000000
_cell_volume 2109.645335
_symmetry_space_group_name_H-M "C 2/C"
_symmetry_group_IT_number 15
_symmetry_cell_setting 'monoclinic'
loop_
_space_group_symop_operation_xyz
x,y,z
-x,y,1/2-z
-x,-y,-z
x,-y,1/2+z
1/2+x,1/2+y,z
1/2-x,1/2+y,1/2-z
1/2-x,1/2-y,-z
1/2+x,1/2-y,1/2+z
loop_
_atom_site_type_symbol
_atom_site_label
_atom_site_fract_x
_atom_site_fract_y
_atom_site_fract_z
Si Si1 0.210381 0.626766 0.195314
Si Si2 0.456012 0.722516 0.880551
Si Si3 0.490505 0.389310 0.093619
Si Si4 0.526896 0.246362 0.589766
Si Si5 0.954199 0.635859 0.508412
Si Si6 0.000000 0.966512 0.250000
Si Si7 0.500000 0.030139 0.250000
O O1 0.500000 0.626881 0.250000
O O2 0.096959 0.570020 0.181051
O O3 0.000000 0.649230 0.250000
O O4 0.181287 0.646558 0.093555
O O5 0.467032 0.664860 0.857596
O O6 0.693615 0.751813 0.857172
O O7 0.194340 0.750475 0.851747
O O8 0.494677 0.724778 0.993488
O O9 0.752998 0.396023 0.054470
O O10 0.431379 0.430588 0.163375
O O11 0.237802 0.385863 0.017185
O O12 0.502088 0.188234 0.560662
O O13 0.754291 0.997117 0.270939
#
# Coordination Sequence:
#
# PCOD9264187 Si02
#       7
#     8   8   8   8   8   4   4
#     4  10  20  38  61  77 107 138 171 222 280 338
#     4   8  14  27  44  74 102 138 168 204 249 300
#     4  10  21  33  55  81 111 140 185 219 259 312
#     4   8  14  25  48  73 105 132 168 204 251 308
#     4  10  19  35  56  87 105 138 180 223 261 320
#     4  12  22  40  56  75 108 149 180 220 274 322
#     4  10  22  40  58  73 102 151 172 214 294 340
#
# _framework density 22.75264
#
# number of rings (size 3 to 8) (size 9 to 14) (size 15 to 20)
#    0.500    2.000    0.833    2.000    0.000    0.000 
#    0.000    5.000    1.833    0.000    2.167    0.000 
#    0.000    0.000    0.000    0.000    0.000    0.000 
#
# Total GULP energy -133695.256749 kJ/mol
# GULP energy per Si atom -5570.635698 kJ/mol
# Density = 2.270085 g / cm^3
# Si number density = 22.752640 Si / 1000 Ang^3
#
#
#
# Elastic Constant Matrix: (Units=GPa)
#
#
# Indices 1 2 3 4 5 6 
#
# 1 214.4176 24.4547 33.0436 0.0000 15.0138 0.0000
# 2 24.4547 65.1869 12.6685 0.0000 8.4099 0.0000
# 3 33.0436 12.6685 67.4519 0.0000 -0.8141 0.0000
# 4 0.0000 0.0000 0.0000 12.2886 0.0000 4.9940
# 5 15.0138 8.4099 -0.8141 0.0000 24.1544 0.0000
# 6 0.0000 0.0000 0.0000 4.9940 0.0000 13.4839
#
#
#
# Elastic Compliance Matrix: (Units=1/GPa)
#
#
# Indices 1 2 3 4 5 6 
#
# 1 0.005386 -0.001152 -0.002459 0.000000 -0.003030 0.000000
# 2 -0.001152 0.016977 -0.002688 0.000000 -0.005285 0.000000
# 3 -0.002459 -0.002688 0.016571 0.000000 0.003023 0.000000
# 4 0.000000 0.000000 0.000000 0.095795 0.000000 -0.035479
# 5 -0.003030 -0.005285 0.003023 0.000000 0.045226 0.000000
# 6 0.000000 0.000000 0.000000 -0.035479 0.000000 0.087303
#
#
# Mechanical properties :
#
#
# Convention : Reuss Voigt Hill
#
# Bulk Modulus (GPa) = 37.96955 54.15444 46.06200
# Shear Modulus (GPa) = 17.32297 28.44469 22.88383
#
# Velocity S-wave (km/s) = 2.76227 3.53961 3.17482
# Velocity P-wave (km/s) = 5.18630 6.36853 5.80758
#
# Compressibility (1/GPa) = 0.02633689
#
# Stress axis : x y z
#
# Youngs Moduli (GPa) = 185.65773 58.90344 60.34540
#
# Poissons Ratio (x) = 0.06785 0.14838
# Poissons Ratio (y) = 0.21386 0.16221
# Poissons Ratio (z) = 0.45651 0.15833
#
# Static dielectric constant tensor:
#      x y z
#    x 2.130630 0.000000 0.086630 
#    y 0.000000 1.869460 0.000000 
#    z 0.086630 0.000000 1.875900 
# 
# From -- ./inp_files/130514.got.cif
#   From: 2010.05.17/outbox.cif.g08.bks.cpg/sg15_66_cif.got.tgz:130514.got - 2010.06.03 18:47:42.
