data_PCOD9264743
_publ_section_title
;
Structure prediction by ZEFSAII (Michael W. Deem and Ramdas Pophale) SiO2 
 PCOD9264743
Probable space group: C 2/C
;
_chemical_formula_sum "Si O2"
_cell_formula_units_Z 40
_cell_length_a 10.542304
_cell_length_b 20.685810
_cell_length_c 15.753651
_cell_angle_alpha 90.000000
_cell_angle_beta 144.576984
_cell_angle_gamma 90.000000
_cell_volume 1991.242177
_symmetry_space_group_name_H-M "C 2/C"
_symmetry_group_IT_number 15
_symmetry_cell_setting 'monoclinic'
loop_
_space_group_symop_operation_xyz
x,y,z
-x,y,1/2-z
-x,-y,-z
x,-y,1/2+z
1/2+x,1/2+y,z
1/2-x,1/2+y,1/2-z
1/2-x,1/2-y,-z
1/2+x,1/2-y,1/2+z
loop_
_atom_site_type_symbol
_atom_site_label
_atom_site_fract_x
_atom_site_fract_y
_atom_site_fract_z
Si Si1 0.351567 0.585890 0.346420
Si Si2 0.653719 0.682719 0.415437
Si Si3 0.068137 0.462456 0.951694
Si Si4 0.973836 0.403972 0.332899
Si Si5 0.506583 0.442268 0.389190
O O1 0.503150 0.644736 0.400928
O O2 0.444166 0.518322 0.358588
O O3 0.366101 0.576381 0.454808
O O4 0.109576 0.589153 0.175722
O O5 0.500000 0.690328 0.250000
O O6 0.750000 0.750000 0.500000
O O7 0.863972 0.636171 0.518946
O O8 0.054419 0.521787 0.877304
O O9 0.312595 0.435142 0.085258
O O10 0.000000 0.500000 0.000000
O O11 0.724454 0.405116 0.229594
O O12 0.000000 0.379951 0.250000
#
# Coordination Sequence:
#
# PCOD9264743 Si02
#       5
#     8   8   8   8   8
#     4  10  20  35  60  90 130 171 218 263 336 396
#     4  12  25  41  64  95 131 177 228 276 325 403
#     4  11  21  33  57  97 136 170 210 273 341 402
#     4  11  20  38  62  90 131 168 220 267 330 401
#     4  10  19  35  62  92 130 169 208 274 338 401
#
# _framework density 20.087962000000001
#
# number of rings (size 3 to 8) (size 9 to 14) (size 15 to 20)
#    0.000    1.200    4.000    4.800    0.000    2.400 
#    0.000    0.000    0.000    1.200    5.200    0.000 
#    0.000    0.000    0.000    0.000    0.000    0.000 
#
# Total GULP energy -111673.892209 kJ/mol
# GULP energy per Si atom -5583.694610 kJ/mol
# Density = 2.004224 g / cm^3
# Si number density = 20.087962 Si / 1000 Ang^3
#
#
#
# Elastic Constant Matrix: (Units=GPa)
#
#
# Indices 1 2 3 4 5 6 
#
# 1 105.0688 28.1796 70.5043 0.0002 30.8550 0.0000
# 2 28.1796 83.7759 39.5383 -0.0003 6.6074 -0.0001
# 3 70.5043 39.5383 173.0455 -0.0003 27.4510 -0.0004
# 4 0.0002 -0.0003 -0.0003 40.0248 -0.0002 4.9164
# 5 30.8550 6.6074 27.4510 -0.0002 45.1750 -0.0002
# 6 0.0000 -0.0001 -0.0004 4.9164 -0.0002 16.3610
#
#
#
# Elastic Compliance Matrix: (Units=1/GPa)
#
#
# Indices 1 2 3 4 5 6 
#
# 1 0.015393 -0.002453 -0.004538 0.000000 -0.007397 0.000000
# 2 -0.002453 0.013771 -0.002317 0.000000 0.001069 0.000000
# 3 -0.004538 -0.002317 0.008423 0.000000 -0.001681 0.000000
# 4 0.000000 0.000000 0.000000 0.025942 0.000000 -0.007795
# 5 -0.007397 0.001069 -0.001681 0.000000 0.028053 0.000000
# 6 0.000000 0.000000 0.000000 -0.007795 0.000000 0.063464
#
#
# Mechanical properties :
#
#
# Convention : Reuss Voigt Hill
#
# Bulk Modulus (GPa) = 52.70656 70.92609 61.81632
# Shear Modulus (GPa) = 27.78029 35.22335 31.50182
#
# Velocity S-wave (km/s) = 3.72281 4.19197 3.96434
# Velocity P-wave (km/s) = 6.69134 7.66907 7.19682
#
# Compressibility (1/GPa) = 0.01897297
#
# Stress axis : x y z
#
# Youngs Moduli (GPa) = 64.96658 72.61825 118.71556
#
# Poissons Ratio (x) = 0.17811 0.53868
# Poissons Ratio (y) = 0.15934 0.27502
# Poissons Ratio (z) = 0.29479 0.16823
#
# Static dielectric constant tensor:
#      x y z
#    x 1.788940 0.000000 0.000550 
#    y 0.000000 1.682940 0.000000 
#    z 0.000550 0.000000 1.808610 
# 
# From -- ./inp_files/29323.got.cif
#   From: 2010.05.17/outbox.cif.g08.bks.cpg/sg15_15_cif.got.tgz:29323.got - 2010.06.03 18:47:42.
