data_PCOD9264019
_publ_section_title
;
Structure prediction by ZEFSAII (Michael W. Deem and Ramdas Pophale) SiO2 
 PCOD9264019
Probable space group: C 2/C
;
_chemical_formula_sum "Si O2"
_cell_formula_units_Z 52
_cell_length_a 25.810086
_cell_length_b 14.498175
_cell_length_c 8.502983
_cell_angle_alpha 90.000000
_cell_angle_beta 61.745927
_cell_angle_gamma 90.000000
_cell_volume 2802.718975
_symmetry_space_group_name_H-M "C 2/C"
_symmetry_group_IT_number 15
_symmetry_cell_setting 'monoclinic'
loop_
_space_group_symop_operation_xyz
x,y,z
-x,y,1/2-z
-x,-y,-z
x,-y,1/2+z
1/2+x,1/2+y,z
1/2-x,1/2+y,1/2-z
1/2-x,1/2-y,-z
1/2+x,1/2-y,1/2+z
loop_
_atom_site_type_symbol
_atom_site_label
_atom_site_fract_x
_atom_site_fract_y
_atom_site_fract_z
Si Si1 0.803720 0.839046 0.301849
Si Si2 0.807025 0.442035 0.126831
Si Si3 0.000000 0.953159 0.750000
Si Si4 0.500000 0.752757 0.750000
Si Si5 0.791280 0.371399 0.815427
Si Si6 0.431797 0.101989 0.554662
Si Si7 0.433652 0.395442 0.142800
Si Si8 0.000000 0.548474 0.750000
O O1 0.753856 0.885456 0.263347
O O2 0.814321 0.731253 0.247839
O O3 0.773687 0.849943 0.518635
O O4 0.864441 0.892177 0.217060
O O5 0.795218 0.549977 0.178071
O O6 0.822760 0.417724 0.922673
O O7 0.861692 0.405997 0.148943
O O8 0.035391 0.896918 0.570366
O O9 0.955680 0.017515 0.713358
O O10 0.541567 0.813408 0.579748
O O11 0.542705 0.691115 0.794185
O O12 0.458224 0.102737 0.691053
O O13 0.458268 0.014057 0.421236
#
# Coordination Sequence:
#
# PCOD9264019 Si02
#       8
#     8   8   4   4   8   8   8   4
#     4   9  21  36  61  84 120 153 191 243 300 344
#     4  10  19  35  59  82 113 155 190 243 288 349
#     4   9  22  38  58  85 106 152 202 241 286 353
#     4  10  22  34  58  82 114 158 180 244 300 339
#     4   9  20  36  55  89 114 155 195 229 304 340
#     4  10  19  35  53  81 114 147 199 227 286 346
#     4  10  20  39  59  82 114 148 196 243 295 348
#     4   9  20  32  50  77 108 154 186 231 262 334
#
# _framework density 18.553412000000002
#
# number of rings (size 3 to 8) (size 9 to 14) (size 15 to 20)
#    0.923    1.538    0.000    1.846    2.154    3.077 
#    0.000    2.308    0.000    0.000    0.000    0.000 
#    0.000    0.000    0.000    0.000    0.000    0.000 
#
# Total GULP energy -144785.432431 kJ/mol
# GULP energy per Si atom -5568.670478 kJ/mol
# Density = 1.851118 g / cm^3
# Si number density = 18.553412 Si / 1000 Ang^3
#
#
#
# Elastic Constant Matrix: (Units=GPa)
#
#
# Indices 1 2 3 4 5 6 
#
# 1 151.7446 32.3162 39.8881 0.0000 -1.0747 0.0000
# 2 32.3162 50.8083 13.0424 0.0000 10.7022 0.0000
# 3 39.8881 13.0424 60.3362 0.0000 18.7164 0.0000
# 4 0.0000 0.0000 0.0000 -3.6437 0.0000 15.4520
# 5 -1.0747 10.7022 18.7164 0.0000 19.2348 0.0000
# 6 0.0000 0.0000 0.0000 15.4520 0.0000 -25.9704
#
#
#
# Elastic Compliance Matrix: (Units=1/GPa)
#
#
# Indices 1 2 3 4 5 6 
#
# 1 0.010955 -0.007442 -0.010181 0.000000 0.014660 0.000000
# 2 -0.007442 0.027432 0.005520 0.000000 -0.021051 0.000000
# 3 -0.010181 0.005520 0.033288 0.000000 -0.036031 0.000000
# 4 0.000000 0.000000 0.000000 0.180181 0.000000 0.107205
# 5 0.014660 -0.021051 -0.036031 0.000000 0.099581 0.000000
# 6 0.000000 0.000000 0.000000 0.107205 0.000000 0.025280
#
#
# Mechanical properties :
#
#
# Convention : Reuss Voigt Hill
#
# Bulk Modulus (GPa) = 21.06625 48.15360 34.60993
# Shear Modulus (GPa) = 11.99769 9.76696 10.88232
#
# Velocity S-wave (km/s) = 2.54570 2.29688 2.42449
# Velocity P-wave (km/s) = 4.47435 5.74844 5.15094
#
# Compressibility (1/GPa) = 0.04746929
#
# Stress axis : x y z
#
# Youngs Moduli (GPa) = 91.28241 36.45315 30.04071
#
# Poissons Ratio (x) = 0.27129 0.30585
# Poissons Ratio (y) = 0.67935 -0.16583
# Poissons Ratio (z) = 0.92935 -0.20123
#
# Static dielectric constant tensor:
#      x y z
#    x 1.638160 0.000000 0.002820 
#    y 0.000000 1.647460 0.000000 
#    z 0.002820 0.000000 1.651560 
# 
# From -- ./inp_files/61224.got.cif
#   From: 2010.05.17/outbox.cif.g08.bks.cpg/sg15_31_cif.got.tgz:61224.got - 2010.06.03 18:47:42.
