data_PCOD9264261
_publ_section_title
;
Structure prediction by ZEFSAII (Michael W. Deem and Ramdas Pophale) SiO2 
 PCOD9264261
Probable space group: C 2/C
;
_chemical_formula_sum "Si O2"
_cell_formula_units_Z 56
_cell_length_a 22.733185
_cell_length_b 13.350879
_cell_length_c 8.552408
_cell_angle_alpha 90.000000
_cell_angle_beta 76.365586
_cell_angle_gamma 90.000000
_cell_volume 2522.575692
_symmetry_space_group_name_H-M "C 2/C"
_symmetry_group_IT_number 15
_symmetry_cell_setting 'monoclinic'
loop_
_space_group_symop_operation_xyz
x,y,z
-x,y,1/2-z
-x,-y,-z
x,-y,1/2+z
1/2+x,1/2+y,z
1/2-x,1/2+y,1/2-z
1/2-x,1/2-y,-z
1/2+x,1/2-y,1/2+z
loop_
_atom_site_type_symbol
_atom_site_label
_atom_site_fract_x
_atom_site_fract_y
_atom_site_fract_z
Si Si1 0.379414 0.223684 0.265612
Si Si2 0.435259 0.850306 0.220114
Si Si3 0.064590 0.459078 0.623364
Si Si4 0.278333 0.309816 0.124965
Si Si5 0.168545 0.770259 0.861504
Si Si6 0.935338 0.923214 0.223636
Si Si7 0.149701 0.012637 0.454212
O O1 0.398244 0.111531 0.283987
O O2 0.334488 0.247162 0.155160
O O3 0.348255 0.250014 0.449628
O O4 0.434280 0.302409 0.210612
O O5 0.500000 0.815507 0.250000
O O6 0.388103 0.762678 0.211227
O O7 0.411690 0.928096 0.367268
O O8 0.440009 0.910313 0.047585
O O9 0.000000 0.463307 0.750000
O O10 0.224898 0.300119 0.284851
O O11 0.303519 0.420568 0.073911
O O12 0.250000 0.250000 0.000000
O O13 0.176757 0.890155 0.848782
O O14 0.914126 0.975382 0.079305
O O15 0.000000 0.954231 0.250000
O O16 0.875619 0.950650 0.363629
#
# Coordination Sequence:
#
# PCOD9264261 Si02
#       7
#     8   8   8   8   8   8   8
#     4   9  21  38  58  83 115 155 200 244 301 373
#     4  10  21  36  58  89 121 157 202 251 303 367
#     4  10  19  35  57  84 119 155 193 248 306 360
#     4  11  23  39  61  88 117 155 207 260 303 355
#     4  10  22  41  60  84 120 163 199 244 311 370
#     4  10  19  36  60  88 120 158 196 240 303 367
#     4  10  22  39  59  88 124 157 202 255 299 362
#
# _framework density 22.199532000000001
#
# number of rings (size 3 to 8) (size 9 to 14) (size 15 to 20)
#    0.000    2.000    0.000    3.857    0.000    4.000 
#    0.000   10.000    0.000    0.000    0.000    0.000 
#    0.000    0.000    0.000    0.000    0.000    0.000 
#
# Total GULP energy -156129.748805 kJ/mol
# GULP energy per Si atom -5576.062457 kJ/mol
# Density = 2.214900 g / cm^3
# Si number density = 22.199532 Si / 1000 Ang^3
#
#
#
# Elastic Constant Matrix: (Units=GPa)
#
#
# Indices 1 2 3 4 5 6 
#
# 1 87.5402 66.6377 16.6559 0.0000 23.3452 0.0000
# 2 66.6377 121.3057 13.7024 0.0000 12.0710 0.0000
# 3 16.6559 13.7024 47.3816 0.0000 17.5770 0.0000
# 4 0.0000 0.0000 0.0000 12.8342 0.0000 -2.0094
# 5 23.3452 12.0710 17.5770 0.0000 32.7368 0.0000
# 6 0.0000 0.0000 0.0000 -2.0094 0.0000 7.3823
#
#
#
# Elastic Compliance Matrix: (Units=1/GPa)
#
#
# Indices 1 2 3 4 5 6 
#
# 1 0.023771 -0.011784 -0.000339 0.000000 -0.012425 0.000000
# 2 -0.011784 0.014501 -0.001480 0.000000 0.003851 0.000000
# 3 -0.000339 -0.001480 0.026673 0.000000 -0.013534 0.000000
# 4 0.000000 0.000000 0.000000 0.081385 0.000000 0.022152
# 5 -0.012425 0.003851 -0.013534 0.000000 0.045253 0.000000
# 6 0.000000 0.000000 0.000000 0.022152 0.000000 0.141489
#
#
# Mechanical properties :
#
#
# Convention : Reuss Voigt Hill
#
# Bulk Modulus (GPa) = 26.49756 50.02437 38.26096
# Shear Modulus (GPa) = 13.40991 21.20610 17.30801
#
# Velocity S-wave (km/s) = 2.46044 3.09406 2.79526
# Velocity P-wave (km/s) = 4.47590 5.94535 5.26217
#
# Compressibility (1/GPa) = 0.03773933
#
# Stress axis : x y z
#
# Youngs Moduli (GPa) = 42.06735 68.96135 37.49109
#
# Poissons Ratio (x) = 0.81263 0.01272
# Poissons Ratio (y) = 0.49571 0.05548
# Poissons Ratio (z) = 0.01428 0.10205
#
# Static dielectric constant tensor:
#      x y z
#    x 1.923560 0.000000 0.236220 
#    y 0.000000 1.899770 0.000000 
#    z 0.236220 0.000000 3.587310 
# 
# From -- ./inp_files/55623.got.cif
#   From: 2010.05.17/outbox.cif.g08.bks.cpg/sg15_28_cif.got.tgz:55623.got - 2010.06.03 18:47:42.
