data_PCOD9264611
_publ_section_title
;
Structure prediction by ZEFSAII (Michael W. Deem and Ramdas Pophale) SiO2 
 PCOD9264611
Probable space group: C 2/C
;
_chemical_formula_sum "Si O2"
_cell_formula_units_Z 32
_cell_length_a 15.857374
_cell_length_b 16.886765
_cell_length_c 5.378366
_cell_angle_alpha 90.000000
_cell_angle_beta 67.865190
_cell_angle_gamma 90.000000
_cell_volume 1334.073299
_symmetry_space_group_name_H-M "C 2/C"
_symmetry_group_IT_number 15
_symmetry_cell_setting 'monoclinic'
loop_
_space_group_symop_operation_xyz
x,y,z
-x,y,1/2-z
-x,-y,-z
x,-y,1/2+z
1/2+x,1/2+y,z
1/2-x,1/2+y,1/2-z
1/2-x,1/2-y,-z
1/2+x,1/2-y,1/2+z
loop_
_atom_site_type_symbol
_atom_site_label
_atom_site_fract_x
_atom_site_fract_y
_atom_site_fract_z
Si Si1 0.640243 0.462234 0.044196
Si Si2 0.853901 0.778018 0.346679
Si Si3 0.597898 0.193756 0.711498
Si Si4 0.845567 0.526661 0.819198
O O1 0.603605 0.514750 0.313641
O O2 0.631785 0.370857 0.124758
O O3 0.748440 0.482196 0.907309
O O4 0.750000 0.750000 0.500000
O O5 0.905021 0.733561 0.515675
O O6 0.879441 0.753193 0.038265
O O7 0.500000 0.158583 0.750000
O O8 0.667383 0.120438 0.637239
O O9 0.892982 0.509246 0.506601
#
# Coordination Sequence:
#
# PCOD9264611 Si02
#       4
#     8   8   8   8
#     4  10  19  35  60  92 122 155 212 272 314 363
#     4  12  23  41  69  96 129 174 225 272 315 385
#     4  12  26  43  65  98 139 175 210 266 338 398
#     4  10  20  37  59  90 128 164 209 256 315 384
#
# _framework density 23.986688999999998
#
# number of rings (size 3 to 8) (size 9 to 14) (size 15 to 20)
#    0.000    1.000    0.000   10.500    0.000    1.000 
#    0.000    0.000    0.000   15.000    0.000    0.000 
#    0.000    0.000    0.000    0.000    0.000    0.000 
#
# Total GULP energy -89530.105196 kJ/mol
# GULP energy per Si atom -5595.631575 kJ/mol
# Density = 2.393209 g / cm^3
# Si number density = 23.986689 Si / 1000 Ang^3
#
#
#
# Elastic Constant Matrix: (Units=GPa)
#
#
# Indices 1 2 3 4 5 6 
#
# 1 50.7183 -13.2690 15.0183 0.0000 8.5904 0.0000
# 2 -13.2690 128.4879 10.7887 0.0000 6.8511 0.0000
# 3 15.0183 10.7887 144.2956 0.0000 39.2562 0.0000
# 4 0.0000 0.0000 0.0000 42.7875 0.0000 16.4270
# 5 8.5904 6.8511 39.2562 0.0000 38.6075 0.0000
# 6 0.0000 0.0000 0.0000 16.4270 0.0000 0.9870
#
#
#
# Elastic Compliance Matrix: (Units=1/GPa)
#
#
# Indices 1 2 3 4 5 6 
#
# 1 0.021435 0.002533 -0.001383 0.000000 -0.003813 0.000000
# 2 0.002533 0.008165 -0.000452 0.000000 -0.001553 0.000000
# 3 -0.001383 -0.000452 0.009680 0.000000 -0.009455 0.000000
# 4 0.000000 0.000000 0.000000 -0.004336 0.000000 0.072170
# 5 -0.003813 -0.001553 -0.009455 0.000000 0.036639 0.000000
# 6 0.000000 0.000000 0.000000 0.072170 0.000000 -0.187981
#
#
# Mechanical properties :
#
#
# Convention : Reuss Voigt Hill
#
# Bulk Modulus (GPa) = 24.58403 38.73088 31.65745
# Shear Modulus (GPa) = -47.96829 37.20731 -5.38049
#
# Velocity S-wave (km/s) = -4.47675 3.94276 -1.49933
# Velocity P-wave (km/s) = 4.05591 6.07528 3.19832
#
# Compressibility (1/GPa) = 0.04067682
#
# Stress axis : x y z
#
# Youngs Moduli (GPa) = 46.65331 122.47160 103.30376
#
# Poissons Ratio (x) = -0.31022 0.14288
# Poissons Ratio (y) = -0.11817 0.04664
# Poissons Ratio (z) = 0.06453 0.05530
#
# Static dielectric constant tensor:
#      x y z
#    x 1.972840 0.000000 -0.008110 
#    y 0.000000 1.864480 0.000000 
#    z -0.008110 0.000000 1.965350 
# 
# From -- ./inp_files/6569.got.cif
#   From: 2010.05.17/outbox.cif.g08.bks.cpg/sg15_4_cif.got.tgz:6569.got - 2010.06.03 18:47:42.
