data_PCOD9264713
_publ_section_title
;
Structure prediction by ZEFSAII (Michael W. Deem and Ramdas Pophale) SiO2 
 PCOD9264713
Probable space group: C 2/C
;
_chemical_formula_sum "Si O2"
_cell_formula_units_Z 60
_cell_length_a 24.837297
_cell_length_b 15.708493
_cell_length_c 18.716483
_cell_angle_alpha 90.000000
_cell_angle_beta 160.773868
_cell_angle_gamma 90.000000
_cell_volume 2404.646884
_symmetry_space_group_name_H-M "C 2/C"
_symmetry_group_IT_number 15
_symmetry_cell_setting 'monoclinic'
loop_
_space_group_symop_operation_xyz
x,y,z
-x,y,1/2-z
-x,-y,-z
x,-y,1/2+z
1/2+x,1/2+y,z
1/2-x,1/2+y,1/2-z
1/2-x,1/2-y,-z
1/2+x,1/2-y,1/2+z
loop_
_atom_site_type_symbol
_atom_site_label
_atom_site_fract_x
_atom_site_fract_y
_atom_site_fract_z
Si Si1 0.717475 0.394742 0.777856
Si Si2 0.096497 0.460269 0.054344
Si Si3 0.500000 0.142914 0.250000
Si Si4 0.229494 0.548739 0.444819
Si Si5 0.223287 0.776993 0.550842
Si Si6 0.065868 0.725113 0.559322
Si Si7 0.637616 0.618558 0.335383
Si Si8 0.042079 0.292318 0.200722
O O1 0.754437 0.479990 0.781189
O O2 0.641288 0.317295 0.637383
O O3 0.626256 0.408349 0.738262
O O4 0.891560 0.355097 0.018961
O O5 0.143007 0.362807 0.127441
O O6 0.000000 0.500000 0.000000
O O7 0.951197 0.465307 0.814516
O O8 0.658771 0.086685 0.430631
O O9 0.585023 0.214090 0.408080
O O10 0.312139 0.623028 0.502186
O O11 0.341186 0.467245 0.593511
O O12 0.250000 0.750000 0.500000
O O13 0.382866 0.772354 0.799352
O O14 0.075151 0.716036 0.657237
O O15 0.807451 0.667093 0.567943
O O16 0.508519 0.695081 0.183568
#
# Coordination Sequence:
#
# PCOD9264713 Si02
#       8
#     8   8   4   8   8   8   8   8
#     4  11  21  36  64  92 124 172 206 253 312 379
#     4  11  20  37  59  88 121 166 211 251 311 373
#     4  10  20  38  64  86 110 160 208 252 312 360
#     4  10  19  35  62  87 118 155 207 256 297 375
#     4   9  21  39  59  86 118 157 203 256 305 359
#     4  10  22  38  59  93 127 161 210 259 313 371
#     4  10  20  36  60  93 121 159 207 250 305 372
#     4  10  20  35  60  88 129 158 196 254 307 369
#
# _framework density 24.951689999999999
#
# number of rings (size 3 to 8) (size 9 to 14) (size 15 to 20)
#    0.000    1.867    2.667    1.200    0.000    3.200 
#    0.000    2.667    8.800    8.800    0.000    0.000 
#    0.000    0.000    0.000    0.000    0.000    0.000 
#
# Total GULP energy -167469.376116 kJ/mol
# GULP energy per Si atom -5582.312537 kJ/mol
# Density = 2.489490 g / cm^3
# Si number density = 24.951690 Si / 1000 Ang^3
#
#
#
# Elastic Constant Matrix: (Units=GPa)
#
#
# Indices 1 2 3 4 5 6 
#
# 1 74.3190 27.5871 8.0331 -0.0008 -14.4986 -0.0007
# 2 27.5871 172.2271 40.8758 -0.0017 -20.2496 -0.0018
# 3 8.0331 40.8758 60.9840 -0.0009 -3.0440 -0.0008
# 4 -0.0008 -0.0017 -0.0009 44.1610 -0.0010 -1.2228
# 5 -14.4986 -20.2496 -3.0440 -0.0010 23.9563 -0.0009
# 6 -0.0007 -0.0018 -0.0008 -1.2228 -0.0009 19.9356
#
#
#
# Elastic Compliance Matrix: (Units=1/GPa)
#
#
# Indices 1 2 3 4 5 6 
#
# 1 0.015646 -0.001365 -0.000736 0.000000 0.008222 0.000001
# 2 -0.001365 0.007758 -0.004765 0.000000 0.005127 0.000001
# 3 -0.000736 -0.004765 0.019589 0.000000 -0.001984 0.000000
# 4 0.000000 0.000000 0.000000 0.022683 0.000002 0.001391
# 5 0.008222 0.005127 -0.001984 0.000002 0.050800 0.000003
# 6 0.000001 0.000001 0.000000 0.001391 0.000003 0.050247
#
#
# Mechanical properties :
#
#
# Convention : Reuss Voigt Hill
#
# Bulk Modulus (GPa) = 34.17289 51.16914 42.67102
# Shear Modulus (GPa) = 26.28707 33.01287 29.64997
#
# Velocity S-wave (km/s) = 3.24932 3.64135 3.45091
# Velocity P-wave (km/s) = 5.27283 6.18313 5.74603
#
# Compressibility (1/GPa) = 0.02926296
#
# Stress axis : x y z
#
# Youngs Moduli (GPa) = 63.91577 128.89130 51.04850
#
# Poissons Ratio (x) = 0.17591 0.03756
# Poissons Ratio (y) = 0.08723 0.24323
# Poissons Ratio (z) = 0.04703 0.61412
#
# Static dielectric constant tensor:
#      x y z
#    x 1.990360 0.000000 0.015850 
#    y 0.000000 2.276190 0.000000 
#    z 0.015850 0.000000 1.966850 
# 
# From -- ./inp_files/105369.got.cif
#   From: 2010.05.17/outbox.cif.g08.bks.cpg/sg15_53_cif.got.tgz:105369.got - 2010.06.03 18:47:42.
