data_PCOD9264242
_publ_section_title
;
Structure prediction by ZEFSAII (Michael W. Deem and Ramdas Pophale) SiO2 
 PCOD9264242
Probable space group: C 2/C
;
_chemical_formula_sum "Si O2"
_cell_formula_units_Z 64
_cell_length_a 14.687025
_cell_length_b 12.317566
_cell_length_c 29.057754
_cell_angle_alpha 90.000000
_cell_angle_beta 38.754426
_cell_angle_gamma 90.000000
_cell_volume 3290.666046
_symmetry_space_group_name_H-M "C 2/C"
_symmetry_group_IT_number 15
_symmetry_cell_setting 'monoclinic'
loop_
_space_group_symop_operation_xyz
x,y,z
-x,y,1/2-z
-x,-y,-z
x,-y,1/2+z
1/2+x,1/2+y,z
1/2-x,1/2+y,1/2-z
1/2-x,1/2-y,-z
1/2+x,1/2-y,1/2+z
loop_
_atom_site_type_symbol
_atom_site_label
_atom_site_fract_x
_atom_site_fract_y
_atom_site_fract_z
Si Si1 0.534995 0.657258 0.962483
Si Si2 0.848904 0.296838 0.501927
Si Si3 0.647220 0.168906 0.013164
Si Si4 0.823872 0.502216 0.570470
Si Si5 0.620988 0.215331 0.238694
Si Si6 0.848391 0.399449 0.155124
Si Si7 0.772389 0.036854 0.115692
Si Si8 0.476101 0.954876 0.856146
O O1 0.613152 0.701968 0.977215
O O2 0.489814 0.760340 0.949873
O O3 0.638663 0.565712 0.900320
O O4 0.384991 0.600771 0.038065
O O5 0.750000 0.250000 0.500000
O O6 0.778624 0.395203 0.559943
O O7 0.003457 0.340783 0.421416
O O8 0.603346 0.072390 0.064696
O O9 0.750000 0.250000 0.000000
O O10 0.718401 0.111117 0.940835
O O11 0.791502 0.520421 0.636870
O O12 0.000000 0.500000 0.500000
O O13 0.500000 0.254033 0.250000
O O14 0.727620 0.309864 0.210933
O O15 0.712100 0.120283 0.177034
O O16 0.537563 0.158114 0.313083
O O17 0.895412 0.464400 0.181645
O O18 0.635999 0.002729 0.137749
#
# Coordination Sequence:
#
# PCOD9264242 Si02
#       8
#     8   8   8   8   8   8   8   8
#     4  11  20  33  60  85 124 145 194 252 301 344
#     4  11  20  33  59  93 120 153 185 239 321 358
#     4  12  21  34  57  91 117 149 198 249 298 356
#     4  10  19  35  57  82 117 153 182 239 310 343
#     4  10  23  41  60  79 114 169 206 239 297 357
#     4  11  20  41  60  81 125 153 199 251 291 361
#     4  10  21  37  55  86 117 156 191 250 297 355
#     4  11  22  37  61  85 116 159 203 237 301 361
#
# _framework density 19.448948999999999
#
# number of rings (size 3 to 8) (size 9 to 14) (size 15 to 20)
#    0.000    1.250    7.500    0.750    1.750    1.000 
#    0.000    1.250    0.000    0.000    0.000    0.000 
#    0.000    0.000    0.000    0.000    0.000    0.000 
#
# Total GULP energy -178610.091240 kJ/mol
# GULP energy per Si atom -5581.565351 kJ/mol
# Density = 1.940468 g / cm^3
# Si number density = 19.448949 Si / 1000 Ang^3
#
#
#
# Elastic Constant Matrix: (Units=GPa)
#
#
# Indices 1 2 3 4 5 6 
#
# 1 107.6260 36.6602 2.8143 0.0000 -5.0736 0.0000
# 2 36.6602 62.7718 -5.8012 0.0000 -11.9893 0.0000
# 3 2.8143 -5.8012 18.5169 0.0000 -5.8752 0.0000
# 4 0.0000 0.0000 0.0000 26.5106 0.0000 -6.8176
# 5 -5.0736 -11.9893 -5.8752 0.0000 15.6827 0.0000
# 6 0.0000 0.0000 0.0000 -6.8176 0.0000 43.3530
#
#
#
# Elastic Compliance Matrix: (Units=1/GPa)
#
#
# Indices 1 2 3 4 5 6 
#
# 1 0.012148 -0.008602 -0.006107 0.000000 -0.004933 0.000000
# 2 -0.008602 0.027316 0.017714 0.000000 0.024736 0.000000
# 3 -0.006107 0.017714 0.072806 0.000000 0.038842 0.000000
# 4 0.000000 0.000000 0.000000 0.039311 0.000000 0.006182
# 5 -0.004933 0.024736 0.038842 0.000000 0.095630 0.000000
# 6 0.000000 0.000000 0.000000 0.006182 0.000000 0.024039
#
#
# Mechanical properties :
#
#
# Convention : Reuss Voigt Hill
#
# Bulk Modulus (GPa) = 8.45438 28.47350 18.46394
# Shear Modulus (GPa) = 16.41138 27.45868 21.93503
#
# Velocity S-wave (km/s) = 2.90801 3.76151 3.36196
# Velocity P-wave (km/s) = 3.95370 5.79113 4.95827
#
# Compressibility (1/GPa) = 0.11828193
#
# Stress axis : x y z
#
# Youngs Moduli (GPa) = 82.31479 36.60872 13.73505
#
# Poissons Ratio (x) = 0.31489 0.08387
# Poissons Ratio (y) = 0.70804 -0.24330
# Poissons Ratio (z) = 0.50266 -0.64848
#
# Static dielectric constant tensor:
#      x y z
#    x 1.693880 0.000000 0.010110 
#    y 0.000000 1.711670 0.000000 
#    z 0.010110 0.000000 1.691370 
# 
# From -- ./inp_files/313595.got.cif
#   From: 2010.05.17/outbox.cif.g08.bks.cpg/sg15_157_cif.got.tgz:313595.got - 2010.06.03 18:47:42.
