data_PCOD9264341
_publ_section_title
;
Structure prediction by ZEFSAII (Michael W. Deem and Ramdas Pophale) SiO2 
 PCOD9264341
Probable space group: C 2/C
;
_chemical_formula_sum "Si O2"
_cell_formula_units_Z 40
_cell_length_a 17.037603
_cell_length_b 5.119598
_cell_length_c 17.850332
_cell_angle_alpha 90.000000
_cell_angle_beta 89.786855
_cell_angle_gamma 90.000000
_cell_volume 1556.996542
_symmetry_space_group_name_H-M "C 2/C"
_symmetry_group_IT_number 15
_symmetry_cell_setting 'monoclinic'
loop_
_space_group_symop_operation_xyz
x,y,z
-x,y,1/2-z
-x,-y,-z
x,-y,1/2+z
1/2+x,1/2+y,z
1/2-x,1/2+y,1/2-z
1/2-x,1/2-y,-z
1/2+x,1/2-y,1/2+z
loop_
_atom_site_type_symbol
_atom_site_label
_atom_site_fract_x
_atom_site_fract_y
_atom_site_fract_z
Si Si1 0.628009 0.524628 0.520421
Si Si2 0.977844 0.929903 0.122003
Si Si3 0.585716 0.951838 0.303691
Si Si4 0.283271 0.919722 0.789469
Si Si5 0.280809 0.100091 0.580970
O O1 0.581795 0.406072 0.449409
O O2 0.563244 0.543543 0.584973
O O3 0.664007 0.792778 0.485432
O O4 0.708885 0.419286 0.555741
O O5 0.950208 0.177173 0.171150
O O6 0.972669 0.678227 0.173474
O O7 0.659680 0.006774 0.358246
O O8 0.629284 0.970324 0.224089
O O9 0.272830 0.641899 0.745829
O O10 0.257852 0.843252 0.872926
#
# Coordination Sequence:
#
# PCOD9264341 Si02
#       5
#     8   8   8   8   8
#     4   9  19  36  57  86 118 147 185 231 282 335
#     4  10  21  37  58  83 116 151 182 228 286 337
#     4  10  20  37  59  81 109 150 192 229 277 332
#     4  10  19  35  58  83 110 144 190 236 278 326
#     4   9  19  35  59  86 112 147 191 235 275 329
#
# _framework density 25.690487000000001
#
# number of rings (size 3 to 8) (size 9 to 14) (size 15 to 20)
#    0.000    2.400    0.000    3.600    0.000    8.000 
#    0.000   15.000    0.000    7.200    0.000    0.000 
#    0.000    0.000    0.000    0.000    0.000    0.000 
#
# Total GULP energy -111735.221088 kJ/mol
# GULP energy per Si atom -5586.761054 kJ/mol
# Density = 2.563201 g / cm^3
# Si number density = 25.690487 Si / 1000 Ang^3
#
#
#
# Elastic Constant Matrix: (Units=GPa)
#
#
# Indices 1 2 3 4 5 6 
#
# 1 164.9203 11.2870 45.2882 0.0000 -5.1358 0.0000
# 2 11.2870 101.8088 30.1449 0.0000 -25.4711 0.0000
# 3 45.2882 30.1449 79.0754 0.0000 -23.2573 0.0000
# 4 0.0000 0.0000 0.0000 32.1400 0.0000 -15.5891
# 5 -5.1358 -25.4711 -23.2573 0.0000 70.2563 0.0000
# 6 0.0000 0.0000 0.0000 -15.5891 0.0000 -5.7413
#
#
#
# Elastic Compliance Matrix: (Units=1/GPa)
#
#
# Indices 1 2 3 4 5 6 
#
# 1 0.007259 0.000324 -0.004532 0.000000 -0.000852 0.000000
# 2 0.000324 0.011647 -0.003741 0.000000 0.003008 0.000000
# 3 -0.004532 -0.003741 0.017915 0.000000 0.004243 0.000000
# 4 0.000000 0.000000 0.000000 0.013429 0.000000 -0.036462
# 5 -0.000852 0.003008 0.004243 0.000000 0.016666 0.000000
# 6 0.000000 0.000000 0.000000 -0.036462 0.000000 -0.075173
#
#
# Mechanical properties :
#
#
# Convention : Reuss Voigt Hill
#
# Bulk Modulus (GPa) = 47.79116 57.69387 52.74252
# Shear Modulus (GPa) = 342.11680 36.60329 189.36005
#
# Velocity S-wave (km/s) = 11.55239 3.77872 8.59466
# Velocity P-wave (km/s) = 14.02094 6.44549 10.91172
#
# Compressibility (1/GPa) = 0.02092437
#
# Stress axis : x y z
#
# Youngs Moduli (GPa) = 137.75549 85.86258 55.81760
#
# Poissons Ratio (x) = -0.02780 0.25294
# Poissons Ratio (y) = -0.04461 0.20880
# Poissons Ratio (z) = 0.62425 0.32118
#
# Static dielectric constant tensor:
#      x y z
#    x 2.078890 0.000000 0.067210 
#    y 0.000000 1.947060 0.000000 
#    z 0.067210 0.000000 2.142180 
# 
# From -- ./inp_files/246228.got.cif
#   From: 2010.05.17/outbox.cif.g08.bks.cpg/sg15_124_cif.got.tgz:246228.got - 2010.06.03 18:47:42.
