data_PCOD9264527
_publ_section_title
;
Structure prediction by ZEFSAII (Michael W. Deem and Ramdas Pophale) SiO2 
 PCOD9264527
Probable space group: C 2/C
;
_chemical_formula_sum "Si O2"
_cell_formula_units_Z 60
_cell_length_a 13.764979
_cell_length_b 11.598363
_cell_length_c 20.220960
_cell_angle_alpha 90.000000
_cell_angle_beta 64.238900
_cell_angle_gamma 90.000000
_cell_volume 2907.453257
_symmetry_space_group_name_H-M "C 2/C"
_symmetry_group_IT_number 15
_symmetry_cell_setting 'monoclinic'
loop_
_space_group_symop_operation_xyz
x,y,z
-x,y,1/2-z
-x,-y,-z
x,-y,1/2+z
1/2+x,1/2+y,z
1/2-x,1/2+y,1/2-z
1/2-x,1/2-y,-z
1/2+x,1/2-y,1/2+z
loop_
_atom_site_type_symbol
_atom_site_label
_atom_site_fract_x
_atom_site_fract_y
_atom_site_fract_z
Si Si1 0.000000 0.227197 0.250000
Si Si2 0.334356 0.546067 0.613807
Si Si3 0.638758 0.693074 0.461088
Si Si4 0.097959 0.217385 0.012003
Si Si5 0.021461 0.039902 0.144096
Si Si6 0.101589 0.522496 0.520033
Si Si7 0.092570 0.457552 0.176013
Si Si8 0.301534 0.632845 0.912369
O O1 0.038024 0.135314 0.293201
O O2 0.074135 0.318429 0.188748
O O3 0.361945 0.439851 0.557759
O O4 0.344593 0.660478 0.567666
O O5 0.427375 0.536908 0.640261
O O6 0.211438 0.524416 0.669514
O O7 0.526707 0.742645 0.469684
O O8 0.645675 0.691222 0.538232
O O9 0.738530 0.760359 0.397953
O O10 0.142166 0.344452 0.011130
O O11 0.086620 0.119772 0.071931
O O12 0.110471 0.950882 0.146694
O O13 0.078920 0.500305 0.604737
O O14 0.200833 0.444512 0.466838
O O15 0.000000 0.500000 0.500000
O O16 0.000000 0.509018 0.250000
#
# Coordination Sequence:
#
# PCOD9264527 Si02
#       8
#     4   8   8   8   8   8   8   8
#     4  10  24  42  64  82 134 174 208 266 310 390
#     4  11  21  39  67  91 118 169 212 256 315 391
#     4  10  19  35  59  91 129 160 189 258 332 367
#     4  11  19  36  61  96 123 155 210 263 314 375
#     4  11  21  40  61  93 121 168 212 252 319 386
#     4  12  23  37  62 102 126 162 217 271 317 373
#     4  10  23  44  62  86 127 174 211 256 329 374
#     4  11  21  35  61  93 130 157 197 267 318 373
#
# _framework density 20.636617999999999
#
# number of rings (size 3 to 8) (size 9 to 14) (size 15 to 20)
#    0.400    0.800    6.667    0.800    1.867    1.067 
#    2.400    0.000    1.467    0.000    0.000    0.000 
#    0.000    0.000    0.000    0.000    0.000    0.000 
#
# Total GULP energy -167040.131314 kJ/mol
# GULP energy per Si atom -5568.004377 kJ/mol
# Density = 2.058965 g / cm^3
# Si number density = 20.636618 Si / 1000 Ang^3
#
#
#
# Elastic Constant Matrix: (Units=GPa)
#
#
# Indices 1 2 3 4 5 6 
#
# 1 81.0184 -0.0856 22.0690 0.0000 -10.5274 0.0000
# 2 -0.0856 60.2284 -4.7974 0.0000 4.4817 0.0000
# 3 22.0690 -4.7974 39.1413 0.0000 -3.6102 0.0000
# 4 0.0000 0.0000 0.0000 23.8754 0.0000 1.3470
# 5 -10.5274 4.4817 -3.6102 0.0000 12.3101 0.0000
# 6 0.0000 0.0000 0.0000 1.3470 0.0000 21.6623
#
#
#
# Elastic Compliance Matrix: (Units=1/GPa)
#
#
# Indices 1 2 3 4 5 6 
#
# 1 0.016119 -0.001517 -0.008173 0.000000 0.011940 0.000000
# 2 -0.001517 0.017302 0.002338 0.000000 -0.006910 0.000000
# 3 -0.008173 0.002338 0.030546 0.000000 0.001118 0.000000
# 4 0.000000 0.000000 0.000000 0.042032 0.000000 -0.002614
# 5 0.011940 -0.006910 0.001118 0.000000 0.094289 0.000000
# 6 0.000000 0.000000 0.000000 -0.002614 0.000000 0.046326
#
#
# Mechanical properties :
#
#
# Convention : Reuss Voigt Hill
#
# Bulk Modulus (GPa) = 20.29852 23.86222 22.08037
# Shear Modulus (GPa) = 18.00267 22.44971 20.22619
#
# Velocity S-wave (km/s) = 2.95679 3.30185 3.13407
# Velocity P-wave (km/s) = 4.63835 5.11120 4.88051
#
# Compressibility (1/GPa) = 0.04926468
#
# Stress axis : x y z
#
# Youngs Moduli (GPa) = 62.03851 57.79761 32.73723
#
# Poissons Ratio (x) = 0.08765 0.26756
# Poissons Ratio (y) = 0.09408 -0.07655
# Poissons Ratio (z) = 0.50704 -0.13515
#
# Static dielectric constant tensor:
#      x y z
#    x 1.791200 0.000000 0.014860 
#    y 0.000000 1.805300 0.000000 
#    z 0.014860 0.000000 1.779350 
# 
# From -- ./inp_files/243670.got.cif
#   From: 2010.05.17/outbox.cif.g08.bks.cpg/sg15_122_cif.got.tgz:243670.got - 2010.06.03 18:47:42.
