data_PCOD9264384
_publ_section_title
;
Structure prediction by ZEFSAII (Michael W. Deem and Ramdas Pophale) SiO2 
 PCOD9264384
Probable space group: C 2/C
;
_chemical_formula_sum "Si O2"
_cell_formula_units_Z 56
_cell_length_a 11.082133
_cell_length_b 29.181521
_cell_length_c 9.909185
_cell_angle_alpha 90.000000
_cell_angle_beta 116.648149
_cell_angle_gamma 90.000000
_cell_volume 2864.169436
_symmetry_space_group_name_H-M "C 2/C"
_symmetry_group_IT_number 15
_symmetry_cell_setting 'monoclinic'
loop_
_space_group_symop_operation_xyz
x,y,z
-x,y,1/2-z
-x,-y,-z
x,-y,1/2+z
1/2+x,1/2+y,z
1/2-x,1/2+y,1/2-z
1/2-x,1/2-y,-z
1/2+x,1/2-y,1/2+z
loop_
_atom_site_type_symbol
_atom_site_label
_atom_site_fract_x
_atom_site_fract_y
_atom_site_fract_z
Si Si1 0.899631 0.498035 0.824126
Si Si2 0.694992 0.456335 0.058724
Si Si3 0.537233 0.835632 0.928349
Si Si4 0.424636 0.544217 0.578991
Si Si5 0.823408 0.140987 0.465040
Si Si6 0.299735 0.900934 0.862125
Si Si7 0.411332 0.737920 0.568244
O O1 0.792041 0.538429 0.737605
O O2 0.828239 0.449070 0.802703
O O3 0.000000 0.498977 0.750000
O O4 0.000000 0.500000 0.000000
O O5 0.538118 0.453781 0.018773
O O6 0.697012 0.508288 0.000065
O O7 0.737074 0.417680 0.972979
O O8 0.500000 0.834901 0.750000
O O9 0.692330 0.849640 0.992751
O O10 0.437305 0.871571 0.948112
O O11 0.528500 0.783147 0.974821
O O12 0.500000 0.528113 0.750000
O O13 0.384139 0.596641 0.565699
O O14 0.785880 0.127485 0.291531
O O15 0.911083 0.187245 0.506141
O O16 0.500000 0.734796 0.750000
O O17 0.250000 0.750000 0.500000
#
# Coordination Sequence:
#
# PCOD9264384 Si02
#       7
#     8   8   8   8   8   8   8
#     4  12  23  39  61  87 120 164 214 262 315 380
#     4  11  25  40  56  87 123 164 206 260 317 385
#     4   8  17  32  57  89 122 159 209 269 318 370
#     4  11  24  38  57  81 120 161 207 257 307 381
#     4  10  19  35  58  87 123 167 212 256 312 384
#     4  11  21  36  58  88 127 167 214 261 330 383
#     4   9  17  33  59  94 128 164 219 281 334 380
#
# _framework density 19.551915999999999
#
# number of rings (size 3 to 8) (size 9 to 14) (size 15 to 20)
#    0.000    1.714    2.857    3.429    2.000    0.000 
#    0.000    0.000    0.000    0.857    0.000    8.000 
#    0.000    0.000    0.000    0.000    0.000    0.000 
#
# Total GULP energy -155871.542060 kJ/mol
# GULP energy per Si atom -5566.840788 kJ/mol
# Density = 1.950742 g / cm^3
# Si number density = 19.551916 Si / 1000 Ang^3
#
#
#
# Elastic Constant Matrix: (Units=GPa)
#
#
# Indices 1 2 3 4 5 6 
#
# 1 64.6599 34.5228 19.7492 0.0000 -1.2486 0.0000
# 2 34.5228 118.0864 33.3580 0.0000 -0.8230 0.0000
# 3 19.7492 33.3580 91.9488 0.0000 8.2612 0.0000
# 4 0.0000 0.0000 0.0000 25.6376 0.0000 15.8193
# 5 -1.2486 -0.8230 8.2612 0.0000 22.2016 0.0000
# 6 0.0000 0.0000 0.0000 15.8193 0.0000 19.8693
#
#
#
# Elastic Compliance Matrix: (Units=1/GPa)
#
#
# Indices 1 2 3 4 5 6 
#
# 1 0.018811 -0.004791 -0.002464 0.000000 0.001797 0.000000
# 2 -0.004791 0.010716 -0.002970 0.000000 0.001233 0.000000
# 3 -0.002464 -0.002970 0.012937 0.000000 -0.005062 0.000000
# 4 0.000000 0.000000 0.000000 0.076670 0.000000 -0.061042
# 5 0.001797 0.001233 -0.005062 0.000000 0.047072 0.000000
# 6 0.000000 0.000000 0.000000 -0.061042 0.000000 0.098928
#
#
# Mechanical properties :
#
#
# Convention : Reuss Voigt Hill
#
# Bulk Modulus (GPa) = 45.42169 49.99502 47.70836
# Shear Modulus (GPa) = 17.06941 26.01271 21.54106
#
# Velocity S-wave (km/s) = 2.95791 3.65148 3.32284
# Velocity P-wave (km/s) = 5.91164 6.58815 6.25904
#
# Compressibility (1/GPa) = 0.02201591
#
# Stress axis : x y z
#
# Youngs Moduli (GPa) = 53.16154 93.31446 77.29813
#
# Poissons Ratio (x) = 0.44706 0.19043
# Poissons Ratio (y) = 0.25469 0.22954
# Poissons Ratio (z) = 0.13097 0.27710
#
# Static dielectric constant tensor:
#      x y z
#    x 1.737410 0.000000 0.048670 
#    y 0.000000 1.733890 0.000000 
#    z 0.048670 0.000000 1.778880 
# 
# From -- ./inp_files/35783.got.cif
#   From: 2010.05.17/outbox.cif.g08.bks.cpg/sg15_18_cif.got.tgz:35783.got - 2010.06.03 18:47:42.
