data_PCOD9264000
_publ_section_title
;
Structure prediction by ZEFSAII (Michael W. Deem and Ramdas Pophale) SiO2 
 PCOD9264000
Probable space group: C 2/C
;
_chemical_formula_sum "Si O2"
_cell_formula_units_Z 44
_cell_length_a 13.684705
_cell_length_b 16.245717
_cell_length_c 12.258430
_cell_angle_alpha 90.000000
_cell_angle_beta 58.539787
_cell_angle_gamma 90.000000
_cell_volume 2324.660980
_symmetry_space_group_name_H-M "C 2/C"
_symmetry_group_IT_number 15
_symmetry_cell_setting 'monoclinic'
loop_
_space_group_symop_operation_xyz
x,y,z
-x,y,1/2-z
-x,-y,-z
x,-y,1/2+z
1/2+x,1/2+y,z
1/2-x,1/2+y,1/2-z
1/2-x,1/2-y,-z
1/2+x,1/2-y,1/2+z
loop_
_atom_site_type_symbol
_atom_site_label
_atom_site_fract_x
_atom_site_fract_y
_atom_site_fract_z
Si Si1 0.500000 0.985921 0.250000
Si Si2 0.900798 0.794203 0.381316
Si Si3 0.466084 0.129164 0.113145
Si Si4 0.126157 0.815633 0.673368
Si Si5 0.140565 0.362018 0.057578
Si Si6 0.266592 0.692228 0.157086
O O1 0.606714 0.924149 0.173313
O O2 0.511851 0.046213 0.139736
O O3 0.795510 0.770432 0.363292
O O4 0.849487 0.841395 0.514484
O O5 0.000000 0.833377 0.250000
O O6 0.958451 0.709068 0.395860
O O7 0.342015 0.138887 0.243343
O O8 0.442150 0.125799 0.998851
O O9 0.120877 0.731038 0.608753
O O10 0.228717 0.868065 0.560130
O O11 0.164373 0.792103 0.773381
O O12 0.000000 0.853872 0.750000
#
# Coordination Sequence:
#
# PCOD9264000 Si02
#       6
#     4   8   8   8   8   8
#     4  12  20  36  54  82 112 142 178 224 276 336
#     4   9  16  29  49  79 106 140 175 220 271 310
#     4  10  19  35  52  81 113 141 174 227 275 321
#     4  10  19  36  54  79 108 140 185 227 267 311
#     4  10  22  33  55  83 107 144 182 223 273 321
#     4   9  17  30  53  74 108 142 177 223 270 307
#
# _framework density 18.927489999999999
#
# number of rings (size 3 to 8) (size 9 to 14) (size 15 to 20)
#    0.000    2.182    3.636    1.636    0.000    1.455 
#    0.000    0.000    0.000    5.455    0.000    0.000 
#    0.000    0.000    0.000    0.000    0.000    0.000 
#
# Total GULP energy -122502.921993 kJ/mol
# GULP energy per Si atom -5568.314636 kJ/mol
# Density = 1.888441 g / cm^3
# Si number density = 18.927490 Si / 1000 Ang^3
#
#
#
# Elastic Constant Matrix: (Units=GPa)
#
#
# Indices 1 2 3 4 5 6 
#
# 1 87.8091 1.2065 20.5930 0.0000 -3.1726 0.0000
# 2 1.2065 26.7905 -6.4996 0.0000 1.6127 0.0000
# 3 20.5930 -6.4996 93.8650 0.0000 -12.0899 0.0000
# 4 0.0000 0.0000 0.0000 18.4526 0.0000 3.1933
# 5 -3.1726 1.6127 -12.0899 0.0000 35.1145 0.0000
# 6 0.0000 0.0000 0.0000 3.1933 0.0000 3.4661
#
#
#
# Elastic Compliance Matrix: (Units=1/GPa)
#
#
# Indices 1 2 3 4 5 6 
#
# 1 0.012046 -0.001210 -0.002699 0.000000 0.000215 0.000000
# 2 -0.001210 0.038112 0.002789 0.000000 -0.000900 0.000000
# 3 -0.002699 0.002789 0.011919 0.000000 0.003732 0.000000
# 4 0.000000 0.000000 0.000000 0.064472 0.000000 -0.059397
# 5 0.000215 -0.000900 0.003732 0.000000 0.029824 0.000000
# 6 0.000000 0.000000 0.000000 -0.059397 0.000000 0.343231
#
#
# Mechanical properties :
#
#
# Convention : Reuss Voigt Hill
#
# Bulk Modulus (GPa) = 16.71223 26.56270 21.63747
# Shear Modulus (GPa) = 9.58240 24.28429 16.93335
#
# Velocity S-wave (km/s) = 2.25248 3.58581 2.99430
# Velocity P-wave (km/s) = 3.95142 5.58645 4.83850
#
# Compressibility (1/GPa) = 0.05983640
#
# Stress axis : x y z
#
# Youngs Moduli (GPa) = 83.01747 26.23852 83.89628
#
# Poissons Ratio (x) = 0.03175 0.22642
# Poissons Ratio (y) = 0.10046 -0.23396
# Poissons Ratio (z) = 0.22405 -0.07317
#
# Static dielectric constant tensor:
#      x y z
#    x 1.691680 0.000000 -0.012050 
#    y 0.000000 1.653100 0.000000 
#    z -0.012050 0.000000 1.723530 
# 
# From -- ./inp_files/96586.got.cif
#   From: 2010.05.17/outbox.cif.g08.bks.cpg/sg15_49_cif.got.tgz:96586.got - 2010.06.03 18:47:42.
