data_PCOD9264421
_publ_section_title
;
Structure prediction by ZEFSAII (Michael W. Deem and Ramdas Pophale) SiO2 
 PCOD9264421
Probable space group: C 2/C
;
_chemical_formula_sum "Si O2"
_cell_formula_units_Z 40
_cell_length_a 6.889071
_cell_length_b 12.301636
_cell_length_c 19.974712
_cell_angle_alpha 90.000000
_cell_angle_beta 76.851202
_cell_angle_gamma 90.000000
_cell_volume 1648.413109
_symmetry_space_group_name_H-M "C 2/C"
_symmetry_group_IT_number 15
_symmetry_cell_setting 'monoclinic'
loop_
_space_group_symop_operation_xyz
x,y,z
-x,y,1/2-z
-x,-y,-z
x,-y,1/2+z
1/2+x,1/2+y,z
1/2-x,1/2+y,1/2-z
1/2-x,1/2-y,-z
1/2+x,1/2-y,1/2+z
loop_
_atom_site_type_symbol
_atom_site_label
_atom_site_fract_x
_atom_site_fract_y
_atom_site_fract_z
Si Si1 0.751749 0.678385 0.117441
Si Si2 0.969041 0.626086 0.637916
Si Si3 0.821235 0.602947 0.395001
Si Si4 0.728746 0.032174 0.963956
Si Si5 0.737751 0.217573 0.232706
O O1 0.644297 0.789579 0.105601
O O2 0.706906 0.666232 0.200487
O O3 0.993580 0.680107 0.096928
O O4 0.689063 0.575830 0.077574
O O5 0.805162 0.619553 0.591576
O O6 0.848600 0.669113 0.711171
O O7 0.068436 0.508397 0.637074
O O8 0.694867 0.576314 0.471454
O O9 0.714726 0.649467 0.337998
O O10 0.500000 0.000000 0.000000
O O11 0.500000 0.231417 0.250000
#
# Coordination Sequence:
#
# PCOD9264421 Si02
#       5
#     8   8   8   8   8
#     4   9  18  33  56  83 107 140 187 223 263 327
#     4  10  19  35  59  78 105 146 181 223 278 320
#     4   9  21  39  56  80 115 146 179 227 274 323
#     4   8  18  35  56  82 111 143 182 225 271 323
#     4  10  21  36  53  81 114 143 183 229 273 326
#
# _framework density 24.265761000000001
#
# number of rings (size 3 to 8) (size 9 to 14) (size 15 to 20)
#    0.000    3.200    0.000    0.600    0.000   16.000 
#    0.000   21.000    0.000    0.000    0.000    5.600 
#    0.000    0.000    0.000    0.000    0.000    0.000 
#
# Total GULP energy -111653.263927 kJ/mol
# GULP energy per Si atom -5582.663196 kJ/mol
# Density = 2.421053 g / cm^3
# Si number density = 24.265761 Si / 1000 Ang^3
#
#
#
# Elastic Constant Matrix: (Units=GPa)
#
#
# Indices 1 2 3 4 5 6 
#
# 1 72.2084 29.3884 2.3979 0.0000 5.3841 0.0000
# 2 29.3884 75.7379 -7.7009 0.0000 2.2551 0.0000
# 3 2.3979 -7.7009 78.5783 0.0000 9.9723 0.0000
# 4 0.0000 0.0000 0.0000 13.9920 0.0000 -31.9869
# 5 5.3841 2.2551 9.9723 0.0000 40.2247 0.0000
# 6 0.0000 0.0000 0.0000 -31.9869 0.0000 -3.3854
#
#
#
# Elastic Compliance Matrix: (Units=1/GPa)
#
#
# Indices 1 2 3 4 5 6 
#
# 1 0.016650 -0.006508 -0.000939 0.000000 -0.001631 0.000000
# 2 -0.006508 0.015928 0.001820 0.000000 -0.000473 0.000000
# 3 -0.000939 0.001820 0.013350 0.000000 -0.003286 0.000000
# 4 0.000000 0.000000 0.000000 0.003162 0.000000 -0.029880
# 5 -0.001631 -0.000473 -0.003286 0.000000 0.025920 0.000000
# 6 0.000000 0.000000 0.000000 -0.029880 0.000000 -0.013070
#
#
# Mechanical properties :
#
#
# Convention : Reuss Voigt Hill
#
# Bulk Modulus (GPa) = 28.83992 30.52171 29.68082
# Shear Modulus (GPa) = 58.99573 23.66222 41.32897
#
# Velocity S-wave (km/s) = 4.93610 3.12609 4.13144
# Velocity P-wave (km/s) = 6.66316 5.06313 5.91747
#
# Compressibility (1/GPa) = 0.03467415
#
# Stress axis : x y z
#
# Youngs Moduli (GPa) = 60.05942 62.78379 74.90546
#
# Poissons Ratio (x) = 0.40857 0.07033
# Poissons Ratio (y) = 0.39084 -0.13630
# Poissons Ratio (z) = 0.05639 -0.11424
#
# Static dielectric constant tensor:
#      x y z
#    x 2.036440 0.000000 0.066600 
#    y 0.000000 1.929570 0.000000 
#    z 0.066600 0.000000 2.032100 
# 
# From -- ./inp_files/229925.got.cif
#   From: 2010.05.17/outbox.cif.g08.bks.cpg/sg15_115_cif.got.tgz:229925.got - 2010.06.03 18:47:42.
