data_PCOD9264208
_publ_section_title
;
Structure prediction by ZEFSAII (Michael W. Deem and Ramdas Pophale) SiO2 
 PCOD9264208
Probable space group: C 2/C
;
_chemical_formula_sum "Si O2"
_cell_formula_units_Z 56
_cell_length_a 9.817207
_cell_length_b 31.382875
_cell_length_c 19.803738
_cell_angle_alpha 90.000000
_cell_angle_beta 31.951393
_cell_angle_gamma 90.000000
_cell_volume 3228.846354
_symmetry_space_group_name_H-M "C 2/C"
_symmetry_group_IT_number 15
_symmetry_cell_setting 'monoclinic'
loop_
_space_group_symop_operation_xyz
x,y,z
-x,y,1/2-z
-x,-y,-z
x,-y,1/2+z
1/2+x,1/2+y,z
1/2-x,1/2+y,1/2-z
1/2-x,1/2-y,-z
1/2+x,1/2-y,1/2+z
loop_
_atom_site_type_symbol
_atom_site_label
_atom_site_fract_x
_atom_site_fract_y
_atom_site_fract_z
Si Si1 0.808255 0.463391 0.924775
Si Si2 0.473207 0.869915 0.841413
Si Si3 0.954366 0.740741 0.694868
Si Si4 0.596173 0.810949 0.010794
Si Si5 0.527319 0.611055 0.158717
Si Si6 0.927587 0.290027 0.935506
Si Si7 0.119393 0.975798 0.849411
O O1 0.845106 0.413198 0.922129
O O2 0.705252 0.467664 0.890988
O O3 0.101607 0.482112 0.804280
O O4 0.593213 0.486897 0.060007
O O5 0.500000 0.873111 0.750000
O O6 0.761221 0.866731 0.749126
O O7 0.338840 0.827463 0.923094
O O8 0.705455 0.770689 0.800174
O O9 0.000000 0.721348 0.750000
O O10 0.185494 0.774426 0.587867
O O11 0.947891 0.704762 0.639931
O O12 0.438219 0.807584 0.007558
O O13 0.738172 0.856721 0.954949
O O14 0.500000 0.603343 0.250000
O O15 0.516657 0.566315 0.123564
O O16 0.750000 0.250000 0.000000
#
# Coordination Sequence:
#
# PCOD9264208 Si02
#       7
#     8   8   8   8   8   8   8
#     4   9  17  35  56  85 112 143 189 238 288 340
#     4  11  20  34  56  84 110 144 198 237 273 346
#     4   9  19  35  52  76 103 144 188 235 281 328
#     4  10  19  35  57  75 110 146 187 243 276 330
#     4  11  18  35  59  84 109 148 195 232 281 347
#     4  11  23  34  53  83 112 152 193 235 289 333
#     4   9  18  33  58  84 112 145 187 236 291 343
#
# _framework density 17.343655999999999
#
# number of rings (size 3 to 8) (size 9 to 14) (size 15 to 20)
#    0.000    2.000    5.714    0.429    2.000    1.143 
#    0.000    4.286    3.143    0.000    0.000    0.000 
#    0.000    0.000    0.000    0.000    0.000    0.000 
#
# Total GULP energy -155908.260404 kJ/mol
# GULP energy per Si atom -5568.152157 kJ/mol
# Density = 1.730418 g / cm^3
# Si number density = 17.343656 Si / 1000 Ang^3
#
#
#
# Elastic Constant Matrix: (Units=GPa)
#
#
# Indices 1 2 3 4 5 6 
#
# 1 55.3806 37.6597 26.1669 0.0000 -1.1548 0.0000
# 2 37.6597 130.2208 56.9082 0.0000 -1.5576 0.0000
# 3 26.1669 56.9082 61.1311 0.0000 7.1638 0.0000
# 4 0.0000 0.0000 0.0000 -14.7442 0.0000 -29.1345
# 5 -1.1548 -1.5576 7.1638 0.0000 18.4263 0.0000
# 6 0.0000 0.0000 0.0000 -29.1345 0.0000 16.8882
#
#
#
# Elastic Compliance Matrix: (Units=1/GPa)
#
#
# Indices 1 2 3 4 5 6 
#
# 1 0.024143 -0.003726 -0.007341 0.000000 0.004052 0.000000
# 2 -0.003726 0.014200 -0.012298 0.000000 0.005748 0.000000
# 3 -0.007341 -0.012298 0.032610 0.000000 -0.014178 0.000000
# 4 0.000000 0.000000 0.000000 -0.015383 0.000000 -0.026538
# 5 0.004052 0.005748 -0.014178 0.000000 0.060522 0.000000
# 6 0.000000 0.000000 0.000000 -0.026538 0.000000 0.013430
#
#
# Mechanical properties :
#
#
# Convention : Reuss Voigt Hill
#
# Bulk Modulus (GPa) = 41.28034 54.24469 47.76252
# Shear Modulus (GPa) = 27.12586 12.51390 19.81988
#
# Velocity S-wave (km/s) = 3.95906 2.68904 3.38416
# Velocity P-wave (km/s) = 6.68969 6.40199 6.54742
#
# Compressibility (1/GPa) = 0.02422461
#
# Stress axis : x y z
#
# Youngs Moduli (GPa) = 41.41904 70.42413 30.66530
#
# Poissons Ratio (x) = 0.26237 0.22512
# Poissons Ratio (y) = 0.15431 0.37711
# Poissons Ratio (z) = 0.30406 0.86605
#
# Static dielectric constant tensor:
#      x y z
#    x 1.609860 0.000000 -0.046820 
#    y 0.000000 1.591270 0.000000 
#    z -0.046820 0.000000 1.644980 
# 
# From -- ./inp_files/139305.got.cif
#   From: 2010.05.17/outbox.cif.g08.bks.cpg/sg15_70_cif.got.tgz:139305.got - 2010.06.03 18:47:42.
