data_PCOD9264279
_publ_section_title
;
Structure prediction by ZEFSAII (Michael W. Deem and Ramdas Pophale) SiO2 
 PCOD9264279
Probable space group: C 2/C
;
_chemical_formula_sum "Si O2"
_cell_formula_units_Z 64
_cell_length_a 31.424946
_cell_length_b 9.051649
_cell_length_c 11.372622
_cell_angle_alpha 90.000000
_cell_angle_beta 96.019545
_cell_angle_gamma 90.000000
_cell_volume 3217.078081
_symmetry_space_group_name_H-M "C 2/C"
_symmetry_group_IT_number 15
_symmetry_cell_setting 'monoclinic'
loop_
_space_group_symop_operation_xyz
x,y,z
-x,y,1/2-z
-x,-y,-z
x,-y,1/2+z
1/2+x,1/2+y,z
1/2-x,1/2+y,1/2-z
1/2-x,1/2-y,-z
1/2+x,1/2-y,1/2+z
loop_
_atom_site_type_symbol
_atom_site_label
_atom_site_fract_x
_atom_site_fract_y
_atom_site_fract_z
Si Si1 0.879855 0.192745 0.117024
Si Si2 0.205449 0.321450 0.529175
Si Si3 0.020612 0.172598 0.880881
Si Si4 0.184710 0.131619 0.732557
Si Si5 0.163200 0.812690 0.651335
Si Si6 0.022094 0.811722 0.881853
Si Si7 0.764163 0.368349 0.408221
Si Si8 0.118462 0.840161 0.403107
O O1 0.838605 0.267861 0.044512
O O2 0.870198 0.205601 0.253128
O O3 0.928353 0.241147 0.103270
O O4 0.880168 0.018752 0.084992
O O5 0.250000 0.250000 0.500000
O O6 0.201346 0.266014 0.661353
O O7 0.211721 0.495802 0.526023
O O8 0.070290 0.213850 0.891465
O O9 0.000000 0.219175 0.750000
O O10 0.020029 0.992097 0.880682
O O11 0.999659 0.226455 0.998078
O O12 0.220562 0.079940 0.834887
O O13 0.142913 0.184995 0.788983
O O14 0.175512 0.985650 0.654499
O O15 0.204927 0.711597 0.676346
O O16 0.000000 0.766622 0.750000
O O17 0.750000 0.250000 0.500000
O O18 0.856390 0.225509 0.479925
#
# Coordination Sequence:
#
# PCOD9264279 Si02
#       8
#     8   8   8   8   8   8   8   8
#     4  10  21  34  59  85 120 159 199 248 295 369
#     4  12  24  40  59  87 119 158 201 247 305 355
#     4   9  18  28  51  83 123 156 191 246 306 364
#     4  11  22  38  61  82 119 157 197 246 300 355
#     4  11  21  39  57  84 116 157 200 242 300 351
#     4   9  17  31  50  84 121 159 196 244 308 363
#     4  12  24  40  60  85 119 155 200 251 294 358
#     4  10  19  35  57  86 119 160 195 244 301 361
#
# _framework density 19.893829
#
# number of rings (size 3 to 8) (size 9 to 14) (size 15 to 20)
#    0.000    1.500    2.500    4.500    1.750    4.000 
#    0.000    0.000    0.000    0.000    0.000    4.375 
#    0.000    0.000    0.000    0.000    0.000    0.000 
#
# Total GULP energy -178518.781574 kJ/mol
# GULP energy per Si atom -5578.711924 kJ/mol
# Density = 1.984855 g / cm^3
# Si number density = 19.893829 Si / 1000 Ang^3
#
#
#
# Elastic Constant Matrix: (Units=GPa)
#
#
# Indices 1 2 3 4 5 6 
#
# 1 160.8244 35.3352 52.4846 0.0000 -12.2334 0.0000
# 2 35.3352 46.3088 29.3095 0.0000 -10.8527 0.0000
# 3 52.4846 29.3095 69.7934 0.0000 5.4666 0.0000
# 4 0.0000 0.0000 0.0000 14.7032 0.0000 0.8504
# 5 -12.2334 -10.8527 5.4666 0.0000 29.3249 0.0000
# 6 0.0000 0.0000 0.0000 0.8504 0.0000 16.9521
#
#
#
# Elastic Compliance Matrix: (Units=1/GPa)
#
#
# Indices 1 2 3 4 5 6 
#
# 1 0.009018 -0.001885 -0.006322 0.000000 0.004243 0.000000
# 2 -0.001885 0.036086 -0.014939 0.000000 0.015353 0.000000
# 3 -0.006322 -0.014939 0.026381 0.000000 -0.013084 0.000000
# 4 0.000000 0.000000 0.000000 0.068210 0.000000 -0.003422
# 5 0.004243 0.015353 -0.013084 0.000000 0.043992 0.000000
# 6 0.000000 0.000000 0.000000 -0.003422 0.000000 0.059162
#
#
# Mechanical properties :
#
#
# Convention : Reuss Voigt Hill
#
# Bulk Modulus (GPa) = 39.69554 56.79834 48.24694
# Shear Modulus (GPa) = 16.80455 22.84920 19.82688
#
# Velocity S-wave (km/s) = 2.90955 3.39271 3.16038
# Velocity P-wave (km/s) = 5.59324 6.63024 6.13369
#
# Compressibility (1/GPa) = 0.02519175
#
# Stress axis : x y z
#
# Youngs Moduli (GPa) = 110.88683 27.71165 37.90661
#
# Poissons Ratio (x) = 0.05225 0.23965
# Poissons Ratio (y) = 0.20907 0.56628
# Poissons Ratio (z) = 0.70105 0.41398
#
# Static dielectric constant tensor:
#      x y z
#    x 1.716790 0.000000 0.002280 
#    y 0.000000 1.688090 0.000000 
#    z 0.002280 0.000000 1.751260 
# 
# From -- ./inp_files/122447.got.cif
#   From: 2010.05.17/outbox.cif.g08.bks.cpg/sg15_62_cif.got.tgz:122447.got - 2010.06.03 18:47:42.
