data_PCOD9264723
_publ_section_title
;
Structure prediction by ZEFSAII (Michael W. Deem and Ramdas Pophale) SiO2 
 PCOD9264723
Probable space group: C 2/C
;
_chemical_formula_sum "Si O2"
_cell_formula_units_Z 56
_cell_length_a 20.422363
_cell_length_b 15.612529
_cell_length_c 17.897025
_cell_angle_alpha 90.000000
_cell_angle_beta 28.311384
_cell_angle_gamma 90.000000
_cell_volume 2706.321992
_symmetry_space_group_name_H-M "C 2/C"
_symmetry_group_IT_number 15
_symmetry_cell_setting 'monoclinic'
loop_
_space_group_symop_operation_xyz
x,y,z
-x,y,1/2-z
-x,-y,-z
x,-y,1/2+z
1/2+x,1/2+y,z
1/2-x,1/2+y,1/2-z
1/2-x,1/2-y,-z
1/2+x,1/2-y,1/2+z
loop_
_atom_site_type_symbol
_atom_site_label
_atom_site_fract_x
_atom_site_fract_y
_atom_site_fract_z
Si Si1 0.169032 0.644450 0.667498
Si Si2 0.084481 0.527402 0.290851
Si Si3 0.614091 0.262651 0.037741
Si Si4 0.122487 0.282769 0.989241
Si Si5 0.128793 0.300514 0.813885
Si Si6 0.702403 0.946231 0.973690
Si Si7 0.758116 0.109543 0.981383
O O1 0.165957 0.560762 0.724125
O O2 0.297621 0.705631 0.552084
O O3 0.174844 0.604298 0.578935
O O4 0.025724 0.694524 0.825902
O O5 0.154728 0.573133 0.148896
O O6 0.087669 0.599103 0.351044
O O7 0.933812 0.495637 0.418214
O O8 0.632706 0.336021 0.080844
O O9 0.714168 0.287719 0.868878
O O10 0.463885 0.245829 0.155957
O O11 0.674527 0.176206 0.014097
O O12 0.219861 0.367809 0.899259
O O13 0.102336 0.265325 0.922281
O O14 0.805007 0.024835 0.888907
#
# Coordination Sequence:
#
# PCOD9264723 Si02
#       7
#     8   8   8   8   8   8   8
#     4  10  21  37  62  84 109 151 195 243 285 325
#     4   9  18  34  61  85 111 145 195 241 281 335
#     4  10  21  33  61  83 118 151 185 239 284 345
#     4  11  22  37  58  84 119 151 191 236 284 344
#     4  11  22  37  55  88 119 152 187 228 291 351
#     4  10  19  35  62  89 108 147 205 244 275 325
#     4   9  17  32  57  85 113 141 188 243 285 315
#
# _framework density 20.692291999999998
#
# number of rings (size 3 to 8) (size 9 to 14) (size 15 to 20)
#    0.000    2.000    1.429    5.143    2.000    4.000 
#    2.571    0.000   15.714    8.571    0.000    0.000 
#    0.000    0.000    0.000    0.000    0.000    0.000 
#
# Total GULP energy -156250.471400 kJ/mol
# GULP energy per Si atom -5580.373979 kJ/mol
# Density = 2.064520 g / cm^3
# Si number density = 20.692292 Si / 1000 Ang^3
#
#
#
# Elastic Constant Matrix: (Units=GPa)
#
#
# Indices 1 2 3 4 5 6 
#
# 1 50.5707 24.0438 7.6655 0.0003 2.0086 -0.0001
# 2 24.0438 110.1557 14.6126 0.0001 -13.2936 0.0000
# 3 7.6655 14.6126 41.6446 0.0004 -5.4687 -0.0003
# 4 0.0003 0.0001 0.0004 26.7281 -0.0002 -6.5054
# 5 2.0086 -13.2936 -5.4687 -0.0002 16.0891 0.0002
# 6 -0.0001 0.0000 -0.0003 -6.5054 0.0002 25.1674
#
#
#
# Elastic Compliance Matrix: (Units=1/GPa)
#
#
# Indices 1 2 3 4 5 6 
#
# 1 0.023359 -0.005703 -0.003455 0.000000 -0.008802 0.000000
# 2 -0.005703 0.011743 -0.001783 0.000000 0.009809 0.000000
# 3 -0.003455 -0.001783 0.026312 0.000000 0.007902 0.000000
# 4 0.000000 0.000000 0.000000 0.039926 0.000000 0.010320
# 5 -0.008802 0.009809 0.007902 0.000000 0.074043 0.000000
# 6 0.000000 0.000000 0.000000 0.010320 0.000000 0.042402
#
#
# Mechanical properties :
#
#
# Convention : Reuss Voigt Hill
#
# Bulk Modulus (GPa) = 25.29479 32.77942 29.03710
# Shear Modulus (GPa) = 19.77527 24.00020 21.88774
#
# Velocity S-wave (km/s) = 3.09477 3.40937 3.25587
# Velocity P-wave (km/s) = 5.00209 5.60126 5.31013
#
# Compressibility (1/GPa) = 0.03953384
#
# Stress axis : x y z
#
# Youngs Moduli (GPa) = 42.81043 85.15746 38.00581
#
# Poissons Ratio (x) = 0.48561 0.13129
# Poissons Ratio (y) = 0.24413 0.06775
# Poissons Ratio (z) = 0.14789 0.15181
#
# Static dielectric constant tensor:
#      x y z
#    x 1.759360 0.000000 0.022710 
#    y 0.000000 1.801730 0.000000 
#    z 0.022710 0.000000 1.742720 
# 
# From -- ./inp_files/215699.got.cif
#   From: 2010.05.17/outbox.cif.g08.bks.cpg/sg15_108_cif.got.tgz:215699.got - 2010.06.03 18:47:42.
