data_PCOD9264488
_publ_section_title
;
Structure prediction by ZEFSAII (Michael W. Deem and Ramdas Pophale) SiO2 
 PCOD9264488
Probable space group: C 2/C
;
_chemical_formula_sum "Si O2"
_cell_formula_units_Z 32
_cell_length_a 13.865745
_cell_length_b 23.521299
_cell_length_c 9.197767
_cell_angle_alpha 90.000000
_cell_angle_beta 146.518000
_cell_angle_gamma 90.000000
_cell_volume 1654.894099
_symmetry_space_group_name_H-M "C 2/C"
_symmetry_group_IT_number 15
_symmetry_cell_setting 'monoclinic'
loop_
_space_group_symop_operation_xyz
x,y,z
-x,y,1/2-z
-x,-y,-z
x,-y,1/2+z
1/2+x,1/2+y,z
1/2-x,1/2+y,1/2-z
1/2-x,1/2-y,-z
1/2+x,1/2-y,1/2+z
loop_
_atom_site_type_symbol
_atom_site_label
_atom_site_fract_x
_atom_site_fract_y
_atom_site_fract_z
Si Si1 0.693184 0.323164 0.768509
Si Si2 0.310902 0.938669 0.582864
Si Si3 0.816898 0.446828 0.935760
Si Si4 0.000000 0.743703 0.750000
Si Si5 0.000000 0.852502 0.250000
O O1 0.703511 0.390179 0.815627
O O2 0.609713 0.286284 0.789501
O O3 0.584493 0.316841 0.485264
O O4 0.887732 0.297615 0.005181
O O5 0.500000 0.922850 0.750000
O O6 0.340367 0.951943 0.791177
O O7 0.158455 0.891709 0.388048
O O8 0.247008 0.994826 0.416851
O O9 0.000000 0.438096 0.250000
#
# Coordination Sequence:
#
# PCOD9264488 Si02
#       5
#     8   8   8   4   4
#     4  10  22  40  61  86 117 152 200 248 295 348
#     4  10  21  36  58  89 126 156 191 232 293 359
#     4  10  19  35  59  86 122 156 191 237 293 350
#     4  10  22  41  62  84 112 155 204 250 294 344
#     4  10  24  41  58  94 122 151 198 242 294 362
#
# _framework density 19.336583999999998
#
# number of rings (size 3 to 8) (size 9 to 14) (size 15 to 20)
#    0.000    2.000    1.250    3.000    0.000   10.000 
#    4.500    0.000    0.000    0.000    0.000    0.000 
#    0.000    0.000    0.000    0.000    0.000    0.000 
#
# Total GULP energy -89204.823058 kJ/mol
# GULP energy per Si atom -5575.301441 kJ/mol
# Density = 1.929257 g / cm^3
# Si number density = 19.336584 Si / 1000 Ang^3
#
#
#
# Elastic Constant Matrix: (Units=GPa)
#
#
# Indices 1 2 3 4 5 6 
#
# 1 82.7807 49.4923 40.5712 0.0000 -11.6960 0.0000
# 2 49.4923 53.7331 12.7133 0.0000 0.3899 0.0000
# 3 40.5712 12.7133 92.6862 0.0000 -27.1484 0.0000
# 4 0.0000 0.0000 0.0000 39.2771 0.0000 78.7727
# 5 -11.6960 0.3899 -27.1484 0.0000 32.4193 0.0000
# 6 0.0000 0.0000 0.0000 78.7727 0.0000 268.3202
#
#
#
# Elastic Compliance Matrix: (Units=1/GPa)
#
#
# Indices 1 2 3 4 5 6 
#
# 1 0.036419 -0.031164 -0.010214 0.000000 0.004960 0.000000
# 2 -0.031164 0.046162 0.005106 0.000000 -0.007522 0.000000
# 3 -0.010214 0.005106 0.017838 0.000000 0.011191 0.000000
# 4 0.000000 0.000000 0.000000 0.061915 0.000000 -0.018177
# 5 0.004960 -0.007522 0.011191 0.000000 0.042098 0.000000
# 6 0.000000 0.000000 0.000000 -0.018177 0.000000 0.009063
#
#
# Mechanical properties :
#
#
# Convention : Reuss Voigt Hill
#
# Bulk Modulus (GPa) = 35.87511 48.30596 42.09054
# Shear Modulus (GPa) = 16.93026 76.43152 46.68089
#
# Velocity S-wave (km/s) = 2.96219 6.29386 4.91870
# Velocity P-wave (km/s) = 5.50388 8.82342 7.35342
#
# Compressibility (1/GPa) = 0.02787448
#
# Stress axis : x y z
#
# Youngs Moduli (GPa) = 27.45812 21.66306 56.06132
#
# Poissons Ratio (x) = 0.67511 0.57261
# Poissons Ratio (y) = 0.85571 -0.28627
# Poissons Ratio (z) = 0.28046 -0.11062
#
# Static dielectric constant tensor:
#      x y z
#    x 1.685720 0.000000 0.056440 
#    y 0.000000 1.661420 0.000000 
#    z 0.056440 0.000000 1.728910 
# 
# From -- ./inp_files/24751.got.cif
#   From: 2010.05.17/outbox.cif.g08.bks.cpg/sg15_13_cif.got.tgz:24751.got - 2010.06.03 18:47:42.
