data_PCOD9264632
_publ_section_title
;
Structure prediction by ZEFSAII (Michael W. Deem and Ramdas Pophale) SiO2 
 PCOD9264632
Probable space group: C 2/C
;
_chemical_formula_sum "Si O2"
_cell_formula_units_Z 36
_cell_length_a 17.248101
_cell_length_b 24.671532
_cell_length_c 5.204403
_cell_angle_alpha 90.000000
_cell_angle_beta 47.557928
_cell_angle_gamma 90.000000
_cell_volume 1634.335252
_symmetry_space_group_name_H-M "C 2/C"
_symmetry_group_IT_number 15
_symmetry_cell_setting 'monoclinic'
loop_
_space_group_symop_operation_xyz
x,y,z
-x,y,1/2-z
-x,-y,-z
x,-y,1/2+z
1/2+x,1/2+y,z
1/2-x,1/2+y,1/2-z
1/2-x,1/2-y,-z
1/2+x,1/2-y,1/2+z
loop_
_atom_site_type_symbol
_atom_site_label
_atom_site_fract_x
_atom_site_fract_y
_atom_site_fract_z
Si Si1 0.000000 0.038675 0.750000
Si Si2 0.323721 0.251456 0.585053
Si Si3 0.175080 0.129659 0.439996
Si Si4 0.182672 0.634257 0.877087
Si Si5 0.117151 0.478283 0.687691
O O1 0.098233 0.080008 0.556470
O O2 0.000000 0.000000 0.500000
O O3 0.250000 0.250000 0.500000
O O4 0.377628 0.310158 0.466716
O O5 0.375327 0.192043 0.467346
O O6 0.250000 0.250000 0.000000
O O7 0.224908 0.129614 0.614169
O O8 0.266610 0.129183 0.018480
O O9 0.113815 0.582749 0.101687
O O10 0.170877 0.512799 0.342086
O O11 0.000000 0.500000 0.000000
#
# Coordination Sequence:
#
# PCOD9264632 Si02
#       5
#     4   8   8   8   8
#     4  12  26  40  54  80 118 152 192 242 284 330
#     4   8  16  32  55  81 103 130 178 229 271 325
#     4  10  21  37  57  82 109 143 188 236 281 330
#     4  10  19  35  61  83 107 146 186 225 280 341
#     4  10  21  35  51  77 114 145 176 220 263 319
#
# _framework density 22.027304999999998
#
# number of rings (size 3 to 8) (size 9 to 14) (size 15 to 20)
#    0.000    2.222    0.000    2.667    0.000    5.333 
#    0.000    2.222    0.000   10.667    0.000    0.000 
#    0.000    0.000    0.000    0.000    0.000    0.000 
#
# Total GULP energy -100344.367146 kJ/mol
# GULP energy per Si atom -5574.687064 kJ/mol
# Density = 2.197717 g / cm^3
# Si number density = 22.027305 Si / 1000 Ang^3
#
#
#
# Elastic Constant Matrix: (Units=GPa)
#
#
# Indices 1 2 3 4 5 6 
#
# 1 70.6061 20.7152 35.4517 0.0000 20.7465 0.0000
# 2 20.7152 241.7559 40.7617 0.0000 -9.1805 0.0000
# 3 35.4517 40.7617 55.8459 0.0000 32.3759 0.0000
# 4 0.0000 0.0000 0.0000 -90.0918 0.0000 102.7497
# 5 20.7465 -9.1805 32.3759 0.0000 49.3755 0.0000
# 6 0.0000 0.0000 0.0000 102.7497 0.0000 -45.5498
#
#
#
# Elastic Compliance Matrix: (Units=1/GPa)
#
#
# Indices 1 2 3 4 5 6 
#
# 1 0.020850 0.000584 -0.013949 0.000000 0.000494 0.000000
# 2 0.000584 0.005672 -0.008033 0.000000 0.006077 0.000000
# 3 -0.013949 -0.008033 0.048547 0.000000 -0.027466 0.000000
# 4 0.000000 0.000000 0.000000 0.007058 0.000000 0.015921
# 5 0.000494 0.006077 -0.027466 0.000000 0.039185 0.000000
# 6 0.000000 0.000000 0.000000 0.015921 0.000000 0.013959
#
#
# Mechanical properties :
#
#
# Convention : Reuss Voigt Hill
#
# Bulk Modulus (GPa) = 30.98518 62.45168 46.71843
# Shear Modulus (GPa) = 26.47956 0.83207 13.65581
#
# Velocity S-wave (km/s) = 3.47093 0.61528 2.49258
# Velocity P-wave (km/s) = 5.49185 5.37757 5.43501
#
# Compressibility (1/GPa) = 0.03227349
#
# Stress axis : x y z
#
# Youngs Moduli (GPa) = 47.96095 176.31811 20.59839
#
# Poissons Ratio (x) = -0.10298 0.28732
# Poissons Ratio (y) = -0.02801 0.16547
# Poissons Ratio (z) = 0.66900 1.41640
#
# Static dielectric constant tensor:
#      x y z
#    x 1.424600 0.000000 0.101490 
#    y 0.000000 1.890300 0.000000 
#    z 0.101490 0.000000 1.768910 
# 
# From -- ./inp_files/6919.got.cif
#   From: 2010.05.17/outbox.cif.g08.bks.cpg/sg15_4_cif.got.tgz:6919.got - 2010.06.03 18:47:42.
