data_PCOD9264520
_publ_section_title
;
Structure prediction by ZEFSAII (Michael W. Deem and Ramdas Pophale) SiO2 
 PCOD9264520
Probable space group: C 2/C
;
_chemical_formula_sum "Si O2"
_cell_formula_units_Z 44
_cell_length_a 24.862140
_cell_length_b 12.447603
_cell_length_c 11.191752
_cell_angle_alpha 90.000000
_cell_angle_beta 143.783966
_cell_angle_gamma 90.000000
_cell_volume 2046.378353
_symmetry_space_group_name_H-M "C 2/C"
_symmetry_group_IT_number 15
_symmetry_cell_setting 'monoclinic'
loop_
_space_group_symop_operation_xyz
x,y,z
-x,y,1/2-z
-x,-y,-z
x,-y,1/2+z
1/2+x,1/2+y,z
1/2-x,1/2+y,1/2-z
1/2-x,1/2-y,-z
1/2+x,1/2-y,1/2+z
loop_
_atom_site_type_symbol
_atom_site_label
_atom_site_fract_x
_atom_site_fract_y
_atom_site_fract_z
Si Si1 0.102948 0.296240 0.969771
Si Si2 0.000000 0.089312 0.250000
Si Si3 0.199990 0.399884 0.924552
Si Si4 0.078211 0.411031 0.169250
Si Si5 0.564511 0.750998 0.538876
Si Si6 0.402536 0.397302 0.190497
O O1 0.175310 0.340970 0.003620
O O2 0.105172 0.168538 0.948225
O O3 0.000000 0.333057 0.750000
O O4 0.115774 0.348023 0.121255
O O5 0.072177 0.164185 0.448702
O O6 0.050720 0.010225 0.249124
O O7 0.158376 0.518061 0.864882
O O8 0.145725 0.330929 0.724821
O O9 0.303923 0.406017 0.073918
O O10 0.000000 0.500000 0.000000
O O11 0.023552 0.323645 0.146848
O O12 0.545191 0.682235 0.624914
#
# Coordination Sequence:
#
# PCOD9264520 Si02
#       6
#     8   4   8   8   8   8
#     4  11  17  35  62  82 111 161 195 230 287 347
#     4  12  24  38  62  86 122 160 188 242 300 342
#     4  10  23  37  62  91 117 146 203 249 281 346
#     4  10  19  35  59  91 116 148 195 243 288 344
#     4  10  21  39  59  87 115 156 197 239 285 351
#     4  11  22  41  59  87 117 160 200 233 287 359
#
# _framework density 21.501401000000001
#
# number of rings (size 3 to 8) (size 9 to 14) (size 15 to 20)
#    0.000    1.455    6.364    2.727    0.000    5.818 
#    0.000    0.909    0.000    0.000    0.000    0.000 
#    0.000    0.000    0.000    0.000    0.000    0.000 
#
# Total GULP energy -122716.215023 kJ/mol
# GULP energy per Si atom -5578.009774 kJ/mol
# Density = 2.145246 g / cm^3
# Si number density = 21.501401 Si / 1000 Ang^3
#
#
#
# Elastic Constant Matrix: (Units=GPa)
#
#
# Indices 1 2 3 4 5 6 
#
# 1 74.5906 17.2046 17.3176 0.0000 26.3051 0.0000
# 2 17.2046 103.0446 22.9089 0.0000 4.5150 0.0000
# 3 17.3176 22.9089 23.9645 0.0000 10.6428 0.0000
# 4 0.0000 0.0000 0.0000 22.0465 0.0000 0.5725
# 5 26.3051 4.5150 10.6428 0.0000 31.9370 0.0000
# 6 0.0000 0.0000 0.0000 0.5725 0.0000 30.8616
#
#
#
# Elastic Compliance Matrix: (Units=1/GPa)
#
#
# Indices 1 2 3 4 5 6 
#
# 1 0.020372 -0.001152 -0.007325 0.000000 -0.014176 0.000000
# 2 -0.001152 0.012570 -0.012695 0.000000 0.003402 0.000000
# 3 -0.007325 -0.012695 0.065353 0.000000 -0.013950 0.000000
# 4 0.000000 0.000000 0.000000 0.045381 0.000000 -0.000842
# 5 -0.014176 0.003402 -0.013950 0.000000 0.047155 0.000000
# 6 0.000000 0.000000 0.000000 -0.000842 0.000000 0.032418
#
#
# Mechanical properties :
#
#
# Convention : Reuss Voigt Hill
#
# Bulk Modulus (GPa) = 17.87261 35.16243 26.51752
# Shear Modulus (GPa) = 17.59057 26.58027 22.08542
#
# Velocity S-wave (km/s) = 2.86337 3.51979 3.20841
# Velocity P-wave (km/s) = 4.38887 5.73652 5.10734
#
# Compressibility (1/GPa) = 0.05595154
#
# Stress axis : x y z
#
# Youngs Moduli (GPa) = 49.08706 79.55373 15.30156
#
# Poissons Ratio (x) = 0.09163 0.11208
# Poissons Ratio (y) = 0.05654 0.19425
# Poissons Ratio (z) = 0.35956 1.00993
#
# Static dielectric constant tensor:
#      x y z
#    x 1.795970 0.000000 -0.016990 
#    y 0.000000 1.811810 0.000000 
#    z -0.016990 0.000000 1.821650 
# 
# From -- ./inp_files/118090.got.cif
#   From: 2010.05.17/outbox.cif.g08.bks.cpg/sg15_60_cif.got.tgz:118090.got - 2010.06.03 18:47:42.
