data_PCOD9264775
_publ_section_title
;
Structure prediction by ZEFSAII (Michael W. Deem and Ramdas Pophale) SiO2 
 PCOD9264775
Probable space group: C 2/C
;
_chemical_formula_sum "Si O2"
_cell_formula_units_Z 48
_cell_length_a 21.145146
_cell_length_b 8.119181
_cell_length_c 17.308409
_cell_angle_alpha 90.000000
_cell_angle_beta 135.030015
_cell_angle_gamma 90.000000
_cell_volume 2100.087711
_symmetry_space_group_name_H-M "C 2/C"
_symmetry_group_IT_number 15
_symmetry_cell_setting 'monoclinic'
loop_
_space_group_symop_operation_xyz
x,y,z
-x,y,1/2-z
-x,-y,-z
x,-y,1/2+z
1/2+x,1/2+y,z
1/2-x,1/2+y,1/2-z
1/2-x,1/2-y,-z
1/2+x,1/2-y,1/2+z
loop_
_atom_site_type_symbol
_atom_site_label
_atom_site_fract_x
_atom_site_fract_y
_atom_site_fract_z
Si Si1 0.300291 0.626717 0.227506
Si Si2 0.395481 0.072327 0.506152
Si Si3 0.332389 0.130853 0.096541
Si Si4 0.447047 0.585929 0.774151
Si Si5 0.978993 0.291197 0.944039
Si Si6 0.191957 0.498934 0.263904
O O1 0.204120 0.622338 0.103334
O O2 0.366716 0.526779 0.232418
O O3 0.280387 0.539101 0.291633
O O4 0.331227 0.810357 0.268735
O O5 0.457445 0.214597 0.517959
O O6 0.380256 0.996023 0.578544
O O7 0.438798 0.913129 0.501384
O O8 0.406525 0.254427 0.195144
O O9 0.294164 0.026747 0.134314
O O10 0.250000 0.250000 0.000000
O O11 0.500000 0.500078 0.750000
O O12 0.492304 0.642031 0.894693
O O13 0.887788 0.379563 0.832377
#
# Coordination Sequence:
#
# PCOD9264775 Si02
#       6
#     8   8   8   8   8   8
#     4  11  22  41  61  89 121 163 205 255 305 372
#     4  10  19  35  63  86 120 156 203 251 304 355
#     4  11  21  38  63  90 119 160 205 254 304 365
#     4  11  21  39  61  87 123 162 204 249 310 364
#     4   9  20  37  61  88 118 161 203 245 305 374
#     4  10  23  39  64  88 122 163 207 248 313 363
#
# _framework density 22.856190000000002
#
# number of rings (size 3 to 8) (size 9 to 14) (size 15 to 20)
#    0.000    1.667    3.333    3.000    2.333    0.667 
#    3.000    0.000    0.000    7.000    0.000    0.000 
#    0.000    0.000    0.000    0.000    0.000    0.000 
#
# Total GULP energy -133696.861160 kJ/mol
# GULP energy per Si atom -5570.702548 kJ/mol
# Density = 2.280417 g / cm^3
# Si number density = 22.856190 Si / 1000 Ang^3
#
#
#
# Elastic Constant Matrix: (Units=GPa)
#
#
# Indices 1 2 3 4 5 6 
#
# 1 182.8787 31.6974 41.2097 0.0000 -44.6829 0.0000
# 2 31.6974 47.7830 16.4862 0.0000 -15.5771 0.0000
# 3 41.2097 16.4862 44.7229 0.0000 -21.5601 0.0000
# 4 0.0000 0.0000 0.0000 31.7547 0.0000 -31.3392
# 5 -44.6829 -15.5771 -21.5601 0.0000 49.5072 0.0000
# 6 0.0000 0.0000 0.0000 -31.3392 0.0000 34.2194
#
#
#
# Elastic Compliance Matrix: (Units=1/GPa)
#
#
# Indices 1 2 3 4 5 6 
#
# 1 0.007951 -0.002306 -0.004261 0.000000 0.004595 0.000000
# 2 -0.002306 0.025534 -0.005592 0.000000 0.003517 0.000000
# 3 -0.004261 -0.005592 0.032460 0.000000 0.008531 0.000000
# 4 0.000000 0.000000 0.000000 0.327526 0.000000 0.299959
# 5 0.004595 0.003517 0.008531 0.000000 0.029168 0.000000
# 6 0.000000 0.000000 0.000000 0.299959 0.000000 0.303936
#
#
# Mechanical properties :
#
#
# Convention : Reuss Voigt Hill
#
# Bulk Modulus (GPa) = 24.02318 50.46349 37.24333
# Shear Modulus (GPa) = 6.53793 35.49568 21.01680
#
# Velocity S-wave (km/s) = 1.69313 3.94509 3.03565
# Velocity P-wave (km/s) = 3.78888 6.54815 5.34948
#
# Compressibility (1/GPa) = 0.04162646
#
# Stress axis : x y z
#
# Youngs Moduli (GPa) = 125.77702 39.16389 30.80703
#
# Poissons Ratio (x) = 0.09032 0.13127
# Poissons Ratio (y) = 0.29006 0.17227
# Poissons Ratio (z) = 0.53593 0.21900
#
# Static dielectric constant tensor:
#      x y z
#    x 1.908080 0.000000 -0.060700 
#    y 0.000000 1.935210 0.000000 
#    z -0.060700 0.000000 1.936660 
# 
# From -- ./inp_files/213532.got.cif
#   From: 2010.05.17/outbox.cif.g08.bks.cpg/sg15_107_cif.got.tgz:213532.got - 2010.06.03 18:47:42.
