data_PCOD9264009
_publ_section_title
;
Structure prediction by ZEFSAII (Michael W. Deem and Ramdas Pophale) SiO2 
 PCOD9264009
Probable space group: C 2/C
;
_chemical_formula_sum "Si O2"
_cell_formula_units_Z 48
_cell_length_a 23.104234
_cell_length_b 13.630227
_cell_length_c 5.699687
_cell_angle_alpha 90.000000
_cell_angle_beta 97.969603
_cell_angle_gamma 90.000000
_cell_volume 1777.586587
_symmetry_space_group_name_H-M "C 2/C"
_symmetry_group_IT_number 15
_symmetry_cell_setting 'monoclinic'
loop_
_space_group_symop_operation_xyz
x,y,z
-x,y,1/2-z
-x,-y,-z
x,-y,1/2+z
1/2+x,1/2+y,z
1/2-x,1/2+y,1/2-z
1/2-x,1/2-y,-z
1/2+x,1/2-y,1/2+z
loop_
_atom_site_type_symbol
_atom_site_label
_atom_site_fract_x
_atom_site_fract_y
_atom_site_fract_z
Si Si1 0.797903 0.164333 0.031816
Si Si2 0.620927 0.159479 0.916945
Si Si3 0.959546 0.093395 0.537840
Si Si4 0.126174 0.647793 0.410514
Si Si5 0.500000 0.759770 0.250000
Si Si6 0.000000 0.437426 0.750000
Si Si7 0.667630 0.375741 0.445199
O O1 0.798672 0.108377 0.782146
O O2 0.750000 0.250000 0.000000
O O3 0.856395 0.229224 0.059695
O O4 0.798957 0.112514 0.287320
O O5 0.640194 0.112695 0.681254
O O6 0.550978 0.170871 0.877643
O O7 0.646369 0.109916 0.166131
O O8 0.958705 0.178159 0.349630
O O9 0.894434 0.066753 0.581348
O O10 0.000000 0.000000 0.500000
O O11 0.000000 0.145850 0.750000
O O12 0.057012 0.629045 0.340788
O O13 0.148363 0.760407 0.428895
O O14 0.000000 0.500000 0.500000
#
# Coordination Sequence:
#
# PCOD9264009 Si02
#       7
#     8   8   8   8   4   4   8
#     4  10  19  36  59  88 123 146 202 278 322 348
#     4  10  20  32  58  83 112 153 192 239 303 362
#     4  12  24  35  53  84 132 179 212 253 309 385
#     4  10  19  35  53  74 112 152 185 230 290 364
#     4  12  20  35  49  78 124 162 202 250 298 367
#     4  12  24  35  49  80 120 146 182 230 292 361
#     4  10  22  37  58  88 122 159 210 253 314 375
#
# _framework density 27.002901999999999
#
# number of rings (size 3 to 8) (size 9 to 14) (size 15 to 20)
#    0.000    1.333    4.167    4.500    1.167    0.000 
#    0.000    0.000    0.000    0.000    0.000    0.000 
#  320.000    0.000    0.000    0.000    0.000    0.000 
#
# Total GULP energy -133688.189037 kJ/mol
# GULP energy per Si atom -5570.341210 kJ/mol
# Density = 2.694144 g / cm^3
# Si number density = 27.002902 Si / 1000 Ang^3
#
#
#
# Elastic Constant Matrix: (Units=GPa)
#
#
# Indices 1 2 3 4 5 6 
#
# 1 86.2916 8.5975 52.8948 0.0000 4.4258 0.0000
# 2 8.5975 127.7266 28.3859 0.0000 -8.6425 0.0000
# 3 52.8948 28.3859 275.9854 0.0000 -61.2485 0.0000
# 4 0.0000 0.0000 0.0000 -19.8761 0.0000 13.0720
# 5 4.4258 -8.6425 -61.2485 0.0000 29.3340 0.0000
# 6 0.0000 0.0000 0.0000 13.0720 0.0000 4.8393
#
#
#
# Elastic Compliance Matrix: (Units=1/GPa)
#
#
# Indices 1 2 3 4 5 6 
#
# 1 0.016862 -0.000754 -0.007022 0.000000 -0.017427 0.000000
# 2 -0.000754 0.008069 -0.000247 0.000000 0.001975 0.000000
# 3 -0.007022 -0.000247 0.009715 0.000000 0.021272 0.000000
# 4 0.000000 0.000000 0.000000 -0.018120 0.000000 0.048947
# 5 -0.017427 0.001975 0.021272 0.000000 0.081717 0.000000
# 6 0.000000 0.000000 0.000000 0.048947 0.000000 0.074425
#
#
# Mechanical properties :
#
#
# Convention : Reuss Voigt Hill
#
# Bulk Modulus (GPa) = 53.76199 74.41775 64.08987
# Shear Modulus (GPa) = 25.65256 29.53447 27.59352
#
# Velocity S-wave (km/s) = 3.08554 3.31078 3.20014
# Velocity P-wave (km/s) = 5.71376 6.49877 6.11886
#
# Compressibility (1/GPa) = 0.01860050
#
# Stress axis : x y z
#
# Youngs Moduli (GPa) = 59.30599 123.93862 102.92917
#
# Poissons Ratio (x) = 0.09341 0.72274
# Poissons Ratio (y) = 0.04470 0.02544
# Poissons Ratio (z) = 0.41643 0.03063
#
# Static dielectric constant tensor:
#      x y z
#    x 2.247220 0.000000 0.001310 
#    y 0.000000 2.126700 0.000000 
#    z 0.001310 0.000000 2.613910 
# 
# From -- ./inp_files/15453.got.cif
#   From: 2010.05.17/outbox.cif.g08.bks.cpg/sg15_8_cif.got.tgz:15453.got - 2010.06.03 18:47:42.
