data_PCOD9264688
_publ_section_title
;
Structure prediction by ZEFSAII (Michael W. Deem and Ramdas Pophale) SiO2 
 PCOD9264688
Probable space group: C 2/C
;
_chemical_formula_sum "Si O2"
_cell_formula_units_Z 48
_cell_length_a 15.826371
_cell_length_b 16.768622
_cell_length_c 21.731957
_cell_angle_alpha 90.000000
_cell_angle_beta 155.315728
_cell_angle_gamma 90.000000
_cell_volume 2408.554167
_symmetry_space_group_name_H-M "C 2/C"
_symmetry_group_IT_number 15
_symmetry_cell_setting 'monoclinic'
loop_
_space_group_symop_operation_xyz
x,y,z
-x,y,1/2-z
-x,-y,-z
x,-y,1/2+z
1/2+x,1/2+y,z
1/2-x,1/2+y,1/2-z
1/2-x,1/2-y,-z
1/2+x,1/2-y,1/2+z
loop_
_atom_site_type_symbol
_atom_site_label
_atom_site_fract_x
_atom_site_fract_y
_atom_site_fract_z
Si Si1 0.000000 0.824856 0.750000
Si Si2 0.412912 0.405054 0.819678
Si Si3 0.265810 0.310410 0.381865
Si Si4 0.099948 0.287562 0.647432
Si Si5 0.402155 0.465300 0.998945
Si Si6 0.500000 0.936863 0.250000
Si Si7 0.719603 0.790057 0.865471
O O1 0.986408 0.877354 0.801821
O O2 0.189582 0.764123 0.872078
O O3 0.189819 0.372640 0.686503
O O4 0.558587 0.356449 0.964522
O O5 0.438554 0.499072 0.847100
O O6 0.322868 0.273196 0.354274
O O7 0.081235 0.373817 0.252776
O O8 0.187375 0.270602 0.772470
O O9 0.859530 0.277184 0.488709
O O10 0.193378 0.506898 0.883336
O O11 0.341793 0.373617 0.953225
O O12 0.500000 0.500000 0.000000
O O13 0.500000 0.797827 0.750000
#
# Coordination Sequence:
#
# PCOD9264688 Si02
#       7
#     4   8   8   8   8   4   8
#     4   9  18  28  54  92 135 162 196 266 331 396
#     4  10  19  35  61  93 129 171 211 266 330 393
#     4   9  17  33  59  93 127 164 212 264 326 395
#     4  11  21  40  63  95 129 170 224 272 327 381
#     4  11  20  38  63  91 130 167 226 267 324 389
#     4   9  18  34  58  94 119 164 214 268 323 380
#     4  12  24  41  66  95 127 178 226 276 321 397
#
# _framework density 19.928967
#
# number of rings (size 3 to 8) (size 9 to 14) (size 15 to 20)
#    0.000    1.667    4.167    2.000    0.000    1.333 
#    0.000    0.000    5.500    1.000    0.000    0.000 
#    0.000    0.000    0.000    0.000    0.000    0.000 
#
# Total GULP energy -133606.018458 kJ/mol
# GULP energy per Si atom -5566.917436 kJ/mol
# Density = 1.988361 g / cm^3
# Si number density = 19.928967 Si / 1000 Ang^3
#
#
#
# Elastic Constant Matrix: (Units=GPa)
#
#
# Indices 1 2 3 4 5 6 
#
# 1 62.4043 35.6538 33.6603 0.0217 3.2197 0.0008
# 2 35.6538 51.6218 48.9886 0.0318 4.2244 0.0069
# 3 33.6603 48.9886 80.5919 0.0428 9.7975 0.0080
# 4 0.0217 0.0318 0.0428 21.1072 0.0074 0.8904
# 5 3.2197 4.2244 9.7975 0.0074 40.7791 0.0035
# 6 0.0008 0.0069 0.0080 0.8904 0.0035 18.1085
#
#
#
# Elastic Compliance Matrix: (Units=1/GPa)
#
#
# Indices 1 2 3 4 5 6 
#
# 1 0.026472 -0.018430 0.000174 0.000000 -0.000223 0.000006
# 2 -0.018430 0.058770 -0.028290 -0.000013 0.002164 -0.000009
# 3 0.000174 -0.028290 0.030055 -0.000017 -0.004304 -0.000001
# 4 0.000000 -0.000013 -0.000017 0.047476 -0.000003 -0.002334
# 5 -0.000223 0.002164 -0.004304 -0.000003 0.025350 -0.000004
# 6 0.000006 -0.000009 -0.000001 -0.002334 -0.000004 0.055337
#
#
# Mechanical properties :
#
#
# Convention : Reuss Voigt Hill
#
# Bulk Modulus (GPa) = 45.03438 47.91371 46.47405
# Shear Modulus (GPa) = 14.53679 21.08666 17.81172
#
# Velocity S-wave (km/s) = 2.70373 3.25636 2.99283
# Velocity P-wave (km/s) = 5.69152 6.18328 5.94249
#
# Compressibility (1/GPa) = 0.02220526
#
# Stress axis : x y z
#
# Youngs Moduli (GPa) = 37.77546 17.01538 33.27221
#
# Poissons Ratio (x) = 0.31360 -0.00577
# Poissons Ratio (y) = 0.69621 0.94126
# Poissons Ratio (z) = -0.00655 0.48136
#
# Static dielectric constant tensor:
#      x y z
#    x 1.734240 0.000000 0.032890 
#    y 0.000000 1.749380 0.000000 
#    z 0.032890 0.000000 1.753380 
# 
# From -- ./inp_files/244968.got.cif
#   From: 2010.05.17/outbox.cif.g08.bks.cpg/sg15_123_cif.got.tgz:244968.got - 2010.06.03 18:47:42.
