data_PCOD9264245
_publ_section_title
;
Structure prediction by ZEFSAII (Michael W. Deem and Ramdas Pophale) SiO2 
 PCOD9264245
Probable space group: C 2/C
;
_chemical_formula_sum "Si O2"
_cell_formula_units_Z 56
_cell_length_a 25.766382
_cell_length_b 8.859034
_cell_length_c 10.986324
_cell_angle_alpha 90.000000
_cell_angle_beta 82.443913
_cell_angle_gamma 90.000000
_cell_volume 2486.019879
_symmetry_space_group_name_H-M "C 2/C"
_symmetry_group_IT_number 15
_symmetry_cell_setting 'monoclinic'
loop_
_space_group_symop_operation_xyz
x,y,z
-x,y,1/2-z
-x,-y,-z
x,-y,1/2+z
1/2+x,1/2+y,z
1/2-x,1/2+y,1/2-z
1/2-x,1/2-y,-z
1/2+x,1/2-y,1/2+z
loop_
_atom_site_type_symbol
_atom_site_label
_atom_site_fract_x
_atom_site_fract_y
_atom_site_fract_z
Si Si1 0.849177 0.530172 0.880031
Si Si2 0.500000 0.673123 0.250000
Si Si3 0.452594 0.443504 0.425147
Si Si4 0.231522 0.653575 0.798816
Si Si5 0.778918 0.652971 0.092486
Si Si6 0.639340 0.249647 0.982785
Si Si7 0.063847 0.581223 0.828327
Si Si8 0.500000 0.816530 0.750000
O O1 0.806173 0.579618 0.793203
O O2 0.903704 0.584620 0.808020
O O3 0.833255 0.609544 0.011695
O O4 0.849313 0.349592 0.900605
O O5 0.454452 0.569700 0.318948
O O6 0.478164 0.785654 0.156264
O O7 0.500000 0.500000 0.500000
O O8 0.395547 0.400736 0.495803
O O9 0.468105 0.290934 0.349676
O O10 0.248379 0.509118 0.872796
O O11 0.275093 0.747562 0.714748
O O12 0.193779 0.760204 0.892060
O O13 0.750000 0.750000 0.000000
O O14 0.603526 0.129102 0.919787
O O15 0.034616 0.423143 0.826984
#
# Coordination Sequence:
#
# PCOD9264245 Si02
#       8
#     8   4   8   8   8   8   8   4
#     4   9  18  35  60  85 114 149 196 242 275 347
#     4  10  22  34  52  80 114 150 186 250 288 338
#     4  11  21  37  53  79 120 152 186 241 299 340
#     4   9  19  36  64  88 119 149 193 239 289 356
#     4   9  18  37  61  89 121 154 189 241 296 351
#     4  10  19  35  59  82 112 155 192 239 284 346
#     4  10  19  35  57  83 107 149 208 236 280 345
#     4  10  22  34  58  82 108 154 202 240 284 350
#
# _framework density 22.525966
#
# number of rings (size 3 to 8) (size 9 to 14) (size 15 to 20)
#    0.000    2.286    2.857    0.000    0.000    1.714 
#    2.571    6.429    6.286    0.000    0.000    0.000 
#    0.000    0.000    0.000    0.000    0.000    0.000 
#
# Total GULP energy -156061.672052 kJ/mol
# GULP energy per Si atom -5573.631145 kJ/mol
# Density = 2.247470 g / cm^3
# Si number density = 22.525966 Si / 1000 Ang^3
#
#
#
# Elastic Constant Matrix: (Units=GPa)
#
#
# Indices 1 2 3 4 5 6 
#
# 1 39.6971 19.3127 19.3465 0.0000 1.8240 0.0000
# 2 19.3127 99.3718 41.3547 0.0000 -10.1872 0.0000
# 3 19.3465 41.3547 80.3580 0.0000 -16.5946 0.0000
# 4 0.0000 0.0000 0.0000 32.3368 0.0000 -2.1816
# 5 1.8240 -10.1872 -16.5946 0.0000 23.0600 0.0000
# 6 0.0000 0.0000 0.0000 -2.1816 0.0000 32.3562
#
#
#
# Elastic Compliance Matrix: (Units=1/GPa)
#
#
# Indices 1 2 3 4 5 6 
#
# 1 0.031181 -0.003938 -0.007457 0.000000 -0.009572 0.000000
# 2 -0.003938 0.013326 -0.005438 0.000000 0.002285 0.000000
# 3 -0.007457 -0.005438 0.019572 0.000000 0.012272 0.000000
# 4 0.000000 0.000000 0.000000 0.031066 0.000000 0.002095
# 5 -0.009572 0.002285 0.012272 0.000000 0.053963 0.000000
# 6 0.000000 0.000000 0.000000 0.002095 0.000000 0.031047
#
#
# Mechanical properties :
#
#
# Convention : Reuss Voigt Hill
#
# Bulk Modulus (GPa) = 32.88040 42.16164 37.52102
# Shear Modulus (GPa) = 22.32554 26.84479 24.58516
#
# Velocity S-wave (km/s) = 3.15159 3.45588 3.30724
# Velocity P-wave (km/s) = 5.27937 5.88912 5.59256
#
# Compressibility (1/GPa) = 0.03041326
#
# Stress axis : x y z
#
# Youngs Moduli (GPa) = 32.07123 75.04206 51.09212
#
# Poissons Ratio (x) = 0.29551 0.38100
# Poissons Ratio (y) = 0.12629 0.27784
# Poissons Ratio (z) = 0.23916 0.40807
#
# Static dielectric constant tensor:
#      x y z
#    x 1.989490 0.000000 0.106570 
#    y 0.000000 1.847760 0.000000 
#    z 0.106570 0.000000 1.968950 
# 
# From -- ./inp_files/121937.got.cif
#   From: 2010.05.17/outbox.cif.g08.bks.cpg/sg15_61_cif.got.tgz:121937.got - 2010.06.03 18:47:42.
