data_PCOD9264113
_publ_section_title
;
Structure prediction by ZEFSAII (Michael W. Deem and Ramdas Pophale) SiO2 
 PCOD9264113
Probable space group: C 2/C
;
_chemical_formula_sum "Si O2"
_cell_formula_units_Z 56
_cell_length_a 15.646178
_cell_length_b 17.571538
_cell_length_c 11.538192
_cell_angle_alpha 90.000000
_cell_angle_beta 114.147606
_cell_angle_gamma 90.000000
_cell_volume 2894.583630
_symmetry_space_group_name_H-M "C 2/C"
_symmetry_group_IT_number 15
_symmetry_cell_setting 'monoclinic'
loop_
_space_group_symop_operation_xyz
x,y,z
-x,y,1/2-z
-x,-y,-z
x,-y,1/2+z
1/2+x,1/2+y,z
1/2-x,1/2+y,1/2-z
1/2-x,1/2-y,-z
1/2+x,1/2-y,1/2+z
loop_
_atom_site_type_symbol
_atom_site_label
_atom_site_fract_x
_atom_site_fract_y
_atom_site_fract_z
Si Si1 0.341212 0.202164 0.403992
Si Si2 0.885498 0.994978 0.948956
Si Si3 0.452459 0.258159 0.974011
Si Si4 0.708822 0.643343 0.498411
Si Si5 0.754944 0.231744 0.641417
Si Si6 0.582877 0.390977 0.722601
Si Si7 0.904188 0.871295 0.145580
O O1 0.453337 0.209891 0.469067
O O2 0.300437 0.282972 0.427317
O O3 0.307058 0.142216 0.482884
O O4 0.298092 0.202170 0.248988
O O5 0.859469 0.954870 0.813376
O O6 0.863969 0.933430 0.036258
O O7 0.831751 0.071118 0.954615
O O8 0.000000 0.000000 0.000000
O O9 0.353826 0.218658 0.887266
O O10 0.459281 0.330100 0.890467
O O11 0.438847 0.298595 0.090350
O O12 0.642245 0.653370 0.349714
O O13 0.750000 0.250000 0.500000
O O14 0.825882 0.160599 0.688261
O O15 0.500000 0.427818 0.750000
O O16 0.000000 0.902422 0.250000
#
# Coordination Sequence:
#
# PCOD9264113 Si02
#       7
#     8   8   8   8   8   8   8
#     4  11  21  37  59  81 118 154 198 246 286 357
#     4  11  23  33  52  83 118 154 188 233 301 360
#     4  10  19  35  55  84 118 155 194 240 296 342
#     4  11  23  36  54  85 115 154 194 237 295 353
#     4  10  21  34  56  87 118 153 195 245 293 345
#     4  11  19  34  54  80 121 152 187 238 296 352
#     4  10  20  33  54  83 119 152 191 239 290 357
#
# _framework density 19.346478000000001
#
# number of rings (size 3 to 8) (size 9 to 14) (size 15 to 20)
#    0.000    1.429    5.714    0.857    2.000    0.000 
#    0.000    0.000    0.000    0.857    0.000    2.000 
#    0.000    0.000    0.000    0.000    0.000    0.000 
#
# Total GULP energy -155979.332478 kJ/mol
# GULP energy per Si atom -5570.690446 kJ/mol
# Density = 1.930244 g / cm^3
# Si number density = 19.346478 Si / 1000 Ang^3
#
#
#
# Elastic Constant Matrix: (Units=GPa)
#
#
# Indices 1 2 3 4 5 6 
#
# 1 135.8455 38.8927 25.9583 0.0000 2.3170 0.0000
# 2 38.8927 51.6351 8.6432 0.0000 -11.4886 0.0000
# 3 25.9583 8.6432 81.2057 0.0000 -8.0612 0.0000
# 4 0.0000 0.0000 0.0000 13.5635 0.0000 -8.3950
# 5 2.3170 -11.4886 -8.0612 0.0000 31.8480 0.0000
# 6 0.0000 0.0000 0.0000 -8.3950 0.0000 30.3417
#
#
#
# Elastic Compliance Matrix: (Units=1/GPa)
#
#
# Indices 1 2 3 4 5 6 
#
# 1 0.010372 -0.008329 -0.002874 0.000000 -0.004487 0.000000
# 2 -0.008329 0.027932 0.000769 0.000000 0.010877 0.000000
# 3 -0.002874 0.000769 0.013540 0.000000 0.003914 0.000000
# 4 0.000000 0.000000 0.000000 0.088962 0.000000 0.024614
# 5 -0.004487 0.010877 0.003914 0.000000 0.036640 0.000000
# 6 0.000000 0.000000 0.000000 0.024614 0.000000 0.039768
#
#
# Mechanical properties :
#
#
# Convention : Reuss Voigt Hill
#
# Bulk Modulus (GPa) = 32.28442 46.18607 39.23525
# Shear Modulus (GPa) = 20.12824 28.16344 24.14584
#
# Velocity S-wave (km/s) = 3.22904 3.81955 3.53664
# Velocity P-wave (km/s) = 5.53407 6.58612 6.08288
#
# Compressibility (1/GPa) = 0.03097469
#
# Stress axis : x y z
#
# Youngs Moduli (GPa) = 96.41525 35.80143 73.85615
#
# Poissons Ratio (x) = 0.29821 0.21228
# Poissons Ratio (y) = 0.80309 -0.05682
# Poissons Ratio (z) = 0.27713 -0.02754
#
# Static dielectric constant tensor:
#      x y z
#    x 1.779700 0.000000 -0.006890 
#    y 0.000000 1.704890 0.000000 
#    z -0.006890 0.000000 1.770790 
# 
# From -- ./inp_files/99464.got.cif
#   From: 2010.05.17/outbox.cif.g08.bks.cpg/sg15_50_cif.got.tgz:99464.got - 2010.06.03 18:47:42.
