data_PCOD9264094
_publ_section_title
;
Structure prediction by ZEFSAII (Michael W. Deem and Ramdas Pophale) SiO2 
 PCOD9264094
Probable space group: C 2/C
;
_chemical_formula_sum "Si O2"
_cell_formula_units_Z 44
_cell_length_a 20.133099
_cell_length_b 6.635119
_cell_length_c 15.559220
_cell_angle_alpha 90.000000
_cell_angle_beta 107.151281
_cell_angle_gamma 90.000000
_cell_volume 1986.054894
_symmetry_space_group_name_H-M "C 2/C"
_symmetry_group_IT_number 15
_symmetry_cell_setting 'monoclinic'
loop_
_space_group_symop_operation_xyz
x,y,z
-x,y,1/2-z
-x,-y,-z
x,-y,1/2+z
1/2+x,1/2+y,z
1/2-x,1/2+y,1/2-z
1/2-x,1/2-y,-z
1/2+x,1/2-y,1/2+z
loop_
_atom_site_type_symbol
_atom_site_label
_atom_site_fract_x
_atom_site_fract_y
_atom_site_fract_z
Si Si1 0.677969 0.965450 0.764616
Si Si2 0.500000 0.329378 0.750000
Si Si3 0.962588 0.463907 0.857922
Si Si4 0.397625 0.031990 0.020335
Si Si5 0.760417 0.624930 0.890154
Si Si6 0.358824 0.330374 0.626244
O O1 0.601326 0.868884 0.718967
O O2 0.725368 0.825961 0.841340
O O3 0.712522 0.009582 0.685715
O O4 0.665702 0.175014 0.808883
O O5 0.430435 0.430582 0.687667
O O6 0.476136 0.178236 0.817232
O O7 0.931703 0.495312 0.940605
O O8 0.040018 0.374834 0.898475
O O9 0.327253 0.153250 0.976198
O O10 0.376169 0.818009 0.053776
O O11 0.702682 0.485204 0.911895
#
# Coordination Sequence:
#
# PCOD9264094 Si02
#       6
#     8   4   8   8   8   8
#     4  10  20  34  56  80 109 149 187 224 271 327
#     4   8  16  32  56  78 104 146 186 220 266 326
#     4   8  16  33  55  80 105 148 186 214 272 331
#     4   9  18  32  55  82 112 144 181 227 277 326
#     4  11  20  34  56  83 109 144 187 231 274 324
#     4  10  19  35  55  81 111 145 183 228 275 324
#
# _framework density 22.154471999999998
#
# number of rings (size 3 to 8) (size 9 to 14) (size 15 to 20)
#    0.000    2.545    1.818    0.545    0.000    0.727 
#    0.000    5.455    0.000    5.455    0.000    0.000 
#    0.000    0.000    0.000    0.000    0.000    0.000 
#
# Total GULP energy -122704.142338 kJ/mol
# GULP energy per Si atom -5577.461015 kJ/mol
# Density = 2.210405 g / cm^3
# Si number density = 22.154472 Si / 1000 Ang^3
#
#
#
# Elastic Constant Matrix: (Units=GPa)
#
#
# Indices 1 2 3 4 5 6 
#
# 1 143.9970 44.5755 57.2723 0.0000 33.9959 0.0000
# 2 44.5755 48.6067 24.5434 0.0000 10.3155 0.0000
# 3 57.2723 24.5434 74.7881 0.0000 13.5047 0.0000
# 4 0.0000 0.0000 0.0000 21.7623 0.0000 -10.3519
# 5 33.9959 10.3155 13.5047 0.0000 85.7702 0.0000
# 6 0.0000 0.0000 0.0000 -10.3519 0.0000 -13.6867
#
#
#
# Elastic Compliance Matrix: (Units=1/GPa)
#
#
# Indices 1 2 3 4 5 6 
#
# 1 0.012668 -0.007610 -0.006651 0.000000 -0.003059 0.000000
# 2 -0.007610 0.029486 -0.003863 0.000000 0.000078 0.000000
# 3 -0.006651 -0.003863 0.019734 0.000000 -0.000006 0.000000
# 4 0.000000 0.000000 0.000000 0.033793 0.000000 -0.025559
# 5 -0.003059 0.000078 -0.000006 0.000000 0.012863 0.000000
# 6 0.000000 0.000000 0.000000 -0.025559 0.000000 -0.053732
#
#
# Mechanical properties :
#
#
# Convention : Reuss Voigt Hill
#
# Bulk Modulus (GPa) = 39.00316 57.79714 48.40015
# Shear Modulus (GPa) = 50.19812 28.16922 39.18367
#
# Velocity S-wave (km/s) = 4.76523 3.56967 4.21010
# Velocity P-wave (km/s) = 6.92242 6.56772 6.74740
#
# Compressibility (1/GPa) = 0.02563895
#
# Stress axis : x y z
#
# Youngs Moduli (GPa) = 78.94090 33.91462 50.67508
#
# Poissons Ratio (x) = 0.25807 0.33706
# Poissons Ratio (y) = 0.60070 0.19577
# Poissons Ratio (z) = 0.52506 0.13102
#
# Static dielectric constant tensor:
#      x y z
#    x 1.869250 0.000000 0.038350 
#    y 0.000000 1.760130 0.000000 
#    z 0.038350 0.000000 1.831420 
# 
# From -- ./inp_files/165800.got.cif
#   From: 2010.05.17/outbox.cif.g08.bks.cpg/sg15_83_cif.got.tgz:165800.got - 2010.06.03 18:47:42.
