data_PCOD9264909
_publ_section_title
;
Structure prediction by ZEFSAII (Michael W. Deem and Ramdas Pophale) SiO2 
 PCOD9264909
Probable space group: C 2/C
;
_chemical_formula_sum "Si O2"
_cell_formula_units_Z 40
_cell_length_a 23.068500
_cell_length_b 9.394816
_cell_length_c 8.406413
_cell_angle_alpha 90.000000
_cell_angle_beta 124.807213
_cell_angle_gamma 90.000000
_cell_volume 1495.899552
_symmetry_space_group_name_H-M "C 2/C"
_symmetry_group_IT_number 15
_symmetry_cell_setting 'monoclinic'
loop_
_space_group_symop_operation_xyz
x,y,z
-x,y,1/2-z
-x,-y,-z
x,-y,1/2+z
1/2+x,1/2+y,z
1/2-x,1/2+y,1/2-z
1/2-x,1/2-y,-z
1/2+x,1/2-y,1/2+z
loop_
_atom_site_type_symbol
_atom_site_label
_atom_site_fract_x
_atom_site_fract_y
_atom_site_fract_z
Si Si1 0.270653 0.343804 0.812710
Si Si2 0.147659 0.001188 0.328976
Si Si3 0.452427 0.768880 0.866585
Si Si4 0.605046 0.167166 0.545125
Si Si5 0.618335 0.194665 0.923373
O O1 0.326548 0.429529 0.792208
O O2 0.313132 0.196078 0.872660
O O3 0.193950 0.337659 0.621919
O O4 0.282224 0.422472 0.995242
O O5 0.091448 0.876325 0.221831
O O6 0.120591 0.135577 0.388376
O O7 0.424969 0.869372 0.679166
O O8 0.534856 0.735531 0.974473
O O9 0.436559 0.831921 0.017903
O O10 0.613949 0.120891 0.743698
#
# Coordination Sequence:
#
# PCOD9264909 Si02
#       5
#     8   8   8   8   8
#     4  10  21  36  54  83 116 149 187 229 277 333
#     4  10  19  36  52  82 116 144 189 226 272 339
#     4  10  20  36  54  83 116 148 182 224 284 335
#     4   9  20  35  53  85 112 150 179 223 279 345
#     4  11  21  37  56  79 118 154 185 227 276 336
#
# _framework density 26.739761999999999
#
# number of rings (size 3 to 8) (size 9 to 14) (size 15 to 20)
#    0.000    2.000    2.000    3.000    0.000    6.400 
#   18.000    0.000    0.000    0.000    0.000   12.600 
#    0.000    0.000    0.000    0.000    0.000    0.000 
#
# Total GULP energy -111366.631783 kJ/mol
# GULP energy per Si atom -5568.331589 kJ/mol
# Density = 2.667890 g / cm^3
# Si number density = 26.739762 Si / 1000 Ang^3
#
#
#
# Elastic Constant Matrix: (Units=GPa)
#
#
# Indices 1 2 3 4 5 6 
#
# 1 132.4643 23.8563 40.3934 0.0000 -33.0255 0.0000
# 2 23.8563 44.0672 36.2940 0.0000 -8.3346 0.0000
# 3 40.3934 36.2940 131.9712 0.0000 -2.1723 0.0000
# 4 0.0000 0.0000 0.0000 9.1757 0.0000 -12.7882
# 5 -33.0255 -8.3346 -2.1723 0.0000 48.1908 0.0000
# 6 0.0000 0.0000 0.0000 -12.7882 0.0000 4.5769
#
#
#
# Elastic Compliance Matrix: (Units=1/GPa)
#
#
# Indices 1 2 3 4 5 6 
#
# 1 0.010350 -0.002379 -0.002406 0.000000 0.006573 0.000000
# 2 -0.002379 0.030995 -0.007740 0.000000 0.003382 0.000000
# 3 -0.002406 -0.007740 0.010401 0.000000 -0.002518 0.000000
# 4 0.000000 0.000000 0.000000 -0.037657 0.000000 -0.105217
# 5 0.006573 0.003382 -0.002518 0.000000 0.025727 0.000000
# 6 0.000000 0.000000 0.000000 -0.105217 0.000000 -0.075495
#
#
# Mechanical properties :
#
#
# Convention : Reuss Voigt Hill
#
# Bulk Modulus (GPa) = 37.45784 56.62114 47.03949
# Shear Modulus (GPa) = -2887.22620 26.25261 -1430.48680
#
# Velocity S-wave (km/s) = -32.89520 3.13674 -23.15443
# Velocity P-wave (km/s) = 37.79886 5.86001 26.40468
#
# Compressibility (1/GPa) = 0.02669668
#
# Stress axis : x y z
#
# Youngs Moduli (GPa) = 96.61944 32.26341 96.14523
#
# Poissons Ratio (x) = 0.07674 0.23128
# Poissons Ratio (y) = 0.22983 0.74420
# Poissons Ratio (z) = 0.23242 0.24973
#
# Static dielectric constant tensor:
#      x y z
#    x 2.071460 0.000000 -0.100900 
#    y 0.000000 2.493740 0.000000 
#    z -0.100900 0.000000 2.105400 
# 
# From -- ./inp_files/46274.got.cif
#   From: 2010.05.17/outbox.cif.g08.bks.cpg/sg15_24_cif.got.tgz:46274.got - 2010.06.03 18:47:42.
