data_PCOD9264302
_publ_section_title
;
Structure prediction by ZEFSAII (Michael W. Deem and Ramdas Pophale) SiO2 
 PCOD9264302
Probable space group: C 2/C
;
_chemical_formula_sum "Si O2"
_cell_formula_units_Z 40
_cell_length_a 15.958454
_cell_length_b 12.729135
_cell_length_c 8.826382
_cell_angle_alpha 90.000000
_cell_angle_beta 58.831257
_cell_angle_gamma 90.000000
_cell_volume 1534.146827
_symmetry_space_group_name_H-M "C 2/C"
_symmetry_group_IT_number 15
_symmetry_cell_setting 'monoclinic'
loop_
_space_group_symop_operation_xyz
x,y,z
-x,y,1/2-z
-x,-y,-z
x,-y,1/2+z
1/2+x,1/2+y,z
1/2-x,1/2+y,1/2-z
1/2-x,1/2-y,-z
1/2+x,1/2-y,1/2+z
loop_
_atom_site_type_symbol
_atom_site_label
_atom_site_fract_x
_atom_site_fract_y
_atom_site_fract_z
Si Si1 0.500000 0.000639 0.250000
Si Si2 0.720142 0.367284 0.548284
Si Si3 0.000000 0.193842 0.250000
Si Si4 0.194424 0.972836 0.861485
Si Si5 0.422762 0.843526 0.563640
Si Si6 0.104859 0.860025 0.231352
O O1 0.546836 0.079179 0.329467
O O2 0.426916 0.924788 0.413662
O O3 0.750000 0.250000 0.500000
O O4 0.601440 0.369287 0.655002
O O5 0.750146 0.405302 0.685567
O O6 0.758379 0.436505 0.376251
O O7 0.999235 0.261228 0.405921
O O8 0.114721 0.042730 0.842212
O O9 0.166947 0.900104 0.028474
O O10 0.366317 0.747117 0.708485
O O11 0.000000 0.846395 0.250000
#
# Coordination Sequence:
#
# PCOD9264302 Si02
#       6
#     4   8   4   8   8   8
#     4   9  20  34  51  82 142 183 224 274 323 400
#     4  11  25  46  70 105 144 178 235 288 347 418
#     4  11  22  40  73 100 140 177 222 290 347 402
#     4  10  24  39  70 101 137 181 219 291 361 409
#     4  10  19  35  57  91 131 174 227 272 329 405
#     4  11  19  34  62 103 135 165 222 286 352 414
#
# _framework density 26.073125000000001
#
# number of rings (size 3 to 8) (size 9 to 14) (size 15 to 20)
#    0.000    1.600    3.000    1.800    5.600    0.000 
#    0.000   12.000    0.000    0.000    0.000    0.000 
#    0.000    0.000    0.000    0.000    0.000    0.000 
#
# Total GULP energy -111447.063642 kJ/mol
# GULP energy per Si atom -5572.353182 kJ/mol
# Density = 2.601378 g / cm^3
# Si number density = 26.073125 Si / 1000 Ang^3
#
#
#
# Elastic Constant Matrix: (Units=GPa)
#
#
# Indices 1 2 3 4 5 6 
#
# 1 54.4952 38.7743 37.0025 0.0000 26.7650 0.0000
# 2 38.7743 215.5547 107.4865 0.0000 23.1681 0.0000
# 3 37.0025 107.4865 205.4838 0.0000 38.7454 0.0000
# 4 0.0000 0.0000 0.0000 140.8463 0.0000 -41.5806
# 5 26.7650 23.1681 38.7454 0.0000 40.6539 0.0000
# 6 0.0000 0.0000 0.0000 -41.5806 0.0000 89.8533
#
#
#
# Elastic Compliance Matrix: (Units=1/GPa)
#
#
# Indices 1 2 3 4 5 6 
#
# 1 0.029307 -0.003260 -0.000346 0.000000 -0.017106 0.000000
# 2 -0.003260 0.006649 -0.003147 0.000000 0.001356 0.000000
# 3 -0.000346 -0.003147 0.007551 0.000000 -0.005175 0.000000
# 4 0.000000 0.000000 0.000000 0.008223 0.000000 0.003805
# 5 -0.017106 0.001356 -0.005175 0.000000 0.040019 0.000000
# 6 0.000000 0.000000 0.000000 0.003805 0.000000 0.012890
#
#
# Mechanical properties :
#
#
# Convention : Reuss Voigt Hill
#
# Bulk Modulus (GPa) = 33.33359 93.56226 63.44792
# Shear Modulus (GPa) = 39.01782 73.75539 56.38660
#
# Velocity S-wave (km/s) = 3.87263 5.32441 4.65546
# Velocity P-wave (km/s) = 5.72789 8.58845 7.29967
#
# Compressibility (1/GPa) = 0.02999977
#
# Stress axis : x y z
#
# Youngs Moduli (GPa) = 34.12142 150.39892 132.43814
#
# Poissons Ratio (x) = 0.49037 0.04588
# Poissons Ratio (y) = 0.11125 0.41673
# Poissons Ratio (z) = 0.01182 0.47325
#
# Static dielectric constant tensor:
#      x y z
#    x 1.797030 0.000000 -0.089440 
#    y 0.000000 2.092000 0.000000 
#    z -0.089440 0.000000 2.008490 
# 
# From -- ./inp_files/54081.got.cif
#   From: 2010.05.17/outbox.cif.g08.bks.cpg/sg15_28_cif.got.tgz:54081.got - 2010.06.03 18:47:42.
