data_PCOD9264682
_publ_section_title
;
Structure prediction by ZEFSAII (Michael W. Deem and Ramdas Pophale) SiO2 
 PCOD9264682
Probable space group: C 2/C
;
_chemical_formula_sum "Si O2"
_cell_formula_units_Z 60
_cell_length_a 27.745038
_cell_length_b 6.336260
_cell_length_c 18.802939
_cell_angle_alpha 90.000000
_cell_angle_beta 66.876939
_cell_angle_gamma 90.000000
_cell_volume 3039.995959
_symmetry_space_group_name_H-M "C 2/C"
_symmetry_group_IT_number 15
_symmetry_cell_setting 'monoclinic'
loop_
_space_group_symop_operation_xyz
x,y,z
-x,y,1/2-z
-x,-y,-z
x,-y,1/2+z
1/2+x,1/2+y,z
1/2-x,1/2+y,1/2-z
1/2-x,1/2-y,-z
1/2+x,1/2-y,1/2+z
loop_
_atom_site_type_symbol
_atom_site_label
_atom_site_fract_x
_atom_site_fract_y
_atom_site_fract_z
Si Si1 0.372642 0.306251 0.123989
Si Si2 0.551068 0.944317 0.385754
Si Si3 0.000000 0.111345 0.750000
Si Si4 0.585208 0.750104 0.215055
Si Si5 0.383106 0.305820 0.534819
Si Si6 0.682263 0.393497 0.730488
Si Si7 0.449641 0.070981 0.386288
Si Si8 0.207038 0.577252 0.840886
O O1 0.423424 0.171554 0.114073
O O2 0.382337 0.444716 0.047989
O O3 0.354458 0.463967 0.196960
O O4 0.325999 0.138336 0.142361
O O5 0.488353 0.955930 0.419733
O O6 0.569331 0.869044 0.297072
O O7 0.577926 0.788063 0.426768
O O8 0.950708 0.957647 0.767625
O O9 0.986384 0.264519 0.822917
O O10 0.645777 0.688616 0.188561
O O11 0.572352 0.901490 0.156615
O O12 0.405125 0.206442 0.450500
O O13 0.324837 0.222253 0.585623
O O14 0.732902 0.526300 0.678819
O O15 0.701815 0.199231 0.768541
#
# Coordination Sequence:
#
# PCOD9264682 Si02
#       8
#     8   8   4   8   8   8   8   8
#     4  10  19  35  61  92 120 150 201 255 309 361
#     4  11  20  40  63  90 124 157 210 261 303 366
#     4  12  24  40  64  86 126 174 210 244 306 384
#     4  12  23  40  63  94 125 158 217 254 305 373
#     4  10  24  39  60  91 128 162 206 255 315 365
#     4  11  20  35  64  98 117 159 204 263 309 357
#     4  12  25  41  58  88 130 171 200 257 307 373
#     4  10  20  36  63  91 125 150 204 263 307 356
#
# _framework density 19.736867
#
# number of rings (size 3 to 8) (size 9 to 14) (size 15 to 20)
#    0.000    1.067    8.000    1.200    0.000    2.667 
#    0.000    0.667    0.000    1.600    0.000    0.000 
#    0.000    0.000    0.000    0.000    0.000    0.000 
#
# Total GULP energy -167609.176366 kJ/mol
# GULP energy per Si atom -5586.972546 kJ/mol
# Density = 1.969195 g / cm^3
# Si number density = 19.736867 Si / 1000 Ang^3
#
#
#
# Elastic Constant Matrix: (Units=GPa)
#
#
# Indices 1 2 3 4 5 6 
#
# 1 104.6319 28.9394 12.5008 -0.0002 -11.7753 -0.0003
# 2 28.9394 81.5213 -0.2704 -0.0003 5.6249 -0.0017
# 3 12.5008 -0.2704 43.2121 0.0000 -4.0494 -0.0001
# 4 -0.0002 -0.0003 0.0000 9.9837 0.0001 -8.3842
# 5 -11.7753 5.6249 -4.0494 0.0001 18.3579 0.0001
# 6 -0.0003 -0.0017 -0.0001 -8.3842 0.0001 31.3053
#
#
#
# Elastic Compliance Matrix: (Units=1/GPa)
#
#
# Indices 1 2 3 4 5 6 
#
# 1 0.012245 -0.004961 -0.002752 0.000000 0.008767 0.000000
# 2 -0.004961 0.014545 0.000827 0.000001 -0.007456 0.000001
# 3 -0.002752 0.000827 0.024255 0.000000 0.003332 0.000000
# 4 0.000000 0.000001 0.000000 0.129229 -0.000001 0.034610
# 5 0.008767 -0.007456 0.003332 -0.000001 0.063115 -0.000001
# 6 0.000000 0.000001 0.000000 0.034610 -0.000001 0.041213
#
#
# Mechanical properties :
#
#
# Convention : Reuss Voigt Hill
#
# Bulk Modulus (GPa) = 26.82799 34.63388 30.73093
# Shear Modulus (GPa) = 16.08767 24.47575 20.28171
#
# Velocity S-wave (km/s) = 2.85811 3.52533 3.20911
# Velocity P-wave (km/s) = 4.95116 5.84436 5.41620
#
# Compressibility (1/GPa) = 0.03727450
#
# Stress axis : x y z
#
# Youngs Moduli (GPa) = 81.66708 68.75207 41.22845
#
# Poissons Ratio (x) = 0.34107 0.11345
# Poissons Ratio (y) = 0.40514 -0.03411
# Poissons Ratio (z) = 0.22473 -0.05689
#
# Static dielectric constant tensor:
#      x y z
#    x 1.697680 0.000000 -0.003200 
#    y 0.000000 1.716540 0.000000 
#    z -0.003200 0.000000 1.710930 
# 
# From -- ./inp_files/258424.got.cif
#   From: 2010.05.17/outbox.cif.g08.bks.cpg/sg15_130_cif.got.tgz:258424.got - 2010.06.03 18:47:42.
