data_PCOD9264347
_publ_section_title
;
Structure prediction by ZEFSAII (Michael W. Deem and Ramdas Pophale) SiO2 
 PCOD9264347
Probable space group: C 2/C
;
_chemical_formula_sum "Si O2"
_cell_formula_units_Z 64
_cell_length_a 7.986318
_cell_length_b 22.973341
_cell_length_c 20.719218
_cell_angle_alpha 90.000000
_cell_angle_beta 64.601758
_cell_angle_gamma 90.000000
_cell_volume 3433.993140
_symmetry_space_group_name_H-M "C 2/C"
_symmetry_group_IT_number 15
_symmetry_cell_setting 'monoclinic'
loop_
_space_group_symop_operation_xyz
x,y,z
-x,y,1/2-z
-x,-y,-z
x,-y,1/2+z
1/2+x,1/2+y,z
1/2-x,1/2+y,1/2-z
1/2-x,1/2-y,-z
1/2+x,1/2-y,1/2+z
loop_
_atom_site_type_symbol
_atom_site_label
_atom_site_fract_x
_atom_site_fract_y
_atom_site_fract_z
Si Si1 0.535163 0.406655 0.348410
Si Si2 0.857777 0.976792 0.831691
Si Si3 0.605948 0.712483 0.665495
Si Si4 0.266227 0.864833 0.569419
Si Si5 0.882597 0.441481 0.208510
Si Si6 0.691898 0.866431 0.088746
Si Si7 0.974407 0.245130 0.408969
Si Si8 0.965510 0.267137 0.954345
O O1 0.448657 0.471115 0.359528
O O2 0.391116 0.356374 0.352327
O O3 0.702575 0.409254 0.268266
O O4 0.631091 0.387210 0.399246
O O5 0.793804 0.921198 0.881649
O O6 0.000000 0.962260 0.750000
O O7 0.685541 0.007014 0.825041
O O8 0.500000 0.720095 0.750000
O O9 0.808914 0.740968 0.637346
O O10 0.497965 0.740795 0.622369
O O11 0.283274 0.878931 0.490808
O O12 0.459235 0.833493 0.558692
O O13 0.108490 0.814963 0.602728
O O14 0.000000 0.463650 0.250000
O O15 0.016659 0.399829 0.147033
O O16 0.637014 0.798771 0.103591
O O17 0.950792 0.245302 0.491044
O O18 0.750000 0.250000 0.000000
#
# Coordination Sequence:
#
# PCOD9264347 Si02
#       8
#     8   8   8   8   8   8   8   8
#     4  10  19  35  58  83 113 144 181 237 292 326
#     4  10  22  39  55  78 117 156 185 223 279 338
#     4  11  20  33  57  85 108 140 196 246 277 326
#     4  11  22  37  57  81 114 155 188 222 281 348
#     4   9  19  37  59  83 110 145 185 234 291 329
#     4  10  19  35  60  85 107 140 193 241 278 332
#     4  10  20  36  56  80 115 150 182 229 291 340
#     4   9  20  38  56  78 111 147 181 231 290 333
#
# _framework density 18.637195999999999
#
# number of rings (size 3 to 8) (size 9 to 14) (size 15 to 20)
#    0.000    2.000    0.000    5.625    0.000    2.000 
#    0.000   11.250    0.000    0.000    0.000    0.000 
#    0.000    0.000    0.000    0.000    0.000    0.000 
#
# Total GULP energy -178441.968182 kJ/mol
# GULP energy per Si atom -5576.311506 kJ/mol
# Density = 1.859478 g / cm^3
# Si number density = 18.637196 Si / 1000 Ang^3
#
#
#
# Elastic Constant Matrix: (Units=GPa)
#
#
# Indices 1 2 3 4 5 6 
#
# 1 118.2492 74.6603 42.4012 0.0000 5.5111 0.0000
# 2 74.6603 136.3409 75.0915 0.0000 12.9792 0.0000
# 3 42.4012 75.0915 93.5105 0.0000 10.9552 0.0000
# 4 0.0000 0.0000 0.0000 31.3615 0.0000 -0.9319
# 5 5.5111 12.9792 10.9552 0.0000 32.5425 0.0000
# 6 0.0000 0.0000 0.0000 -0.9319 0.0000 23.2999
#
#
#
# Elastic Compliance Matrix: (Units=1/GPa)
#
#
# Indices 1 2 3 4 5 6 
#
# 1 0.012946 -0.006953 -0.000369 0.000000 0.000705 0.000000
# 2 -0.006953 0.016983 -0.010233 0.000000 -0.002151 0.000000
# 3 -0.000369 -0.010233 0.019357 0.000000 -0.002372 0.000000
# 4 0.000000 0.000000 0.000000 0.031924 0.000000 0.001277
# 5 0.000705 -0.002151 -0.002372 0.000000 0.032266 0.000000
# 6 0.000000 0.000000 0.000000 0.001277 0.000000 0.042970
#
#
# Mechanical properties :
#
#
# Convention : Reuss Voigt Hill
#
# Bulk Modulus (GPa) = 70.54628 81.37852 75.96240
# Shear Modulus (GPa) = 25.47364 27.83729 26.65546
#
# Velocity S-wave (km/s) = 3.70106 3.86896 3.78594
# Velocity P-wave (km/s) = 7.49656 7.98234 7.74326
#
# Compressibility (1/GPa) = 0.01417509
#
# Stress axis : x y z
#
# Youngs Moduli (GPa) = 77.24170 58.88370 51.66192
#
# Poissons Ratio (x) = 0.40942 0.01909
# Poissons Ratio (y) = 0.53707 0.52864
# Poissons Ratio (z) = 0.02854 0.60254
#
# Static dielectric constant tensor:
#      x y z
#    x 1.708190 0.000000 -0.014790 
#    y 0.000000 1.638970 0.000000 
#    z -0.014790 0.000000 1.652920 
# 
# From -- ./inp_files/233843.got.cif
#   From: 2010.05.17/outbox.cif.g08.bks.cpg/sg15_117_cif.got.tgz:233843.got - 2010.06.03 18:47:42.
