data_PCOD9264063
_publ_section_title
;
Structure prediction by ZEFSAII (Michael W. Deem and Ramdas Pophale) SiO2 
 PCOD9264063
Probable space group: C 2/C
;
_chemical_formula_sum "Si O2"
_cell_formula_units_Z 56
_cell_length_a 13.267490
_cell_length_b 26.999155
_cell_length_c 16.680795
_cell_angle_alpha 90.000000
_cell_angle_beta 32.855275
_cell_angle_gamma 90.000000
_cell_volume 3241.682985
_symmetry_space_group_name_H-M "C 2/C"
_symmetry_group_IT_number 15
_symmetry_cell_setting 'monoclinic'
loop_
_space_group_symop_operation_xyz
x,y,z
-x,y,1/2-z
-x,-y,-z
x,-y,1/2+z
1/2+x,1/2+y,z
1/2-x,1/2+y,1/2-z
1/2-x,1/2-y,-z
1/2+x,1/2-y,1/2+z
loop_
_atom_site_type_symbol
_atom_site_label
_atom_site_fract_x
_atom_site_fract_y
_atom_site_fract_z
Si Si1 0.691529 0.052720 0.653621
Si Si2 0.491404 0.395139 0.059828
Si Si3 0.587307 0.217596 0.063914
Si Si4 0.625513 0.022435 0.345445
Si Si5 0.411989 0.114634 0.229566
Si Si6 0.978529 0.004157 0.859049
Si Si7 0.872088 0.192165 0.754859
O O1 0.500000 0.075413 0.750000
O O2 0.798494 0.025170 0.509836
O O3 0.840118 0.089513 0.594689
O O4 0.637281 0.013015 0.759388
O O5 0.523828 0.443764 0.092656
O O6 0.411078 0.352933 0.170790
O O7 0.691221 0.379509 0.890697
O O8 0.517269 0.166945 0.150537
O O9 0.425322 0.257334 0.174435
O O10 0.750000 0.250000 0.000000
O O11 0.668119 0.200172 0.925739
O O12 0.557483 0.076391 0.363109
O O13 0.837608 0.024525 0.234076
O O14 0.500000 0.000000 0.500000
O O15 0.500000 0.090475 0.250000
O O16 0.000000 0.011271 0.750000
O O17 0.000000 0.185457 0.750000
#
# Coordination Sequence:
#
# PCOD9264063 Si02
#       7
#     8   8   8   8   8   8   8
#     4  11  22  42  56  80 121 159 201 259 295 345
#     4  11  22  37  57  87 116 156 204 242 298 366
#     4  10  21  36  54  84 118 155 193 236 296 365
#     4  11  23  36  56  87 119 157 211 242 298 365
#     4  12  22  35  59  83 121 160 194 242 300 356
#     4  11  22  38  56  83 121 157 203 254 295 355
#     4  10  19  35  54  83 117 149 188 237 291 356
#
# _framework density 17.274977
#
# number of rings (size 3 to 8) (size 9 to 14) (size 15 to 20)
#    0.000    1.143    2.857    6.429    6.000    0.000 
#    0.000    0.000    0.000    0.000    0.000    5.000 
#    0.000    0.000    0.000    0.000    0.000    0.000 
#
# Total GULP energy -156244.924273 kJ/mol
# GULP energy per Si atom -5580.175867 kJ/mol
# Density = 1.723566 g / cm^3
# Si number density = 17.274977 Si / 1000 Ang^3
#
#
#
# Elastic Constant Matrix: (Units=GPa)
#
#
# Indices 1 2 3 4 5 6 
#
# 1 70.5960 21.6643 34.7988 -0.0102 -8.8724 0.0053
# 2 21.6643 92.3008 44.3677 -0.0068 5.5660 0.0055
# 3 34.7988 44.3677 141.1660 0.0204 4.5585 -0.0006
# 4 -0.0102 -0.0068 0.0204 34.5791 -0.0043 3.3399
# 5 -8.8724 5.5660 4.5585 -0.0043 21.8103 -0.0026
# 6 0.0053 0.0055 -0.0006 3.3399 -0.0026 14.8132
#
#
#
# Elastic Compliance Matrix: (Units=1/GPa)
#
#
# Indices 1 2 3 4 5 6 
#
# 1 0.018068 -0.002943 -0.003816 0.000009 0.008899 -0.000006
# 2 -0.002943 0.013371 -0.003351 0.000004 -0.003909 -0.000006
# 3 -0.003816 -0.003351 0.009162 -0.000008 -0.002612 0.000004
# 4 0.000009 0.000004 -0.000008 0.029563 0.000009 -0.006665
# 5 0.008899 -0.003909 -0.002612 0.000009 0.051013 0.000005
# 6 -0.000006 -0.000006 0.000004 -0.006665 0.000005 0.069010
#
#
# Mechanical properties :
#
#
# Convention : Reuss Voigt Hill
#
# Bulk Modulus (GPa) = 49.06510 56.19159 52.62834
# Shear Modulus (GPa) = 23.02009 27.78932 25.40470
#
# Velocity S-wave (km/s) = 3.65440 4.01514 3.83901
# Velocity P-wave (km/s) = 6.80222 7.35483 7.08392
#
# Compressibility (1/GPa) = 0.02038109
#
# Stress axis : x y z
#
# Youngs Moduli (GPa) = 55.34728 74.78681 109.14508
#
# Poissons Ratio (x) = 0.22009 0.41653
# Poissons Ratio (y) = 0.16288 0.36573
# Poissons Ratio (z) = 0.21122 0.25060
#
# Static dielectric constant tensor:
#      x y z
#    x 1.616250 -0.000020 -0.047340 
#    y -0.000020 1.592670 0.000040 
#    z -0.047340 0.000040 1.754960 
# 
# From -- ./inp_files/148514.got.cif
#   From: 2010.05.17/outbox.cif.g08.bks.cpg/sg15_75_cif.got.tgz:148514.got - 2010.06.03 18:47:42.
