data_PCOD9264030
_publ_section_title
;
Structure prediction by ZEFSAII (Michael W. Deem and Ramdas Pophale) SiO2 
 PCOD9264030
Probable space group: C 2/C
;
_chemical_formula_sum "Si O2"
_cell_formula_units_Z 48
_cell_length_a 25.346704
_cell_length_b 11.641437
_cell_length_c 17.809778
_cell_angle_alpha 90.000000
_cell_angle_beta 20.856256
_cell_angle_gamma 90.000000
_cell_volume 1870.969302
_symmetry_space_group_name_H-M "C 2/C"
_symmetry_group_IT_number 15
_symmetry_cell_setting 'monoclinic'
loop_
_space_group_symop_operation_xyz
x,y,z
-x,y,1/2-z
-x,-y,-z
x,-y,1/2+z
1/2+x,1/2+y,z
1/2-x,1/2+y,1/2-z
1/2-x,1/2-y,-z
1/2+x,1/2-y,1/2+z
loop_
_atom_site_type_symbol
_atom_site_label
_atom_site_fract_x
_atom_site_fract_y
_atom_site_fract_z
Si Si1 0.348952 0.475457 0.260490
Si Si2 0.120400 0.095761 0.145312
Si Si3 0.782855 0.870205 0.566745
Si Si4 0.487335 0.748731 0.913299
Si Si5 0.167365 0.470882 0.354978
Si Si6 0.588346 0.065293 0.700094
O O1 0.419193 0.581837 0.214377
O O2 0.295381 0.480537 0.246937
O O3 0.462085 0.371192 0.118305
O O4 0.790288 0.449594 0.770793
O O5 0.000000 0.144333 0.250000
O O6 0.140558 0.963388 0.088676
O O7 0.288390 0.139641 0.921238
O O8 0.896523 0.784048 0.458004
O O9 0.688822 0.973737 0.518366
O O10 0.649906 0.808524 0.698907
O O11 0.376991 0.838227 0.101844
O O12 0.023513 0.519087 0.589835
O O13 0.500000 0.122452 0.750000
#
# Coordination Sequence:
#
# PCOD9264030 Si02
#       6
#     8   8   8   8   8   8
#     4   9  20  37  56  86 121 154 195 248 300 357
#     4  10  19  35  53  88 120 158 186 246 303 364
#     4  12  25  38  59  87 128 163 206 245 302 365
#     4  12  22  39  55  91 123 161 203 240 303 362
#     4  11  22  39  59  85 123 170 202 243 297 369
#     4   8  17  33  55  82 113 158 192 234 293 364
#
# _framework density 25.655151
#
# number of rings (size 3 to 8) (size 9 to 14) (size 15 to 20)
#    1.000    0.667    5.000    0.500    0.000    3.333 
#    6.000    0.000    0.000    0.000    0.000   22.167 
#    0.000    0.000    0.000    0.000    0.000    0.000 
#
# Total GULP energy -133723.721573 kJ/mol
# GULP energy per Si atom -5571.821732 kJ/mol
# Density = 2.559676 g / cm^3
# Si number density = 25.655151 Si / 1000 Ang^3
#
#
#
# Elastic Constant Matrix: (Units=GPa)
#
#
# Indices 1 2 3 4 5 6 
#
# 1 131.3291 30.2063 71.0254 0.0000 -50.5780 0.0000
# 2 30.2063 102.2108 43.7608 0.0000 -14.0755 0.0000
# 3 71.0254 43.7608 122.0977 0.0000 -24.8261 0.0000
# 4 0.0000 0.0000 0.0000 -29.5824 0.0000 32.0076
# 5 -50.5780 -14.0755 -24.8261 0.0000 69.3254 0.0000
# 6 0.0000 0.0000 0.0000 32.0076 0.0000 -32.4316
#
#
#
# Elastic Compliance Matrix: (Units=1/GPa)
#
#
# Indices 1 2 3 4 5 6 
#
# 1 0.014356 -0.000307 -0.006605 0.000000 0.008046 0.000000
# 2 -0.000307 0.011620 -0.003831 0.000000 0.000764 0.000000
# 3 -0.006605 -0.003831 0.013231 0.000000 -0.000859 0.000000
# 4 0.000000 0.000000 0.000000 0.498304 0.000000 0.491790
# 5 0.008046 0.000764 -0.000859 0.000000 0.020142 0.000000
# 6 0.000000 0.000000 0.000000 0.491790 0.000000 0.454527
#
#
# Mechanical properties :
#
#
# Convention : Reuss Voigt Hill
#
# Bulk Modulus (GPa) = 56.42986 71.73583 64.08284
# Shear Modulus (GPa) = 4.80967 15.50529 10.15748
#
# Velocity S-wave (km/s) = 1.37070 2.46107 1.99194
# Velocity P-wave (km/s) = 4.95463 6.00817 5.50665
#
# Compressibility (1/GPa) = 0.01772112
#
# Stress axis : x y z
#
# Youngs Moduli (GPa) = 69.65808 86.06096 75.58110
#
# Poissons Ratio (x) = 0.02639 0.49921
# Poissons Ratio (y) = 0.02136 0.28955
# Poissons Ratio (z) = 0.46009 0.32969
#
# Static dielectric constant tensor:
#      x y z
#    x 2.080480 0.000000 -0.049350 
#    y 0.000000 2.066030 0.000000 
#    z -0.049350 0.000000 2.090210 
# 
# From -- ./inp_files/257733.got.cif
#   From: 2010.05.17/outbox.cif.g08.bks.cpg/sg15_129_cif.got.tgz:257733.got - 2010.06.03 18:47:42.
