data_PCOD9264993
_publ_section_title
;
Structure prediction by ZEFSAII (Michael W. Deem and Ramdas Pophale) SiO2 
 PCOD9264993
Probable space group: C 2/C
;
_chemical_formula_sum "Si O2"
_cell_formula_units_Z 56
_cell_length_a 33.661756
_cell_length_b 15.140347
_cell_length_c 12.175165
_cell_angle_alpha 90.000000
_cell_angle_beta 28.728337
_cell_angle_gamma 90.000000
_cell_volume 2982.517163
_symmetry_space_group_name_H-M "C 2/C"
_symmetry_group_IT_number 15
_symmetry_cell_setting 'monoclinic'
loop_
_space_group_symop_operation_xyz
x,y,z
-x,y,1/2-z
-x,-y,-z
x,-y,1/2+z
1/2+x,1/2+y,z
1/2-x,1/2+y,1/2-z
1/2-x,1/2-y,-z
1/2+x,1/2-y,1/2+z
loop_
_atom_site_type_symbol
_atom_site_label
_atom_site_fract_x
_atom_site_fract_y
_atom_site_fract_z
Si Si1 0.413220 0.683409 0.090272
Si Si2 0.093454 0.628042 0.977503
Si Si3 0.840586 0.030589 0.409347
Si Si4 0.901731 0.133559 0.865682
Si Si5 0.276162 0.118391 0.648469
Si Si6 0.736850 0.210316 0.153337
Si Si7 0.315753 0.044873 0.320059
O O1 0.390883 0.786771 0.137511
O O2 0.372863 0.621594 0.280103
O O3 0.392804 0.640109 0.019678
O O4 0.511966 0.681253 0.865706
O O5 0.153375 0.642111 0.935818
O O6 0.122974 0.536041 0.851618
O O7 0.000000 0.625981 0.250000
O O8 0.779943 0.045352 0.659178
O O9 0.907427 0.963096 0.295690
O O10 0.778921 0.987968 0.468766
O O11 0.822575 0.175976 0.998007
O O12 0.217477 0.202786 0.769615
O O13 0.318551 0.083451 0.435325
O O14 0.676585 0.127055 0.283709
O O15 0.750000 0.250000 0.000000
#
# Coordination Sequence:
#
# PCOD9264993 Si02
#       7
#     8   8   8   8   8   8   8
#     4  11  20  35  57  85 118 154 186 243 299 351
#     4  11  21  38  57  85 116 151 195 235 294 352
#     4  10  21  34  55  87 112 145 195 240 295 347
#     4  10  19  36  56  81 115 152 192 234 297 352
#     4  10  19  37  57  82 113 147 194 243 289 341
#     4   9  17  35  60  76 108 154 196 236 289 347
#     4   9  21  35  56  83 110 152 193 239 288 344
#
# _framework density 18.776085999999999
#
# number of rings (size 3 to 8) (size 9 to 14) (size 15 to 20)
#    0.000    2.000    2.857    1.286    0.000    2.857 
#    7.714    0.000    0.000    0.000    0.000    0.000 
#    0.000    0.000    0.000    0.000    0.000    0.000 
#
# Total GULP energy -155914.437014 kJ/mol
# GULP energy per Si atom -5568.372750 kJ/mol
# Density = 1.873335 g / cm^3
# Si number density = 18.776086 Si / 1000 Ang^3
#
#
#
# Elastic Constant Matrix: (Units=GPa)
#
#
# Indices 1 2 3 4 5 6 
#
# 1 59.8102 28.0052 7.0030 0.0000 -0.0089 0.0000
# 2 28.0052 124.7941 10.5612 0.0000 3.7807 0.0000
# 3 7.0030 10.5612 15.2488 0.0000 2.6176 0.0000
# 4 0.0000 0.0000 0.0000 23.6265 0.0000 -3.5735
# 5 -0.0089 3.7807 2.6176 0.0000 15.4678 0.0000
# 6 0.0000 0.0000 0.0000 -3.5735 0.0000 39.9266
#
#
#
# Elastic Compliance Matrix: (Units=1/GPa)
#
#
# Indices 1 2 3 4 5 6 
#
# 1 0.019283 -0.003835 -0.006553 0.000000 0.002057 0.000000
# 2 -0.003835 0.009294 -0.004413 0.000000 -0.001527 0.000000
# 3 -0.006553 -0.004413 0.073598 0.000000 -0.011380 0.000000
# 4 0.000000 0.000000 0.000000 0.042906 0.000000 0.003840
# 5 0.002057 -0.001527 -0.011380 0.000000 0.066951 0.000000
# 6 0.000000 0.000000 0.000000 0.003840 0.000000 0.025390
#
#
# Mechanical properties :
#
#
# Convention : Reuss Voigt Hill
#
# Bulk Modulus (GPa) = 13.77927 32.33242 23.05585
# Shear Modulus (GPa) = 17.16948 26.08976 21.62962
#
# Velocity S-wave (km/s) = 3.02724 3.73167 3.39776
# Velocity P-wave (km/s) = 4.42420 5.98536 5.26299
#
# Compressibility (1/GPa) = 0.07257277
#
# Stress axis : x y z
#
# Youngs Moduli (GPa) = 51.85965 107.60111 13.58725
#
# Poissons Ratio (x) = 0.41266 0.08903
# Poissons Ratio (y) = 0.19889 0.05996
# Poissons Ratio (z) = 0.33982 0.47487
#
# Static dielectric constant tensor:
#      x y z
#    x 1.678720 0.000000 -0.015570 
#    y 0.000000 1.728390 0.000000 
#    z -0.015570 0.000000 1.628420 
# 
# From -- ./inp_files/126974.got.cif
#   From: 2010.05.17/outbox.cif.g08.bks.cpg/sg15_64_cif.got.tgz:126974.got - 2010.06.03 18:47:42.
