data_PCOD9264932
_publ_section_title
;
Structure prediction by ZEFSAII (Michael W. Deem and Ramdas Pophale) SiO2 
 PCOD9264932
Probable space group: C 2/C
;
_chemical_formula_sum "Si O2"
_cell_formula_units_Z 52
_cell_length_a 18.888569
_cell_length_b 25.769491
_cell_length_c 9.171033
_cell_angle_alpha 90.000000
_cell_angle_beta 141.694631
_cell_angle_gamma 90.000000
_cell_volume 2767.015286
_symmetry_space_group_name_H-M "C 2/C"
_symmetry_group_IT_number 15
_symmetry_cell_setting 'monoclinic'
loop_
_space_group_symop_operation_xyz
x,y,z
-x,y,1/2-z
-x,-y,-z
x,-y,1/2+z
1/2+x,1/2+y,z
1/2-x,1/2+y,1/2-z
1/2-x,1/2-y,-z
1/2+x,1/2-y,1/2+z
loop_
_atom_site_type_symbol
_atom_site_label
_atom_site_fract_x
_atom_site_fract_y
_atom_site_fract_z
Si Si1 0.000000 0.592412 0.750000
Si Si2 0.999650 0.215661 0.921704
Si Si3 0.747503 0.680068 0.882428
Si Si4 0.140006 0.427048 0.999026
Si Si5 0.079114 0.682025 0.066550
Si Si6 0.124146 0.484804 0.263839
Si Si7 0.738086 0.726170 0.324385
O O1 0.975325 0.627605 0.566960
O O2 0.898355 0.554793 0.638393
O O3 0.886150 0.185690 0.790072
O O4 0.999440 0.270748 0.006859
O O5 0.000000 0.225467 0.750000
O O6 0.124280 0.191253 0.145787
O O7 0.772099 0.728231 0.814080
O O8 0.792843 0.626879 0.888267
O O9 0.824106 0.682231 0.152098
O O10 0.174830 0.463444 0.918217
O O11 0.000000 0.419330 0.750000
O O12 0.173286 0.456456 0.202192
O O13 0.147360 0.696656 0.031494
O O14 0.000000 0.500000 0.000000
O O15 0.750000 0.750000 0.500000
#
# Coordination Sequence:
#
# PCOD9264932 Si02
#       7
#     4   8   8   8   8   8   8
#     4  12  22  32  58  92 122 156 198 244 306 358
#     4  11  20  40  57  78 121 158 198 247 279 350
#     4  11  23  36  59  85 113 163 201 230 304 357
#     4  10  21  35  56  87 119 151 191 245 299 360
#     4  11  22  34  54  86 115 159 202 231 291 363
#     4  10  19  36  54  82 123 149 189 251 301 351
#     4  11  23  38  56  85 119 156 197 247 287 347
#
# _framework density 18.792812000000001
#
# number of rings (size 3 to 8) (size 9 to 14) (size 15 to 20)
#    0.000    1.231    5.385    3.692    6.462    1.846 
#    0.000    0.000    0.000    0.000    0.000    4.308 
#    0.000    0.000    0.000    0.000    0.000    0.000 
#
# Total GULP energy -144875.919772 kJ/mol
# GULP energy per Si atom -5572.150760 kJ/mol
# Density = 1.875004 g / cm^3
# Si number density = 18.792812 Si / 1000 Ang^3
#
#
#
# Elastic Constant Matrix: (Units=GPa)
#
#
# Indices 1 2 3 4 5 6 
#
# 1 79.1923 9.5778 17.4536 0.0000 7.9932 0.0000
# 2 9.5778 77.4761 5.6332 0.0000 7.8278 0.0000
# 3 17.4536 5.6332 44.1520 0.0000 -2.4566 0.0000
# 4 0.0000 0.0000 0.0000 20.6448 0.0000 -2.5567
# 5 7.9932 7.8278 -2.4566 0.0000 28.1364 0.0000
# 6 0.0000 0.0000 0.0000 -2.5567 0.0000 26.8641
#
#
#
# Elastic Compliance Matrix: (Units=1/GPa)
#
#
# Indices 1 2 3 4 5 6 
#
# 1 0.014468 -0.000923 -0.005844 0.000000 -0.004364 0.000000
# 2 -0.000923 0.013501 -0.001560 0.000000 -0.003630 0.000000
# 3 -0.005844 -0.001560 0.025398 0.000000 0.004312 0.000000
# 4 0.000000 0.000000 0.000000 0.049016 0.000000 0.004665
# 5 -0.004364 -0.003630 0.004312 0.000000 0.038167 0.000000
# 6 0.000000 0.000000 0.000000 0.004665 0.000000 0.037668
#
#
# Mechanical properties :
#
#
# Convention : Reuss Voigt Hill
#
# Bulk Modulus (GPa) = 27.23776 29.57218 28.40497
# Shear Modulus (GPa) = 24.14174 26.33945 25.24059
#
# Velocity S-wave (km/s) = 3.58806 3.74782 3.66881
# Velocity P-wave (km/s) = 5.62945 5.87352 5.75278
#
# Compressibility (1/GPa) = 0.03671374
#
# Stress axis : x y z
#
# Youngs Moduli (GPa) = 69.12019 74.06602 39.37291
#
# Poissons Ratio (x) = 0.06834 0.23010
# Poissons Ratio (y) = 0.06378 0.06142
# Poissons Ratio (z) = 0.40395 0.11553
#
# Static dielectric constant tensor:
#      x y z
#    x 1.702300 0.000000 -0.005210 
#    y 0.000000 1.697870 0.000000 
#    z -0.005210 0.000000 1.704710 
# 
# From -- ./inp_files/33490.got.cif
#   From: 2010.05.17/outbox.cif.g08.bks.cpg/sg15_17_cif.got.tgz:33490.got - 2010.06.03 18:47:42.
