data_PCOD9264926
_publ_section_title
;
Structure prediction by ZEFSAII (Michael W. Deem and Ramdas Pophale) SiO2 
 PCOD9264926
Probable space group: C 2/C
;
_chemical_formula_sum "Si O2"
_cell_formula_units_Z 48
_cell_length_a 9.124522
_cell_length_b 11.800480
_cell_length_c 19.768766
_cell_angle_alpha 90.000000
_cell_angle_beta 112.683787
_cell_angle_gamma 90.000000
_cell_volume 1963.925682
_symmetry_space_group_name_H-M "C 2/C"
_symmetry_group_IT_number 15
_symmetry_cell_setting 'monoclinic'
loop_
_space_group_symop_operation_xyz
x,y,z
-x,y,1/2-z
-x,-y,-z
x,-y,1/2+z
1/2+x,1/2+y,z
1/2-x,1/2+y,1/2-z
1/2-x,1/2-y,-z
1/2+x,1/2-y,1/2+z
loop_
_atom_site_type_symbol
_atom_site_label
_atom_site_fract_x
_atom_site_fract_y
_atom_site_fract_z
Si Si1 0.884346 0.556681 0.883326
Si Si2 0.078191 0.923388 0.588042
Si Si3 0.906847 0.694449 0.672570
Si Si4 0.157674 0.389442 0.979106
Si Si5 0.672308 0.954765 0.766014
Si Si6 0.577553 0.318782 0.051135
O O1 0.962533 0.664032 0.860360
O O2 0.791146 0.589678 0.934077
O O3 0.806646 0.484381 0.809047
O O4 0.035474 0.487160 0.936375
O O5 0.209740 0.896662 0.554069
O O6 0.172997 0.899290 0.673573
O O7 0.928991 0.855664 0.529793
O O8 0.048761 0.058430 0.580471
O O9 0.853334 0.573801 0.697964
O O10 0.743009 0.731445 0.608780
O O11 0.000000 0.755956 0.750000
O O12 0.056242 0.274345 0.958532
O O13 0.500000 0.895173 0.750000
#
# Coordination Sequence:
#
# PCOD9264926 Si02
#       6
#     8   8   8   8   8   8
#     4   9  18  32  54  78 108 146 196 233 295 355
#     4  10  19  36  54  81 116 151 194 244 298 354
#     4   8  15  34  56  74 104 155 194 229 295 360
#     4  11  19  32  53  87 109 145 191 247 290 351
#     4   8  13  31  55  68 101 155 186 225 293 355
#     4  10  20  32  56  85 111 151 198 243 292 359
#
# _framework density 24.440844999999999
#
# number of rings (size 3 to 8) (size 9 to 14) (size 15 to 20)
#    0.000    3.000    5.000    0.500    0.000    0.667 
#    0.000    5.000    0.000   16.000    0.000    0.000 
#    0.000    0.000    0.000    0.000    0.000    0.000 
#
# Total GULP energy -133841.276918 kJ/mol
# GULP energy per Si atom -5576.719872 kJ/mol
# Density = 2.438522 g / cm^3
# Si number density = 24.440845 Si / 1000 Ang^3
#
#
#
# Elastic Constant Matrix: (Units=GPa)
#
#
# Indices 1 2 3 4 5 6 
#
# 1 76.2797 34.0038 68.5365 0.0000 -3.9418 0.0000
# 2 34.0038 61.2784 36.3512 0.0000 -4.6322 0.0000
# 3 68.5365 36.3512 218.8948 0.0000 10.8184 0.0000
# 4 0.0000 0.0000 0.0000 15.1159 0.0000 -9.2577
# 5 -3.9418 -4.6322 10.8184 0.0000 51.3370 0.0000
# 6 0.0000 0.0000 0.0000 -9.2577 0.0000 21.4891
#
#
#
# Elastic Compliance Matrix: (Units=1/GPa)
#
#
# Indices 1 2 3 4 5 6 
#
# 1 0.022165 -0.008835 -0.005576 0.000000 0.002080 0.000000
# 2 -0.008835 0.021894 -0.000944 0.000000 0.001496 0.000000
# 3 -0.005576 -0.000944 0.006565 0.000000 -0.001897 0.000000
# 4 0.000000 0.000000 0.000000 0.089867 0.000000 0.038715
# 5 0.002080 0.001496 -0.001897 0.000000 0.020173 0.000000
# 6 0.000000 0.000000 0.000000 0.038715 0.000000 0.063214
#
#
# Mechanical properties :
#
#
# Convention : Reuss Voigt Hill
#
# Bulk Modulus (GPa) = 50.21117 70.47066 60.34091
# Shear Modulus (GPa) = 19.14057 32.09248 25.61652
#
# Velocity S-wave (km/s) = 2.80150 3.62756 3.24095
# Velocity P-wave (km/s) = 5.57253 6.81479 6.22472
#
# Compressibility (1/GPa) = 0.01991589
#
# Stress axis : x y z
#
# Youngs Moduli (GPa) = 45.11599 45.67384 152.33304
#
# Poissons Ratio (x) = 0.40352 0.84934
# Poissons Ratio (y) = 0.39859 0.14375
# Poissons Ratio (z) = 0.25155 0.04310
#
# Static dielectric constant tensor:
#      x y z
#    x 1.972980 0.000000 0.065110 
#    y 0.000000 2.001960 0.000000 
#    z 0.065110 0.000000 2.050800 
# 
# From -- ./inp_files/243473.got.cif
#   From: 2010.05.17/outbox.cif.g08.bks.cpg/sg15_122_cif.got.tgz:243473.got - 2010.06.03 18:47:42.
