data_PCOD9264565
_publ_section_title
;
Structure prediction by ZEFSAII (Michael W. Deem and Ramdas Pophale) SiO2 
 PCOD9264565
Probable space group: C 2/C
;
_chemical_formula_sum "Si O2"
_cell_formula_units_Z 56
_cell_length_a 16.735183
_cell_length_b 14.344450
_cell_length_c 14.088216
_cell_angle_alpha 90.000000
_cell_angle_beta 129.153074
_cell_angle_gamma 90.000000
_cell_volume 2622.592507
_symmetry_space_group_name_H-M "C 2/C"
_symmetry_group_IT_number 15
_symmetry_cell_setting 'monoclinic'
loop_
_space_group_symop_operation_xyz
x,y,z
-x,y,1/2-z
-x,-y,-z
x,-y,1/2+z
1/2+x,1/2+y,z
1/2-x,1/2+y,1/2-z
1/2-x,1/2-y,-z
1/2+x,1/2-y,1/2+z
loop_
_atom_site_type_symbol
_atom_site_label
_atom_site_fract_x
_atom_site_fract_y
_atom_site_fract_z
Si Si1 0.609551 0.133496 0.823710
Si Si2 0.355579 0.332561 0.728969
Si Si3 0.008635 0.287195 0.891009
Si Si4 0.343506 0.410869 0.505473
Si Si5 0.124153 0.895556 0.549790
Si Si6 0.123577 0.287688 0.543483
Si Si7 0.674694 0.817356 0.884665
O O1 0.500000 0.081116 0.750000
O O2 0.598588 0.227849 0.751277
O O3 0.719738 0.085263 0.889420
O O4 0.623956 0.173313 0.939158
O O5 0.361488 0.385251 0.631060
O O6 0.393538 0.386647 0.850366
O O7 0.236573 0.312886 0.664102
O O8 0.093380 0.352418 0.903518
O O9 0.965108 0.326173 0.956412
O O10 0.907367 0.272556 0.749935
O O11 0.061602 0.188392 0.953402
O O12 0.397460 0.504803 0.512638
O O13 0.382249 0.323318 0.473278
O O14 0.245028 0.879066 0.613098
O O15 0.750000 0.750000 0.000000
#
# Coordination Sequence:
#
# PCOD9264565 Si02
#       7
#     8   8   8   8   8   8   8
#     4   9  17  34  58  83 109 153 206 240 284 360
#     4   9  18  36  58  80 116 162 191 241 295 351
#     4  10  19  35  60  86 104 155 201 228 284 359
#     4   9  21  36  53  89 122 151 190 255 302 343
#     4  11  20  37  59  86 122 154 191 252 303 334
#     4   9  17  35  60  79 112 148 203 236 290 360
#     4   9  20  37  56  80 111 154 197 233 276 347
#
# _framework density 21.352917000000001
#
# number of rings (size 3 to 8) (size 9 to 14) (size 15 to 20)
#    0.000    2.571    1.429    2.571    0.000    0.571 
#   10.286    0.000    9.429    3.429    0.000    0.000 
#    0.000    0.000    0.000    0.000    0.000    0.000 
#
# Total GULP energy -155915.586935 kJ/mol
# GULP energy per Si atom -5568.413819 kJ/mol
# Density = 2.130432 g / cm^3
# Si number density = 21.352917 Si / 1000 Ang^3
#
#
#
# Elastic Constant Matrix: (Units=GPa)
#
#
# Indices 1 2 3 4 5 6 
#
# 1 115.6720 9.0897 33.0882 0.0000 -0.3840 0.0000
# 2 9.0897 42.6299 28.0597 0.0000 -8.2061 0.0000
# 3 33.0882 28.0597 64.1357 0.0000 0.6678 0.0000
# 4 0.0000 0.0000 0.0000 12.9959 0.0000 -1.8653
# 5 -0.3840 -8.2061 0.6678 0.0000 45.9483 0.0000
# 6 0.0000 0.0000 0.0000 -1.8653 0.0000 19.1526
#
#
#
# Elastic Compliance Matrix: (Units=1/GPa)
#
#
# Indices 1 2 3 4 5 6 
#
# 1 0.010253 0.001967 -0.006156 0.000000 0.000526 0.000000
# 2 0.001967 0.035122 -0.016449 0.000000 0.006528 0.000000
# 3 -0.006156 -0.016449 0.025999 0.000000 -0.003367 0.000000
# 4 0.000000 0.000000 0.000000 0.078038 0.000000 0.007600
# 5 0.000526 0.006528 -0.003367 0.000000 0.022983 0.000000
# 6 0.000000 0.000000 0.000000 0.007600 0.000000 0.052952
#
#
# Mechanical properties :
#
#
# Convention : Reuss Voigt Hill
#
# Bulk Modulus (GPa) = 33.22357 40.32366 36.77361
# Shear Modulus (GPa) = 18.07304 25.76604 21.91954
#
# Velocity S-wave (km/s) = 2.91245 3.47749 3.20744
# Velocity P-wave (km/s) = 5.18679 5.92025 5.56561
#
# Compressibility (1/GPa) = 0.03009912
#
# Stress axis : x y z
#
# Youngs Moduli (GPa) = 97.53073 28.47242 38.46276
#
# Poissons Ratio (x) = -0.05600 0.23677
# Poissons Ratio (y) = -0.19184 0.63266
# Poissons Ratio (z) = 0.60037 0.46833
#
# Static dielectric constant tensor:
#      x y z
#    x 1.844010 0.000000 0.033000 
#    y 0.000000 1.762070 0.000000 
#    z 0.033000 0.000000 1.826570 
# 
# From -- ./inp_files/162304.got.cif
#   From: 2010.05.17/outbox.cif.g08.bks.cpg/sg15_82_cif.got.tgz:162304.got - 2010.06.03 18:47:42.
