data_PCOD9264189
_publ_section_title
;
Structure prediction by ZEFSAII (Michael W. Deem and Ramdas Pophale) SiO2 
 PCOD9264189
Probable space group: C 2/C
;
_chemical_formula_sum "Si O2"
_cell_formula_units_Z 40
_cell_length_a 23.684267
_cell_length_b 14.505714
_cell_length_c 8.616347
_cell_angle_alpha 90.000000
_cell_angle_beta 134.657596
_cell_angle_gamma 90.000000
_cell_volume 2105.654779
_symmetry_space_group_name_H-M "C 2/C"
_symmetry_group_IT_number 15
_symmetry_cell_setting 'monoclinic'
loop_
_space_group_symop_operation_xyz
x,y,z
-x,y,1/2-z
-x,-y,-z
x,-y,1/2+z
1/2+x,1/2+y,z
1/2-x,1/2+y,1/2-z
1/2-x,1/2-y,-z
1/2+x,1/2-y,1/2+z
loop_
_atom_site_type_symbol
_atom_site_label
_atom_site_fract_x
_atom_site_fract_y
_atom_site_fract_z
Si Si1 0.230149 0.135257 0.697961
Si Si2 0.798704 0.981747 0.631354
Si Si3 0.440179 0.694182 0.257899
Si Si4 0.147189 0.795664 0.602272
Si Si5 0.051245 0.090769 0.701287
O O1 0.252094 0.068840 0.596989
O O2 0.137404 0.159690 0.486683
O O3 0.282377 0.226280 0.798145
O O4 0.239248 0.070500 0.863461
O O5 0.821075 0.898095 0.790481
O O6 0.879510 0.022439 0.714818
O O7 0.500000 0.741129 0.250000
O O8 0.400592 0.738762 0.336609
O O9 0.495930 0.617661 0.450011
O O10 0.091536 0.815958 0.347933
O O11 0.000000 0.057097 0.750000
#
# Coordination Sequence:
#
# PCOD9264189 Si02
#       5
#     8   8   8   8   8
#     4  11  23  38  56  85 121 154 194 229 284 345
#     4  11  20  37  55  84 117 152 191 222 290 338
#     4  10  19  35  56  87 117 154 177 232 293 353
#     4  10  23  39  54  82 123 156 191 232 277 348
#     4  10  21  36  56  86 122 152 180 232 297 354
#
# _framework density 18.996466000000002
#
# number of rings (size 3 to 8) (size 9 to 14) (size 15 to 20)
#    0.000    1.600    4.000    2.400    0.000   11.200 
#    0.000    0.000    0.000    0.000    0.000   44.800 
#    0.000    0.000    0.000    0.000    0.000    0.000 
#
# Total GULP energy -111475.025882 kJ/mol
# GULP energy per Si atom -5573.751294 kJ/mol
# Density = 1.895323 g / cm^3
# Si number density = 18.996466 Si / 1000 Ang^3
#
#
#
# Elastic Constant Matrix: (Units=GPa)
#
#
# Indices 1 2 3 4 5 6 
#
# 1 86.5345 67.8751 30.6833 0.0000 10.9736 0.0000
# 2 67.8751 94.1479 39.9736 0.0000 13.3610 0.0000
# 3 30.6833 39.9736 58.9850 0.0000 5.8295 0.0000
# 4 0.0000 0.0000 0.0000 28.1023 0.0000 10.3957
# 5 10.9736 13.3610 5.8295 0.0000 10.7849 0.0000
# 6 0.0000 0.0000 0.0000 10.3957 0.0000 21.5500
#
#
#
# Elastic Compliance Matrix: (Units=1/GPa)
#
#
# Indices 1 2 3 4 5 6 
#
# 1 0.026797 -0.018250 -0.001174 0.000000 -0.004022 0.000000
# 2 -0.018250 0.029557 -0.009247 0.000000 -0.013049 0.000000
# 3 -0.001174 -0.009247 0.023855 0.000000 -0.000243 0.000000
# 4 0.000000 0.000000 0.000000 0.043314 0.000000 -0.020894
# 5 -0.004022 -0.013049 -0.000243 0.000000 0.113113 0.000000
# 6 0.000000 0.000000 0.000000 -0.020894 0.000000 0.056483
#
#
# Mechanical properties :
#
#
# Convention : Reuss Voigt Hill
#
# Bulk Modulus (GPa) = 43.73269 57.41459 50.57364
# Shear Modulus (GPa) = 13.96323 18.82978 16.39651
#
# Velocity S-wave (km/s) = 2.71411 3.15179 2.94110
# Velocity P-wave (km/s) = 5.73527 6.59807 6.18174
#
# Compressibility (1/GPa) = 0.02286619
#
# Stress axis : x y z
#
# Youngs Moduli (GPa) = 37.31757 33.83339 41.91951
#
# Poissons Ratio (x) = 0.61745 0.04923
# Poissons Ratio (y) = 0.68103 0.38764
# Poissons Ratio (z) = 0.04382 0.31287
#
# Static dielectric constant tensor:
#      x y z
#    x 1.740880 0.000000 -0.046950 
#    y 0.000000 1.642800 0.000000 
#    z -0.046950 0.000000 1.714110 
# 
# From -- ./inp_files/55510.got.cif
#   From: 2010.05.17/outbox.cif.g08.bks.cpg/sg15_28_cif.got.tgz:55510.got - 2010.06.03 18:47:42.
