data_PCOD9264651
_publ_section_title
;
Structure prediction by ZEFSAII (Michael W. Deem and Ramdas Pophale) SiO2 
 PCOD9264651
Probable space group: C 2/C
;
_chemical_formula_sum "Si O2"
_cell_formula_units_Z 44
_cell_length_a 7.763234
_cell_length_b 31.211894
_cell_length_c 13.301363
_cell_angle_alpha 90.000000
_cell_angle_beta 140.076959
_cell_angle_gamma 90.000000
_cell_volume 2068.379844
_symmetry_space_group_name_H-M "C 2/C"
_symmetry_group_IT_number 15
_symmetry_cell_setting 'monoclinic'
loop_
_space_group_symop_operation_xyz
x,y,z
-x,y,1/2-z
-x,-y,-z
x,-y,1/2+z
1/2+x,1/2+y,z
1/2-x,1/2+y,1/2-z
1/2-x,1/2-y,-z
1/2+x,1/2-y,1/2+z
loop_
_atom_site_type_symbol
_atom_site_label
_atom_site_fract_x
_atom_site_fract_y
_atom_site_fract_z
Si Si1 0.117750 0.871910 0.462675
Si Si2 0.030253 0.461877 0.141980
Si Si3 0.445180 0.869685 0.411843
Si Si4 0.000000 0.752492 0.750000
Si Si5 0.088560 0.189466 0.470892
Si Si6 0.102582 0.970745 0.454251
O O1 0.332687 0.860616 0.472682
O O2 0.161448 0.921765 0.509673
O O3 0.818962 0.868370 0.278472
O O4 0.104254 0.841222 0.552145
O O5 0.948083 0.418396 0.049752
O O6 0.345246 0.468407 0.267683
O O7 0.000000 0.454156 0.250000
O O8 0.863063 0.503467 0.037928
O O9 0.675471 0.838364 0.476177
O O10 0.050200 0.782451 0.676726
O O11 0.745752 0.722536 0.613294
O O12 0.000000 0.000000 0.500000
#
# Coordination Sequence:
#
# PCOD9264651 Si02
#       6
#     8   8   8   4   8   8
#     4  10  20  35  61  88 118 159 209 247 307 373
#     4   9  17  31  53  83 120 165 213 258 306 364
#     4  10  19  35  61  87 116 161 206 251 305 372
#     4  10  24  38  70  88 120 154 206 244 332 374
#     4  11  20  44  61  92 118 159 193 262 305 384
#     4   9  17  31  52  82 117 167 208 258 304 363
#
# _framework density 21.272687999999999
#
# number of rings (size 3 to 8) (size 9 to 14) (size 15 to 20)
#    0.000    2.182    1.818    3.273    0.000    0.727 
#    0.000   13.636    0.000    2.182    0.000    0.000 
#    0.000    0.000    0.000    0.000    0.000    0.000 
#
# Total GULP energy -122921.143227 kJ/mol
# GULP energy per Si atom -5587.324692 kJ/mol
# Density = 2.122427 g / cm^3
# Si number density = 21.272688 Si / 1000 Ang^3
#
#
#
# Elastic Constant Matrix: (Units=GPa)
#
#
# Indices 1 2 3 4 5 6 
#
# 1 147.7162 80.9539 28.0674 0.0000 -14.4323 0.0000
# 2 80.9539 172.6556 54.6484 0.0000 -9.3704 0.0000
# 3 28.0674 54.6484 45.5782 0.0000 -8.1445 0.0000
# 4 0.0000 0.0000 0.0000 14.0604 0.0000 3.5305
# 5 -14.4323 -9.3704 -8.1445 0.0000 17.8741 0.0000
# 6 0.0000 0.0000 0.0000 3.5305 0.0000 11.6606
#
#
#
# Elastic Compliance Matrix: (Units=1/GPa)
#
#
# Indices 1 2 3 4 5 6 
#
# 1 0.009621 -0.004268 0.000198 0.000000 0.005620 0.000000
# 2 -0.004268 0.011229 -0.011321 0.000000 -0.002718 0.000000
# 3 0.000198 -0.011321 0.037406 0.000000 0.011269 0.000000
# 4 0.000000 0.000000 0.000000 0.076974 0.000000 -0.023305
# 5 0.005620 -0.002718 0.011269 0.000000 0.064195 0.000000
# 6 0.000000 0.000000 0.000000 -0.023305 0.000000 0.092815
#
#
# Mechanical properties :
#
#
# Convention : Reuss Voigt Hill
#
# Bulk Modulus (GPa) = 36.39998 77.03215 56.71607
# Shear Modulus (GPa) = 15.05210 22.20436 18.62823
#
# Velocity S-wave (km/s) = 2.66292 3.23429 2.96241
# Velocity P-wave (km/s) = 5.15782 7.08787 6.19843
#
# Compressibility (1/GPa) = 0.02747254
#
# Stress axis : x y z
#
# Youngs Moduli (GPa) = 103.94436 89.05612 26.73384
#
# Poissons Ratio (x) = 0.38013 -0.00529
# Poissons Ratio (y) = 0.44367 0.30264
# Poissons Ratio (z) = -0.02055 1.00817
#
# Static dielectric constant tensor:
#      x y z
#    x 1.785890 0.000000 0.014470 
#    y 0.000000 1.765550 0.000000 
#    z 0.014470 0.000000 1.760330 
# 
# From -- ./inp_files/139335.got.cif
#   From: 2010.05.17/outbox.cif.g08.bks.cpg/sg15_70_cif.got.tgz:139335.got - 2010.06.03 18:47:42.
