data_PCOD9264338
_publ_section_title
;
Structure prediction by ZEFSAII (Michael W. Deem and Ramdas Pophale) SiO2 
 PCOD9264338
Probable space group: C 2/C
;
_chemical_formula_sum "Si O2"
_cell_formula_units_Z 40
_cell_length_a 11.482826
_cell_length_b 31.275834
_cell_length_c 7.717097
_cell_angle_alpha 90.000000
_cell_angle_beta 44.956904
_cell_angle_gamma 90.000000
_cell_volume 1958.257222
_symmetry_space_group_name_H-M "C 2/C"
_symmetry_group_IT_number 15
_symmetry_cell_setting 'monoclinic'
loop_
_space_group_symop_operation_xyz
x,y,z
-x,y,1/2-z
-x,-y,-z
x,-y,1/2+z
1/2+x,1/2+y,z
1/2-x,1/2+y,1/2-z
1/2-x,1/2-y,-z
1/2+x,1/2-y,1/2+z
loop_
_atom_site_type_symbol
_atom_site_label
_atom_site_fract_x
_atom_site_fract_y
_atom_site_fract_z
Si Si1 0.632760 0.724750 0.491381
Si Si2 0.325956 0.448044 0.709407
Si Si3 0.548515 0.196485 0.499664
Si Si4 0.004257 0.602215 0.532286
Si Si5 0.192262 0.952467 0.355248
O O1 0.750000 0.750000 0.500000
O O2 0.536354 0.761908 0.491817
O O3 0.500000 0.700125 0.750000
O O4 0.755075 0.698967 0.239270
O O5 0.516076 0.438803 0.460243
O O6 0.289350 0.497031 0.696988
O O7 0.180455 0.417773 0.795944
O O8 0.319778 0.446115 0.925061
O O9 0.500000 0.197098 0.750000
O O10 0.487960 0.151166 0.490212
O O11 0.000000 0.602179 0.750000
O O12 0.852141 0.573634 0.628589
#
# Coordination Sequence:
#
# PCOD9264338 Si02
#       5
#     8   8   8   8   8
#     4   9  19  37  56  75 109 147 171 216 287 337
#     4   9  17  31  50  72 104 140 176 214 266 318
#     4  10  19  35  58  83 106 137 191 229 268 333
#     4   9  18  32  51  79 106 134 174 228 271 311
#     4   9  17  31  50  72 104 140 174 215 265 318
#
# _framework density 20.426327000000001
#
# number of rings (size 3 to 8) (size 9 to 14) (size 15 to 20)
#    0.000    2.800    0.000    1.200    0.000    0.000 
#    7.200    6.000    4.400    0.000    0.000    0.000 
#    0.000    0.000    0.000    0.000    0.000    0.000 
#
# Total GULP energy -111499.168872 kJ/mol
# GULP energy per Si atom -5574.958444 kJ/mol
# Density = 2.037984 g / cm^3
# Si number density = 20.426327 Si / 1000 Ang^3
#
#
#
# Elastic Constant Matrix: (Units=GPa)
#
#
# Indices 1 2 3 4 5 6 
#
# 1 44.4611 22.2018 37.7686 0.0000 -13.3343 0.0000
# 2 22.2018 62.2537 26.8248 0.0000 -20.9796 0.0000
# 3 37.7686 26.8248 107.4641 0.0000 -20.4614 0.0000
# 4 0.0000 0.0000 0.0000 -2.6584 0.0000 -6.4007
# 5 -13.3343 -20.9796 -20.4614 0.0000 28.5935 0.0000
# 6 0.0000 0.0000 0.0000 -6.4007 0.0000 5.1855
#
#
#
# Elastic Compliance Matrix: (Units=1/GPa)
#
#
# Indices 1 2 3 4 5 6 
#
# 1 0.035789 -0.006964 -0.009997 0.000000 0.004426 0.000000
# 2 -0.006964 0.023402 -0.000860 0.000000 0.013307 0.000000
# 3 -0.009997 -0.000860 0.013923 0.000000 0.004670 0.000000
# 4 0.000000 0.000000 0.000000 -0.094706 0.000000 -0.116900
# 5 0.004426 0.013307 0.004670 0.000000 0.050143 0.000000
# 6 0.000000 0.000000 0.000000 -0.116900 0.000000 0.048552
#
#
# Mechanical properties :
#
#
# Convention : Reuss Voigt Hill
#
# Bulk Modulus (GPa) = 26.68725 43.08546 34.88636
# Shear Modulus (GPa) = 39.92459 14.71636 27.32048
#
# Velocity S-wave (km/s) = 4.42584 2.68705 3.66117
# Velocity P-wave (km/s) = 6.26186 5.54670 5.91510
#
# Compressibility (1/GPa) = 0.03747107
#
# Stress axis : x y z
#
# Youngs Moduli (GPa) = 27.94165 42.73096 71.82461
#
# Poissons Ratio (x) = 0.29759 0.71803
# Poissons Ratio (y) = 0.19459 0.06178
# Poissons Ratio (z) = 0.27933 0.03676
#
# Static dielectric constant tensor:
#      x y z
#    x 1.737480 0.000000 0.007240 
#    y 0.000000 1.871150 0.000000 
#    z 0.007240 0.000000 1.786350 
# 
# From -- ./inp_files/33874.got.cif
#   From: 2010.05.17/outbox.cif.g08.bks.cpg/sg15_17_cif.got.tgz:33874.got - 2010.06.03 18:47:42.
