data_PCOD9264168
_publ_section_title
;
Structure prediction by ZEFSAII (Michael W. Deem and Ramdas Pophale) SiO2 
 PCOD9264168
Probable space group: C 2/C
;
_chemical_formula_sum "Si O2"
_cell_formula_units_Z 40
_cell_length_a 7.958949
_cell_length_b 12.740305
_cell_length_c 17.348451
_cell_angle_alpha 90.000000
_cell_angle_beta 54.242425
_cell_angle_gamma 90.000000
_cell_volume 1427.522709
_symmetry_space_group_name_H-M "C 2/C"
_symmetry_group_IT_number 15
_symmetry_cell_setting 'monoclinic'
loop_
_space_group_symop_operation_xyz
x,y,z
-x,y,1/2-z
-x,-y,-z
x,-y,1/2+z
1/2+x,1/2+y,z
1/2-x,1/2+y,1/2-z
1/2-x,1/2-y,-z
1/2+x,1/2-y,1/2+z
loop_
_atom_site_type_symbol
_atom_site_label
_atom_site_fract_x
_atom_site_fract_y
_atom_site_fract_z
Si Si1 0.723704 0.396895 0.871867
Si Si2 0.231596 0.912441 0.465957
Si Si3 0.823702 0.337637 0.127003
Si Si4 0.246085 0.939165 0.688186
Si Si5 0.751674 0.790816 0.182695
O O1 0.799107 0.470832 0.921446
O O2 0.749072 0.273698 0.887243
O O3 0.802787 0.433730 0.765561
O O4 0.474265 0.409237 0.929832
O O5 0.424926 0.839724 0.435954
O O6 0.157600 0.869238 0.402626
O O7 0.793575 0.461578 0.120810
O O8 0.710740 0.327318 0.240886
O O9 0.322020 0.825075 0.641824
O O10 0.000000 0.933091 0.750000
O O11 0.500000 0.794711 0.250000
#
# Coordination Sequence:
#
# PCOD9264168 Si02
#       5
#     8   8   8   8   8
#     4  10  21  36  58  86 110 144 193 244 282 341
#     4  10  19  37  60  82 109 145 196 240 284 342
#     4  10  19  35  56  83 109 150 187 231 288 341
#     4  10  20  36  53  79 113 149 185 234 288 345
#     4   8  16  32  54  74 101 141 189 224 272 336
#
# _framework density 28.020569999999999
#
# number of rings (size 3 to 8) (size 9 to 14) (size 15 to 20)
#    0.000    2.400    2.000    1.800    0.000    0.000 
#    7.200    4.000    0.000    4.800    0.000    0.000 
#    0.000    0.000    0.000    0.000    0.000    0.000 
#
# Total GULP energy -111718.737417 kJ/mol
# GULP energy per Si atom -5585.936871 kJ/mol
# Density = 2.795679 g / cm^3
# Si number density = 28.020570 Si / 1000 Ang^3
#
#
#
# Elastic Constant Matrix: (Units=GPa)
#
#
# Indices 1 2 3 4 5 6 
#
# 1 80.4909 14.8856 7.8781 -0.0001 -4.3228 0.0000
# 2 14.8856 188.2906 11.0424 0.0000 -12.4063 0.0000
# 3 7.8781 11.0424 108.9414 -0.0001 3.0488 0.0000
# 4 -0.0001 0.0000 -0.0001 28.6171 0.0001 -14.7702
# 5 -4.3228 -12.4063 3.0488 0.0001 20.4409 0.0000
# 6 0.0000 0.0000 0.0000 -14.7702 0.0000 38.3206
#
#
#
# Elastic Compliance Matrix: (Units=1/GPa)
#
#
# Indices 1 2 3 4 5 6 
#
# 1 0.012788 -0.000803 -0.000909 0.000000 0.002353 0.000000
# 2 -0.000803 0.005630 -0.000606 0.000000 0.003338 0.000000
# 3 -0.000909 -0.000606 0.009361 0.000000 -0.001956 0.000000
# 4 0.000000 0.000000 0.000000 0.043622 0.000000 0.016814
# 5 0.002353 0.003338 -0.001956 0.000000 0.051737 0.000000
# 6 0.000000 0.000000 0.000000 0.016814 0.000000 0.032576
#
#
# Mechanical properties :
#
#
# Convention : Reuss Voigt Hill
#
# Bulk Modulus (GPa) = 43.20981 49.48169 46.34575
# Shear Modulus (GPa) = 29.75064 40.40349 35.07707
#
# Velocity S-wave (km/s) = 3.26197 3.80139 3.54196
# Velocity P-wave (km/s) = 5.44440 6.07987 5.77089
#
# Compressibility (1/GPa) = 0.02314289
#
# Stress axis : x y z
#
# Youngs Moduli (GPa) = 78.20113 177.62493 106.82424
#
# Poissons Ratio (x) = 0.14256 0.09713
# Poissons Ratio (y) = 0.06276 0.06474
# Poissons Ratio (z) = 0.07110 0.10764
#
# Static dielectric constant tensor:
#      x y z
#    x 2.275600 0.000000 0.032310 
#    y 0.000000 2.209470 0.000000 
#    z 0.032310 0.000000 2.152570 
# 
# From -- ./inp_files/141725.got.cif
#   From: 2010.05.17/outbox.cif.g08.bks.cpg/sg15_71_cif.got.tgz:141725.got - 2010.06.03 18:47:42.
