data_PCOD9264250
_publ_section_title
;
Structure prediction by ZEFSAII (Michael W. Deem and Ramdas Pophale) SiO2 
 PCOD9264250
Probable space group: C 2/C
;
_chemical_formula_sum "Si O2"
_cell_formula_units_Z 48
_cell_length_a 18.618499
_cell_length_b 7.358956
_cell_length_c 18.707156
_cell_angle_alpha 90.000000
_cell_angle_beta 91.533959
_cell_angle_gamma 90.000000
_cell_volume 2562.199699
_symmetry_space_group_name_H-M "C 2/C"
_symmetry_group_IT_number 15
_symmetry_cell_setting 'monoclinic'
loop_
_space_group_symop_operation_xyz
x,y,z
-x,y,1/2-z
-x,-y,-z
x,-y,1/2+z
1/2+x,1/2+y,z
1/2-x,1/2+y,1/2-z
1/2-x,1/2-y,-z
1/2+x,1/2-y,1/2+z
loop_
_atom_site_type_symbol
_atom_site_label
_atom_site_fract_x
_atom_site_fract_y
_atom_site_fract_z
Si Si1 0.278830 0.410396 0.164883
Si Si2 0.816681 0.253218 0.809768
Si Si3 0.661933 0.526944 0.477210
Si Si4 0.091303 0.646286 0.467884
Si Si5 0.072095 0.310644 0.564512
Si Si6 0.771668 0.528324 0.098974
O O1 0.218917 0.547320 0.192865
O O2 0.325219 0.330373 0.231390
O O3 0.322766 0.523377 0.106591
O O4 0.248663 0.230593 0.124055
O O5 0.887044 0.267097 0.860940
O O6 0.760312 0.118444 0.847839
O O7 0.629132 0.330470 0.492350
O O8 0.608629 0.677047 0.507050
O O9 0.736858 0.529387 0.522271
O O10 0.085115 0.512502 0.534797
O O11 0.143330 0.548740 0.411609
O O12 0.013738 0.701419 0.435471
#
# Coordination Sequence:
#
# PCOD9264250 Si02
#       6
#     8   8   8   8   8   8
#     4  11  20  34  55  80 110 143 186 232 282 328
#     4  11  21  35  55  84 111 148 185 238 282 339
#     4  10  20  35  58  83 109 144 190 237 274 330
#     4  10  19  35  57  83 111 144 183 231 284 337
#     4  10  21  35  56  85 113 144 186 233 288 334
#     4  10  20  36  57  84 109 144 189 236 281 326
#
# _framework density 18.733902
#
# number of rings (size 3 to 8) (size 9 to 14) (size 15 to 20)
#    0.000    1.667    1.667    5.500    0.000    2.667 
#    0.000    3.333    0.000    0.000    8.667    0.000 
#    0.000    0.000    0.000    0.000    0.000    0.000 
#
# Total GULP energy -133865.993020 kJ/mol
# GULP energy per Si atom -5577.749709 kJ/mol
# Density = 1.869126 g / cm^3
# Si number density = 18.733902 Si / 1000 Ang^3
#
#
#
# Elastic Constant Matrix: (Units=GPa)
#
#
# Indices 1 2 3 4 5 6 
#
# 1 108.1536 23.4541 52.0865 0.0000 11.3378 0.0000
# 2 23.4541 54.7740 20.8908 0.0000 6.4176 0.0000
# 3 52.0865 20.8908 128.0177 0.0000 16.2368 0.0000
# 4 0.0000 0.0000 0.0000 25.2934 0.0000 -1.3183
# 5 11.3378 6.4176 16.2368 0.0000 13.6828 0.0000
# 6 0.0000 0.0000 0.0000 -1.3183 0.0000 25.4765
#
#
#
# Elastic Compliance Matrix: (Units=1/GPa)
#
#
# Indices 1 2 3 4 5 6 
#
# 1 0.012278 -0.003286 -0.003961 0.000000 -0.003933 0.000000
# 2 -0.003286 0.020822 -0.001374 0.000000 -0.005412 0.000000
# 3 -0.003961 -0.001374 0.010770 0.000000 -0.008854 0.000000
# 4 0.000000 0.000000 0.000000 0.039643 0.000000 0.002051
# 5 -0.003933 -0.005412 -0.008854 0.000000 0.089388 0.000000
# 6 0.000000 0.000000 0.000000 0.002051 0.000000 0.039358
#
#
# Mechanical properties :
#
#
# Convention : Reuss Voigt Hill
#
# Bulk Modulus (GPa) = 37.55396 53.75646 45.65521
# Shear Modulus (GPa) = 20.97503 25.85816 23.41659
#
# Velocity S-wave (km/s) = 3.34972 3.71925 3.53931
# Velocity P-wave (km/s) = 5.92033 6.87029 6.41292
#
# Compressibility (1/GPa) = 0.02662835
#
# Stress axis : x y z
#
# Youngs Moduli (GPa) = 81.44330 48.02544 92.84923
#
# Poissons Ratio (x) = 0.15782 0.36774
# Poissons Ratio (y) = 0.26764 0.12761
# Poissons Ratio (z) = 0.32257 0.06601
#
# Static dielectric constant tensor:
#      x y z
#    x 1.646880 0.000000 -0.009210 
#    y 0.000000 1.666200 0.000000 
#    z -0.009210 0.000000 1.678370 
# 
# From -- ./inp_files/208643.got.cif
#   From: 2010.05.17/outbox.cif.g08.bks.cpg/sg15_105_cif.got.tgz:208643.got - 2010.06.03 18:47:42.
