data_PCOD9264806
_publ_section_title
;
Structure prediction by ZEFSAII (Michael W. Deem and Ramdas Pophale) SiO2 
 PCOD9264806
Probable space group: C 2/C
;
_chemical_formula_sum "Si O2"
_cell_formula_units_Z 52
_cell_length_a 12.267222
_cell_length_b 24.627391
_cell_length_c 9.291155
_cell_angle_alpha 90.000000
_cell_angle_beta 127.986069
_cell_angle_gamma 90.000000
_cell_volume 2212.325163
_symmetry_space_group_name_H-M "C 2/C"
_symmetry_group_IT_number 15
_symmetry_cell_setting 'monoclinic'
loop_
_space_group_symop_operation_xyz
x,y,z
-x,y,1/2-z
-x,-y,-z
x,-y,1/2+z
1/2+x,1/2+y,z
1/2-x,1/2+y,1/2-z
1/2-x,1/2-y,-z
1/2+x,1/2-y,1/2+z
loop_
_atom_site_type_symbol
_atom_site_label
_atom_site_fract_x
_atom_site_fract_y
_atom_site_fract_z
Si Si1 0.343708 0.004190 0.807618
Si Si2 0.500000 0.912251 0.250000
Si Si3 0.648859 0.522272 0.926179
Si Si4 0.900104 0.897959 0.540631
Si Si5 0.665164 0.249248 0.711470
Si Si6 0.567178 0.308877 0.150319
Si Si7 0.836390 0.326587 0.019028
O O1 0.383242 0.048406 0.717948
O O2 0.253840 0.959350 0.642255
O O3 0.245274 0.018842 0.862121
O O4 0.500000 0.000000 0.000000
O O5 0.460290 0.868769 0.092234
O O6 0.500000 0.544936 0.750000
O O7 0.605289 0.462828 0.956156
O O8 0.763470 0.866500 0.475510
O O9 0.000000 0.881108 0.750000
O O10 0.943885 0.867919 0.431492
O O11 0.524188 0.266830 0.520425
O O12 0.638679 0.221139 0.844594
O O13 0.773095 0.210470 0.716324
O O14 0.755862 0.302662 0.819460
O O15 0.500000 0.308848 0.250000
#
# Coordination Sequence:
#
# PCOD9264806 Si02
#       7
#     8   4   8   8   8   8   8
#     4  12  22  43  69  97 134 176 221 287 351 410
#     4  12  22  38  70 100 136 172 230 278 338 402
#     4  11  24  43  69  99 130 176 224 290 349 410
#     4  10  19  38  63  86 122 164 224 266 323 395
#     4  10  21  36  63  93 134 173 219 264 330 385
#     4  11  22  37  59  90 134 173 212 272 335 393
#     4  10  19  35  63  97 123 170 223 267 310 391
#
# _framework density 23.504681999999999
#
# number of rings (size 3 to 8) (size 9 to 14) (size 15 to 20)
#    0.000    1.231    4.615    1.846    0.000    0.000 
#    0.000    3.846    3.385    1.846    0.000    0.000 
#    0.000    0.000    0.000    0.000    0.000    0.000 
#
# Total GULP energy -144785.047668 kJ/mol
# GULP energy per Si atom -5568.655680 kJ/mol
# Density = 2.345118 g / cm^3
# Si number density = 23.504682 Si / 1000 Ang^3
#
#
#
# Elastic Constant Matrix: (Units=GPa)
#
#
# Indices 1 2 3 4 5 6 
#
# 1 122.6255 3.5697 35.2653 0.0000 7.5153 0.0000
# 2 3.5697 64.9842 7.5777 0.0000 4.5571 0.0000
# 3 35.2653 7.5777 101.3591 0.0000 21.5497 0.0000
# 4 0.0000 0.0000 0.0000 34.9331 0.0000 16.5181
# 5 7.5153 4.5571 21.5497 0.0000 49.5859 0.0000
# 6 0.0000 0.0000 0.0000 16.5181 0.0000 43.5612
#
#
#
# Elastic Compliance Matrix: (Units=1/GPa)
#
#
# Indices 1 2 3 4 5 6 
#
# 1 0.009063 -0.000132 -0.003144 0.000000 0.000005 0.000000
# 2 -0.000132 0.015572 -0.000902 0.000000 -0.001019 0.000000
# 3 -0.003144 -0.000902 0.012019 0.000000 -0.004664 0.000000
# 4 0.000000 0.000000 0.000000 0.034880 0.000000 -0.013226
# 5 0.000005 -0.001019 -0.004664 0.000000 0.022287 0.000000
# 6 0.000000 0.000000 0.000000 -0.013226 0.000000 0.027972
#
#
# Mechanical properties :
#
#
# Convention : Reuss Voigt Hill
#
# Bulk Modulus (GPa) = 35.33746 42.42159 38.87952
# Shear Modulus (GPa) = 35.82165 41.78647 38.80406
#
# Velocity S-wave (km/s) = 3.90811 4.22096 4.06754
# Velocity P-wave (km/s) = 5.95242 6.46859 6.21586
#
# Compressibility (1/GPa) = 0.02829858
#
# Stress axis : x y z
#
# Youngs Moduli (GPa) = 110.34234 64.21699 83.20223
#
# Poissons Ratio (x) = 0.00845 0.26162
# Poissons Ratio (y) = 0.01451 0.07502
# Poissons Ratio (z) = 0.34696 0.05791
#
# Static dielectric constant tensor:
#      x y z
#    x 1.726000 0.000000 0.087050 
#    y 0.000000 1.950510 0.000000 
#    z 0.087050 0.000000 2.061830 
# 
# From -- ./inp_files/34446.got.cif
#   From: 2010.05.17/outbox.cif.g08.bks.cpg/sg15_18_cif.got.tgz:34446.got - 2010.06.03 18:47:42.
