data_PCOD9264449
_publ_section_title
;
Structure prediction by ZEFSAII (Michael W. Deem and Ramdas Pophale) SiO2 
 PCOD9264449
Probable space group: C 2/C
;
_chemical_formula_sum "Si O2"
_cell_formula_units_Z 40
_cell_length_a 8.496043
_cell_length_b 15.811339
_cell_length_c 19.797676
_cell_angle_alpha 90.000000
_cell_angle_beta 51.117625
_cell_angle_gamma 90.000000
_cell_volume 2070.249242
_symmetry_space_group_name_H-M "C 2/C"
_symmetry_group_IT_number 15
_symmetry_cell_setting 'monoclinic'
loop_
_space_group_symop_operation_xyz
x,y,z
-x,y,1/2-z
-x,-y,-z
x,-y,1/2+z
1/2+x,1/2+y,z
1/2-x,1/2+y,1/2-z
1/2-x,1/2-y,-z
1/2+x,1/2-y,1/2+z
loop_
_atom_site_type_symbol
_atom_site_label
_atom_site_fract_x
_atom_site_fract_y
_atom_site_fract_z
Si Si1 0.086566 0.317950 0.071003
Si Si2 0.959744 0.293568 0.863476
Si Si3 0.610230 0.540942 0.034816
Si Si4 0.750836 0.368236 0.051350
Si Si5 0.835177 0.177333 0.184801
O O1 0.916861 0.345890 0.062830
O O2 0.967955 0.262365 0.157995
O O3 0.250000 0.250000 0.000000
O O4 0.217249 0.401298 0.046181
O O5 0.942123 0.193131 0.883760
O O6 0.816532 0.307778 0.837437
O O7 0.182099 0.329557 0.788639
O O8 0.852690 0.339726 0.954024
O O9 0.695274 0.465538 0.058140
O O10 0.473888 0.600636 0.120494
O O11 0.500000 0.500000 0.000000
#
# Coordination Sequence:
#
# PCOD9264449 Si02
#       5
#     8   8   8   8   8
#     4   9  20  36  58  78 113 151 185 229 283 338
#     4   9  18  34  59  80 111 150 185 227 280 337
#     4  11  20  35  58  86 110 145 189 232 282 338
#     4  10  19  35  59  84 108 150 193 226 281 338
#     4   9  18  37  55  83 116 147 182 232 285 331
#
# _framework density 19.321345000000001
#
# number of rings (size 3 to 8) (size 9 to 14) (size 15 to 20)
#    0.000    2.400    2.000    0.600    2.800    0.000 
#    3.600    4.000    4.400    0.000    0.000    0.000 
#    0.000    0.000    0.000    0.000    0.000    0.000 
#
# Total GULP energy -111341.876484 kJ/mol
# GULP energy per Si atom -5567.093824 kJ/mol
# Density = 1.927737 g / cm^3
# Si number density = 19.321345 Si / 1000 Ang^3
#
#
#
# Elastic Constant Matrix: (Units=GPa)
#
#
# Indices 1 2 3 4 5 6 
#
# 1 43.9412 38.5309 16.7387 0.0000 -14.1034 0.0000
# 2 38.5309 142.6243 40.2419 -0.0001 -19.1735 0.0000
# 3 16.7387 40.2419 80.3815 -0.0003 -19.4851 0.0001
# 4 0.0000 -0.0001 -0.0003 14.2631 0.0001 -8.9999
# 5 -14.1034 -19.1735 -19.4851 0.0001 22.6941 0.0000
# 6 0.0000 0.0000 0.0001 -8.9999 0.0000 31.1899
#
#
#
# Elastic Compliance Matrix: (Units=1/GPa)
#
#
# Indices 1 2 3 4 5 6 
#
# 1 0.033817 -0.007160 0.000215 0.000000 0.015152 0.000000
# 2 -0.007160 0.010023 -0.003224 0.000000 0.001251 0.000000
# 3 0.000215 -0.003224 0.016899 0.000000 0.011920 0.000000
# 4 0.000000 0.000000 0.000000 0.085718 0.000000 0.024734
# 5 0.015152 0.001251 0.011920 0.000000 0.064771 0.000000
# 6 0.000000 0.000000 0.000000 0.024734 0.000000 0.039199
#
#
# Mechanical properties :
#
#
# Convention : Reuss Voigt Hill
#
# Bulk Modulus (GPa) = 24.75075 50.88556 37.81815
# Shear Modulus (GPa) = 17.59127 25.05846 21.32487
#
# Velocity S-wave (km/s) = 3.02065 3.60520 3.32579
# Velocity P-wave (km/s) = 5.00037 6.61238 5.86205
#
# Compressibility (1/GPa) = 0.04040282
#
# Stress axis : x y z
#
# Youngs Moduli (GPa) = 29.57100 99.76565 59.17409
#
# Poissons Ratio (x) = 0.71429 -0.01274
# Poissons Ratio (y) = 0.21172 0.19077
# Poissons Ratio (z) = -0.00636 0.32164
#
# Static dielectric constant tensor:
#      x y z
#    x 1.679080 0.000000 -0.022230 
#    y 0.000000 1.681290 0.000000 
#    z -0.022230 0.000000 1.691380 
# 
# From -- ./inp_files/133081.got.cif
#   From: 2010.05.17/outbox.cif.g08.bks.cpg/sg15_67_cif.got.tgz:133081.got - 2010.06.03 18:47:42.
