data_PCOD9264226
_publ_section_title
;
Structure prediction by ZEFSAII (Michael W. Deem and Ramdas Pophale) SiO2 
 PCOD9264226
Probable space group: C 2/C
;
_chemical_formula_sum "Si O2"
_cell_formula_units_Z 44
_cell_length_a 9.924481
_cell_length_b 28.423935
_cell_length_c 13.085790
_cell_angle_alpha 90.000000
_cell_angle_beta 44.329359
_cell_angle_gamma 90.000000
_cell_volume 2579.488606
_symmetry_space_group_name_H-M "C 2/C"
_symmetry_group_IT_number 15
_symmetry_cell_setting 'monoclinic'
loop_
_space_group_symop_operation_xyz
x,y,z
-x,y,1/2-z
-x,-y,-z
x,-y,1/2+z
1/2+x,1/2+y,z
1/2-x,1/2+y,1/2-z
1/2-x,1/2-y,-z
1/2+x,1/2-y,1/2+z
loop_
_atom_site_type_symbol
_atom_site_label
_atom_site_fract_x
_atom_site_fract_y
_atom_site_fract_z
Si Si1 0.500000 0.735123 0.750000
Si Si2 0.998832 0.022264 0.392206
Si Si3 0.202274 0.519333 0.923471
Si Si4 0.448756 0.110205 0.391341
Si Si5 0.666773 0.309750 0.962833
Si Si6 0.882744 0.129872 0.208258
O O1 0.522486 0.706699 0.631073
O O2 0.306759 0.767158 0.851692
O O3 0.056596 0.076411 0.352087
O O4 0.144971 0.989610 0.248530
O O5 0.000000 0.000000 0.500000
O O6 0.786326 0.014522 0.464519
O O7 0.169365 0.571696 0.981557
O O8 0.000000 0.500000 0.000000
O O9 0.500000 0.089932 0.250000
O O10 0.313161 0.153898 0.438068
O O11 0.647182 0.126112 0.339471
O O12 0.580969 0.335420 0.908388
O O13 0.000000 0.141799 0.250000
#
# Coordination Sequence:
#
# PCOD9264226 Si02
#       6
#     4   8   8   8   8   8
#     4  10  20  40  64  92 104 132 204 234 292 346
#     4  11  22  34  52  79 113 152 198 232 269 321
#     4  11  21  34  52  80 110 152 193 231 260 329
#     4  10  19  35  57  81 109 155 192 229 283 327
#     4  10  21  37  66  84 110 145 182 247 283 350
#     4  11  19  37  54  84 118 154 184 228 303 340
#
# _framework density 17.057644
#
# number of rings (size 3 to 8) (size 9 to 14) (size 15 to 20)
#    0.000    1.455    6.364    2.182    0.000    2.909 
#    0.000    0.909    0.000    2.182    0.000    0.000 
#    0.000    0.000    0.000    0.000    0.000    0.000 
#
# Total GULP energy -122498.565839 kJ/mol
# GULP energy per Si atom -5568.116629 kJ/mol
# Density = 1.701882 g / cm^3
# Si number density = 17.057644 Si / 1000 Ang^3
#
#
#
# Elastic Constant Matrix: (Units=GPa)
#
#
# Indices 1 2 3 4 5 6 
#
# 1 147.6271 45.7026 55.8141 0.0000 11.4339 0.0000
# 2 45.7026 89.9989 57.6866 0.0000 15.0762 0.0000
# 3 55.8141 57.6866 99.8453 0.0000 22.7052 0.0000
# 4 0.0000 0.0000 0.0000 36.9278 0.0000 9.2836
# 5 11.4339 15.0762 22.7052 0.0000 28.8731 0.0000
# 6 0.0000 0.0000 0.0000 9.2836 0.0000 11.3613
#
#
#
# Elastic Compliance Matrix: (Units=1/GPa)
#
#
# Indices 1 2 3 4 5 6 
#
# 1 0.008841 -0.002122 -0.003863 0.000000 0.000644 0.000000
# 2 -0.002122 0.018206 -0.008965 0.000000 -0.001616 0.000000
# 3 -0.003863 -0.008965 0.019414 0.000000 -0.009056 0.000000
# 4 0.000000 0.000000 0.000000 0.034081 0.000000 -0.027848
# 5 0.000644 -0.001616 -0.009056 0.000000 0.042344 0.000000
# 6 0.000000 0.000000 0.000000 -0.027848 0.000000 0.110774
#
#
# Mechanical properties :
#
#
# Convention : Reuss Voigt Hill
#
# Bulk Modulus (GPa) = 60.38110 72.87532 66.62821
# Shear Modulus (GPa) = 18.58187 27.31697 22.94942
#
# Velocity S-wave (km/s) = 3.30412 4.00615 3.67195
# Velocity P-wave (km/s) = 7.07329 8.01341 7.55798
#
# Compressibility (1/GPa) = 0.01656147
#
# Stress axis : x y z
#
# Youngs Moduli (GPa) = 113.10631 54.92809 51.50932
#
# Poissons Ratio (x) = 0.11653 0.19899
# Poissons Ratio (y) = 0.23996 0.46178
# Poissons Ratio (z) = 0.43694 0.49243
#
# Static dielectric constant tensor:
#      x y z
#    x 1.575460 0.000000 0.019810 
#    y 0.000000 1.597530 0.000000 
#    z 0.019810 0.000000 1.580430 
# 
# From -- ./inp_files/81067.got.cif
#   From: 2010.05.17/outbox.cif.g08.bks.cpg/sg15_41_cif.got.tgz:81067.got - 2010.06.03 18:47:42.
