data_PCOD9264392
_publ_section_title
;
Structure prediction by ZEFSAII (Michael W. Deem and Ramdas Pophale) SiO2 
 PCOD9264392
Probable space group: C 2/C
;
_chemical_formula_sum "Si O2"
_cell_formula_units_Z 64
_cell_length_a 9.041447
_cell_length_b 15.299339
_cell_length_c 28.131947
_cell_angle_alpha 90.000000
_cell_angle_beta 124.804410
_cell_angle_gamma 90.000000
_cell_volume 3195.282373
_symmetry_space_group_name_H-M "C 2/C"
_symmetry_group_IT_number 15
_symmetry_cell_setting 'monoclinic'
loop_
_space_group_symop_operation_xyz
x,y,z
-x,y,1/2-z
-x,-y,-z
x,-y,1/2+z
1/2+x,1/2+y,z
1/2-x,1/2+y,1/2-z
1/2-x,1/2-y,-z
1/2+x,1/2-y,1/2+z
loop_
_atom_site_type_symbol
_atom_site_label
_atom_site_fract_x
_atom_site_fract_y
_atom_site_fract_z
Si Si1 0.263592 0.898438 0.000364
Si Si2 0.656908 0.600068 0.313744
Si Si3 0.268192 0.800638 0.596151
Si Si4 0.036514 0.514886 0.390703
Si Si5 0.540488 0.597966 0.124700
Si Si6 0.870957 0.769713 0.349318
Si Si7 0.439897 0.255150 0.474189
Si Si8 0.165866 0.449640 0.315535
O O1 0.390346 0.968118 0.048895
O O2 0.175442 0.834335 0.023732
O O3 0.367533 0.834814 0.983309
O O4 0.098594 0.939091 0.940254
O O5 0.500000 0.568233 0.250000
O O6 0.824215 0.534641 0.351611
O O7 0.567076 0.621040 0.347869
O O8 0.746241 0.689111 0.310319
O O9 0.137381 0.820752 0.616531
O O10 0.432996 0.737205 0.638652
O O11 0.141698 0.767991 0.530497
O O12 0.360048 0.892797 0.598057
O O13 0.091505 0.456331 0.355574
O O14 0.691523 0.527454 0.164249
O O15 0.915357 0.756396 0.413480
O O16 0.767050 0.859421 0.324358
O O17 0.000000 0.461733 0.250000
#
# Coordination Sequence:
#
# PCOD9264392 Si02
#       8
#     8   8   8   8   8   8   8   8
#     4  10  20  36  61  90 119 154 191 248 302 355
#     4  11  23  42  62  84 119 161 203 241 292 356
#     4   9  22  36  59  88 120 152 191 242 301 357
#     4  10  22  39  61  87 117 154 199 244 297 351
#     4  10  22  40  61  88 118 154 198 245 300 349
#     4  11  21  39  58  89 116 160 198 240 293 357
#     4  10  19  35  58  88 124 152 190 239 305 354
#     4  11  23  39  61  87 120 158 201 245 290 348
#
# _framework density 20.029529
#
# number of rings (size 3 to 8) (size 9 to 14) (size 15 to 20)
#    0.000    1.750    2.500    1.500    1.750    3.000 
#    0.000    0.000    0.000    1.500    0.000    0.000 
#    0.000    0.000    0.000    0.000    0.000    0.000 
#
# Total GULP energy -178819.286236 kJ/mol
# GULP energy per Si atom -5588.102695 kJ/mol
# Density = 1.998394 g / cm^3
# Si number density = 20.029529 Si / 1000 Ang^3
#
#
#
# Elastic Constant Matrix: (Units=GPa)
#
#
# Indices 1 2 3 4 5 6 
#
# 1 80.8533 6.2011 34.0779 0.0000 21.8888 0.0000
# 2 6.2011 46.8656 29.0736 0.0000 23.0616 0.0000
# 3 34.0779 29.0736 121.8310 0.0000 36.2418 0.0000
# 4 0.0000 0.0000 0.0000 -8.2408 0.0000 0.0421
# 5 21.8888 23.0616 36.2418 0.0000 35.6991 0.0000
# 6 0.0000 0.0000 0.0000 0.0421 0.0000 13.9971
#
#
#
# Elastic Compliance Matrix: (Units=1/GPa)
#
#
# Indices 1 2 3 4 5 6 
#
# 1 0.015781 0.004360 -0.002491 0.000000 -0.009964 0.000000
# 2 0.004360 0.032859 -0.002796 0.000000 -0.021063 0.000000
# 3 -0.002491 -0.002796 0.012293 0.000000 -0.009147 0.000000
# 4 0.000000 0.000000 0.000000 -0.121346 0.000000 0.000365
# 5 -0.009964 -0.021063 -0.009147 0.000000 0.057014 0.000000
# 6 0.000000 0.000000 0.000000 0.000365 0.000000 0.071442
#
#
# Mechanical properties :
#
#
# Convention : Reuss Voigt Hill
#
# Bulk Modulus (GPa) = 16.92579 43.13948 30.03264
# Shear Modulus (GPa) = 55.81043 20.30423 38.05733
#
# Velocity S-wave (km/s) = 5.28437 3.18734 4.36370
# Velocity P-wave (km/s) = 6.76029 5.92708 6.35735
#
# Compressibility (1/GPa) = 0.05908143
#
# Stress axis : x y z
#
# Youngs Moduli (GPa) = 63.36760 30.43267 81.34872
#
# Poissons Ratio (x) = -0.13269 0.20260
# Poissons Ratio (y) = -0.27629 0.22741
# Poissons Ratio (z) = 0.15782 0.08508
#
# Static dielectric constant tensor:
#      x y z
#    x 1.737490 0.000000 0.002980 
#    y 0.000000 1.689300 0.000000 
#    z 0.002980 0.000000 1.687800 
# 
# From -- ./inp_files/308284.got.cif
#   From: 2010.05.17/outbox.cif.g08.bks.cpg/sg15_155_cif.got.tgz:308284.got - 2010.06.03 18:47:42.
