data_PCOD9264644
_publ_section_title
;
Structure prediction by ZEFSAII (Michael W. Deem and Ramdas Pophale) SiO2 
 PCOD9264644
Probable space group: C 2/C
;
_chemical_formula_sum "Si O2"
_cell_formula_units_Z 48
_cell_length_a 18.148693
_cell_length_b 7.022044
_cell_length_c 15.412145
_cell_angle_alpha 90.000000
_cell_angle_beta 76.325244
_cell_angle_gamma 90.000000
_cell_volume 1908.461267
_symmetry_space_group_name_H-M "C 2/C"
_symmetry_group_IT_number 15
_symmetry_cell_setting 'monoclinic'
loop_
_space_group_symop_operation_xyz
x,y,z
-x,y,1/2-z
-x,-y,-z
x,-y,1/2+z
1/2+x,1/2+y,z
1/2-x,1/2+y,1/2-z
1/2-x,1/2-y,-z
1/2+x,1/2-y,1/2+z
loop_
_atom_site_type_symbol
_atom_site_label
_atom_site_fract_x
_atom_site_fract_y
_atom_site_fract_z
Si Si1 0.433227 0.215243 0.538549
Si Si2 0.297195 0.152401 0.211178
Si Si3 0.430824 0.124766 0.725921
Si Si4 0.731777 0.631783 0.417743
Si Si5 0.675479 0.267740 0.611150
Si Si6 0.095677 0.259423 0.955628
O O1 0.460529 0.214574 0.630177
O O2 0.359104 0.342661 0.556595
O O3 0.506998 0.285033 0.466323
O O4 0.410478 0.992995 0.526781
O O5 0.257828 0.202375 0.313243
O O6 0.236345 0.113903 0.151341
O O7 0.355288 0.290083 0.143644
O O8 0.356228 0.989686 0.220061
O O9 0.500000 0.010384 0.750000
O O10 0.397678 0.262763 0.806994
O O11 0.750000 0.750000 0.500000
O O12 0.781122 0.436309 0.411337
O O13 0.641951 0.312888 0.526439
#
# Coordination Sequence:
#
# PCOD9264644 Si02
#       6
#     8   8   8   8   8   8
#     4  10  19  36  56  89 116 148 198 244 286 338
#     4  10  23  35  56  89 120 146 196 244 291 340
#     4  10  19  35  61  86 115 153 195 243 284 344
#     4  11  22  36  58  84 120 157 194 237 290 350
#     4  11  20  36  59  87 115 155 192 237 293 346
#     4  10  20  34  60  84 116 148 195 247 287 337
#
# _framework density 25.151153000000001
#
# number of rings (size 3 to 8) (size 9 to 14) (size 15 to 20)
#    0.000    1.667    5.000    0.500    0.000    0.000 
#    0.000    0.833    0.000    5.000    0.000    0.000 
#    0.000    0.000    0.000    0.000    0.000    0.000 
#
# Total GULP energy -133779.274202 kJ/mol
# GULP energy per Si atom -5574.136425 kJ/mol
# Density = 2.509391 g / cm^3
# Si number density = 25.151153 Si / 1000 Ang^3
#
#
#
# Elastic Constant Matrix: (Units=GPa)
#
#
# Indices 1 2 3 4 5 6 
#
# 1 188.0308 22.8986 65.4848 0.0000 11.1392 0.0000
# 2 22.8986 72.6739 5.1467 0.0000 14.4709 0.0000
# 3 65.4848 5.1467 165.2482 0.0000 3.8705 0.0000
# 4 0.0000 0.0000 0.0000 16.3818 0.0000 -1.1629
# 5 11.1392 14.4709 3.8705 0.0000 51.4297 0.0000
# 6 0.0000 0.0000 0.0000 -1.1629 0.0000 28.9087
#
#
#
# Elastic Compliance Matrix: (Units=1/GPa)
#
#
# Indices 1 2 3 4 5 6 
#
# 1 0.006432 -0.001707 -0.002479 0.000000 -0.000726 0.000000
# 2 -0.001707 0.015051 0.000299 0.000000 -0.003888 0.000000
# 3 -0.002479 0.000299 0.007026 0.000000 -0.000076 0.000000
# 4 0.000000 0.000000 0.000000 0.061218 0.000000 0.002463
# 5 -0.000726 -0.003888 -0.000076 0.000000 0.020701 0.000000
# 6 0.000000 0.000000 0.000000 0.002463 0.000000 0.034691
#
#
# Mechanical properties :
#
#
# Convention : Reuss Voigt Hill
#
# Bulk Modulus (GPa) = 48.22576 68.11257 58.16916
# Shear Modulus (GPa) = 31.28812 41.50557 36.39685
#
# Velocity S-wave (km/s) = 3.53087 4.06673 3.80824
# Velocity P-wave (km/s) = 5.98655 7.01364 6.52035
#
# Compressibility (1/GPa) = 0.02073581
#
# Stress axis : x y z
#
# Youngs Moduli (GPa) = 155.46155 66.44163 142.32200
#
# Poissons Ratio (x) = 0.11339 0.35280
# Poissons Ratio (y) = 0.26531 -0.04249
# Poissons Ratio (z) = 0.38537 -0.01984
#
# Static dielectric constant tensor:
#      x y z
#    x 2.010640 0.000000 -0.056110 
#    y 0.000000 2.240850 0.000000 
#    z -0.056110 0.000000 2.103230 
# 
# From -- ./inp_files/151963.got.cif
#   From: 2010.05.17/outbox.cif.g08.bks.cpg/sg15_76_cif.got.tgz:151963.got - 2010.06.03 18:47:42.
