data_PCOD9264269
_publ_section_title
;
Structure prediction by ZEFSAII (Michael W. Deem and Ramdas Pophale) SiO2 
 PCOD9264269
Probable space group: C 2/C
;
_chemical_formula_sum "Si O2"
_cell_formula_units_Z 64
_cell_length_a 22.720242
_cell_length_b 9.516467
_cell_length_c 20.560679
_cell_angle_alpha 90.000000
_cell_angle_beta 128.378274
_cell_angle_gamma 90.000000
_cell_volume 3485.000508
_symmetry_space_group_name_H-M "C 2/C"
_symmetry_group_IT_number 15
_symmetry_cell_setting 'monoclinic'
loop_
_space_group_symop_operation_xyz
x,y,z
-x,y,1/2-z
-x,-y,-z
x,-y,1/2+z
1/2+x,1/2+y,z
1/2-x,1/2+y,1/2-z
1/2-x,1/2-y,-z
1/2+x,1/2-y,1/2+z
loop_
_atom_site_type_symbol
_atom_site_label
_atom_site_fract_x
_atom_site_fract_y
_atom_site_fract_z
Si Si1 0.087244 0.165516 0.829842
Si Si2 0.109358 0.809583 0.704675
Si Si3 0.091833 0.320056 0.604546
Si Si4 0.661565 0.381200 0.249716
Si Si5 0.555713 0.820104 0.430742
Si Si6 0.411311 0.338703 0.669090
Si Si7 0.930343 0.346907 0.555533
Si Si8 0.333573 0.883835 0.363072
O O1 0.134749 0.196006 0.797359
O O2 0.095650 0.262800 0.898619
O O3 0.000000 0.175155 0.750000
O O4 0.104962 0.001838 0.855844
O O5 0.129016 0.782013 0.793800
O O6 0.162128 0.737080 0.688197
O O7 0.027592 0.745355 0.632831
O O8 0.111806 0.978893 0.703937
O O9 0.149427 0.221341 0.681165
O O10 0.084213 0.289983 0.522823
O O11 0.118040 0.481951 0.627210
O O12 0.011248 0.297592 0.583758
O O13 0.747729 0.425836 0.315284
O O14 0.601818 0.749740 0.404244
O O15 0.558026 0.987547 0.422636
O O16 0.500000 0.331678 0.750000
O O17 0.871575 0.333978 0.456187
#
# Coordination Sequence:
#
# PCOD9264269 Si02
#       8
#     8   8   8   8   8   8   8   8
#     4  10  20  37  56  86 117 146 198 244 287 342
#     4  10  19  37  57  82 117 151 191 239 289 347
#     4  11  21  38  59  86 117 152 196 243 287 346
#     4  11  24  37  60  85 118 160 189 244 299 348
#     4  10  19  35  57  86 111 145 191 240 289 334
#     4   8  18  32  53  82 113 144 180 235 291 334
#     4  11  21  36  61  84 117 153 193 248 282 346
#     4  11  22  40  57  85 121 156 197 235 300 350
#
# _framework density 18.364415999999999
#
# number of rings (size 3 to 8) (size 9 to 14) (size 15 to 20)
#    0.000    1.750    3.750    2.250    0.000    4.500 
#    0.000    0.000    0.000   18.750    0.000    0.000 
#    0.000    0.000    0.000    0.000    0.000    0.000 
#
# Total GULP energy -178471.429662 kJ/mol
# GULP energy per Si atom -5577.232177 kJ/mol
# Density = 1.832262 g / cm^3
# Si number density = 18.364416 Si / 1000 Ang^3
#
#
#
# Elastic Constant Matrix: (Units=GPa)
#
#
# Indices 1 2 3 4 5 6 
#
# 1 65.7763 37.8517 51.2820 0.0000 -22.7102 0.0000
# 2 37.8517 59.5544 56.4032 0.0000 -24.9222 0.0000
# 3 51.2820 56.4032 87.0256 0.0000 -21.2418 0.0000
# 4 0.0000 0.0000 0.0000 31.9478 0.0000 -14.8008
# 5 -22.7102 -24.9222 -21.2418 0.0000 34.0000 0.0000
# 6 0.0000 0.0000 0.0000 -14.8008 0.0000 25.5223
#
#
#
# Elastic Compliance Matrix: (Units=1/GPa)
#
#
# Indices 1 2 3 4 5 6 
#
# 1 0.031321 -0.001121 -0.015132 0.000000 0.010645 0.000000
# 2 -0.001121 0.053573 -0.029096 0.000000 0.020343 0.000000
# 3 -0.015132 -0.029096 0.037277 0.000000 -0.008145 0.000000
# 4 0.000000 0.000000 0.000000 0.042800 0.000000 0.024820
# 5 0.010645 0.020343 -0.008145 0.000000 0.046345 0.000000
# 6 0.000000 0.000000 0.000000 0.024820 0.000000 0.053575
#
#
# Mechanical properties :
#
#
# Convention : Reuss Voigt Hill
#
# Bulk Modulus (GPa) = 31.77254 55.93669 43.85461
# Shear Modulus (GPa) = 13.65821 22.74863 18.20342
#
# Velocity S-wave (km/s) = 2.73010 3.52338 3.15180
# Velocity P-wave (km/s) = 5.22271 6.86132 6.09731
#
# Compressibility (1/GPa) = 0.03147372
#
# Stress axis : x y z
#
# Youngs Moduli (GPa) = 31.92750 18.66597 26.82612
#
# Poissons Ratio (x) = 0.02093 0.40592
# Poissons Ratio (y) = 0.03580 0.78053
# Poissons Ratio (z) = 0.48311 0.54310
#
# Static dielectric constant tensor:
#      x y z
#    x 1.667430 0.000000 -0.009380 
#    y 0.000000 1.622190 0.000000 
#    z -0.009380 0.000000 1.602300 
# 
# From -- ./inp_files/255070.got.cif
#   From: 2010.05.17/outbox.cif.g08.bks.cpg/sg15_128_cif.got.tgz:255070.got - 2010.06.03 18:47:42.
