data_PCOD9264440
_publ_section_title
;
Structure prediction by ZEFSAII (Michael W. Deem and Ramdas Pophale) SiO2 
 PCOD9264440
Probable space group: C 2/C
;
_chemical_formula_sum "Si O2"
_cell_formula_units_Z 60
_cell_length_a 11.711531
_cell_length_b 15.197966
_cell_length_c 24.657691
_cell_angle_alpha 90.000000
_cell_angle_beta 131.433721
_cell_angle_gamma 90.000000
_cell_volume 3290.422341
_symmetry_space_group_name_H-M "C 2/C"
_symmetry_group_IT_number 15
_symmetry_cell_setting 'monoclinic'
loop_
_space_group_symop_operation_xyz
x,y,z
-x,y,1/2-z
-x,-y,-z
x,-y,1/2+z
1/2+x,1/2+y,z
1/2-x,1/2+y,1/2-z
1/2-x,1/2-y,-z
1/2+x,1/2-y,1/2+z
loop_
_atom_site_type_symbol
_atom_site_label
_atom_site_fract_x
_atom_site_fract_y
_atom_site_fract_z
Si Si1 0.347320 0.017132 0.637584
Si Si2 0.000000 0.864085 0.750000
Si Si3 0.945435 0.200278 0.669826
Si Si4 0.766752 0.239462 0.250988
Si Si5 0.194561 0.829477 0.616064
Si Si6 0.180788 0.438939 0.248897
Si Si7 0.916789 0.931574 0.514110
Si Si8 0.981217 0.000252 0.654219
O O1 0.322418 0.067897 0.686612
O O2 0.526753 0.012680 0.683610
O O3 0.254153 0.067102 0.561670
O O4 0.280805 0.920174 0.628086
O O5 0.869921 0.805307 0.737564
O O6 0.068169 0.929389 0.816956
O O7 0.788666 0.252694 0.617095
O O8 0.000000 0.200417 0.750000
O O9 0.085437 0.249133 0.683407
O O10 0.926118 0.099670 0.646375
O O11 0.792353 0.187940 0.315428
O O12 0.817766 0.341000 0.274430
O O13 0.019005 0.843694 0.544601
O O14 0.335110 0.489462 0.283066
O O15 0.000000 0.000000 0.500000
O O16 0.934890 0.968003 0.580321
#
# Coordination Sequence:
#
# PCOD9264440 Si02
#       8
#     8   4   8   8   8   8   8   8
#     4  10  20  34  62  83 109 148 200 234 276 334
#     4  12  20  32  54  88 116 148 186 228 298 338
#     4   9  20  34  54  88 114 142 191 244 279 331
#     4  10  21  33  54  85 118 141 186 240 283 335
#     4  10  19  35  59  83 111 146 189 237 278 337
#     4  10  20  35  57  82 112 146 192 239 277 332
#     4  10  19  37  59  86 114 153 194 236 282 347
#     4  11  20  35  58  84 116 153 186 238 292 340
#
# _framework density 18.234741
#
# number of rings (size 3 to 8) (size 9 to 14) (size 15 to 20)
#    0.000    1.867    4.667    0.800    7.467    0.000 
#    0.000    3.333    0.000    0.800    0.000    0.000 
#    0.000    0.000    0.000    0.000    0.000    0.000 
#
# Total GULP energy -167281.574643 kJ/mol
# GULP energy per Si atom -5576.052488 kJ/mol
# Density = 1.819324 g / cm^3
# Si number density = 18.234741 Si / 1000 Ang^3
#
#
#
# Elastic Constant Matrix: (Units=GPa)
#
#
# Indices 1 2 3 4 5 6 
#
# 1 88.1108 30.2761 22.1715 0.0000 6.1491 0.0000
# 2 30.2761 57.5027 12.5523 0.0000 10.9139 0.0000
# 3 22.1715 12.5523 72.9423 0.0000 12.2109 0.0000
# 4 0.0000 0.0000 0.0000 7.4352 0.0000 6.7031
# 5 6.1491 10.9139 12.2109 0.0000 23.3565 0.0000
# 6 0.0000 0.0000 0.0000 6.7031 0.0000 32.9335
#
#
#
# Elastic Compliance Matrix: (Units=1/GPa)
#
#
# Indices 1 2 3 4 5 6 
#
# 1 0.014585 -0.007181 -0.003415 0.000000 0.001301 0.000000
# 2 -0.007181 0.022878 -0.000308 0.000000 -0.008639 0.000000
# 3 -0.003415 -0.000308 0.016029 0.000000 -0.007337 0.000000
# 4 0.000000 0.000000 0.000000 0.164720 0.000000 -0.033526
# 5 0.001301 -0.008639 -0.007337 0.000000 0.050344 0.000000
# 6 0.000000 0.000000 0.000000 -0.033526 0.000000 0.037188
#
#
# Mechanical properties :
#
#
# Convention : Reuss Voigt Hill
#
# Bulk Modulus (GPa) = 31.56213 38.72842 35.14528
# Shear Modulus (GPa) = 14.78787 22.98210 18.88498
#
# Velocity S-wave (km/s) = 2.85085 3.55399 3.22166
# Velocity P-wave (km/s) = 5.30875 6.17463 5.75799
#
# Compressibility (1/GPa) = 0.03168354
#
# Stress axis : x y z
#
# Youngs Moduli (GPa) = 68.56161 43.70978 62.38741
#
# Poissons Ratio (x) = 0.31387 0.21308
# Poissons Ratio (y) = 0.49233 0.01922
# Poissons Ratio (z) = 0.23417 0.01347
#
# Static dielectric constant tensor:
#      x y z
#    x 1.676530 0.000000 0.030050 
#    y 0.000000 1.639010 0.000000 
#    z 0.030050 0.000000 1.641200 
# 
# From -- ./inp_files/292718.got.cif
#   From: 2010.05.17/outbox.cif.g08.bks.cpg/sg15_147_cif.got.tgz:292718.got - 2010.06.03 18:47:42.
