data_PCOD9264076
_publ_section_title
;
Structure prediction by ZEFSAII (Michael W. Deem and Ramdas Pophale) SiO2 
 PCOD9264076
Probable space group: C 2/C
;
_chemical_formula_sum "Si O2"
_cell_formula_units_Z 56
_cell_length_a 11.852781
_cell_length_b 8.000294
_cell_length_c 30.318638
_cell_angle_alpha 90.000000
_cell_angle_beta 105.483597
_cell_angle_gamma 90.000000
_cell_volume 2770.644929
_symmetry_space_group_name_H-M "C 2/C"
_symmetry_group_IT_number 15
_symmetry_cell_setting 'monoclinic'
loop_
_space_group_symop_operation_xyz
x,y,z
-x,y,1/2-z
-x,-y,-z
x,-y,1/2+z
1/2+x,1/2+y,z
1/2-x,1/2+y,1/2-z
1/2-x,1/2-y,-z
1/2+x,1/2-y,1/2+z
loop_
_atom_site_type_symbol
_atom_site_label
_atom_site_fract_x
_atom_site_fract_y
_atom_site_fract_z
Si Si1 0.408599 0.878016 0.399188
Si Si2 0.886243 0.786608 0.717871
Si Si3 0.867237 0.413426 0.129263
Si Si4 0.757643 0.156732 0.319483
Si Si5 0.275663 0.846473 0.940440
Si Si6 0.443382 0.650665 0.021555
Si Si7 0.767674 0.932308 0.244821
O O1 0.524319 0.959897 0.390069
O O2 0.345701 0.778597 0.353355
O O3 0.457949 0.744161 0.439551
O O4 0.324221 0.011082 0.413417
O O5 0.902450 0.719231 0.670982
O O6 0.779521 0.916151 0.711635
O O7 0.855499 0.635056 0.748472
O O8 0.000000 0.872535 0.750000
O O9 0.817551 0.568497 0.151041
O O10 0.769987 0.317135 0.090474
O O11 0.817613 0.012559 0.295423
O O12 0.686544 0.271467 0.277046
O O13 0.162701 0.905741 0.956988
O O14 0.379651 0.785040 0.983169
O O15 0.500000 0.500000 0.000000
#
# Coordination Sequence:
#
# PCOD9264076 Si02
#       7
#     8   8   8   8   8   8   8
#     4  11  22  38  61  86 117 152 189 234 285 341
#     4  10  19  35  55  76 109 148 188 237 286 331
#     4  10  21  36  56  82 114 150 191 235 283 336
#     4  10  20  37  58  82 114 153 194 240 286 335
#     4  10  22  39  60  87 118 150 187 235 285 339
#     4  10  22  40  62  89 118 149 186 231 285 343
#     4   9  19  35  54  78 109 145 191 236 279 330
#
# _framework density 20.211901999999998
#
# number of rings (size 3 to 8) (size 9 to 14) (size 15 to 20)
#    0.000    2.000    0.000    3.857    0.000    1.714 
#    0.000   15.000    0.000    0.000    0.000    0.000 
#    0.000    0.000    0.000    0.000    0.000    0.000 
#
# Total GULP energy -155993.188600 kJ/mol
# GULP energy per Si atom -5571.185307 kJ/mol
# Density = 2.016590 g / cm^3
# Si number density = 20.211902 Si / 1000 Ang^3
#
#
#
# Elastic Constant Matrix: (Units=GPa)
#
#
# Indices 1 2 3 4 5 6 
#
# 1 82.5080 53.8703 29.4209 0.0000 -25.7335 0.0000
# 2 53.8703 74.6927 33.2721 0.0000 -9.5204 0.0000
# 3 29.4209 33.2721 80.8025 0.0000 -8.9340 0.0000
# 4 0.0000 0.0000 0.0000 43.4961 0.0000 -20.8558
# 5 -25.7335 -9.5204 -8.9340 0.0000 31.1541 0.0000
# 6 0.0000 0.0000 0.0000 -20.8558 0.0000 25.9472
#
#
#
# Elastic Compliance Matrix: (Units=1/GPa)
#
#
# Indices 1 2 3 4 5 6 
#
# 1 0.031573 -0.019727 -0.001194 0.000000 0.019708 0.000000
# 2 -0.019727 0.029031 -0.005775 0.000000 -0.009079 0.000000
# 3 -0.001194 -0.005775 0.015372 0.000000 0.001657 0.000000
# 4 0.000000 0.000000 0.000000 0.037408 0.000000 0.030067
# 5 0.019708 -0.009079 0.001657 0.000000 0.046078 0.000000
# 6 0.000000 0.000000 0.000000 0.030067 0.000000 0.062707
#
#
# Mechanical properties :
#
#
# Convention : Reuss Voigt Hill
#
# Bulk Modulus (GPa) = 44.28030 52.34779 48.31404
# Shear Modulus (GPa) = 17.66226 28.21547 22.93886
#
# Velocity S-wave (km/s) = 2.95931 3.74034 3.37251
# Velocity P-wave (km/s) = 5.79933 6.67901 6.25466
#
# Compressibility (1/GPa) = 0.02258341
#
# Stress axis : x y z
#
# Youngs Moduli (GPa) = 31.67296 34.44552 65.05412
#
# Poissons Ratio (x) = 0.67952 0.07766
# Poissons Ratio (y) = 0.62482 0.37570
# Poissons Ratio (z) = 0.03781 0.19893
#
# Static dielectric constant tensor:
#      x y z
#    x 1.722980 0.000000 -0.004600 
#    y 0.000000 1.732320 0.000000 
#    z -0.004600 0.000000 1.733360 
# 
# From -- ./inp_files/310029.got.cif
#   From: 2010.05.17/outbox.cif.g08.bks.cpg/sg15_156_cif.got.tgz:310029.got - 2010.06.03 18:47:42.
