data_PCOD9264374
_publ_section_title
;
Structure prediction by ZEFSAII (Michael W. Deem and Ramdas Pophale) SiO2 
 PCOD9264374
Probable space group: C 2/C
;
_chemical_formula_sum "Si O2"
_cell_formula_units_Z 40
_cell_length_a 14.242728
_cell_length_b 9.408556
_cell_length_c 14.455996
_cell_angle_alpha 90.000000
_cell_angle_beta 115.801150
_cell_angle_gamma 90.000000
_cell_volume 1744.039292
_symmetry_space_group_name_H-M "C 2/C"
_symmetry_group_IT_number 15
_symmetry_cell_setting 'monoclinic'
loop_
_space_group_symop_operation_xyz
x,y,z
-x,y,1/2-z
-x,-y,-z
x,-y,1/2+z
1/2+x,1/2+y,z
1/2-x,1/2+y,1/2-z
1/2-x,1/2-y,-z
1/2+x,1/2-y,1/2+z
loop_
_atom_site_type_symbol
_atom_site_label
_atom_site_fract_x
_atom_site_fract_y
_atom_site_fract_z
Si Si1 0.208218 0.690547 0.155599
Si Si2 0.725098 0.063508 0.526827
Si Si3 0.918273 0.313137 0.290828
Si Si4 0.995296 0.367911 0.854627
Si Si5 0.196468 0.836086 0.619588
O O1 0.219056 0.586425 0.073906
O O2 0.302255 0.803999 0.195695
O O3 0.087213 0.724135 0.121961
O O4 0.239632 0.608897 0.264970
O O5 0.799840 0.070010 0.469948
O O6 0.751684 0.187314 0.611601
O O7 0.611045 0.114499 0.443541
O O8 0.953049 0.469347 0.335591
O O9 0.909995 0.213185 0.377349
O O10 0.000000 0.261462 0.250000
O O11 0.000000 0.320094 0.750000
#
# Coordination Sequence:
#
# PCOD9264374 Si02
#       5
#     8   8   8   8   8
#     4  10  19  35  58  86 122 152 191 255 291 341
#     4  11  20  37  66  87 120 159 198 247 301 346
#     4   9  20  37  57  82 123 154 195 248 285 353
#     4  11  19  36  65  89 115 157 203 244 291 358
#     4   9  21  36  59  92 118 147 207 246 286 362
#
# _framework density 22.935262999999999
#
# number of rings (size 3 to 8) (size 9 to 14) (size 15 to 20)
#    1.200    0.800    4.000    0.600    0.000    0.000 
#    0.000    5.000   17.600    0.000    0.000    0.000 
#    0.000    0.000    0.000    0.000    0.000    0.000 
#
# Total GULP energy -111438.317598 kJ/mol
# GULP energy per Si atom -5571.915880 kJ/mol
# Density = 2.288306 g / cm^3
# Si number density = 22.935263 Si / 1000 Ang^3
#
#
#
# Elastic Constant Matrix: (Units=GPa)
#
#
# Indices 1 2 3 4 5 6 
#
# 1 158.8423 28.5771 31.9313 0.0000 -19.7277 0.0000
# 2 28.5771 20.9267 5.2421 0.0000 7.1522 0.0000
# 3 31.9313 5.2421 63.9092 0.0000 -7.3465 0.0000
# 4 0.0000 0.0000 0.0000 19.4595 0.0000 10.2654
# 5 -19.7277 7.1522 -7.3465 0.0000 44.8408 0.0000
# 6 0.0000 0.0000 0.0000 10.2654 0.0000 18.2384
#
#
#
# Elastic Compliance Matrix: (Units=1/GPa)
#
#
# Indices 1 2 3 4 5 6 
#
# 1 0.010672 -0.016060 -0.003242 0.000000 0.006726 0.000000
# 2 -0.016060 0.076442 -0.000469 0.000000 -0.019335 0.000000
# 3 -0.003242 -0.000469 0.017479 0.000000 0.001512 0.000000
# 4 0.000000 0.000000 0.000000 0.073090 0.000000 -0.041138
# 5 0.006726 -0.019335 0.001512 0.000000 0.028592 0.000000
# 6 0.000000 0.000000 0.000000 -0.041138 0.000000 0.077984
#
#
# Mechanical properties :
#
#
# Convention : Reuss Voigt Hill
#
# Bulk Modulus (GPa) = 15.37203 41.68658 28.52930
# Shear Modulus (GPa) = 14.47246 28.36960 21.42103
#
# Velocity S-wave (km/s) = 2.51472 3.52083 3.05942
# Velocity P-wave (km/s) = 3.89213 5.89437 4.99461
#
# Compressibility (1/GPa) = 0.06505322
#
# Stress axis : x y z
#
# Youngs Moduli (GPa) = 93.70518 13.08174 57.21122
#
# Poissons Ratio (x) = 0.21009 0.18546
# Poissons Ratio (y) = 1.50488 0.02681
# Poissons Ratio (z) = 0.30375 0.00613
#
# Static dielectric constant tensor:
#      x y z
#    x 1.933650 0.000000 0.004580 
#    y 0.000000 1.849720 0.000000 
#    z 0.004580 0.000000 1.919410 
# 
# From -- ./inp_files/153121.got.cif
#   From: 2010.05.17/outbox.cif.g08.bks.cpg/sg15_77_cif.got.tgz:153121.got - 2010.06.03 18:47:42.
