data_PCOD9264150
_publ_section_title
;
Structure prediction by ZEFSAII (Michael W. Deem and Ramdas Pophale) SiO2 
 PCOD9264150
Probable space group: C 2/C
;
_chemical_formula_sum "Si O2"
_cell_formula_units_Z 60
_cell_length_a 25.927891
_cell_length_b 6.450653
_cell_length_c 25.889869
_cell_angle_alpha 90.000000
_cell_angle_beta 127.777651
_cell_angle_gamma 90.000000
_cell_volume 3422.507230
_symmetry_space_group_name_H-M "C 2/C"
_symmetry_group_IT_number 15
_symmetry_cell_setting 'monoclinic'
loop_
_space_group_symop_operation_xyz
x,y,z
-x,y,1/2-z
-x,-y,-z
x,-y,1/2+z
1/2+x,1/2+y,z
1/2-x,1/2+y,1/2-z
1/2-x,1/2-y,-z
1/2+x,1/2-y,1/2+z
loop_
_atom_site_type_symbol
_atom_site_label
_atom_site_fract_x
_atom_site_fract_y
_atom_site_fract_z
Si Si1 0.155257 0.886162 0.089449
Si Si2 0.000000 0.896497 0.750000
Si Si3 0.184734 0.508058 0.181404
Si Si4 0.470904 0.984164 0.161881
Si Si5 0.912028 0.276736 0.720525
Si Si6 0.567841 0.900441 0.476773
Si Si7 0.728198 0.168374 0.317768
Si Si8 0.430787 0.762854 0.431687
O O1 0.170633 0.724658 0.144620
O O2 0.218349 0.029930 0.119507
O O3 0.097736 0.038990 0.072864
O O4 0.129088 0.748105 0.026103
O O5 0.940910 0.047481 0.729791
O O6 0.982177 0.744849 0.691932
O O7 0.236714 0.378225 0.179752
O O8 0.209591 0.546230 0.254014
O O9 0.118885 0.372601 0.138668
O O10 0.441745 0.974262 0.087294
O O11 0.539764 0.107467 0.209036
O O12 0.424920 0.101836 0.174865
O O13 0.837886 0.286555 0.692399
O O14 0.502915 0.774619 0.453403
O O15 0.571746 0.094920 0.518348
#
# Coordination Sequence:
#
# PCOD9264150 Si02
#       8
#     8   4   8   8   8   8   8   8
#     4  10  21  34  50  79 112 144 179 218 269 328
#     4   8  18  36  52  84 102 136 182 222 272 320
#     4  10  20  33  52  77 109 142 181 216 271 325
#     4   9  19  36  57  84 106 138 182 228 267 325
#     4   9  20  35  55  78 110 138 181 229 272 312
#     4  10  19  35  56  79 110 142 178 226 270 321
#     4  11  20  35  52  78 110 145 177 226 268 326
#     4   9  20  34  53  82 109 140 179 221 271 325
#
# _framework density 17.531006999999999
#
# number of rings (size 3 to 8) (size 9 to 14) (size 15 to 20)
#    0.000    2.667    1.333    1.200    0.000    5.333 
#    0.000    0.667    0.000    8.000    0.000    0.000 
#    0.000    0.000    0.000    0.000    0.000    0.000 
#
# Total GULP energy -167318.017778 kJ/mol
# GULP energy per Si atom -5577.267259 kJ/mol
# Density = 1.749111 g / cm^3
# Si number density = 17.531007 Si / 1000 Ang^3
#
#
#
# Elastic Constant Matrix: (Units=GPa)
#
#
# Indices 1 2 3 4 5 6 
#
# 1 82.7898 21.7195 25.4787 0.0002 20.8282 -0.0003
# 2 21.7195 77.4866 24.2482 0.0005 4.5225 0.0004
# 3 25.4787 24.2482 94.5157 0.0001 -0.6172 -0.0002
# 4 0.0002 0.0005 0.0001 18.4110 0.0001 8.4647
# 5 20.8282 4.5225 -0.6172 0.0001 21.5540 0.0000
# 6 -0.0003 0.0004 -0.0002 8.4647 0.0000 9.4014
#
#
#
# Elastic Compliance Matrix: (Units=1/GPa)
#
#
# Indices 1 2 3 4 5 6 
#
# 1 0.018566 -0.002807 -0.004399 -0.000001 -0.017478 0.000001
# 2 -0.002807 0.014660 -0.003007 0.000000 -0.000449 -0.000001
# 3 -0.004399 -0.003007 0.012572 0.000000 0.005242 0.000000
# 4 -0.000001 0.000000 0.000000 0.092681 0.000000 -0.083447
# 5 -0.017478 -0.000449 0.005242 0.000000 0.063529 -0.000001
# 6 0.000001 -0.000001 0.000000 -0.083447 -0.000001 0.181499
#
#
# Mechanical properties :
#
#
# Convention : Reuss Voigt Hill
#
# Bulk Modulus (GPa) = 39.41532 44.18721 41.80127
# Shear Modulus (GPa) = 12.12444 22.09632 17.11038
#
# Velocity S-wave (km/s) = 2.63268 3.55408 3.12750
# Velocity P-wave (km/s) = 5.63679 6.48860 6.07763
#
# Compressibility (1/GPa) = 0.02537085
#
# Stress axis : x y z
#
# Youngs Moduli (GPa) = 53.86158 68.21455 79.54351
#
# Poissons Ratio (x) = 0.19151 0.34989
# Poissons Ratio (y) = 0.15121 0.23919
# Poissons Ratio (z) = 0.23692 0.20513
#
# Static dielectric constant tensor:
#      x y z
#    x 1.572860 0.000000 0.020720 
#    y 0.000000 1.606880 0.000000 
#    z 0.020720 0.000000 1.601350 
# 
# From -- ./inp_files/303858.got.cif
#   From: 2010.05.17/outbox.cif.g08.bks.cpg/sg15_152_cif.got.tgz:303858.got - 2010.06.03 18:47:42.
