data_PCOD9264058
_publ_section_title
;
Structure prediction by ZEFSAII (Michael W. Deem and Ramdas Pophale) SiO2 
 PCOD9264058
Probable space group: C 2/C
;
_chemical_formula_sum "Si O2"
_cell_formula_units_Z 40
_cell_length_a 18.012432
_cell_length_b 5.338454
_cell_length_c 21.050955
_cell_angle_alpha 90.000000
_cell_angle_beta 64.221550
_cell_angle_gamma 90.000000
_cell_volume 1822.782683
_symmetry_space_group_name_H-M "C 2/C"
_symmetry_group_IT_number 15
_symmetry_cell_setting 'monoclinic'
loop_
_space_group_symop_operation_xyz
x,y,z
-x,y,1/2-z
-x,-y,-z
x,-y,1/2+z
1/2+x,1/2+y,z
1/2-x,1/2+y,1/2-z
1/2-x,1/2-y,-z
1/2+x,1/2-y,1/2+z
loop_
_atom_site_type_symbol
_atom_site_label
_atom_site_fract_x
_atom_site_fract_y
_atom_site_fract_z
Si Si1 0.573347 0.146733 0.272817
Si Si2 0.423853 0.755377 0.467535
Si Si3 0.612245 0.745707 0.450660
Si Si4 0.485357 0.641278 0.180421
Si Si5 0.750927 0.212628 0.792231
O O1 0.500000 0.116609 0.250000
O O2 0.547504 0.370690 0.330102
O O3 0.658607 0.234045 0.211554
O O4 0.577490 0.873024 0.302026
O O5 0.519994 0.752160 0.454767
O O6 0.380895 0.518198 0.515761
O O7 0.433885 0.716983 0.388422
O O8 0.385410 0.016631 0.503147
O O9 0.682255 0.771274 0.371682
O O10 0.500000 0.606891 0.250000
O O11 0.744726 0.441932 0.743766
#
# Coordination Sequence:
#
# PCOD9264058 Si02
#       5
#     8   8   8   8   8
#     4  10  21  37  59  84 116 153 194 242 295 349
#     4  10  19  35  54  81 117 150 188 234 297 353
#     4  10  21  33  54  83 116 151 183 238 300 349
#     4  10  20  36  61  84 108 155 205 238 277 349
#     4  12  23  37  60  91 120 150 199 252 293 344
#
# _framework density 21.944468000000001
#
# number of rings (size 3 to 8) (size 9 to 14) (size 15 to 20)
#    0.000    1.600    0.000    6.000    0.000    3.200 
#    0.000    0.000    0.000   28.800    0.000    0.000 
#    0.000    0.000    0.000    0.000    0.000    0.000 
#
# Total GULP energy -111675.705547 kJ/mol
# GULP energy per Si atom -5583.785277 kJ/mol
# Density = 2.189452 g / cm^3
# Si number density = 21.944468 Si / 1000 Ang^3
#
#
#
# Elastic Constant Matrix: (Units=GPa)
#
#
# Indices 1 2 3 4 5 6 
#
# 1 53.9242 -1.7140 16.1658 -0.0062 -9.9604 -0.0023
# 2 -1.7140 167.7812 42.2877 -0.0177 -6.0963 -0.0007
# 3 16.1658 42.2877 161.2586 -0.0086 -14.1143 0.0009
# 4 -0.0062 -0.0177 -0.0086 36.8039 0.0004 -7.6331
# 5 -9.9604 -6.0963 -14.1143 0.0004 31.0673 -0.0029
# 6 -0.0023 -0.0007 0.0009 -7.6331 -0.0029 12.7349
#
#
#
# Elastic Compliance Matrix: (Units=1/GPa)
#
#
# Indices 1 2 3 4 5 6 
#
# 1 0.020172 0.000856 -0.001735 0.000005 0.005847 0.000008
# 2 0.000856 0.006426 -0.001704 0.000003 0.000761 0.000003
# 3 -0.001735 -0.001704 0.007023 0.000000 0.002300 0.000000
# 4 0.000005 0.000003 0.000000 0.031028 0.000004 0.018598
# 5 0.005847 0.000761 0.002300 0.000004 0.035257 0.000011
# 6 0.000008 0.000003 0.000000 0.018598 0.000011 0.089671
#
#
# Mechanical properties :
#
#
# Convention : Reuss Voigt Hill
#
# Bulk Modulus (GPa) = 35.14379 55.16034 45.15207
# Shear Modulus (GPa) = 24.48224 37.86955 31.17590
#
# Velocity S-wave (km/s) = 3.34375 4.15866 3.77327
# Velocity P-wave (km/s) = 5.56392 6.94623 6.29315
#
# Compressibility (1/GPa) = 0.02845453
#
# Stress axis : x y z
#
# Youngs Moduli (GPa) = 49.57412 155.61547 142.38141
#
# Poissons Ratio (x) = -0.13317 0.24701
# Poissons Ratio (y) = -0.04242 0.24266
# Poissons Ratio (z) = 0.08600 0.26522
#
# Static dielectric constant tensor:
#      x y z
#    x 1.976750 0.000000 0.058460 
#    y 0.000000 1.888840 0.000000 
#    z 0.058460 0.000000 1.808000 
# 
# From -- ./inp_files/208124.got.cif
#   From: 2010.05.17/outbox.cif.g08.bks.cpg/sg15_105_cif.got.tgz:208124.got - 2010.06.03 18:47:42.
