data_PCOD9264629
_publ_section_title
;
Structure prediction by ZEFSAII (Michael W. Deem and Ramdas Pophale) SiO2 
 PCOD9264629
Probable space group: C 2/C
;
_chemical_formula_sum "Si O2"
_cell_formula_units_Z 52
_cell_length_a 34.310458
_cell_length_b 20.632239
_cell_length_c 10.060240
_cell_angle_alpha 90.000000
_cell_angle_beta 155.260091
_cell_angle_gamma 90.000000
_cell_volume 2980.413068
_symmetry_space_group_name_H-M "C 2/C"
_symmetry_group_IT_number 15
_symmetry_cell_setting 'monoclinic'
loop_
_space_group_symop_operation_xyz
x,y,z
-x,y,1/2-z
-x,-y,-z
x,-y,1/2+z
1/2+x,1/2+y,z
1/2-x,1/2+y,1/2-z
1/2-x,1/2-y,-z
1/2+x,1/2-y,1/2+z
loop_
_atom_site_type_symbol
_atom_site_label
_atom_site_fract_x
_atom_site_fract_y
_atom_site_fract_z
Si Si1 0.819724 0.929056 0.708455
Si Si2 0.000000 0.841079 0.250000
Si Si3 0.394962 0.880519 0.094204
Si Si4 0.106457 0.393623 0.718755
Si Si5 0.690937 0.184699 0.707911
Si Si6 0.243573 0.491548 0.732329
Si Si7 0.380750 0.760359 0.252743
O O1 0.738902 0.876343 0.429752
O O2 0.801730 0.966728 0.787879
O O3 0.807967 0.977423 0.546805
O O4 0.913487 0.887790 0.012604
O O5 0.041020 0.795776 0.496356
O O6 0.499297 0.909905 0.419170
O O7 0.392494 0.816227 0.179161
O O8 0.380369 0.870051 0.891458
O O9 0.318848 0.932278 0.906738
O O10 0.135412 0.337438 0.908484
O O11 0.172804 0.453893 0.957929
O O12 0.622355 0.212985 0.605864
O O13 0.776517 0.229664 0.924918
#
# Coordination Sequence:
#
# PCOD9264629 Si02
#       7
#     8   4   8   8   8   8   8
#     4  10  21  37  62  80 118 145 195 231 289 330
#     4  10  22  38  58  90 106 152 196 242 262 338
#     4  11  21  35  55  85 113 151 184 234 287 333
#     4  10  22  35  53  83 121 143 187 232 285 340
#     4   9  19  36  56  85 108 154 186 232 280 335
#     4  11  20  39  56  84 114 155 181 236 286 349
#     4  10  19  35  61  80 113 146 196 231 278 332
#
# _framework density 17.447246
#
# number of rings (size 3 to 8) (size 9 to 14) (size 15 to 20)
#    0.000    1.846    3.077    1.385    0.000    1.231 
#    0.000    0.000    0.000    1.846    0.000    0.000 
#    0.000    0.000    0.000    0.000    0.000    0.000 
#
# Total GULP energy -144888.392237 kJ/mol
# GULP energy per Si atom -5572.630471 kJ/mol
# Density = 1.740754 g / cm^3
# Si number density = 17.447246 Si / 1000 Ang^3
#
#
#
# Elastic Constant Matrix: (Units=GPa)
#
#
# Indices 1 2 3 4 5 6 
#
# 1 72.9743 42.9705 53.5273 0.0000 -21.1602 0.0000
# 2 42.9705 81.9148 39.4038 0.0000 -9.9330 0.0000
# 3 53.5273 39.4038 84.6967 0.0000 -10.8192 0.0000
# 4 0.0000 0.0000 0.0000 6.1364 0.0000 48.0182
# 5 -21.1602 -9.9330 -10.8192 0.0000 15.2421 0.0000
# 6 0.0000 0.0000 0.0000 48.0182 0.0000 -125.8932
#
#
#
# Elastic Compliance Matrix: (Units=1/GPa)
#
#
# Indices 1 2 3 4 5 6 
#
# 1 0.046273 -0.009729 -0.019049 0.000000 0.044379 0.000000
# 2 -0.009729 0.018214 -0.002787 0.000000 -0.003616 0.000000
# 3 -0.019049 -0.002787 0.023679 0.000000 -0.011453 0.000000
# 4 0.000000 0.000000 0.000000 0.040897 0.000000 0.015599
# 5 0.044379 -0.003616 -0.011453 0.000000 0.116732 0.000000
# 6 0.000000 0.000000 0.000000 0.015599 0.000000 -0.001993
#
#
# Mechanical properties :
#
#
# Convention : Reuss Voigt Hill
#
# Bulk Modulus (GPa) = 39.94214 56.82099 48.38157
# Shear Modulus (GPa) = 15.85911 -13.99066 0.93422
#
# Velocity S-wave (km/s) = 3.01819 -2.83483 0.73254
# Velocity P-wave (km/s) = 5.92358 4.68220 5.33909
#
# Compressibility (1/GPa) = 0.02503622
#
# Stress axis : x y z
#
# Youngs Moduli (GPa) = 21.61071 54.90395 42.23186
#
# Poissons Ratio (x) = 0.53418 0.80446
# Poissons Ratio (y) = 0.21026 0.11768
# Poissons Ratio (z) = 0.41166 0.15300
#
# Static dielectric constant tensor:
#      x y z
#    x 1.572340 0.000000 0.012790 
#    y 0.000000 1.617410 0.000000 
#    z 0.012790 0.000000 1.608490 
# 
# From -- ./inp_files/70810.got.cif
#   From: 2010.05.17/outbox.cif.g08.bks.cpg/sg15_36_cif.got.tgz:70810.got - 2010.06.03 18:47:42.
