data_PCOD9264154
_publ_section_title
;
Structure prediction by ZEFSAII (Michael W. Deem and Ramdas Pophale) SiO2 
 PCOD9264154
Probable space group: C 2/C
;
_chemical_formula_sum "Si O2"
_cell_formula_units_Z 40
_cell_length_a 14.365356
_cell_length_b 24.346402
_cell_length_c 10.591581
_cell_angle_alpha 90.000000
_cell_angle_beta 151.036324
_cell_angle_gamma 90.000000
_cell_volume 1793.849982
_symmetry_space_group_name_H-M "C 2/C"
_symmetry_group_IT_number 15
_symmetry_cell_setting 'monoclinic'
loop_
_space_group_symop_operation_xyz
x,y,z
-x,y,1/2-z
-x,-y,-z
x,-y,1/2+z
1/2+x,1/2+y,z
1/2-x,1/2+y,1/2-z
1/2-x,1/2-y,-z
1/2+x,1/2-y,1/2+z
loop_
_atom_site_type_symbol
_atom_site_label
_atom_site_fract_x
_atom_site_fract_y
_atom_site_fract_z
Si Si1 0.858201 0.408427 0.181561
Si Si2 0.782738 0.185495 0.536066
Si Si3 0.386946 0.389191 0.383447
Si Si4 0.226196 0.526331 0.510331
Si Si5 0.214932 0.599356 0.266827
O O1 0.692925 0.382209 0.070696
O O2 0.767946 0.461628 0.007011
O O3 0.000000 0.377649 0.250000
O O4 0.024442 0.425551 0.479255
O O5 0.750000 0.250000 0.500000
O O6 0.779090 0.154897 0.665511
O O7 0.662138 0.153210 0.287131
O O8 0.000000 0.176224 0.750000
O O9 0.615296 0.385204 0.629329
O O10 0.326499 0.448369 0.252196
O O11 0.295773 0.557164 0.466716
O O12 0.000000 0.540156 0.250000
#
# Coordination Sequence:
#
# PCOD9264154 Si02
#       5
#     8   8   8   8   8
#     4  11  24  37  55  81 118 165 201 224 284 346
#     4   9  20  35  63  96 107 136 188 242 313 342
#     4  10  22  40  55  85 123 144 195 253 276 345
#     4  10  19  35  56  80 113 152 197 236 283 335
#     4  10  21  39  56  84 122 146 190 249 287 340
#
# _framework density 22.298407000000001
#
# number of rings (size 3 to 8) (size 9 to 14) (size 15 to 20)
#    0.000    2.000    2.000    2.400    5.600    1.600 
#    7.200    0.000    0.000    1.200    0.000    0.000 
#    0.000    0.000    0.000    0.000    0.000    0.000 
#
# Total GULP energy -111647.265873 kJ/mol
# GULP energy per Si atom -5582.363294 kJ/mol
# Density = 2.224765 g / cm^3
# Si number density = 22.298407 Si / 1000 Ang^3
#
#
#
# Elastic Constant Matrix: (Units=GPa)
#
#
# Indices 1 2 3 4 5 6 
#
# 1 158.3224 35.2740 4.9021 0.0000 23.2279 0.0000
# 2 35.2740 107.4548 12.1484 0.0000 -10.7084 0.0000
# 3 4.9021 12.1484 59.5694 0.0000 4.8692 0.0000
# 4 0.0000 0.0000 0.0000 12.6567 0.0000 8.5614
# 5 23.2279 -10.7084 4.8692 0.0000 37.7766 0.0000
# 6 0.0000 0.0000 0.0000 8.5614 0.0000 15.6239
#
#
#
# Elastic Compliance Matrix: (Units=1/GPa)
#
#
# Indices 1 2 3 4 5 6 
#
# 1 0.007871 -0.003218 0.000484 0.000000 -0.005814 0.000000
# 2 -0.003218 0.011186 -0.002463 0.000000 0.005467 0.000000
# 3 0.000484 -0.002463 0.017516 0.000000 -0.003253 0.000000
# 4 0.000000 0.000000 0.000000 0.125544 0.000000 -0.068794
# 5 -0.005814 0.005467 -0.003253 0.000000 0.032016 0.000000
# 6 0.000000 0.000000 0.000000 -0.068794 0.000000 0.101701
#
#
# Mechanical properties :
#
#
# Convention : Reuss Voigt Hill
#
# Bulk Modulus (GPa) = 38.20033 47.77730 42.98881
# Shear Modulus (GPa) = 15.87528 31.41290 23.64409
#
# Velocity S-wave (km/s) = 2.67113 3.75740 3.25983
# Velocity P-wave (km/s) = 5.16545 6.34799 5.78700
#
# Compressibility (1/GPa) = 0.02617778
#
# Stress axis : x y z
#
# Youngs Moduli (GPa) = 127.04451 89.39821 57.09195
#
# Poissons Ratio (x) = 0.28768 -0.02762
# Poissons Ratio (y) = 0.40883 0.14063
# Poissons Ratio (z) = -0.06146 0.22021
#
# Static dielectric constant tensor:
#      x y z
#    x 1.956050 0.000000 -0.020970 
#    y 0.000000 1.819430 0.000000 
#    z -0.020970 0.000000 1.869250 
# 
# From -- ./inp_files/100756.got.cif
#   From: 2010.05.17/outbox.cif.g08.bks.cpg/sg15_51_cif.got.tgz:100756.got - 2010.06.03 18:47:42.
