data_PCOD9264947
_publ_section_title
;
Structure prediction by ZEFSAII (Michael W. Deem and Ramdas Pophale) SiO2 
 PCOD9264947
Probable space group: C 2/C
;
_chemical_formula_sum "Si O2"
_cell_formula_units_Z 56
_cell_length_a 33.918201
_cell_length_b 8.378241
_cell_length_c 25.621033
_cell_angle_alpha 90.000000
_cell_angle_beta 154.012872
_cell_angle_gamma 90.000000
_cell_volume 3190.245864
_symmetry_space_group_name_H-M "C 2/C"
_symmetry_group_IT_number 15
_symmetry_cell_setting 'monoclinic'
loop_
_space_group_symop_operation_xyz
x,y,z
-x,y,1/2-z
-x,-y,-z
x,-y,1/2+z
1/2+x,1/2+y,z
1/2-x,1/2+y,1/2-z
1/2-x,1/2-y,-z
1/2+x,1/2-y,1/2+z
loop_
_atom_site_type_symbol
_atom_site_label
_atom_site_fract_x
_atom_site_fract_y
_atom_site_fract_z
Si Si1 0.940380 0.501680 0.318962
Si Si2 0.050262 0.304005 0.364636
Si Si3 0.322332 0.805809 0.257624
Si Si4 0.349720 0.506133 0.480770
Si Si5 0.884702 0.698455 0.949937
Si Si6 0.268606 0.204406 0.081746
Si Si7 0.726301 0.996312 0.600116
O O1 0.898259 0.395989 0.314876
O O2 0.860570 0.606165 0.198644
O O3 0.986235 0.388598 0.330567
O O4 0.018132 0.616225 0.433101
O O5 0.079897 0.128524 0.418614
O O6 0.142100 0.408895 0.471618
O O7 0.000000 0.298866 0.250000
O O8 0.350700 0.781237 0.350848
O O9 0.296080 0.638409 0.200154
O O10 0.233316 0.915771 0.146148
O O11 0.386909 0.638479 0.485566
O O12 0.308826 0.596331 0.482875
O O13 0.816413 0.582486 0.900097
O O14 0.269166 0.367796 0.115382
O O15 0.250000 0.250000 0.000000
#
# Coordination Sequence:
#
# PCOD9264947 Si02
#       7
#     8   8   8   8   8   8   8
#     4  10  22  34  53  82 106 133 181 218 255 309
#     4  10  20  37  55  77 108 140 171 217 261 305
#     4  10  19  36  55  77 107 139 172 219 262 305
#     4   9  21  35  54  80 104 139 182 205 257 331
#     4  10  19  36  55  77 107 139 171 219 263 305
#     4  10  20  37  56  78 107 139 172 219 262 304
#     4   9  20  35  56  79 103 139 181 205 255 329
#
# _framework density 17.553507
#
# number of rings (size 3 to 8) (size 9 to 14) (size 15 to 20)
#    0.000    2.286    0.000    2.143    0.000    3.429 
#    0.000   11.429    0.000    0.000    0.000    0.000 
#    0.000    0.000    0.000    0.000    0.000    0.000 
#
# Total GULP energy -156300.042293 kJ/mol
# GULP energy per Si atom -5582.144368 kJ/mol
# Density = 1.751355 g / cm^3
# Si number density = 17.553507 Si / 1000 Ang^3
#
#
#
# Elastic Constant Matrix: (Units=GPa)
#
#
# Indices 1 2 3 4 5 6 
#
# 1 97.7946 70.1651 83.0548 0.0000 -10.9780 0.0000
# 2 70.1651 151.6436 70.5704 0.0000 -0.8094 0.0000
# 3 83.0548 70.5704 111.6838 0.0000 -19.0694 0.0000
# 4 0.0000 0.0000 0.0000 19.5804 0.0000 8.8798
# 5 -10.9780 -0.8094 -19.0694 0.0000 26.0098 0.0000
# 6 0.0000 0.0000 0.0000 8.8798 0.0000 22.1740
#
#
#
# Elastic Compliance Matrix: (Units=1/GPa)
#
#
# Indices 1 2 3 4 5 6 
#
# 1 0.030281 -0.004804 -0.019806 0.000000 -0.001890 0.000000
# 2 -0.004804 0.010614 -0.003914 0.000000 -0.004567 0.000000
# 3 -0.019806 -0.003914 0.028243 0.000000 0.012226 0.000000
# 4 0.000000 0.000000 0.000000 0.062405 0.000000 -0.024991
# 5 -0.001890 -0.004567 0.012226 0.000000 0.046471 0.000000
# 6 0.000000 0.000000 0.000000 -0.024991 0.000000 0.055106
#
#
# Mechanical properties :
#
#
# Convention : Reuss Voigt Hill
#
# Bulk Modulus (GPa) = 82.70885 89.85586 86.28236
# Shear Modulus (GPa) = 16.99539 22.70828 19.85184
#
# Velocity S-wave (km/s) = 3.11497 3.60065 3.36658
# Velocity P-wave (km/s) = 7.75615 8.28173 8.02325
#
# Compressibility (1/GPa) = 0.01209060
#
# Stress axis : x y z
#
# Youngs Moduli (GPa) = 33.02453 94.21158 35.40654
#
# Poissons Ratio (x) = 0.45258 0.70125
# Poissons Ratio (y) = 0.15865 0.13859
# Poissons Ratio (z) = 0.65407 0.36878
#
# Static dielectric constant tensor:
#      x y z
#    x 1.571940 0.000000 0.014670 
#    y 0.000000 1.588340 0.000000 
#    z 0.014670 0.000000 1.567670 
# 
# From -- ./inp_files/171789.got.cif
#   From: 2010.05.17/outbox.cif.g08.bks.cpg/sg15_86_cif.got.tgz:171789.got - 2010.06.03 18:47:42.
