data_PCOD9264715
_publ_section_title
;
Structure prediction by ZEFSAII (Michael W. Deem and Ramdas Pophale) SiO2 
 PCOD9264715
Probable space group: C 2/C
;
_chemical_formula_sum "Si O2"
_cell_formula_units_Z 44
_cell_length_a 9.403425
_cell_length_b 23.429245
_cell_length_c 12.476031
_cell_angle_alpha 90.000000
_cell_angle_beta 42.756456
_cell_angle_gamma 90.000000
_cell_volume 1866.018938
_symmetry_space_group_name_H-M "C 2/C"
_symmetry_group_IT_number 15
_symmetry_cell_setting 'monoclinic'
loop_
_space_group_symop_operation_xyz
x,y,z
-x,y,1/2-z
-x,-y,-z
x,-y,1/2+z
1/2+x,1/2+y,z
1/2-x,1/2+y,1/2-z
1/2-x,1/2-y,-z
1/2+x,1/2-y,1/2+z
loop_
_atom_site_type_symbol
_atom_site_label
_atom_site_fract_x
_atom_site_fract_y
_atom_site_fract_z
Si Si1 0.491926 0.003417 0.864042
Si Si2 0.264352 0.703894 0.842149
Si Si3 0.542790 0.690689 0.983817
Si Si4 0.717589 0.562291 0.177769
Si Si5 0.797513 0.616587 0.434351
Si Si6 0.000000 0.829333 0.750000
O O1 0.500000 0.036846 0.750000
O O2 0.715594 0.972966 0.756515
O O3 0.332166 0.949980 0.942521
O O4 0.412370 0.046095 0.996280
O O5 0.500000 0.719369 0.750000
O O6 0.275723 0.694106 0.706898
O O7 0.107983 0.755284 0.951667
O O8 0.207907 0.650930 0.950527
O O9 0.407268 0.635461 0.019692
O O10 0.587302 0.693794 0.087582
O O11 0.500000 0.540504 0.250000
O O12 0.683534 0.629509 0.194858
O O13 0.000000 0.632500 0.250000
#
# Coordination Sequence:
#
# PCOD9264715 Si02
#       6
#     8   8   8   8   8   4
#     4  10  20  39  63  87 116 162 202 244 308 357
#     4  10  21  36  58  91 116 151 204 254 296 351
#     4  11  21  37  58  83 121 159 196 253 300 361
#     4   9  22  40  56  87 122 155 198 257 293 364
#     4  10  19  35  62  88 115 152 201 249 296 357
#     4  10  22  40  56  82 124 162 204 238 312 356
#
# _framework density 23.579609999999999
#
# number of rings (size 3 to 8) (size 9 to 14) (size 15 to 20)
#    0.545    1.455    0.000    6.000    0.000    3.636 
#    6.545    0.000    0.000    0.000    0.000    0.000 
#    0.000    0.000    0.000    0.000    0.000    0.000 
#
# Total GULP energy -122551.458053 kJ/mol
# GULP energy per Si atom -5570.520821 kJ/mol
# Density = 2.352594 g / cm^3
# Si number density = 23.579610 Si / 1000 Ang^3
#
#
#
# Elastic Constant Matrix: (Units=GPa)
#
#
# Indices 1 2 3 4 5 6 
#
# 1 72.0037 -3.6730 20.9253 0.0000 31.4855 0.0000
# 2 -3.6730 25.8405 19.9309 0.0000 2.9561 0.0000
# 3 20.9253 19.9309 125.4550 0.0000 44.6177 0.0000
# 4 0.0000 0.0000 0.0000 -145.6208 0.0000 86.6213
# 5 31.4855 2.9561 44.6177 0.0000 46.7357 0.0000
# 6 0.0000 0.0000 0.0000 86.6213 0.0000 -33.5166
#
#
#
# Elastic Compliance Matrix: (Units=1/GPa)
#
#
# Indices 1 2 3 4 5 6 
#
# 1 0.020350 0.003476 0.001525 0.000000 -0.015386 0.000000
# 2 0.003476 0.045800 -0.009074 0.000000 0.003424 0.000000
# 3 0.001525 -0.009074 0.014110 0.000000 -0.013925 0.000000
# 4 0.000000 0.000000 0.000000 0.012780 0.000000 0.033030
# 5 -0.015386 0.003424 -0.013925 0.000000 0.044839 0.000000
# 6 0.000000 0.000000 0.000000 0.033030 0.000000 0.055527
#
#
# Mechanical properties :
#
#
# Convention : Reuss Voigt Hill
#
# Bulk Modulus (GPa) = 13.86652 33.07396 23.47024
# Shear Modulus (GPa) = 22.16422 -14.07259 4.04581
#
# Velocity S-wave (km/s) = 3.06923 -2.44562 1.31131
# Velocity P-wave (km/s) = 4.29578 2.46621 3.50256
#
# Compressibility (1/GPa) = 0.07211615
#
# Stress axis : x y z
#
# Youngs Moduli (GPa) = 49.14000 21.83414 70.87027
#
# Poissons Ratio (x) = -0.07590 -0.10810
# Poissons Ratio (y) = -0.17082 0.64305
# Poissons Ratio (z) = -0.07496 0.19811
#
# Static dielectric constant tensor:
#      x y z
#    x 2.136250 0.000000 0.156250 
#    y 0.000000 1.898710 0.000000 
#    z 0.156250 0.000000 1.985740 
# 
# From -- ./inp_files/81074.got.cif
#   From: 2010.05.17/outbox.cif.g08.bks.cpg/sg15_41_cif.got.tgz:81074.got - 2010.06.03 18:47:42.
