data_PCOD9264498
_publ_section_title
;
Structure prediction by ZEFSAII (Michael W. Deem and Ramdas Pophale) SiO2 
 PCOD9264498
Probable space group: C 2/C
;
_chemical_formula_sum "Si O2"
_cell_formula_units_Z 44
_cell_length_a 10.967622
_cell_length_b 23.900653
_cell_length_c 9.617418
_cell_angle_alpha 90.000000
_cell_angle_beta 56.835748
_cell_angle_gamma 90.000000
_cell_volume 2110.382013
_symmetry_space_group_name_H-M "C 2/C"
_symmetry_group_IT_number 15
_symmetry_cell_setting 'monoclinic'
loop_
_space_group_symop_operation_xyz
x,y,z
-x,y,1/2-z
-x,-y,-z
x,-y,1/2+z
1/2+x,1/2+y,z
1/2-x,1/2+y,1/2-z
1/2-x,1/2-y,-z
1/2+x,1/2-y,1/2+z
loop_
_atom_site_type_symbol
_atom_site_label
_atom_site_fract_x
_atom_site_fract_y
_atom_site_fract_z
Si Si1 0.000000 0.462511 0.250000
Si Si2 0.371997 0.334181 0.944856
Si Si3 0.565088 0.214865 0.554268
Si Si4 0.052841 0.611245 0.991172
Si Si5 0.696761 0.068524 0.145374
Si Si6 0.500563 0.443292 0.913222
O O1 0.860048 0.504472 0.342617
O O2 0.024525 0.424199 0.369489
O O3 0.500000 0.338687 0.750000
O O4 0.407288 0.278306 0.011111
O O5 0.379594 0.394802 0.012066
O O6 0.217583 0.318774 0.972352
O O7 0.500000 0.218554 0.750000
O O8 0.457478 0.176510 0.534422
O O9 0.192964 0.594495 0.993646
O O10 0.923359 0.594369 0.176594
O O11 0.845158 0.080207 0.131905
O O12 0.500000 0.457275 0.750000
O O13 0.500000 0.500000 0.000000
#
# Coordination Sequence:
#
# PCOD9264498 Si02
#       6
#     4   8   8   8   8   8
#     4  10  20  32  60  84 118 148 206 256 282 352
#     4   9  20  39  59  90 123 160 202 243 307 370
#     4  10  19  35  66  92 115 156 211 257 291 353
#     4  10  19  35  59  88 116 153 203 256 294 352
#     4  10  22  36  54  84 123 161 192 242 314 358
#     4  11  25  40  61  82 122 163 198 242 303 377
#
# _framework density 20.849308000000001
#
# number of rings (size 3 to 8) (size 9 to 14) (size 15 to 20)
#    0.000    2.182    0.909    4.364    7.636    0.000 
#    0.000    0.909    4.000    0.000    0.000    0.000 
#    0.000    0.000    0.000    0.000    0.000    0.000 
#
# Total GULP energy -122660.133809 kJ/mol
# GULP energy per Si atom -5575.460628 kJ/mol
# Density = 2.080185 g / cm^3
# Si number density = 20.849308 Si / 1000 Ang^3
#
#
#
# Elastic Constant Matrix: (Units=GPa)
#
#
# Indices 1 2 3 4 5 6 
#
# 1 76.7928 27.9604 25.2526 0.0000 26.6835 0.0000
# 2 27.9604 163.6999 31.1304 0.0000 27.4833 0.0000
# 3 25.2526 31.1304 64.6889 0.0000 31.3343 0.0000
# 4 0.0000 0.0000 0.0000 40.1305 0.0000 8.9307
# 5 26.6835 27.4833 31.3343 0.0000 42.8668 0.0000
# 6 0.0000 0.0000 0.0000 8.9307 0.0000 21.2979
#
#
#
# Elastic Compliance Matrix: (Units=1/GPa)
#
#
# Indices 1 2 3 4 5 6 
#
# 1 0.017012 -0.001109 -0.002047 0.000000 -0.008382 0.000000
# 2 -0.001109 0.007057 -0.001712 0.000000 -0.002583 0.000000
# 3 -0.002047 -0.001712 0.024666 0.000000 -0.015658 0.000000
# 4 0.000000 0.000000 0.000000 0.027483 0.000000 -0.011524
# 5 -0.008382 -0.002583 -0.015658 0.000000 0.041647 0.000000
# 6 0.000000 0.000000 0.000000 -0.011524 0.000000 0.051785
#
#
# Mechanical properties :
#
#
# Convention : Reuss Voigt Hill
#
# Bulk Modulus (GPa) = 25.64197 52.65204 39.14700
# Shear Modulus (GPa) = 25.98922 35.58160 30.78541
#
# Velocity S-wave (km/s) = 3.53445 4.13559 3.84678
# Velocity P-wave (km/s) = 5.38348 6.93633 6.20864
#
# Compressibility (1/GPa) = 0.03899856
#
# Stress axis : x y z
#
# Youngs Moduli (GPa) = 58.78373 141.69512 40.54108
#
# Poissons Ratio (x) = 0.15716 0.08299
# Poissons Ratio (y) = 0.06520 0.06942
# Poissons Ratio (z) = 0.12033 0.24262
#
# Static dielectric constant tensor:
#      x y z
#    x 1.736630 0.000000 -0.017290 
#    y 0.000000 1.857300 0.000000 
#    z -0.017290 0.000000 1.749750 
# 
# From -- ./inp_files/31837.got.cif
#   From: 2010.05.17/outbox.cif.g08.bks.cpg/sg15_16_cif.got.tgz:31837.got - 2010.06.03 18:47:42.
