data_PCOD9264680
_publ_section_title
;
Structure prediction by ZEFSAII (Michael W. Deem and Ramdas Pophale) SiO2 
 PCOD9264680
Probable space group: C 2/C
;
_chemical_formula_sum "Si O2"
_cell_formula_units_Z 56
_cell_length_a 21.509118
_cell_length_b 14.583756
_cell_length_c 13.768441
_cell_angle_alpha 90.000000
_cell_angle_beta 148.340555
_cell_angle_gamma 90.000000
_cell_volume 2266.876868
_symmetry_space_group_name_H-M "C 2/C"
_symmetry_group_IT_number 15
_symmetry_cell_setting 'monoclinic'
loop_
_space_group_symop_operation_xyz
x,y,z
-x,y,1/2-z
-x,-y,-z
x,-y,1/2+z
1/2+x,1/2+y,z
1/2-x,1/2+y,1/2-z
1/2-x,1/2-y,-z
1/2+x,1/2-y,1/2+z
loop_
_atom_site_type_symbol
_atom_site_label
_atom_site_fract_x
_atom_site_fract_y
_atom_site_fract_z
Si Si1 0.218970 0.589382 0.352045
Si Si2 0.070049 0.066865 0.741631
Si Si3 0.899141 0.264314 0.702238
Si Si4 0.732861 0.298858 0.744892
Si Si5 0.507126 0.823438 0.369598
Si Si6 0.901676 0.869573 0.745460
Si Si7 0.777739 0.387857 0.175424
O O1 0.291013 0.560097 0.545124
O O2 0.103631 0.642878 0.237686
O O3 0.305933 0.659164 0.408673
O O4 0.217427 0.494252 0.290982
O O5 0.059505 0.170456 0.687696
O O6 0.000000 0.062869 0.750000
O O7 0.041756 0.968647 0.657890
O O8 0.750000 0.250000 0.500000
O O9 0.000000 0.276066 0.750000
O O10 0.674148 0.339027 0.762689
O O11 0.733685 0.189347 0.756622
O O12 0.864422 0.339852 0.919020
O O13 0.500000 0.855693 0.250000
O O14 0.490885 0.713647 0.349602
O O15 0.401717 0.866833 0.288664
O O16 0.821882 0.871382 0.540955
#
# Coordination Sequence:
#
# PCOD9264680 Si02
#       7
#     8   8   8   8   8   8   8
#     4  10  23  39  59  92 123 159 203 266 321 366
#     4   9  19  38  65  87 115 160 213 256 305 382
#     4   9  19  41  63  87 121 168 213 252 306 384
#     4  11  22  38  57  89 129 153 203 266 318 366
#     4  11  18  34  61  86 116 163 203 247 314 374
#     4  10  19  35  61  92 115 157 213 251 306 384
#     4  10  21  38  59  85 120 165 210 252 307 386
#
# _framework density 24.703592
#
# number of rings (size 3 to 8) (size 9 to 14) (size 15 to 20)
#    0.000    2.000    2.857    1.286    2.000    2.286 
#   18.000    0.714    0.000    0.000    0.000    0.000 
#    0.000    0.000    0.000    0.000    0.000    0.000 
#
# Total GULP energy -156048.719746 kJ/mol
# GULP energy per Si atom -5573.168562 kJ/mol
# Density = 2.464737 g / cm^3
# Si number density = 24.703592 Si / 1000 Ang^3
#
#
#
# Elastic Constant Matrix: (Units=GPa)
#
#
# Indices 1 2 3 4 5 6 
#
# 1 112.9911 36.3829 24.2989 0.0000 12.9578 0.0000
# 2 36.3829 176.0314 0.0325 0.0000 -5.9200 0.0000
# 3 24.2989 0.0325 57.9627 0.0000 17.3504 0.0000
# 4 0.0000 0.0000 0.0000 15.7876 0.0000 -7.3400
# 5 12.9578 -5.9200 17.3504 0.0000 26.1636 0.0000
# 6 0.0000 0.0000 0.0000 -7.3400 0.0000 21.2896
#
#
#
# Elastic Compliance Matrix: (Units=1/GPa)
#
#
# Indices 1 2 3 4 5 6 
#
# 1 0.010754 -0.002342 -0.003436 0.000000 -0.003577 0.000000
# 2 -0.002342 0.006246 0.000260 0.000000 0.002401 0.000000
# 3 -0.003436 0.000260 0.022665 0.000000 -0.013270 0.000000
# 4 0.000000 0.000000 0.000000 0.075432 0.000000 0.026007
# 5 -0.003577 0.002401 -0.013270 0.000000 0.049336 0.000000
# 6 0.000000 0.000000 0.000000 0.026007 0.000000 0.055937
#
#
# Mechanical properties :
#
#
# Convention : Reuss Voigt Hill
#
# Bulk Modulus (GPa) = 34.93201 52.04601 43.48901
# Shear Modulus (GPa) = 20.75132 31.73291 26.24211
#
# Velocity S-wave (km/s) = 2.90144 3.58794 3.26280
# Velocity P-wave (km/s) = 5.03941 6.18695 5.64243
#
# Compressibility (1/GPa) = 0.02862704
#
# Stress axis : x y z
#
# Youngs Moduli (GPa) = 92.99202 160.11242 44.12112
#
# Poissons Ratio (x) = 0.37503 0.15160
# Poissons Ratio (y) = 0.21781 -0.01146
# Poissons Ratio (z) = 0.31952 -0.04158
#
# Static dielectric constant tensor:
#      x y z
#    x 2.022420 0.000000 -0.135590 
#    y 0.000000 2.012120 0.000000 
#    z -0.135590 0.000000 2.201440 
# 
# From -- ./inp_files/168494.got.cif
#   From: 2010.05.17/outbox.cif.g08.bks.cpg/sg15_85_cif.got.tgz:168494.got - 2010.06.03 18:47:42.
