data_PCOD9264780
_publ_section_title
;
Structure prediction by ZEFSAII (Michael W. Deem and Ramdas Pophale) SiO2 
 PCOD9264780
Probable space group: C 2/C
;
_chemical_formula_sum "Si O2"
_cell_formula_units_Z 56
_cell_length_a 9.187449
_cell_length_b 28.000573
_cell_length_c 18.540584
_cell_angle_alpha 90.000000
_cell_angle_beta 34.844116
_cell_angle_gamma 90.000000
_cell_volume 2725.111028
_symmetry_space_group_name_H-M "C 2/C"
_symmetry_group_IT_number 15
_symmetry_cell_setting 'monoclinic'
loop_
_space_group_symop_operation_xyz
x,y,z
-x,y,1/2-z
-x,-y,-z
x,-y,1/2+z
1/2+x,1/2+y,z
1/2-x,1/2+y,1/2-z
1/2-x,1/2-y,-z
1/2+x,1/2-y,1/2+z
loop_
_atom_site_type_symbol
_atom_site_label
_atom_site_fract_x
_atom_site_fract_y
_atom_site_fract_z
Si Si1 0.258478 0.123173 0.956449
Si Si2 0.209565 0.177325 0.390500
Si Si3 0.855160 0.961357 0.108642
Si Si4 0.000000 0.698556 0.750000
Si Si5 0.001741 0.741593 0.049046
Si Si6 0.000000 0.463054 0.750000
Si Si7 0.220181 0.401095 0.532660
Si Si8 0.797601 0.365656 0.604681
O O1 0.252743 0.077699 0.904937
O O2 0.409447 0.164191 0.851768
O O3 0.342011 0.117573 0.004377
O O4 0.970456 0.143694 0.083112
O O5 0.500000 0.178354 0.250000
O O6 0.094762 0.229995 0.440047
O O7 0.195267 0.151275 0.474490
O O8 0.667783 0.997900 0.224875
O O9 0.033078 0.931294 0.089843
O O10 0.000000 0.000000 0.000000
O O11 0.241633 0.730454 0.676319
O O12 0.911455 0.687911 0.070273
O O13 0.250000 0.750000 0.000000
O O14 0.863388 0.428556 0.860941
O O15 0.979416 0.397902 0.580127
O O16 0.500000 0.366950 0.750000
#
# Coordination Sequence:
#
# PCOD9264780 Si02
#       8
#     8   8   8   4   8   4   8   8
#     4  10  23  40  65  91 126 176 203 271 327 367
#     4  10  19  35  63  88 123 168 225 251 297 381
#     4   9  20  38  66  91 118 155 220 250 308 405
#     4  10  23  44  64  88 132 172 236 246 311 402
#     4  11  23  39  62  92 129 178 219 265 312 375
#     4  10  19  38  72  92 116 164 212 260 317 388
#     4  10  20  37  63  94 122 162 209 264 313 383
#     4  12  25  40  63  96 138 163 214 273 329 371
#
# _framework density 20.549620000000001
#
# number of rings (size 3 to 8) (size 9 to 14) (size 15 to 20)
#    0.000    1.714    2.857    1.286    4.000    3.429 
#    0.000    2.857    0.000    0.000    0.000    0.000 
#    0.000    0.000    0.000    0.000    0.000    0.000 
#
# Total GULP energy -155892.989895 kJ/mol
# GULP energy per Si atom -5567.606782 kJ/mol
# Density = 2.050285 g / cm^3
# Si number density = 20.549620 Si / 1000 Ang^3
#
#
#
# Elastic Constant Matrix: (Units=GPa)
#
#
# Indices 1 2 3 4 5 6 
#
# 1 111.7187 31.5193 15.6208 0.0000 -12.9306 0.0000
# 2 31.5193 108.7117 26.6792 0.0000 -11.6995 0.0000
# 3 15.6208 26.6792 52.0393 0.0000 -15.4631 0.0000
# 4 0.0000 0.0000 0.0000 23.7191 0.0000 -9.1386
# 5 -12.9306 -11.6995 -15.4631 0.0000 28.0869 0.0000
# 6 0.0000 0.0000 0.0000 -9.1386 0.0000 19.5553
#
#
#
# Elastic Compliance Matrix: (Units=1/GPa)
#
#
# Indices 1 2 3 4 5 6 
#
# 1 0.010112 -0.002375 -0.000871 0.000000 0.003186 0.000000
# 2 -0.002375 0.011148 -0.004719 0.000000 0.000952 0.000000
# 3 -0.000871 -0.004719 0.025339 0.000000 0.011584 0.000000
# 4 0.000000 0.000000 0.000000 0.051418 0.000000 0.024029
# 5 0.003186 0.000952 0.011584 0.000000 0.043845 0.000000
# 6 0.000000 0.000000 0.000000 0.024029 0.000000 0.062366
#
#
# Mechanical properties :
#
#
# Convention : Reuss Voigt Hill
#
# Bulk Modulus (GPa) = 32.60715 46.67870 39.64293
# Shear Modulus (GPa) = 21.70319 27.51562 24.60940
#
# Velocity S-wave (km/s) = 3.25335 3.66318 3.46433
# Velocity P-wave (km/s) = 5.47854 6.37623 5.94435
#
# Compressibility (1/GPa) = 0.03066812
#
# Stress axis : x y z
#
# Youngs Moduli (GPa) = 98.89531 89.70278 39.46460
#
# Poissons Ratio (x) = 0.21305 0.03436
# Poissons Ratio (y) = 0.23489 0.18625
# Poissons Ratio (z) = 0.08612 0.42335
#
# Static dielectric constant tensor:
#      x y z
#    x 1.817420 0.000000 -0.085670 
#    y 0.000000 1.740650 0.000000 
#    z -0.085670 0.000000 1.847740 
# 
# From -- ./inp_files/193882.got.cif
#   From: 2010.05.17/outbox.cif.g08.bks.cpg/sg15_97_cif.got.tgz:193882.got - 2010.06.03 18:47:42.
