data_PCOD9264544
_publ_section_title
;
Structure prediction by ZEFSAII (Michael W. Deem and Ramdas Pophale) SiO2 
 PCOD9264544
Probable space group: C 2/C
;
_chemical_formula_sum "Si O2"
_cell_formula_units_Z 48
_cell_length_a 13.666174
_cell_length_b 9.285682
_cell_length_c 19.508268
_cell_angle_alpha 90.000000
_cell_angle_beta 86.072288
_cell_angle_gamma 90.000000
_cell_volume 2469.779739
_symmetry_space_group_name_H-M "C 2/C"
_symmetry_group_IT_number 15
_symmetry_cell_setting 'monoclinic'
loop_
_space_group_symop_operation_xyz
x,y,z
-x,y,1/2-z
-x,-y,-z
x,-y,1/2+z
1/2+x,1/2+y,z
1/2-x,1/2+y,1/2-z
1/2-x,1/2-y,-z
1/2+x,1/2-y,1/2+z
loop_
_atom_site_type_symbol
_atom_site_label
_atom_site_fract_x
_atom_site_fract_y
_atom_site_fract_z
Si Si1 0.820572 0.729356 0.891769
Si Si2 0.577759 0.794423 0.625262
Si Si3 0.863071 0.433998 0.622013
Si Si4 0.886465 0.520818 0.768153
Si Si5 0.082768 0.004105 0.554343
Si Si6 0.298876 0.960797 0.989544
O O1 0.717185 0.810478 0.887838
O O2 0.843728 0.637109 0.822750
O O3 0.898315 0.852098 0.909030
O O4 0.817809 0.615249 0.953411
O O5 0.472225 0.869671 0.618537
O O6 0.614113 0.863312 0.695013
O O7 0.564853 0.625751 0.612880
O O8 0.655548 0.848121 0.564999
O O9 0.839248 0.507225 0.695840
O O10 0.853512 0.543691 0.559612
O O11 0.000000 0.558527 0.750000
O O12 0.184045 0.044392 0.510767
O O13 0.000000 0.000000 0.500000
#
# Coordination Sequence:
#
# PCOD9264544 Si02
#       6
#     8   8   8   8   8   8
#     4  10  21  38  57  82 113 145 183 229 277 328
#     4  10  20  36  56  82 111 144 184 228 274 329
#     4  10  19  35  60  82 109 146 184 225 272 327
#     4   9  21  39  56  77 111 152 187 217 271 340
#     4  11  21  34  55  86 113 140 184 240 282 317
#     4  10  20  36  58  83 112 147 185 223 275 339
#
# _framework density 19.434932
#
# number of rings (size 3 to 8) (size 9 to 14) (size 15 to 20)
#    0.000    2.000    0.000    5.000    0.000    5.333 
#    0.000    7.500    0.000    2.000    0.000    0.000 
#    0.000    0.000    0.000    0.000    0.000    0.000 
#
# Total GULP energy -133943.136703 kJ/mol
# GULP energy per Si atom -5580.964029 kJ/mol
# Density = 1.939070 g / cm^3
# Si number density = 19.434932 Si / 1000 Ang^3
#
#
#
# Elastic Constant Matrix: (Units=GPa)
#
#
# Indices 1 2 3 4 5 6 
#
# 1 37.3009 7.5239 12.4604 0.0000 -0.7069 0.0000
# 2 7.5239 40.9658 0.6183 0.0000 -2.6636 0.0000
# 3 12.4604 0.6183 108.9996 0.0000 0.2463 0.0000
# 4 0.0000 0.0000 0.0000 16.9436 0.0000 -4.9399
# 5 -0.7069 -2.6636 0.2463 0.0000 28.6039 0.0000
# 6 0.0000 0.0000 0.0000 -4.9399 0.0000 18.4397
#
#
#
# Elastic Compliance Matrix: (Units=1/GPa)
#
#
# Indices 1 2 3 4 5 6 
#
# 1 0.028970 -0.005255 -0.003283 0.000000 0.000255 0.000000
# 2 -0.005255 0.025515 0.000451 0.000000 0.002242 0.000000
# 3 -0.003283 0.000451 0.009547 0.000000 -0.000121 0.000000
# 4 0.000000 0.000000 0.000000 0.064020 0.000000 0.017151
# 5 0.000255 0.002242 -0.000121 0.000000 0.035176 0.000000
# 6 0.000000 0.000000 0.000000 0.017151 0.000000 0.058825
#
#
# Mechanical properties :
#
#
# Convention : Reuss Voigt Hill
#
# Bulk Modulus (GPa) = 20.89442 25.38573 23.14007
# Shear Modulus (GPa) = 19.67114 23.90836 21.78975
#
# Velocity S-wave (km/s) = 3.18489 3.51119 3.35201
# Velocity P-wave (km/s) = 4.92940 5.43399 5.18783
#
# Compressibility (1/GPa) = 0.04785967
#
# Stress axis : x y z
#
# Youngs Moduli (GPa) = 34.51809 39.19318 104.74158
#
# Poissons Ratio (x) = 0.20595 0.34382
# Poissons Ratio (y) = 0.18138 -0.04723
# Poissons Ratio (z) = 0.11331 -0.01767
#
# Static dielectric constant tensor:
#      x y z
#    x 1.668700 0.000000 0.001610 
#    y 0.000000 1.711930 0.000000 
#    z 0.001610 0.000000 1.693110 
# 
# From -- ./inp_files/203021.got.cif
#   From: 2010.05.17/outbox.cif.g08.bks.cpg/sg15_102_cif.got.tgz:203021.got - 2010.06.03 18:47:42.
