data_PCOD9264461
_publ_section_title
;
Structure prediction by ZEFSAII (Michael W. Deem and Ramdas Pophale) SiO2 
 PCOD9264461
Probable space group: C 2/C
;
_chemical_formula_sum "Si O2"
_cell_formula_units_Z 60
_cell_length_a 13.509676
_cell_length_b 8.682863
_cell_length_c 20.157439
_cell_angle_alpha 90.000000
_cell_angle_beta 104.654706
_cell_angle_gamma 90.000000
_cell_volume 2287.598851
_symmetry_space_group_name_H-M "C 2/C"
_symmetry_group_IT_number 15
_symmetry_cell_setting 'monoclinic'
loop_
_space_group_symop_operation_xyz
x,y,z
-x,y,1/2-z
-x,-y,-z
x,-y,1/2+z
1/2+x,1/2+y,z
1/2-x,1/2+y,1/2-z
1/2-x,1/2-y,-z
1/2+x,1/2-y,1/2+z
loop_
_atom_site_type_symbol
_atom_site_label
_atom_site_fract_x
_atom_site_fract_y
_atom_site_fract_z
Si Si1 0.821117 0.305546 0.303988
Si Si2 0.174975 0.548086 0.288654
Si Si3 0.605324 0.071323 0.488013
Si Si4 0.000000 0.221343 0.750000
Si Si5 0.882074 0.127983 0.860489
Si Si6 0.055315 0.154474 0.052866
Si Si7 0.232204 0.424330 0.623709
Si Si8 0.152996 0.285299 0.436720
O O1 0.879621 0.413295 0.262563
O O2 0.748284 0.174789 0.263080
O O3 0.888034 0.235432 0.373943
O O4 0.748940 0.435818 0.324136
O O5 0.269295 0.452609 0.337530
O O6 0.086238 0.664500 0.296589
O O7 0.694741 0.015351 0.552057
O O8 0.629829 0.968309 0.427238
O O9 0.500000 0.000000 0.500000
O O10 0.599916 0.255565 0.495853
O O11 0.052751 0.129238 0.697162
O O12 0.933579 0.024650 0.927121
O O13 0.861199 0.306162 0.875719
O O14 0.941113 0.209295 0.042930
O O15 0.327301 0.315431 0.624765
O O16 0.250000 0.250000 0.500000
#
# Coordination Sequence:
#
# PCOD9264461 Si02
#       8
#     8   8   8   4   8   8   8   8
#     4  10  19  37  57  83 120 163 202 266 303 370
#     4  11  22  40  61  85 128 166 214 264 314 377
#     4   8  16  36  58  80 115 152 198 253 311 380
#     4  12  24  40  66  84 134 174 208 266 330 352
#     4  11  24  41  58  94 127 165 212 265 313 379
#     4   9  20  35  62  85 118 161 209 250 315 388
#     4  10  19  35  59  84 122 151 205 263 306 380
#     4   9  18  34  60  89 112 157 200 251 322 384
#
# _framework density 26.228375
#
# number of rings (size 3 to 8) (size 9 to 14) (size 15 to 20)
#    0.000    2.133    2.667    0.000    1.867    1.067 
#    2.400    9.333    0.000    0.000    0.000    0.000 
#    0.000    0.000    0.000    0.000    0.000    0.000 
#
# Total GULP energy -167147.678027 kJ/mol
# GULP energy per Si atom -5571.589268 kJ/mol
# Density = 2.616868 g / cm^3
# Si number density = 26.228375 Si / 1000 Ang^3
#
#
#
# Elastic Constant Matrix: (Units=GPa)
#
#
# Indices 1 2 3 4 5 6 
#
# 1 100.9567 37.6554 23.9153 0.0000 -9.2494 0.0000
# 2 37.6554 163.8012 35.3449 0.0000 3.0222 0.0000
# 3 23.9153 35.3449 27.8921 0.0000 1.4363 0.0000
# 4 0.0000 0.0000 0.0000 53.3745 0.0000 4.3575
# 5 -9.2494 3.0222 1.4363 0.0000 32.4423 0.0000
# 6 0.0000 0.0000 0.0000 4.3575 0.0000 34.4065
#
#
#
# Elastic Compliance Matrix: (Units=1/GPa)
#
#
# Indices 1 2 3 4 5 6 
#
# 1 0.013063 -0.000850 -0.010343 0.000000 0.004261 0.000000
# 2 -0.000850 0.008461 -0.009963 0.000000 -0.000589 0.000000
# 3 -0.010343 -0.009963 0.057581 0.000000 -0.004570 0.000000
# 4 0.000000 0.000000 0.000000 0.018931 0.000000 -0.002398
# 5 0.004261 -0.000589 -0.004570 0.000000 0.032296 0.000000
# 6 0.000000 0.000000 0.000000 -0.002398 0.000000 0.029368
#
#
# Mechanical properties :
#
#
# Convention : Reuss Voigt Hill
#
# Bulk Modulus (GPa) = 27.17855 54.05347 40.61601
# Shear Modulus (GPa) = 23.33449 37.09362 30.21406
#
# Velocity S-wave (km/s) = 2.98596 3.76474 3.39774
# Velocity P-wave (km/s) = 4.71940 6.28897 5.55985
#
# Compressibility (1/GPa) = 0.03679372
#
# Stress axis : x y z
#
# Youngs Moduli (GPa) = 76.55398 118.19018 17.36687
#
# Poissons Ratio (x) = 0.10043 0.17962
# Poissons Ratio (y) = 0.06505 0.17302
# Poissons Ratio (z) = 0.79179 1.17750
#
# Static dielectric constant tensor:
#      x y z
#    x 2.189970 0.000000 -0.088880 
#    y 0.000000 2.157860 0.000000 
#    z -0.088880 0.000000 2.267480 
# 
# From -- ./inp_files/294842.got.cif
#   From: 2010.05.17/outbox.cif.g08.bks.cpg/sg15_148_cif.got.tgz:294842.got - 2010.06.03 18:47:42.
