data_PCOD9264267
_publ_section_title
;
Structure prediction by ZEFSAII (Michael W. Deem and Ramdas Pophale) SiO2 
 PCOD9264267
Probable space group: C 2/C
;
_chemical_formula_sum "Si O2"
_cell_formula_units_Z 48
_cell_length_a 22.607790
_cell_length_b 8.504329
_cell_length_c 16.806957
_cell_angle_alpha 90.000000
_cell_angle_beta 141.117654
_cell_angle_gamma 90.000000
_cell_volume 2028.408664
_symmetry_space_group_name_H-M "C 2/C"
_symmetry_group_IT_number 15
_symmetry_cell_setting 'monoclinic'
loop_
_space_group_symop_operation_xyz
x,y,z
-x,y,1/2-z
-x,-y,-z
x,-y,1/2+z
1/2+x,1/2+y,z
1/2-x,1/2+y,1/2-z
1/2-x,1/2-y,-z
1/2+x,1/2-y,1/2+z
loop_
_atom_site_type_symbol
_atom_site_label
_atom_site_fract_x
_atom_site_fract_y
_atom_site_fract_z
Si Si1 0.255997 0.042871 0.037059
Si Si2 0.822520 0.880034 0.821581
Si Si3 0.814654 0.811570 0.421677
Si Si4 0.936609 0.603465 0.328488
Si Si5 0.497561 0.240796 0.940925
Si Si6 0.136718 0.305830 0.979189
O O1 0.338832 0.114793 0.180159
O O2 0.164572 0.152184 0.956101
O O3 0.231670 0.873690 0.046259
O O4 0.299793 0.060734 0.995829
O O5 0.739305 0.829781 0.676852
O O6 0.835385 0.744016 0.902300
O O7 0.807535 0.039395 0.853707
O O8 0.920053 0.873417 0.874875
O O9 0.925054 0.777907 0.543859
O O10 0.946030 0.707776 0.417736
O O11 0.946650 0.422168 0.366058
O O12 0.027684 0.646972 0.370761
#
# Coordination Sequence:
#
# PCOD9264267 Si02
#       6
#     8   8   8   8   8   8
#     4  10  19  37  55  86 116 156 193 238 295 348
#     4  10  21  36  57  88 116 156 195 244 295 345
#     4  11  21  35  60  85 121 153 196 247 294 349
#     4  10  19  35  57  85 116 153 194 239 297 347
#     4  10  20  34  55  86 117 151 195 243 292 349
#     4   9  20  33  59  83 116 150 197 238 282 353
#
# _framework density 23.663871
#
# number of rings (size 3 to 8) (size 9 to 14) (size 15 to 20)
#    0.000    2.000    1.667    3.000    4.667    0.000 
#    0.000    0.833    0.000    0.000    0.000    2.333 
#    0.000    0.000    0.000    0.000    0.000    0.000 
#
# Total GULP energy -134230.899266 kJ/mol
# GULP energy per Si atom -5592.954136 kJ/mol
# Density = 2.361001 g / cm^3
# Si number density = 23.663871 Si / 1000 Ang^3
#
#
#
# Elastic Constant Matrix: (Units=GPa)
#
#
# Indices 1 2 3 4 5 6 
#
# 1 67.5943 5.2192 23.3442 0.0000 31.1692 0.0000
# 2 5.2192 58.6531 18.7768 0.0000 -1.5972 0.0000
# 3 23.3442 18.7768 36.2954 0.0000 6.7613 0.0000
# 4 0.0000 0.0000 0.0000 27.0813 0.0000 0.4833
# 5 31.1692 -1.5972 6.7613 0.0000 30.6986 0.0000
# 6 0.0000 0.0000 0.0000 0.4833 0.0000 46.4932
#
#
#
# Elastic Compliance Matrix: (Units=1/GPa)
#
#
# Indices 1 2 3 4 5 6 
#
# 1 0.035660 0.001644 -0.017787 0.000000 -0.032203 0.000000
# 2 0.001644 0.020884 -0.012256 0.000000 0.002117 0.000000
# 3 -0.017787 -0.012256 0.043887 0.000000 0.007756 0.000000
# 4 0.000000 0.000000 0.000000 0.036933 0.000000 -0.000384
# 5 -0.032203 0.002117 0.007756 0.000000 0.063674 0.000000
# 6 0.000000 0.000000 0.000000 -0.000384 0.000000 0.021513
#
#
# Mechanical properties :
#
#
# Convention : Reuss Voigt Hill
#
# Bulk Modulus (GPa) = 22.91791 28.58036 25.74913
# Shear Modulus (GPa) = 17.01305 28.53480 22.77392
#
# Velocity S-wave (km/s) = 2.68423 3.47629 3.10561
# Velocity P-wave (km/s) = 4.39460 5.31193 4.87489
#
# Compressibility (1/GPa) = 0.04363400
#
# Stress axis : x y z
#
# Youngs Moduli (GPa) = 28.04283 47.88303 22.78566
#
# Poissons Ratio (x) = -0.07873 0.40529
# Poissons Ratio (y) = -0.04611 0.27926
# Poissons Ratio (z) = 0.49880 0.58685
#
# Static dielectric constant tensor:
#      x y z
#    x 1.933570 0.000000 0.003330 
#    y 0.000000 1.903910 0.000000 
#    z 0.003330 0.000000 1.851520 
# 
# From -- ./inp_files/254908.got.cif
#   From: 2010.05.17/outbox.cif.g08.bks.cpg/sg15_128_cif.got.tgz:254908.got - 2010.06.03 18:47:42.
