data_PCOD9264978
_publ_section_title
;
Structure prediction by ZEFSAII (Michael W. Deem and Ramdas Pophale) SiO2 
 PCOD9264978
Probable space group: C 2/C
;
_chemical_formula_sum "Si O2"
_cell_formula_units_Z 48
_cell_length_a 10.120762
_cell_length_b 28.922518
_cell_length_c 7.115029
_cell_angle_alpha 90.000000
_cell_angle_beta 91.979250
_cell_angle_gamma 90.000000
_cell_volume 2081.453962
_symmetry_space_group_name_H-M "C 2/C"
_symmetry_group_IT_number 15
_symmetry_cell_setting 'monoclinic'
loop_
_space_group_symop_operation_xyz
x,y,z
-x,y,1/2-z
-x,-y,-z
x,-y,1/2+z
1/2+x,1/2+y,z
1/2-x,1/2+y,1/2-z
1/2-x,1/2-y,-z
1/2+x,1/2-y,1/2+z
loop_
_atom_site_type_symbol
_atom_site_label
_atom_site_fract_x
_atom_site_fract_y
_atom_site_fract_z
Si Si1 0.764042 0.651172 0.959904
Si Si2 0.535803 0.194300 0.029914
Si Si3 0.203136 0.134436 0.534924
Si Si4 0.485285 0.296974 0.021846
Si Si5 0.334649 0.045650 0.562328
Si Si6 0.870799 0.557912 0.007184
O O1 0.695573 0.636736 0.761864
O O2 0.665906 0.690134 0.036075
O O3 0.798400 0.604123 0.073144
O O4 0.907843 0.672003 0.926316
O O5 0.500000 0.193555 0.250000
O O6 0.541699 0.247367 0.963844
O O7 0.666815 0.164365 0.008722
O O8 0.224919 0.081077 0.485163
O O9 0.076233 0.161256 0.455877
O O10 0.500000 0.294335 0.250000
O O11 0.360031 0.059018 0.779826
O O12 0.470751 0.054921 0.454307
O O13 0.309445 0.991045 0.561895
#
# Coordination Sequence:
#
# PCOD9264978 Si02
#       6
#     8   8   8   8   8   8
#     4  10  19  36  56  76 103 139 176 209 253 310
#     4  11  21  33  52  81 106 134 175 217 258 295
#     4  10  19  36  56  76 103 139 176 209 253 310
#     4   9  20  35  54  77 105 138 174 213 254 305
#     4   9  17  30  50  75  99 129 168 209 255 301
#     4   9  17  30  50  75  99 129 168 209 255 301
#
# _framework density 23.060804999999998
#
# number of rings (size 3 to 8) (size 9 to 14) (size 15 to 20)
#    0.000    2.333    1.667    1.500    0.000    1.333 
#    0.000    3.333    0.000    0.000    0.000    0.000 
#    0.000    0.000    0.000    0.000    0.000    0.000 
#
# Total GULP energy -134027.597834 kJ/mol
# GULP energy per Si atom -5584.483243 kJ/mol
# Density = 2.300832 g / cm^3
# Si number density = 23.060805 Si / 1000 Ang^3
#
#
#
# Elastic Constant Matrix: (Units=GPa)
#
#
# Indices 1 2 3 4 5 6 
#
# 1 70.1439 25.9122 -29.4592 0.0000 6.1531 0.0000
# 2 25.9122 157.1264 -33.8209 0.0000 4.4338 0.0000
# 3 -29.4592 -33.8209 50.8201 0.0000 2.0949 0.0000
# 4 0.0000 0.0000 0.0000 9.3904 0.0000 -14.7568
# 5 6.1531 4.4338 2.0949 0.0000 12.6417 0.0000
# 6 0.0000 0.0000 0.0000 -14.7568 0.0000 11.5982
#
#
#
# Elastic Compliance Matrix: (Units=1/GPa)
#
#
# Indices 1 2 3 4 5 6 
#
# 1 0.020542 -0.000450 0.012097 0.000000 -0.011845 0.000000
# 2 -0.000450 0.007591 0.004925 0.000000 -0.003260 0.000000
# 3 0.012097 0.004925 0.030489 0.000000 -0.012668 0.000000
# 4 0.000000 0.000000 0.000000 -0.106552 0.000000 -0.135569
# 5 -0.011845 -0.003260 -0.012668 0.000000 0.088112 0.000000
# 6 0.000000 0.000000 0.000000 -0.135569 0.000000 -0.086269
#
#
# Mechanical properties :
#
#
# Convention : Reuss Voigt Hill
#
# Bulk Modulus (GPa) = 10.89718 22.59498 16.74608
# Shear Modulus (GPa) = -102.79054 27.75661 -37.51696
#
# Velocity S-wave (km/s) = -6.68360 3.47310 -4.03783
# Velocity P-wave (km/s) = 7.40439 5.08945 3.80279
#
# Compressibility (1/GPa) = 0.09176688
#
# Stress axis : x y z
#
# Youngs Moduli (GPa) = 48.68074 131.74226 32.79826
#
# Poissons Ratio (x) = 0.05923 -0.39675
# Poissons Ratio (y) = 0.02189 -0.16154
# Poissons Ratio (z) = -0.58888 -0.64887
#
# Static dielectric constant tensor:
#      x y z
#    x 1.821380 0.000000 -0.003860 
#    y 0.000000 1.885140 0.000000 
#    z -0.003860 0.000000 1.958480 
# 
# From -- ./inp_files/26083.got.cif
#   From: 2010.05.17/outbox.cif.g08.bks.cpg/sg15_14_cif.got.tgz:26083.got - 2010.06.03 18:47:42.
