data_PCOD9264131
_publ_section_title
;
Structure prediction by ZEFSAII (Michael W. Deem and Ramdas Pophale) SiO2 
 PCOD9264131
Probable space group: C 2/C
;
_chemical_formula_sum "Si O2"
_cell_formula_units_Z 40
_cell_length_a 12.808062
_cell_length_b 9.858264
_cell_length_c 29.949250
_cell_angle_alpha 90.000000
_cell_angle_beta 152.747995
_cell_angle_gamma 90.000000
_cell_volume 1731.590625
_symmetry_space_group_name_H-M "C 2/C"
_symmetry_group_IT_number 15
_symmetry_cell_setting 'monoclinic'
loop_
_space_group_symop_operation_xyz
x,y,z
-x,y,1/2-z
-x,-y,-z
x,-y,1/2+z
1/2+x,1/2+y,z
1/2-x,1/2+y,1/2-z
1/2-x,1/2-y,-z
1/2+x,1/2-y,1/2+z
loop_
_atom_site_type_symbol
_atom_site_label
_atom_site_fract_x
_atom_site_fract_y
_atom_site_fract_z
Si Si1 0.762247 0.671537 0.183498
Si Si2 0.744676 0.964927 0.388708
Si Si3 0.674033 0.912282 0.013617
Si Si4 0.865339 0.699783 0.475608
Si Si5 0.023834 0.672458 0.149377
O O1 0.766937 0.514640 0.167176
O O2 0.532474 0.733573 0.075715
O O3 0.000000 0.728830 0.250000
O O4 0.766820 0.699029 0.238015
O O5 0.713474 0.810615 0.391952
O O6 0.605395 0.068156 0.366576
O O7 0.000000 0.000000 0.500000
O O8 0.543682 0.857232 0.007088
O O9 0.886372 0.811463 0.088538
O O10 0.490480 0.899532 0.903712
O O11 0.751156 0.066583 0.048715
#
# Coordination Sequence:
#
# PCOD9264131 Si02
#       5
#     8   8   8   8   8
#     4   9  16  33  56  73  99 147 179 210 260 317
#     4   9  16  32  56  74  96 143 177 207 259 317
#     4  10  20  33  54  81 106 139 174 213 273 313
#     4  10  19  35  56  77 105 139 177 218 262 315
#     4  10  19  35  56  76 107 144 176 211 262 323
#
# _framework density 23.100148000000001
#
# number of rings (size 3 to 8) (size 9 to 14) (size 15 to 20)
#    0.000    2.400    6.000    0.000    0.000    0.800 
#    3.600    0.000   26.400    0.000    0.000    0.000 
#    0.000    0.000    0.000    0.000    0.000    0.000 
#
# Total GULP energy -111418.618946 kJ/mol
# GULP energy per Si atom -5570.930947 kJ/mol
# Density = 2.304757 g / cm^3
# Si number density = 23.100148 Si / 1000 Ang^3
#
#
#
# Elastic Constant Matrix: (Units=GPa)
#
#
# Indices 1 2 3 4 5 6 
#
# 1 23.9373 14.1212 18.7807 0.0001 -15.6587 0.0000
# 2 14.1212 155.4415 25.8937 0.0000 -14.7081 0.0000
# 3 18.7807 25.8937 105.5164 0.0004 -51.5081 0.0001
# 4 0.0001 0.0000 0.0004 17.9085 0.0002 -16.7265
# 5 -15.6587 -14.7081 -51.5081 0.0002 43.9026 0.0001
# 6 0.0000 0.0000 0.0001 -16.7265 0.0001 14.1788
#
#
#
# Elastic Compliance Matrix: (Units=1/GPa)
#
#
# Indices 1 2 3 4 5 6 
#
# 1 0.056089 -0.003315 0.000126 0.000007 0.019043 0.000007
# 2 -0.003315 0.006914 -0.001294 -0.000001 -0.000385 -0.000001
# 3 0.000126 -0.001294 0.022427 0.000012 0.025923 0.000014
# 4 0.000007 -0.000001 0.000012 -0.548401 0.000021 -0.646939
# 5 0.019043 -0.000385 0.025923 0.000021 0.059855 0.000024
# 6 0.000007 -0.000001 0.000014 -0.646939 0.000024 -0.692654
#
#
# Mechanical properties :
#
#
# Convention : Reuss Voigt Hill
#
# Bulk Modulus (GPa) = 13.07816 44.72071 28.89943
# Shear Modulus (GPa) = -4.71113 30.27129 12.78008
#
# Velocity S-wave (km/s) = -1.42964 3.62392 2.35467
# Velocity P-wave (km/s) = 1.71716 6.07552 4.46434
#
# Compressibility (1/GPa) = 0.07646337
#
# Stress axis : x y z
#
# Youngs Moduli (GPa) = 17.82874 144.64173 44.58908
#
# Poissons Ratio (x) = 0.47943 -0.00561
# Poissons Ratio (y) = 0.05910 0.05772
# Poissons Ratio (z) = -0.00224 0.18723
#
# Static dielectric constant tensor:
#      x y z
#    x 1.945330 0.000000 -0.217490 
#    y 0.000000 1.555470 0.000010 
#    z -0.217490 0.000010 2.852940 
# 
# From -- ./inp_files/208325.got.cif
#   From: 2010.05.17/outbox.cif.g08.bks.cpg/sg15_105_cif.got.tgz:208325.got - 2010.06.03 18:47:42.
