data_PCOD9264576
_publ_section_title
;
Structure prediction by ZEFSAII (Michael W. Deem and Ramdas Pophale) SiO2 
 PCOD9264576
Probable space group: C 2/C
;
_chemical_formula_sum "Si O2"
_cell_formula_units_Z 60
_cell_length_a 17.218980
_cell_length_b 8.499460
_cell_length_c 22.778139
_cell_angle_alpha 90.000000
_cell_angle_beta 65.423017
_cell_angle_gamma 90.000000
_cell_volume 3031.611207
_symmetry_space_group_name_H-M "C 2/C"
_symmetry_group_IT_number 15
_symmetry_cell_setting 'monoclinic'
loop_
_space_group_symop_operation_xyz
x,y,z
-x,y,1/2-z
-x,-y,-z
x,-y,1/2+z
1/2+x,1/2+y,z
1/2-x,1/2+y,1/2-z
1/2-x,1/2-y,-z
1/2+x,1/2-y,1/2+z
loop_
_atom_site_type_symbol
_atom_site_label
_atom_site_fract_x
_atom_site_fract_y
_atom_site_fract_z
Si Si1 0.227819 0.518373 0.399806
Si Si2 0.072821 0.939802 0.392769
Si Si3 0.086804 0.966249 0.615474
Si Si4 0.421638 0.187901 0.591037
Si Si5 0.396972 0.247751 0.999728
Si Si6 0.500000 0.286859 0.750000
Si Si7 0.368299 0.084955 0.726827
Si Si8 0.202987 0.283002 0.787699
O O1 0.323667 0.474186 0.387150
O O2 0.162476 0.373805 0.414607
O O3 0.181584 0.636154 0.459920
O O4 0.227317 0.612932 0.337749
O O5 0.092348 0.873268 0.451055
O O6 0.135394 0.847836 0.329398
O O7 0.085331 0.127529 0.391346
O O8 0.975669 0.917425 0.400761
O O9 0.110447 0.831624 0.560640
O O10 0.029633 0.893496 0.686019
O O11 0.510774 0.163479 0.530152
O O12 0.425443 0.090457 0.650414
O O13 0.421278 0.172604 0.759697
O O14 0.286023 0.192893 0.739905
O O15 0.336478 0.907598 0.745427
#
# Coordination Sequence:
#
# PCOD9264576 Si02
#       8
#     8   8   8   8   8   4   8   8
#     4  10  21  35  59  90 115 151 206 244 294 348
#     4  10  21  40  61  85 121 160 201 242 299 358
#     4  11  21  37  61  89 120 161 194 249 303 347
#     4  10  19  35  60  87 113 158 198 245 290 351
#     4  10  20  38  60  84 122 163 203 242 297 359
#     4  12  22  38  60  88 120 150 200 246 296 354
#     4  11  21  38  61  85 119 150 197 242 294 360
#     4  10  22  38  60  87 113 155 197 238 294 362
#
# _framework density 19.791456
#
# number of rings (size 3 to 8) (size 9 to 14) (size 15 to 20)
#    0.000    1.600    4.000    3.200    0.000    0.000 
#    0.000    7.333    0.000    0.000    0.000    0.000 
#    0.000    0.000    0.000    0.000    0.000    0.000 
#
# Total GULP energy -167398.279204 kJ/mol
# GULP energy per Si atom -5579.942640 kJ/mol
# Density = 1.974641 g / cm^3
# Si number density = 19.791456 Si / 1000 Ang^3
#
#
#
# Elastic Constant Matrix: (Units=GPa)
#
#
# Indices 1 2 3 4 5 6 
#
# 1 87.4596 8.6384 -3.4212 0.0000 -14.8659 0.0000
# 2 8.6384 33.1237 -4.5667 0.0000 -7.3980 0.0001
# 3 -3.4212 -4.5667 57.5747 0.0000 -5.6290 0.0000
# 4 0.0000 0.0000 0.0000 22.9530 0.0000 -3.7519
# 5 -14.8659 -7.3980 -5.6290 0.0000 24.3858 0.0000
# 6 0.0000 0.0001 0.0000 -3.7519 0.0000 25.9886
#
#
#
# Elastic Compliance Matrix: (Units=1/GPa)
#
#
# Indices 1 2 3 4 5 6 
#
# 1 0.012955 -0.001444 0.001417 0.000000 0.007787 0.000000
# 2 -0.001444 0.033296 0.003536 0.000000 0.010037 0.000000
# 3 0.001417 0.003536 0.018337 0.000000 0.006169 0.000000
# 4 0.000000 0.000000 0.000000 0.044620 0.000000 0.006442
# 5 0.007787 0.010037 0.006169 0.000000 0.050223 0.000000
# 6 0.000000 0.000000 0.000000 0.006442 0.000000 0.039408
#
#
# Mechanical properties :
#
#
# Convention : Reuss Voigt Hill
#
# Bulk Modulus (GPa) = 13.96549 19.93990 16.95270
# Shear Modulus (GPa) = 23.18134 26.49931 24.84032
#
# Velocity S-wave (km/s) = 3.42611 3.66310 3.54659
# Velocity P-wave (km/s) = 4.76682 5.29037 5.03540
#
# Compressibility (1/GPa) = 0.07160506
#
# Stress axis : x y z
#
# Youngs Moduli (GPa) = 77.18756 30.03391 54.53591
#
# Poissons Ratio (x) = 0.04338 -0.07725
# Poissons Ratio (y) = 0.11148 -0.19286
# Poissons Ratio (z) = -0.10934 -0.10621
#
# Static dielectric constant tensor:
#      x y z
#    x 1.718940 0.000000 0.002710 
#    y 0.000000 1.691230 0.000000 
#    z 0.002710 0.000000 1.698540 
# 
# From -- ./inp_files/273131.got.cif
#   From: 2010.05.17/outbox.cif.g08.bks.cpg/sg15_137_cif.got.tgz:273131.got - 2010.06.03 18:47:42.
