data_PCOD9264531
_publ_section_title
;
Structure prediction by ZEFSAII (Michael W. Deem and Ramdas Pophale) SiO2 
 PCOD9264531
Probable space group: C 2/C
;
_chemical_formula_sum "Si O2"
_cell_formula_units_Z 56
_cell_length_a 31.611777
_cell_length_b 9.276283
_cell_length_c 8.792336
_cell_angle_alpha 90.000000
_cell_angle_beta 114.723034
_cell_angle_gamma 90.000000
_cell_volume 2341.939487
_symmetry_space_group_name_H-M "C 2/C"
_symmetry_group_IT_number 15
_symmetry_cell_setting 'monoclinic'
loop_
_space_group_symop_operation_xyz
x,y,z
-x,y,1/2-z
-x,-y,-z
x,-y,1/2+z
1/2+x,1/2+y,z
1/2-x,1/2+y,1/2-z
1/2-x,1/2-y,-z
1/2+x,1/2-y,1/2+z
loop_
_atom_site_type_symbol
_atom_site_label
_atom_site_fract_x
_atom_site_fract_y
_atom_site_fract_z
Si Si1 0.287846 0.493588 0.139450
Si Si2 0.470973 0.858883 0.332441
Si Si3 0.196322 0.211679 0.556388
Si Si4 0.363545 0.309720 0.097057
Si Si5 0.130851 0.283562 0.229119
Si Si6 0.305279 0.069885 0.182072
Si Si7 0.960594 0.676224 0.292066
O O1 0.289836 0.416910 0.306567
O O2 0.335718 0.439760 0.131933
O O3 0.285666 0.661894 0.085540
O O4 0.242777 0.436687 0.982448
O O5 0.500000 0.770442 0.250000
O O6 0.424487 0.808579 0.347320
O O7 0.512968 0.861907 0.515176
O O8 0.452714 0.009580 0.225481
O O9 0.143316 0.233751 0.420218
O O10 0.205462 0.354334 0.671208
O O11 0.336181 0.174272 0.125597
O O12 0.415866 0.275785 0.226581
O O13 0.360886 0.311936 0.910080
O O14 0.164096 0.424999 0.255151
O O15 0.000000 0.748288 0.250000
#
# Coordination Sequence:
#
# PCOD9264531 Si02
#       7
#     8   8   8   8   8   8   8
#     4  11  27  47  66  97 137 189 244 282 347 416
#     4  10  22  34  60 100 142 173 224 282 367 422
#     4  11  26  46  69  95 137 185 234 292 345 413
#     4  11  22  41  64  96 139 183 229 288 347 424
#     4  12  24  40  69 103 139 182 230 295 359 416
#     4  11  26  42  68 100 136 180 238 296 354 407
#     4  10  19  35  59  92 136 177 216 282 355 417
#
# _framework density 23.911802999999999
#
# number of rings (size 3 to 8) (size 9 to 14) (size 15 to 20)
#    0.000    1.143    2.857    3.429   10.000    0.571 
#    0.000    0.000    0.000    1.714    0.000    0.000 
#    0.000    0.000    0.000    0.000    0.000    0.000 
#
# Total GULP energy -155901.678228 kJ/mol
# GULP energy per Si atom -5567.917080 kJ/mol
# Density = 2.385738 g / cm^3
# Si number density = 23.911803 Si / 1000 Ang^3
#
#
#
# Elastic Constant Matrix: (Units=GPa)
#
#
# Indices 1 2 3 4 5 6 
#
# 1 111.7053 15.7063 33.3887 0.0000 2.9618 0.0000
# 2 15.7063 71.1350 19.1592 0.0000 5.6698 0.0000
# 3 33.3887 19.1592 153.5371 0.0000 6.4822 0.0000
# 4 0.0000 0.0000 0.0000 20.8937 0.0000 -9.4877
# 5 2.9618 5.6698 6.4822 0.0000 42.9098 0.0000
# 6 0.0000 0.0000 0.0000 -9.4877 0.0000 26.0057
#
#
#
# Elastic Compliance Matrix: (Units=1/GPa)
#
#
# Indices 1 2 3 4 5 6 
#
# 1 0.009757 -0.001626 -0.001912 0.000000 -0.000170 0.000000
# 2 -0.001626 0.014936 -0.001441 0.000000 -0.001644 0.000000
# 3 -0.001912 -0.001441 0.007141 0.000000 -0.000756 0.000000
# 4 0.000000 0.000000 0.000000 0.057365 0.000000 0.020929
# 5 -0.000170 -0.001644 -0.000756 0.000000 0.023648 0.000000
# 6 0.000000 0.000000 0.000000 0.020929 0.000000 0.046088
#
#
# Mechanical properties :
#
#
# Convention : Reuss Voigt Hill
#
# Bulk Modulus (GPa) = 45.71141 52.54288 49.12714
# Shear Modulus (GPa) = 28.37961 35.83673 32.10817
#
# Velocity S-wave (km/s) = 3.44880 3.87551 3.66836
# Velocity P-wave (km/s) = 5.91753 6.48440 6.20744
#
# Compressibility (1/GPa) = 0.02187638
#
# Stress axis : x y z
#
# Youngs Moduli (GPa) = 102.49455 66.95310 140.04565
#
# Poissons Ratio (x) = 0.10885 0.26772
# Poissons Ratio (y) = 0.16664 0.20178
# Poissons Ratio (z) = 0.19593 0.09647
#
# Static dielectric constant tensor:
#      x y z
#    x 2.037850 0.000000 0.015870 
#    y 0.000000 2.055270 0.000000 
#    z 0.015870 0.000000 2.106380 
# 
# From -- ./inp_files/69434.got.cif
#   From: 2010.05.17/outbox.cif.g08.bks.cpg/sg15_35_cif.got.tgz:69434.got - 2010.06.03 18:47:42.
