data_PCOD9264740
_publ_section_title
;
Structure prediction by ZEFSAII (Michael W. Deem and Ramdas Pophale) SiO2 
 PCOD9264740
Probable space group: C 2/C
;
_chemical_formula_sum "Si O2"
_cell_formula_units_Z 32
_cell_length_a 22.296929
_cell_length_b 15.038306
_cell_length_c 15.269268
_cell_angle_alpha 90.000000
_cell_angle_beta 164.468972
_cell_angle_gamma 90.000000
_cell_volume 1370.907590
_symmetry_space_group_name_H-M "C 2/C"
_symmetry_group_IT_number 15
_symmetry_cell_setting 'monoclinic'
loop_
_space_group_symop_operation_xyz
x,y,z
-x,y,1/2-z
-x,-y,-z
x,-y,1/2+z
1/2+x,1/2+y,z
1/2-x,1/2+y,1/2-z
1/2-x,1/2-y,-z
1/2+x,1/2-y,1/2+z
loop_
_atom_site_type_symbol
_atom_site_label
_atom_site_fract_x
_atom_site_fract_y
_atom_site_fract_z
Si Si1 0.523660 0.798383 0.647465
Si Si2 0.156238 0.847975 0.885341
Si Si3 0.212389 0.035159 0.983251
Si Si4 0.906509 0.856408 0.358265
O O1 0.331657 0.816513 0.446584
O O2 0.441967 0.724960 0.464313
O O3 0.750000 0.750000 0.000000
O O4 0.606386 0.893007 0.729287
O O5 0.000000 0.841153 0.750000
O O6 0.016254 0.882305 0.604145
O O7 0.309765 0.935317 0.116560
O O8 0.250000 0.750000 0.000000
O O9 0.137254 0.073415 0.781264
O O10 0.000000 0.037414 0.750000
#
# Coordination Sequence:
#
# PCOD9264740 Si02
#       4
#     8   8   8   8
#     4  10  19  35  62  92 117 149 194 244 295 348
#     4  11  25  43  60  85 122 161 201 242 290 352
#     4  10  21  39  61  89 120 152 196 248 295 350
#     4  11  21  39  63  90 120 158 194 242 299 350
#
# _framework density 23.342200999999999
#
# number of rings (size 3 to 8) (size 9 to 14) (size 15 to 20)
#    0.000    1.500    0.000    8.250    0.000    2.000 
#    0.000   16.250    0.000    0.000    0.000    0.000 
#    0.000    0.000    0.000    0.000    0.000    0.000 
#
# Total GULP energy -89244.595974 kJ/mol
# GULP energy per Si atom -5577.787248 kJ/mol
# Density = 2.328907 g / cm^3
# Si number density = 23.342201 Si / 1000 Ang^3
#
#
#
# Elastic Constant Matrix: (Units=GPa)
#
#
# Indices 1 2 3 4 5 6 
#
# 1 148.2798 53.8342 21.2217 0.0000 9.5610 0.0000
# 2 53.8342 227.4141 11.0277 0.0000 21.3800 0.0000
# 3 21.2217 11.0277 23.2383 0.0001 -0.8629 0.0001
# 4 0.0000 0.0000 0.0001 22.0343 0.0000 17.5550
# 5 9.5610 21.3800 -0.8629 0.0000 40.2748 0.0001
# 6 0.0000 0.0000 0.0001 17.5550 0.0001 -7.5502
#
#
#
# Elastic Compliance Matrix: (Units=1/GPa)
#
#
# Indices 1 2 3 4 5 6 
#
# 1 0.008381 -0.001520 -0.006982 0.000000 -0.001332 0.000000
# 2 -0.001520 0.005029 -0.001085 0.000000 -0.002332 0.000000
# 3 -0.006982 -0.001085 0.050046 0.000000 0.003306 0.000000
# 4 0.000000 0.000000 0.000000 0.015910 0.000000 0.036994
# 5 -0.001332 -0.002332 0.003306 0.000000 0.026454 0.000000
# 6 0.000000 0.000000 0.000000 0.036994 0.000000 -0.046433
#
#
# Mechanical properties :
#
#
# Convention : Reuss Voigt Hill
#
# Bulk Modulus (GPa) = 22.58243 63.45547 43.01895
# Shear Modulus (GPa) = 53.57773 31.80836 42.69305
#
# Velocity S-wave (km/s) = 4.79614 3.69548 4.28133
# Velocity P-wave (km/s) = 6.35344 6.74186 6.55053
#
# Compressibility (1/GPa) = 0.04428222
#
# Stress axis : x y z
#
# Youngs Moduli (GPa) = 119.31671 198.84778 19.98169
#
# Poissons Ratio (x) = 0.30229 0.13951
# Poissons Ratio (y) = 0.18138 0.02168
# Poissons Ratio (z) = 0.83305 0.21571
#
# Static dielectric constant tensor:
#      x y z
#    x 2.001080 0.000000 -0.147900 
#    y 0.000000 1.951190 0.000000 
#    z -0.147900 0.000000 1.953670 
# 
# From -- ./inp_files/27980.got.cif
#   From: 2010.05.17/outbox.cif.g08.bks.cpg/sg15_14_cif.got.tgz:27980.got - 2010.06.03 18:47:42.
