data_PCOD9264289
_publ_section_title
;
Structure prediction by ZEFSAII (Michael W. Deem and Ramdas Pophale) SiO2 
 PCOD9264289
Probable space group: C 2/C
;
_chemical_formula_sum "Si O2"
_cell_formula_units_Z 60
_cell_length_a 22.921351
_cell_length_b 5.518424
_cell_length_c 27.199851
_cell_angle_alpha 90.000000
_cell_angle_beta 108.038938
_cell_angle_gamma 90.000000
_cell_volume 3271.388470
_symmetry_space_group_name_H-M "C 2/C"
_symmetry_group_IT_number 15
_symmetry_cell_setting 'monoclinic'
loop_
_space_group_symop_operation_xyz
x,y,z
-x,y,1/2-z
-x,-y,-z
x,-y,1/2+z
1/2+x,1/2+y,z
1/2-x,1/2+y,1/2-z
1/2-x,1/2-y,-z
1/2+x,1/2-y,1/2+z
loop_
_atom_site_type_symbol
_atom_site_label
_atom_site_fract_x
_atom_site_fract_y
_atom_site_fract_z
Si Si1 0.000000 0.799430 0.750000
Si Si2 0.801273 0.608880 0.814356
Si Si3 0.941903 0.782077 0.582228
Si Si4 0.480337 0.343028 0.161185
Si Si5 0.461097 0.750426 0.984235
Si Si6 0.393371 0.962708 0.168700
Si Si7 0.063368 0.474289 0.622293
Si Si8 0.268535 0.106989 0.690800
O O1 0.939343 0.654391 0.720413
O O2 0.990729 0.958526 0.796093
O O3 0.871450 0.585720 0.848924
O O4 0.773492 0.866316 0.824307
O O5 0.794745 0.604435 0.753425
O O6 0.765774 0.365862 0.823770
O O7 0.916940 0.756225 0.520700
O O8 0.906789 0.652074 0.618083
O O9 0.010481 0.670628 0.597825
O O10 0.953279 0.053846 0.603361
O O11 0.421111 0.231800 0.172463
O O12 0.533719 0.158727 0.161535
O O13 0.500000 0.500000 0.000000
O O14 0.432239 0.788945 0.922818
O O15 0.500000 0.000000 0.000000
O O16 0.324818 0.925033 0.168097
#
# Coordination Sequence:
#
# PCOD9264289 Si02
#       8
#     4   8   8   8   8   8   8   8
#     4  10  22  30  50  86 112 144 188 228 296 346
#     4  10  24  39  58  81 107 159 199 233 279 331
#     4   9  20  35  55  90 115 145 184 232 302 347
#     4  10  20  32  53  84 112 149 179 234 288 349
#     4  10  19  35  57  87 121 149 180 237 300 346
#     4  10  22  36  53  83 112 155 184 240 289 349
#     4  10  21  35  60  84 118 145 193 240 284 352
#     4  10  24  41  56  78 114 154 199 237 275 335
#
# _framework density 18.340837000000001
#
# number of rings (size 3 to 8) (size 9 to 14) (size 15 to 20)
#    0.000    2.133    1.333    0.400   13.067    1.067 
#    0.000    0.000    0.000    1.600    0.000    0.000 
#    0.000    0.000    0.000    0.000    0.000    0.000 
#
# Total GULP energy -167090.564509 kJ/mol
# GULP energy per Si atom -5569.685484 kJ/mol
# Density = 1.829909 g / cm^3
# Si number density = 18.340837 Si / 1000 Ang^3
#
#
#
# Elastic Constant Matrix: (Units=GPa)
#
#
# Indices 1 2 3 4 5 6 
#
# 1 96.9500 17.1495 15.4762 0.0000 -8.0830 0.0003
# 2 17.1495 72.4732 0.7408 0.0001 -2.4473 0.0004
# 3 15.4762 0.7408 23.7310 0.0000 -8.0066 0.0001
# 4 0.0000 0.0001 0.0000 21.1478 0.0000 -0.6399
# 5 -8.0830 -2.4473 -8.0066 0.0000 21.8911 0.0001
# 6 0.0003 0.0004 0.0001 -0.6399 0.0001 -4.7341
#
#
#
# Elastic Compliance Matrix: (Units=1/GPa)
#
#
# Indices 1 2 3 4 5 6 
#
# 1 0.012087 -0.002735 -0.007295 0.000000 0.001489 0.000000
# 2 -0.002735 0.014470 0.001754 0.000000 0.001249 0.000001
# 3 -0.007295 0.001754 0.052474 0.000000 0.016695 0.000001
# 4 0.000000 0.000000 0.000000 0.047094 0.000000 -0.006366
# 5 0.001489 0.001249 0.016695 0.000000 0.052476 0.000002
# 6 0.000000 0.000001 0.000001 -0.006366 0.000002 -0.210372
#
#
# Mechanical properties :
#
#
# Convention : Reuss Voigt Hill
#
# Bulk Modulus (GPa) = 16.00569 28.87636 22.44102
# Shear Modulus (GPa) = 891.58253 18.31348 454.94801
#
# Velocity S-wave (km/s) = 22.07202 3.16335 15.76675
# Velocity P-wave (km/s) = 25.65758 5.39637 18.53958
#
# Compressibility (1/GPa) = 0.06247780
#
# Stress axis : x y z
#
# Youngs Moduli (GPa) = 82.73296 69.10982 19.05701
#
# Poissons Ratio (x) = 0.18904 0.13902
# Poissons Ratio (y) = 0.22630 -0.03342
# Poissons Ratio (z) = 0.60352 -0.12119
#
# Static dielectric constant tensor:
#      x y z
#    x 1.608490 0.000000 -0.042150 
#    y 0.000000 1.722750 0.000000 
#    z -0.042150 0.000000 1.689720 
# 
# From -- ./inp_files/299947.got.cif
#   From: 2010.05.17/outbox.cif.g08.bks.cpg/sg15_150_cif.got.tgz:299947.got - 2010.06.03 18:47:42.
