data_PCOD9264950
_publ_section_title
;
Structure prediction by ZEFSAII (Michael W. Deem and Ramdas Pophale) SiO2 
 PCOD9264950
Probable space group: C 2/C
;
_chemical_formula_sum "Si O2"
_cell_formula_units_Z 64
_cell_length_a 8.077145
_cell_length_b 11.467653
_cell_length_c 29.862296
_cell_angle_alpha 90.000000
_cell_angle_beta 96.296133
_cell_angle_gamma 90.000000
_cell_volume 2749.338276
_symmetry_space_group_name_H-M "C 2/C"
_symmetry_group_IT_number 15
_symmetry_cell_setting 'monoclinic'
loop_
_space_group_symop_operation_xyz
x,y,z
-x,y,1/2-z
-x,-y,-z
x,-y,1/2+z
1/2+x,1/2+y,z
1/2-x,1/2+y,1/2-z
1/2-x,1/2-y,-z
1/2+x,1/2-y,1/2+z
loop_
_atom_site_type_symbol
_atom_site_label
_atom_site_fract_x
_atom_site_fract_y
_atom_site_fract_z
Si Si1 0.138162 0.779766 0.954156
Si Si2 0.422826 0.007609 0.640842
Si Si3 0.448977 0.289679 0.293866
Si Si4 0.311071 0.003103 0.729558
Si Si5 0.663578 0.705742 0.618463
Si Si6 0.963535 0.463263 0.447862
Si Si7 0.586593 0.497145 0.909262
Si Si8 0.699654 0.498142 0.318394
O O1 0.277839 0.786474 0.919435
O O2 0.021183 0.669776 0.944989
O O3 0.250000 0.750000 0.000000
O O4 0.464350 0.601893 0.056609
O O5 0.324693 0.130005 0.636345
O O6 0.434286 0.969084 0.588968
O O7 0.327753 0.946335 0.680280
O O8 0.613080 0.026732 0.660595
O O9 0.500000 0.223384 0.250000
O O10 0.296387 0.378218 0.279379
O O11 0.405133 0.229637 0.339516
O O12 0.601077 0.377271 0.308479
O O13 0.500000 0.030897 0.750000
O O14 0.217902 0.943281 0.769569
O O15 0.533457 0.608402 0.597505
O O16 0.768689 0.466073 0.431306
O O17 0.000000 0.500000 0.500000
O O18 0.602477 0.448814 0.858256
#
# Coordination Sequence:
#
# PCOD9264950 Si02
#       8
#     8   8   8   8   8   8   8   8
#     4  11  22  38  58  80 109 148 186 230 284 330
#     4   8  15  27  47  73 104 138 179 222 268 326
#     4   8  13  24  46  77 108 144 184 221 275 331
#     4   8  12  21  40  73 104 136 182 218 263 330
#     4   9  19  34  54  82 109 144 186 228 275 335
#     4  10  19  36  55  78 109 146 185 230 280 328
#     4  10  20  37  58  81 111 144 183 231 278 331
#     4   8  14  25  47  75 104 140 177 219 271 326
#
# _framework density 23.278327999999998
#
# number of rings (size 3 to 8) (size 9 to 14) (size 15 to 20)
#    0.000    3.000    1.250    0.000    0.000    0.500 
#    0.000    4.375    0.000    3.750    0.000  295.750 
#    0.000    0.000    0.000    0.000    0.000    0.000 
#
# Total GULP energy -178260.232318 kJ/mol
# GULP energy per Si atom -5570.632260 kJ/mol
# Density = 2.322535 g / cm^3
# Si number density = 23.278328 Si / 1000 Ang^3
#
#
#
# Elastic Constant Matrix: (Units=GPa)
#
#
# Indices 1 2 3 4 5 6 
#
# 1 85.4768 33.9788 11.9927 0.0000 9.7078 0.0000
# 2 33.9788 57.1747 10.5874 0.0000 15.2128 0.0000
# 3 11.9927 10.5874 146.1153 0.0000 -6.6199 0.0000
# 4 0.0000 0.0000 0.0000 33.3837 0.0000 -1.6186
# 5 9.7078 15.2128 -6.6199 0.0000 22.6271 0.0000
# 6 0.0000 0.0000 0.0000 -1.6186 0.0000 23.8601
#
#
#
# Elastic Compliance Matrix: (Units=1/GPa)
#
#
# Indices 1 2 3 4 5 6 
#
# 1 0.015385 -0.008783 -0.000667 0.000000 -0.000891 0.000000
# 2 -0.008783 0.027051 -0.001918 0.000000 -0.014980 0.000000
# 3 -0.000667 -0.001918 0.007204 0.000000 0.003683 0.000000
# 4 0.000000 0.000000 0.000000 0.030054 0.000000 0.002039
# 5 -0.000891 -0.014980 0.003683 0.000000 0.055726 0.000000
# 6 0.000000 0.000000 0.000000 0.002039 0.000000 0.042049
#
#
# Mechanical properties :
#
#
# Convention : Reuss Voigt Hill
#
# Bulk Modulus (GPa) = 37.16710 44.65384 40.91047
# Shear Modulus (GPa) = 23.90366 31.45471 27.67918
#
# Velocity S-wave (km/s) = 3.20795 3.67992 3.45201
# Velocity P-wave (km/s) = 5.45182 6.10573 5.78801
#
# Compressibility (1/GPa) = 0.02690551
#
# Stress axis : x y z
#
# Youngs Moduli (GPa) = 64.99755 36.96735 138.80260
#
# Poissons Ratio (x) = 0.32468 0.09254
# Poissons Ratio (y) = 0.57087 0.26621
# Poissons Ratio (z) = 0.04334 0.07090
#
# Static dielectric constant tensor:
#      x y z
#    x 1.869630 0.000000 -0.046020 
#    y 0.000000 1.934870 0.000000 
#    z -0.046020 0.000000 2.037500 
# 
# From -- ./inp_files/289280.got.cif
#   From: 2010.05.17/outbox.cif.g08.bks.cpg/sg15_145_cif.got.tgz:289280.got - 2010.06.03 18:47:42.
