data_PCOD9264602
_publ_section_title
;
Structure prediction by ZEFSAII (Michael W. Deem and Ramdas Pophale) SiO2 
 PCOD9264602
Probable space group: C 2/C
;
_chemical_formula_sum "Si O2"
_cell_formula_units_Z 32
_cell_length_a 21.096209
_cell_length_b 11.365162
_cell_length_c 14.013971
_cell_angle_alpha 90.000000
_cell_angle_beta 20.593637
_cell_angle_gamma 90.000000
_cell_volume 1181.844052
_symmetry_space_group_name_H-M "C 2/C"
_symmetry_group_IT_number 15
_symmetry_cell_setting 'monoclinic'
loop_
_space_group_symop_operation_xyz
x,y,z
-x,y,1/2-z
-x,-y,-z
x,-y,1/2+z
1/2+x,1/2+y,z
1/2-x,1/2+y,1/2-z
1/2-x,1/2-y,-z
1/2+x,1/2-y,1/2+z
loop_
_atom_site_type_symbol
_atom_site_label
_atom_site_fract_x
_atom_site_fract_y
_atom_site_fract_z
Si Si1 0.437792 0.693507 0.230753
Si Si2 0.561972 0.455469 0.051626
Si Si3 0.588119 0.075140 0.036117
Si Si4 0.119524 0.745242 0.299524
O O1 0.500000 0.681970 0.250000
O O2 0.250000 0.750000 0.500000
O O3 0.434861 0.561440 0.195436
O O4 0.558058 0.773249 0.994030
O O5 0.500000 0.435765 0.250000
O O6 0.511413 0.338927 0.066968
O O7 0.759108 0.510252 0.744857
O O8 0.500000 0.006125 0.250000
O O9 0.428828 0.128494 0.192645
O O10 0.695529 0.182388 0.941640
#
# Coordination Sequence:
#
# PCOD9264602 Si02
#       4
#     8   8   8   8
#     4  10  19  35  60  90 121 159 205 255 310 369
#     4  10  22  42  65  92 128 169 210 262 320 377
#     4  11  23  41  65  95 128 168 213 260 317 381
#     4  11  22  42  65  91 128 172 211 261 319 381
#
# _framework density 27.076333000000002
#
# number of rings (size 3 to 8) (size 9 to 14) (size 15 to 20)
#    0.000    1.500    0.000    9.000    0.000    0.000 
#    0.000   21.250    0.000    0.000    0.000    1.750 
#    0.000    0.000    0.000    0.000    0.000    0.000 
#
# Total GULP energy -89357.202023 kJ/mol
# GULP energy per Si atom -5584.825126 kJ/mol
# Density = 2.701471 g / cm^3
# Si number density = 27.076333 Si / 1000 Ang^3
#
#
#
# Elastic Constant Matrix: (Units=GPa)
#
#
# Indices 1 2 3 4 5 6 
#
# 1 131.4405 33.1152 36.6350 0.0000 35.5287 0.0000
# 2 33.1152 93.3337 26.9660 0.0001 -12.2120 0.0000
# 3 36.6350 26.9660 126.8576 0.0001 22.5398 0.0000
# 4 0.0000 0.0001 0.0001 30.9586 0.0000 -25.3084
# 5 35.5287 -12.2120 22.5398 0.0000 65.9392 0.0000
# 6 0.0000 0.0000 0.0000 -25.3084 0.0000 -0.5663
#
#
#
# Elastic Compliance Matrix: (Units=1/GPa)
#
#
# Indices 1 2 3 4 5 6 
#
# 1 0.010650 -0.004276 -0.001072 0.000000 -0.006164 0.000000
# 2 -0.004276 0.013774 -0.002721 0.000000 0.005785 0.000000
# 3 -0.001072 -0.002721 0.009324 0.000000 -0.003114 0.000000
# 4 0.000000 0.000000 0.000000 0.000861 0.000000 -0.038460
# 5 -0.006164 0.005785 -0.003114 0.000000 0.020622 0.000000
# 6 0.000000 0.000000 0.000000 -0.038460 0.000000 -0.047046
#
#
# Mechanical properties :
#
#
# Convention : Reuss Voigt Hill
#
# Bulk Modulus (GPa) = 56.78000 60.56266 58.67133
# Shear Modulus (GPa) = 165.60549 36.26067 100.93308
#
# Velocity S-wave (km/s) = 7.82913 3.66348 6.11213
# Velocity P-wave (km/s) = 10.13621 6.34907 8.45735
#
# Compressibility (1/GPa) = 0.01761184
#
# Stress axis : x y z
#
# Youngs Moduli (GPa) = 93.89711 72.59897 107.25034
#
# Poissons Ratio (x) = 0.31040 0.11492
# Poissons Ratio (y) = 0.40146 0.29184
# Poissons Ratio (z) = 0.10062 0.19755
#
# Static dielectric constant tensor:
#      x y z
#    x 2.094090 0.000000 0.052270 
#    y 0.000000 2.157890 0.000000 
#    z 0.052270 0.000000 2.351260 
# 
# From -- ./inp_files/168379.got.cif
#   From: 2010.05.17/outbox.cif.g08.bks.cpg/sg15_85_cif.got.tgz:168379.got - 2010.06.03 18:47:42.
