data_PCOD9264973
_publ_section_title
;
Structure prediction by ZEFSAII (Michael W. Deem and Ramdas Pophale) SiO2 
 PCOD9264973
Probable space group: C 2/C
;
_chemical_formula_sum "Si O2"
_cell_formula_units_Z 56
_cell_length_a 22.536527
_cell_length_b 9.313940
_cell_length_c 16.381915
_cell_angle_alpha 90.000000
_cell_angle_beta 45.782228
_cell_angle_gamma 90.000000
_cell_volume 2464.444603
_symmetry_space_group_name_H-M "C 2/C"
_symmetry_group_IT_number 15
_symmetry_cell_setting 'monoclinic'
loop_
_space_group_symop_operation_xyz
x,y,z
-x,y,1/2-z
-x,-y,-z
x,-y,1/2+z
1/2+x,1/2+y,z
1/2-x,1/2+y,1/2-z
1/2-x,1/2-y,-z
1/2+x,1/2-y,1/2+z
loop_
_atom_site_type_symbol
_atom_site_label
_atom_site_fract_x
_atom_site_fract_y
_atom_site_fract_z
Si Si1 0.538478 0.111046 0.879873
Si Si2 0.190230 0.807108 0.438453
Si Si3 0.289837 0.163128 0.684894
Si Si4 0.886230 0.909544 0.544747
Si Si5 0.864771 0.749816 0.848103
Si Si6 0.041120 0.718853 0.387723
Si Si7 0.850162 0.975934 0.256335
O O1 0.624167 0.119647 0.852909
O O2 0.559901 0.190738 0.776481
O O3 0.526959 0.943147 0.871432
O O4 0.468899 0.186579 0.004102
O O5 0.223258 0.782580 0.315605
O O6 0.137449 0.717585 0.553956
O O7 0.279542 0.821829 0.397186
O O8 0.136902 0.950346 0.480926
O O9 0.311870 0.297681 0.608728
O O10 0.246268 0.038287 0.676074
O O11 0.966566 0.826833 0.440052
O O12 0.892294 0.949785 0.635798
O O13 0.859831 0.918272 0.823741
O O14 0.115947 0.812161 0.278082
#
# Coordination Sequence:
#
# PCOD9264973 Si02
#       7
#     8   8   8   8   8   8   8
#     4   9  19  35  56  86 118 152 188 244 287 345
#     4   9  19  34  60  80 116 146 187 242 286 346
#     4   9  19  33  58  85 115 142 200 241 284 328
#     4  10  19  36  55  89 111 150 192 247 280 345
#     4  10  19  36  56  88 114 152 191 234 298 346
#     4  10  20  33  57  87 113 150 193 240 289 330
#     4  11  20  31  58  87 113 146 199 242 280 344
#
# _framework density 22.723172999999999
#
# number of rings (size 3 to 8) (size 9 to 14) (size 15 to 20)
#    0.000    2.286    4.286    0.429    6.000    0.000 
#    0.000    1.429    0.000    0.000   14.857    0.000 
#    0.000    0.000    0.000    0.000    0.000    0.000 
#
# Total GULP energy -155967.118845 kJ/mol
# GULP energy per Si atom -5570.254244 kJ/mol
# Density = 2.267145 g / cm^3
# Si number density = 22.723173 Si / 1000 Ang^3
#
#
#
# Elastic Constant Matrix: (Units=GPa)
#
#
# Indices 1 2 3 4 5 6 
#
# 1 28.7525 8.4650 12.6395 0.0000 -4.6454 0.0000
# 2 8.4650 82.7016 -14.4891 0.0000 -11.4202 -0.0001
# 3 12.6395 -14.4891 52.2691 0.0000 0.1355 0.0000
# 4 0.0000 0.0000 0.0000 25.4409 0.0000 -10.3554
# 5 -4.6454 -11.4202 0.1355 0.0000 19.6281 0.0000
# 6 0.0000 -0.0001 0.0000 -10.3554 0.0000 30.5630
#
#
#
# Elastic Compliance Matrix: (Units=1/GPa)
#
#
# Indices 1 2 3 4 5 6 
#
# 1 0.042749 -0.005489 -0.011877 0.000000 0.007006 0.000000
# 2 -0.005489 0.014577 0.005350 0.000000 0.007146 0.000000
# 3 -0.011877 0.005350 0.023486 0.000000 0.000140 0.000000
# 4 0.000000 0.000000 0.000000 0.045595 0.000000 0.015449
# 5 0.007006 0.007146 0.000140 0.000000 0.056762 0.000000
# 6 0.000000 0.000000 0.000000 0.015449 0.000000 0.037954
#
#
# Mechanical properties :
#
#
# Convention : Reuss Voigt Hill
#
# Bulk Modulus (GPa) = 17.61185 19.66154 18.63669
# Shear Modulus (GPa) = 18.93352 25.60027 22.26689
#
# Velocity S-wave (km/s) = 2.88970 3.36015 3.13376
# Velocity P-wave (km/s) = 4.34755 4.87089 4.61664
#
# Compressibility (1/GPa) = 0.05677995
#
# Stress axis : x y z
#
# Youngs Moduli (GPa) = 23.39263 68.59903 42.57789
#
# Poissons Ratio (x) = 0.37654 0.50570
# Poissons Ratio (y) = 0.12840 -0.22778
# Poissons Ratio (z) = 0.27783 -0.36698
#
# Static dielectric constant tensor:
#      x y z
#    x 1.918640 0.000000 -0.036230 
#    y 0.000000 1.893380 0.000000 
#    z -0.036230 0.000000 1.878570 
# 
# From -- ./inp_files/224383.got.cif
#   From: 2010.05.17/outbox.cif.g08.bks.cpg/sg15_113_cif.got.tgz:224383.got - 2010.06.03 18:47:42.
