data_PCOD9264065
_publ_section_title
;
Structure prediction by ZEFSAII (Michael W. Deem and Ramdas Pophale) SiO2 
 PCOD9264065
Probable space group: C 2/C
;
_chemical_formula_sum "Si O2"
_cell_formula_units_Z 52
_cell_length_a 14.185566
_cell_length_b 23.141054
_cell_length_c 11.161976
_cell_angle_alpha 90.000000
_cell_angle_beta 51.704272
_cell_angle_gamma 90.000000
_cell_volume 2875.692058
_symmetry_space_group_name_H-M "C 2/C"
_symmetry_group_IT_number 15
_symmetry_cell_setting 'monoclinic'
loop_
_space_group_symop_operation_xyz
x,y,z
-x,y,1/2-z
-x,-y,-z
x,-y,1/2+z
1/2+x,1/2+y,z
1/2-x,1/2+y,1/2-z
1/2-x,1/2-y,-z
1/2+x,1/2-y,1/2+z
loop_
_atom_site_type_symbol
_atom_site_label
_atom_site_fract_x
_atom_site_fract_y
_atom_site_fract_z
Si Si1 0.693490 0.756841 0.227126
Si Si2 0.000000 0.821493 0.750000
Si Si3 0.153920 0.436093 0.355318
Si Si4 0.769813 0.127041 0.545054
Si Si5 0.630194 0.932701 0.938232
Si Si6 0.858464 0.326251 0.725171
Si Si7 0.142735 0.325030 0.508765
O O1 0.579774 0.719718 0.273196
O O2 0.718698 0.808944 0.115901
O O3 0.801238 0.712209 0.165754
O O4 0.683754 0.787495 0.364004
O O5 0.093192 0.860608 0.601337
O O6 0.241963 0.412618 0.182706
O O7 0.169796 0.501969 0.381932
O O8 0.165836 0.391673 0.455866
O O9 0.013740 0.431191 0.424222
O O10 0.699731 0.096375 0.492696
O O11 0.655139 0.892733 0.803081
O O12 0.807374 0.313983 0.897895
O O13 0.999827 0.315572 0.622110
#
# Coordination Sequence:
#
# PCOD9264065 Si02
#       7
#     8   4   8   8   8   8   8
#     4  11  22  36  57  83 119 158 194 243 286 348
#     4  12  24  36  58  88 120 164 200 234 298 358
#     4   9  21  36  59  85 113 147 193 243 301 345
#     4  11  23  38  59  87 119 153 200 246 295 355
#     4  10  20  36  58  87 114 149 187 247 300 345
#     4  10  19  35  54  84 115 149 187 241 291 348
#     4   9  20  34  56  82 114 146 190 236 301 344
#
# _framework density 18.082604
#
# number of rings (size 3 to 8) (size 9 to 14) (size 15 to 20)
#    0.000    1.846    1.538    2.308    8.615    0.000 
#    0.000    0.769    0.000    0.000    0.000    0.000 
#    0.000    0.000    0.000    0.000    0.000    0.000 
#
# Total GULP energy -144966.118359 kJ/mol
# GULP energy per Si atom -5575.619937 kJ/mol
# Density = 1.804145 g / cm^3
# Si number density = 18.082604 Si / 1000 Ang^3
#
#
#
# Elastic Constant Matrix: (Units=GPa)
#
#
# Indices 1 2 3 4 5 6 
#
# 1 86.8558 51.5829 31.7803 0.0000 11.8709 0.0000
# 2 51.5829 127.4810 51.0860 0.0000 -1.6087 0.0000
# 3 31.7803 51.0860 104.2540 0.0000 3.6260 0.0000
# 4 0.0000 0.0000 0.0000 13.2918 0.0000 -4.6271
# 5 11.8709 -1.6087 3.6260 0.0000 19.6478 0.0000
# 6 0.0000 0.0000 0.0000 -4.6271 0.0000 25.6678
#
#
#
# Elastic Compliance Matrix: (Units=1/GPa)
#
#
# Indices 1 2 3 4 5 6 
#
# 1 0.017499 -0.006507 -0.001771 0.000000 -0.010779 0.000000
# 2 -0.006507 0.012237 -0.004211 0.000000 0.005711 0.000000
# 3 -0.001771 -0.004211 0.012249 0.000000 -0.001535 0.000000
# 4 0.000000 0.000000 0.000000 0.080272 0.000000 0.014471
# 5 -0.010779 0.005711 -0.001535 0.000000 0.058159 0.000000
# 6 0.000000 0.000000 0.000000 0.014471 0.000000 0.041568
#
#
# Mechanical properties :
#
#
# Convention : Reuss Voigt Hill
#
# Bulk Modulus (GPa) = 58.80198 65.27656 62.03927
# Shear Modulus (GPa) = 19.79172 23.99759 21.89465
#
# Velocity S-wave (km/s) = 3.31194 3.64690 3.48345
# Velocity P-wave (km/s) = 6.87127 7.34239 7.11073
#
# Compressibility (1/GPa) = 0.01700623
#
# Stress axis : x y z
#
# Youngs Moduli (GPa) = 57.14655 81.71990 81.64061
#
# Poissons Ratio (x) = 0.53175 0.14458
# Poissons Ratio (y) = 0.37185 0.34382
# Poissons Ratio (z) = 0.10120 0.34415
#
# Static dielectric constant tensor:
#      x y z
#    x 1.602070 0.000000 0.022320 
#    y 0.000000 1.617390 0.000000 
#    z 0.022320 0.000000 1.681290 
# 
# From -- ./inp_files/99700.got.cif
#   From: 2010.05.17/outbox.cif.g08.bks.cpg/sg15_50_cif.got.tgz:99700.got - 2010.06.03 18:47:42.
