data_PCOD9264510
_publ_section_title
;
Structure prediction by ZEFSAII (Michael W. Deem and Ramdas Pophale) SiO2 
 PCOD9264510
Probable space group: C 2/C
;
_chemical_formula_sum "Si O2"
_cell_formula_units_Z 48
_cell_length_a 8.139400
_cell_length_b 28.822113
_cell_length_c 19.346936
_cell_angle_alpha 90.000000
_cell_angle_beta 32.708308
_cell_angle_gamma 90.000000
_cell_volume 2452.536466
_symmetry_space_group_name_H-M "C 2/C"
_symmetry_group_IT_number 15
_symmetry_cell_setting 'monoclinic'
loop_
_space_group_symop_operation_xyz
x,y,z
-x,y,1/2-z
-x,-y,-z
x,-y,1/2+z
1/2+x,1/2+y,z
1/2-x,1/2+y,1/2-z
1/2-x,1/2-y,-z
1/2+x,1/2-y,1/2+z
loop_
_atom_site_type_symbol
_atom_site_label
_atom_site_fract_x
_atom_site_fract_y
_atom_site_fract_z
Si Si1 0.698472 0.047008 0.499993
Si Si2 0.702483 0.059688 0.999989
Si Si3 0.152498 0.796516 0.852526
Si Si4 0.323583 0.391656 0.739268
Si Si5 0.437373 0.203482 0.852535
Si Si6 0.219381 0.108343 0.739249
O O1 0.497959 0.053148 0.500005
O O2 0.495441 0.073140 0.627993
O O3 0.007446 0.073138 0.371983
O O4 0.755194 0.993908 0.499990
O O5 0.505332 0.088246 0.124834
O O6 0.004723 0.088247 0.875143
O O7 0.500000 0.789546 0.750000
O O8 0.154037 0.841212 0.802262
O O9 0.043378 0.750004 0.853297
O O10 0.912082 0.804706 0.999993
O O11 0.500000 0.390587 0.750000
O O12 0.500000 0.210435 0.750000
O O13 0.636905 0.158791 0.802286
O O14 0.000000 0.109404 0.750000
#
# Coordination Sequence:
#
# PCOD9264510 Si02
#       6
#     8   8   8   8   8   8
#     4   9  16  32  52  87 124 157 198 247 284 333
#     4   9  18  28  56  89 120 157 202 239 288 339
#     4  11  25  44  64  88 118 152 194 243 296 356
#     4  10  19  35  59  89 122 157 195 245 293 341
#     4  11  25  44  64  88 118 152 194 243 296 356
#     4  10  19  35  59  89 122 157 195 245 293 341
#
# _framework density 19.571573999999998
#
# number of rings (size 3 to 8) (size 9 to 14) (size 15 to 20)
#    0.000    2.000    1.667    2.000    2.333    4.667 
#    0.000    0.000    0.000    6.000    0.000    0.000 
#    0.000    0.000    0.000    0.000    0.000    0.000 
#
# Total GULP energy -133950.620379 kJ/mol
# GULP energy per Si atom -5581.275849 kJ/mol
# Density = 1.952703 g / cm^3
# Si number density = 19.571574 Si / 1000 Ang^3
#
#
#
# Elastic Constant Matrix: (Units=GPa)
#
#
# Indices 1 2 3 4 5 6 
#
# 1 22.5133 18.9325 45.0800 0.0000 -5.0274 0.0000
# 2 18.9325 164.9390 102.8079 -0.0002 -9.9436 0.0000
# 3 45.0800 102.8079 233.8976 0.0005 -20.0658 0.0002
# 4 0.0000 -0.0002 0.0005 51.6777 -0.0002 -3.3584
# 5 -5.0274 -9.9436 -20.0658 -0.0002 11.6981 -0.0001
# 6 0.0000 0.0000 0.0002 -3.3584 -0.0001 23.3370
#
#
#
# Elastic Compliance Matrix: (Units=1/GPa)
#
#
# Indices 1 2 3 4 5 6 
#
# 1 0.073092 0.000619 -0.013624 0.000000 0.008569 0.000000
# 2 0.000619 0.008365 -0.003709 0.000000 0.001014 0.000000
# 3 -0.013624 -0.003709 0.009097 0.000000 0.006597 0.000000
# 4 0.000000 0.000000 0.000000 0.019533 0.000000 0.002811
# 5 0.008569 0.001014 0.006597 0.000000 0.101345 0.000000
# 6 0.000000 0.000000 0.000000 0.002811 0.000000 0.043255
#
#
# Mechanical properties :
#
#
# Convention : Reuss Voigt Hill
#
# Bulk Modulus (GPa) = 17.50536 83.88787 50.69662
# Shear Modulus (GPa) = 16.27830 34.31119 25.29475
#
# Velocity S-wave (km/s) = 2.88710 4.19156 3.59893
# Velocity P-wave (km/s) = 4.48080 8.14744 6.57489
#
# Compressibility (1/GPa) = 0.05712536
#
# Stress axis : x y z
#
# Youngs Moduli (GPa) = 13.68143 119.54906 109.92146
#
# Poissons Ratio (x) = -0.07398 1.49759
# Poissons Ratio (y) = -0.00847 0.40769
# Poissons Ratio (z) = 0.18640 0.44340
#
# Static dielectric constant tensor:
#      x y z
#    x 1.716600 0.000000 0.005620 
#    y 0.000000 1.661590 0.000000 
#    z 0.005620 0.000000 1.669420 
# 
# From -- ./inp_files/194182.got.cif
#   From: 2010.05.17/outbox.cif.g08.bks.cpg/sg15_98_cif.got.tgz:194182.got - 2010.06.03 18:47:42.
