data_PCOD9264689
_publ_section_title
;
Structure prediction by ZEFSAII (Michael W. Deem and Ramdas Pophale) SiO2 
 PCOD9264689
Probable space group: C 2/C
;
_chemical_formula_sum "Si O2"
_cell_formula_units_Z 64
_cell_length_a 9.985978
_cell_length_b 16.131604
_cell_length_c 17.121677
_cell_angle_alpha 90.000000
_cell_angle_beta 85.446817
_cell_angle_gamma 90.000000
_cell_volume 2749.423814
_symmetry_space_group_name_H-M "C 2/C"
_symmetry_group_IT_number 15
_symmetry_cell_setting 'monoclinic'
loop_
_space_group_symop_operation_xyz
x,y,z
-x,y,1/2-z
-x,-y,-z
x,-y,1/2+z
1/2+x,1/2+y,z
1/2-x,1/2+y,1/2-z
1/2-x,1/2-y,-z
1/2+x,1/2-y,1/2+z
loop_
_atom_site_type_symbol
_atom_site_label
_atom_site_fract_x
_atom_site_fract_y
_atom_site_fract_z
Si Si1 0.757777 0.688164 0.616916
Si Si2 0.916812 0.056091 0.066306
Si Si3 0.632078 0.166099 0.721478
Si Si4 0.172084 0.640448 0.426906
Si Si5 0.810540 0.839525 0.078031
Si Si6 0.136833 0.645022 0.050240
Si Si7 0.570786 0.344426 0.665608
Si Si8 0.975262 0.082057 0.840919
O O1 0.807975 0.702372 0.702072
O O2 0.858780 0.670401 0.541457
O O3 0.675566 0.770788 0.595694
O O4 0.678885 0.600696 0.633176
O O5 0.761877 0.080257 0.057763
O O6 0.989282 0.140878 0.089078
O O7 0.955472 0.004902 0.143224
O O8 0.000000 0.000000 0.000000
O O9 0.500000 0.115357 0.750000
O O10 0.736401 0.125569 0.658988
O O11 0.586977 0.245719 0.673678
O O12 0.182402 0.740688 0.427809
O O13 0.238383 0.618879 0.507671
O O14 0.281360 0.616062 0.355825
O O15 0.016054 0.616801 0.424157
O O16 0.960724 0.861301 0.094339
O O17 0.500000 0.367869 0.750000
O O18 0.000000 0.106410 0.750000
#
# Coordination Sequence:
#
# PCOD9264689 Si02
#       8
#     8   8   8   8   8   8   8   8
#     4  11  22  37  65  98 137 172 239 297 348 409
#     4  12  25  44  67  96 141 189 237 279 353 445
#     4  10  19  35  61  93 131 172 220 290 353 408
#     4  10  21  37  67  97 131 167 228 291 352 409
#     4  10  20  36  60  96 132 171 219 289 356 409
#     4  11  23  40  66 103 135 180 237 300 343 411
#     4  10  22  42  64  95 130 181 227 280 353 427
#     4  12  23  41  66  95 134 183 233 283 355 433
#
# _framework density 23.277604
#
# number of rings (size 3 to 8) (size 9 to 14) (size 15 to 20)
#    0.000    1.250    3.750    3.375    0.000    3.000 
#    0.000    4.375    0.000    0.000    0.000    0.000 
#    0.000    0.000    0.000    0.000    0.000    0.000 
#
# Total GULP energy -178174.967297 kJ/mol
# GULP energy per Si atom -5567.967728 kJ/mol
# Density = 2.322462 g / cm^3
# Si number density = 23.277604 Si / 1000 Ang^3
#
#
#
# Elastic Constant Matrix: (Units=GPa)
#
#
# Indices 1 2 3 4 5 6 
#
# 1 151.2482 19.1190 42.8546 0.0000 -12.6272 0.0000
# 2 19.1190 53.6150 15.7466 0.0000 6.8055 0.0000
# 3 42.8546 15.7466 89.0418 0.0000 -4.8502 0.0000
# 4 0.0000 0.0000 0.0000 19.6901 0.0000 5.9232
# 5 -12.6272 6.8055 -4.8502 0.0000 32.7469 0.0000
# 6 0.0000 0.0000 0.0000 5.9232 0.0000 25.4035
#
#
#
# Elastic Compliance Matrix: (Units=1/GPa)
#
#
# Indices 1 2 3 4 5 6 
#
# 1 0.008105 -0.002309 -0.003323 0.000000 0.003113 0.000000
# 2 -0.002309 0.021057 -0.002923 0.000000 -0.005699 0.000000
# 3 -0.003323 -0.002923 0.013418 0.000000 0.001314 0.000000
# 4 0.000000 0.000000 0.000000 0.054618 0.000000 -0.012735
# 5 0.003113 -0.005699 0.001314 0.000000 0.033117 0.000000
# 6 0.000000 0.000000 0.000000 -0.012735 0.000000 0.042334
#
#
# Mechanical properties :
#
#
# Convention : Reuss Voigt Hill
#
# Bulk Modulus (GPa) = 39.26167 49.92727 44.59447
# Shear Modulus (GPa) = 25.22080 29.98039 27.60060
#
# Velocity S-wave (km/s) = 3.29520 3.59270 3.44716
# Velocity P-wave (km/s) = 5.60188 6.22135 5.91972
#
# Compressibility (1/GPa) = 0.02547013
#
# Stress axis : x y z
#
# Youngs Moduli (GPa) = 123.38099 47.49031 74.52485
#
# Poissons Ratio (x) = 0.10968 0.24763
# Poissons Ratio (y) = 0.28494 0.21782
# Poissons Ratio (z) = 0.40997 0.13880
#
# Static dielectric constant tensor:
#      x y z
#    x 2.100230 0.000000 -0.006500 
#    y 0.000000 2.055150 0.000000 
#    z -0.006500 0.000000 1.900400 
# 
# From -- ./inp_files/192162.got.cif
#   From: 2010.05.17/outbox.cif.g08.bks.cpg/sg15_97_cif.got.tgz:192162.got - 2010.06.03 18:47:42.
