data_PCOD9264452
_publ_section_title
;
Structure prediction by ZEFSAII (Michael W. Deem and Ramdas Pophale) SiO2 
 PCOD9264452
Probable space group: C 2/C
;
_chemical_formula_sum "Si O2"
_cell_formula_units_Z 48
_cell_length_a 24.829311
_cell_length_b 12.103548
_cell_length_c 22.249172
_cell_angle_alpha 90.000000
_cell_angle_beta 155.701820
_cell_angle_gamma 90.000000
_cell_volume 2751.348838
_symmetry_space_group_name_H-M "C 2/C"
_symmetry_group_IT_number 15
_symmetry_cell_setting 'monoclinic'
loop_
_space_group_symop_operation_xyz
x,y,z
-x,y,1/2-z
-x,-y,-z
x,-y,1/2+z
1/2+x,1/2+y,z
1/2-x,1/2+y,1/2-z
1/2-x,1/2-y,-z
1/2+x,1/2-y,1/2+z
loop_
_atom_site_type_symbol
_atom_site_label
_atom_site_fract_x
_atom_site_fract_y
_atom_site_fract_z
Si Si1 0.250973 0.433160 0.861483
Si Si2 0.382343 0.207190 0.170326
Si Si3 0.850007 0.970109 0.278283
Si Si4 0.879669 0.580430 0.869028
Si Si5 0.981634 0.949406 0.298983
Si Si6 0.581304 0.670005 0.065991
O O1 0.162035 0.372362 0.820595
O O2 0.192043 0.535095 0.763813
O O3 0.300492 0.346018 0.861393
O O4 0.383085 0.470529 0.029257
O O5 0.500000 0.154843 0.250000
O O6 0.452411 0.318503 0.264825
O O7 0.250000 0.250000 0.000000
O O8 0.713370 0.936846 0.167898
O O9 0.864273 0.990302 0.221954
O O10 0.950830 0.872600 0.399829
O O11 0.895230 0.080852 0.358007
O O12 0.922591 0.707303 0.912792
O O13 0.000000 0.500000 0.000000
O O14 0.000000 0.990790 0.250000
#
# Coordination Sequence:
#
# PCOD9264452 Si02
#       6
#     8   8   8   8   8   8
#     4  10  21  37  54  87 118 155 196 246 302 353
#     4  11  20  33  55  86 120 158 196 248 299 352
#     4   9  20  37  60  82 114 156 192 241 297 355
#     4  11  24  35  57  89 119 154 193 250 302 354
#     4  10  19  35  59  84 113 155 200 239 299 354
#     4   9  20  38  58  83 114 154 196 241 298 352
#
# _framework density 17.445989000000001
#
# number of rings (size 3 to 8) (size 9 to 14) (size 15 to 20)
#    0.000    2.000    3.333    2.000    9.333    1.333 
#    0.000    0.000    0.000    2.000    0.000    0.000 
#    0.000    0.000    0.000    0.000    0.000    0.000 
#
# Total GULP energy -133718.840136 kJ/mol
# GULP energy per Si atom -5571.618339 kJ/mol
# Density = 1.740628 g / cm^3
# Si number density = 17.445989 Si / 1000 Ang^3
#
#
#
# Elastic Constant Matrix: (Units=GPa)
#
#
# Indices 1 2 3 4 5 6 
#
# 1 164.3836 37.1057 30.9467 0.0000 6.4856 0.0000
# 2 37.1057 101.6266 42.7863 0.0000 -0.5884 0.0000
# 3 30.9467 42.7863 71.8244 0.0000 0.4587 0.0000
# 4 0.0000 0.0000 0.0000 21.8414 0.0000 -2.5198
# 5 6.4856 -0.5884 0.4587 0.0000 33.5280 0.0000
# 6 0.0000 0.0000 0.0000 -2.5198 0.0000 21.6840
#
#
#
# Elastic Compliance Matrix: (Units=1/GPa)
#
#
# Indices 1 2 3 4 5 6 
#
# 1 0.006887 -0.001704 -0.001944 0.000000 -0.001335 0.000000
# 2 -0.001704 0.013559 -0.007348 0.000000 0.000668 0.000000
# 3 -0.001944 -0.007348 0.019137 0.000000 -0.000015 0.000000
# 4 0.000000 0.000000 0.000000 0.046407 0.000000 0.005393
# 5 -0.001335 0.000668 -0.000015 0.000000 0.030096 0.000000
# 6 0.000000 0.000000 0.000000 0.005393 0.000000 0.046744
#
#
# Mechanical properties :
#
#
# Convention : Reuss Voigt Hill
#
# Bulk Modulus (GPa) = 56.84018 62.16803 59.50410
# Shear Modulus (GPa) = 26.22137 30.54373 28.38255
#
# Velocity S-wave (km/s) = 3.88106 4.18875 4.03784
# Velocity P-wave (km/s) = 7.26188 7.68805 7.47800
#
# Compressibility (1/GPa) = 0.01759319
#
# Stress axis : x y z
#
# Youngs Moduli (GPa) = 145.21103 73.75005 52.25380
#
# Poissons Ratio (x) = 0.12566 0.10156
# Poissons Ratio (y) = 0.24741 0.38394
# Poissons Ratio (z) = 0.28224 0.54188
#
# Static dielectric constant tensor:
#      x y z
#    x 1.671420 0.000000 0.000070 
#    y 0.000000 1.564040 0.000000 
#    z 0.000070 0.000000 1.648610 
# 
# From -- ./inp_files/255376.got.cif
#   From: 2010.05.17/outbox.cif.g08.bks.cpg/sg15_128_cif.got.tgz:255376.got - 2010.06.03 18:47:42.
