data_PCOD9264434
_publ_section_title
;
Structure prediction by ZEFSAII (Michael W. Deem and Ramdas Pophale) SiO2 
 PCOD9264434
Probable space group: C 2/C
;
_chemical_formula_sum "Si O2"
_cell_formula_units_Z 48
_cell_length_a 12.363248
_cell_length_b 22.317273
_cell_length_c 13.276512
_cell_angle_alpha 90.000000
_cell_angle_beta 45.631960
_cell_angle_gamma 90.000000
_cell_volume 2618.667903
_symmetry_space_group_name_H-M "C 2/C"
_symmetry_group_IT_number 15
_symmetry_cell_setting 'monoclinic'
loop_
_space_group_symop_operation_xyz
x,y,z
-x,y,1/2-z
-x,-y,-z
x,-y,1/2+z
1/2+x,1/2+y,z
1/2-x,1/2+y,1/2-z
1/2-x,1/2-y,-z
1/2+x,1/2-y,1/2+z
loop_
_atom_site_type_symbol
_atom_site_label
_atom_site_fract_x
_atom_site_fract_y
_atom_site_fract_z
Si Si1 0.219031 0.019486 0.834837
Si Si2 0.117777 0.181689 0.415245
Si Si3 0.173938 0.906129 0.170315
Si Si4 0.493670 0.575844 0.374043
Si Si5 0.110262 0.771754 0.267242
Si Si6 0.338382 0.915098 0.866844
O O1 0.344986 0.974115 0.792894
O O2 0.105033 0.971590 0.856273
O O3 0.228473 0.067679 0.740775
O O4 0.160215 0.055004 0.971493
O O5 0.249572 0.228301 0.300433
O O6 0.205765 0.130040 0.420102
O O7 0.039326 0.143073 0.378023
O O8 0.993750 0.212316 0.568564
O O9 0.174112 0.834419 0.181432
O O10 0.000000 0.922081 0.250000
O O11 0.288134 0.929918 0.012063
O O12 0.500000 0.569673 0.250000
O O13 0.000000 0.748590 0.250000
O O14 0.500000 0.885193 0.750000
#
# Coordination Sequence:
#
# PCOD9264434 Si02
#       6
#     8   8   8   8   8   8
#     4  10  19  35  59  82 113 147 190 228 279 342
#     4  11  22  37  56  86 110 149 188 234 281 335
#     4  11  19  36  58  84 112 148 186 232 284 332
#     4  10  19  35  60  85 111 147 193 233 275 338
#     4  11  21  35  59  85 113 147 187 236 284 329
#     4  11  23  35  54  88 118 144 185 231 285 336
#
# _framework density 18.329930999999998
#
# number of rings (size 3 to 8) (size 9 to 14) (size 15 to 20)
#    0.000    1.333    5.000    4.500    2.333    0.667 
#    0.000    0.833    0.000    0.000    0.000    0.000 
#    0.000    0.000    0.000    0.000    0.000    0.000 
#
# Total GULP energy -133682.094444 kJ/mol
# GULP energy per Si atom -5570.087269 kJ/mol
# Density = 1.828821 g / cm^3
# Si number density = 18.329931 Si / 1000 Ang^3
#
#
#
# Elastic Constant Matrix: (Units=GPa)
#
#
# Indices 1 2 3 4 5 6 
#
# 1 45.2813 41.2278 47.2855 0.0000 12.3389 0.0000
# 2 41.2278 96.7819 25.5562 0.0000 8.7574 0.0000
# 3 47.2855 25.5562 105.3123 0.0000 22.1901 0.0000
# 4 0.0000 0.0000 0.0000 22.9660 0.0000 -20.5015
# 5 12.3389 8.7574 22.1901 0.0000 25.7719 0.0000
# 6 0.0000 0.0000 0.0000 -20.5015 0.0000 27.4634
#
#
#
# Elastic Compliance Matrix: (Units=1/GPa)
#
#
# Indices 1 2 3 4 5 6 
#
# 1 0.070421 -0.022973 -0.025147 0.000000 -0.004257 0.000000
# 2 -0.022973 0.018600 0.005883 0.000000 -0.000387 0.000000
# 3 -0.025147 0.005883 0.021065 0.000000 -0.008097 0.000000
# 4 0.000000 0.000000 0.000000 0.130523 0.000000 0.097436
# 5 -0.004257 -0.000387 -0.008097 0.000000 0.047943 0.000000
# 6 0.000000 0.000000 0.000000 0.097436 0.000000 0.109148
#
#
# Mechanical properties :
#
#
# Convention : Reuss Voigt Hill
#
# Bulk Modulus (GPa) = 39.04514 52.83495 45.94004
# Shear Modulus (GPa) = 10.18925 24.12731 17.15828
#
# Velocity S-wave (km/s) = 2.36027 3.63199 3.06286
# Velocity P-wave (km/s) = 5.36427 6.81729 6.13396
#
# Compressibility (1/GPa) = 0.02561139
#
# Stress axis : x y z
#
# Youngs Moduli (GPa) = 14.20027 53.76259 47.47137
#
# Poissons Ratio (x) = 1.23508 1.19378
# Poissons Ratio (y) = 0.32622 -0.27926
# Poissons Ratio (z) = 0.35710 -0.31626
#
# Static dielectric constant tensor:
#      x y z
#    x 1.648100 0.000000 -0.008630 
#    y 0.000000 1.657200 0.000000 
#    z -0.008630 0.000000 1.670560 
# 
# From -- ./inp_files/50403.got.cif
#   From: 2010.05.17/outbox.cif.g08.bks.cpg/sg15_26_cif.got.tgz:50403.got - 2010.06.03 18:47:42.
