data_PCOD9264781
_publ_section_title
;
Structure prediction by ZEFSAII (Michael W. Deem and Ramdas Pophale) SiO2 
 PCOD9264781
Probable space group: C 2/C
;
_chemical_formula_sum "Si O2"
_cell_formula_units_Z 52
_cell_length_a 6.586314
_cell_length_b 15.758241
_cell_length_c 24.792576
_cell_angle_alpha 90.000000
_cell_angle_beta 85.574046
_cell_angle_gamma 90.000000
_cell_volume 2565.516295
_symmetry_space_group_name_H-M "C 2/C"
_symmetry_group_IT_number 15
_symmetry_cell_setting 'monoclinic'
loop_
_space_group_symop_operation_xyz
x,y,z
-x,y,1/2-z
-x,-y,-z
x,-y,1/2+z
1/2+x,1/2+y,z
1/2-x,1/2+y,1/2-z
1/2-x,1/2-y,-z
1/2+x,1/2-y,1/2+z
loop_
_atom_site_type_symbol
_atom_site_label
_atom_site_fract_x
_atom_site_fract_y
_atom_site_fract_z
Si Si1 0.040496 0.193927 0.562033
Si Si2 0.500000 0.380614 0.250000
Si Si3 0.310273 0.641991 0.047867
Si Si4 0.289641 0.690211 0.405445
Si Si5 0.207175 0.390767 0.349740
Si Si6 0.140375 0.274488 0.200135
Si Si7 0.973248 0.473911 0.563168
O O1 0.144370 0.283776 0.545312
O O2 0.091246 0.129328 0.513102
O O3 0.141049 0.164132 0.615410
O O4 0.806437 0.222076 0.569839
O O5 0.354534 0.424822 0.298297
O O6 0.331811 0.324565 0.221325
O O7 0.480068 0.679881 0.082361
O O8 0.197685 0.560720 0.073498
O O9 0.276482 0.703756 0.342020
O O10 0.178225 0.606144 0.428427
O O11 0.108304 0.457203 0.393373
O O12 0.019750 0.336953 0.327893
O O13 0.000000 0.236824 0.250000
O O14 0.000000 0.500000 0.500000
#
# Coordination Sequence:
#
# PCOD9264781 Si02
#       7
#     8   4   8   8   8   8   8
#     4  10  19  35  63  89 124 161 208 257 305 376
#     4  10  22  42  68  92 120 158 226 268 322 376
#     4  10  21  37  58  91 129 163 204 252 307 382
#     4  11  22  39  62  93 120 168 211 256 317 377
#     4  11  21  41  64  91 126 167 210 263 320 381
#     4  10  22  39  69  91 115 160 219 270 311 373
#     4  11  25  40  58  94 138 166 198 257 322 382
#
# _framework density 20.268826000000001
#
# number of rings (size 3 to 8) (size 9 to 14) (size 15 to 20)
#    0.000    1.538    4.615    0.462    0.000    3.077 
#    1.385    0.000    5.077    0.000    0.000    0.000 
#    0.000    0.000    0.000    0.000    0.000    0.000 
#
# Total GULP energy -144873.641599 kJ/mol
# GULP energy per Si atom -5572.063138 kJ/mol
# Density = 2.022269 g / cm^3
# Si number density = 20.268826 Si / 1000 Ang^3
#
#
#
# Elastic Constant Matrix: (Units=GPa)
#
#
# Indices 1 2 3 4 5 6 
#
# 1 89.4343 26.9251 26.7917 0.0000 -8.6288 0.0000
# 2 26.9251 40.7427 34.7406 0.0000 -20.3038 0.0000
# 3 26.7917 34.7406 117.3707 0.0000 -32.4966 0.0000
# 4 0.0000 0.0000 0.0000 29.0076 0.0000 -12.7512
# 5 -8.6288 -20.3038 -32.4966 0.0000 45.6637 0.0000
# 6 0.0000 0.0000 0.0000 -12.7512 0.0000 29.3986
#
#
#
# Elastic Compliance Matrix: (Units=1/GPa)
#
#
# Indices 1 2 3 4 5 6 
#
# 1 0.014170 -0.009660 -0.001025 0.000000 -0.002347 0.000000
# 2 -0.009660 0.043154 -0.007175 0.000000 0.012257 0.000000
# 3 -0.001025 -0.007175 0.012380 0.000000 0.005427 0.000000
# 4 0.000000 0.000000 0.000000 0.042595 0.000000 0.018475
# 5 -0.002347 0.012257 0.005427 0.000000 0.030767 0.000000
# 6 0.000000 0.000000 0.000000 0.018475 0.000000 0.042028
#
#
# Mechanical properties :
#
#
# Convention : Reuss Voigt Hill
#
# Bulk Modulus (GPa) = 29.42508 47.16250 38.29379
# Shear Modulus (GPa) = 21.53850 31.41999 26.47924
#
# Velocity S-wave (km/s) = 3.26335 3.94148 3.61834
# Velocity P-wave (km/s) = 5.36174 6.63572 6.03245
#
# Compressibility (1/GPa) = 0.03398462
#
# Stress axis : x y z
#
# Youngs Moduli (GPa) = 70.57014 23.17297 80.77504
#
# Poissons Ratio (x) = 0.22385 0.08281
# Poissons Ratio (y) = 0.68171 0.57952
# Poissons Ratio (z) = 0.07235 0.16625
#
# Static dielectric constant tensor:
#      x y z
#    x 1.773640 0.000000 -0.050670 
#    y 0.000000 1.715710 0.000000 
#    z -0.050670 0.000000 1.777060 
# 
# From -- ./inp_files/285809.got.cif
#   From: 2010.05.17/outbox.cif.g08.bks.cpg/sg15_143_cif.got.tgz:285809.got - 2010.06.03 18:47:42.
