data_PCOD9264732
_publ_section_title
;
Structure prediction by ZEFSAII (Michael W. Deem and Ramdas Pophale) SiO2 
 PCOD9264732
Probable space group: C 2/C
;
_chemical_formula_sum "Si O2"
_cell_formula_units_Z 48
_cell_length_a 21.546515
_cell_length_b 16.607838
_cell_length_c 10.487432
_cell_angle_alpha 90.000000
_cell_angle_beta 37.183631
_cell_angle_gamma 90.000000
_cell_volume 2268.105699
_symmetry_space_group_name_H-M "C 2/C"
_symmetry_group_IT_number 15
_symmetry_cell_setting 'monoclinic'
loop_
_space_group_symop_operation_xyz
x,y,z
-x,y,1/2-z
-x,-y,-z
x,-y,1/2+z
1/2+x,1/2+y,z
1/2-x,1/2+y,1/2-z
1/2-x,1/2-y,-z
1/2+x,1/2-y,1/2+z
loop_
_atom_site_type_symbol
_atom_site_label
_atom_site_fract_x
_atom_site_fract_y
_atom_site_fract_z
Si Si1 0.309511 0.602758 0.860170
Si Si2 0.424386 0.251945 0.063273
Si Si3 0.144343 0.224470 0.100932
Si Si4 0.595636 0.439565 0.798351
Si Si5 0.104290 0.335756 0.619493
Si Si6 0.114181 0.162447 0.515287
O O1 0.401117 0.655381 0.645352
O O2 0.324672 0.509754 0.858491
O O3 0.305632 0.641106 0.006884
O O4 0.208895 0.616676 0.942617
O O5 0.401125 0.200184 0.227522
O O6 0.358764 0.244720 0.040640
O O7 0.542788 0.238562 0.833638
O O8 0.110654 0.128523 0.162759
O O9 0.250000 0.250000 0.000000
O O10 0.500000 0.500000 0.000000
O O11 0.628669 0.386165 0.864519
O O12 0.110520 0.258488 0.516149
O O13 0.000000 0.379412 0.750000
O O14 0.000000 0.137524 0.750000
#
# Coordination Sequence:
#
# PCOD9264732 Si02
#       6
#     8   8   8   8   8   8
#     4  11  23  37  64  92 126 168 213 272 321 381
#     4  10  22  41  63  95 129 163 215 268 311 401
#     4  11  25  39  64  96 134 173 207 256 335 393
#     4  12  23  39  61  96 136 166 207 273 333 385
#     4  10  22  41  67  90 120 170 227 265 313 381
#     4  10  19  35  62  90 124 162 205 257 323 382
#
# _framework density 21.163034
#
# number of rings (size 3 to 8) (size 9 to 14) (size 15 to 20)
#    0.000    1.333    3.333    4.000    9.333    0.000 
#    0.000    0.000    3.667    2.000    0.000    0.000 
#    0.000    0.000    0.000    0.000    0.000    0.000 
#
# Total GULP energy -133664.420882 kJ/mol
# GULP energy per Si atom -5569.350870 kJ/mol
# Density = 2.111487 g / cm^3
# Si number density = 21.163034 Si / 1000 Ang^3
#
#
#
# Elastic Constant Matrix: (Units=GPa)
#
#
# Indices 1 2 3 4 5 6 
#
# 1 136.4155 1.3899 25.4924 0.0000 -13.8259 0.0000
# 2 1.3899 28.2626 7.9399 0.0000 -5.1878 0.0000
# 3 25.4924 7.9399 52.8939 0.0000 -11.7402 0.0000
# 4 0.0000 0.0000 0.0000 6.4103 0.0000 2.9723
# 5 -13.8259 -5.1878 -11.7402 0.0000 41.8262 0.0000
# 6 0.0000 0.0000 0.0000 2.9723 0.0000 22.7928
#
#
#
# Elastic Compliance Matrix: (Units=1/GPa)
#
#
# Indices 1 2 3 4 5 6 
#
# 1 0.008193 0.000964 -0.003696 0.000000 0.001790 0.000000
# 2 0.000964 0.037467 -0.005318 0.000000 0.003473 0.000000
# 3 -0.003696 -0.005318 0.022467 0.000000 0.004425 0.000000
# 4 0.000000 0.000000 0.000000 0.166038 0.000000 -0.021652
# 5 0.001790 0.003473 0.004425 0.000000 0.026173 0.000000
# 6 0.000000 0.000000 0.000000 -0.021652 0.000000 0.046697
#
#
# Mechanical properties :
#
#
# Convention : Reuss Voigt Hill
#
# Bulk Modulus (GPa) = 19.22063 31.91294 25.56678
# Shear Modulus (GPa) = 14.68530 26.38918 20.53724
#
# Velocity S-wave (km/s) = 2.63708 3.53504 3.11855
# Velocity P-wave (km/s) = 4.28651 5.63687 5.00742
#
# Compressibility (1/GPa) = 0.05202744
#
# Stress axis : x y z
#
# Youngs Moduli (GPa) = 122.05779 26.69050 44.50881
#
# Poissons Ratio (x) = -0.02573 0.16450
# Poissons Ratio (y) = -0.11767 0.23669
# Poissons Ratio (z) = 0.45111 0.14194
#
# Static dielectric constant tensor:
#      x y z
#    x 1.823120 0.000000 -0.005640 
#    y 0.000000 1.759600 0.000000 
#    z -0.005640 0.000000 1.873440 
# 
# From -- ./inp_files/113393.got.cif
#   From: 2010.05.17/outbox.cif.g08.bks.cpg/sg15_57_cif.got.tgz:113393.got - 2010.06.03 18:47:42.
