data_PCOD9264607
_publ_section_title
;
Structure prediction by ZEFSAII (Michael W. Deem and Ramdas Pophale) SiO2 
 PCOD9264607
Probable space group: C 2/C
;
_chemical_formula_sum "Si O2"
_cell_formula_units_Z 52
_cell_length_a 5.104002
_cell_length_b 18.697580
_cell_length_c 27.689536
_cell_angle_alpha 90.000000
_cell_angle_beta 96.256075
_cell_angle_gamma 90.000000
_cell_volume 2626.744717
_symmetry_space_group_name_H-M "C 2/C"
_symmetry_group_IT_number 15
_symmetry_cell_setting 'monoclinic'
loop_
_space_group_symop_operation_xyz
x,y,z
-x,y,1/2-z
-x,-y,-z
x,-y,1/2+z
1/2+x,1/2+y,z
1/2-x,1/2+y,1/2-z
1/2-x,1/2-y,-z
1/2+x,1/2-y,1/2+z
loop_
_atom_site_type_symbol
_atom_site_label
_atom_site_fract_x
_atom_site_fract_y
_atom_site_fract_z
Si Si1 0.159095 0.090343 0.652830
Si Si2 0.807299 0.791946 0.111827
Si Si3 0.500000 0.583447 0.750000
Si Si4 0.652367 0.983538 0.437929
Si Si5 0.716635 0.735711 0.442932
Si Si6 0.831806 0.926336 0.538032
Si Si7 0.583279 0.801322 0.203011
O O1 0.302011 0.045654 0.614613
O O2 0.337723 0.158597 0.672613
O O3 0.900645 0.126735 0.623835
O O4 0.094972 0.048758 0.701553
O O5 0.535634 0.780466 0.078999
O O6 0.747478 0.762018 0.164635
O O7 0.033917 0.756849 0.084411
O O8 0.733130 0.635147 0.772911
O O9 0.724652 0.924962 0.480533
O O10 0.366619 0.017464 0.440781
O O11 0.872222 0.044060 0.453606
O O12 0.750000 0.750000 0.500000
O O13 0.674952 0.650762 0.437954
O O14 0.500000 0.760248 0.250000
#
# Coordination Sequence:
#
# PCOD9264607 Si02
#       7
#     8   8   4   8   8   8   8
#     4  10  19  35  60  91 120 149 190 238 305 346
#     4  11  22  35  58  89 117 156 189 234 299 348
#     4   8  18  30  56  92 122 138 184 238 300 348
#     4  10  22  38  60  79 116 154 193 239 283 345
#     4  12  24  39  57  84 120 159 198 248 281 346
#     4  10  23  39  54  84 112 155 199 233 281 337
#     4   9  18  35  56  92 123 142 185 244 296 353
#
# _framework density 19.796367
#
# number of rings (size 3 to 8) (size 9 to 14) (size 15 to 20)
#    0.000    1.846    1.538    2.308    4.308    2.462 
#    0.000    0.000    0.000    0.000   12.000    0.000 
#    0.000    0.000    0.000    0.000    0.000    0.000 
#
# Total GULP energy -145005.976749 kJ/mol
# GULP energy per Si atom -5577.152952 kJ/mol
# Density = 1.975131 g / cm^3
# Si number density = 19.796367 Si / 1000 Ang^3
#
#
#
# Elastic Constant Matrix: (Units=GPa)
#
#
# Indices 1 2 3 4 5 6 
#
# 1 102.1789 6.2009 36.6608 0.0000 -9.1032 0.0000
# 2 6.2009 26.7231 23.8398 0.0000 -4.0435 0.0000
# 3 36.6608 23.8398 146.8804 0.0000 -32.2505 0.0000
# 4 0.0000 0.0000 0.0000 18.5906 0.0000 -8.8595
# 5 -9.1032 -4.0435 -32.2505 0.0000 46.2889 0.0000
# 6 0.0000 0.0000 0.0000 -8.8595 0.0000 14.7556
#
#
#
# Elastic Compliance Matrix: (Units=1/GPa)
#
#
# Indices 1 2 3 4 5 6 
#
# 1 0.010753 -0.000133 -0.002598 0.000000 0.000293 0.000000
# 2 -0.000133 0.043827 -0.007373 0.000000 -0.001335 0.000000
# 3 -0.002598 -0.007373 0.009917 0.000000 0.005754 0.000000
# 4 0.000000 0.000000 0.000000 0.075351 0.000000 0.045242
# 5 0.000293 -0.001335 0.005754 0.000000 0.025554 0.000000
# 6 0.000000 0.000000 0.000000 0.045242 0.000000 0.094935
#
#
# Mechanical properties :
#
#
# Convention : Reuss Voigt Hill
#
# Bulk Modulus (GPa) = 22.57926 45.46504 34.02215
# Shear Modulus (GPa) = 16.93142 29.86576 23.39859
#
# Velocity S-wave (km/s) = 2.92769 3.88835 3.44170
# Velocity P-wave (km/s) = 4.78111 6.57078 5.74605
#
# Compressibility (1/GPa) = 0.04428843
#
# Stress axis : x y z
#
# Youngs Moduli (GPa) = 92.99664 22.81673 100.83759
#
# Poissons Ratio (x) = 0.00304 0.26197
# Poissons Ratio (y) = 0.01238 0.74351
# Poissons Ratio (z) = 0.24160 0.16824
#
# Static dielectric constant tensor:
#      x y z
#    x 1.813460 0.000000 -0.024160 
#    y 0.000000 1.690100 0.000000 
#    z -0.024160 0.000000 1.774270 
# 
# From -- ./inp_files/285883.got.cif
#   From: 2010.05.17/outbox.cif.g08.bks.cpg/sg15_143_cif.got.tgz:285883.got - 2010.06.03 18:47:42.
