data_PCOD9264282
_publ_section_title
;
Structure prediction by ZEFSAII (Michael W. Deem and Ramdas Pophale) SiO2 
 PCOD9264282
Probable space group: C 2/C
;
_chemical_formula_sum "Si O2"
_cell_formula_units_Z 64
_cell_length_a 16.175299
_cell_length_b 11.079704
_cell_length_c 29.494779
_cell_angle_alpha 90.000000
_cell_angle_beta 38.536271
_cell_angle_gamma 90.000000
_cell_volume 3293.218892
_symmetry_space_group_name_H-M "C 2/C"
_symmetry_group_IT_number 15
_symmetry_cell_setting 'monoclinic'
loop_
_space_group_symop_operation_xyz
x,y,z
-x,y,1/2-z
-x,-y,-z
x,-y,1/2+z
1/2+x,1/2+y,z
1/2-x,1/2+y,1/2-z
1/2-x,1/2-y,-z
1/2+x,1/2-y,1/2+z
loop_
_atom_site_type_symbol
_atom_site_label
_atom_site_fract_x
_atom_site_fract_y
_atom_site_fract_z
Si Si1 0.744949 0.679249 0.285253
Si Si2 0.811942 0.696919 0.403998
Si Si3 0.782483 0.078776 0.670706
Si Si4 0.137475 0.437761 0.857160
Si Si5 0.548767 0.844849 0.339762
Si Si6 0.037575 0.222450 0.569807
Si Si7 0.847414 0.118268 0.806969
Si Si8 0.119991 0.567095 0.662035
O O1 0.743677 0.563651 0.317770
O O2 0.797972 0.629391 0.214430
O O3 0.593765 0.723851 0.344586
O O4 0.827018 0.788328 0.273225
O O5 0.905235 0.735822 0.406041
O O6 0.663377 0.683682 0.486633
O O7 0.810992 0.800201 0.366092
O O8 0.862171 0.568900 0.363479
O O9 0.677037 0.130712 0.752036
O O10 0.928723 0.117836 0.621221
O O11 0.743909 0.117985 0.636716
O O12 0.048560 0.546020 0.875215
O O13 0.251063 0.504703 0.837749
O O14 0.042240 0.335392 0.918038
O O15 0.423567 0.850666 0.361241
O O16 0.000000 0.082020 0.750000
O O17 0.000000 0.566084 0.750000
#
# Coordination Sequence:
#
# PCOD9264282 Si02
#       8
#     8   8   8   8   8   8   8   8
#     4  10  19  35  58  86 112 148 184 232 301 333
#     4  11  23  38  60  82 112 164 195 241 269 350
#     4  10  20  33  57  85 110 149 181 247 279 341
#     4  10  20  36  58  85 115 150 182 243 290 342
#     4   9  18  32  59  82 112 144 183 233 293 336
#     4  11  23  40  57  82 120 153 202 227 293 347
#     4  11  23  37  61  90 115 147 198 241 286 341
#     4  10  19  35  57  87 108 141 195 240 280 336
#
# _framework density 19.433872999999998
#
# number of rings (size 3 to 8) (size 9 to 14) (size 15 to 20)
#    0.000    1.750    3.750    1.125    5.250    1.000 
#    2.250    0.000    0.000    0.750    0.000    0.000 
#    0.000    0.000    0.000    0.000    0.000    0.000 
#
# Total GULP energy -178442.258498 kJ/mol
# GULP energy per Si atom -5576.320578 kJ/mol
# Density = 1.938964 g / cm^3
# Si number density = 19.433873 Si / 1000 Ang^3
#
#
#
# Elastic Constant Matrix: (Units=GPa)
#
#
# Indices 1 2 3 4 5 6 
#
# 1 105.6338 11.5508 8.9491 0.0000 -17.0143 0.0000
# 2 11.5508 25.8632 -7.9823 0.0000 -10.7277 0.0000
# 3 8.9491 -7.9823 26.0714 0.0000 -10.5419 0.0000
# 4 0.0000 0.0000 0.0000 13.8657 0.0000 -8.6972
# 5 -17.0143 -10.7277 -10.5419 0.0000 22.8909 0.0000
# 6 0.0000 0.0000 0.0000 -8.6972 0.0000 28.6790
#
#
#
# Elastic Compliance Matrix: (Units=1/GPa)
#
#
# Indices 1 2 3 4 5 6 
#
# 1 0.010925 -0.003586 -0.002758 0.000000 0.005170 0.000000
# 2 -0.003586 0.078310 0.047886 0.000000 0.056087 0.000000
# 3 -0.002758 0.047886 0.076444 0.000000 0.055597 0.000000
# 4 0.000000 0.000000 0.000000 0.089062 0.000000 0.027009
# 5 0.005170 0.056087 0.055597 0.000000 0.099417 0.000000
# 6 0.000000 0.000000 0.000000 0.027009 0.000000 0.043060
#
#
# Mechanical properties :
#
#
# Convention : Reuss Voigt Hill
#
# Bulk Modulus (GPa) = 4.01988 20.28928 12.15458
# Shear Modulus (GPa) = 12.59274 22.75717 17.67495
#
# Velocity S-wave (km/s) = 2.54830 3.42571 3.01905
# Velocity P-wave (km/s) = 3.27589 5.10981 4.29194
#
# Compressibility (1/GPa) = 0.24876389
#
# Stress axis : x y z
#
# Youngs Moduli (GPa) = 91.53223 12.76977 13.08143
#
# Poissons Ratio (x) = 0.04579 0.03607
# Poissons Ratio (y) = 0.32823 -0.62641
# Poissons Ratio (z) = 0.25240 -0.61149
#
# Static dielectric constant tensor:
#      x y z
#    x 1.732740 0.000000 0.006480 
#    y 0.000000 1.691390 0.000000 
#    z 0.006480 0.000000 1.680850 
# 
# From -- ./inp_files/313568.got.cif
#   From: 2010.05.17/outbox.cif.g08.bks.cpg/sg15_157_cif.got.tgz:313568.got - 2010.06.03 18:47:42.
