data_PCOD9264072
_publ_section_title
;
Structure prediction by ZEFSAII (Michael W. Deem and Ramdas Pophale) SiO2 
 PCOD9264072
Probable space group: C 2/C
;
_chemical_formula_sum "Si O2"
_cell_formula_units_Z 48
_cell_length_a 14.127632
_cell_length_b 31.545312
_cell_length_c 7.537133
_cell_angle_alpha 90.000000
_cell_angle_beta 136.097942
_cell_angle_gamma 90.000000
_cell_volume 2329.225692
_symmetry_space_group_name_H-M "C 2/C"
_symmetry_group_IT_number 15
_symmetry_cell_setting 'monoclinic'
loop_
_space_group_symop_operation_xyz
x,y,z
-x,y,1/2-z
-x,-y,-z
x,-y,1/2+z
1/2+x,1/2+y,z
1/2-x,1/2+y,1/2-z
1/2-x,1/2-y,-z
1/2+x,1/2-y,1/2+z
loop_
_atom_site_type_symbol
_atom_site_label
_atom_site_fract_x
_atom_site_fract_y
_atom_site_fract_z
Si Si1 0.964068 0.677329 0.499000
Si Si2 0.536792 0.951836 0.505961
Si Si3 0.178263 0.385323 0.208584
Si Si4 0.104833 0.234048 0.731442
Si Si5 0.953680 0.859502 0.481289
Si Si6 0.242001 0.112016 0.262316
O O1 0.944890 0.726868 0.454616
O O2 0.826530 0.650287 0.284243
O O3 0.000000 0.667867 0.750000
O O4 0.091006 0.657783 0.562558
O O5 0.500000 0.946415 0.250000
O O6 0.429903 0.922448 0.466392
O O7 0.688595 0.931020 0.721574
O O8 0.500000 0.000000 0.500000
O O9 0.315911 0.386984 0.282657
O O10 0.223614 0.387383 0.478374
O O11 0.093118 0.188371 0.625245
O O12 0.000000 0.231685 0.750000
O O13 0.250000 0.250000 0.000000
O O14 0.000000 0.859680 0.750000
O O15 0.081610 0.877180 0.541723
#
# Coordination Sequence:
#
# PCOD9264072 Si02
#       6
#     8   8   8   8   8   8
#     4   9  17  34  54  70  91 134 184 213 238 292
#     4   9  17  33  54  78 102 126 160 205 254 307
#     4   8  16  31  54  76  95 124 171 216 246 286
#     4  12  24  34  46  73 110 139 165 214 268 303
#     4  10  19  35  55  73  95 136 182 214 247 298
#     4   8  16  31  54  76  96 125 170 218 247 282
#
# _framework density 20.607706
#
# number of rings (size 3 to 8) (size 9 to 14) (size 15 to 20)
#    0.000    2.667    0.000    4.500    0.000    0.000 
#    0.000   15.833    0.000    0.000    0.000    0.000 
#    0.000    0.000    0.000    0.000    0.000    0.000 
#
# Total GULP energy -133816.401754 kJ/mol
# GULP energy per Si atom -5575.683406 kJ/mol
# Density = 2.056080 g / cm^3
# Si number density = 20.607706 Si / 1000 Ang^3
#
#
#
# Elastic Constant Matrix: (Units=GPa)
#
#
# Indices 1 2 3 4 5 6 
#
# 1 108.6848 44.9351 49.7151 0.0000 52.4894 0.0000
# 2 44.9351 132.0270 34.8657 0.0000 35.3311 0.0000
# 3 49.7151 34.8657 84.8224 0.0000 28.1404 0.0000
# 4 0.0000 0.0000 0.0000 12.5083 0.0000 -3.7377
# 5 52.4894 35.3311 28.1404 0.0000 44.0047 0.0000
# 6 0.0000 0.0000 0.0000 -3.7377 0.0000 27.7058
#
#
#
# Elastic Compliance Matrix: (Units=1/GPa)
#
#
# Indices 1 2 3 4 5 6 
#
# 1 0.023712 0.000041 -0.005738 0.000000 -0.024648 0.000000
# 2 0.000041 0.009861 -0.001821 0.000000 -0.006802 0.000000
# 3 -0.005738 -0.001821 0.016685 0.000000 -0.002364 0.000000
# 4 0.000000 0.000000 0.000000 0.083305 0.000000 0.011238
# 5 -0.024648 -0.006802 -0.002364 0.000000 0.059098 0.000000
# 6 0.000000 0.000000 0.000000 0.011238 0.000000 0.037610
#
#
# Mechanical properties :
#
#
# Convention : Reuss Voigt Hill
#
# Bulk Modulus (GPa) = 28.39027 64.95178 46.67102
# Shear Modulus (GPa) = 19.45161 29.91165 24.68163
#
# Velocity S-wave (km/s) = 3.07563 3.81396 3.46452
# Velocity P-wave (km/s) = 5.13995 7.14015 6.22096
#
# Compressibility (1/GPa) = 0.03522333
#
# Stress axis : x y z
#
# Youngs Moduli (GPa) = 42.17191 101.40560 59.93453
#
# Poissons Ratio (x) = -0.00412 0.34388
# Poissons Ratio (y) = -0.00171 0.10913
# Poissons Ratio (z) = 0.24197 0.18463
#
# Static dielectric constant tensor:
#      x y z
#    x 1.757090 0.000000 -0.010340 
#    y 0.000000 1.786860 0.000000 
#    z -0.010340 0.000000 1.791160 
# 
# From -- ./inp_files/44400.got.cif
#   From: 2010.05.17/outbox.cif.g08.bks.cpg/sg15_23_cif.got.tgz:44400.got - 2010.06.03 18:47:42.
