data_PCOD9264593
_publ_section_title
;
Structure prediction by ZEFSAII (Michael W. Deem and Ramdas Pophale) SiO2 
 PCOD9264593
Probable space group: C 2/C
;
_chemical_formula_sum "Si O2"
_cell_formula_units_Z 56
_cell_length_a 9.052262
_cell_length_b 17.852095
_cell_length_c 21.684364
_cell_angle_alpha 90.000000
_cell_angle_beta 49.885797
_cell_angle_gamma 90.000000
_cell_volume 2679.903321
_symmetry_space_group_name_H-M "C 2/C"
_symmetry_group_IT_number 15
_symmetry_cell_setting 'monoclinic'
loop_
_space_group_symop_operation_xyz
x,y,z
-x,y,1/2-z
-x,-y,-z
x,-y,1/2+z
1/2+x,1/2+y,z
1/2-x,1/2+y,1/2-z
1/2-x,1/2-y,-z
1/2+x,1/2-y,1/2+z
loop_
_atom_site_type_symbol
_atom_site_label
_atom_site_fract_x
_atom_site_fract_y
_atom_site_fract_z
Si Si1 0.414764 0.430300 0.190907
Si Si2 0.016645 0.945691 0.912032
Si Si3 0.340828 0.152798 0.837082
Si Si4 0.792103 0.345330 0.054010
Si Si5 0.086769 0.436756 0.371603
Si Si6 0.078316 0.214478 0.007091
Si Si7 0.701753 0.057280 0.060022
O O1 0.476106 0.515106 0.156530
O O2 0.257613 0.408434 0.180455
O O3 0.578142 0.366934 0.135832
O O4 0.298868 0.429810 0.285566
O O5 0.224815 0.943858 0.889966
O O6 0.957128 0.861807 0.945330
O O7 0.860336 0.001480 0.986143
O O8 0.500000 0.191988 0.750000
O O9 0.451778 0.114163 0.864187
O O10 0.169937 0.198644 0.915121
O O11 0.917938 0.406873 0.057805
O O12 0.793160 0.366896 0.981456
O O13 0.891895 0.267835 0.047331
O O14 0.005146 0.519650 0.389675
O O15 0.250000 0.250000 0.000000
#
# Coordination Sequence:
#
# PCOD9264593 Si02
#       7
#     8   8   8   8   8   8   8
#     4  10  22  38  64  90 119 159 217 265 302 360
#     4  10  19  36  60  90 117 154 210 257 297 365
#     4  10  20  37  63  86 113 161 210 250 302 378
#     4  11  23  35  59  94 125 161 202 256 314 376
#     4  11  19  38  63  86 120 158 207 255 317 360
#     4  12  22  39  60  87 126 169 203 246 323 384
#     4  10  19  35  60  89 115 153 209 261 298 361
#
# _framework density 20.896277999999999
#
# number of rings (size 3 to 8) (size 9 to 14) (size 15 to 20)
#    0.000    1.429    4.286    2.571    0.000    3.429 
#    0.000    1.429    6.286    0.000    0.000    0.000 
#    0.000    0.000    0.000    0.000    0.000    0.000 
#
# Total GULP energy -155954.755694 kJ/mol
# GULP energy per Si atom -5569.812703 kJ/mol
# Density = 2.084872 g / cm^3
# Si number density = 20.896278 Si / 1000 Ang^3
#
#
#
# Elastic Constant Matrix: (Units=GPa)
#
#
# Indices 1 2 3 4 5 6 
#
# 1 64.8520 22.4043 11.5181 -0.0002 -5.7570 0.0001
# 2 22.4043 86.1129 23.1627 -0.0004 -3.5157 0.0003
# 3 11.5181 23.1627 78.8308 -0.0007 -3.1389 0.0002
# 4 -0.0002 -0.0004 -0.0007 12.6006 0.0004 -1.0591
# 5 -5.7570 -3.5157 -3.1389 0.0004 32.3456 -0.0002
# 6 0.0001 0.0003 0.0002 -1.0591 -0.0002 39.8004
#
#
#
# Elastic Compliance Matrix: (Units=1/GPa)
#
#
# Indices 1 2 3 4 5 6 
#
# 1 0.017263 -0.004058 -0.001230 0.000000 0.002512 0.000000
# 2 -0.004058 0.013596 -0.003385 0.000000 0.000427 0.000000
# 3 -0.001230 -0.003385 0.013890 0.000001 0.000761 0.000000
# 4 0.000000 0.000000 0.000001 0.079539 -0.000001 0.002117
# 5 0.002512 0.000427 0.000761 -0.000001 0.031483 0.000000
# 6 0.000000 0.000000 0.000000 0.002117 0.000000 0.025182
#
#
# Mechanical properties :
#
#
# Convention : Reuss Voigt Hill
#
# Bulk Modulus (GPa) = 36.49176 38.21844 37.35510
# Shear Modulus (GPa) = 24.10400 28.46337 26.28368
#
# Velocity S-wave (km/s) = 3.40002 3.69470 3.55042
# Velocity P-wave (km/s) = 5.73713 6.04404 5.89258
#
# Compressibility (1/GPa) = 0.02740345
#
# Stress axis : x y z
#
# Youngs Moduli (GPa) = 57.92703 73.54882 71.99405
#
# Poissons Ratio (x) = 0.29846 0.08855
# Poissons Ratio (y) = 0.23507 0.24371
# Poissons Ratio (z) = 0.07125 0.24897
#
# Static dielectric constant tensor:
#      x y z
#    x 1.857270 0.000000 -0.003120 
#    y 0.000000 1.775620 0.000000 
#    z -0.003120 0.000000 1.809810 
# 
# From -- ./inp_files/265471.got.cif
#   From: 2010.05.17/outbox.cif.g08.bks.cpg/sg15_133_cif.got.tgz:265471.got - 2010.06.03 18:47:42.
