data_PCOD9264969
_publ_section_title
;
Structure prediction by ZEFSAII (Michael W. Deem and Ramdas Pophale) SiO2 
 PCOD9264969
Probable space group: C 2/C
;
_chemical_formula_sum "Si O2"
_cell_formula_units_Z 60
_cell_length_a 14.687305
_cell_length_b 21.643895
_cell_length_c 10.616903
_cell_angle_alpha 90.000000
_cell_angle_beta 81.535855
_cell_angle_gamma 90.000000
_cell_volume 3338.252396
_symmetry_space_group_name_H-M "C 2/C"
_symmetry_group_IT_number 15
_symmetry_cell_setting 'monoclinic'
loop_
_space_group_symop_operation_xyz
x,y,z
-x,y,1/2-z
-x,-y,-z
x,-y,1/2+z
1/2+x,1/2+y,z
1/2-x,1/2+y,1/2-z
1/2-x,1/2-y,-z
1/2+x,1/2-y,1/2+z
loop_
_atom_site_type_symbol
_atom_site_label
_atom_site_fract_x
_atom_site_fract_y
_atom_site_fract_z
Si Si1 0.988035 0.381345 0.535105
Si Si2 0.500000 0.982963 0.750000
Si Si3 0.189447 0.348997 0.531473
Si Si4 0.711384 0.521515 0.440255
Si Si5 0.144403 0.423818 0.153347
Si Si6 0.790658 0.841359 0.261984
Si Si7 0.391479 0.531024 0.777338
Si Si8 0.899627 0.275153 0.721141
O O1 0.002209 0.438306 0.628744
O O2 0.932494 0.398740 0.423729
O O3 0.929744 0.328270 0.617848
O O4 0.090982 0.359748 0.485193
O O5 0.410487 0.026203 0.751486
O O6 0.233744 0.413806 0.567440
O O7 0.258752 0.324248 0.410732
O O8 0.159906 0.308028 0.656728
O O9 0.783122 0.465516 0.437324
O O10 0.645760 0.518665 0.574824
O O11 0.658501 0.510218 0.319448
O O12 0.202301 0.370957 0.210668
O O13 0.861930 0.898299 0.254641
O O14 0.839085 0.782655 0.188933
O O15 0.500000 0.522675 0.750000
O O16 0.000000 0.252255 0.750000
#
# Coordination Sequence:
#
# PCOD9264969 Si02
#       8
#     8   4   8   8   8   8   8   8
#     4  11  21  34  58  83 120 148 183 235 291 344
#     4  12  20  36  58  88 124 144 188 230 300 350
#     4  10  19  36  55  86 105 146 190 232 283 332
#     4  10  21  33  57  82 115 139 189 235 292 353
#     4  11  23  32  54  88 118 153 175 235 294 353
#     4  10  22  36  54  80 112 148 194 232 277 337
#     4  10  21  37  55  80 109 147 186 240 291 339
#     4  10  20  37  58  79 107 151 197 233 272 336
#
# _framework density 17.973476000000002
#
# number of rings (size 3 to 8) (size 9 to 14) (size 15 to 20)
#    0.000    1.600    3.333    2.400    7.467    0.533 
#    0.000    0.000    0.000    0.000    1.733    0.000 
#    0.000    0.000    0.000    0.000    0.000    0.000 
#
# Total GULP energy -167332.120240 kJ/mol
# GULP energy per Si atom -5577.737341 kJ/mol
# Density = 1.793257 g / cm^3
# Si number density = 17.973476 Si / 1000 Ang^3
#
#
#
# Elastic Constant Matrix: (Units=GPa)
#
#
# Indices 1 2 3 4 5 6 
#
# 1 58.2277 41.0491 19.9329 0.0000 -21.7733 0.0000
# 2 41.0491 80.8529 32.7304 0.0000 -12.9294 0.0000
# 3 19.9329 32.7304 50.4280 0.0000 -12.0224 0.0000
# 4 0.0000 0.0000 0.0000 11.4029 0.0000 -0.3768
# 5 -21.7733 -12.9294 -12.0224 0.0000 22.5557 0.0000
# 6 0.0000 0.0000 0.0000 -0.3768 0.0000 30.3096
#
#
#
# Elastic Compliance Matrix: (Units=1/GPa)
#
#
# Indices 1 2 3 4 5 6 
#
# 1 0.038444 -0.015622 0.001897 0.000000 0.029167 0.000000
# 2 -0.015622 0.023508 -0.010844 0.000000 -0.007384 0.000000
# 3 0.001897 -0.010844 0.028723 0.000000 0.010925 0.000000
# 4 0.000000 0.000000 0.000000 0.087733 0.000000 0.001091
# 5 0.029167 -0.007384 0.010925 0.000000 0.074080 0.000000
# 6 0.000000 0.000000 0.000000 0.001091 0.000000 0.033006
#
#
# Mechanical properties :
#
#
# Convention : Reuss Voigt Hill
#
# Bulk Modulus (GPa) = 24.07408 41.88149 32.97779
# Shear Modulus (GPa) = 14.34811 19.24005 16.79408
#
# Velocity S-wave (km/s) = 2.82847 3.27535 3.06008
# Velocity P-wave (km/s) = 4.90819 6.13648 5.55638
#
# Compressibility (1/GPa) = 0.04153845
#
# Stress axis : x y z
#
# Youngs Moduli (GPa) = 26.01184 42.53844 34.81522
#
# Poissons Ratio (x) = 0.66453 -0.06605
# Poissons Ratio (y) = 0.40635 0.37752
# Poissons Ratio (z) = -0.04935 0.46127
#
# Static dielectric constant tensor:
#      x y z
#    x 1.603810 0.000000 -0.010150 
#    y 0.000000 1.630460 0.000000 
#    z -0.010150 0.000000 1.627840 
# 
# From -- ./inp_files/98301.got.cif
#   From: 2010.05.17/outbox.cif.g08.bks.cpg/sg15_50_cif.got.tgz:98301.got - 2010.06.03 18:47:42.
