data_PCOD9264788
_publ_section_title
;
Structure prediction by ZEFSAII (Michael W. Deem and Ramdas Pophale) SiO2 
 PCOD9264788
Probable space group: C 2/C
;
_chemical_formula_sum "Si O2"
_cell_formula_units_Z 64
_cell_length_a 19.505503
_cell_length_b 7.132661
_cell_length_c 28.760299
_cell_angle_alpha 90.000000
_cell_angle_beta 143.416479
_cell_angle_gamma 90.000000
_cell_volume 2384.756194
_symmetry_space_group_name_H-M "C 2/C"
_symmetry_group_IT_number 15
_symmetry_cell_setting 'monoclinic'
loop_
_space_group_symop_operation_xyz
x,y,z
-x,y,1/2-z
-x,-y,-z
x,-y,1/2+z
1/2+x,1/2+y,z
1/2-x,1/2+y,1/2-z
1/2-x,1/2-y,-z
1/2+x,1/2-y,1/2+z
loop_
_atom_site_type_symbol
_atom_site_label
_atom_site_fract_x
_atom_site_fract_y
_atom_site_fract_z
Si Si1 0.810368 0.637121 0.134758
Si Si2 0.223338 0.042690 0.406820
Si Si3 0.898567 0.416328 0.582946
Si Si4 0.891692 0.396122 0.917482
Si Si5 0.290084 0.588476 0.745746
Si Si6 0.360784 0.996002 0.257445
Si Si7 0.049510 0.923175 0.480197
Si Si8 0.960044 0.032474 0.120243
O O1 0.836252 0.558548 0.098119
O O2 0.864352 0.505274 0.203643
O O3 0.839130 0.860173 0.151213
O O4 0.673868 0.644456 0.062968
O O5 0.297723 0.149396 0.407570
O O6 0.121447 0.121174 0.384884
O O7 0.317780 0.971649 0.496270
O O8 0.016045 0.532634 0.651829
O O9 0.923492 0.191064 0.597324
O O10 0.817583 0.522736 0.842851
O O11 0.957884 0.242601 0.921973
O O12 0.000000 0.500000 0.000000
O O13 0.327460 0.789851 0.749433
O O14 0.242214 0.605955 0.772244
O O15 0.402759 0.460599 0.798395
O O16 0.058272 0.075935 0.444112
O O17 0.000000 0.000000 0.500000
#
# Coordination Sequence:
#
# PCOD9264788 Si02
#       8
#     8   8   8   8   8   8   8   8
#     4  11  19  36  60  93 119 160 214 264 316 384
#     4  11  19  37  65  91 126 161 218 271 320 373
#     4  10  19  35  63  91 126 157 209 277 317 364
#     4  12  22  39  62  93 124 166 213 265 324 380
#     4  11  23  38  60  88 129 162 210 263 319 380
#     4  11  22  37  59  94 124 163 213 265 324 386
#     4  12  23  39  63  91 129 168 209 258 324 393
#     4  10  20  37  59  90 123 164 207 260 320 372
#
# _framework density 26.837126000000001
#
# number of rings (size 3 to 8) (size 9 to 14) (size 15 to 20)
#    0.000    1.000    5.000    4.125    0.000    0.500 
#    0.000    0.625    2.750    0.000    0.000    0.000 
#    0.000    0.000    0.000    0.000    0.000    0.000 
#
# Total GULP energy -179085.632616 kJ/mol
# GULP energy per Si atom -5596.426019 kJ/mol
# Density = 2.677604 g / cm^3
# Si number density = 26.837126 Si / 1000 Ang^3
#
#
#
# Elastic Constant Matrix: (Units=GPa)
#
#
# Indices 1 2 3 4 5 6 
#
# 1 212.5753 7.9836 9.6195 -0.0001 3.8892 -0.0003
# 2 7.9836 41.7384 9.2325 -0.0002 9.1551 0.0001
# 3 9.6195 9.2325 111.8441 0.0000 11.7885 0.0000
# 4 -0.0001 -0.0002 0.0000 28.1929 0.0000 2.6967
# 5 3.8892 9.1551 11.7885 0.0000 56.9766 -0.0002
# 6 -0.0003 0.0001 0.0000 2.6967 -0.0002 26.3121
#
#
#
# Elastic Compliance Matrix: (Units=1/GPa)
#
#
# Indices 1 2 3 4 5 6 
#
# 1 0.004752 -0.000808 -0.000329 0.000000 -0.000126 0.000000
# 2 -0.000808 0.025279 -0.001630 0.000000 -0.003669 0.000000
# 3 -0.000329 -0.001630 0.009276 0.000000 -0.001635 0.000000
# 4 0.000000 0.000000 0.000000 0.035821 0.000000 -0.003671
# 5 -0.000126 -0.003669 -0.001635 0.000000 0.018488 0.000000
# 6 0.000000 0.000000 0.000000 -0.003671 0.000000 0.038382
#
#
# Mechanical properties :
#
#
# Convention : Reuss Voigt Hill
#
# Bulk Modulus (GPa) = 29.61053 46.64766 38.12910
# Shear Modulus (GPa) = 33.60457 44.91782 39.26120
#
# Velocity S-wave (km/s) = 3.54244 4.09555 3.82899
# Velocity P-wave (km/s) = 5.27154 6.30747 5.81263
#
# Compressibility (1/GPa) = 0.03377177
#
# Stress axis : x y z
#
# Youngs Moduli (GPa) = 210.44818 39.55870 107.80299
#
# Poissons Ratio (x) = 0.03198 0.03543
# Poissons Ratio (y) = 0.17014 0.17577
# Poissons Ratio (z) = 0.06916 0.06450
#
# Static dielectric constant tensor:
#      x y z
#    x 2.221810 0.000000 -0.040010 
#    y 0.000000 2.135810 0.000000 
#    z -0.040010 0.000000 2.017430 
# 
# From -- ./inp_files/315737.got.cif
#   From: 2010.05.17/outbox.cif.g08.bks.cpg/sg15_158_cif.got.tgz:315737.got - 2010.06.03 18:47:42.
