data_PCOD9264931
_publ_section_title
;
Structure prediction by ZEFSAII (Michael W. Deem and Ramdas Pophale) SiO2 
 PCOD9264931
Probable space group: C 2/C
;
_chemical_formula_sum "Si O2"
_cell_formula_units_Z 64
_cell_length_a 21.913216
_cell_length_b 9.108189
_cell_length_c 27.304059
_cell_angle_alpha 90.000000
_cell_angle_beta 146.907288
_cell_angle_gamma 90.000000
_cell_volume 2975.461603
_symmetry_space_group_name_H-M "C 2/C"
_symmetry_group_IT_number 15
_symmetry_cell_setting 'monoclinic'
loop_
_space_group_symop_operation_xyz
x,y,z
-x,y,1/2-z
-x,-y,-z
x,-y,1/2+z
1/2+x,1/2+y,z
1/2-x,1/2+y,1/2-z
1/2-x,1/2-y,-z
1/2+x,1/2-y,1/2+z
loop_
_atom_site_type_symbol
_atom_site_label
_atom_site_fract_x
_atom_site_fract_y
_atom_site_fract_z
Si Si1 0.783628 0.011605 0.297299
Si Si2 0.258238 0.463345 0.165908
Si Si3 0.290126 0.419727 0.990849
Si Si4 0.919373 0.620795 0.102202
Si Si5 0.037769 0.321279 0.976717
Si Si6 0.675019 0.754740 0.612977
Si Si7 0.540676 0.528477 0.457661
Si Si8 0.346347 0.170568 0.201496
O O1 0.716201 0.106771 0.291814
O O2 0.912312 0.067980 0.380487
O O3 0.754981 0.998649 0.221176
O O4 0.773195 0.843241 0.309214
O O5 0.255032 0.627272 0.141498
O O6 0.352246 0.347267 0.213385
O O7 0.149391 0.374296 0.076744
O O8 0.188030 0.475544 0.955481
O O9 0.222950 0.372511 0.894581
O O10 0.357566 0.280494 0.058579
O O11 0.391602 0.530199 0.047548
O O12 0.965919 0.601958 0.078664
O O13 0.025914 0.614583 0.209292
O O14 0.929614 0.345897 0.936352
O O15 0.041606 0.145126 0.971356
O O16 0.618479 0.630063 0.542511
#
# Coordination Sequence:
#
# PCOD9264931 Si02
#       8
#     8   8   8   8   8   8   8   8
#     4  11  22  36  56  84 121 161 198 236 304 383
#     4  12  21  32  53  85 121 149 188 248 299 355
#     4  10  20  38  62  88 113 151 213 250 294 354
#     4  10  21  36  61  92 112 152 205 267 293 337
#     4  10  19  36  54  82 119 150 198 245 295 358
#     4  11  21  32  55  82 119 160 182 239 308 368
#     4  10  19  38  59  80 116 162 195 240 302 374
#     4  12  21  38  59  89 122 154 201 251 304 357
#
# _framework density 21.509267999999999
#
# number of rings (size 3 to 8) (size 9 to 14) (size 15 to 20)
#    0.000    1.250    3.750    6.750    0.000    0.000 
#    0.000    0.000    0.000    0.750    6.500    0.000 
#    0.000    0.000    0.000    0.000    0.000    0.000 
#
# Total GULP energy -178244.635671 kJ/mol
# GULP energy per Si atom -5570.144865 kJ/mol
# Density = 2.146031 g / cm^3
# Si number density = 21.509268 Si / 1000 Ang^3
#
#
#
# Elastic Constant Matrix: (Units=GPa)
#
#
# Indices 1 2 3 4 5 6 
#
# 1 54.4608 3.1035 -4.0266 0.0000 13.6539 0.0000
# 2 3.1035 35.0907 0.6023 0.0000 2.3164 0.0000
# 3 -4.0266 0.6023 72.1669 0.0000 1.5151 0.0000
# 4 0.0000 0.0000 0.0000 14.8419 0.0000 -0.3170
# 5 13.6539 2.3164 1.5151 0.0000 38.4704 0.0000
# 6 0.0000 0.0000 0.0000 -0.3170 0.0000 9.8157
#
#
#
# Elastic Compliance Matrix: (Units=1/GPa)
#
#
# Indices 1 2 3 4 5 6 
#
# 1 0.020337 -0.001346 0.001297 0.000000 -0.007188 0.000000
# 2 -0.001346 0.028703 -0.000289 0.000000 -0.001239 0.000000
# 3 0.001297 -0.000289 0.013952 0.000000 -0.000992 0.000000
# 4 0.000000 0.000000 0.000000 0.067424 0.000000 0.002177
# 5 -0.007188 -0.001239 -0.000992 0.000000 0.028659 0.000000
# 6 0.000000 0.000000 0.000000 0.002177 0.000000 0.101948
#
#
# Mechanical properties :
#
#
# Convention : Reuss Voigt Hill
#
# Bulk Modulus (GPa) = 16.04731 17.89744 16.97238
# Shear Modulus (GPa) = 17.70091 23.42819 20.56455
#
# Velocity S-wave (km/s) = 2.87181 3.30390 3.09541
# Velocity P-wave (km/s) = 4.29805 4.78469 4.54788
#
# Compressibility (1/GPa) = 0.06231575
#
# Stress axis : x y z
#
# Youngs Moduli (GPa) = 49.17262 34.83911 71.67243
#
# Poissons Ratio (x) = 0.04691 -0.09295
# Poissons Ratio (y) = 0.06621 0.02069
# Poissons Ratio (z) = -0.06377 0.01006
#
# Static dielectric constant tensor:
#      x y z
#    x 1.895580 0.000000 -0.021950 
#    y 0.000000 1.851030 0.000000 
#    z -0.021950 0.000000 1.848810 
# 
# From -- ./inp_files/318640.got.cif
#   From: 2010.05.17/outbox.cif.g08.bks.cpg/sg15_160_cif.got.tgz:318640.got - 2010.06.03 18:47:42.
