data_PCOD9264617
_publ_section_title
;
Structure prediction by ZEFSAII (Michael W. Deem and Ramdas Pophale) SiO2 
 PCOD9264617
Probable space group: C 2/C
;
_chemical_formula_sum "Si O2"
_cell_formula_units_Z 64
_cell_length_a 12.798612
_cell_length_b 15.368083
_cell_length_c 18.829964
_cell_angle_alpha 90.000000
_cell_angle_beta 47.896246
_cell_angle_gamma 90.000000
_cell_volume 2747.869556
_symmetry_space_group_name_H-M "C 2/C"
_symmetry_group_IT_number 15
_symmetry_cell_setting 'monoclinic'
loop_
_space_group_symop_operation_xyz
x,y,z
-x,y,1/2-z
-x,-y,-z
x,-y,1/2+z
1/2+x,1/2+y,z
1/2-x,1/2+y,1/2-z
1/2-x,1/2-y,-z
1/2+x,1/2-y,1/2+z
loop_
_atom_site_type_symbol
_atom_site_label
_atom_site_fract_x
_atom_site_fract_y
_atom_site_fract_z
Si Si1 0.498965 0.960373 0.421084
Si Si2 0.495617 0.374786 0.171072
Si Si3 0.472634 0.606192 0.446528
Si Si4 0.290956 0.517470 0.245245
Si Si5 0.143869 0.852191 0.656412
Si Si6 0.958847 0.707436 0.013355
Si Si7 0.766247 0.964304 0.534443
Si Si8 0.388169 0.802428 0.912783
O O1 0.511685 0.856440 0.426833
O O2 0.500000 0.000000 0.500000
O O3 0.624952 0.004329 0.320139
O O4 0.351159 0.980423 0.452722
O O5 0.500000 0.401912 0.250000
O O6 0.355696 0.421043 0.207939
O O7 0.624354 0.418347 0.069871
O O8 0.508554 0.271151 0.164300
O O9 0.625791 0.574363 0.350383
O O10 0.393265 0.628086 0.408343
O O11 0.491062 0.691447 0.485734
O O12 0.369704 0.532410 0.526344
O O13 0.330396 0.564563 0.302858
O O14 0.290197 0.801375 0.594654
O O15 0.000000 0.808249 0.750000
O O16 0.034085 0.671786 0.049793
O O17 0.671189 0.883119 0.605622
O O18 0.250000 0.750000 0.000000
#
# Coordination Sequence:
#
# PCOD9264617 Si02
#       8
#     8   8   8   8   8   8   8   8
#     4  12  19  33  61  92 123 156 211 265 316 373
#     4  10  20  37  62  85 112 156 214 261 317 360
#     4  10  21  38  63  93 126 169 203 260 341 397
#     4  10  20  37  60  93 124 157 213 277 315 380
#     4  10  19  35  60  93 128 156 204 269 324 385
#     4  12  23  38  62  98 131 167 213 267 339 398
#     4  10  19  38  60  86 121 163 206 253 314 386
#     4  10  23  40  59  89 121 163 216 268 308 383
#
# _framework density 23.290769999999998
#
# number of rings (size 3 to 8) (size 9 to 14) (size 15 to 20)
#    0.000    1.500    3.750    3.000    1.750    0.000 
#    6.750    5.625    0.000    0.750    0.000    0.000 
#    0.000    0.000    0.000    0.000    0.000    0.000 
#
# Total GULP energy -178595.245147 kJ/mol
# GULP energy per Si atom -5581.101411 kJ/mol
# Density = 2.323776 g / cm^3
# Si number density = 23.290770 Si / 1000 Ang^3
#
#
#
# Elastic Constant Matrix: (Units=GPa)
#
#
# Indices 1 2 3 4 5 6 
#
# 1 97.4689 12.2837 35.4792 0.0000 -23.1134 0.0000
# 2 12.2837 134.7411 31.7273 0.0000 -4.8703 0.0000
# 3 35.4792 31.7273 79.0299 0.0000 -34.0755 0.0000
# 4 0.0000 0.0000 0.0000 18.1936 0.0000 -8.3886
# 5 -23.1134 -4.8703 -34.0755 0.0000 37.7073 0.0000
# 6 0.0000 0.0000 0.0000 -8.3886 0.0000 32.4868
#
#
#
# Elastic Compliance Matrix: (Units=1/GPa)
#
#
# Indices 1 2 3 4 5 6 
#
# 1 0.012678 -0.000110 -0.003773 0.000000 0.004348 0.000000
# 2 -0.000110 0.008430 -0.004743 0.000000 -0.003264 0.000000
# 3 -0.003773 -0.004743 0.024559 0.000000 0.019269 0.000000
# 4 0.000000 0.000000 0.000000 0.062393 0.000000 0.016111
# 5 0.004348 -0.003264 0.019269 0.000000 0.046176 0.000000
# 6 0.000000 0.000000 0.000000 0.016111 0.000000 0.034942
#
#
# Mechanical properties :
#
#
# Convention : Reuss Voigt Hill
#
# Bulk Modulus (GPa) = 35.19090 52.24670 43.71880
# Shear Modulus (GPa) = 23.15876 33.12751 28.14314
#
# Velocity S-wave (km/s) = 3.15672 3.77549 3.47989
# Velocity P-wave (km/s) = 5.33186 6.44103 5.91251
#
# Compressibility (1/GPa) = 0.02841644
#
# Stress axis : x y z
#
# Youngs Moduli (GPa) = 78.87787 118.61816 40.71797
#
# Poissons Ratio (x) = 0.01308 0.15362
# Poissons Ratio (y) = 0.00870 0.19311
# Poissons Ratio (z) = 0.29758 0.56255
#
# Static dielectric constant tensor:
#      x y z
#    x 1.936150 0.000000 0.067730 
#    y 0.000000 2.303290 0.000000 
#    z 0.067730 0.000000 1.912570 
# 
# From -- ./inp_files/274332.got.cif
#   From: 2010.05.17/outbox.cif.g08.bks.cpg/sg15_138_cif.got.tgz:274332.got - 2010.06.03 18:47:42.
