data_PCOD9264585
_publ_section_title
;
Structure prediction by ZEFSAII (Michael W. Deem and Ramdas Pophale) SiO2 
 PCOD9264585
Probable space group: C 2/C
;
_chemical_formula_sum "Si O2"
_cell_formula_units_Z 48
_cell_length_a 8.975178
_cell_length_b 16.396343
_cell_length_c 15.100826
_cell_angle_alpha 90.000000
_cell_angle_beta 61.711553
_cell_angle_gamma 90.000000
_cell_volume 1956.843523
_symmetry_space_group_name_H-M "C 2/C"
_symmetry_group_IT_number 15
_symmetry_cell_setting 'monoclinic'
loop_
_space_group_symop_operation_xyz
x,y,z
-x,y,1/2-z
-x,-y,-z
x,-y,1/2+z
1/2+x,1/2+y,z
1/2-x,1/2+y,1/2-z
1/2-x,1/2-y,-z
1/2+x,1/2-y,1/2+z
loop_
_atom_site_type_symbol
_atom_site_label
_atom_site_fract_x
_atom_site_fract_y
_atom_site_fract_z
Si Si1 0.018524 0.004805 0.135246
Si Si2 0.109770 0.162602 0.809090
Si Si3 0.470390 0.160256 0.625016
Si Si4 0.383781 0.008335 0.445435
Si Si5 0.402026 0.672547 0.368119
Si Si6 0.021421 0.666927 0.420183
O O1 0.996765 0.099200 0.112321
O O2 0.000000 0.009514 0.250000
O O3 0.907072 0.926729 0.141968
O O4 0.196700 0.985496 0.037720
O O5 0.306594 0.172820 0.730798
O O6 0.039699 0.242477 0.877837
O O7 0.000000 0.158111 0.750000
O O8 0.592327 0.238045 0.593554
O O9 0.408458 0.164005 0.540481
O O10 0.567022 0.075820 0.617349
O O11 0.446605 0.092823 0.383006
O O12 0.500000 0.000000 0.500000
O O13 0.500000 0.683343 0.250000
O O14 0.212292 0.644605 0.398620
#
# Coordination Sequence:
#
# PCOD9264585 Si02
#       6
#     8   8   8   8   8   8
#     4  10  20  35  61  86 117 156 200 241 285 360
#     4  11  24  39  60  90 122 158 199 245 297 353
#     4  11  23  38  63  91 121 154 200 250 296 348
#     4  10  19  35  60  88 115 157 198 239 292 356
#     4  11  21  38  64  91 116 154 201 246 294 351
#     4  11  22  39  64  89 118 157 199 243 297 353
#
# _framework density 24.529299999999999
#
# number of rings (size 3 to 8) (size 9 to 14) (size 15 to 20)
#    0.000    1.333    5.000    4.500    2.333    2.667 
#    0.000    1.667    3.667    0.000    0.000    0.000 
#    0.000    0.000    0.000    0.000    0.000    0.000 
#
# Total GULP energy -133855.514405 kJ/mol
# GULP energy per Si atom -5577.313100 kJ/mol
# Density = 2.447347 g / cm^3
# Si number density = 24.529300 Si / 1000 Ang^3
#
#
#
# Elastic Constant Matrix: (Units=GPa)
#
#
# Indices 1 2 3 4 5 6 
#
# 1 38.5659 26.8623 13.4640 0.0000 -12.4016 0.0000
# 2 26.8623 251.8210 48.6249 0.0000 -17.7227 0.0000
# 3 13.4640 48.6249 90.4234 0.0000 -23.2549 0.0000
# 4 0.0000 0.0000 0.0000 29.9148 0.0000 -10.5105
# 5 -12.4016 -17.7227 -23.2549 0.0000 33.4557 0.0000
# 6 0.0000 0.0000 0.0000 -10.5105 0.0000 31.7530
#
#
#
# Elastic Compliance Matrix: (Units=1/GPa)
#
#
# Indices 1 2 3 4 5 6 
#
# 1 0.031034 -0.002476 -0.000814 0.000000 0.009627 0.000000
# 2 -0.002476 0.004648 -0.002111 0.000000 0.000077 0.000000
# 3 -0.000814 -0.002111 0.014552 0.000000 0.008695 0.000000
# 4 0.000000 0.000000 0.000000 0.037827 0.000000 0.012521
# 5 0.009627 0.000077 0.008695 0.000000 0.039543 0.000000
# 6 0.000000 0.000000 0.000000 0.012521 0.000000 0.035638
#
#
# Mechanical properties :
#
#
# Convention : Reuss Voigt Hill
#
# Bulk Modulus (GPa) = 25.35992 62.07919 43.71956
# Shear Modulus (GPa) = 26.71116 38.48197 32.59656
#
# Velocity S-wave (km/s) = 3.30350 3.96513 3.64934
# Velocity P-wave (km/s) = 4.99118 6.80633 5.96817
#
# Compressibility (1/GPa) = 0.03943230
#
# Stress axis : x y z
#
# Youngs Moduli (GPa) = 32.22286 215.13505 68.72110
#
# Poissons Ratio (x) = 0.53263 0.05593
# Poissons Ratio (y) = 0.07978 0.14508
# Poissons Ratio (z) = 0.02622 0.45417
#
# Static dielectric constant tensor:
#      x y z
#    x 2.018760 0.000000 0.073440 
#    y 0.000000 2.114470 0.000000 
#    z 0.073440 0.000000 1.966360 
# 
# From -- ./inp_files/182510.got.cif
#   From: 2010.05.17/outbox.cif.g08.bks.cpg/sg15_92_cif.got.tgz:182510.got - 2010.06.03 18:47:42.
