data_PCOD9264207
_publ_section_title
;
Structure prediction by ZEFSAII (Michael W. Deem and Ramdas Pophale) SiO2 
 PCOD9264207
Probable space group: C 2/C
;
_chemical_formula_sum "Si O2"
_cell_formula_units_Z 48
_cell_length_a 15.295034
_cell_length_b 10.209525
_cell_length_c 30.559078
_cell_angle_alpha 90.000000
_cell_angle_beta 154.302393
_cell_angle_gamma 90.000000
_cell_volume 2069.221528
_symmetry_space_group_name_H-M "C 2/C"
_symmetry_group_IT_number 15
_symmetry_cell_setting 'monoclinic'
loop_
_space_group_symop_operation_xyz
x,y,z
-x,y,1/2-z
-x,-y,-z
x,-y,1/2+z
1/2+x,1/2+y,z
1/2-x,1/2+y,1/2-z
1/2-x,1/2-y,-z
1/2+x,1/2-y,1/2+z
loop_
_atom_site_type_symbol
_atom_site_label
_atom_site_fract_x
_atom_site_fract_y
_atom_site_fract_z
Si Si1 0.758840 0.720855 0.786566
Si Si2 0.189543 0.962618 0.881733
Si Si3 0.275238 0.432607 0.724557
Si Si4 0.111554 0.386982 0.844772
Si Si5 0.825725 0.401971 0.529473
Si Si6 0.944944 0.705629 0.960561
O O1 0.735882 0.575282 0.758602
O O2 0.827714 0.819595 0.781353
O O3 0.548882 0.773388 0.712994
O O4 0.917683 0.719977 0.896721
O O5 0.951622 0.944328 0.769548
O O6 0.300216 0.083878 0.908196
O O7 0.324390 0.836818 0.929956
O O8 0.208805 0.006963 0.942337
O O9 0.048717 0.397566 0.608552
O O10 0.148062 0.455345 0.908702
O O11 0.330072 0.328254 0.930411
O O12 0.000000 0.442605 0.750000
O O13 0.750000 0.250000 0.500000
#
# Coordination Sequence:
#
# PCOD9264207 Si02
#       6
#     8   8   8   8   8   8
#     4  10  20  36  61  90 125 164 208 269 314 379
#     4  11  21  34  61  94 124 159 216 269 317 367
#     4  11  22  39  59 100 125 165 217 267 318 383
#     4   9  18  34  61  91 119 163 217 253 308 382
#     4  11  20  37  61  93 124 166 211 255 318 389
#     4  10  19  35  56  94 122 161 212 266 312 368
#
# _framework density 23.197129
#
# number of rings (size 3 to 8) (size 9 to 14) (size 15 to 20)
#    0.000    1.667    5.000    1.000    0.000    0.667 
#    0.000    0.000    0.000    9.000   43.333    0.000 
#    0.000    0.000    0.000    0.000    0.000    0.000 
#
# Total GULP energy -133845.249000 kJ/mol
# GULP energy per Si atom -5576.885375 kJ/mol
# Density = 2.314433 g / cm^3
# Si number density = 23.197129 Si / 1000 Ang^3
#
#
#
# Elastic Constant Matrix: (Units=GPa)
#
#
# Indices 1 2 3 4 5 6 
#
# 1 113.6958 40.1950 28.3424 -0.0001 -4.5453 -0.0002
# 2 40.1950 48.5852 1.0247 0.0003 6.9758 0.0002
# 3 28.3424 1.0247 64.9455 -0.0059 12.3384 -0.0066
# 4 -0.0001 0.0003 -0.0059 65.5652 0.0002 59.2487
# 5 -4.5453 6.9758 12.3384 0.0002 45.2500 0.0003
# 6 -0.0002 0.0002 -0.0066 59.2487 0.0003 113.5555
#
#
#
# Elastic Compliance Matrix: (Units=1/GPa)
#
#
# Indices 1 2 3 4 5 6 
#
# 1 0.015851 -0.013788 -0.007811 -0.000001 0.005848 0.000000
# 2 -0.013788 0.033048 0.007094 0.000000 -0.008414 0.000000
# 3 -0.007811 0.007094 0.020092 0.000001 -0.007357 0.000000
# 4 -0.000001 0.000000 0.000001 0.028859 -0.000001 -0.015057
# 5 0.005848 -0.008414 -0.007357 -0.000001 0.025990 0.000000
# 6 0.000000 0.000000 0.000000 -0.015057 0.000000 0.016663
#
#
# Mechanical properties :
#
#
# Convention : Reuss Voigt Hill
#
# Bulk Modulus (GPa) = 25.01160 40.70564 32.85862
# Shear Modulus (GPa) = 27.34646 55.38511 41.36578
#
# Velocity S-wave (km/s) = 3.43720 4.89159 4.22741
# Velocity P-wave (km/s) = 5.15345 7.03487 6.16634
#
# Compressibility (1/GPa) = 0.03998144
#
# Stress axis : x y z
#
# Youngs Moduli (GPa) = 63.08779 30.25881 49.77127
#
# Poissons Ratio (x) = 0.41722 0.38875
# Poissons Ratio (y) = 0.86989 -0.35310
# Poissons Ratio (z) = 0.49277 -0.21467
#
# Static dielectric constant tensor:
#      x y z
#    x 1.896290 0.000000 -0.043550 
#    y 0.000000 1.846510 0.000000 
#    z -0.043550 0.000000 1.960810 
# 
# From -- ./inp_files/313631.got.cif
#   From: 2010.05.17/outbox.cif.g08.bks.cpg/sg15_157_cif.got.tgz:313631.got - 2010.06.03 18:47:42.
