data_PCOD9264229
_publ_section_title
;
Structure prediction by ZEFSAII (Michael W. Deem and Ramdas Pophale) SiO2 
 PCOD9264229
Probable space group: C 2/C
;
_chemical_formula_sum "Si O2"
_cell_formula_units_Z 48
_cell_length_a 10.295001
_cell_length_b 25.964075
_cell_length_c 15.122230
_cell_angle_alpha 90.000000
_cell_angle_beta 41.177722
_cell_angle_gamma 90.000000
_cell_volume 2661.355149
_symmetry_space_group_name_H-M "C 2/C"
_symmetry_group_IT_number 15
_symmetry_cell_setting 'monoclinic'
loop_
_space_group_symop_operation_xyz
x,y,z
-x,y,1/2-z
-x,-y,-z
x,-y,1/2+z
1/2+x,1/2+y,z
1/2-x,1/2+y,1/2-z
1/2-x,1/2-y,-z
1/2+x,1/2-y,1/2+z
loop_
_atom_site_type_symbol
_atom_site_label
_atom_site_fract_x
_atom_site_fract_y
_atom_site_fract_z
Si Si1 0.217721 0.612596 0.791199
Si Si2 0.196858 0.285395 0.708069
Si Si3 0.000000 0.964804 0.250000
Si Si4 0.868074 0.140485 0.986839
Si Si5 0.426220 0.808788 0.006510
Si Si6 0.500000 0.050384 0.750000
Si Si7 0.844992 0.982844 0.505565
O O1 0.327064 0.571650 0.799564
O O2 0.403235 0.645924 0.658842
O O3 0.117920 0.584565 0.760049
O O4 0.063388 0.645267 0.927632
O O5 0.306489 0.335432 0.612020
O O6 0.339506 0.238769 0.607046
O O7 0.000000 0.277561 0.750000
O O8 0.114474 0.293178 0.849830
O O9 0.925841 0.997926 0.368765
O O10 0.736994 0.170189 0.980642
O O11 0.826460 0.079260 0.011495
O O12 0.646586 0.012600 0.624480
O O13 0.000000 0.000000 0.500000
#
# Coordination Sequence:
#
# PCOD9264229 Si02
#       7
#     8   8   4   8   8   4   8
#     4  11  20  39  59  84 119 160 198 246 295 357
#     4  10  20  30  56  94 116 149 187 251 307 353
#     4  10  20  40  62  83 117 166 196 252 308 336
#     4  10  19  35  57  81 121 154 190 244 299 346
#     4  11  19  35  58  89 120 148 194 246 306 358
#     4  12  26  38  62  87 121 168 208 240 302 358
#     4  11  22  41  59  89 124 163 203 249 299 352
#
# _framework density 18.035923
#
# number of rings (size 3 to 8) (size 9 to 14) (size 15 to 20)
#    0.000    1.333    6.667    4.000    3.500    0.667 
#    3.000    0.000    0.000    4.000    0.000    0.000 
#    0.000    0.000    0.000    0.000    0.000    0.000 
#
# Total GULP energy -133796.858382 kJ/mol
# GULP energy per Si atom -5574.869099 kJ/mol
# Density = 1.799487 g / cm^3
# Si number density = 18.035923 Si / 1000 Ang^3
#
#
#
# Elastic Constant Matrix: (Units=GPa)
#
#
# Indices 1 2 3 4 5 6 
#
# 1 67.9445 23.8526 31.3169 0.0000 16.8808 0.0000
# 2 23.8526 68.5346 48.1652 0.0000 16.9150 0.0000
# 3 31.3169 48.1652 152.5969 0.0000 41.6265 0.0000
# 4 0.0000 0.0000 0.0000 27.0307 0.0000 13.0896
# 5 16.8808 16.9150 41.6265 0.0000 26.0426 0.0000
# 6 0.0000 0.0000 0.0000 13.0896 0.0000 16.7433
#
#
#
# Elastic Compliance Matrix: (Units=1/GPa)
#
#
# Indices 1 2 3 4 5 6 
#
# 1 0.018480 -0.004173 0.000094 0.000000 -0.009418 0.000000
# 2 -0.004173 0.020040 -0.004710 0.000000 -0.002783 0.000000
# 3 0.000094 -0.004710 0.012771 0.000000 -0.017415 0.000000
# 4 0.000000 0.000000 0.000000 0.059533 0.000000 -0.046542
# 5 -0.009418 -0.002783 -0.017415 0.000000 0.074147 0.000000
# 6 0.000000 0.000000 0.000000 -0.046542 0.000000 0.096111
#
#
# Mechanical properties :
#
#
# Convention : Reuss Voigt Hill
#
# Bulk Modulus (GPa) = 29.66218 55.08281 42.37250
# Shear Modulus (GPa) = 16.13435 26.34610 21.24022
#
# Velocity S-wave (km/s) = 2.99418 3.82613 3.43543
# Velocity P-wave (km/s) = 5.33248 7.07997 6.26743
#
# Compressibility (1/GPa) = 0.03371296
#
# Stress axis : x y z
#
# Youngs Moduli (GPa) = 54.11395 49.89899 78.30108
#
# Poissons Ratio (x) = 0.20823 -0.00734
# Poissons Ratio (y) = 0.22582 0.36878
# Poissons Ratio (z) = -0.00507 0.23502
#
# Static dielectric constant tensor:
#      x y z
#    x 1.637320 0.000000 -0.014420 
#    y 0.000000 1.654510 0.000000 
#    z -0.014420 0.000000 1.690370 
# 
# From -- ./inp_files/138965.got.cif
#   From: 2010.05.17/outbox.cif.g08.bks.cpg/sg15_70_cif.got.tgz:138965.got - 2010.06.03 18:47:42.
