data_PCOD9264561
_publ_section_title
;
Structure prediction by ZEFSAII (Michael W. Deem and Ramdas Pophale) SiO2 
 PCOD9264561
Probable space group: C 2/C
;
_chemical_formula_sum "Si O2"
_cell_formula_units_Z 64
_cell_length_a 17.711981
_cell_length_b 20.840584
_cell_length_c 17.945197
_cell_angle_alpha 90.000000
_cell_angle_beta 150.039488
_cell_angle_gamma 90.000000
_cell_volume 3308.083151
_symmetry_space_group_name_H-M "C 2/C"
_symmetry_group_IT_number 15
_symmetry_cell_setting 'monoclinic'
loop_
_space_group_symop_operation_xyz
x,y,z
-x,y,1/2-z
-x,-y,-z
x,-y,1/2+z
1/2+x,1/2+y,z
1/2-x,1/2+y,1/2-z
1/2-x,1/2-y,-z
1/2+x,1/2-y,1/2+z
loop_
_atom_site_type_symbol
_atom_site_label
_atom_site_fract_x
_atom_site_fract_y
_atom_site_fract_z
Si Si1 0.325841 0.001908 0.605056
Si Si2 0.109632 0.400758 0.573615
Si Si3 0.375470 0.323490 0.008649
Si Si4 0.778831 0.631750 0.987276
Si Si5 0.128749 0.068258 0.310722
Si Si6 0.063212 0.699538 0.155723
Si Si7 0.588259 0.562798 0.694404
Si Si8 0.176469 0.475363 0.228526
O O1 0.500000 0.020275 0.750000
O O2 0.239224 0.039596 0.467333
O O3 0.276200 0.016958 0.646122
O O4 0.314864 0.927545 0.572554
O O5 0.262862 0.397105 0.656039
O O6 0.071142 0.335355 0.582676
O O7 0.132150 0.455071 0.656965
O O8 0.969568 0.429318 0.406493
O O9 0.505544 0.272190 0.102647
O O10 0.444730 0.393808 0.053188
O O11 0.326086 0.322134 0.053160
O O12 0.225615 0.307892 0.833531
O O13 0.932551 0.663532 0.091011
O O14 0.686767 0.602992 0.838905
O O15 0.000000 0.102637 0.250000
O O16 0.058251 0.005795 0.208108
O O17 0.690261 0.550418 0.709739
#
# Coordination Sequence:
#
# PCOD9264561 Si02
#       8
#     8   8   8   8   8   8   8   8
#     4  11  19  32  57  89 116 155 197 239 288 354
#     4  10  20  37  57  84 119 160 192 242 296 355
#     4  12  25  39  58  85 115 161 205 239 284 347
#     4  11  21  37  57  83 123 158 200 240 283 343
#     4  10  21  35  57  89 125 151 187 246 302 347
#     4  12  25  40  58  85 120 161 202 243 288 346
#     4  10  21  38  58  84 123 162 193 239 293 346
#     4  10  19  35  60  85 117 157 200 237 294 355
#
# _framework density 19.346551000000002
#
# number of rings (size 3 to 8) (size 9 to 14) (size 15 to 20)
#    0.000    1.250    2.500    5.625    0.000    2.000 
#    0.000    3.125    0.000    0.000    0.000    4.375 
#    0.000    0.000    0.000    0.000    0.000    0.000 
#
# Total GULP energy -178914.362182 kJ/mol
# GULP energy per Si atom -5591.073818 kJ/mol
# Density = 1.930252 g / cm^3
# Si number density = 19.346551 Si / 1000 Ang^3
#
#
#
# Elastic Constant Matrix: (Units=GPa)
#
#
# Indices 1 2 3 4 5 6 
#
# 1 122.4768 46.5157 20.3125 -0.0002 3.5685 0.0001
# 2 46.5157 46.8248 16.8546 -0.0007 -1.8507 -0.0004
# 3 20.3125 16.8546 74.9820 -0.0007 5.0774 -0.0004
# 4 -0.0002 -0.0007 -0.0007 19.4640 -0.0005 4.7970
# 5 3.5685 -1.8507 5.0774 -0.0005 35.1303 -0.0002
# 6 0.0001 -0.0004 -0.0004 4.7970 -0.0002 29.3555
#
#
#
# Elastic Compliance Matrix: (Units=1/GPa)
#
#
# Indices 1 2 3 4 5 6 
#
# 1 0.013275 -0.013076 -0.000524 0.000000 -0.001962 0.000000
# 2 -0.013076 0.036257 -0.004874 0.000001 0.003943 0.000000
# 3 -0.000524 -0.004874 0.014732 0.000000 -0.002333 0.000000
# 4 0.000000 0.000001 0.000000 0.053533 0.000001 -0.008748
# 5 -0.001962 0.003943 -0.002333 0.000001 0.029210 0.000000
# 6 0.000000 0.000000 0.000000 -0.008748 0.000000 0.035495
#
#
# Mechanical properties :
#
#
# Convention : Reuss Voigt Hill
#
# Bulk Modulus (GPa) = 36.61104 45.73881 41.17493
# Shear Modulus (GPa) = 21.87650 27.49669 24.68660
#
# Velocity S-wave (km/s) = 3.36634 3.77406 3.57602
# Velocity P-wave (km/s) = 5.83734 6.53334 6.19512
#
# Compressibility (1/GPa) = 0.02731417
#
# Stress axis : x y z
#
# Youngs Moduli (GPa) = 75.32828 27.58105 67.87875
#
# Poissons Ratio (x) = 0.36066 0.03557
# Poissons Ratio (y) = 0.98503 0.33087
# Poissons Ratio (z) = 0.03948 0.13444
#
# Static dielectric constant tensor:
#      x y z
#    x 1.682780 0.000000 0.026610 
#    y 0.000000 1.680790 0.000000 
#    z 0.026610 0.000000 1.694770 
# 
# From -- ./inp_files/211982.got.cif
#   From: 2010.05.17/outbox.cif.g08.bks.cpg/sg15_106_cif.got.tgz:211982.got - 2010.06.03 18:47:42.
