data_PCOD9264087
_publ_section_title
;
Structure prediction by ZEFSAII (Michael W. Deem and Ramdas Pophale) SiO2 
 PCOD9264087
Probable space group: C 2/C
;
_chemical_formula_sum "Si O2"
_cell_formula_units_Z 52
_cell_length_a 27.561194
_cell_length_b 9.646266
_cell_length_c 9.073579
_cell_angle_alpha 90.000000
_cell_angle_beta 112.916475
_cell_angle_gamma 90.000000
_cell_volume 2221.928929
_symmetry_space_group_name_H-M "C 2/C"
_symmetry_group_IT_number 15
_symmetry_cell_setting 'monoclinic'
loop_
_space_group_symop_operation_xyz
x,y,z
-x,y,1/2-z
-x,-y,-z
x,-y,1/2+z
1/2+x,1/2+y,z
1/2-x,1/2+y,1/2-z
1/2-x,1/2-y,-z
1/2+x,1/2-y,1/2+z
loop_
_atom_site_type_symbol
_atom_site_label
_atom_site_fract_x
_atom_site_fract_y
_atom_site_fract_z
Si Si1 0.232650 0.114630 0.177192
Si Si2 0.692060 0.124288 0.770558
Si Si3 0.035495 0.576476 0.160324
Si Si4 0.326374 0.696925 0.672605
Si Si5 0.365429 0.974158 0.564158
Si Si6 0.068773 0.858849 0.080883
Si Si7 0.000000 0.011731 0.250000
O O1 0.257587 0.963528 0.230344
O O2 0.199892 0.212311 0.251235
O O3 0.282891 0.213168 0.204919
O O4 0.200857 0.106013 0.985927
O O5 0.677677 0.079356 0.918999
O O6 0.644597 0.054540 0.618889
O O7 0.077842 0.487624 0.303949
O O8 0.062071 0.696105 0.096431
O O9 0.000000 0.638940 0.250000
O O10 0.000000 0.500000 0.000000
O O11 0.354972 0.819371 0.613862
O O12 0.368929 0.616327 0.821134
O O13 0.042266 0.904374 0.897835
O O14 0.035166 0.928845 0.172794
#
# Coordination Sequence:
#
# PCOD9264087 Si02
#       7
#     8   8   8   8   8   8   4
#     4   9  18  33  56  82 111 150 192 230 288 350
#     4  10  19  35  55  79 112 147 183 234 282 343
#     4  11  22  37  61  86 113 151 201 245 288 357
#     4   8  17  35  57  76 111 156 186 223 290 357
#     4   9  19  35  54  78 111 146 179 230 298 330
#     4  10  21  40  60  86 118 156 197 246 301 353
#     4  10  22  40  62  84 122 158 196 248 306 354
#
# _framework density 23.403089000000001
#
# number of rings (size 3 to 8) (size 9 to 14) (size 15 to 20)
#    0.000    2.462    0.769    1.846    1.077    1.846 
#    0.000    0.000    0.000    0.000    0.000    0.000 
#    0.000    0.000    0.000    0.000    0.000    0.000 
#
# Total GULP energy -145008.983846 kJ/mol
# GULP energy per Si atom -5577.268609 kJ/mol
# Density = 2.334982 g / cm^3
# Si number density = 23.403089 Si / 1000 Ang^3
#
#
#
# Elastic Constant Matrix: (Units=GPa)
#
#
# Indices 1 2 3 4 5 6 
#
# 1 37.7660 -0.9849 32.3893 0.0000 16.2192 0.0000
# 2 -0.9849 65.3047 25.6069 0.0000 9.3602 0.0000
# 3 32.3893 25.6069 124.8809 0.0000 23.8700 0.0000
# 4 0.0000 0.0000 0.0000 15.8599 0.0000 2.9572
# 5 16.2192 9.3602 23.8700 0.0000 44.1919 0.0000
# 6 0.0000 0.0000 0.0000 2.9572 0.0000 16.7820
#
#
#
# Elastic Compliance Matrix: (Units=1/GPa)
#
#
# Indices 1 2 3 4 5 6 
#
# 1 0.039154 0.005757 -0.009318 0.000000 -0.010557 0.000000
# 2 0.005757 0.017639 -0.004452 0.000000 -0.003445 0.000000
# 3 -0.009318 -0.004452 0.011712 0.000000 -0.001964 0.000000
# 4 0.000000 0.000000 0.000000 0.065194 0.000000 -0.011488
# 5 -0.010557 -0.003445 -0.001964 0.000000 0.028293 0.000000
# 6 0.000000 0.000000 0.000000 -0.011488 0.000000 0.061612
#
#
# Mechanical properties :
#
#
# Convention : Reuss Voigt Hill
#
# Bulk Modulus (GPa) = 19.05452 37.99711 28.52582
# Shear Modulus (GPa) = 19.44598 26.76280 23.10439
#
# Velocity S-wave (km/s) = 2.88569 3.38532 3.14544
# Velocity P-wave (km/s) = 4.38890 5.61709 5.04055
#
# Compressibility (1/GPa) = 0.05248099
#
# Stress axis : x y z
#
# Youngs Moduli (GPa) = 25.54026 56.69278 85.37924
#
# Poissons Ratio (x) = -0.32639 0.79554
# Poissons Ratio (y) = -0.14704 0.38008
# Poissons Ratio (z) = 0.23798 0.25238
#
# Static dielectric constant tensor:
#      x y z
#    x 1.956840 0.000000 0.062890 
#    y 0.000000 1.870570 0.000000 
#    z 0.062890 0.000000 1.928650 
# 
# From -- ./inp_files/65218.got.cif
#   From: 2010.05.17/outbox.cif.g08.bks.cpg/sg15_33_cif.got.tgz:65218.got - 2010.06.03 18:47:42.
