data_PCOD9264954
_publ_section_title
;
Structure prediction by ZEFSAII (Michael W. Deem and Ramdas Pophale) SiO2 
 PCOD9264954
Probable space group: C 2/C
;
_chemical_formula_sum "Si O2"
_cell_formula_units_Z 52
_cell_length_a 14.553017
_cell_length_b 21.392205
_cell_length_c 7.007787
_cell_angle_alpha 90.000000
_cell_angle_beta 105.781424
_cell_angle_gamma 90.000000
_cell_volume 2099.436649
_symmetry_space_group_name_H-M "C 2/C"
_symmetry_group_IT_number 15
_symmetry_cell_setting 'monoclinic'
loop_
_space_group_symop_operation_xyz
x,y,z
-x,y,1/2-z
-x,-y,-z
x,-y,1/2+z
1/2+x,1/2+y,z
1/2-x,1/2+y,1/2-z
1/2-x,1/2-y,-z
1/2+x,1/2-y,1/2+z
loop_
_atom_site_type_symbol
_atom_site_label
_atom_site_fract_x
_atom_site_fract_y
_atom_site_fract_z
Si Si1 0.616523 0.068344 0.149099
Si Si2 0.000000 0.245210 0.250000
Si Si3 0.296011 0.246289 0.732954
Si Si4 0.182169 0.107587 0.163767
Si Si5 0.977517 0.131579 0.965108
Si Si6 0.720519 0.620570 0.764339
Si Si7 0.419253 0.921790 0.424179
O O1 0.728657 0.078470 0.172846
O O2 0.601332 0.089873 0.360545
O O3 0.591397 0.995389 0.125285
O O4 0.530832 0.097637 0.972627
O O5 0.094988 0.277369 0.227904
O O6 0.029117 0.199301 0.440370
O O7 0.250000 0.250000 0.500000
O O8 0.303476 0.317380 0.808095
O O9 0.230505 0.195681 0.801632
O O10 0.199649 0.088651 0.954052
O O11 0.067813 0.098204 0.117881
O O12 0.870078 0.105461 0.918210
O O13 0.000000 0.136392 0.750000
O O14 0.826272 0.603055 0.762976
#
# Coordination Sequence:
#
# PCOD9264954 Si02
#       7
#     8   4   8   8   8   8   8
#     4   9  18  37  55  81 108 141 187 223 287 324
#     4  10  20  36  50  78 112 148 184 230 274 328
#     4  11  21  33  52  78 112 142 181 232 276 328
#     4   9  20  35  56  77 108 149 185 228 275 342
#     4   9  18  35  56  76 109 149 181 226 280 327
#     4  10  19  36  55  80 107 147 190 224 283 332
#     4   9  19  34  58  79 110 143 178 239 271 338
#
# _framework density 24.768550999999999
#
# number of rings (size 3 to 8) (size 9 to 14) (size 15 to 20)
#    0.000    2.462    1.538    0.462    0.000    2.462 
#    0.000    2.308    0.000    0.000    0.000    0.000 
#    0.000    0.000    0.000    0.000    0.000    0.000 
#
# Total GULP energy -144929.638033 kJ/mol
# GULP energy per Si atom -5574.216847 kJ/mol
# Density = 2.471218 g / cm^3
# Si number density = 24.768551 Si / 1000 Ang^3
#
#
#
# Elastic Constant Matrix: (Units=GPa)
#
#
# Indices 1 2 3 4 5 6 
#
# 1 186.8715 19.0657 77.0223 0.0000 67.0341 0.0000
# 2 19.0657 16.6640 5.1506 0.0000 21.9006 0.0000
# 3 77.0223 5.1506 154.8091 0.0000 54.1591 0.0000
# 4 0.0000 0.0000 0.0000 21.5887 0.0000 9.4113
# 5 67.0341 21.9006 54.1591 0.0000 76.0490 0.0000
# 6 0.0000 0.0000 0.0000 9.4113 0.0000 29.9212
#
#
#
# Elastic Compliance Matrix: (Units=1/GPa)
#
#
# Indices 1 2 3 4 5 6 
#
# 1 0.008347 -0.002121 -0.002293 0.000000 -0.005114 0.000000
# 2 -0.002121 0.106716 0.010124 0.000000 -0.036073 0.000000
# 3 -0.002293 0.010124 0.010091 0.000000 -0.008080 0.000000
# 4 0.000000 0.000000 0.000000 0.053681 0.000000 -0.016885
# 5 -0.005114 -0.036073 -0.008080 0.000000 0.033800 0.000000
# 6 0.000000 0.000000 0.000000 -0.016885 0.000000 0.038732
#
#
# Mechanical properties :
#
#
# Convention : Reuss Voigt Hill
#
# Bulk Modulus (GPa) = 7.32202 62.31352 34.81777
# Shear Modulus (GPa) = 17.51495 42.65219 30.08357
#
# Velocity S-wave (km/s) = 2.66210 4.15424 3.48887
# Velocity P-wave (km/s) = 3.52302 6.94429 5.50613
#
# Compressibility (1/GPa) = 0.13657426
#
# Stress axis : x y z
#
# Youngs Moduli (GPa) = 119.79866 9.37070 99.10228
#
# Poissons Ratio (x) = 0.01987 0.22729
# Poissons Ratio (y) = 0.25405 -1.00336
# Poissons Ratio (z) = 0.27475 -0.09487
#
# Static dielectric constant tensor:
#      x y z
#    x 2.071390 0.000000 0.007050 
#    y 0.000000 1.992560 0.000000 
#    z 0.007050 0.000000 1.973270 
# 
# From -- ./inp_files/42350.got.cif
#   From: 2010.05.17/outbox.cif.g08.bks.cpg/sg15_22_cif.got.tgz:42350.got - 2010.06.03 18:47:42.
