data_PCOD9264825
_publ_section_title
;
Structure prediction by ZEFSAII (Michael W. Deem and Ramdas Pophale) SiO2 
 PCOD9264825
Probable space group: C 2/C
;
_chemical_formula_sum "Si O2"
_cell_formula_units_Z 40
_cell_length_a 10.237519
_cell_length_b 16.505405
_cell_length_c 27.563541
_cell_angle_alpha 90.000000
_cell_angle_beta 153.923694
_cell_angle_gamma 90.000000
_cell_volume 2047.301244
_symmetry_space_group_name_H-M "C 2/C"
_symmetry_group_IT_number 15
_symmetry_cell_setting 'monoclinic'
loop_
_space_group_symop_operation_xyz
x,y,z
-x,y,1/2-z
-x,-y,-z
x,-y,1/2+z
1/2+x,1/2+y,z
1/2-x,1/2+y,1/2-z
1/2-x,1/2-y,-z
1/2+x,1/2-y,1/2+z
loop_
_atom_site_type_symbol
_atom_site_label
_atom_site_fract_x
_atom_site_fract_y
_atom_site_fract_z
Si Si1 0.666388 0.434995 0.918520
Si Si2 0.616269 0.549663 0.992559
Si Si3 0.232247 0.864514 0.785777
Si Si4 0.824456 0.097057 0.640507
Si Si5 0.522159 0.303209 0.112105
O O1 0.404663 0.378929 0.812652
O O2 0.675446 0.505315 0.880254
O O3 0.612363 0.483659 0.949047
O O4 0.972586 0.386621 0.026661
O O5 0.953365 0.586956 0.107198
O O6 0.500000 0.500000 0.000000
O O7 0.420379 0.626359 0.908446
O O8 0.256862 0.768712 0.802220
O O9 0.000000 0.891682 0.750000
O O10 0.947738 0.151816 0.637792
O O11 0.000000 0.104144 0.750000
O O12 0.250000 0.250000 0.000000
#
# Coordination Sequence:
#
# PCOD9264825 Si02
#       5
#     8   8   8   8   8
#     4  10  19  35  64  91 120 162 215 267 326 382
#     4  10  22  41  64  94 128 168 221 271 322 389
#     4  11  21  40  65  90 126 175 215 263 331 393
#     4  10  19  37  63  93 121 162 220 273 315 386
#     4   9  20  40  61  87 130 172 205 263 332 393
#
# _framework density 19.537915999999999
#
# number of rings (size 3 to 8) (size 9 to 14) (size 15 to 20)
#    0.000    2.000    0.000    6.600    0.000    0.800 
#   18.000    1.000    0.000    0.000    0.000    0.000 
#    0.000    0.000    0.000    0.000    0.000    0.000 
#
# Total GULP energy -111376.625143 kJ/mol
# GULP energy per Si atom -5568.831257 kJ/mol
# Density = 1.949345 g / cm^3
# Si number density = 19.537916 Si / 1000 Ang^3
#
#
#
# Elastic Constant Matrix: (Units=GPa)
#
#
# Indices 1 2 3 4 5 6 
#
# 1 104.2082 73.6356 56.0713 -0.0014 -22.7677 0.0013
# 2 73.6356 116.3089 66.1017 -0.0064 -7.5910 0.0008
# 3 56.0713 66.1017 129.7429 -0.0288 -27.2245 0.0144
# 4 -0.0014 -0.0064 -0.0288 17.9823 -0.0061 1.0335
# 5 -22.7677 -7.5910 -27.2245 -0.0061 29.1118 0.0051
# 6 0.0013 0.0008 0.0144 1.0335 0.0051 27.1464
#
#
#
# Elastic Compliance Matrix: (Units=1/GPa)
#
#
# Indices 1 2 3 4 5 6 
#
# 1 0.021591 -0.012809 0.000046 0.000002 0.013589 -0.000003
# 2 -0.012809 0.019953 -0.007017 -0.000009 -0.011377 0.000006
# 3 0.000046 -0.007017 0.013544 0.000023 0.010872 -0.000010
# 4 0.000002 -0.000009 0.000023 0.055732 0.000033 -0.002122
# 5 0.013589 -0.011377 0.010872 0.000033 0.052179 -0.000017
# 6 -0.000003 0.000006 -0.000010 -0.002122 -0.000017 0.036918
#
#
# Mechanical properties :
#
#
# Convention : Reuss Voigt Hill
#
# Bulk Modulus (GPa) = 64.39799 82.43082 73.41441
# Shear Modulus (GPa) = 20.43703 25.14485 22.79094
#
# Velocity S-wave (km/s) = 3.23773 3.59134 3.41911
# Velocity P-wave (km/s) = 6.85633 7.71224 7.29685
#
# Compressibility (1/GPa) = 0.01552843
#
# Stress axis : x y z
#
# Youngs Moduli (GPa) = 46.31479 50.11848 73.83281
#
# Poissons Ratio (x) = 0.64196 -0.00341
# Poissons Ratio (y) = 0.59324 0.51810
# Poissons Ratio (z) = -0.00214 0.35169
#
# Static dielectric constant tensor:
#      x y z
#    x 1.722390 0.000000 0.040950 
#    y 0.000000 1.695540 0.000000 
#    z 0.040950 0.000000 1.780600 
# 
# From -- ./inp_files/265680.got.cif
#   From: 2010.05.17/outbox.cif.g08.bks.cpg/sg15_133_cif.got.tgz:265680.got - 2010.06.03 18:47:42.
