data_PCOD9264069
_publ_section_title
;
Structure prediction by ZEFSAII (Michael W. Deem and Ramdas Pophale) SiO2 
 PCOD9264069
Probable space group: C 2/C
;
_chemical_formula_sum "Si O2"
_cell_formula_units_Z 44
_cell_length_a 12.795855
_cell_length_b 20.242723
_cell_length_c 8.691555
_cell_angle_alpha 90.000000
_cell_angle_beta 96.338445
_cell_angle_gamma 90.000000
_cell_volume 2237.550157
_symmetry_space_group_name_H-M "C 2/C"
_symmetry_group_IT_number 15
_symmetry_cell_setting 'monoclinic'
loop_
_space_group_symop_operation_xyz
x,y,z
-x,y,1/2-z
-x,-y,-z
x,-y,1/2+z
1/2+x,1/2+y,z
1/2-x,1/2+y,1/2-z
1/2-x,1/2-y,-z
1/2+x,1/2-y,1/2+z
loop_
_atom_site_type_symbol
_atom_site_label
_atom_site_fract_x
_atom_site_fract_y
_atom_site_fract_z
Si Si1 0.659459 0.750383 0.186608
Si Si2 0.142263 0.460187 0.897709
Si Si3 0.703924 0.641058 0.946605
Si Si4 0.926134 0.736019 0.508773
Si Si5 0.000000 0.173240 0.750000
Si Si6 0.409038 0.084494 0.446827
O O1 0.729387 0.814256 0.161194
O O2 0.645945 0.737341 0.364884
O O3 0.544552 0.765530 0.096872
O O4 0.701031 0.687490 0.098696
O O5 0.142108 0.441541 0.719095
O O6 0.033988 0.429318 0.948366
O O7 0.237894 0.425972 0.001114
O O8 0.133429 0.538289 0.924058
O O9 0.586838 0.633709 0.860738
O O10 0.936854 0.779964 0.358755
O O11 0.893052 0.661694 0.465341
#
# Coordination Sequence:
#
# PCOD9264069 Si02
#       6
#     8   8   8   8   4   8
#     4   9  20  32  58  80 120 154 183 235 298 339
#     4  10  21  36  54  80 120 147 193 223 292 346
#     4  10  20  38  53  83 117 160 192 238 280 345
#     4  10  19  35  54  89 117 146 190 238 292 355
#     4  10  22  36  60  82 120 158 192 240 286 326
#     4  10  21  33  56  83 113 153 177 242 284 350
#
# _framework density 19.664363000000002
#
# number of rings (size 3 to 8) (size 9 to 14) (size 15 to 20)
#    0.000    2.182    1.818    1.091    7.636    2.182 
#    0.000    0.000    0.000    1.091    0.000    0.000 
#    0.000    0.000    0.000    0.000    0.000    0.000 
#
# Total GULP energy -122891.231399 kJ/mol
# GULP energy per Si atom -5585.965064 kJ/mol
# Density = 1.961961 g / cm^3
# Si number density = 19.664363 Si / 1000 Ang^3
#
#
#
# Elastic Constant Matrix: (Units=GPa)
#
#
# Indices 1 2 3 4 5 6 
#
# 1 47.3563 20.8739 24.5374 0.0000 3.8742 0.0000
# 2 20.8739 42.4361 25.9023 0.0000 12.4911 0.0000
# 3 24.5374 25.9023 94.5528 0.0000 -7.1856 0.0000
# 4 0.0000 0.0000 0.0000 15.1631 0.0000 6.6383
# 5 3.8742 12.4911 -7.1856 0.0000 38.1159 0.0000
# 6 0.0000 0.0000 0.0000 6.6383 0.0000 22.8527
#
#
#
# Elastic Compliance Matrix: (Units=1/GPa)
#
#
# Indices 1 2 3 4 5 6 
#
# 1 0.028311 -0.011356 -0.004233 0.000000 0.000046 0.000000
# 2 -0.011356 0.038140 -0.008485 0.000000 -0.012944 0.000000
# 3 -0.004233 -0.008485 0.014450 0.000000 0.005935 0.000000
# 4 0.000000 0.000000 0.000000 0.075558 0.000000 -0.021948
# 5 0.000046 -0.012944 0.005935 0.000000 0.031592 0.000000
# 6 0.000000 0.000000 0.000000 -0.021948 0.000000 0.050134
#
#
# Mechanical properties :
#
#
# Convention : Reuss Voigt Hill
#
# Bulk Modulus (GPa) = 30.53062 36.33026 33.43044
# Shear Modulus (GPa) = 16.82079 22.76178 19.79128
#
# Velocity S-wave (km/s) = 2.92789 3.40592 3.17591
# Velocity P-wave (km/s) = 5.19515 5.82944 5.52141
#
# Compressibility (1/GPa) = 0.03275400
#
# Stress axis : x y z
#
# Youngs Moduli (GPa) = 35.32143 26.21916 69.20425
#
# Poissons Ratio (x) = 0.29775 0.29292
# Poissons Ratio (y) = 0.40111 0.58720
# Poissons Ratio (z) = 0.14950 0.22247
#
# Static dielectric constant tensor:
#      x y z
#    x 1.696030 0.000000 0.001640 
#    y 0.000000 1.647680 0.000000 
#    z 0.001640 0.000000 1.735800 
# 
# From -- ./inp_files/30962.got.cif
#   From: 2010.05.17/outbox.cif.g08.bks.cpg/sg15_16_cif.got.tgz:30962.got - 2010.06.03 18:47:42.
