data_PCOD9264107
_publ_section_title
;
Structure prediction by ZEFSAII (Michael W. Deem and Ramdas Pophale) SiO2 
 PCOD9264107
Probable space group: C 2/C
;
_chemical_formula_sum "Si O2"
_cell_formula_units_Z 52
_cell_length_a 14.322134
_cell_length_b 15.441413
_cell_length_c 16.262674
_cell_angle_alpha 90.000000
_cell_angle_beta 136.225335
_cell_angle_gamma 90.000000
_cell_volume 2488.183043
_symmetry_space_group_name_H-M "C 2/C"
_symmetry_group_IT_number 15
_symmetry_cell_setting 'monoclinic'
loop_
_space_group_symop_operation_xyz
x,y,z
-x,y,1/2-z
-x,-y,-z
x,-y,1/2+z
1/2+x,1/2+y,z
1/2-x,1/2+y,1/2-z
1/2-x,1/2-y,-z
1/2+x,1/2-y,1/2+z
loop_
_atom_site_type_symbol
_atom_site_label
_atom_site_fract_x
_atom_site_fract_y
_atom_site_fract_z
Si Si1 0.728001 0.051651 0.417224
Si Si2 0.027177 0.509809 0.142232
Si Si3 0.739232 0.268877 0.156487
Si Si4 0.500000 0.299296 0.750000
Si Si5 0.827604 0.197829 0.379215
Si Si6 0.975555 0.354667 0.001532
Si Si7 0.931738 0.096942 0.045775
O O1 0.634500 0.019899 0.282347
O O2 0.626256 0.032644 0.427707
O O3 0.758316 0.151220 0.412151
O O4 0.867797 0.998302 0.513531
O O5 0.035213 0.414078 0.110529
O O6 0.060558 0.578802 0.093060
O O7 0.733490 0.239691 0.248257
O O8 0.891630 0.260695 0.225474
O O9 0.657867 0.194723 0.055296
O O10 0.668078 0.355669 0.082239
O O11 0.565704 0.358245 0.863062
O O12 0.925830 0.277501 0.463856
O O13 0.919560 0.121518 0.395123
#
# Coordination Sequence:
#
# PCOD9264107 Si02
#       7
#     8   8   8   4   8   8   8
#     4  11  21  38  57  89 118 153 192 246 294 363
#     4  10  22  36  62  84 114 153 200 247 293 341
#     4  10  19  35  55  83 116 151 192 244 293 360
#     4  10  20  32  54  88 116 156 190 256 300 356
#     4  10  21  36  59  83 119 155 194 236 305 352
#     4  10  20  39  58  85 112 156 200 245 289 354
#     4  10  21  34  57  82 120 154 193 240 300 357
#
# _framework density 20.898785
#
# number of rings (size 3 to 8) (size 9 to 14) (size 15 to 20)
#    0.000    1.846    1.538    2.769    0.000    4.308 
#    0.000    0.000    0.000    0.000    0.000    0.000 
#    0.000    0.000    0.000    0.000    0.000    0.000 
#
# Total GULP energy -145009.954512 kJ/mol
# GULP energy per Si atom -5577.305943 kJ/mol
# Density = 2.085122 g / cm^3
# Si number density = 20.898785 Si / 1000 Ang^3
#
#
#
# Elastic Constant Matrix: (Units=GPa)
#
#
# Indices 1 2 3 4 5 6 
#
# 1 33.5238 21.4974 -12.1899 0.0000 0.4467 0.0000
# 2 21.4974 70.3579 4.9897 0.0000 4.6969 0.0000
# 3 -12.1899 4.9897 52.9095 0.0000 1.2838 0.0000
# 4 0.0000 0.0000 0.0000 25.1737 0.0000 3.8081
# 5 0.4467 4.6969 1.2838 0.0000 18.3055 0.0000
# 6 0.0000 0.0000 0.0000 3.8081 0.0000 16.0431
#
#
#
# Elastic Compliance Matrix: (Units=1/GPa)
#
#
# Indices 1 2 3 4 5 6 
#
# 1 0.042834 -0.013996 0.011146 0.000000 0.001764 0.000000
# 2 -0.013996 0.019120 -0.004925 0.000000 -0.004219 0.000000
# 3 0.011146 -0.004925 0.021946 0.000000 -0.000547 0.000000
# 4 0.000000 0.000000 0.000000 0.041203 0.000000 -0.009780
# 5 0.001764 -0.004219 -0.000547 0.000000 0.055706 0.000000
# 6 0.000000 0.000000 0.000000 -0.009780 0.000000 0.064653
#
#
# Mechanical properties :
#
#
# Convention : Reuss Voigt Hill
#
# Bulk Modulus (GPa) = 14.63080 20.59839 17.61459
# Shear Modulus (GPa) = 17.61824 21.40408 19.51116
#
# Velocity S-wave (km/s) = 2.90664 3.20375 3.05881
# Velocity P-wave (km/s) = 4.27560 4.85418 4.57404
#
# Compressibility (1/GPa) = 0.06834899
#
# Stress axis : x y z
#
# Youngs Moduli (GPa) = 23.34611 52.30044 45.56673
#
# Poissons Ratio (x) = 0.73198 -0.50787
# Poissons Ratio (y) = 0.32675 0.22443
# Poissons Ratio (z) = -0.26021 0.25760
#
# Static dielectric constant tensor:
#      x y z
#    x 1.773640 0.000000 0.015350 
#    y 0.000000 1.740510 0.000000 
#    z 0.015350 0.000000 1.778990 
# 
# From -- ./inp_files/97040.got.cif
#   From: 2010.05.17/outbox.cif.g08.bks.cpg/sg15_49_cif.got.tgz:97040.got - 2010.06.03 18:47:42.
