data_PCOD9264106
_publ_section_title
;
Structure prediction by ZEFSAII (Michael W. Deem and Ramdas Pophale) SiO2 
 PCOD9264106
Probable space group: C 2/C
;
_chemical_formula_sum "Si O2"
_cell_formula_units_Z 48
_cell_length_a 34.007836
_cell_length_b 13.177536
_cell_length_c 7.887976
_cell_angle_alpha 90.000000
_cell_angle_beta 34.961756
_cell_angle_gamma 90.000000
_cell_volume 2025.609843
_symmetry_space_group_name_H-M "C 2/C"
_symmetry_group_IT_number 15
_symmetry_cell_setting 'monoclinic'
loop_
_space_group_symop_operation_xyz
x,y,z
-x,y,1/2-z
-x,-y,-z
x,-y,1/2+z
1/2+x,1/2+y,z
1/2-x,1/2+y,1/2-z
1/2-x,1/2-y,-z
1/2+x,1/2-y,1/2+z
loop_
_atom_site_type_symbol
_atom_site_label
_atom_site_fract_x
_atom_site_fract_y
_atom_site_fract_z
Si Si1 0.568568 0.782397 0.614339
Si Si2 0.292502 0.893449 0.106116
Si Si3 0.371264 0.698685 0.786630
Si Si4 0.925848 0.477792 0.426312
Si Si5 0.266458 0.571401 0.016798
Si Si6 0.131989 0.697119 0.561358
O O1 0.570665 0.716763 0.778646
O O2 0.623423 0.754672 0.275101
O O3 0.578235 0.903795 0.610287
O O4 0.500000 0.767600 0.750000
O O5 0.265725 0.960571 0.353011
O O6 0.316137 0.780250 0.054503
O O7 0.359520 0.944861 0.775286
O O8 0.230733 0.899139 0.189067
O O9 0.384610 0.737006 0.547366
O O10 0.333670 0.592618 0.889081
O O11 0.918292 0.400921 0.292823
O O12 0.000000 0.458962 0.250000
O O13 0.207349 0.649129 0.286255
#
# Coordination Sequence:
#
# PCOD9264106 Si02
#       6
#     8   8   8   8   8   8
#     4  11  23  33  52  84 112 153 195 225 279 346
#     4  10  19  35  55  83 112 153 189 227 273 347
#     4  10  22  39  56  78 122 152 186 242 279 328
#     4   9  19  31  50  77 115 155 184 217 269 342
#     4  10  20  38  54  82 114 153 190 233 286 331
#     4  10  21  34  52  80 111 156 188 219 279 335
#
# _framework density 23.696567000000002
#
# number of rings (size 3 to 8) (size 9 to 14) (size 15 to 20)
#    0.000    2.333    1.667    4.000    7.000    2.000 
#    3.000    0.000    0.000    0.000    0.000    1.167 
#    0.000    0.000    0.000    0.000    0.000    0.000 
#
# Total GULP energy -133932.778777 kJ/mol
# GULP energy per Si atom -5580.532449 kJ/mol
# Density = 2.364263 g / cm^3
# Si number density = 23.696567 Si / 1000 Ang^3
#
#
#
# Elastic Constant Matrix: (Units=GPa)
#
#
# Indices 1 2 3 4 5 6 
#
# 1 125.8331 4.8389 15.4474 0.0000 -15.3215 0.0000
# 2 4.8389 29.3222 9.0068 0.0000 -9.3921 0.0000
# 3 15.4474 9.0068 29.7034 0.0000 1.5474 0.0000
# 4 0.0000 0.0000 0.0000 15.4644 0.0000 -7.7672
# 5 -15.3215 -9.3921 1.5474 0.0000 35.5398 0.0000
# 6 0.0000 0.0000 0.0000 -7.7672 0.0000 29.2817
#
#
#
# Elastic Compliance Matrix: (Units=1/GPa)
#
#
# Indices 1 2 3 4 5 6 
#
# 1 0.009117 0.001655 -0.005484 0.000000 0.004607 0.000000
# 2 0.001655 0.042232 -0.014318 0.000000 0.012498 0.000000
# 3 -0.005484 -0.014318 0.041273 0.000000 -0.007945 0.000000
# 4 0.000000 0.000000 0.000000 0.074604 0.000000 0.019789
# 5 0.004607 0.012498 -0.007945 0.000000 0.033772 0.000000
# 6 0.000000 0.000000 0.000000 0.019789 0.000000 0.039400
#
#
# Mechanical properties :
#
#
# Convention : Reuss Voigt Hill
#
# Bulk Modulus (GPa) = 17.75228 27.04941 22.40085
# Shear Modulus (GPa) = 16.92235 26.42824 21.67529
#
# Velocity S-wave (km/s) = 2.67521 3.34320 3.02768
# Velocity P-wave (km/s) = 4.12918 5.13248 4.65792
#
# Compressibility (1/GPa) = 0.05633078
#
# Stress axis : x y z
#
# Youngs Moduli (GPa) = 109.67949 23.67892 24.22879
#
# Poissons Ratio (x) = -0.03920 0.13286
# Poissons Ratio (y) = -0.18156 0.34690
# Poissons Ratio (z) = 0.60143 0.33903
#
# Static dielectric constant tensor:
#      x y z
#    x 2.033940 0.000000 0.003380 
#    y 0.000000 1.960090 0.000000 
#    z 0.003380 0.000000 2.008240 
# 
# From -- ./inp_files/61270.got.cif
#   From: 2010.05.17/outbox.cif.g08.bks.cpg/sg15_31_cif.got.tgz:61270.got - 2010.06.03 18:47:42.
