data_PCOD9264280
_publ_section_title
;
Structure prediction by ZEFSAII (Michael W. Deem and Ramdas Pophale) SiO2 
 PCOD9264280
Probable space group: C 2/C
;
_chemical_formula_sum "Si O2"
_cell_formula_units_Z 56
_cell_length_a 9.408134
_cell_length_b 13.728225
_cell_length_c 27.286579
_cell_angle_alpha 90.000000
_cell_angle_beta 55.882826
_cell_angle_gamma 90.000000
_cell_volume 2917.701041
_symmetry_space_group_name_H-M "C 2/C"
_symmetry_group_IT_number 15
_symmetry_cell_setting 'monoclinic'
loop_
_space_group_symop_operation_xyz
x,y,z
-x,y,1/2-z
-x,-y,-z
x,-y,1/2+z
1/2+x,1/2+y,z
1/2-x,1/2+y,1/2-z
1/2-x,1/2-y,-z
1/2+x,1/2-y,1/2+z
loop_
_atom_site_type_symbol
_atom_site_label
_atom_site_fract_x
_atom_site_fract_y
_atom_site_fract_z
Si Si1 0.301590 0.163171 0.920991
Si Si2 0.691738 0.635074 0.232474
Si Si3 0.301647 0.219941 0.435514
Si Si4 0.859210 0.823858 0.156164
Si Si5 0.469595 0.659017 0.442724
Si Si6 0.795057 0.959882 0.667942
Si Si7 0.478099 0.968210 0.864091
O O1 0.212021 0.175831 0.885801
O O2 0.379282 0.265250 0.923661
O O3 0.439542 0.076748 0.889508
O O4 0.162260 0.132416 0.988790
O O5 0.500000 0.622001 0.250000
O O6 0.758089 0.742488 0.206020
O O7 0.703902 0.615249 0.287888
O O8 0.825538 0.560979 0.181136
O O9 0.250000 0.250000 0.500000
O O10 0.442523 0.292671 0.385674
O O11 0.390471 0.113146 0.415798
O O12 0.130870 0.213074 0.436317
O O13 0.825248 0.931870 0.182082
O O14 0.549757 0.567967 0.398677
O O15 0.622818 0.957059 0.668453
#
# Coordination Sequence:
#
# PCOD9264280 Si02
#       7
#     8   8   8   8   8   8   8
#     4  10  20  38  59  89 120 153 199 235 297 346
#     4  11  23  40  59  85 118 149 194 251 297 342
#     4  10  19  35  57  86 121 151 193 238 294 348
#     4  10  22  38  62  86 113 158 197 243 292 348
#     4  10  21  35  59  89 122 157 189 246 286 354
#     4  10  22  39  61  86 116 158 203 233 290 357
#     4   9  22  38  61  83 113 158 198 240 286 358
#
# _framework density 19.193192
#
# number of rings (size 3 to 8) (size 9 to 14) (size 15 to 20)
#    0.000    2.000    1.429    1.286    2.000    6.286 
#    0.000    3.571    0.000    0.000    0.000    0.000 
#    0.000    0.000    0.000    0.000    0.000    0.000 
#
# Total GULP energy -156387.026169 kJ/mol
# GULP energy per Si atom -5585.250935 kJ/mol
# Density = 1.914951 g / cm^3
# Si number density = 19.193192 Si / 1000 Ang^3
#
#
#
# Elastic Constant Matrix: (Units=GPa)
#
#
# Indices 1 2 3 4 5 6 
#
# 1 60.1312 24.3717 32.1283 0.0000 -25.2246 0.0000
# 2 24.3717 90.3831 45.2784 0.0000 -4.6802 0.0000
# 3 32.1283 45.2784 79.8097 0.0000 -5.3760 0.0000
# 4 0.0000 0.0000 0.0000 17.9815 0.0000 2.1954
# 5 -25.2246 -4.6802 -5.3760 0.0000 32.0004 0.0000
# 6 0.0000 0.0000 0.0000 2.1954 0.0000 21.2151
#
#
#
# Elastic Compliance Matrix: (Units=1/GPa)
#
#
# Indices 1 2 3 4 5 6 
#
# 1 0.033323 -0.002556 -0.010337 0.000000 0.024157 0.000000
# 2 -0.002556 0.015673 -0.007934 0.000000 -0.001056 0.000000
# 3 -0.010337 -0.007934 0.020801 0.000000 -0.005814 0.000000
# 4 0.000000 0.000000 0.000000 0.056324 0.000000 -0.005829
# 5 0.024157 -0.001056 -0.005814 0.000000 0.049160 0.000000
# 6 0.000000 0.000000 0.000000 -0.005829 0.000000 0.047739
#
#
# Mechanical properties :
#
#
# Convention : Reuss Voigt Hill
#
# Bulk Modulus (GPa) = 35.53358 48.20899 41.87129
# Shear Modulus (GPa) = 18.24440 22.80910 20.52675
#
# Velocity S-wave (km/s) = 3.08647 3.45105 3.27384
# Velocity P-wave (km/s) = 5.59067 6.40718 6.01280
#
# Compressibility (1/GPa) = 0.02814239
#
# Stress axis : x y z
#
# Youngs Moduli (GPa) = 30.00916 63.80297 48.07525
#
# Poissons Ratio (x) = 0.16309 0.49696
# Poissons Ratio (y) = 0.07671 0.38143
# Poissons Ratio (z) = 0.31021 0.50621
#
# Static dielectric constant tensor:
#      x y z
#    x 1.647630 0.000000 -0.006830 
#    y 0.000000 1.656960 0.000000 
#    z -0.006830 0.000000 1.671070 
# 
# From -- ./inp_files/264602.got.cif
#   From: 2010.05.17/outbox.cif.g08.bks.cpg/sg15_133_cif.got.tgz:264602.got - 2010.06.03 18:47:42.
