data_PCOD9264684
_publ_section_title
;
Structure prediction by ZEFSAII (Michael W. Deem and Ramdas Pophale) SiO2 
 PCOD9264684
Probable space group: C 2/C
;
_chemical_formula_sum "Si O2"
_cell_formula_units_Z 64
_cell_length_a 14.665855
_cell_length_b 8.839032
_cell_length_c 27.617366
_cell_angle_alpha 90.000000
_cell_angle_beta 121.873182
_cell_angle_gamma 90.000000
_cell_volume 3040.283051
_symmetry_space_group_name_H-M "C 2/C"
_symmetry_group_IT_number 15
_symmetry_cell_setting 'monoclinic'
loop_
_space_group_symop_operation_xyz
x,y,z
-x,y,1/2-z
-x,-y,-z
x,-y,1/2+z
1/2+x,1/2+y,z
1/2-x,1/2+y,1/2-z
1/2-x,1/2-y,-z
1/2+x,1/2-y,1/2+z
loop_
_atom_site_type_symbol
_atom_site_label
_atom_site_fract_x
_atom_site_fract_y
_atom_site_fract_z
Si Si1 0.788843 0.886072 0.792473
Si Si2 0.570555 0.330906 0.407647
Si Si3 0.357882 0.164881 0.512428
Si Si4 0.046330 0.168748 0.010695
Si Si5 0.963886 0.180713 0.125332
Si Si6 0.254856 0.734464 0.624976
Si Si7 0.666233 0.266635 0.173608
Si Si8 0.750804 0.097838 0.111358
O O1 0.721414 0.822584 0.819146
O O2 0.730088 0.843388 0.726795
O O3 0.910538 0.816216 0.826793
O O4 0.800558 0.064010 0.803559
O O5 0.583634 0.286154 0.467247
O O6 0.553711 0.514575 0.405098
O O7 0.661031 0.277106 0.395663
O O8 0.461117 0.260569 0.356971
O O9 0.250000 0.250000 0.500000
O O10 0.448310 0.233440 0.502909
O O11 0.425833 0.175997 0.581860
O O12 0.300167 0.058028 0.456114
O O13 0.146713 0.191014 0.074073
O O14 0.000000 0.000000 0.000000
O O15 0.872898 0.158132 0.140747
O O16 0.240892 0.559832 0.635971
O O17 0.690638 0.225361 0.124854
#
# Coordination Sequence:
#
# PCOD9264684 Si02
#       8
#     8   8   8   8   8   8   8   8
#     4  11  23  42  65  86 118 160 204 252 302 366
#     4  10  21  39  60  90 122 163 204 250 297 358
#     4  10  19  35  61  92 124 154 195 248 303 363
#     4  12  20  38  65  88 124 166 206 241 300 370
#     4   9  19  39  62  86 120 165 199 236 306 376
#     4  11  24  40  60  89 125 163 205 247 304 364
#     4  11  23  43  66  89 118 157 207 254 308 359
#     4  10  22  39  61  91 123 154 201 253 303 360
#
# _framework density 21.050671000000001
#
# number of rings (size 3 to 8) (size 9 to 14) (size 15 to 20)
#    0.000    1.500    3.750    1.875    0.000    1.500 
#    0.000    7.500    0.000    0.000    0.000    0.000 
#    0.000    0.000    0.000    0.000    0.000    0.000 
#
# Total GULP energy -178170.868447 kJ/mol
# GULP energy per Si atom -5567.839639 kJ/mol
# Density = 2.100276 g / cm^3
# Si number density = 21.050671 Si / 1000 Ang^3
#
#
#
# Elastic Constant Matrix: (Units=GPa)
#
#
# Indices 1 2 3 4 5 6 
#
# 1 79.8338 14.5497 11.1473 0.0000 10.6195 0.0000
# 2 14.5497 32.0114 18.1326 0.0000 2.4437 0.0000
# 3 11.1473 18.1326 85.8380 0.0000 -0.7530 0.0000
# 4 0.0000 0.0000 0.0000 29.8873 0.0000 -4.1312
# 5 10.6195 2.4437 -0.7530 0.0000 20.6677 0.0000
# 6 0.0000 0.0000 0.0000 -4.1312 0.0000 16.6671
#
#
#
# Elastic Compliance Matrix: (Units=1/GPa)
#
#
# Indices 1 2 3 4 5 6 
#
# 1 0.014576 -0.005675 -0.000754 0.000000 -0.006846 0.000000
# 2 -0.005675 0.038112 -0.007330 0.000000 -0.001857 0.000000
# 3 -0.000754 -0.007330 0.013312 0.000000 0.001739 0.000000
# 4 0.000000 0.000000 0.000000 0.034646 0.000000 0.008588
# 5 -0.006846 -0.001857 0.001739 0.000000 0.052185 0.000000
# 6 0.000000 0.000000 0.000000 0.008588 0.000000 0.062127
#
#
# Mechanical properties :
#
#
# Convention : Reuss Voigt Hill
#
# Bulk Modulus (GPa) = 25.98705 31.70474 28.84590
# Shear Modulus (GPa) = 19.58441 23.70131 21.64286
#
# Velocity S-wave (km/s) = 3.05347 3.35911 3.20993
# Velocity P-wave (km/s) = 4.98030 5.48987 5.24128
#
# Compressibility (1/GPa) = 0.03848070
#
# Stress axis : x y z
#
# Youngs Moduli (GPa) = 68.60439 26.23820 75.12301
#
# Poissons Ratio (x) = 0.14891 0.05665
# Poissons Ratio (y) = 0.38936 0.55067
# Poissons Ratio (z) = 0.05174 0.19233
#
# Static dielectric constant tensor:
#      x y z
#    x 1.780680 0.000000 -0.019780 
#    y 0.000000 1.801020 0.000000 
#    z -0.019780 0.000000 1.771050 
# 
# From -- ./inp_files/313169.got.cif
#   From: 2010.05.17/outbox.cif.g08.bks.cpg/sg15_157_cif.got.tgz:313169.got - 2010.06.03 18:47:42.
