data_PCOD9264414
_publ_section_title
;
Structure prediction by ZEFSAII (Michael W. Deem and Ramdas Pophale) SiO2 
 PCOD9264414
Probable space group: C 2/C
;
_chemical_formula_sum "Si O2"
_cell_formula_units_Z 60
_cell_length_a 23.033097
_cell_length_b 8.025714
_cell_length_c 25.967119
_cell_angle_alpha 90.000000
_cell_angle_beta 30.313373
_cell_angle_gamma 90.000000
_cell_volume 2422.803284
_symmetry_space_group_name_H-M "C 2/C"
_symmetry_group_IT_number 15
_symmetry_cell_setting 'monoclinic'
loop_
_space_group_symop_operation_xyz
x,y,z
-x,y,1/2-z
-x,-y,-z
x,-y,1/2+z
1/2+x,1/2+y,z
1/2-x,1/2+y,1/2-z
1/2-x,1/2-y,-z
1/2+x,1/2-y,1/2+z
loop_
_atom_site_type_symbol
_atom_site_label
_atom_site_fract_x
_atom_site_fract_y
_atom_site_fract_z
Si Si1 0.070670 0.041485 0.031321
Si Si2 0.707474 0.065582 0.963109
Si Si3 0.993230 0.251645 0.514949
Si Si4 0.000000 0.487758 0.250000
Si Si5 0.448304 0.993050 0.679765
Si Si6 0.674848 0.977759 0.324274
Si Si7 0.249292 0.561871 0.040380
Si Si8 0.622498 0.599962 0.761850
O O1 0.991907 0.008567 0.141783
O O2 0.044486 0.883454 0.014572
O O3 0.198645 0.053691 0.955297
O O4 0.041119 0.185910 0.014766
O O5 0.695501 0.259923 0.989279
O O6 0.794980 0.054419 0.848960
O O7 0.576089 0.006199 0.056399
O O8 0.763492 0.990704 0.972275
O O9 0.099492 0.370488 0.421397
O O10 0.883167 0.342113 0.623501
O O11 0.035400 0.412854 0.278246
O O12 0.113368 0.589746 0.149311
O O13 0.354984 0.066334 0.711747
O O14 0.409961 0.797585 0.717543
O O15 0.803527 0.952004 0.243996
#
# Coordination Sequence:
#
# PCOD9264414 Si02
#       8
#     8   8   8   4   8   8   8   8
#     4  11  23  38  63 100 134 163 224 277 327 383
#     4  10  20  35  58  91 133 166 213 274 329 374
#     4  10  23  42  63  91 134 179 208 274 333 387
#     4  10  22  36  66  90 126 172 218 272 330 380
#     4  11  22  40  60  98 125 170 219 275 321 384
#     4  11  23  41  64  90 135 176 213 258 336 403
#     4  10  19  35  58  92 131 166 210 281 327 375
#     4  12  23  35  65  97 129 173 218 267 328 391
#
# _framework density 24.764702
#
# number of rings (size 3 to 8) (size 9 to 14) (size 15 to 20)
#    0.000    1.333    4.000    2.400    1.867    1.600 
#    0.000    0.000    0.000    8.800    0.000    0.933 
#    0.000    0.000    0.000    0.000    0.000    0.000 
#
# Total GULP energy -167597.294606 kJ/mol
# GULP energy per Si atom -5586.576487 kJ/mol
# Density = 2.470834 g / cm^3
# Si number density = 24.764702 Si / 1000 Ang^3
#
#
#
# Elastic Constant Matrix: (Units=GPa)
#
#
# Indices 1 2 3 4 5 6 
#
# 1 160.1692 10.2237 45.2896 -0.0013 3.7503 0.0006
# 2 10.2237 21.6710 6.5592 -0.0002 1.4697 -0.0019
# 3 45.2896 6.5592 106.1437 -0.0015 8.7914 0.0009
# 4 -0.0013 -0.0002 -0.0015 8.7215 0.0013 0.8138
# 5 3.7503 1.4697 8.7914 0.0013 51.3906 -0.0007
# 6 0.0006 -0.0019 0.0009 0.8138 -0.0007 27.5944
#
#
#
# Elastic Compliance Matrix: (Units=1/GPa)
#
#
# Indices 1 2 3 4 5 6 
#
# 1 0.007233 -0.002528 -0.002934 0.000001 0.000046 0.000000
# 2 -0.002528 0.047945 -0.001812 0.000000 -0.000877 0.000003
# 3 -0.002934 -0.001812 0.010918 0.000002 -0.001602 0.000000
# 4 0.000001 0.000000 0.000002 0.114976 -0.000003 -0.003391
# 5 0.000046 -0.000877 -0.001602 -0.000003 0.019755 0.000001
# 6 0.000000 0.000003 0.000000 -0.003391 0.000001 0.036339
#
#
# Mechanical properties :
#
#
# Convention : Reuss Voigt Hill
#
# Bulk Modulus (GPa) = 19.39890 45.79212 32.59551
# Shear Modulus (GPa) = 18.59463 32.60207 25.59835
#
# Velocity S-wave (km/s) = 2.74314 3.63226 3.21855
# Velocity P-wave (km/s) = 4.22888 6.01017 5.19642
#
# Compressibility (1/GPa) = 0.05154931
#
# Stress axis : x y z
#
# Youngs Moduli (GPa) = 138.25042 20.85733 91.59464
#
# Poissons Ratio (x) = 0.05272 0.26873
# Poissons Ratio (y) = 0.34943 0.16594
# Poissons Ratio (z) = 0.40562 0.03779
#
# Static dielectric constant tensor:
#      x y z
#    x 2.016970 0.000000 0.056010 
#    y 0.000000 2.018190 0.000000 
#    z 0.056010 0.000000 1.940730 
# 
# From -- ./inp_files/302069.got.cif
#   From: 2010.05.17/outbox.cif.g08.bks.cpg/sg15_152_cif.got.tgz:302069.got - 2010.06.03 18:47:42.
