data_PCOD9264013
_publ_section_title
;
Structure prediction by ZEFSAII (Michael W. Deem and Ramdas Pophale) SiO2 
 PCOD9264013
Probable space group: C 2/C
;
_chemical_formula_sum "Si O2"
_cell_formula_units_Z 48
_cell_length_a 15.721786
_cell_length_b 22.750272
_cell_length_c 13.646427
_cell_angle_alpha 90.000000
_cell_angle_beta 35.757188
_cell_angle_gamma 90.000000
_cell_volume 2852.210510
_symmetry_space_group_name_H-M "C 2/C"
_symmetry_group_IT_number 15
_symmetry_cell_setting 'monoclinic'
loop_
_space_group_symop_operation_xyz
x,y,z
-x,y,1/2-z
-x,-y,-z
x,-y,1/2+z
1/2+x,1/2+y,z
1/2-x,1/2+y,1/2-z
1/2-x,1/2-y,-z
1/2+x,1/2-y,1/2+z
loop_
_atom_site_type_symbol
_atom_site_label
_atom_site_fract_x
_atom_site_fract_y
_atom_site_fract_z
Si Si1 0.120903 0.312980 0.554421
Si Si2 0.427041 0.973435 0.424762
Si Si3 0.915906 0.034204 0.231006
Si Si4 0.376287 0.319003 0.444899
Si Si5 0.890808 0.590922 0.585339
Si Si6 0.956456 0.913068 0.086558
O O1 0.248817 0.345202 0.496020
O O2 0.169271 0.246814 0.478939
O O3 0.069975 0.349819 0.508987
O O4 0.000000 0.309185 0.750000
O O5 0.500000 0.977485 0.250000
O O6 0.255657 0.958362 0.588332
O O7 0.519732 0.926700 0.401879
O O8 0.428435 0.036982 0.476838
O O9 0.000000 0.051652 0.250000
O O10 0.956743 0.966801 0.164281
O O11 0.969229 0.068302 0.084646
O O12 0.500000 0.309756 0.250000
O O13 0.447924 0.360081 0.459104
O O14 0.716893 0.596327 0.767177
#
# Coordination Sequence:
#
# PCOD9264013 Si02
#       6
#     8   8   8   8   8   8
#     4  10  21  32  53  81 109 140 174 217 264 314
#     4  10  21  35  53  77 108 138 176 218 263 313
#     4  10  21  34  53  79 103 141 179 215 261 310
#     4  10  19  35  53  79 109 140 176 215 263 311
#     4  10  20  35  52  77 106 143 174 214 265 309
#     4  10  20  34  55  75 107 141 178 215 256 316
#
# _framework density 16.829052000000001
#
# number of rings (size 3 to 8) (size 9 to 14) (size 15 to 20)
#    0.000    2.000    1.667    2.000    4.667    1.333 
#    0.000    0.000    0.000    1.000    0.000    4.667 
#    0.000    0.000    0.000    0.000    0.000    0.000 
#
# Total GULP energy -133644.508273 kJ/mol
# GULP energy per Si atom -5568.521178 kJ/mol
# Density = 1.679075 g / cm^3
# Si number density = 16.829052 Si / 1000 Ang^3
#
#
#
# Elastic Constant Matrix: (Units=GPa)
#
#
# Indices 1 2 3 4 5 6 
#
# 1 115.7663 43.2886 45.7928 0.0010 2.7933 -0.0003
# 2 43.2886 65.6127 17.2838 0.0007 4.8671 -0.0003
# 3 45.7928 17.2838 109.3885 0.0013 8.3243 -0.0006
# 4 0.0010 0.0007 0.0013 20.9988 -0.0007 4.5957
# 5 2.7933 4.8671 8.3243 -0.0007 20.9346 0.0003
# 6 -0.0003 -0.0003 -0.0006 4.5957 0.0003 32.7973
#
#
#
# Elastic Compliance Matrix: (Units=1/GPa)
#
#
# Indices 1 2 3 4 5 6 
#
# 1 0.013235 -0.007690 -0.004462 0.000000 0.001796 0.000000
# 2 -0.007690 0.020530 0.000269 -0.000001 -0.003854 0.000000
# 3 -0.004462 0.000269 0.011268 -0.000001 -0.003947 0.000000
# 4 0.000000 -0.000001 -0.000001 0.049128 0.000002 -0.006884
# 5 0.001796 -0.003854 -0.003947 0.000002 0.049994 -0.000001
# 6 0.000000 0.000000 0.000000 -0.006884 -0.000001 0.031455
#
#
# Mechanical properties :
#
#
# Convention : Reuss Voigt Hill
#
# Bulk Modulus (GPa) = 47.02440 55.94420 51.48430
# Shear Modulus (GPa) = 24.21714 27.23962 25.72838
#
# Velocity S-wave (km/s) = 3.79754 4.02756 3.91424
# Velocity P-wave (km/s) = 6.87252 7.41236 7.14754
#
# Compressibility (1/GPa) = 0.02126556
#
# Stress axis : x y z
#
# Youngs Moduli (GPa) = 75.55511 48.71034 88.74928
#
# Poissons Ratio (x) = 0.37458 0.39603
# Poissons Ratio (y) = 0.58101 -0.02385
# Poissons Ratio (z) = 0.33715 -0.01309
#
# Static dielectric constant tensor:
#      x y z
#    x 1.526090 0.000000 0.029410 
#    y 0.000000 1.603160 0.000000 
#    z 0.029410 0.000000 1.499650 
# 
# From -- ./inp_files/50395.got.cif
#   From: 2010.05.17/outbox.cif.g08.bks.cpg/sg15_26_cif.got.tgz:50395.got - 2010.06.03 18:47:42.
