data_PCOD9264530
_publ_section_title
;
Structure prediction by ZEFSAII (Michael W. Deem and Ramdas Pophale) SiO2 
 PCOD9264530
Probable space group: C 2/C
;
_chemical_formula_sum "Si O2"
_cell_formula_units_Z 44
_cell_length_a 13.679105
_cell_length_b 27.640299
_cell_length_c 9.315148
_cell_angle_alpha 90.000000
_cell_angle_beta 149.656657
_cell_angle_gamma 90.000000
_cell_volume 1779.249532
_symmetry_space_group_name_H-M "C 2/C"
_symmetry_group_IT_number 15
_symmetry_cell_setting 'monoclinic'
loop_
_space_group_symop_operation_xyz
x,y,z
-x,y,1/2-z
-x,-y,-z
x,-y,1/2+z
1/2+x,1/2+y,z
1/2-x,1/2+y,1/2-z
1/2-x,1/2-y,-z
1/2+x,1/2-y,1/2+z
loop_
_atom_site_type_symbol
_atom_site_label
_atom_site_fract_x
_atom_site_fract_y
_atom_site_fract_z
Si Si1 0.263892 0.935475 0.433007
Si Si2 0.500000 0.907793 0.250000
Si Si3 0.092979 0.318905 0.558201
Si Si4 0.706639 0.981971 0.324460
Si Si5 0.814606 0.174143 0.613063
Si Si6 0.971683 0.783298 0.874072
O O1 0.500000 0.931962 0.750000
O O2 0.203664 0.957387 0.202254
O O3 0.180711 0.882106 0.341561
O O4 0.205627 0.971494 0.487095
O O5 0.536698 0.871613 0.429582
O O6 0.665641 0.943387 0.399872
O O7 0.951546 0.274711 0.342887
O O8 0.289640 0.306992 0.720914
O O9 0.134084 0.318291 0.779469
O O10 0.500000 0.000000 0.000000
O O11 0.000000 0.186110 0.750000
O O12 0.842882 0.205314 0.791107
O O13 0.000000 0.802265 0.750000
#
# Coordination Sequence:
#
# PCOD9264530 Si02
#       6
#     8   4   8   8   8   8
#     4  10  20  37  63  93 121 162 211 260 305 365
#     4  12  22  36  66  98 130 164 208 260 320 356
#     4  11  24  40  66  90 128 166 206 260 313 375
#     4  10  19  35  59  92 124 159 209 261 300 361
#     4  10  24  43  63  90 130 166 208 257 318 372
#     4  11  24  43  61  92 124 164 210 261 311 375
#
# _framework density 24.729527000000001
#
# number of rings (size 3 to 8) (size 9 to 14) (size 15 to 20)
#    0.000    1.455    3.636    3.273    2.545    1.455 
#    0.000    0.909    0.000    0.000    0.000    0.000 
#    0.000    0.000    0.000    0.000    0.000    0.000 
#
# Total GULP energy -123141.779264 kJ/mol
# GULP energy per Si atom -5597.353603 kJ/mol
# Density = 2.467324 g / cm^3
# Si number density = 24.729527 Si / 1000 Ang^3
#
#
#
# Elastic Constant Matrix: (Units=GPa)
#
#
# Indices 1 2 3 4 5 6 
#
# 1 83.5245 2.1673 37.3599 0.0000 -30.3609 0.0000
# 2 2.1673 104.6438 17.9994 0.0000 -15.6203 0.0000
# 3 37.3599 17.9994 73.5147 0.0000 -32.0134 0.0000
# 4 0.0000 0.0000 0.0000 13.4667 0.0000 -14.1248
# 5 -30.3609 -15.6203 -32.0134 0.0000 49.7653 0.0000
# 6 0.0000 0.0000 0.0000 -14.1248 0.0000 31.2255
#
#
#
# Elastic Compliance Matrix: (Units=1/GPa)
#
#
# Indices 1 2 3 4 5 6 
#
# 1 0.017250 0.001758 -0.006075 0.000000 0.007167 0.000000
# 2 0.001758 0.010327 -0.002144 0.000000 0.002935 0.000000
# 3 -0.006075 -0.002144 0.021265 0.000000 0.009300 0.000000
# 4 0.000000 0.000000 0.000000 0.141295 0.000000 0.063914
# 5 0.007167 0.002935 0.009300 0.000000 0.031371 0.000000
# 6 0.000000 0.000000 0.000000 0.063914 0.000000 0.060937
#
#
# Mechanical properties :
#
#
# Convention : Reuss Voigt Hill
#
# Bulk Modulus (GPa) = 27.84099 41.85956 34.85028
# Shear Modulus (GPa) = 16.26869 32.50194 24.38532
#
# Velocity S-wave (km/s) = 2.56767 3.62926 3.14360
# Velocity P-wave (km/s) = 4.48031 5.87586 5.22489
#
# Compressibility (1/GPa) = 0.03591826
#
# Stress axis : x y z
#
# Youngs Moduli (GPa) = 57.97212 96.83732 47.02552
#
# Poissons Ratio (x) = -0.17020 0.28570
# Poissons Ratio (y) = -0.10189 0.10081
# Poissons Ratio (z) = 0.35221 0.20758
#
# Static dielectric constant tensor:
#      x y z
#    x 1.979530 0.000000 0.034360 
#    y 0.000000 1.887840 0.000000 
#    z 0.034360 0.000000 2.041990 
# 
# From -- ./inp_files/43339.got.cif
#   From: 2010.05.17/outbox.cif.g08.bks.cpg/sg15_22_cif.got.tgz:43339.got - 2010.06.03 18:47:42.
