data_PCOD9264897
_publ_section_title
;
Structure prediction by ZEFSAII (Michael W. Deem and Ramdas Pophale) SiO2 
 PCOD9264897
Probable space group: C 2/C
;
_chemical_formula_sum "Si O2"
_cell_formula_units_Z 48
_cell_length_a 18.924920
_cell_length_b 9.903386
_cell_length_c 20.242030
_cell_angle_alpha 90.000000
_cell_angle_beta 151.442337
_cell_angle_gamma 90.000000
_cell_volume 1813.588517
_symmetry_space_group_name_H-M "C 2/C"
_symmetry_group_IT_number 15
_symmetry_cell_setting 'monoclinic'
loop_
_space_group_symop_operation_xyz
x,y,z
-x,y,1/2-z
-x,-y,-z
x,-y,1/2+z
1/2+x,1/2+y,z
1/2-x,1/2+y,1/2-z
1/2-x,1/2-y,-z
1/2+x,1/2-y,1/2+z
loop_
_atom_site_type_symbol
_atom_site_label
_atom_site_fract_x
_atom_site_fract_y
_atom_site_fract_z
Si Si1 0.993356 0.136481 0.040247
Si Si2 0.261219 0.190996 0.185552
Si Si3 0.680097 0.896904 0.315103
Si Si4 0.930309 0.963327 0.752797
Si Si5 0.362046 0.032613 0.567523
Si Si6 0.065160 0.763548 0.405391
O O1 0.123216 0.228820 0.117412
O O2 0.050754 0.093394 0.159303
O O3 0.000000 0.000000 0.000000
O O4 0.824571 0.186517 0.910913
O O5 0.293406 0.032712 0.205909
O O6 0.417141 0.257312 0.328972
O O7 0.208706 0.225587 0.068346
O O8 0.694945 0.921575 0.406965
O O9 0.504052 0.877701 0.163746
O O10 0.761630 0.972744 0.590695
O O11 0.031120 0.099996 0.838544
O O12 0.000000 0.878375 0.750000
O O13 0.419330 0.876987 0.619980
#
# Coordination Sequence:
#
# PCOD9264897 Si02
#       6
#     8   8   8   8   8   8
#     4  10  19  36  49  70 107 149 167 202 258 308
#     4  10  20  33  49  71 106 143 172 201 255 305
#     4   9  18  33  48  70 110 142 160 206 249 303
#     4  12  21  31  53  79 108 137 175 204 252 307
#     4  10  20  31  47  80 105 131 176 204 250 308
#     4  11  20  31  50  78 109 138 166 209 248 312
#
# _framework density 26.466861999999999
#
# number of rings (size 3 to 8) (size 9 to 14) (size 15 to 20)
#    0.000    1.667    6.667    0.000    4.667    1.333 
#    0.000    9.167    0.000    0.000    0.000    1.167 
#    0.000    0.000    0.000    0.000    0.000    0.000 
#
# Total GULP energy -134095.811322 kJ/mol
# GULP energy per Si atom -5587.325472 kJ/mol
# Density = 2.640662 g / cm^3
# Si number density = 26.466862 Si / 1000 Ang^3
#
#
#
# Elastic Constant Matrix: (Units=GPa)
#
#
# Indices 1 2 3 4 5 6 
#
# 1 128.6674 12.2873 42.4982 0.0003 21.6026 0.0001
# 2 12.2873 77.7805 13.2176 0.0008 0.3254 0.0003
# 3 42.4982 13.2176 187.4934 0.0014 2.4703 0.0005
# 4 0.0003 0.0008 0.0014 19.6011 0.0004 3.4712
# 5 21.6026 0.3254 2.4703 0.0004 64.4357 0.0001
# 6 0.0001 0.0003 0.0005 3.4712 0.0001 15.4801
#
#
#
# Elastic Compliance Matrix: (Units=1/GPa)
#
#
# Indices 1 2 3 4 5 6 
#
# 1 0.009005 -0.001083 -0.001926 0.000000 -0.002940 0.000000
# 2 -0.001083 0.013143 -0.000685 0.000000 0.000323 0.000000
# 3 -0.001926 -0.000685 0.005813 0.000000 0.000426 0.000000
# 4 0.000000 0.000000 0.000000 0.053127 0.000000 -0.011913
# 5 -0.002940 0.000323 0.000426 0.000000 0.016487 0.000000
# 6 0.000000 0.000000 0.000000 -0.011913 0.000000 0.067271
#
#
# Mechanical properties :
#
#
# Convention : Reuss Voigt Hill
#
# Bulk Modulus (GPa) = 48.60953 58.88306 53.74629
# Shear Modulus (GPa) = 27.91868 41.63259 34.77564
#
# Velocity S-wave (km/s) = 3.25138 3.97042 3.62875
# Velocity P-wave (km/s) = 5.70099 6.58142 6.15696
#
# Compressibility (1/GPa) = 0.02057210
#
# Stress axis : x y z
#
# Youngs Moduli (GPa) = 111.04767 76.08682 172.03444
#
# Poissons Ratio (x) = 0.08240 0.33135
# Poissons Ratio (y) = 0.12026 0.11790
# Poissons Ratio (z) = 0.21389 0.05214
#
# Static dielectric constant tensor:
#      x y z
#    x 2.157700 0.000000 0.053590 
#    y 0.000000 2.135170 0.000000 
#    z 0.053590 0.000000 2.093590 
# 
# From -- ./inp_files/211437.got.cif
#   From: 2010.05.17/outbox.cif.g08.bks.cpg/sg15_106_cif.got.tgz:211437.got - 2010.06.03 18:47:42.
