data_PCOD9264272
_publ_section_title
;
Structure prediction by ZEFSAII (Michael W. Deem and Ramdas Pophale) SiO2 
 PCOD9264272
Probable space group: C 2/C
;
_chemical_formula_sum "Si O2"
_cell_formula_units_Z 44
_cell_length_a 10.765528
_cell_length_b 18.643274
_cell_length_c 12.387408
_cell_angle_alpha 90.000000
_cell_angle_beta 70.769441
_cell_angle_gamma 90.000000
_cell_volume 2347.482366
_symmetry_space_group_name_H-M "C 2/C"
_symmetry_group_IT_number 15
_symmetry_cell_setting 'monoclinic'
loop_
_space_group_symop_operation_xyz
x,y,z
-x,y,1/2-z
-x,-y,-z
x,-y,1/2+z
1/2+x,1/2+y,z
1/2-x,1/2+y,1/2-z
1/2-x,1/2-y,-z
1/2+x,1/2-y,1/2+z
loop_
_atom_site_type_symbol
_atom_site_label
_atom_site_fract_x
_atom_site_fract_y
_atom_site_fract_z
Si Si1 0.541476 0.387184 0.488531
Si Si2 0.500000 0.149465 0.750000
Si Si3 0.234219 0.233410 0.877169
Si Si4 0.415746 0.960735 0.436802
Si Si5 0.807214 0.031556 0.124287
Si Si6 0.703712 0.388202 0.650527
O O1 0.606024 0.318238 0.410764
O O2 0.613566 0.457053 0.417174
O O3 0.387623 0.407988 0.533342
O O4 0.577481 0.379404 0.607051
O O5 0.365471 0.193285 0.799703
O O6 0.495898 0.096361 0.650326
O O7 0.240858 0.312138 0.823013
O O8 0.250000 0.250000 0.000000
O O9 0.306182 0.917725 0.534074
O O10 0.500000 0.000000 0.500000
O O11 0.337751 0.013791 0.378549
O O12 0.808466 0.056899 0.247593
#
# Coordination Sequence:
#
# PCOD9264272 Si02
#       6
#     8   4   8   8   8   8
#     4   9  19  35  55  88 119 143 194 242 300 354
#     4  12  20  38  60  84 120 152 196 250 296 364
#     4  10  20  35  56  92 114 151 193 242 302 357
#     4  11  23  37  58  84 117 159 202 244 296 356
#     4  10  19  35  57  86 114 151 194 246 293 351
#     4  10  20  34  58  91 113 150 194 247 302 353
#
# _framework density 18.743485
#
# number of rings (size 3 to 8) (size 9 to 14) (size 15 to 20)
#    0.000    1.818    5.455    1.636    5.091    0.000 
#    0.000    0.000    0.000    6.545    0.000    0.000 
#    0.000    0.000    0.000    0.000    0.000    0.000 
#
# Total GULP energy -122513.421024 kJ/mol
# GULP energy per Si atom -5568.791865 kJ/mol
# Density = 1.870082 g / cm^3
# Si number density = 18.743485 Si / 1000 Ang^3
#
#
#
# Elastic Constant Matrix: (Units=GPa)
#
#
# Indices 1 2 3 4 5 6 
#
# 1 45.1578 20.2743 14.1510 0.0000 -5.8739 0.0000
# 2 20.2743 98.7411 35.0580 0.0000 -0.2339 0.0000
# 3 14.1510 35.0580 89.5089 0.0000 -8.8249 0.0000
# 4 0.0000 0.0000 0.0000 28.8317 0.0000 -7.1774
# 5 -5.8739 -0.2339 -8.8249 0.0000 21.3367 0.0000
# 6 0.0000 0.0000 0.0000 -7.1774 0.0000 16.7098
#
#
#
# Elastic Compliance Matrix: (Units=1/GPa)
#
#
# Indices 1 2 3 4 5 6 
#
# 1 0.025562 -0.004670 -0.001588 0.000000 0.006329 0.000000
# 2 -0.004670 0.012687 -0.004529 0.000000 -0.003020 0.000000
# 3 -0.001588 -0.004529 0.013708 0.000000 0.005183 0.000000
# 4 0.000000 0.000000 0.000000 0.038837 0.000000 0.016682
# 5 0.006329 -0.003020 0.005183 0.000000 0.050721 0.000000
# 6 0.000000 0.000000 0.000000 0.016682 0.000000 0.067011
#
#
# Mechanical properties :
#
#
# Convention : Reuss Voigt Hill
#
# Bulk Modulus (GPa) = 32.91220 41.37494 37.14357
# Shear Modulus (GPa) = 20.81373 24.30392 22.55883
#
# Velocity S-wave (km/s) = 3.33596 3.60482 3.47299
# Velocity P-wave (km/s) = 5.69522 6.28081 5.99517
#
# Compressibility (1/GPa) = 0.03038387
#
# Stress axis : x y z
#
# Youngs Moduli (GPa) = 39.12041 78.82056 72.95084
#
# Poissons Ratio (x) = 0.36807 0.11587
# Poissons Ratio (y) = 0.18268 0.33036
# Poissons Ratio (z) = 0.06213 0.35695
#
# Static dielectric constant tensor:
#      x y z
#    x 1.697870 0.000000 -0.048290 
#    y 0.000000 1.698270 0.000000 
#    z -0.048290 0.000000 1.655880 
# 
# From -- ./inp_files/87194.got.cif
#   From: 2010.05.17/outbox.cif.g08.bks.cpg/sg15_44_cif.got.tgz:87194.got - 2010.06.03 18:47:42.
