data_PCOD9264211
_publ_section_title
;
Structure prediction by ZEFSAII (Michael W. Deem and Ramdas Pophale) SiO2 
 PCOD9264211
Probable space group: C 2/C
;
_chemical_formula_sum "Si O2"
_cell_formula_units_Z 56
_cell_length_a 14.931138
_cell_length_b 11.919223
_cell_length_c 24.611254
_cell_angle_alpha 90.000000
_cell_angle_beta 146.147724
_cell_angle_gamma 90.000000
_cell_volume 2439.897346
_symmetry_space_group_name_H-M "C 2/C"
_symmetry_group_IT_number 15
_symmetry_cell_setting 'monoclinic'
loop_
_space_group_symop_operation_xyz
x,y,z
-x,y,1/2-z
-x,-y,-z
x,-y,1/2+z
1/2+x,1/2+y,z
1/2-x,1/2+y,1/2-z
1/2-x,1/2-y,-z
1/2+x,1/2-y,1/2+z
loop_
_atom_site_type_symbol
_atom_site_label
_atom_site_fract_x
_atom_site_fract_y
_atom_site_fract_z
Si Si1 0.489148 0.003766 0.369723
Si Si2 0.553093 0.619512 0.143822
Si Si3 0.864540 0.757789 0.465636
Si Si4 0.366429 0.757042 0.799034
Si Si5 0.199883 0.040590 0.412887
Si Si6 0.701997 0.571872 0.656299
Si Si7 0.818111 0.625558 0.882152
O O1 0.670256 0.968546 0.472819
O O2 0.384014 0.944998 0.269777
O O3 0.392085 0.962828 0.375235
O O4 0.483604 0.137418 0.356788
O O5 0.703403 0.687849 0.241271
O O6 0.475886 0.542637 0.150584
O O7 0.620000 0.547906 0.126444
O O8 0.423015 0.705319 0.054853
O O9 0.734334 0.659856 0.402053
O O10 0.807179 0.867900 0.405552
O O11 0.026958 0.700165 0.523004
O O12 0.398807 0.655110 0.855214
O O13 0.309018 0.704532 0.713056
O O14 0.240751 0.941486 0.392323
#
# Coordination Sequence:
#
# PCOD9264211 Si02
#       7
#     8   8   8   8   8   8   8
#     4   9  18  34  56  79 109 149 186 224 277 339
#     4  10  22  36  56  85 113 140 185 238 277 320
#     4  10  19  35  58  80 109 151 188 218 273 347
#     4   9  18  36  55  78 109 151 189 222 271 339
#     4  11  20  36  59  87 113 141 184 239 280 321
#     4  10  19  35  57  78 107 150 189 223 270 339
#     4   9  18  32  57  83 109 150 190 218 272 345
#
# _framework density 22.951785000000001
#
# number of rings (size 3 to 8) (size 9 to 14) (size 15 to 20)
#    0.000    2.286    0.000    5.143    0.000    0.000 
#    0.000   16.429    0.000    8.571    0.000    0.000 
#    0.000    0.000    0.000    0.000    0.000    0.000 
#
# Total GULP energy -156417.313742 kJ/mol
# GULP energy per Si atom -5586.332634 kJ/mol
# Density = 2.289955 g / cm^3
# Si number density = 22.951785 Si / 1000 Ang^3
#
#
#
# Elastic Constant Matrix: (Units=GPa)
#
#
# Indices 1 2 3 4 5 6 
#
# 1 47.2805 2.4307 5.2995 0.0000 10.8484 0.0000
# 2 2.4307 93.5947 3.6071 0.0000 6.1116 0.0000
# 3 5.2995 3.6071 41.8087 0.0000 -4.8166 0.0000
# 4 0.0000 0.0000 0.0000 34.7253 0.0000 -7.1717
# 5 10.8484 6.1116 -4.8166 0.0000 11.4038 0.0000
# 6 0.0000 0.0000 0.0000 -7.1717 0.0000 26.8825
#
#
#
# Elastic Compliance Matrix: (Units=1/GPa)
#
#
# Indices 1 2 3 4 5 6 
#
# 1 0.029210 0.001609 -0.007507 0.000000 -0.031820 0.000000
# 2 0.001609 0.011280 -0.002155 0.000000 -0.008485 0.000000
# 3 -0.007507 -0.002155 0.027342 0.000000 0.019845 0.000000
# 4 0.000000 0.000000 0.000000 0.030477 0.000000 0.008131
# 5 -0.031820 -0.008485 0.019845 0.000000 0.130890 0.000000
# 6 0.000000 0.000000 0.000000 0.008131 0.000000 0.039368
#
#
# Mechanical properties :
#
#
# Convention : Reuss Voigt Hill
#
# Bulk Modulus (GPa) = 19.33288 22.81764 21.07526
# Shear Modulus (GPa) = 16.56093 26.02541 21.29317
#
# Velocity S-wave (km/s) = 2.68909 3.37102 3.04918
# Velocity P-wave (km/s) = 4.25243 5.01147 4.64747
#
# Compressibility (1/GPa) = 0.05172536
#
# Stress axis : x y z
#
# Youngs Moduli (GPa) = 34.23453 88.65483 36.57350
#
# Poissons Ratio (x) = -0.14260 0.27457
# Poissons Ratio (y) = -0.05507 0.07880
# Poissons Ratio (z) = 0.25701 0.19102
#
# Static dielectric constant tensor:
#      x y z
#    x 1.860140 0.000000 -0.021170 
#    y 0.000000 1.863040 0.000000 
#    z -0.021170 0.000000 1.887190 
# 
# From -- ./inp_files/295917.got.cif
#   From: 2010.05.17/outbox.cif.g08.bks.cpg/sg15_148_cif.got.tgz:295917.got - 2010.06.03 18:47:42.
