data_PCOD9264901
_publ_section_title
;
Structure prediction by ZEFSAII (Michael W. Deem and Ramdas Pophale) SiO2 
 PCOD9264901
Probable space group: C 2/C
;
_chemical_formula_sum "Si O2"
_cell_formula_units_Z 60
_cell_length_a 11.145112
_cell_length_b 21.278910
_cell_length_c 24.954995
_cell_angle_alpha 90.000000
_cell_angle_beta 143.687357
_cell_angle_gamma 90.000000
_cell_volume 3504.718220
_symmetry_space_group_name_H-M "C 2/C"
_symmetry_group_IT_number 15
_symmetry_cell_setting 'monoclinic'
loop_
_space_group_symop_operation_xyz
x,y,z
-x,y,1/2-z
-x,-y,-z
x,-y,1/2+z
1/2+x,1/2+y,z
1/2-x,1/2+y,1/2-z
1/2-x,1/2-y,-z
1/2+x,1/2-y,1/2+z
loop_
_atom_site_type_symbol
_atom_site_label
_atom_site_fract_x
_atom_site_fract_y
_atom_site_fract_z
Si Si1 0.151159 0.302582 0.199456
Si Si2 0.990929 0.920125 0.929884
Si Si3 0.081525 0.936754 0.088695
Si Si4 0.187552 0.680360 0.000186
Si Si5 0.237847 0.307581 0.829949
Si Si6 0.960154 0.263316 0.507189
Si Si7 0.000000 0.362709 0.250000
Si Si8 0.946759 0.826025 0.100616
O O1 0.181200 0.230288 0.192647
O O2 0.021587 0.318989 0.205431
O O3 0.377484 0.327140 0.291798
O O4 0.027023 0.333577 0.106216
O O5 0.787029 0.880753 0.846413
O O6 0.044397 0.926116 0.012163
O O7 0.159073 0.875511 0.960929
O O8 0.952605 0.992833 0.902741
O O9 0.303632 0.907387 0.178571
O O10 0.929174 0.892463 0.065978
O O11 0.135148 0.695011 0.043091
O O12 0.250000 0.750000 0.000000
O O13 0.366486 0.281593 0.927011
O O14 0.000000 0.294900 0.750000
O O15 0.767678 0.303880 0.455521
O O16 0.021375 0.222150 0.580633
#
# Coordination Sequence:
#
# PCOD9264901 Si02
#       8
#     8   8   8   8   8   8   4   8
#     4  10  20  29  54  76 109 127 178 217 270 301
#     4  11  21  35  53  74 111 139 179 211 267 320
#     4  10  21  35  52  76 106 146 171 220 256 322
#     4  11  19  33  51  81 104 139 171 226 260 322
#     4  11  20  34  51  82 104 139 170 225 265 317
#     4  10  20  32  57  76 109 135 179 218 274 305
#     4  10  20  34  52  82 102 136 178 216 264 318
#     4  10  19  36  51  81 105 143 172 226 259 323
#
# _framework density 17.119778
#
# number of rings (size 3 to 8) (size 9 to 14) (size 15 to 20)
#    0.000    1.600    6.667    0.000    2.800    0.000 
#    0.000    0.667    0.000    0.000    0.000   14.933 
#    0.000    0.000    0.000    0.000    0.000    0.000 
#
# Total GULP energy -167029.216716 kJ/mol
# GULP energy per Si atom -5567.640557 kJ/mol
# Density = 1.708081 g / cm^3
# Si number density = 17.119778 Si / 1000 Ang^3
#
#
#
# Elastic Constant Matrix: (Units=GPa)
#
#
# Indices 1 2 3 4 5 6 
#
# 1 78.6324 64.4013 6.9178 -0.0001 3.3737 -0.0001
# 2 64.4013 125.1842 9.3537 0.0000 5.0432 0.0000
# 3 6.9178 9.3537 42.6006 -0.0001 7.9413 -0.0001
# 4 -0.0001 0.0000 -0.0001 20.7647 -0.0001 0.3592
# 5 3.3737 5.0432 7.9413 -0.0001 18.8505 -0.0001
# 6 -0.0001 0.0000 -0.0001 0.3592 -0.0001 25.4450
#
#
#
# Elastic Compliance Matrix: (Units=1/GPa)
#
#
# Indices 1 2 3 4 5 6 
#
# 1 0.022033 -0.011239 -0.001015 0.000000 -0.000509 0.000000
# 2 -0.011239 0.013896 -0.000985 0.000000 -0.001291 0.000000
# 3 -0.001015 -0.000985 0.025798 0.000000 -0.010423 0.000000
# 4 0.000000 0.000000 0.000000 0.048171 0.000000 -0.000680
# 5 -0.000509 -0.001291 -0.010423 0.000000 0.057876 0.000000
# 6 0.000000 0.000000 0.000000 -0.000680 0.000000 0.039310
#
#
# Mechanical properties :
#
#
# Convention : Reuss Voigt Hill
#
# Bulk Modulus (GPa) = 28.37041 45.30699 36.83870
# Shear Modulus (GPa) = 20.38220 24.06166 22.22193
#
# Velocity S-wave (km/s) = 3.45420 3.75305 3.60672
# Velocity P-wave (km/s) = 5.70231 6.73073 6.23775
#
# Compressibility (1/GPa) = 0.03524799
#
# Stress axis : x y z
#
# Youngs Moduli (GPa) = 45.38589 71.96497 38.76268
#
# Poissons Ratio (x) = 0.80879 0.03936
# Poissons Ratio (y) = 0.51008 0.03819
# Poissons Ratio (z) = 0.04609 0.07091
#
# Static dielectric constant tensor:
#      x y z
#    x 1.618350 0.000000 0.014960 
#    y 0.000000 1.577980 0.000000 
#    z 0.014960 0.000000 1.621610 
# 
# From -- ./inp_files/293370.got.cif
#   From: 2010.05.17/outbox.cif.g08.bks.cpg/sg15_147_cif.got.tgz:293370.got - 2010.06.03 18:47:42.
