data_PCOD9264381
_publ_section_title
;
Structure prediction by ZEFSAII (Michael W. Deem and Ramdas Pophale) SiO2 
 PCOD9264381
Probable space group: C 2/C
;
_chemical_formula_sum "Si O2"
_cell_formula_units_Z 48
_cell_length_a 17.675756
_cell_length_b 8.766128
_cell_length_c 30.370178
_cell_angle_alpha 90.000000
_cell_angle_beta 31.693574
_cell_angle_gamma 90.000000
_cell_volume 2472.313605
_symmetry_space_group_name_H-M "C 2/C"
_symmetry_group_IT_number 15
_symmetry_cell_setting 'monoclinic'
loop_
_space_group_symop_operation_xyz
x,y,z
-x,y,1/2-z
-x,-y,-z
x,-y,1/2+z
1/2+x,1/2+y,z
1/2-x,1/2+y,1/2-z
1/2-x,1/2-y,-z
1/2+x,1/2-y,1/2+z
loop_
_atom_site_type_symbol
_atom_site_label
_atom_site_fract_x
_atom_site_fract_y
_atom_site_fract_z
Si Si1 0.740577 0.727367 0.569502
Si Si2 0.199623 0.717814 0.318906
Si Si3 0.501934 0.467553 0.050894
Si Si4 0.844639 0.455075 0.098077
Si Si5 0.078808 0.428920 0.590597
Si Si6 0.042617 0.263753 0.374975
O O1 0.746224 0.632055 0.611555
O O2 0.786232 0.612023 0.507876
O O3 0.608048 0.833461 0.620585
O O4 0.872886 0.844736 0.505905
O O5 0.144835 0.884336 0.360796
O O6 0.222098 0.610188 0.350014
O O7 0.336729 0.719974 0.220019
O O8 0.066152 0.640864 0.358854
O O9 0.528065 0.615112 0.068110
O O10 0.500000 0.500000 0.000000
O O11 0.880076 0.346434 0.121760
O O12 0.000000 0.500000 0.000000
O O13 0.057807 0.610183 0.598832
#
# Coordination Sequence:
#
# PCOD9264381 Si02
#       6
#     8   8   8   8   8   8
#     4  10  19  35  58  87 113 148 201 249 297 349
#     4  10  21  35  57  85 117 155 200 238 301 364
#     4  11  19  31  56  88 107 148 205 244 284 351
#     4  11  17  36  59  86 112 162 205 243 285 365
#     4   9  20  36  57  85 115 150 193 250 302 352
#     4  11  20  34  57  86 119 153 198 250 301 359
#
# _framework density 19.415013999999999
#
# number of rings (size 3 to 8) (size 9 to 14) (size 15 to 20)
#    0.000    1.667    6.667    2.000    0.000    0.667 
#    0.000    0.833    0.000    0.000    8.667    0.000 
#    0.000    0.000    0.000    0.000    0.000    0.000 
#
# Total GULP energy -133828.728079 kJ/mol
# GULP energy per Si atom -5576.197003 kJ/mol
# Density = 1.937082 g / cm^3
# Si number density = 19.415014 Si / 1000 Ang^3
#
#
#
# Elastic Constant Matrix: (Units=GPa)
#
#
# Indices 1 2 3 4 5 6 
#
# 1 94.9783 43.9487 21.8783 0.0000 12.6372 -0.0002
# 2 43.9487 122.7909 35.0196 0.0000 8.9954 0.0003
# 3 21.8783 35.0196 67.6517 0.0000 23.5451 0.0001
# 4 0.0000 0.0000 0.0000 27.2731 0.0000 9.2431
# 5 12.6372 8.9954 23.5451 0.0000 19.7135 0.0000
# 6 -0.0002 0.0003 0.0001 9.2431 0.0000 47.6831
#
#
#
# Elastic Compliance Matrix: (Units=1/GPa)
#
#
# Indices 1 2 3 4 5 6 
#
# 1 0.013411 -0.004396 0.000398 0.000000 -0.007066 0.000000
# 2 -0.004396 0.011077 -0.006048 0.000000 0.004987 0.000000
# 3 0.000398 -0.006048 0.028943 0.000000 -0.032063 0.000000
# 4 0.000000 0.000000 0.000000 0.039244 0.000000 -0.007607
# 5 -0.007066 0.004987 -0.032063 0.000000 0.091276 0.000000
# 6 0.000000 0.000000 0.000000 -0.007607 0.000000 0.022446
#
#
# Mechanical properties :
#
#
# Convention : Reuss Voigt Hill
#
# Bulk Modulus (GPa) = 29.99503 54.12378 42.05941
# Shear Modulus (GPa) = 21.04351 31.23891 26.14121
#
# Velocity S-wave (km/s) = 3.29580 4.01560 3.67337
# Velocity P-wave (km/s) = 5.47412 7.03120 6.30095
#
# Compressibility (1/GPa) = 0.03333885
#
# Stress axis : x y z
#
# Youngs Moduli (GPa) = 74.56338 90.27905 34.55094
#
# Poissons Ratio (x) = 0.39686 -0.01374
# Poissons Ratio (y) = 0.32777 0.20896
# Poissons Ratio (z) = -0.02965 0.54599
#
# Static dielectric constant tensor:
#      x y z
#    x 1.757930 0.000000 0.013260 
#    y 0.000000 1.751690 0.000000 
#    z 0.013260 0.000000 1.663300 
# 
# From -- ./inp_files/224700.got.cif
#   From: 2010.05.17/outbox.cif.g08.bks.cpg/sg15_113_cif.got.tgz:224700.got - 2010.06.03 18:47:42.
