data_PCOD9264554
_publ_section_title
;
Structure prediction by ZEFSAII (Michael W. Deem and Ramdas Pophale) SiO2 
 PCOD9264554
Probable space group: C 2/C
;
_chemical_formula_sum "Si O2"
_cell_formula_units_Z 48
_cell_length_a 11.692808
_cell_length_b 22.187535
_cell_length_c 15.434426
_cell_angle_alpha 90.000000
_cell_angle_beta 36.127134
_cell_angle_gamma 90.000000
_cell_volume 2360.806090
_symmetry_space_group_name_H-M "C 2/C"
_symmetry_group_IT_number 15
_symmetry_cell_setting 'monoclinic'
loop_
_space_group_symop_operation_xyz
x,y,z
-x,y,1/2-z
-x,-y,-z
x,-y,1/2+z
1/2+x,1/2+y,z
1/2-x,1/2+y,1/2-z
1/2-x,1/2-y,-z
1/2+x,1/2-y,1/2+z
loop_
_atom_site_type_symbol
_atom_site_label
_atom_site_fract_x
_atom_site_fract_y
_atom_site_fract_z
Si Si1 0.924067 0.823213 0.202323
Si Si2 0.721230 0.198399 0.141647
Si Si3 0.062091 0.502728 0.559025
Si Si4 0.903857 0.018334 0.451740
Si Si5 0.162050 0.387986 0.213898
Si Si6 0.756461 0.927679 0.683967
O O1 0.798494 0.764331 0.305307
O O2 0.790271 0.857260 0.212025
O O3 0.000000 0.849763 0.250000
O O4 0.121167 0.803902 0.031566
O O5 0.500000 0.184031 0.250000
O O6 0.779968 0.143477 0.168563
O O7 0.289290 0.507105 0.434979
O O8 0.000000 0.500000 0.500000
O O9 0.964626 0.560944 0.661707
O O10 0.965899 0.446642 0.668558
O O11 0.805849 0.074891 0.562658
O O12 0.125783 0.036561 0.314096
O O13 0.852246 0.959422 0.540983
O O14 0.000000 0.355120 0.250000
#
# Coordination Sequence:
#
# PCOD9264554 Si02
#       6
#     8   8   8   8   8   8
#     4  11  23  39  61  92 119 157 205 259 301 352
#     4  11  22  38  61  88 122 157 200 255 305 358
#     4  10  21  34  55  88 119 148 189 247 297 358
#     4   9  18  36  59  81 111 152 195 228 297 361
#     4   9  19  40  61  81 115 161 199 242 299 366
#     4  10  19  35  60  83 111 155 192 234 296 364
#
# _framework density 20.332038000000001
#
# number of rings (size 3 to 8) (size 9 to 14) (size 15 to 20)
#    0.000    2.000    1.667    4.500    0.000    4.667 
#    0.000    0.833    3.667    0.000    0.000    0.000 
#    0.000    0.000    0.000    0.000    0.000    0.000 
#
# Total GULP energy -133644.151157 kJ/mol
# GULP energy per Si atom -5568.506298 kJ/mol
# Density = 2.028576 g / cm^3
# Si number density = 20.332038 Si / 1000 Ang^3
#
#
#
# Elastic Constant Matrix: (Units=GPa)
#
#
# Indices 1 2 3 4 5 6 
#
# 1 156.2458 25.3282 22.1890 -0.0025 5.2663 -0.0003
# 2 25.3282 50.2734 -0.2892 -0.0015 7.0964 0.0006
# 3 22.1890 -0.2892 75.5922 -0.0101 -1.4911 0.0020
# 4 -0.0025 -0.0015 -0.0101 2.6676 0.0038 -4.5856
# 5 5.2663 7.0964 -1.4911 0.0038 31.9041 -0.0001
# 6 -0.0003 0.0006 0.0020 -4.5856 -0.0001 29.4970
#
#
#
# Elastic Compliance Matrix: (Units=1/GPa)
#
#
# Indices 1 2 3 4 5 6 
#
# 1 0.007313 -0.003626 -0.002170 -0.000003 -0.000502 0.000000
# 2 -0.003626 0.022334 0.001065 0.000025 -0.004319 0.000003
# 3 -0.002170 0.001065 0.013885 0.000066 0.000770 0.000009
# 4 -0.000003 0.000025 0.000066 0.511572 -0.000063 0.079528
# 5 -0.000502 -0.004319 0.000770 -0.000063 0.032424 -0.000010
# 6 0.000000 0.000003 0.000009 0.079528 -0.000010 0.046265
#
#
# Mechanical properties :
#
#
# Convention : Reuss Voigt Hill
#
# Bulk Modulus (GPa) = 29.35256 41.84082 35.59669
# Shear Modulus (GPa) = 7.63811 28.47265 18.05538
#
# Velocity S-wave (km/s) = 1.94032 3.74623 2.98321
# Velocity P-wave (km/s) = 4.41449 6.27182 5.42326
#
# Compressibility (1/GPa) = 0.03406858
#
# Stress axis : x y z
#
# Youngs Moduli (GPa) = 136.74053 44.77495 72.01885
#
# Poissons Ratio (x) = 0.16236 0.15631
# Poissons Ratio (y) = 0.49583 -0.07667
# Poissons Ratio (z) = 0.29679 -0.04767
#
# Static dielectric constant tensor:
#      x y z
#    x 1.848740 0.000000 -0.014440 
#    y 0.000000 1.687600 0.000000 
#    z -0.014440 0.000000 1.734920 
# 
# From -- ./inp_files/147359.got.cif
#   From: 2010.05.17/outbox.cif.g08.bks.cpg/sg15_74_cif.got.tgz:147359.got - 2010.06.03 18:47:42.
