data_PCOD9264364
_publ_section_title
;
Structure prediction by ZEFSAII (Michael W. Deem and Ramdas Pophale) SiO2 
 PCOD9264364
Probable space group: C 2/C
;
_chemical_formula_sum "Si O2"
_cell_formula_units_Z 56
_cell_length_a 22.513086
_cell_length_b 7.833183
_cell_length_c 16.505687
_cell_angle_alpha 90.000000
_cell_angle_beta 129.434317
_cell_angle_gamma 90.000000
_cell_volume 2248.137635
_symmetry_space_group_name_H-M "C 2/C"
_symmetry_group_IT_number 15
_symmetry_cell_setting 'monoclinic'
loop_
_space_group_symop_operation_xyz
x,y,z
-x,y,1/2-z
-x,-y,-z
x,-y,1/2+z
1/2+x,1/2+y,z
1/2-x,1/2+y,1/2-z
1/2-x,1/2-y,-z
1/2+x,1/2-y,1/2+z
loop_
_atom_site_type_symbol
_atom_site_label
_atom_site_fract_x
_atom_site_fract_y
_atom_site_fract_z
Si Si1 0.321053 0.402320 0.146239
Si Si2 0.241899 0.404096 0.831695
Si Si3 0.661906 0.305405 0.942080
Si Si4 0.316656 0.899684 0.888879
Si Si5 0.105424 0.633460 0.738118
Si Si6 0.401938 0.260159 0.938066
Si Si7 0.528903 0.760598 0.682302
O O1 0.281932 0.216800 0.114308
O O2 0.338583 0.493824 0.076607
O O3 0.262912 0.524710 0.143816
O O4 0.400793 0.370418 0.259544
O O5 0.202419 0.328276 0.715908
O O6 0.195879 0.580006 0.802169
O O7 0.331560 0.389412 0.892494
O O8 0.606768 0.220681 0.826924
O O9 0.750000 0.250000 0.000000
O O10 0.645995 0.231861 0.016454
O O11 0.369210 0.067971 0.926574
O O12 0.078314 0.749256 0.640040
O O13 0.059849 0.454802 0.697602
O O14 0.469047 0.283660 0.060528
O O15 0.500000 0.752965 0.750000
#
# Coordination Sequence:
#
# PCOD9264364 Si02
#       7
#     8   8   8   8   8   8   8
#     4   9  20  37  56  85 118 144 187 242 286 335
#     4   9  19  37  63  90 113 146 196 243 285 343
#     4  10  19  35  58  85 115 149 187 238 293 341
#     4   9  18  35  61  88 115 151 195 240 291 347
#     4  10  21  38  60  85 116 152 193 239 287 348
#     4  10  19  35  60  87 113 152 198 238 286 349
#     4  11  23  39  56  80 117 158 195 236 285 345
#
# _framework density 24.909507000000001
#
# number of rings (size 3 to 8) (size 9 to 14) (size 15 to 20)
#    0.000    2.286    0.000    3.000    0.000    2.286 
#    0.000   15.000    0.000    5.143    0.000    0.000 
#    0.000    0.000    0.000    0.000    0.000    0.000 
#
# Total GULP energy -156653.946182 kJ/mol
# GULP energy per Si atom -5594.783792 kJ/mol
# Density = 2.485281 g / cm^3
# Si number density = 24.909507 Si / 1000 Ang^3
#
#
#
# Elastic Constant Matrix: (Units=GPa)
#
#
# Indices 1 2 3 4 5 6 
#
# 1 42.2645 3.3873 39.8936 0.0000 -12.7927 0.0000
# 2 3.3873 59.8729 39.7743 0.0000 -7.2784 0.0000
# 3 39.8936 39.7743 202.3167 0.0000 -15.4818 0.0000
# 4 0.0000 0.0000 0.0000 40.1738 0.0000 -5.2667
# 5 -12.7927 -7.2784 -15.4818 0.0000 41.9848 0.0000
# 6 0.0000 0.0000 0.0000 -5.2667 0.0000 23.9766
#
#
#
# Elastic Compliance Matrix: (Units=1/GPa)
#
#
# Indices 1 2 3 4 5 6 
#
# 1 0.031752 0.003363 -0.006315 0.000000 0.007929 0.000000
# 2 0.003363 0.019731 -0.004324 0.000000 0.002851 0.000000
# 3 -0.006315 -0.004324 0.007032 0.000000 -0.000081 0.000000
# 4 0.000000 0.000000 0.000000 0.025630 0.000000 0.005630
# 5 0.007929 0.002851 -0.000081 0.000000 0.026698 0.000000
# 6 0.000000 0.000000 0.000000 0.005630 0.000000 0.042944
#
#
# Mechanical properties :
#
#
# Convention : Reuss Voigt Hill
#
# Bulk Modulus (GPa) = 22.74697 52.28495 37.51596
# Shear Modulus (GPa) = 27.32333 35.98697 31.65515
#
# Velocity S-wave (km/s) = 3.31555 3.80506 3.56870
# Velocity P-wave (km/s) = 4.87943 6.35139 5.66343
#
# Compressibility (1/GPa) = 0.04396191
#
# Stress axis : x y z
#
# Youngs Moduli (GPa) = 31.49402 50.68227 142.20898
#
# Poissons Ratio (x) = -0.17044 0.89810
# Poissons Ratio (y) = -0.10591 0.61490
# Poissons Ratio (z) = 0.19890 0.21915
#
# Static dielectric constant tensor:
#      x y z
#    x 1.999180 0.000000 -0.020220 
#    y 0.000000 1.999220 0.000000 
#    z -0.020220 0.000000 1.970580 
# 
# From -- ./inp_files/222100.got.cif
#   From: 2010.05.17/outbox.cif.g08.bks.cpg/sg15_112_cif.got.tgz:222100.got - 2010.06.03 18:47:42.
