data_PCOD9264209
_publ_section_title
;
Structure prediction by ZEFSAII (Michael W. Deem and Ramdas Pophale) SiO2 
 PCOD9264209
Probable space group: C 2/C
;
_chemical_formula_sum "Si O2"
_cell_formula_units_Z 56
_cell_length_a 12.168023
_cell_length_b 11.450071
_cell_length_c 20.523586
_cell_angle_alpha 90.000000
_cell_angle_beta 54.218799
_cell_angle_gamma 90.000000
_cell_volume 2319.739458
_symmetry_space_group_name_H-M "C 2/C"
_symmetry_group_IT_number 15
_symmetry_cell_setting 'monoclinic'
loop_
_space_group_symop_operation_xyz
x,y,z
-x,y,1/2-z
-x,-y,-z
x,-y,1/2+z
1/2+x,1/2+y,z
1/2-x,1/2+y,1/2-z
1/2-x,1/2-y,-z
1/2+x,1/2-y,1/2+z
loop_
_atom_site_type_symbol
_atom_site_label
_atom_site_fract_x
_atom_site_fract_y
_atom_site_fract_z
Si Si1 0.295943 0.570279 0.676336
Si Si2 0.719590 0.453600 0.174841
Si Si3 0.014044 0.452346 0.600710
Si Si4 0.299663 0.460874 0.462176
Si Si5 0.500000 0.013229 0.750000
Si Si6 0.525472 0.290138 0.023229
Si Si7 0.500000 0.340070 0.750000
Si Si8 0.966506 0.154478 0.121599
O O1 0.317820 0.610397 0.744303
O O2 0.395666 0.634848 0.592271
O O3 0.336810 0.432579 0.664333
O O4 0.141597 0.582166 0.708059
O O5 0.696540 0.402155 0.111045
O O6 0.629221 0.571957 0.203914
O O7 0.876393 0.485419 0.127631
O O8 0.152860 0.511702 0.529124
O O9 0.012159 0.442086 0.679058
O O10 0.019758 0.328414 0.564089
O O11 0.346048 0.366925 0.499131
O O12 0.409521 0.563081 0.425413
O O13 0.529877 0.271607 0.944744
O O14 0.514934 0.282061 0.815719
#
# Coordination Sequence:
#
# PCOD9264209 Si02
#       8
#     8   8   8   8   4   8   4   8
#     4   9  18  34  55  79 105 145 187 216 260 324
#     4   9  19  35  56  77 107 147 185 216 256 330
#     4  11  22  34  52  85 114 137 176 234 279 306
#     4  10  19  35  57  78 106 147 182 212 267 332
#     4  10  20  36  56  74 108 150 182 220 270 328
#     4  11  21  33  54  85 112 136 177 233 273 313
#     4   8  16  34  56  74  96 142 188 212 252 314
#     4   9  17  33  57  79 103 140 185 220 257 330
#
# _framework density 24.140643000000001
#
# number of rings (size 3 to 8) (size 9 to 14) (size 15 to 20)
#    0.000    2.286    0.000    5.143    0.000    1.143 
#    0.000    6.429    0.000    0.000    0.000    0.000 
#    0.000    0.000    0.000    0.000    0.000    0.000 
#
# Total GULP energy -156617.183055 kJ/mol
# GULP energy per Si atom -5593.470823 kJ/mol
# Density = 2.408570 g / cm^3
# Si number density = 24.140643 Si / 1000 Ang^3
#
#
#
# Elastic Constant Matrix: (Units=GPa)
#
#
# Indices 1 2 3 4 5 6 
#
# 1 141.6699 23.1048 71.4413 0.0000 6.8484 0.0000
# 2 23.1048 42.8543 20.7253 0.0000 9.4603 0.0000
# 3 71.4413 20.7253 141.0373 0.0000 35.4062 0.0000
# 4 0.0000 0.0000 0.0000 -41.4919 0.0000 4.4716
# 5 6.8484 9.4603 35.4062 0.0000 70.7039 0.0000
# 6 0.0000 0.0000 0.0000 4.4716 0.0000 8.0680
#
#
#
# Elastic Compliance Matrix: (Units=1/GPa)
#
#
# Indices 1 2 3 4 5 6 
#
# 1 0.010104 -0.003419 -0.005130 0.000000 0.002048 0.000000
# 2 -0.003419 0.026463 -0.001546 0.000000 -0.002436 0.000000
# 3 -0.005130 -0.001546 0.011140 0.000000 -0.004875 0.000000
# 4 0.000000 0.000000 0.000000 -0.022743 0.000000 0.012605
# 5 0.002048 -0.002436 -0.004875 0.000000 0.016712 0.000000
# 6 0.000000 0.000000 0.000000 0.012605 0.000000 0.116961
#
#
# Mechanical properties :
#
#
# Convention : Reuss Voigt Hill
#
# Bulk Modulus (GPa) = 36.33873 61.78937 49.06405
# Shear Modulus (GPa) = 26.59597 21.47534 24.03566
#
# Velocity S-wave (km/s) = 3.32280 2.98584 3.15882
# Velocity P-wave (km/s) = 5.45957 6.12684 5.80280
#
# Compressibility (1/GPa) = 0.02751885
#
# Stress axis : x y z
#
# Youngs Moduli (GPa) = 98.96986 37.78822 89.76958
#
# Poissons Ratio (x) = 0.12919 0.46050
# Poissons Ratio (y) = 0.33835 0.13874
# Poissons Ratio (z) = 0.50769 0.05840
#
# Static dielectric constant tensor:
#      x y z
#    x 1.921480 0.000000 0.001260 
#    y 0.000000 1.907840 0.000000 
#    z 0.001260 0.000000 1.953440 
# 
# From -- ./inp_files/144278.got.cif
#   From: 2010.05.17/outbox.cif.g08.bks.cpg/sg15_73_cif.got.tgz:144278.got - 2010.06.03 18:47:42.
