data_PCOD9264102
_publ_section_title
;
Structure prediction by ZEFSAII (Michael W. Deem and Ramdas Pophale) SiO2 
 PCOD9264102
Probable space group: C 2/C
;
_chemical_formula_sum "Si O2"
_cell_formula_units_Z 48
_cell_length_a 17.107512
_cell_length_b 16.324179
_cell_length_c 7.474555
_cell_angle_alpha 90.000000
_cell_angle_beta 91.808429
_cell_angle_gamma 90.000000
_cell_volume 2086.350066
_symmetry_space_group_name_H-M "C 2/C"
_symmetry_group_IT_number 15
_symmetry_cell_setting 'monoclinic'
loop_
_space_group_symop_operation_xyz
x,y,z
-x,y,1/2-z
-x,-y,-z
x,-y,1/2+z
1/2+x,1/2+y,z
1/2-x,1/2+y,1/2-z
1/2-x,1/2-y,-z
1/2+x,1/2-y,1/2+z
loop_
_atom_site_type_symbol
_atom_site_label
_atom_site_fract_x
_atom_site_fract_y
_atom_site_fract_z
Si Si1 0.054765 0.697068 0.009941
Si Si2 0.915932 0.444988 0.269837
Si Si3 0.285032 0.371119 0.941160
Si Si4 0.683999 0.688072 0.421455
Si Si5 0.895274 0.650042 0.106285
Si Si6 0.266170 0.550982 0.816234
O O1 0.088671 0.646567 0.182164
O O2 0.963067 0.710695 0.040424
O O3 0.102803 0.779931 0.995396
O O4 0.072625 0.639265 0.842677
O O5 0.912169 0.427647 0.481802
O O6 0.826548 0.466806 0.218241
O O7 0.000000 0.488192 0.250000
O O8 0.324865 0.313757 0.794317
O O9 0.196076 0.336315 0.926986
O O10 0.298009 0.460707 0.853876
O O11 0.296701 0.393469 0.151546
O O12 0.750000 0.750000 0.500000
O O13 0.714038 0.603382 0.507099
#
# Coordination Sequence:
#
# PCOD9264102 Si02
#       6
#     8   8   8   8   8   8
#     4  10  19  35  55  82 119 152 198 247 292 343
#     4   9  18  33  50  79 117 151 193 235 283 354
#     4  11  22  38  58  86 126 160 202 243 299 371
#     4  12  22  37  60  86 122 161 206 254 293 360
#     4   9  19  34  55  81 115 152 193 243 296 355
#     4  11  22  37  56  85 123 164 200 240 303 363
#
# _framework density 23.006685999999998
#
# number of rings (size 3 to 8) (size 9 to 14) (size 15 to 20)
#    0.000    1.667    5.000    0.000    0.000    2.000 
#    3.000    2.500    0.000    0.000    0.000    4.667 
#    0.000    0.000    0.000    0.000    0.000    0.000 
#
# Total GULP energy -133798.768740 kJ/mol
# GULP energy per Si atom -5574.948697 kJ/mol
# Density = 2.295432 g / cm^3
# Si number density = 23.006686 Si / 1000 Ang^3
#
#
#
# Elastic Constant Matrix: (Units=GPa)
#
#
# Indices 1 2 3 4 5 6 
#
# 1 50.4714 12.1528 1.8174 0.0000 -7.7000 0.0000
# 2 12.1528 50.9391 14.1012 0.0000 -1.9961 0.0000
# 3 1.8174 14.1012 135.2385 0.0000 -14.1187 0.0000
# 4 0.0000 0.0000 0.0000 37.6573 0.0000 -8.7021
# 5 -7.7000 -1.9961 -14.1187 0.0000 28.1209 0.0000
# 6 0.0000 0.0000 0.0000 -8.7021 0.0000 20.5910
#
#
#
# Elastic Compliance Matrix: (Units=1/GPa)
#
#
# Indices 1 2 3 4 5 6 
#
# 1 0.021974 -0.005250 0.000888 0.000000 0.006090 0.000000
# 2 -0.005250 0.021473 -0.002279 0.000000 -0.001057 0.000000
# 3 0.000888 -0.002279 0.008050 0.000000 0.004123 0.000000
# 4 0.000000 0.000000 0.000000 0.029429 0.000000 0.012437
# 5 0.006090 -0.001057 0.004123 0.000000 0.039223 0.000000
# 6 0.000000 0.000000 0.000000 0.012437 0.000000 0.053821
#
#
# Mechanical properties :
#
#
# Convention : Reuss Voigt Hill
#
# Bulk Modulus (GPa) = 26.16655 32.53244 29.34949
# Shear Modulus (GPa) = 25.00100 31.17903 28.09001
#
# Velocity S-wave (km/s) = 3.30007 3.68532 3.49800
# Velocity P-wave (km/s) = 5.09104 5.68154 5.39438
#
# Compressibility (1/GPa) = 0.03821673
#
# Stress axis : x y z
#
# Youngs Moduli (GPa) = 45.50758 46.56983 124.21620
#
# Poissons Ratio (x) = 0.24448 -0.11029
# Poissons Ratio (y) = 0.23890 0.28307
# Poissons Ratio (z) = -0.04040 0.10612
#
# Static dielectric constant tensor:
#      x y z
#    x 1.861240 0.000000 -0.013530 
#    y 0.000000 1.927610 0.000000 
#    z -0.013530 0.000000 1.898860 
# 
# From -- ./inp_files/48073.got.cif
#   From: 2010.05.17/outbox.cif.g08.bks.cpg/sg15_25_cif.got.tgz:48073.got - 2010.06.03 18:47:42.
