data_PCOD9264115
_publ_section_title
;
Structure prediction by ZEFSAII (Michael W. Deem and Ramdas Pophale) SiO2 
 PCOD9264115
Probable space group: C 2/C
;
_chemical_formula_sum "Si O2"
_cell_formula_units_Z 60
_cell_length_a 11.449135
_cell_length_b 25.374625
_cell_length_c 9.158976
_cell_angle_alpha 90.000000
_cell_angle_beta 74.781424
_cell_angle_gamma 90.000000
_cell_volume 2567.530945
_symmetry_space_group_name_H-M "C 2/C"
_symmetry_group_IT_number 15
_symmetry_cell_setting 'monoclinic'
loop_
_space_group_symop_operation_xyz
x,y,z
-x,y,1/2-z
-x,-y,-z
x,-y,1/2+z
1/2+x,1/2+y,z
1/2-x,1/2+y,1/2-z
1/2-x,1/2-y,-z
1/2+x,1/2-y,1/2+z
loop_
_atom_site_type_symbol
_atom_site_label
_atom_site_fract_x
_atom_site_fract_y
_atom_site_fract_z
Si Si1 0.737076 0.170100 0.419665
Si Si2 0.379344 0.473248 0.372880
Si Si3 0.275822 0.984115 0.821395
Si Si4 0.056798 0.239420 0.068029
Si Si5 0.140850 0.363778 0.667775
Si Si6 0.710077 0.360998 0.158229
Si Si7 0.371677 0.908595 0.354425
Si Si8 0.500000 0.720763 0.750000
O O1 0.870472 0.183852 0.433163
O O2 0.652573 0.213385 0.521965
O O3 0.724106 0.170942 0.249253
O O4 0.671242 0.115141 0.479276
O O5 0.500000 0.489279 0.250000
O O6 0.349332 0.489860 0.546020
O O7 0.264843 0.497881 0.324635
O O8 0.369517 0.409821 0.375721
O O9 0.365899 0.028702 0.849786
O O10 0.328190 0.925958 0.824243
O O11 0.000000 0.247017 0.250000
O O12 0.995589 0.241770 0.924229
O O13 0.182773 0.349907 0.491206
O O14 0.000000 0.354094 0.750000
O O15 0.770693 0.384077 0.282160
O O16 0.623511 0.312541 0.214637
O O17 0.500000 0.890968 0.250000
#
# Coordination Sequence:
#
# PCOD9264115 Si02
#       8
#     8   8   8   8   8   8   8   4
#     4  11  24  45  65 103 139 173 238 292 348 428
#     4  10  19  35  55  84 128 167 224 285 333 417
#     4  10  22  36  59  93 128 179 233 275 353 411
#     4  11  26  47  73 106 142 183 236 296 360 428
#     4  11  23  41  63  96 138 180 237 293 344 427
#     4  10  22  38  64  95 125 179 226 279 356 420
#     4  11  21  40  65  92 135 182 226 288 350 412
#     4  12  22  48  74 100 144 180 232 292 366 432
#
# _framework density 23.368753000000002
#
# number of rings (size 3 to 8) (size 9 to 14) (size 15 to 20)
#    0.000    1.333    2.000    3.600    0.933    0.000 
#    0.000    8.667    0.000    0.000    0.000    0.000 
#    0.000    0.000    0.000    0.000    0.000    0.000 
#
# Total GULP energy -167277.849168 kJ/mol
# GULP energy per Si atom -5575.928306 kJ/mol
# Density = 2.331556 g / cm^3
# Si number density = 23.368753 Si / 1000 Ang^3
#
#
#
# Elastic Constant Matrix: (Units=GPa)
#
#
# Indices 1 2 3 4 5 6 
#
# 1 41.5023 10.4456 13.2816 0.0000 -3.0855 0.0000
# 2 10.4456 59.8530 14.5709 0.0000 -4.7451 0.0000
# 3 13.2816 14.5709 138.3119 0.0000 2.5275 0.0000
# 4 0.0000 0.0000 0.0000 25.8219 0.0000 -2.0314
# 5 -3.0855 -4.7451 2.5275 0.0000 33.8759 0.0000
# 6 0.0000 0.0000 0.0000 -2.0314 0.0000 21.9277
#
#
#
# Elastic Compliance Matrix: (Units=1/GPa)
#
#
# Indices 1 2 3 4 5 6 
#
# 1 0.025887 -0.003846 -0.002117 0.000000 0.001977 0.000000
# 2 -0.003846 0.017940 -0.001562 0.000000 0.002279 0.000000
# 3 -0.002117 -0.001562 0.007616 0.000000 -0.000980 0.000000
# 4 0.000000 0.000000 0.000000 0.039011 0.000000 0.003614
# 5 0.001977 0.002279 -0.000980 0.000000 0.030092 0.000000
# 6 0.000000 0.000000 0.000000 0.003614 0.000000 0.045939
#
#
# Mechanical properties :
#
#
# Convention : Reuss Voigt Hill
#
# Bulk Modulus (GPa) = 27.47773 35.14039 31.30906
# Shear Modulus (GPa) = 25.81759 29.74969 27.78364
#
# Velocity S-wave (km/s) = 3.32745 3.57186 3.45182
# Velocity P-wave (km/s) = 5.15232 5.66400 5.41421
#
# Compressibility (1/GPa) = 0.03639311
#
# Stress axis : x y z
#
# Youngs Moduli (GPa) = 38.62881 55.74203 131.30598
#
# Poissons Ratio (x) = 0.21437 0.27796
# Poissons Ratio (y) = 0.14856 0.20514
# Poissons Ratio (z) = 0.08177 0.08708
#
# Static dielectric constant tensor:
#      x y z
#    x 1.892700 0.000000 0.049610 
#    y 0.000000 1.912330 0.000000 
#    z 0.049610 0.000000 1.971970 
# 
# From -- ./inp_files/35640.got.cif
#   From: 2010.05.17/outbox.cif.g08.bks.cpg/sg15_18_cif.got.tgz:35640.got - 2010.06.03 18:47:42.
