data_PCOD9264982
_publ_section_title
;
Structure prediction by ZEFSAII (Michael W. Deem and Ramdas Pophale) SiO2 
 PCOD9264982
Probable space group: C 2/C
;
_chemical_formula_sum "Si O2"
_cell_formula_units_Z 60
_cell_length_a 25.078105
_cell_length_b 24.799749
_cell_length_c 7.345829
_cell_angle_alpha 90.000000
_cell_angle_beta 39.040569
_cell_angle_gamma 90.000000
_cell_volume 2877.624256
_symmetry_space_group_name_H-M "C 2/C"
_symmetry_group_IT_number 15
_symmetry_cell_setting 'monoclinic'
loop_
_space_group_symop_operation_xyz
x,y,z
-x,y,1/2-z
-x,-y,-z
x,-y,1/2+z
1/2+x,1/2+y,z
1/2-x,1/2+y,1/2-z
1/2-x,1/2-y,-z
1/2+x,1/2-y,1/2+z
loop_
_atom_site_type_symbol
_atom_site_label
_atom_site_fract_x
_atom_site_fract_y
_atom_site_fract_z
Si Si1 0.000000 0.764113 0.250000
Si Si2 0.018056 0.329717 0.419762
Si Si3 0.492453 0.435551 0.553436
Si Si4 0.187479 0.762724 0.832698
Si Si5 0.690583 0.567920 0.920432
Si Si6 0.326572 0.559348 0.969113
Si Si7 0.800559 0.642291 0.148448
Si Si8 0.842848 0.640894 0.456709
O O1 0.987072 0.727038 0.463494
O O2 0.905153 0.787205 0.471858
O O3 0.000000 0.324208 0.250000
O O4 0.944177 0.365785 0.706667
O O5 0.113689 0.349767 0.190696
O O6 0.500000 0.426604 0.750000
O O7 0.500000 0.500000 0.500000
O O8 0.579828 0.418982 0.227722
O O9 0.399360 0.413960 0.753448
O O10 0.250000 0.750000 0.500000
O O11 0.240515 0.805486 0.808115
O O12 0.173524 0.704000 0.958825
O O13 0.679830 0.570671 0.729784
O O14 0.774293 0.602889 0.737655
O O15 0.691106 0.504061 0.960635
O O16 0.256042 0.592341 0.261775
O O17 0.828466 0.632005 0.280706
#
# Coordination Sequence:
#
# PCOD9264982 Si02
#       8
#     4   8   8   8   8   8   8   8
#     4  10  20  38  56  82 112 144 184 230 272 332
#     4   9  18  35  58  79 108 148 183 221 282 332
#     4   8  14  27  47  69  99 134 168 209 261 313
#     4  11  21  36  57  79 111 139 181 227 276 323
#     4   9  17  33  51  75 104 137 183 218 269 320
#     4   9  18  31  52  75 105 139 175 224 267 326
#     4  10  19  36  56  79 107 144 181 222 277 327
#     4   9  20  35  56  79 105 144 183 224 268 333
#
# _framework density 20.850532999999999
#
# number of rings (size 3 to 8) (size 9 to 14) (size 15 to 20)
#    0.000    2.667    1.333    0.400    0.000    1.067 
#    2.400    0.667    4.400    0.000    0.000    0.000 
#    0.000    0.000    0.000    0.000    0.000    0.000 
#
# Total GULP energy -167017.351262 kJ/mol
# GULP energy per Si atom -5567.245042 kJ/mol
# Density = 2.080308 g / cm^3
# Si number density = 20.850533 Si / 1000 Ang^3
#
#
#
# Elastic Constant Matrix: (Units=GPa)
#
#
# Indices 1 2 3 4 5 6 
#
# 1 131.5010 5.3630 -88.4332 0.0000 -66.7658 0.0000
# 2 5.3630 60.5415 51.2801 0.0000 -24.9364 0.0000
# 3 -88.4332 51.2801 419.4648 0.0000 31.6339 0.0000
# 4 0.0000 0.0000 0.0000 20.5980 0.0000 -0.3662
# 5 -66.7658 -24.9364 31.6339 0.0000 81.2393 0.0000
# 6 0.0000 0.0000 0.0000 -0.3662 0.0000 13.0999
#
#
#
# Elastic Compliance Matrix: (Units=1/GPa)
#
#
# Indices 1 2 3 4 5 6 
#
# 1 0.015085 0.001992 0.002015 0.000000 0.012224 0.000000
# 2 0.001992 0.023120 -0.003158 0.000000 0.009963 0.000000
# 3 0.002015 -0.003158 0.003238 0.000000 -0.000574 0.000000
# 4 0.000000 0.000000 0.000000 0.048573 0.000000 0.001358
# 5 0.012224 0.009963 -0.000574 0.000000 0.025638 0.000000
# 6 0.000000 0.000000 0.000000 0.001358 0.000000 0.076374
#
#
# Mechanical properties :
#
#
# Convention : Reuss Voigt Hill
#
# Bulk Modulus (GPa) = 23.17998 60.88079 42.03039
# Shear Modulus (GPa) = 24.42495 65.87395 45.14945
#
# Velocity S-wave (km/s) = 3.42633 5.62690 4.65842
# Velocity P-wave (km/s) = 5.17632 8.45447 7.00972
#
# Compressibility (1/GPa) = 0.04314067
#
# Stress axis : x y z
#
# Youngs Moduli (GPa) = 66.29276 43.25316 308.82167
#
# Poissons Ratio (x) = -0.08617 -0.62221
# Poissons Ratio (y) = -0.13207 0.97520
# Poissons Ratio (z) = -0.13356 0.13659
#
# Static dielectric constant tensor:
#      x y z
#    x 1.854340 0.000000 -0.061440 
#    y 0.000000 1.747340 0.000000 
#    z -0.061440 0.000000 1.812520 
# 
# From -- ./inp_files/70954.got.cif
#   From: 2010.05.17/outbox.cif.g08.bks.cpg/sg15_36_cif.got.tgz:70954.got - 2010.06.03 18:47:42.
