data_PCOD9264566
_publ_section_title
;
Structure prediction by ZEFSAII (Michael W. Deem and Ramdas Pophale) SiO2 
 PCOD9264566
Probable space group: C 2/C
;
_chemical_formula_sum "Si O2"
_cell_formula_units_Z 56
_cell_length_a 12.156926
_cell_length_b 12.630533
_cell_length_c 24.406641
_cell_angle_alpha 90.000000
_cell_angle_beta 125.393485
_cell_angle_gamma 90.000000
_cell_volume 3055.021403
_symmetry_space_group_name_H-M "C 2/C"
_symmetry_group_IT_number 15
_symmetry_cell_setting 'monoclinic'
loop_
_space_group_symop_operation_xyz
x,y,z
-x,y,1/2-z
-x,-y,-z
x,-y,1/2+z
1/2+x,1/2+y,z
1/2-x,1/2+y,1/2-z
1/2-x,1/2-y,-z
1/2+x,1/2-y,1/2+z
loop_
_atom_site_type_symbol
_atom_site_label
_atom_site_fract_x
_atom_site_fract_y
_atom_site_fract_z
Si Si1 0.444859 0.187322 0.296082
Si Si2 0.136750 0.352553 0.137632
Si Si3 0.345997 0.206226 0.978389
Si Si4 0.917167 0.465039 0.577460
Si Si5 0.657033 0.618856 0.174758
Si Si6 0.133461 0.934490 0.544856
Si Si7 0.406566 0.579581 0.775959
O O1 0.500000 0.190121 0.250000
O O2 0.529102 0.109588 0.358091
O O3 0.293934 0.143461 0.247095
O O4 0.445585 0.309220 0.316336
O O5 0.202230 0.333031 0.095795
O O6 0.095211 0.236109 0.148015
O O7 0.253788 0.400726 0.209966
O O8 0.009634 0.431483 0.099245
O O9 0.415310 0.316239 0.984303
O O10 0.250000 0.250000 0.000000
O O11 0.427203 0.108889 0.026856
O O12 0.757680 0.478027 0.544212
O O13 0.684873 0.573833 0.122121
O O14 0.581057 0.525311 0.184280
O O15 0.000000 0.000000 0.500000
O O16 0.500000 0.567781 0.750000
#
# Coordination Sequence:
#
# PCOD9264566 Si02
#       7
#     8   8   8   8   8   8   8
#     4  10  19  35  60  86 109 150 199 242 290 348
#     4  10  21  39  57  86 122 152 191 248 296 358
#     4   9  21  36  59  84 115 153 206 244 281 345
#     4  11  20  37  62  88 115 157 200 243 299 350
#     4  10  20  39  55  83 122 149 190 243 295 359
#     4  10  22  37  58  86 117 153 200 244 296 354
#     4  10  22  34  59  85 117 150 195 241 293 343
#
# _framework density 18.330477999999999
#
# number of rings (size 3 to 8) (size 9 to 14) (size 15 to 20)
#    0.000    2.000    2.857    0.429    8.000    1.143 
#    0.000    7.857    0.000    0.000    0.000    0.000 
#    0.000    0.000    0.000    0.000    0.000    0.000 
#
# Total GULP energy -155883.917629 kJ/mol
# GULP energy per Si atom -5567.282772 kJ/mol
# Density = 1.828876 g / cm^3
# Si number density = 18.330478 Si / 1000 Ang^3
#
#
#
# Elastic Constant Matrix: (Units=GPa)
#
#
# Indices 1 2 3 4 5 6 
#
# 1 61.8510 47.2283 13.5265 0.0000 7.0172 0.0000
# 2 47.2283 120.2231 36.3519 0.0000 -2.5038 0.0000
# 3 13.5265 36.3519 52.7551 0.0000 -2.1366 0.0000
# 4 0.0000 0.0000 0.0000 33.0855 0.0000 -0.9546
# 5 7.0172 -2.5038 -2.1366 0.0000 28.2359 0.0000
# 6 0.0000 0.0000 0.0000 -0.9546 0.0000 26.2166
#
#
#
# Elastic Compliance Matrix: (Units=1/GPa)
#
#
# Indices 1 2 3 4 5 6 
#
# 1 0.024376 -0.009784 0.000212 0.000000 -0.006910 0.000000
# 2 -0.009784 0.014438 -0.007312 0.000000 0.003158 0.000000
# 3 0.000212 -0.007312 0.023985 0.000000 0.001114 0.000000
# 4 0.000000 0.000000 0.000000 0.030256 0.000000 0.001102
# 5 -0.006910 0.003158 0.001114 0.000000 0.037497 0.000000
# 6 0.000000 0.000000 0.000000 0.001102 0.000000 0.038184
#
#
# Mechanical properties :
#
#
# Convention : Reuss Voigt Hill
#
# Bulk Modulus (GPa) = 34.44644 47.67140 41.05892
# Shear Modulus (GPa) = 23.56456 26.68911 25.12684
#
# Velocity S-wave (km/s) = 3.58933 3.81989 3.70641
# Velocity P-wave (km/s) = 6.00087 6.74674 6.38471
#
# Compressibility (1/GPa) = 0.02903057
#
# Stress axis : x y z
#
# Youngs Moduli (GPa) = 41.02353 69.26082 41.69264
#
# Poissons Ratio (x) = 0.67764 -0.00883
# Poissons Ratio (y) = 0.40137 0.30487
# Poissons Ratio (z) = -0.00869 0.50646
#
# Static dielectric constant tensor:
#      x y z
#    x 1.640290 0.000000 -0.011990 
#    y 0.000000 1.645570 0.000000 
#    z -0.011990 0.000000 1.665700 
# 
# From -- ./inp_files/237058.got.cif
#   From: 2010.05.17/outbox.cif.g08.bks.cpg/sg15_119_cif.got.tgz:237058.got - 2010.06.03 18:47:42.
