data_PCOD9264330
_publ_section_title
;
Structure prediction by ZEFSAII (Michael W. Deem and Ramdas Pophale) SiO2 
 PCOD9264330
Probable space group: C 2/C
;
_chemical_formula_sum "Si O2"
_cell_formula_units_Z 48
_cell_length_a 18.306137
_cell_length_b 8.944864
_cell_length_c 30.533973
_cell_angle_alpha 90.000000
_cell_angle_beta 150.707733
_cell_angle_gamma 90.000000
_cell_volume 2446.232277
_symmetry_space_group_name_H-M "C 2/C"
_symmetry_group_IT_number 15
_symmetry_cell_setting 'monoclinic'
loop_
_space_group_symop_operation_xyz
x,y,z
-x,y,1/2-z
-x,-y,-z
x,-y,1/2+z
1/2+x,1/2+y,z
1/2-x,1/2+y,1/2-z
1/2-x,1/2-y,-z
1/2+x,1/2-y,1/2+z
loop_
_atom_site_type_symbol
_atom_site_label
_atom_site_fract_x
_atom_site_fract_y
_atom_site_fract_z
Si Si1 0.102373 0.357259 0.261300
Si Si2 0.601056 0.548372 0.706296
Si Si3 0.869711 0.602020 0.292182
Si Si4 0.579405 0.298807 0.912573
Si Si5 0.233701 0.432633 0.631989
Si Si6 0.459168 0.951863 0.047130
O O1 0.143884 0.513463 0.260534
O O2 0.235320 0.243429 0.343759
O O3 0.000000 0.377614 0.250000
O O4 0.008760 0.272734 0.174461
O O5 0.729511 0.454963 0.747608
O O6 0.624120 0.721411 0.709232
O O7 0.451513 0.474129 0.608950
O O8 0.628409 0.515112 0.772129
O O9 0.016138 0.547849 0.395957
O O10 0.518324 0.218486 0.924546
O O11 0.750000 0.250000 0.000000
O O12 0.193007 0.461470 0.560208
O O13 0.091086 0.492470 0.584430
#
# Coordination Sequence:
#
# PCOD9264330 Si02
#       6
#     8   8   8   8   8   8
#     4  10  20  35  55  79 111 146 185 230 279 335
#     4  10  19  35  59  83 109 147 189 228 280 337
#     4  10  19  35  58  82 110 146 188 233 279 335
#     4  10  20  35  56  80 110 146 183 228 280 335
#     4   9  17  32  55  80 107 142 182 228 276 328
#     4   9  17  32  54  80 110 140 182 232 275 327
#
# _framework density 19.622012999999999
#
# number of rings (size 3 to 8) (size 9 to 14) (size 15 to 20)
#    0.000    2.333    0.000    6.000    0.000    0.000 
#    0.000   11.667    0.000   15.000    0.000    0.000 
#    0.000    0.000    0.000    0.000    0.000    0.000 
#
# Total GULP energy -133677.367387 kJ/mol
# GULP energy per Si atom -5569.890308 kJ/mol
# Density = 1.957735 g / cm^3
# Si number density = 19.622013 Si / 1000 Ang^3
#
#
#
# Elastic Constant Matrix: (Units=GPa)
#
#
# Indices 1 2 3 4 5 6 
#
# 1 76.6705 20.3481 21.2409 0.0000 -11.7854 0.0000
# 2 20.3481 136.3243 48.2929 0.0000 -4.0892 0.0000
# 3 21.2409 48.2929 101.9330 0.0001 -12.4236 0.0000
# 4 0.0000 0.0000 0.0001 23.5484 0.0000 -0.6344
# 5 -11.7854 -4.0892 -12.4236 0.0000 28.9566 0.0000
# 6 0.0000 0.0000 0.0000 -0.6344 0.0000 13.2271
#
#
#
# Elastic Compliance Matrix: (Units=1/GPa)
#
#
# Indices 1 2 3 4 5 6 
#
# 1 0.014681 -0.001410 -0.001780 0.000000 0.005012 0.000000
# 2 -0.001410 0.008960 -0.004080 0.000000 -0.001059 0.000000
# 3 -0.001780 -0.004080 0.012615 0.000000 0.004112 0.000000
# 4 0.000000 0.000000 0.000000 0.042521 0.000000 0.002039
# 5 0.005012 -0.001059 0.004112 0.000000 0.038189 0.000000
# 6 0.000000 0.000000 0.000000 0.002039 0.000000 0.075700
#
#
# Mechanical properties :
#
#
# Convention : Reuss Voigt Hill
#
# Bulk Modulus (GPa) = 46.05147 54.96575 50.50861
# Shear Modulus (GPa) = 23.31605 28.14947 25.73276
#
# Velocity S-wave (km/s) = 3.45085 3.79170 3.62529
# Velocity P-wave (km/s) = 6.27679 6.87331 6.58181
#
# Compressibility (1/GPa) = 0.02171483
#
# Stress axis : x y z
#
# Youngs Moduli (GPa) = 68.11650 111.61317 79.26793
#
# Poissons Ratio (x) = 0.15741 0.14111
# Poissons Ratio (y) = 0.09607 0.32341
# Poissons Ratio (z) = 0.12126 0.45538
#
# Static dielectric constant tensor:
#      x y z
#    x 1.724980 0.000000 0.003830 
#    y 0.000000 1.711000 0.000000 
#    z 0.003830 0.000000 1.761350 
# 
# From -- ./inp_files/251470.got.cif
#   From: 2010.05.17/outbox.cif.g08.bks.cpg/sg15_126_cif.got.tgz:251470.got - 2010.06.03 18:47:42.
