data_PCOD9264406
_publ_section_title
;
Structure prediction by ZEFSAII (Michael W. Deem and Ramdas Pophale) SiO2 
 PCOD9264406
Probable space group: C 2/C
;
_chemical_formula_sum "Si O2"
_cell_formula_units_Z 60
_cell_length_a 15.952700
_cell_length_b 8.764855
_cell_length_c 27.055326
_cell_angle_alpha 90.000000
_cell_angle_beta 57.062418
_cell_angle_gamma 90.000000
_cell_volume 3174.899549
_symmetry_space_group_name_H-M "C 2/C"
_symmetry_group_IT_number 15
_symmetry_cell_setting 'monoclinic'
loop_
_space_group_symop_operation_xyz
x,y,z
-x,y,1/2-z
-x,-y,-z
x,-y,1/2+z
1/2+x,1/2+y,z
1/2-x,1/2+y,1/2-z
1/2-x,1/2-y,-z
1/2+x,1/2-y,1/2+z
loop_
_atom_site_type_symbol
_atom_site_label
_atom_site_fract_x
_atom_site_fract_y
_atom_site_fract_z
Si Si1 0.000000 0.625759 0.750000
Si Si2 0.897657 0.293848 0.644501
Si Si3 0.724724 0.801666 0.062847
Si Si4 0.677314 0.361012 0.673403
Si Si5 0.008527 0.421380 0.139432
Si Si6 0.595578 0.461518 0.436360
Si Si7 0.850591 0.172582 0.169143
Si Si8 0.666363 0.605849 0.748768
O O1 0.097294 0.732159 0.713249
O O2 0.991920 0.535600 0.701985
O O3 0.782118 0.326378 0.667228
O O4 0.933930 0.168900 0.593786
O O5 0.901019 0.222324 0.698378
O O6 0.957475 0.450369 0.622922
O O7 0.699041 0.661606 0.108507
O O8 0.625006 0.902545 0.092899
O O9 0.815454 0.893500 0.058799
O O10 0.750000 0.750000 0.000000
O O11 0.636518 0.520115 0.707875
O O12 0.953615 0.258404 0.149768
O O13 0.500000 0.500000 0.500000
O O14 0.636718 0.600596 0.389355
O O15 0.766416 0.301130 0.203497
O O16 0.823976 0.033191 0.214573
#
# Coordination Sequence:
#
# PCOD9264406 Si02
#       8
#     4   8   8   8   8   8   8   8
#     4  10  20  34  58  88 126 168 184 244 316 366
#     4  10  21  36  64  92 118 160 207 254 298 376
#     4  10  23  42  64  85 118 164 206 253 309 368
#     4  10  19  35  58  91 119 157 204 239 293 372
#     4  11  20  38  63  89 123 157 206 247 308 364
#     4  10  23  44  64  87 119 162 213 257 310 363
#     4  11  20  34  66  92 123 162 199 260 296 371
#     4  11  18  33  58  96 125 153 201 246 309 359
#
# _framework density 18.898236000000001
#
# number of rings (size 3 to 8) (size 9 to 14) (size 15 to 20)
#    0.000    1.600    4.000    0.800    0.000    2.133 
#    2.400    4.667    0.000    0.000    0.000    0.000 
#    0.000    0.000    0.000    0.000    0.000    0.000 
#
# Total GULP energy -167323.258483 kJ/mol
# GULP energy per Si atom -5577.441949 kJ/mol
# Density = 1.885522 g / cm^3
# Si number density = 18.898236 Si / 1000 Ang^3
#
#
#
# Elastic Constant Matrix: (Units=GPa)
#
#
# Indices 1 2 3 4 5 6 
#
# 1 80.5079 44.2748 55.1805 0.0000 -1.4831 0.0000
# 2 44.2748 88.6355 48.4989 0.0000 -2.6011 0.0000
# 3 55.1805 48.4989 163.0652 0.0000 6.5994 0.0000
# 4 0.0000 0.0000 0.0000 23.4331 0.0000 8.4535
# 5 -1.4831 -2.6011 6.5994 0.0000 25.3422 0.0000
# 6 0.0000 0.0000 0.0000 8.4535 0.0000 14.8146
#
#
#
# Elastic Compliance Matrix: (Units=1/GPa)
#
#
# Indices 1 2 3 4 5 6 
#
# 1 0.019527 -0.007234 -0.004520 0.000000 0.001577 0.000000
# 2 -0.007234 0.016308 -0.002479 0.000000 0.001896 0.000000
# 3 -0.004520 -0.002479 0.008510 0.000000 -0.002735 0.000000
# 4 0.000000 0.000000 0.000000 0.053736 0.000000 -0.030663
# 5 0.001577 0.001896 -0.002735 0.000000 0.040459 0.000000
# 6 0.000000 0.000000 0.000000 -0.030663 0.000000 0.084998
#
#
# Mechanical properties :
#
#
# Convention : Reuss Voigt Hill
#
# Bulk Modulus (GPa) = 62.97994 69.79075 66.38535
# Shear Modulus (GPa) = 19.43274 25.00158 22.21716
#
# Velocity S-wave (km/s) = 3.21016 3.64120 3.43245
# Velocity P-wave (km/s) = 6.86574 7.39511 7.13534
#
# Compressibility (1/GPa) = 0.01587807
#
# Stress axis : x y z
#
# Youngs Moduli (GPa) = 51.21197 61.31990 117.50864
#
# Poissons Ratio (x) = 0.44361 0.53113
# Poissons Ratio (y) = 0.37049 0.29130
# Poissons Ratio (z) = 0.23147 0.15201
#
# Static dielectric constant tensor:
#      x y z
#    x 1.675700 0.000000 0.018490 
#    y 0.000000 1.664000 0.000000 
#    z 0.018490 0.000000 1.658560 
# 
# From -- ./inp_files/298392.got.cif
#   From: 2010.05.17/outbox.cif.g08.bks.cpg/sg15_150_cif.got.tgz:298392.got - 2010.06.03 18:47:42.
