data_PCOD9264027
_publ_section_title
;
Structure prediction by ZEFSAII (Michael W. Deem and Ramdas Pophale) SiO2 
 PCOD9264027
Probable space group: C 2/C
;
_chemical_formula_sum "Si O2"
_cell_formula_units_Z 52
_cell_length_a 20.898137
_cell_length_b 9.698636
_cell_length_c 20.142528
_cell_angle_alpha 90.000000
_cell_angle_beta 148.523572
_cell_angle_gamma 90.000000
_cell_volume 2131.697657
_symmetry_space_group_name_H-M "C 2/C"
_symmetry_group_IT_number 15
_symmetry_cell_setting 'monoclinic'
loop_
_space_group_symop_operation_xyz
x,y,z
-x,y,1/2-z
-x,-y,-z
x,-y,1/2+z
1/2+x,1/2+y,z
1/2-x,1/2+y,1/2-z
1/2-x,1/2-y,-z
1/2+x,1/2-y,1/2+z
loop_
_atom_site_type_symbol
_atom_site_label
_atom_site_fract_x
_atom_site_fract_y
_atom_site_fract_z
Si Si1 0.244446 0.287598 0.088892
Si Si2 0.472966 0.816799 0.854884
Si Si3 0.468250 0.121056 0.587394
Si Si4 0.872948 0.157783 0.316521
Si Si5 0.000000 0.260759 0.250000
Si Si6 0.689620 0.367899 0.208511
Si Si7 0.808823 0.930548 0.618428
O O1 0.356999 0.183838 0.201189
O O2 0.231015 0.353623 0.152299
O O3 0.296464 0.410289 0.089403
O O4 0.104313 0.264978 0.944295
O O5 0.432296 0.708172 0.874503
O O6 0.488315 0.970809 0.896588
O O7 0.507343 0.246457 0.575121
O O8 0.532051 0.148517 0.715063
O O9 0.326692 0.116342 0.481942
O O10 0.765193 0.271853 0.225614
O O11 0.881762 0.085036 0.252396
O O12 0.838041 0.027682 0.332256
O O13 0.116082 0.161809 0.365739
#
# Coordination Sequence:
#
# PCOD9264027 Si02
#       7
#     8   8   8   8   4   8   8
#     4   8  18  35  58  80 113 153 181 232 278 339
#     4   9  18  37  57  81 116 146 190 227 283 331
#     4  10  20  36  58  81 110 146 189 239 283 335
#     4  10  19  35  53  85 111 153 187 227 277 333
#     4  10  20  36  58  82 106 138 194 238 284 342
#     4   9  19  33  55  82 118 151 190 222 278 333
#     4   9  19  37  57  79 110 150 186 230 293 340
#
# _framework density 24.393705000000001
#
# number of rings (size 3 to 8) (size 9 to 14) (size 15 to 20)
#    0.923    1.846    0.000    1.385    0.000    1.231 
#    5.538    8.462    0.000    3.692    0.000    0.000 
#    0.000    0.000    0.000    0.000    0.000    0.000 
#
# Total GULP energy -144789.444737 kJ/mol
# GULP energy per Si atom -5568.824798 kJ/mol
# Density = 2.433818 g / cm^3
# Si number density = 24.393705 Si / 1000 Ang^3
#
#
#
# Elastic Constant Matrix: (Units=GPa)
#
#
# Indices 1 2 3 4 5 6 
#
# 1 39.1083 65.3491 40.2445 0.0000 -3.3778 0.0000
# 2 65.3491 56.6146 -47.0109 0.0000 73.9587 0.0000
# 3 40.2445 -47.0109 -21.8207 0.0000 76.2876 0.0000
# 4 0.0000 0.0000 0.0000 22.9989 0.0000 18.1073
# 5 -3.3778 73.9587 76.2876 0.0000 17.9601 0.0000
# 6 0.0000 0.0000 0.0000 18.1073 0.0000 28.4058
#
#
#
# Elastic Compliance Matrix: (Units=1/GPa)
#
#
# Indices 1 2 3 4 5 6 
#
# 1 0.023117 -0.003982 0.007807 0.000000 -0.012416 0.000000
# 2 -0.003982 0.008426 -0.009428 0.000000 0.004597 0.000000
# 3 0.007807 -0.009428 0.008185 0.000000 0.005522 0.000000
# 4 0.000000 0.000000 0.000000 0.087287 0.000000 -0.055641
# 5 -0.012416 0.004597 0.005522 0.000000 0.010962 0.000000
# 6 0.000000 0.000000 0.000000 -0.055641 0.000000 0.070672
#
#
# Mechanical properties :
#
#
# Convention : Reuss Voigt Hill
#
# Bulk Modulus (GPa) = 35.05783 21.22973 28.14378
# Shear Modulus (GPa) = 21.79944 14.89429 18.34686
#
# Velocity S-wave (km/s) = 2.99264 2.47367 2.74545
# Velocity P-wave (km/s) = 5.13265 4.10860 4.64891
#
# Compressibility (1/GPa) = 0.02852430
#
# Stress axis : x y z
#
# Youngs Moduli (GPa) = 43.25736 118.67547 122.16758
#
# Poissons Ratio (x) = 0.47254 -0.95374
# Poissons Ratio (y) = 0.17224 1.15174
# Poissons Ratio (z) = -0.33770 1.11882
#
# Static dielectric constant tensor:
#      x y z
#    x 1.975180 0.000000 -0.048980 
#    y 0.000000 1.981780 0.000000 
#    z -0.048980 0.000000 2.035090 
# 
# From -- ./inp_files/301997.got.cif
#   From: 2010.05.17/outbox.cif.g08.bks.cpg/sg15_151_cif.got.tgz:301997.got - 2010.06.03 18:47:42.
