data_PCOD9264898
_publ_section_title
;
Structure prediction by ZEFSAII (Michael W. Deem and Ramdas Pophale) SiO2 
 PCOD9264898
Probable space group: C 2/C
;
_chemical_formula_sum "Si O2"
_cell_formula_units_Z 64
_cell_length_a 25.506688
_cell_length_b 25.965795
_cell_length_c 17.201410
_cell_angle_alpha 90.000000
_cell_angle_beta 19.824313
_cell_angle_gamma 90.000000
_cell_volume 3863.626187
_symmetry_space_group_name_H-M "C 2/C"
_symmetry_group_IT_number 15
_symmetry_cell_setting 'monoclinic'
loop_
_space_group_symop_operation_xyz
x,y,z
-x,y,1/2-z
-x,-y,-z
x,-y,1/2+z
1/2+x,1/2+y,z
1/2-x,1/2+y,1/2-z
1/2-x,1/2-y,-z
1/2+x,1/2-y,1/2+z
loop_
_atom_site_type_symbol
_atom_site_label
_atom_site_fract_x
_atom_site_fract_y
_atom_site_fract_z
Si Si1 0.678394 0.543110 0.282802
Si Si2 0.933409 0.545238 0.426995
Si Si3 0.994567 0.024720 0.134780
Si Si4 0.130120 0.785938 0.499693
Si Si5 0.343967 0.721059 0.301267
Si Si6 0.832401 0.461149 0.347127
Si Si7 0.731282 0.898895 0.211960
Si Si8 0.333710 0.877471 0.479905
O O1 0.565277 0.543818 0.366452
O O2 0.583689 0.528470 0.491773
O O3 0.792446 0.494775 0.110940
O O4 0.776843 0.595274 0.138395
O O5 0.869233 0.590478 0.570727
O O6 0.000000 0.560168 0.250000
O O7 0.058295 0.510358 0.298538
O O8 0.845258 0.020780 0.396832
O O9 0.113126 0.067341 0.997751
O O10 0.263019 0.744908 0.337419
O O11 0.216541 0.840603 0.373217
O O12 0.000000 0.789038 0.750000
O O13 0.024605 0.773881 0.570896
O O14 0.250000 0.750000 0.500000
O O15 0.295584 0.661289 0.369894
O O16 0.854243 0.425420 0.241748
O O17 0.859041 0.424279 0.384424
O O18 0.500000 0.849799 0.250000
#
# Coordination Sequence:
#
# PCOD9264898 Si02
#       8
#     8   8   8   8   8   8   8   8
#     4   9  16  29  44  67  93 128 172 200 230 292
#     4  11  19  35  47  71 103 137 174 214 237 307
#     4   9  17  27  46  65  94 134 164 198 238 292
#     4  10  19  36  49  76 104 135 166 219 259 320
#     4  10  20  31  49  71 104 131 173 209 264 311
#     4  11  18  31  46  73 104 133 165 206 249 303
#     4  11  22  30  51  72 103 137 171 204 267 301
#     4  11  17  28  49  68  99 142 168 197 254 309
#
# _framework density 16.56475
#
# number of rings (size 3 to 8) (size 9 to 14) (size 15 to 20)
#    0.000    1.750    3.750    5.625    0.000    0.000 
#    0.000    0.000    0.000    0.000    0.000    0.875 
#    0.000    0.000    0.000    0.000    0.000    0.000 
#
# Total GULP energy -178250.264801 kJ/mol
# GULP energy per Si atom -5570.320775 kJ/mol
# Density = 1.652705 g / cm^3
# Si number density = 16.564750 Si / 1000 Ang^3
#
#
#
# Elastic Constant Matrix: (Units=GPa)
#
#
# Indices 1 2 3 4 5 6 
#
# 1 43.6174 7.0212 28.4633 0.0036 -6.8032 -0.0053
# 2 7.0212 49.8280 18.8413 0.0120 1.0394 -0.0029
# 3 28.4633 18.8413 64.2417 0.0028 -3.5139 0.0075
# 4 0.0036 0.0120 0.0028 16.7211 0.0073 0.4437
# 5 -6.8032 1.0394 -3.5139 0.0073 25.5148 -0.0044
# 6 -0.0053 -0.0029 0.0075 0.4437 -0.0044 18.1036
#
#
#
# Elastic Compliance Matrix: (Units=1/GPa)
#
#
# Indices 1 2 3 4 5 6 
#
# 1 0.033444 0.000680 -0.014641 -0.000009 0.006873 0.000018
# 2 0.000680 0.022673 -0.007045 -0.000015 -0.001712 0.000007
# 3 -0.014641 -0.007045 0.024103 0.000005 -0.000298 -0.000016
# 4 -0.000009 -0.000015 0.000005 0.059844 -0.000019 -0.001467
# 5 0.006873 -0.001712 -0.000298 -0.000019 0.041054 0.000012
# 6 0.000018 0.000007 -0.000016 -0.001467 0.000012 0.055274
#
#
# Mechanical properties :
#
#
# Convention : Reuss Voigt Hill
#
# Bulk Modulus (GPa) = 26.17247 29.59321 27.88284
# Shear Modulus (GPa) = 17.17396 18.95866 18.06631
#
# Velocity S-wave (km/s) = 3.22340 3.38674 3.30608
# Velocity P-wave (km/s) = 5.44868 5.76171 5.60738
#
# Compressibility (1/GPa) = 0.03820809
#
# Stress axis : x y z
#
# Youngs Moduli (GPa) = 29.90104 44.10594 41.48828
#
# Poissons Ratio (x) = -0.03001 0.60745
# Poissons Ratio (y) = -0.02035 0.29228
# Poissons Ratio (z) = 0.43779 0.31072
#
# Static dielectric constant tensor:
#      x y z
#    x 1.639430 -0.000010 -0.032080 
#    y -0.000010 1.567220 0.000030 
#    z -0.032080 0.000030 1.637010 
# 
# From -- ./inp_files/124516.got.cif
#   From: 2010.05.17/outbox.cif.g08.bks.cpg/sg15_63_cif.got.tgz:124516.got - 2010.06.03 18:47:42.
