data_PCOD9264812
_publ_section_title
;
Structure prediction by ZEFSAII (Michael W. Deem and Ramdas Pophale) SiO2 
 PCOD9264812
Probable space group: C 2/C
;
_chemical_formula_sum "Si O2"
_cell_formula_units_Z 60
_cell_length_a 10.630958
_cell_length_b 16.308604
_cell_length_c 20.778900
_cell_angle_alpha 90.000000
_cell_angle_beta 132.841201
_cell_angle_gamma 90.000000
_cell_volume 2641.548197
_symmetry_space_group_name_H-M "C 2/C"
_symmetry_group_IT_number 15
_symmetry_cell_setting 'monoclinic'
loop_
_space_group_symop_operation_xyz
x,y,z
-x,y,1/2-z
-x,-y,-z
x,-y,1/2+z
1/2+x,1/2+y,z
1/2-x,1/2+y,1/2-z
1/2-x,1/2-y,-z
1/2+x,1/2-y,1/2+z
loop_
_atom_site_type_symbol
_atom_site_label
_atom_site_fract_x
_atom_site_fract_y
_atom_site_fract_z
Si Si1 0.840613 0.498985 0.738795
Si Si2 0.834971 0.077831 0.613419
Si Si3 0.500000 0.432612 0.750000
Si Si4 0.568755 0.937171 0.917131
Si Si5 0.384320 0.364268 0.393109
Si Si6 0.300780 0.263962 0.184324
Si Si7 0.294322 0.801545 0.821582
Si Si8 0.857923 0.894050 0.918738
O O1 0.770836 0.584629 0.690404
O O2 0.689989 0.435547 0.665978
O O3 0.000000 0.472731 0.750000
O O4 0.920401 0.496931 0.837749
O O5 0.658750 0.052960 0.516828
O O6 0.797378 0.143912 0.656403
O O7 0.961270 0.124701 0.605935
O O8 0.931331 0.997419 0.672822
O O9 0.654324 0.369779 0.788924
O O10 0.473393 0.850006 0.878628
O O11 0.728779 0.935864 0.924226
O O12 0.325573 0.271505 0.382308
O O13 0.456042 0.400942 0.484834
O O14 0.500000 0.237845 0.250000
O O15 0.250688 0.246436 0.240428
O O16 0.189772 0.201595 0.103199
#
# Coordination Sequence:
#
# PCOD9264812 Si02
#       8
#     8   8   4   8   8   8   8   8
#     4  10  20  37  59  92 139 179 213 264 327 394
#     4  11  23  42  70 100 126 164 233 276 323 381
#     4  12  28  46  62  94 138 184 212 262 330 408
#     4  10  20  38  67  96 125 170 216 282 324 375
#     4  11  22  37  65 100 128 175 219 270 323 392
#     4  12  19  39  69  99 129 163 215 282 333 370
#     4  12  24  41  65  92 136 175 211 268 334 391
#     4  10  19  35  64 102 130 158 221 281 329 370
#
# _framework density 22.713951999999999
#
# number of rings (size 3 to 8) (size 9 to 14) (size 15 to 20)
#    0.000    1.067    4.667    2.400    0.933    2.667 
#    0.000    1.333    0.000    4.000    0.000    0.000 
#    0.000    0.000    0.000    0.000    0.000    0.000 
#
# Total GULP energy -167514.927550 kJ/mol
# GULP energy per Si atom -5583.830918 kJ/mol
# Density = 2.266225 g / cm^3
# Si number density = 22.713952 Si / 1000 Ang^3
#
#
#
# Elastic Constant Matrix: (Units=GPa)
#
#
# Indices 1 2 3 4 5 6 
#
# 1 39.7295 26.4569 18.5189 0.0000 -0.3314 0.0000
# 2 26.4569 136.7292 65.1211 0.0000 9.6185 0.0000
# 3 18.5189 65.1211 177.5970 0.0000 3.4488 0.0000
# 4 0.0000 0.0000 0.0000 24.6204 0.0000 7.4860
# 5 -0.3314 9.6185 3.4488 0.0000 9.4002 0.0000
# 6 0.0000 0.0000 0.0000 7.4860 0.0000 28.9133
#
#
#
# Elastic Compliance Matrix: (Units=1/GPa)
#
#
# Indices 1 2 3 4 5 6 
#
# 1 0.029549 -0.005688 -0.001137 0.000000 0.007279 0.000000
# 2 -0.005688 0.010585 -0.003096 0.000000 -0.009896 0.000000
# 3 -0.001137 -0.003096 0.006873 0.000000 0.000606 0.000000
# 4 0.000000 0.000000 0.000000 0.044087 0.000000 -0.011415
# 5 0.007279 -0.009896 0.000606 0.000000 0.116540 0.000000
# 6 0.000000 0.000000 0.000000 -0.011415 0.000000 0.037542
#
#
# Mechanical properties :
#
#
# Convention : Reuss Voigt Hill
#
# Bulk Modulus (GPa) = 36.81285 63.80551 50.30918
# Shear Modulus (GPa) = 18.24334 28.85071 23.54702
#
# Velocity S-wave (km/s) = 2.83711 3.56782 3.22324
# Velocity P-wave (km/s) = 5.19371 6.71746 6.00412
#
# Compressibility (1/GPa) = 0.02716443
#
# Stress axis : x y z
#
# Youngs Moduli (GPa) = 33.84233 94.47247 145.50252
#
# Poissons Ratio (x) = 0.53739 0.16540
# Poissons Ratio (y) = 0.19251 0.45048
# Poissons Ratio (z) = 0.03847 0.29249
#
# Static dielectric constant tensor:
#      x y z
#    x 1.893620 0.000000 -0.038620 
#    y 0.000000 1.852540 0.000000 
#    z -0.038620 0.000000 1.896630 
# 
# From -- ./inp_files/270632.got.cif
#   From: 2010.05.17/outbox.cif.g08.bks.cpg/sg15_136_cif.got.tgz:270632.got - 2010.06.03 18:47:42.
