data_PCOD9264571
_publ_section_title
;
Structure prediction by ZEFSAII (Michael W. Deem and Ramdas Pophale) SiO2 
 PCOD9264571
Probable space group: C 2/C
;
_chemical_formula_sum "Si O2"
_cell_formula_units_Z 48
_cell_length_a 13.616268
_cell_length_b 12.969049
_cell_length_c 18.245554
_cell_angle_alpha 90.000000
_cell_angle_beta 137.260362
_cell_angle_gamma 90.000000
_cell_volume 2186.656698
_symmetry_space_group_name_H-M "C 2/C"
_symmetry_group_IT_number 15
_symmetry_cell_setting 'monoclinic'
loop_
_space_group_symop_operation_xyz
x,y,z
-x,y,1/2-z
-x,-y,-z
x,-y,1/2+z
1/2+x,1/2+y,z
1/2-x,1/2+y,1/2-z
1/2-x,1/2-y,-z
1/2+x,1/2-y,1/2+z
loop_
_atom_site_type_symbol
_atom_site_label
_atom_site_fract_x
_atom_site_fract_y
_atom_site_fract_z
Si Si1 0.621896 0.591705 0.425105
Si Si2 0.882864 0.580077 0.904168
Si Si3 0.858107 0.873645 0.985596
Si Si4 0.846355 0.215211 0.634123
Si Si5 0.589906 0.740385 0.522936
Si Si6 0.206674 0.897452 0.802136
O O1 0.642037 0.485500 0.479853
O O2 0.678521 0.680823 0.509730
O O3 0.451952 0.615385 0.317573
O O4 0.688937 0.583921 0.380668
O O5 0.777400 0.638305 0.903653
O O6 0.777800 0.499791 0.805069
O O7 0.000000 0.500000 0.000000
O O8 0.982335 0.673049 0.929252
O O9 0.874212 0.796627 0.063389
O O10 0.988730 0.846669 0.004043
O O11 0.706802 0.829392 0.871287
O O12 0.000000 0.184480 0.750000
O O13 0.687560 0.798507 0.637514
#
# Coordination Sequence:
#
# PCOD9264571 Si02
#       6
#     8   8   8   8   8   8
#     4  11  21  37  60  83 116 153 195 242 293 356
#     4   9  18  35  57  85 111 149 197 240 279 345
#     4  10  21  35  58  88 117 150 193 245 296 338
#     4  10  19  35  60  86 119 155 197 241 293 351
#     4  10  22  37  56  85 121 148 189 249 299 340
#     4  10  21  37  61  82 109 159 201 231 292 356
#
# _framework density 21.951319000000002
#
# number of rings (size 3 to 8) (size 9 to 14) (size 15 to 20)
#    0.000    2.000    1.667    2.000    0.000    4.000 
#    0.000    0.000    7.333    0.000    0.000    0.000 
#    0.000    0.000    0.000    0.000    0.000    0.000 
#
# Total GULP energy -133698.957695 kJ/mol
# GULP energy per Si atom -5570.789904 kJ/mol
# Density = 2.190136 g / cm^3
# Si number density = 21.951319 Si / 1000 Ang^3
#
#
#
# Elastic Constant Matrix: (Units=GPa)
#
#
# Indices 1 2 3 4 5 6 
#
# 1 66.3012 34.8076 9.5317 0.0000 10.5222 0.0000
# 2 34.8076 99.6226 5.1270 0.0000 -5.7148 0.0000
# 3 9.5317 5.1270 27.8311 0.0000 14.7871 0.0000
# 4 0.0000 0.0000 0.0000 18.7808 0.0000 -2.6986
# 5 10.5222 -5.7148 14.7871 0.0000 24.8627 0.0000
# 6 0.0000 0.0000 0.0000 -2.6986 0.0000 9.1204
#
#
#
# Elastic Compliance Matrix: (Units=1/GPa)
#
#
# Indices 1 2 3 4 5 6 
#
# 1 0.020942 -0.007925 -0.000052 0.000000 -0.010654 0.000000
# 2 -0.007925 0.013582 -0.004720 0.000000 0.009284 0.000000
# 3 -0.000052 -0.004720 0.054654 0.000000 -0.033568 0.000000
# 4 0.000000 0.000000 0.000000 0.055610 0.000000 0.016455
# 5 -0.010654 0.009284 -0.033568 0.000000 0.066828 0.000000
# 6 0.000000 0.000000 0.000000 0.016455 0.000000 0.114513
#
#
# Mechanical properties :
#
#
# Convention : Reuss Voigt Hill
#
# Bulk Modulus (GPa) = 15.67812 32.52085 24.09948
# Shear Modulus (GPa) = 13.41253 20.17202 16.79227
#
# Velocity S-wave (km/s) = 2.47455 3.03470 2.76882
# Velocity P-wave (km/s) = 3.91436 5.20829 4.60698
#
# Compressibility (1/GPa) = 0.06378316
#
# Stress axis : x y z
#
# Youngs Moduli (GPa) = 47.75171 73.62449 18.29696
#
# Poissons Ratio (x) = 0.58350 0.00095
# Poissons Ratio (y) = 0.37845 0.08637
# Poissons Ratio (z) = 0.00247 0.34753
#
# Static dielectric constant tensor:
#      x y z
#    x 1.805200 0.000000 0.026240 
#    y 0.000000 1.849590 0.000000 
#    z 0.026240 0.000000 1.955700 
# 
# From -- ./inp_files/152114.got.cif
#   From: 2010.05.17/outbox.cif.g08.bks.cpg/sg15_77_cif.got.tgz:152114.got - 2010.06.03 18:47:42.
