data_PCOD9264940
_publ_section_title
;
Structure prediction by ZEFSAII (Michael W. Deem and Ramdas Pophale) SiO2 
 PCOD9264940
Probable space group: C 2/C
;
_chemical_formula_sum "Si O2"
_cell_formula_units_Z 56
_cell_length_a 29.055939
_cell_length_b 9.442260
_cell_length_c 13.516379
_cell_angle_alpha 90.000000
_cell_angle_beta 48.524128
_cell_angle_gamma 90.000000
_cell_volume 2778.363785
_symmetry_space_group_name_H-M "C 2/C"
_symmetry_group_IT_number 15
_symmetry_cell_setting 'monoclinic'
loop_
_space_group_symop_operation_xyz
x,y,z
-x,y,1/2-z
-x,-y,-z
x,-y,1/2+z
1/2+x,1/2+y,z
1/2-x,1/2+y,1/2-z
1/2-x,1/2-y,-z
1/2+x,1/2-y,1/2+z
loop_
_atom_site_type_symbol
_atom_site_label
_atom_site_fract_x
_atom_site_fract_y
_atom_site_fract_z
Si Si1 0.119085 0.524272 0.535835
Si Si2 0.261343 0.030796 0.532807
Si Si3 0.945369 0.405398 0.686507
Si Si4 0.577844 0.156145 0.927538
Si Si5 0.620750 0.253840 0.392273
Si Si6 0.754839 0.168512 0.145836
Si Si7 0.349120 0.434201 0.677176
O O1 0.181119 0.556592 0.507852
O O2 0.078128 0.436041 0.670869
O O3 0.126779 0.425180 0.427921
O O4 0.091401 0.665703 0.524724
O O5 0.258886 0.051776 0.418970
O O6 0.273040 0.187600 0.562379
O O7 0.197653 0.973181 0.667355
O O8 0.937768 0.557411 0.643256
O O9 0.904451 0.301230 0.677163
O O10 0.013953 0.346583 0.578561
O O11 0.604378 0.308300 0.864355
O O12 0.692493 0.210145 0.290880
O O13 0.616570 0.421744 0.402128
O O14 0.806010 0.115227 0.147962
#
# Coordination Sequence:
#
# PCOD9264940 Si02
#       7
#     8   8   8   8   8   8   8
#     4  11  19  38  61  86 118 159 207 248 298 366
#     4  10  20  33  59  85 120 165 195 245 301 377
#     4  10  22  41  61  85 113 163 217 253 292 366
#     4  10  23  40  62  83 118 163 208 253 302 367
#     4  10  22  35  60  91 123 158 197 261 309 355
#     4  10  19  36  54  87 125 158 198 237 312 376
#     4  11  22  37  59  91 128 159 196 255 321 364
#
# _framework density 20.155747999999999
#
# number of rings (size 3 to 8) (size 9 to 14) (size 15 to 20)
#    0.000    1.714    4.286    0.429    0.000    1.714 
#    0.000    1.429    0.000    5.143    0.000    0.000 
#    0.000    0.000    0.000    0.000    0.000    0.000 
#
# Total GULP energy -156258.968632 kJ/mol
# GULP energy per Si atom -5580.677451 kJ/mol
# Density = 2.010987 g / cm^3
# Si number density = 20.155748 Si / 1000 Ang^3
#
#
#
# Elastic Constant Matrix: (Units=GPa)
#
#
# Indices 1 2 3 4 5 6 
#
# 1 61.6669 26.0813 11.9296 0.0000 0.4913 0.0000
# 2 26.0813 118.0648 17.4920 0.0000 -8.8669 0.0000
# 3 11.9296 17.4920 38.5951 0.0000 7.6226 0.0000
# 4 0.0000 0.0000 0.0000 21.4727 0.0000 -8.3665
# 5 0.4913 -8.8669 7.6226 0.0000 21.1077 0.0000
# 6 0.0000 0.0000 0.0000 -8.3665 0.0000 20.3202
#
#
#
# Elastic Compliance Matrix: (Units=1/GPa)
#
#
# Indices 1 2 3 4 5 6 
#
# 1 0.018489 -0.003521 -0.004029 0.000000 -0.000455 0.000000
# 2 -0.003521 0.010437 -0.004871 0.000000 0.006226 0.000000
# 3 -0.004029 -0.004871 0.032034 0.000000 -0.013521 0.000000
# 4 0.000000 0.000000 0.000000 0.055469 0.000000 0.022839
# 5 -0.000455 0.006226 -0.013521 0.000000 0.054885 0.000000
# 6 0.000000 0.000000 0.000000 0.022839 0.000000 0.058615
#
#
# Mechanical properties :
#
#
# Convention : Reuss Voigt Hill
#
# Bulk Modulus (GPa) = 27.68885 36.59249 32.14067
# Shear Modulus (GPa) = 18.73987 23.43506 21.08746
#
# Velocity S-wave (km/s) = 3.05249 3.41354 3.23805
# Velocity P-wave (km/s) = 5.11770 5.80780 5.47364
#
# Compressibility (1/GPa) = 0.03611562
#
# Stress axis : x y z
#
# Youngs Moduli (GPa) = 54.08747 95.81196 31.21724
#
# Poissons Ratio (x) = 0.33740 0.12577
# Poissons Ratio (y) = 0.19047 0.15207
# Poissons Ratio (z) = 0.21792 0.46674
#
# Static dielectric constant tensor:
#      x y z
#    x 1.726930 0.000000 -0.025570 
#    y 0.000000 1.738570 0.000000 
#    z -0.025570 0.000000 1.765310 
# 
# From -- ./inp_files/176675.got.cif
#   From: 2010.05.17/outbox.cif.g08.bks.cpg/sg15_89_cif.got.tgz:176675.got - 2010.06.03 18:47:42.
