data_PCOD9264441
_publ_section_title
;
Structure prediction by ZEFSAII (Michael W. Deem and Ramdas Pophale) SiO2 
 PCOD9264441
Probable space group: C 2/C
;
_chemical_formula_sum "Si O2"
_cell_formula_units_Z 56
_cell_length_a 14.259459
_cell_length_b 12.005250
_cell_length_c 32.616163
_cell_angle_alpha 90.000000
_cell_angle_beta 26.111304
_cell_angle_gamma 90.000000
_cell_volume 2457.392983
_symmetry_space_group_name_H-M "C 2/C"
_symmetry_group_IT_number 15
_symmetry_cell_setting 'monoclinic'
loop_
_space_group_symop_operation_xyz
x,y,z
-x,y,1/2-z
-x,-y,-z
x,-y,1/2+z
1/2+x,1/2+y,z
1/2-x,1/2+y,1/2-z
1/2-x,1/2-y,-z
1/2+x,1/2-y,1/2+z
loop_
_atom_site_type_symbol
_atom_site_label
_atom_site_fract_x
_atom_site_fract_y
_atom_site_fract_z
Si Si1 0.839365 0.086008 0.934122
Si Si2 0.329141 0.910641 0.632033
Si Si3 0.773156 0.876444 0.918681
Si Si4 0.553678 0.165684 0.578438
Si Si5 0.900541 0.376052 0.354561
Si Si6 0.191006 0.148814 0.854997
Si Si7 0.897153 0.869320 0.246813
O O1 0.961967 0.126898 0.925796
O O2 0.937919 0.144096 0.855047
O O3 0.895545 0.957351 0.901657
O O4 0.584991 0.093506 0.036338
O O5 0.268182 0.932808 0.608546
O O6 0.263248 0.781717 0.664180
O O7 0.206706 0.004657 0.706662
O O8 0.877813 0.757631 0.870242
O O9 0.551775 0.866027 0.030863
O O10 0.750000 0.250000 0.500000
O O11 0.612144 0.083248 0.593501
O O12 0.313335 0.202260 0.681090
O O13 0.728047 0.396549 0.386535
O O14 0.127849 0.403346 0.245427
O O15 0.000000 0.841011 0.250000
#
# Coordination Sequence:
#
# PCOD9264441 Si02
#       7
#     8   8   8   8   8   8   8
#     4  12  21  34  55  89 118 150 195 247 303 359
#     4  11  22  37  55  89 123 152 190 249 310 361
#     4  10  19  35  59  83 114 148 190 246 303 355
#     4  10  20  37  59  86 117 156 198 248 308 368
#     4   9  19  37  57  81 105 155 207 233 289 360
#     4  10  21  35  56  80 117 156 196 238 292 364
#     4  12  22  35  61  93 119 151 199 257 305 360
#
# _framework density 22.788378000000002
#
# number of rings (size 3 to 8) (size 9 to 14) (size 15 to 20)
#    0.000    1.429    4.286    2.571    2.000    0.000 
#    0.000    0.714    0.000    0.000   14.857    0.000 
#    0.000    0.000    0.000    0.000    0.000    0.000 
#
# Total GULP energy -155991.777980 kJ/mol
# GULP energy per Si atom -5571.134928 kJ/mol
# Density = 2.273651 g / cm^3
# Si number density = 22.788378 Si / 1000 Ang^3
#
#
#
# Elastic Constant Matrix: (Units=GPa)
#
#
# Indices 1 2 3 4 5 6 
#
# 1 146.7107 5.6763 50.8273 0.0023 -7.3209 -0.0007
# 2 5.6763 22.8341 -7.6248 -0.0008 -5.0246 0.0008
# 3 50.8273 -7.6248 114.7528 -0.0099 -2.3332 0.0031
# 4 0.0023 -0.0008 -0.0099 21.5488 -0.0044 -5.2882
# 5 -7.3209 -5.0246 -2.3332 -0.0044 40.1022 0.0009
# 6 -0.0007 0.0008 0.0031 -5.2882 0.0009 29.5184
#
#
#
# Elastic Compliance Matrix: (Units=1/GPa)
#
#
# Indices 1 2 3 4 5 6 
#
# 1 0.008328 -0.003169 -0.003881 -0.000003 0.000898 0.000000
# 2 -0.003169 0.047379 0.004666 0.000005 0.005629 -0.000001
# 3 -0.003881 0.004666 0.010754 0.000006 0.000502 0.000000
# 4 -0.000003 0.000005 0.000006 0.048540 0.000006 0.008696
# 5 0.000898 0.005629 0.000502 0.000006 0.025835 0.000000
# 6 0.000000 -0.000001 0.000000 0.008696 0.000000 0.035435
#
#
# Mechanical properties :
#
#
# Convention : Reuss Voigt Hill
#
# Bulk Modulus (GPa) = 16.20932 42.45060 29.32996
# Shear Modulus (GPa) = 24.80132 33.92848 29.36490
#
# Velocity S-wave (km/s) = 3.30257 3.86275 3.59359
# Velocity P-wave (km/s) = 4.65521 6.20992 5.48790
#
# Compressibility (1/GPa) = 0.06169292
#
# Stress axis : x y z
#
# Youngs Moduli (GPa) = 120.07551 21.10655 92.99173
#
# Poissons Ratio (x) = 0.06688 0.36091
# Poissons Ratio (y) = 0.38049 -0.43390
# Poissons Ratio (z) = 0.46602 -0.09848
#
# Static dielectric constant tensor:
#      x y z
#    x 1.950970 0.000000 0.039400 
#    y 0.000000 2.005060 0.000000 
#    z 0.039400 0.000000 1.890890 
# 
# From -- ./inp_files/153400.got.cif
#   From: 2010.05.17/outbox.cif.g08.bks.cpg/sg15_77_cif.got.tgz:153400.got - 2010.06.03 18:47:42.
