data_PCOD9264372
_publ_section_title
;
Structure prediction by ZEFSAII (Michael W. Deem and Ramdas Pophale) SiO2 
 PCOD9264372
Probable space group: C 2/C
;
_chemical_formula_sum "Si O2"
_cell_formula_units_Z 48
_cell_length_a 11.970403
_cell_length_b 6.222690
_cell_length_c 25.163250
_cell_angle_alpha 90.000000
_cell_angle_beta 95.908948
_cell_angle_gamma 90.000000
_cell_volume 1864.403904
_symmetry_space_group_name_H-M "C 2/C"
_symmetry_group_IT_number 15
_symmetry_cell_setting 'monoclinic'
loop_
_space_group_symop_operation_xyz
x,y,z
-x,y,1/2-z
-x,-y,-z
x,-y,1/2+z
1/2+x,1/2+y,z
1/2-x,1/2+y,1/2-z
1/2-x,1/2-y,-z
1/2+x,1/2-y,1/2+z
loop_
_atom_site_type_symbol
_atom_site_label
_atom_site_fract_x
_atom_site_fract_y
_atom_site_fract_z
Si Si1 0.683799 0.778503 0.167893
Si Si2 0.799552 0.070819 0.576164
Si Si3 0.981996 0.435784 0.575925
Si Si4 0.624035 0.962984 0.761180
Si Si5 0.403077 0.680538 0.996006
Si Si6 0.052565 0.776563 0.839527
O O1 0.698384 0.833846 0.106232
O O2 0.792829 0.662472 0.196541
O O3 0.573114 0.631158 0.170186
O O4 0.671210 0.986146 0.205306
O O5 0.878162 0.273202 0.568132
O O6 0.798465 0.937231 0.520590
O O7 0.866474 0.918982 0.621007
O O8 0.089448 0.294178 0.561538
O O9 0.952424 0.633328 0.535899
O O10 0.976371 0.550175 0.632301
O O11 0.500000 0.862695 0.750000
O O12 0.605064 0.197849 0.787408
O O13 0.500000 0.500000 0.000000
#
# Coordination Sequence:
#
# PCOD9264372 Si02
#       6
#     8   8   8   8   8   8
#     4  11  22  38  59  87 114 153 199 242 297 360
#     4  10  19  35  58  86 118 156 195 241 295 350
#     4   9  16  34  58  85 123 157 192 246 293 342
#     4  10  22  39  58  83 118 150 195 249 295 353
#     4   8  16  30  59  89 117 162 195 236 301 342
#     4  10  21  38  57  86 119 150 199 245 290 354
#
# _framework density 25.745494000000001
#
# number of rings (size 3 to 8) (size 9 to 14) (size 15 to 20)
#    0.000    2.333    1.667    1.000    0.000    1.333 
#    3.000    0.833    0.000   34.000    0.000    0.000 
#    0.000    0.000    0.000    0.000    0.000    0.000 
#
# Total GULP energy -134054.841136 kJ/mol
# GULP energy per Si atom -5585.618381 kJ/mol
# Density = 2.568690 g / cm^3
# Si number density = 25.745494 Si / 1000 Ang^3
#
#
#
# Elastic Constant Matrix: (Units=GPa)
#
#
# Indices 1 2 3 4 5 6 
#
# 1 84.3595 6.5049 3.1043 0.0000 -10.7679 0.0000
# 2 6.5049 78.8508 25.9982 0.0000 -6.1496 0.0000
# 3 3.1043 25.9982 82.2864 0.0000 -23.6670 0.0000
# 4 0.0000 0.0000 0.0000 43.8585 0.0000 4.6814
# 5 -10.7679 -6.1496 -23.6670 0.0000 58.7097 0.0000
# 6 0.0000 0.0000 0.0000 4.6814 0.0000 32.7558
#
#
#
# Elastic Compliance Matrix: (Units=1/GPa)
#
#
# Indices 1 2 3 4 5 6 
#
# 1 0.012211 -0.000999 0.000531 0.000000 0.002349 0.000000
# 2 -0.000999 0.014246 -0.004623 0.000000 -0.000555 0.000000
# 3 0.000531 -0.004623 0.015250 0.000000 0.005761 0.000000
# 4 0.000000 0.000000 0.000000 0.023154 0.000000 -0.003309
# 5 0.002349 -0.000555 0.005761 0.000000 0.019728 0.000000
# 6 0.000000 0.000000 0.000000 -0.003309 0.000000 0.031002
#
#
# Mechanical properties :
#
#
# Convention : Reuss Voigt Hill
#
# Bulk Modulus (GPa) = 31.72135 35.19017 33.45576
# Shear Modulus (GPa) = 36.68886 41.05742 38.87314
#
# Velocity S-wave (km/s) = 3.77909 3.99775 3.88996
# Velocity P-wave (km/s) = 5.60267 5.91672 5.76183
#
# Compressibility (1/GPa) = 0.03152451
#
# Stress axis : x y z
#
# Youngs Moduli (GPa) = 81.89093 70.19755 65.57351
#
# Poissons Ratio (x) = 0.07014 -0.03479
# Poissons Ratio (y) = 0.08182 0.30312
# Poissons Ratio (z) = -0.04345 0.32450
#
# Static dielectric constant tensor:
#      x y z
#    x 2.184030 0.000000 -0.071900 
#    y 0.000000 1.998720 0.000000 
#    z -0.071900 0.000000 2.049170 
# 
# From -- ./inp_files/312089.got.cif
#   From: 2010.05.17/outbox.cif.g08.bks.cpg/sg15_157_cif.got.tgz:312089.got - 2010.06.03 18:47:42.
