data_PCOD9264861
_publ_section_title
;
Structure prediction by ZEFSAII (Michael W. Deem and Ramdas Pophale) SiO2 
 PCOD9264861
Probable space group: C 2/C
;
_chemical_formula_sum "Si O2"
_cell_formula_units_Z 44
_cell_length_a 17.029765
_cell_length_b 10.999126
_cell_length_c 24.576536
_cell_angle_alpha 90.000000
_cell_angle_beta 26.774319
_cell_angle_gamma 90.000000
_cell_volume 2073.769733
_symmetry_space_group_name_H-M "C 2/C"
_symmetry_group_IT_number 15
_symmetry_cell_setting 'monoclinic'
loop_
_space_group_symop_operation_xyz
x,y,z
-x,y,1/2-z
-x,-y,-z
x,-y,1/2+z
1/2+x,1/2+y,z
1/2-x,1/2+y,1/2-z
1/2-x,1/2-y,-z
1/2+x,1/2-y,1/2+z
loop_
_atom_site_type_symbol
_atom_site_label
_atom_site_fract_x
_atom_site_fract_y
_atom_site_fract_z
Si Si1 0.000000 0.402590 0.750000
Si Si2 0.630422 0.079043 0.380796
Si Si3 0.003969 0.133005 0.183646
Si Si4 0.738609 0.082424 0.193805
Si Si5 0.659528 0.877719 0.088477
Si Si6 0.615952 0.332261 0.448165
O O1 0.858724 0.347040 0.796058
O O2 0.908744 0.495893 0.847749
O O3 0.622342 0.067166 0.320117
O O4 0.606128 0.218558 0.414350
O O5 0.837387 0.061088 0.264455
O O6 0.500000 0.000000 0.500000
O O7 0.014113 0.278541 0.162341
O O8 0.000000 0.119112 0.250000
O O9 0.191456 0.092435 0.046312
O O10 0.806852 0.952161 0.128853
O O11 0.922095 0.147926 0.091706
O O12 0.758631 0.813727 0.077902
#
# Coordination Sequence:
#
# PCOD9264861 Si02
#       6
#     4   8   8   8   8   8
#     4  10  20  38  60  88 114 172 220 244 310 378
#     4  12  26  38  63  99 132 167 206 272 326 384
#     4  11  20  34  57  94 127 152 198 266 336 365
#     4  10  23  41  65  88 126 172 212 265 318 387
#     4  10  19  35  66  89 122 159 206 283 318 368
#     4  10  21  43  63  92 124 165 215 262 331 379
#
# _framework density 21.217399
#
# number of rings (size 3 to 8) (size 9 to 14) (size 15 to 20)
#    0.000    1.455    4.545    1.091    5.091    0.000 
#    0.000    0.909    2.000    0.000    0.000    0.000 
#    0.000    0.000    0.000    0.000    0.000    0.000 
#
# Total GULP energy -122585.726898 kJ/mol
# GULP energy per Si atom -5572.078495 kJ/mol
# Density = 2.116911 g / cm^3
# Si number density = 21.217399 Si / 1000 Ang^3
#
#
#
# Elastic Constant Matrix: (Units=GPa)
#
#
# Indices 1 2 3 4 5 6 
#
# 1 85.0394 8.5794 31.0634 -0.0017 3.3757 -0.0005
# 2 8.5794 19.5143 9.7057 -0.0017 1.5939 -0.0003
# 3 31.0634 9.7057 137.8627 -0.0060 23.6915 -0.0004
# 4 -0.0017 -0.0017 -0.0060 15.9876 0.0004 -3.3479
# 5 3.3757 1.5939 23.6915 0.0004 49.7151 -0.0002
# 6 -0.0005 -0.0003 -0.0004 -3.3479 -0.0002 20.9146
#
#
#
# Elastic Compliance Matrix: (Units=1/GPa)
#
#
# Indices 1 2 3 4 5 6 
#
# 1 0.013195 -0.004477 -0.002754 0.000000 0.000560 0.000000
# 2 -0.004477 0.054623 -0.002819 0.000004 -0.000104 0.000001
# 3 -0.002754 -0.002819 0.008741 0.000003 -0.003888 0.000001
# 4 0.000000 0.000004 0.000003 0.064718 -0.000002 0.010360
# 5 0.000560 -0.000104 -0.003888 -0.000002 0.021933 0.000000
# 6 0.000000 0.000001 0.000001 0.010360 0.000000 0.049472
#
#
# Mechanical properties :
#
#
# Convention : Reuss Voigt Hill
#
# Bulk Modulus (GPa) = 17.71207 37.90148 27.80677
# Shear Modulus (GPa) = 19.87277 30.19465 25.03371
#
# Velocity S-wave (km/s) = 3.06376 3.77650 3.43865
# Velocity P-wave (km/s) = 4.56963 6.07603 5.37585
#
# Compressibility (1/GPa) = 0.05645869
#
# Stress axis : x y z
#
# Youngs Moduli (GPa) = 75.78790 18.30725 114.40658
#
# Poissons Ratio (x) = 0.08196 0.31509
# Poissons Ratio (y) = 0.33930 0.32250
# Poissons Ratio (z) = 0.20873 0.05161
#
# Static dielectric constant tensor:
#      x y z
#    x 1.786080 0.000000 -0.121670 
#    y 0.000000 1.773810 0.000010 
#    z -0.121670 0.000010 1.702990 
# 
# From -- ./inp_files/317713.got.cif
#   From: 2010.05.17/outbox.cif.g08.bks.cpg/sg15_159_cif.got.tgz:317713.got - 2010.06.03 18:47:42.
