data_PCOD9264787
_publ_section_title
;
Structure prediction by ZEFSAII (Michael W. Deem and Ramdas Pophale) SiO2 
 PCOD9264787
Probable space group: C 2/C
;
_chemical_formula_sum "Si O2"
_cell_formula_units_Z 64
_cell_length_a 7.747895
_cell_length_b 25.559997
_cell_length_c 15.246679
_cell_angle_alpha 90.000000
_cell_angle_beta 74.675392
_cell_angle_gamma 90.000000
_cell_volume 2912.036383
_symmetry_space_group_name_H-M "C 2/C"
_symmetry_group_IT_number 15
_symmetry_cell_setting 'monoclinic'
loop_
_space_group_symop_operation_xyz
x,y,z
-x,y,1/2-z
-x,-y,-z
x,-y,1/2+z
1/2+x,1/2+y,z
1/2-x,1/2+y,1/2-z
1/2-x,1/2-y,-z
1/2+x,1/2-y,1/2+z
loop_
_atom_site_type_symbol
_atom_site_label
_atom_site_fract_x
_atom_site_fract_y
_atom_site_fract_z
Si Si1 0.124093 0.650495 0.654569
Si Si2 0.846009 0.235669 0.397241
Si Si3 0.636385 0.949934 0.917079
Si Si4 0.633477 0.123355 0.964315
Si Si5 0.131600 0.044559 0.650080
Si Si6 0.402845 0.578599 0.533886
Si Si7 0.283766 0.357957 0.783162
Si Si8 0.163263 0.163398 0.411307
O O1 0.153469 0.712193 0.660946
O O2 0.302126 0.617060 0.616222
O O3 0.000000 0.630552 0.750000
O O4 0.021020 0.645341 0.575891
O O5 0.750000 0.250000 0.500000
O O6 0.753106 0.190331 0.352794
O O7 0.038376 0.212044 0.400871
O O8 0.702953 0.908584 0.837269
O O9 0.697913 0.005561 0.869990
O O10 0.442168 0.927330 0.971073
O O11 0.753396 0.944576 0.990077
O O12 0.785686 0.101776 0.878675
O O13 0.709372 0.165643 0.021778
O O14 0.000000 0.039066 0.750000
O O15 0.010795 0.037733 0.578770
O O16 0.531521 0.615165 0.456851
O O17 0.500000 0.363625 0.750000
O O18 0.227076 0.349679 0.690910
#
# Coordination Sequence:
#
# PCOD9264787 Si02
#       8
#     8   8   8   8   8   8   8   8
#     4  11  21  37  62  86 120 165 209 245 310 369
#     4  11  19  36  62  93 117 161 207 251 298 371
#     4  11  20  39  62  88 115 159 200 254 317 366
#     4  10  24  40  58  88 131 161 192 268 316 370
#     4  11  23  38  61  87 120 157 210 252 306 375
#     4  10  20  37  59  85 115 159 201 256 299 367
#     4  10  19  35  63  91 118 151 211 260 296 373
#     4  10  20  38  60  87 125 157 201 253 319 358
#
# _framework density 21.977747999999998
#
# number of rings (size 3 to 8) (size 9 to 14) (size 15 to 20)
#    0.000    1.500    3.750    3.750    0.000    1.000 
#    0.000    0.000    8.250    1.500    0.000    0.000 
#    0.000    0.000    0.000    0.000    0.000    0.000 
#
# Total GULP energy -178624.986863 kJ/mol
# GULP energy per Si atom -5582.030839 kJ/mol
# Density = 2.192773 g / cm^3
# Si number density = 21.977748 Si / 1000 Ang^3
#
#
#
# Elastic Constant Matrix: (Units=GPa)
#
#
# Indices 1 2 3 4 5 6 
#
# 1 35.0417 0.8622 -3.3110 0.0000 5.2763 0.0000
# 2 0.8622 66.0711 32.4053 0.0000 -4.5487 0.0000
# 3 -3.3110 32.4053 111.3746 0.0000 -17.1535 0.0000
# 4 0.0000 0.0000 0.0000 -0.9834 0.0000 -12.5066
# 5 5.2763 -4.5487 -17.1535 0.0000 34.5050 0.0000
# 6 0.0000 0.0000 0.0000 -12.5066 0.0000 21.7773
#
#
#
# Elastic Compliance Matrix: (Units=1/GPa)
#
#
# Indices 1 2 3 4 5 6 
#
# 1 0.029261 -0.000909 0.000462 0.000000 -0.004364 0.000000
# 2 -0.000909 0.017685 -0.005189 0.000000 -0.000109 0.000000
# 3 0.000462 -0.005189 0.011247 0.000000 0.004837 0.000000
# 4 0.000000 0.000000 0.000000 -0.122462 0.000000 -0.070329
# 5 -0.004364 -0.000109 0.004837 0.000000 0.032039 0.000000
# 6 0.000000 0.000000 0.000000 -0.070329 0.000000 0.005530
#
#
# Mechanical properties :
#
#
# Convention : Reuss Voigt Hill
#
# Bulk Modulus (GPa) = 21.31283 30.26673 25.78978
# Shear Modulus (GPa) = 23597.56187 23.22851 11810.39519
#
# Velocity S-wave (km/s) = 103.73203 3.25454 73.38571
# Velocity P-wave (km/s) = 119.81999 5.28433 84.80788
#
# Compressibility (1/GPa) = 0.04692010
#
# Stress axis : x y z
#
# Youngs Moduli (GPa) = 34.17567 56.54595 88.91056
#
# Poissons Ratio (x) = 0.05140 -0.04109
# Poissons Ratio (y) = 0.03107 0.46139
# Poissons Ratio (z) = -0.01579 0.29344
#
# Static dielectric constant tensor:
#      x y z
#    x 1.849520 0.000000 -0.004110 
#    y 0.000000 1.831370 0.000000 
#    z -0.004110 0.000000 1.806710 
# 
# From -- ./inp_files/138591.got.cif
#   From: 2010.05.17/outbox.cif.g08.bks.cpg/sg15_70_cif.got.tgz:138591.got - 2010.06.03 18:47:42.
