data_PCOD9264089
_publ_section_title
;
Structure prediction by ZEFSAII (Michael W. Deem and Ramdas Pophale) SiO2 
 PCOD9264089
Probable space group: C 2/C
;
_chemical_formula_sum "Si O2"
_cell_formula_units_Z 44
_cell_length_a 20.682356
_cell_length_b 14.368037
_cell_length_c 7.414794
_cell_angle_alpha 90.000000
_cell_angle_beta 65.064245
_cell_angle_gamma 90.000000
_cell_volume 1998.016145
_symmetry_space_group_name_H-M "C 2/C"
_symmetry_group_IT_number 15
_symmetry_cell_setting 'monoclinic'
loop_
_space_group_symop_operation_xyz
x,y,z
-x,y,1/2-z
-x,-y,-z
x,-y,1/2+z
1/2+x,1/2+y,z
1/2-x,1/2+y,1/2-z
1/2-x,1/2-y,-z
1/2+x,1/2-y,1/2+z
loop_
_atom_site_type_symbol
_atom_site_label
_atom_site_fract_x
_atom_site_fract_y
_atom_site_fract_z
Si Si1 0.223256 0.741999 0.238078
Si Si2 0.000000 0.493597 0.750000
Si Si3 0.422565 0.863499 0.548382
Si Si4 0.494330 0.329471 0.037656
Si Si5 0.651650 0.625678 0.330204
Si Si6 0.646407 0.419777 0.260686
O O1 0.158863 0.667043 0.322548
O O2 0.290365 0.705127 0.271616
O O3 0.192248 0.844117 0.316581
O O4 0.250000 0.750000 0.000000
O O5 0.036253 0.423792 0.848733
O O6 0.064036 0.566327 0.631414
O O7 0.463282 0.765493 0.494340
O O8 0.500000 0.317033 0.250000
O O9 0.435356 0.409655 0.077376
O O10 0.571700 0.349709 0.867299
O O11 0.672755 0.524506 0.235385
O O12 0.647064 0.612379 0.552496
#
# Coordination Sequence:
#
# PCOD9264089 Si02
#       6
#     8   4   8   8   8   8
#     4   9  20  36  58  80 115 150 184 230 290 351
#     4  10  22  36  60  84 110 154 200 242 274 340
#     4  10  20  38  56  85 112 149 199 236 287 335
#     4   9  17  34  58  75 107 146 186 225 278 342
#     4  10  19  35  55  80 105 146 179 225 286 333
#     4   9  19  35  54  79 106 141 185 224 272 337
#
# _framework density 22.021841999999999
#
# number of rings (size 3 to 8) (size 9 to 14) (size 15 to 20)
#    0.000    2.545    0.909    1.636    0.000    2.909 
#    9.818    0.909    0.000    0.000    0.000    0.000 
#    0.000    0.000    0.000    0.000    0.000    0.000 
#
# Total GULP energy -122729.541960 kJ/mol
# GULP energy per Si atom -5578.615544 kJ/mol
# Density = 2.197172 g / cm^3
# Si number density = 22.021842 Si / 1000 Ang^3
#
#
#
# Elastic Constant Matrix: (Units=GPa)
#
#
# Indices 1 2 3 4 5 6 
#
# 1 57.6467 21.8485 16.5518 0.0000 -32.5844 0.0000
# 2 21.8485 89.4297 8.9573 0.0000 -21.5023 0.0000
# 3 16.5518 8.9573 43.7248 0.0000 -19.0780 0.0000
# 4 0.0000 0.0000 0.0000 16.7717 0.0000 -3.5784
# 5 -32.5844 -21.5023 -19.0780 0.0000 35.2542 0.0000
# 6 0.0000 0.0000 0.0000 -3.5784 0.0000 27.6926
#
#
#
# Elastic Compliance Matrix: (Units=1/GPa)
#
#
# Indices 1 2 3 4 5 6 
#
# 1 0.036432 -0.000904 0.001107 0.000000 0.033721 0.000000
# 2 -0.000904 0.013163 0.001026 0.000000 0.007748 0.000000
# 3 0.001107 0.001026 0.030058 0.000000 0.017915 0.000000
# 4 0.000000 0.000000 0.000000 0.061315 0.000000 0.007923
# 5 0.033721 0.007748 0.017915 0.000000 0.073954 0.000000
# 6 0.000000 0.000000 0.000000 0.007923 0.000000 0.037135
#
#
# Mechanical properties :
#
#
# Convention : Reuss Voigt Hill
#
# Bulk Modulus (GPa) = 12.17844 31.72405 21.95124
# Shear Modulus (GPa) = 18.05267 25.50661 21.77964
#
# Velocity S-wave (km/s) = 2.86625 3.40699 3.14825
# Velocity P-wave (km/s) = 4.06153 5.46935 4.81715
#
# Compressibility (1/GPa) = 0.08211235
#
# Stress axis : x y z
#
# Youngs Moduli (GPa) = 27.44805 75.97057 33.26942
#
# Poissons Ratio (x) = 0.06866 -0.03683
# Poissons Ratio (y) = 0.02481 -0.03415
# Poissons Ratio (z) = -0.03039 -0.07798
#
# Static dielectric constant tensor:
#      x y z
#    x 2.050920 0.000000 0.357970 
#    y 0.000000 1.757940 0.000000 
#    z 0.357970 0.000000 2.377720 
# 
# From -- ./inp_files/46980.got.cif
#   From: 2010.05.17/outbox.cif.g08.bks.cpg/sg15_24_cif.got.tgz:46980.got - 2010.06.03 18:47:42.
