data_PCOD9264480
_publ_section_title
;
Structure prediction by ZEFSAII (Michael W. Deem and Ramdas Pophale) SiO2 
 PCOD9264480
Probable space group: C 2/C
;
_chemical_formula_sum "Si O2"
_cell_formula_units_Z 48
_cell_length_a 14.759768
_cell_length_b 14.288143
_cell_length_c 26.520744
_cell_angle_alpha 90.000000
_cell_angle_beta 26.574970
_cell_angle_gamma 90.000000
_cell_volume 2502.109747
_symmetry_space_group_name_H-M "C 2/C"
_symmetry_group_IT_number 15
_symmetry_cell_setting 'monoclinic'
loop_
_space_group_symop_operation_xyz
x,y,z
-x,y,1/2-z
-x,-y,-z
x,-y,1/2+z
1/2+x,1/2+y,z
1/2-x,1/2+y,1/2-z
1/2-x,1/2-y,-z
1/2+x,1/2-y,1/2+z
loop_
_atom_site_type_symbol
_atom_site_label
_atom_site_fract_x
_atom_site_fract_y
_atom_site_fract_z
Si Si1 0.482669 0.341711 0.136308
Si Si2 0.369966 0.737883 0.131500
Si Si3 0.509960 0.444181 0.874702
Si Si4 0.814841 0.436559 0.635907
Si Si5 0.867884 0.589007 0.998340
Si Si6 0.681730 0.210739 0.955761
O O1 0.289551 0.279774 0.248686
O O2 0.436666 0.447601 0.143051
O O3 0.627207 0.339763 0.113755
O O4 0.610390 0.293585 0.028174
O O5 0.424852 0.630888 0.116043
O O6 0.570513 0.802619 0.034638
O O7 0.284751 0.753442 0.117535
O O8 0.634381 0.413979 0.762928
O O9 0.273483 0.438033 0.977715
O O10 0.758521 0.438909 0.605218
O O11 0.921108 0.532390 0.601506
O O12 0.995135 0.361319 0.548518
#
# Coordination Sequence:
#
# PCOD9264480 Si02
#       6
#     8   8   8   8   8   8
#     4  11  22  38  63  85 116 158 202 242 289 354
#     4  11  23  38  59  88 123 152 192 250 299 353
#     4  12  22  36  60  88 118 156 194 241 306 353
#     4  10  19  35  59  86 115 147 201 246 288 346
#     4  10  21  35  56  88 117 149 193 249 295 347
#     4  10  22  40  59  87 117 154 201 244 291 345
#
# _framework density 19.183810999999999
#
# number of rings (size 3 to 8) (size 9 to 14) (size 15 to 20)
#    0.000    1.333    5.000    1.500    0.000    2.000 
#    0.000    0.000    0.000    0.000    0.000    0.000 
#    0.000    0.000    0.000    0.000    0.000    0.000 
#
# Total GULP energy -133928.507952 kJ/mol
# GULP energy per Si atom -5580.354498 kJ/mol
# Density = 1.914015 g / cm^3
# Si number density = 19.183811 Si / 1000 Ang^3
#
#
#
# Elastic Constant Matrix: (Units=GPa)
#
#
# Indices 1 2 3 4 5 6 
#
# 1 47.0852 35.7101 -3.4046 0.0009 -0.2204 0.0000
# 2 35.7101 129.7452 9.6594 0.0012 1.5688 -0.0001
# 3 -3.4046 9.6594 39.8712 -0.0020 7.4835 -0.0007
# 4 0.0009 0.0012 -0.0020 21.8819 0.0003 2.5787
# 5 -0.2204 1.5688 7.4835 0.0003 21.0848 -0.0006
# 6 0.0000 -0.0001 -0.0007 2.5787 -0.0006 27.0359
#
#
#
# Elastic Compliance Matrix: (Units=1/GPa)
#
#
# Indices 1 2 3 4 5 6 
#
# 1 0.027544 -0.007900 0.004394 0.000000 -0.000684 0.000000
# 2 -0.007900 0.010115 -0.003180 -0.000001 0.000294 0.000000
# 3 0.004394 -0.003180 0.028041 0.000003 -0.009670 0.000000
# 4 0.000000 -0.000001 0.000003 0.046219 -0.000002 -0.004408
# 5 -0.000684 0.000294 -0.009670 -0.000002 0.050831 0.000001
# 6 0.000000 0.000000 0.000000 -0.004408 0.000001 0.037408
#
#
# Mechanical properties :
#
#
# Convention : Reuss Voigt Hill
#
# Bulk Modulus (GPa) = 19.10999 33.40348 26.25674
# Shear Modulus (GPa) = 21.64753 25.64963 23.64858
#
# Velocity S-wave (km/s) = 3.36285 3.66053 3.51484
# Velocity P-wave (km/s) = 5.00615 5.94274 5.49443
#
# Compressibility (1/GPa) = 0.05232864
#
# Stress axis : x y z
#
# Youngs Moduli (GPa) = 36.30556 98.86385 35.66161
#
# Poissons Ratio (x) = 0.78101 -0.15670
# Poissons Ratio (y) = 0.28681 0.11341
# Poissons Ratio (z) = -0.15953 0.31440
#
# Static dielectric constant tensor:
#      x y z
#    x 1.668210 0.000000 -0.004060 
#    y 0.000000 1.691620 0.000000 
#    z -0.004060 0.000000 1.673050 
# 
# From -- ./inp_files/96175.got.cif
#   From: 2010.05.17/outbox.cif.g08.bks.cpg/sg15_49_cif.got.tgz:96175.got - 2010.06.03 18:47:42.
