data_PCOD9264549
_publ_section_title
;
Structure prediction by ZEFSAII (Michael W. Deem and Ramdas Pophale) SiO2 
 PCOD9264549
Probable space group: C 2/C
;
_chemical_formula_sum "Si O2"
_cell_formula_units_Z 52
_cell_length_a 20.315881
_cell_length_b 8.419141
_cell_length_c 22.615416
_cell_angle_alpha 90.000000
_cell_angle_beta 37.242144
_cell_angle_gamma 90.000000
_cell_volume 2340.971166
_symmetry_space_group_name_H-M "C 2/C"
_symmetry_group_IT_number 15
_symmetry_cell_setting 'monoclinic'
loop_
_space_group_symop_operation_xyz
x,y,z
-x,y,1/2-z
-x,-y,-z
x,-y,1/2+z
1/2+x,1/2+y,z
1/2-x,1/2+y,1/2-z
1/2-x,1/2-y,-z
1/2+x,1/2-y,1/2+z
loop_
_atom_site_type_symbol
_atom_site_label
_atom_site_fract_x
_atom_site_fract_y
_atom_site_fract_z
Si Si1 0.540114 0.517168 0.885415
Si Si2 0.237383 0.218003 0.579997
Si Si3 0.180833 0.024419 0.906949
Si Si4 0.397619 0.031851 0.616781
Si Si5 0.035909 0.630607 0.099292
Si Si6 0.702616 0.710593 0.238110
Si Si7 0.000000 0.244365 0.750000
O O1 0.616530 0.509085 0.889554
O O2 0.511099 0.699492 0.891218
O O3 0.608087 0.413563 0.791211
O O4 0.423005 0.436644 0.978191
O O5 0.250000 0.250000 0.500000
O O6 0.261187 0.372651 0.604077
O O7 0.343818 0.109821 0.514332
O O8 0.115387 0.158006 0.679022
O O9 0.265632 0.162640 0.834086
O O10 0.457038 0.006577 0.636490
O O11 0.309752 0.894942 0.671095
O O12 0.500000 0.000000 0.500000
O O13 0.332308 0.193990 0.676404
O O14 0.031396 0.649006 0.172028
#
# Coordination Sequence:
#
# PCOD9264549 Si02
#       7
#     8   8   8   8   8   8   4
#     4  10  21  36  59  87 130 166 205 262 329 388
#     4   9  20  35  58  86 116 154 213 257 310 364
#     4  10  19  35  60  82 127 168 201 269 327 369
#     4  12  25  36  59  93 133 171 216 264 330 395
#     4  10  21  40  59  92 124 163 213 265 315 392
#     4  12  22  37  55  94 129 173 204 261 332 393
#     4  10  20  36  64  88 116 166 212 266 302 372
#
# _framework density 22.213004000000002
#
# number of rings (size 3 to 8) (size 9 to 14) (size 15 to 20)
#    0.000    1.538    3.077    1.846    4.308    1.231 
#    0.000    0.000    0.000    5.538    0.000   33.385 
#    0.000    0.000    0.000    0.000    0.000    0.000 
#
# Total GULP energy -144856.413608 kJ/mol
# GULP energy per Si atom -5571.400523 kJ/mol
# Density = 2.216245 g / cm^3
# Si number density = 22.213004 Si / 1000 Ang^3
#
#
#
# Elastic Constant Matrix: (Units=GPa)
#
#
# Indices 1 2 3 4 5 6 
#
# 1 69.8178 23.7210 30.8490 0.0000 -5.3287 0.0000
# 2 23.7210 52.2586 47.8716 -0.0001 -15.5102 0.0001
# 3 30.8490 47.8716 187.1989 0.0000 -40.8569 0.0000
# 4 0.0000 -0.0001 0.0000 35.8418 0.0001 4.1719
# 5 -5.3287 -15.5102 -40.8569 0.0001 34.0458 0.0000
# 6 0.0000 0.0001 0.0000 4.1719 0.0000 6.0591
#
#
#
# Elastic Compliance Matrix: (Units=1/GPa)
#
#
# Indices 1 2 3 4 5 6 
#
# 1 0.017242 -0.007125 -0.001543 0.000000 -0.002399 0.000000
# 2 -0.007125 0.028588 -0.004793 0.000000 0.006157 -0.000001
# 3 -0.001543 -0.004793 0.008526 0.000000 0.007806 0.000000
# 4 0.000000 0.000000 0.000000 0.030331 0.000000 -0.020884
# 5 -0.002399 0.006157 0.007806 0.000000 0.041170 0.000000
# 6 0.000000 -0.000001 0.000000 -0.020884 0.000000 0.179419
#
#
# Mechanical properties :
#
#
# Convention : Reuss Voigt Hill
#
# Bulk Modulus (GPa) = 36.45105 57.12872 46.78989
# Shear Modulus (GPa) = 14.64809 28.97826 21.81318
#
# Velocity S-wave (km/s) = 2.57074 3.61579 3.13709
# Velocity P-wave (km/s) = 5.02563 6.57315 5.85078
#
# Compressibility (1/GPa) = 0.02743405
#
# Stress axis : x y z
#
# Youngs Moduli (GPa) = 57.99634 34.98031 117.29517
#
# Poissons Ratio (x) = 0.24924 0.18097
# Poissons Ratio (y) = 0.41324 0.56215
# Poissons Ratio (z) = 0.08948 0.16765
#
# Static dielectric constant tensor:
#      x y z
#    x 1.906750 0.000000 -0.000890 
#    y 0.000000 1.824920 0.000000 
#    z -0.000890 0.000000 1.887990 
# 
# From -- ./inp_files/301970.got.cif
#   From: 2010.05.17/outbox.cif.g08.bks.cpg/sg15_151_cif.got.tgz:301970.got - 2010.06.03 18:47:42.
