data_PCOD9264369
_publ_section_title
;
Structure prediction by ZEFSAII (Michael W. Deem and Ramdas Pophale) SiO2 
 PCOD9264369
Probable space group: C 2/C
;
_chemical_formula_sum "Si O2"
_cell_formula_units_Z 64
_cell_length_a 16.957372
_cell_length_b 11.879175
_cell_length_c 26.820052
_cell_angle_alpha 90.000000
_cell_angle_beta 144.368823
_cell_angle_gamma 90.000000
_cell_volume 3147.379235
_symmetry_space_group_name_H-M "C 2/C"
_symmetry_group_IT_number 15
_symmetry_cell_setting 'monoclinic'
loop_
_space_group_symop_operation_xyz
x,y,z
-x,y,1/2-z
-x,-y,-z
x,-y,1/2+z
1/2+x,1/2+y,z
1/2-x,1/2+y,1/2-z
1/2-x,1/2-y,-z
1/2+x,1/2-y,1/2+z
loop_
_atom_site_type_symbol
_atom_site_label
_atom_site_fract_x
_atom_site_fract_y
_atom_site_fract_z
Si Si1 0.876028 0.486410 0.215782
Si Si2 0.300626 0.258801 0.659499
Si Si3 0.522222 0.356089 0.665023
Si Si4 0.742347 0.551459 0.436229
Si Si5 0.620885 0.908648 0.069304
Si Si6 0.981817 0.811256 0.465646
Si Si7 0.482348 0.104781 0.874778
Si Si8 0.411185 0.454803 0.896058
O O1 0.853470 0.366130 0.176835
O O2 0.916737 0.455423 0.293363
O O3 0.727936 0.541556 0.143625
O O4 0.000000 0.543904 0.250000
O O5 0.406139 0.329755 0.745996
O O6 0.257308 0.325139 0.588716
O O7 0.163396 0.243186 0.620045
O O8 0.397359 0.441659 0.606258
O O9 0.484997 0.232513 0.625032
O O10 0.619969 0.410941 0.674628
O O11 0.754767 0.464922 0.396339
O O12 0.877688 0.543537 0.538369
O O13 0.615026 0.891350 0.126179
O O14 0.584942 0.791859 0.022948
O O15 0.500000 0.000000 0.000000
O O16 0.989474 0.868841 0.524470
O O17 0.982780 0.923010 0.432459
#
# Coordination Sequence:
#
# PCOD9264369 Si02
#       8
#     8   8   8   8   8   8   8   8
#     4  10  22  37  56  89 117 154 199 265 314 356
#     4  10  19  35  58  85 124 146 197 260 310 351
#     4  11  21  34  54  92 116 158 200 257 303 361
#     4  11  21  33  58  86 121 153 198 255 305 368
#     4  10  19  35  59  87 116 157 199 246 305 375
#     4  10  19  39  60  88 114 166 203 255 301 373
#     4  10  20  36  60  82 118 155 208 245 307 373
#     4  10  22  36  62  83 125 156 210 248 311 378
#
# _framework density 20.334378999999998
#
# number of rings (size 3 to 8) (size 9 to 14) (size 15 to 20)
#    0.000    1.750    3.750    2.250    1.750    3.000 
#    0.000    0.625    0.000    6.000    0.000    0.000 
#    0.000    0.000    0.000    0.000    0.000    0.000 
#
# Total GULP energy -178277.386049 kJ/mol
# GULP energy per Si atom -5571.168314 kJ/mol
# Density = 2.028810 g / cm^3
# Si number density = 20.334379 Si / 1000 Ang^3
#
#
#
# Elastic Constant Matrix: (Units=GPa)
#
#
# Indices 1 2 3 4 5 6 
#
# 1 83.9173 28.8129 15.3590 0.0000 11.2485 0.0000
# 2 28.8129 53.2382 11.8552 0.0000 0.9077 0.0000
# 3 15.3590 11.8552 59.7667 0.0000 1.4195 0.0000
# 4 0.0000 0.0000 0.0000 14.1422 0.0000 -4.8404
# 5 11.2485 0.9077 1.4195 0.0000 25.3834 0.0000
# 6 0.0000 0.0000 0.0000 -4.8404 0.0000 19.8374
#
#
#
# Elastic Compliance Matrix: (Units=1/GPa)
#
#
# Indices 1 2 3 4 5 6 
#
# 1 0.015995 -0.008017 -0.002362 0.000000 -0.006670 0.000000
# 2 -0.008017 0.023676 -0.002704 0.000000 0.002857 0.000000
# 3 -0.002362 -0.002704 0.017872 0.000000 0.000144 0.000000
# 4 0.000000 0.000000 0.000000 0.077154 0.000000 0.018826
# 5 -0.006670 0.002857 0.000144 0.000000 0.042241 0.000000
# 6 0.000000 0.000000 0.000000 0.018826 0.000000 0.055003
#
#
# Mechanical properties :
#
#
# Convention : Reuss Voigt Hill
#
# Bulk Modulus (GPa) = 31.87047 34.33074 33.10061
# Shear Modulus (GPa) = 18.61739 21.26560 19.94150
#
# Velocity S-wave (km/s) = 3.02911 3.23738 3.13498
# Velocity P-wave (km/s) = 5.28595 5.55823 5.42380
#
# Compressibility (1/GPa) = 0.03137701
#
# Stress axis : x y z
#
# Youngs Moduli (GPa) = 62.51768 42.23708 55.95471
#
# Poissons Ratio (x) = 0.33862 0.13216
# Poissons Ratio (y) = 0.50122 0.15129
# Poissons Ratio (z) = 0.14766 0.11420
#
# Static dielectric constant tensor:
#      x y z
#    x 1.797140 0.000000 0.032040 
#    y 0.000000 1.728500 0.000000 
#    z 0.032040 0.000000 1.757430 
# 
# From -- ./inp_files/296157.got.cif
#   From: 2010.05.17/outbox.cif.g08.bks.cpg/sg15_149_cif.got.tgz:296157.got - 2010.06.03 18:47:42.
