data_PCOD9264980
_publ_section_title
;
Structure prediction by ZEFSAII (Michael W. Deem and Ramdas Pophale) SiO2 
 PCOD9264980
Probable space group: C 2/C
;
_chemical_formula_sum "Si O2"
_cell_formula_units_Z 56
_cell_length_a 10.475776
_cell_length_b 14.952120
_cell_length_c 19.328066
_cell_angle_alpha 90.000000
_cell_angle_beta 61.878263
_cell_angle_gamma 90.000000
_cell_volume 2670.056250
_symmetry_space_group_name_H-M "C 2/C"
_symmetry_group_IT_number 15
_symmetry_cell_setting 'monoclinic'
loop_
_space_group_symop_operation_xyz
x,y,z
-x,y,1/2-z
-x,-y,-z
x,-y,1/2+z
1/2+x,1/2+y,z
1/2-x,1/2+y,1/2-z
1/2-x,1/2-y,-z
1/2+x,1/2-y,1/2+z
loop_
_atom_site_type_symbol
_atom_site_label
_atom_site_fract_x
_atom_site_fract_y
_atom_site_fract_z
Si Si1 0.080323 0.103292 0.601793
Si Si2 0.094509 0.913254 0.618222
Si Si3 0.099320 0.273699 0.157719
Si Si4 0.841783 0.202308 0.163457
Si Si5 0.553415 0.783393 0.810275
Si Si6 0.683429 0.571663 0.935593
Si Si7 0.805750 0.377014 0.929859
O O1 0.011429 0.185189 0.660027
O O2 0.222641 0.132529 0.523355
O O3 0.961390 0.072671 0.574215
O O4 0.117060 0.014446 0.636003
O O5 0.976464 0.729243 0.628425
O O6 0.141890 0.909549 0.525871
O O7 0.924335 0.888453 0.665023
O O8 0.163041 0.172556 0.138333
O O9 0.216373 0.348759 0.117261
O O10 0.000000 0.285801 0.250000
O O11 0.722900 0.225239 0.251454
O O12 0.772016 0.186263 0.107062
O O13 0.500000 0.820977 0.750000
O O14 0.473712 0.847608 0.885773
O O15 0.770519 0.478097 0.913930
#
# Coordination Sequence:
#
# PCOD9264980 Si02
#       7
#     8   8   8   8   8   8   8
#     4  11  18  35  57  79  98 140 179 210 252 313
#     4   9  19  34  53  73 111 135 166 212 264 295
#     4  10  20  31  50  82 107 133 168 208 263 314
#     4   9  18  37  46  76 109 134 162 219 261 294
#     4  10  22  34  52  75 110 137 171 211 264 303
#     4  11  18  33  59  82  98 133 179 219 254 298
#     4  10  19  36  56  77 101 136 179 219 252 297
#
# _framework density 20.973341000000001
#
# number of rings (size 3 to 8) (size 9 to 14) (size 15 to 20)
#    0.857    1.143    2.857    2.571    0.000    2.286 
#    2.571    0.000    0.000    0.000    0.000   11.000 
#    0.000    0.000    0.000    0.000    0.000    0.000 
#
# Total GULP energy -155964.591677 kJ/mol
# GULP energy per Si atom -5570.163988 kJ/mol
# Density = 2.092561 g / cm^3
# Si number density = 20.973341 Si / 1000 Ang^3
#
#
#
# Elastic Constant Matrix: (Units=GPa)
#
#
# Indices 1 2 3 4 5 6 
#
# 1 32.4214 9.4397 4.0323 0.0000 -12.9871 0.0000
# 2 9.4397 119.3032 59.7229 0.0000 -21.2060 0.0000
# 3 4.0323 59.7229 79.7223 0.0000 -29.5370 0.0000
# 4 0.0000 0.0000 0.0000 16.9234 0.0000 -4.9666
# 5 -12.9871 -21.2060 -29.5370 0.0000 29.1560 0.0000
# 6 0.0000 0.0000 0.0000 -4.9666 0.0000 27.2668
#
#
#
# Elastic Compliance Matrix: (Units=1/GPa)
#
#
# Indices 1 2 3 4 5 6 
#
# 1 0.041140 -0.003865 0.010506 0.000000 0.026157 0.000000
# 2 -0.003865 0.013783 -0.011292 0.000000 -0.003136 0.000000
# 3 0.010506 -0.011292 0.030676 0.000000 0.027544 0.000000
# 4 0.000000 0.000000 0.000000 0.062427 0.000000 0.011371
# 5 0.026157 -0.003136 0.027544 0.000000 0.071572 0.000000
# 6 0.000000 0.000000 0.000000 0.011371 0.000000 0.038746
#
#
# Mechanical properties :
#
#
# Convention : Reuss Voigt Hill
#
# Bulk Modulus (GPa) = 13.10656 41.98187 27.54422
# Shear Modulus (GPa) = 17.06023 25.21937 21.13980
#
# Velocity S-wave (km/s) = 2.85515 3.47140 3.17825
# Velocity P-wave (km/s) = 4.13907 6.01063 5.16041
#
# Compressibility (1/GPa) = 0.07629768
#
# Stress axis : x y z
#
# Youngs Moduli (GPa) = 24.30701 72.55291 32.59844
#
# Poissons Ratio (x) = 0.28041 -0.34247
# Poissons Ratio (y) = 0.09394 0.36810
# Poissons Ratio (z) = -0.25536 0.81926
#
# Static dielectric constant tensor:
#      x y z
#    x 1.825570 0.000000 0.014470 
#    y 0.000000 1.772060 0.000000 
#    z 0.014470 0.000000 1.758110 
# 
# From -- ./inp_files/153454.got.cif
#   From: 2010.05.17/outbox.cif.g08.bks.cpg/sg15_77_cif.got.tgz:153454.got - 2010.06.03 18:47:42.
