data_PCOD9264127
_publ_section_title
;
Structure prediction by ZEFSAII (Michael W. Deem and Ramdas Pophale) SiO2 
 PCOD9264127
Probable space group: C 2/C
;
_chemical_formula_sum "Si O2"
_cell_formula_units_Z 40
_cell_length_a 30.055982
_cell_length_b 10.758161
_cell_length_c 12.733878
_cell_angle_alpha 90.000000
_cell_angle_beta 28.389580
_cell_angle_gamma 90.000000
_cell_volume 1957.706089
_symmetry_space_group_name_H-M "C 2/C"
_symmetry_group_IT_number 15
_symmetry_cell_setting 'monoclinic'
loop_
_space_group_symop_operation_xyz
x,y,z
-x,y,1/2-z
-x,-y,-z
x,-y,1/2+z
1/2+x,1/2+y,z
1/2-x,1/2+y,1/2-z
1/2-x,1/2-y,-z
1/2+x,1/2-y,1/2+z
loop_
_atom_site_type_symbol
_atom_site_label
_atom_site_fract_x
_atom_site_fract_y
_atom_site_fract_z
Si Si1 0.718661 0.960198 0.972942
Si Si2 0.146342 0.379528 0.341420
Si Si3 0.398646 0.862549 0.480363
Si Si4 0.400899 0.372437 0.482445
Si Si5 0.774414 0.715032 0.615517
O O1 0.824110 0.944325 0.710377
O O2 0.699189 0.107673 0.019841
O O3 0.698687 0.893672 0.123576
O O4 0.651792 0.898119 0.024579
O O5 0.092009 0.506413 0.478074
O O6 0.082647 0.257278 0.487387
O O7 0.220504 0.357176 0.281981
O O8 0.500000 0.807815 0.250000
O O9 0.326757 0.773148 0.688651
O O10 0.500000 0.431518 0.250000
O O11 0.347801 0.325670 0.486399
#
# Coordination Sequence:
#
# PCOD9264127 Si02
#       5
#     8   8   8   8   8
#     4  10  19  35  56  74 106 138 168 214 254 305
#     4   9  19  33  56  79 100 132 181 206 257 302
#     4  10  20  35  52  77 107 137 168 214 258 301
#     4   9  18  33  53  77 101 131 176 209 251 303
#     4   8  20  34  53  73 107 136 165 217 255 298
#
# _framework density 20.432075000000001
#
# number of rings (size 3 to 8) (size 9 to 14) (size 15 to 20)
#    1.200    1.600    0.000    1.200    0.000    2.400 
#    0.000    0.000    0.000   12.000    0.000    0.000 
#    0.000    0.000    0.000    0.000    0.000    0.000 
#
# Total GULP energy -111354.478358 kJ/mol
# GULP energy per Si atom -5567.723918 kJ/mol
# Density = 2.038557 g / cm^3
# Si number density = 20.432075 Si / 1000 Ang^3
#
#
#
# Elastic Constant Matrix: (Units=GPa)
#
#
# Indices 1 2 3 4 5 6 
#
# 1 31.5396 -1.8776 36.0605 0.0000 2.8042 0.0000
# 2 -1.8776 21.4672 -16.7418 0.0000 5.4271 0.0000
# 3 36.0605 -16.7418 94.8715 0.0000 -12.4649 0.0000
# 4 0.0000 0.0000 0.0000 1.2092 0.0000 -2.6368
# 5 2.8042 5.4271 -12.4649 0.0000 28.7248 0.0000
# 6 0.0000 0.0000 0.0000 -2.6368 0.0000 2.5159
#
#
#
# Elastic Compliance Matrix: (Units=1/GPa)
#
#
# Indices 1 2 3 4 5 6 
#
# 1 0.066564 -0.013172 -0.029854 0.000000 -0.016965 0.000000
# 2 -0.013172 0.057769 0.014778 0.000000 -0.003216 0.000000
# 3 -0.029854 0.014778 0.025994 0.000000 0.011402 0.000000
# 4 0.000000 0.000000 0.000000 -0.643372 0.000000 -0.674292
# 5 -0.016965 -0.003216 0.011402 0.000000 0.042025 0.000000
# 6 0.000000 0.000000 0.000000 -0.674292 0.000000 -0.309225
#
#
# Mechanical properties :
#
#
# Convention : Reuss Voigt Hill
#
# Bulk Modulus (GPa) = 10.65735 20.30670 15.48203
# Shear Modulus (GPa) = -7.43524 15.18580 3.87528
#
# Velocity S-wave (km/s) = -1.90969 2.72919 1.37869
# Velocity P-wave (km/s) = 0.60397 4.45999 3.18247
#
# Compressibility (1/GPa) = 0.09383195
#
# Stress axis : x y z
#
# Youngs Moduli (GPa) = 15.02319 17.31037 38.47028
#
# Poissons Ratio (x) = 0.22801 1.14849
# Poissons Ratio (y) = 0.19788 -0.56853
# Poissons Ratio (z) = 0.44850 -0.25582
#
# Static dielectric constant tensor:
#      x y z
#    x 1.736310 0.000000 0.005400 
#    y 0.000000 1.795170 0.000000 
#    z 0.005400 0.000000 1.708630 
# 
# From -- ./inp_files/126347.got.cif
#   From: 2010.05.17/outbox.cif.g08.bks.cpg/sg15_64_cif.got.tgz:126347.got - 2010.06.03 18:47:42.
