data_PCOD9264395
_publ_section_title
;
Structure prediction by ZEFSAII (Michael W. Deem and Ramdas Pophale) SiO2 
 PCOD9264395
Probable space group: C 2/C
;
_chemical_formula_sum "Si O2"
_cell_formula_units_Z 60
_cell_length_a 12.498887
_cell_length_b 11.309239
_cell_length_c 19.323078
_cell_angle_alpha 90.000000
_cell_angle_beta 65.488957
_cell_angle_gamma 90.000000
_cell_volume 2485.225398
_symmetry_space_group_name_H-M "C 2/C"
_symmetry_group_IT_number 15
_symmetry_cell_setting 'monoclinic'
loop_
_space_group_symop_operation_xyz
x,y,z
-x,y,1/2-z
-x,-y,-z
x,-y,1/2+z
1/2+x,1/2+y,z
1/2-x,1/2+y,1/2-z
1/2-x,1/2-y,-z
1/2+x,1/2-y,1/2+z
loop_
_atom_site_type_symbol
_atom_site_label
_atom_site_fract_x
_atom_site_fract_y
_atom_site_fract_z
Si Si1 0.178907 0.097647 0.814395
Si Si2 0.000000 0.627605 0.250000
Si Si3 0.840796 0.922571 0.562010
Si Si4 0.609117 0.039733 0.836614
Si Si5 0.537509 0.736133 0.081416
Si Si6 0.417739 0.500452 0.893982
Si Si7 0.905514 0.688452 0.082249
Si Si8 0.641527 0.253955 0.100510
O O1 0.267552 0.082939 0.727786
O O2 0.171480 0.230593 0.845534
O O3 0.046434 0.048249 0.835454
O O4 0.215602 0.017322 0.870759
O O5 0.943044 0.546053 0.207781
O O6 0.906573 0.709076 0.313066
O O7 0.927115 0.840952 0.583510
O O8 0.903269 0.987524 0.481423
O O9 0.746927 0.833041 0.556106
O O10 0.518834 0.147128 0.871315
O O11 0.614090 0.950316 0.900379
O O12 0.599831 0.638742 0.114410
O O13 0.608264 0.773829 0.993700
O O14 0.333616 0.607611 0.894878
O O15 0.037431 0.727480 0.072598
#
# Coordination Sequence:
#
# PCOD9264395 Si02
#       8
#     8   4   8   8   8   8   8   8
#     4  10  19  35  58  89 119 156 208 259 310 365
#     4  10  22  42  54  86 114 164 206 268 312 378
#     4  11  18  35  61  93 120 157 202 257 320 377
#     4  11  24  37  65  82 121 171 211 254 322 388
#     4  11  21  37  59  91 126 163 204 258 324 373
#     4  10  20  35  58  93 122 155 199 265 318 366
#     4  10  21  39  58  91 125 158 210 266 304 382
#     4  10  20  34  64  87 123 155 208 256 318 378
#
# _framework density 24.142679999999999
#
# number of rings (size 3 to 8) (size 9 to 14) (size 15 to 20)
#    0.000    1.600    5.333    1.600    3.733    1.067 
#    0.000    0.667    2.933    4.000    0.000    0.000 
#    0.000    0.000    0.000    0.000    0.000    0.000 
#
# Total GULP energy -167663.754092 kJ/mol
# GULP energy per Si atom -5588.791803 kJ/mol
# Density = 2.408773 g / cm^3
# Si number density = 24.142680 Si / 1000 Ang^3
#
#
#
# Elastic Constant Matrix: (Units=GPa)
#
#
# Indices 1 2 3 4 5 6 
#
# 1 34.9025 25.2538 5.1721 0.0000 -3.7723 0.0000
# 2 25.2538 187.6030 50.1120 0.0000 -11.3995 0.0000
# 3 5.1721 50.1120 83.6694 0.0000 -15.3428 0.0000
# 4 0.0000 0.0000 0.0000 34.0948 0.0000 -1.2996
# 5 -3.7723 -11.3995 -15.3428 0.0000 24.7811 0.0000
# 6 0.0000 0.0000 0.0000 -1.2996 0.0000 35.6281
#
#
#
# Elastic Compliance Matrix: (Units=1/GPa)
#
#
# Indices 1 2 3 4 5 6 
#
# 1 0.032072 -0.004458 0.001361 0.000000 0.003674 0.000000
# 2 -0.004458 0.006974 -0.003878 0.000000 0.000129 0.000000
# 3 0.001361 -0.003878 0.015681 0.000000 0.008132 0.000000
# 4 0.000000 0.000000 0.000000 0.029371 0.000000 0.001071
# 5 0.003674 0.000129 0.008132 0.000000 0.046007 0.000000
# 6 0.000000 0.000000 0.000000 0.001071 0.000000 0.028107
#
#
# Mechanical properties :
#
#
# Convention : Reuss Voigt Hill
#
# Bulk Modulus (GPa) = 24.52262 51.91675 38.21969
# Shear Modulus (GPa) = 26.91733 33.94325 30.43029
#
# Velocity S-wave (km/s) = 3.34267 3.75366 3.55411
# Velocity P-wave (km/s) = 5.00773 6.35118 5.71904
#
# Compressibility (1/GPa) = 0.04077867
#
# Stress axis : x y z
#
# Youngs Moduli (GPa) = 31.17983 143.38747 63.76957
#
# Poissons Ratio (x) = 0.63916 -0.08679
# Poissons Ratio (y) = 0.13899 0.24729
# Poissons Ratio (z) = -0.04243 0.55603
#
# Static dielectric constant tensor:
#      x y z
#    x 2.029430 0.000000 0.042700 
#    y 0.000000 1.954100 0.000000 
#    z 0.042700 0.000000 1.951910 
# 
# From -- ./inp_files/243669.got.cif
#   From: 2010.05.17/outbox.cif.g08.bks.cpg/sg15_122_cif.got.tgz:243669.got - 2010.06.03 18:47:42.
