data_PCOD9264849
_publ_section_title
;
Structure prediction by ZEFSAII (Michael W. Deem and Ramdas Pophale) SiO2 
 PCOD9264849
Probable space group: C 2/C
;
_chemical_formula_sum "Si O2"
_cell_formula_units_Z 56
_cell_length_a 8.322998
_cell_length_b 20.723728
_cell_length_c 15.717820
_cell_angle_alpha 90.000000
_cell_angle_beta 89.984909
_cell_angle_gamma 90.000000
_cell_volume 2711.065246
_symmetry_space_group_name_H-M "C 2/C"
_symmetry_group_IT_number 15
_symmetry_cell_setting 'monoclinic'
loop_
_space_group_symop_operation_xyz
x,y,z
-x,y,1/2-z
-x,-y,-z
x,-y,1/2+z
1/2+x,1/2+y,z
1/2-x,1/2+y,1/2-z
1/2-x,1/2-y,-z
1/2+x,1/2-y,1/2+z
loop_
_atom_site_type_symbol
_atom_site_label
_atom_site_fract_x
_atom_site_fract_y
_atom_site_fract_z
Si Si1 0.658321 0.612727 0.099345
Si Si2 0.693318 0.219083 0.751968
Si Si3 0.685371 0.137047 0.227087
Si Si4 0.376256 0.240305 0.925899
Si Si5 0.121572 0.552320 0.539470
Si Si6 0.140957 0.639733 0.909411
Si Si7 0.818729 0.067231 0.062151
O O1 0.717820 0.604199 0.195371
O O2 0.590612 0.685700 0.098740
O O3 0.508890 0.569908 0.072393
O O4 0.803638 0.599147 0.033055
O O5 0.500000 0.228235 0.750000
O O6 0.775570 0.286560 0.774889
O O7 0.720735 0.206612 0.652144
O O8 0.723186 0.164916 0.823052
O O9 0.500000 0.128854 0.250000
O O10 0.734975 0.105900 0.138754
O O11 0.541247 0.202277 0.944878
O O12 0.250000 0.250000 0.000000
O O13 0.262032 0.506483 0.571156
O O14 0.000000 0.500000 0.500000
O O15 0.009746 0.591213 0.604672
O O16 0.256764 0.603651 0.976148
#
# Coordination Sequence:
#
# PCOD9264849 Si02
#       7
#     8   8   8   8   8   8   8
#     4  11  22  41  62  89 125 160 211 264 316 372
#     4   9  20  37  58  89 127 160 196 261 314 368
#     4  11  22  38  61  91 122 161 210 259 308 379
#     4  10  19  35  65  89 120 165 206 255 319 372
#     4  10  21  39  63  87 116 163 213 255 307 383
#     4  10  20  39  58  93 126 159 207 253 319 373
#     4  11  23  38  63  91 124 167 212 256 313 380
#
# _framework density 20.656085999999998
#
# number of rings (size 3 to 8) (size 9 to 14) (size 15 to 20)
#    0.000    1.714    1.429    5.143    2.000    2.286 
#    0.000   10.714    0.000    0.000    0.000    0.000 
#    0.000    0.000    0.000    0.000    0.000    0.000 
#
# Total GULP energy -156106.980093 kJ/mol
# GULP energy per Si atom -5575.249289 kJ/mol
# Density = 2.060907 g / cm^3
# Si number density = 20.656086 Si / 1000 Ang^3
#
#
#
# Elastic Constant Matrix: (Units=GPa)
#
#
# Indices 1 2 3 4 5 6 
#
# 1 71.2242 11.7760 26.6745 0.0000 7.0762 0.0000
# 2 11.7760 63.3054 22.2946 0.0000 12.2047 0.0000
# 3 26.6745 22.2946 124.7643 0.0000 -7.7824 0.0000
# 4 0.0000 0.0000 0.0000 19.2567 0.0000 4.0485
# 5 7.0762 12.2047 -7.7824 0.0000 27.2185 0.0000
# 6 0.0000 0.0000 0.0000 4.0485 0.0000 24.1466
#
#
#
# Elastic Compliance Matrix: (Units=1/GPa)
#
#
# Indices 1 2 3 4 5 6 
#
# 1 0.015990 -0.000782 -0.003580 0.000000 -0.004830 0.000000
# 2 -0.000782 0.019120 -0.003840 0.000000 -0.009468 0.000000
# 3 -0.003580 -0.003840 0.009807 0.000000 0.005457 0.000000
# 4 0.000000 0.000000 0.000000 0.053827 0.000000 -0.009025
# 5 -0.004830 -0.009468 0.005457 0.000000 0.043801 0.000000
# 6 0.000000 0.000000 0.000000 -0.009025 0.000000 0.042927
#
#
# Mechanical properties :
#
#
# Convention : Reuss Voigt Hill
#
# Bulk Modulus (GPa) = 35.07301 42.30935 38.69118
# Shear Modulus (GPa) = 23.65402 27.36095 25.50748
#
# Velocity S-wave (km/s) = 3.38766 3.64345 3.51788
# Velocity P-wave (km/s) = 5.68489 6.18278 5.93906
#
# Compressibility (1/GPa) = 0.02851195
#
# Stress axis : x y z
#
# Youngs Moduli (GPa) = 62.53827 52.30249 101.96741
#
# Poissons Ratio (x) = 0.04093 0.36506
# Poissons Ratio (y) = 0.04894 0.39153
# Poissons Ratio (z) = 0.22390 0.20083
#
# Static dielectric constant tensor:
#      x y z
#    x 1.766280 0.000000 -0.011960 
#    y 0.000000 1.816350 0.000000 
#    z -0.011960 0.000000 1.808490 
# 
# From -- ./inp_files/136436.got.cif
#   From: 2010.05.17/outbox.cif.g08.bks.cpg/sg15_69_cif.got.tgz:136436.got - 2010.06.03 18:47:42.
