data_PCOD9264251
_publ_section_title
;
Structure prediction by ZEFSAII (Michael W. Deem and Ramdas Pophale) SiO2 
 PCOD9264251
Probable space group: C 2/C
;
_chemical_formula_sum "Si O2"
_cell_formula_units_Z 56
_cell_length_a 18.218732
_cell_length_b 11.330638
_cell_length_c 14.036738
_cell_angle_alpha 90.000000
_cell_angle_beta 112.178087
_cell_angle_gamma 90.000000
_cell_volume 2683.222818
_symmetry_space_group_name_H-M "C 2/C"
_symmetry_group_IT_number 15
_symmetry_cell_setting 'monoclinic'
loop_
_space_group_symop_operation_xyz
x,y,z
-x,y,1/2-z
-x,-y,-z
x,-y,1/2+z
1/2+x,1/2+y,z
1/2-x,1/2+y,1/2-z
1/2-x,1/2-y,-z
1/2+x,1/2-y,1/2+z
loop_
_atom_site_type_symbol
_atom_site_label
_atom_site_fract_x
_atom_site_fract_y
_atom_site_fract_z
Si Si1 0.508134 0.881397 0.441111
Si Si2 0.087694 0.935805 0.453998
Si Si3 0.328109 0.905968 0.057656
Si Si4 0.426734 0.343395 0.415634
Si Si5 0.755219 0.876588 0.051144
Si Si6 0.234650 0.739463 0.153053
Si Si7 0.148573 0.745226 0.639962
O O1 0.577421 0.900158 0.398619
O O2 0.537642 0.777335 0.525342
O O3 0.426572 0.829199 0.360129
O O4 0.500000 0.000000 0.500000
O O5 0.154567 0.923766 0.405633
O O6 0.116568 0.840693 0.548062
O O7 0.996451 0.901996 0.386714
O O8 0.087508 0.063815 0.504380
O O9 0.286395 0.833442 0.119598
O O10 0.298042 0.850795 0.941928
O O11 0.295216 0.036889 0.040058
O O12 0.340794 0.304600 0.336303
O O13 0.706413 0.853979 0.122958
O O14 0.750000 0.750000 0.000000
O O15 0.296471 0.687185 0.258020
#
# Coordination Sequence:
#
# PCOD9264251 Si02
#       7
#     8   8   8   8   8   8   8
#     4  10  19  35  57  84 112 149 188 230 288 346
#     4   9  18  35  58  80 107 152 191 229 282 351
#     4  10  20  37  58  80 115 152 186 230 294 351
#     4   9  18  34  57  78 110 149 187 227 286 342
#     4  10  19  35  57  83 111 148 189 231 285 347
#     4  10  21  36  57  84 110 147 192 239 286 336
#     4  10  21  35  57  85 111 145 195 242 277 338
#
# _framework density 20.870425000000001
#
# number of rings (size 3 to 8) (size 9 to 14) (size 15 to 20)
#    0.000    2.286    2.857    0.000    0.000    1.714 
#    0.000    0.714    0.000    0.000    0.000    0.000 
#    0.000    0.000    0.000    0.000    0.000    0.000 
#
# Total GULP energy -156026.865523 kJ/mol
# GULP energy per Si atom -5572.388054 kJ/mol
# Density = 2.082292 g / cm^3
# Si number density = 20.870425 Si / 1000 Ang^3
#
#
#
# Elastic Constant Matrix: (Units=GPa)
#
#
# Indices 1 2 3 4 5 6 
#
# 1 161.6380 22.1293 19.8343 0.0000 22.7548 0.0000
# 2 22.1293 100.7200 -8.8852 0.0000 3.1150 0.0000
# 3 19.8343 -8.8852 34.4313 0.0000 19.6400 0.0000
# 4 0.0000 0.0000 0.0000 4.8208 0.0000 1.9482
# 5 22.7548 3.1150 19.6400 0.0000 22.4266 0.0000
# 6 0.0000 0.0000 0.0000 1.9482 0.0000 29.6184
#
#
#
# Elastic Compliance Matrix: (Units=1/GPa)
#
#
# Indices 1 2 3 4 5 6 
#
# 1 0.007425 -0.001518 -0.000983 0.000000 -0.006462 0.000000
# 2 -0.001518 0.011126 0.007490 0.000000 -0.006564 0.000000
# 3 -0.000983 0.007490 0.063075 0.000000 -0.055281 0.000000
# 4 0.000000 0.000000 0.000000 0.213099 0.000000 -0.014017
# 5 -0.006462 -0.006564 -0.055281 0.000000 0.100470 0.000000
# 6 0.000000 0.000000 0.000000 -0.014017 0.000000 0.034685
#
#
# Mechanical properties :
#
#
# Convention : Reuss Voigt Hill
#
# Bulk Modulus (GPa) = 10.91665 40.32734 25.62199
# Shear Modulus (GPa) = 11.10035 28.95390 20.02713
#
# Velocity S-wave (km/s) = 2.30873 3.72871 3.10109
# Velocity P-wave (km/s) = 3.51412 6.15649 5.01256
#
# Compressibility (1/GPa) = 0.09160322
#
# Stress axis : x y z
#
# Youngs Moduli (GPa) = 134.68387 89.88092 15.85412
#
# Poissons Ratio (x) = 0.13646 0.01558
# Poissons Ratio (y) = 0.20448 -0.11875
# Poissons Ratio (z) = 0.13240 -0.67320
#
# Static dielectric constant tensor:
#      x y z
#    x 1.823190 0.000000 0.009170 
#    y 0.000000 1.740520 0.000000 
#    z 0.009170 0.000000 1.775760 
# 
# From -- ./inp_files/161016.got.cif
#   From: 2010.05.17/outbox.cif.g08.bks.cpg/sg15_81_cif.got.tgz:161016.got - 2010.06.03 18:47:42.
