data_PCOD9264024
_publ_section_title
;
Structure prediction by ZEFSAII (Michael W. Deem and Ramdas Pophale) SiO2 
 PCOD9264024
Probable space group: C 2/C
;
_chemical_formula_sum "Si O2"
_cell_formula_units_Z 56
_cell_length_a 14.687152
_cell_length_b 20.384439
_cell_length_c 15.323300
_cell_angle_alpha 90.000000
_cell_angle_beta 39.156802
_cell_angle_gamma 90.000000
_cell_volume 2896.837188
_symmetry_space_group_name_H-M "C 2/C"
_symmetry_group_IT_number 15
_symmetry_cell_setting 'monoclinic'
loop_
_space_group_symop_operation_xyz
x,y,z
-x,y,1/2-z
-x,-y,-z
x,-y,1/2+z
1/2+x,1/2+y,z
1/2-x,1/2+y,1/2-z
1/2-x,1/2-y,-z
1/2+x,1/2-y,1/2+z
loop_
_atom_site_type_symbol
_atom_site_label
_atom_site_fract_x
_atom_site_fract_y
_atom_site_fract_z
Si Si1 0.000000 0.391979 0.750000
Si Si2 0.420458 0.897746 0.001009
Si Si3 0.797793 0.521945 0.164468
Si Si4 0.227647 0.499234 0.120950
Si Si5 0.500000 0.098536 0.750000
Si Si6 0.849841 0.787201 0.000008
Si Si7 0.887672 0.308742 0.183799
Si Si8 0.013069 0.069823 0.138338
O O1 0.855959 0.433788 0.834293
O O2 0.044107 0.366967 0.620294
O O3 0.361667 0.843905 0.111447
O O4 0.319811 0.963740 0.077067
O O5 0.567617 0.928445 0.932648
O O6 0.797320 0.485159 0.258401
O O7 0.651139 0.563463 0.271378
O O8 0.136233 0.447389 0.132783
O O9 0.392210 0.487616 0.975720
O O10 0.534363 0.141606 0.807398
O O11 0.902736 0.861142 0.937822
O O12 0.997406 0.749130 0.907452
O O13 0.750000 0.750000 0.000000
O O14 0.754753 0.788434 0.158091
O O15 0.000000 0.058434 0.250000
#
# Coordination Sequence:
#
# PCOD9264024 Si02
#       8
#     4   8   8   8   4   8   8   8
#     4   9  20  36  60  82 110 150 206 239 300 362
#     4  10  21  38  59  84 115 156 200 251 301 358
#     4  10  21  34  56  86 115 155 199 243 300 366
#     4  10  19  35  53  83 117 154 189 245 295 360
#     4  11  18  34  60  78 118 156 188 233 296 354
#     4  12  24  39  55  87 121 163 198 241 295 363
#     4  12  23  37  60  83 120 156 201 241 296 361
#     4  12  23  32  53  84 123 158 195 239 299 354
#
# _framework density 19.331429
#
# number of rings (size 3 to 8) (size 9 to 14) (size 15 to 20)
#    0.000    1.143    4.286    2.143    8.000    0.000 
#    0.000    0.000    0.000    0.857    0.000    0.000 
#    0.000    0.000    0.000    0.000    0.000    0.000 
#
# Total GULP energy -156049.481029 kJ/mol
# GULP energy per Si atom -5573.195751 kJ/mol
# Density = 1.928743 g / cm^3
# Si number density = 19.331429 Si / 1000 Ang^3
#
#
#
# Elastic Constant Matrix: (Units=GPa)
#
#
# Indices 1 2 3 4 5 6 
#
# 1 37.8522 8.8434 23.7009 -0.0022 1.7283 0.0013
# 2 8.8434 30.9048 26.7068 -0.0023 -0.2472 0.0017
# 3 23.7009 26.7068 142.0788 -0.0028 8.7837 0.0022
# 4 -0.0022 -0.0023 -0.0028 42.5663 0.0021 -13.6327
# 5 1.7283 -0.2472 8.7837 0.0021 46.3931 -0.0013
# 6 0.0013 0.0017 0.0022 -13.6327 -0.0013 33.0468
#
#
#
# Elastic Compliance Matrix: (Units=1/GPa)
#
#
# Indices 1 2 3 4 5 6 
#
# 1 0.030169 -0.005143 -0.004042 0.000001 -0.000386 0.000000
# 2 -0.005143 0.039627 -0.006694 0.000001 0.001670 -0.000001
# 3 -0.004042 -0.006694 0.009070 0.000000 -0.001602 0.000000
# 4 0.000001 0.000001 0.000000 0.027069 -0.000001 0.011167
# 5 -0.000386 0.001670 -0.001602 -0.000001 0.021882 0.000001
# 6 0.000000 -0.000001 0.000000 0.011167 0.000001 0.034867
#
#
# Mechanical properties :
#
#
# Convention : Reuss Voigt Hill
#
# Bulk Modulus (GPa) = 21.22797 36.59312 28.91054
# Shear Modulus (GPa) = 23.79323 34.50688 29.15006
#
# Velocity S-wave (km/s) = 3.51209 4.22953 3.88739
# Velocity P-wave (km/s) = 5.23940 6.54387 5.92763
#
# Compressibility (1/GPa) = 0.04710767
#
# Stress axis : x y z
#
# Youngs Moduli (GPa) = 33.14712 25.23519 110.25383
#
# Poissons Ratio (x) = 0.12978 0.44564
# Poissons Ratio (y) = 0.17047 0.73805
# Poissons Ratio (z) = 0.13398 0.16893
#
# Static dielectric constant tensor:
#      x y z
#    x 1.713300 0.000000 -0.078180 
#    y 0.000000 1.724930 0.000000 
#    z -0.078180 0.000000 1.263050 
# 
# From -- ./inp_files/156192.got.cif
#   From: 2010.05.17/outbox.cif.g08.bks.cpg/sg15_79_cif.got.tgz:156192.got - 2010.06.03 18:47:42.
