data_PCOD9264169
_publ_section_title
;
Structure prediction by ZEFSAII (Michael W. Deem and Ramdas Pophale) SiO2 
 PCOD9264169
Probable space group: C 2/C
;
_chemical_formula_sum "Si O2"
_cell_formula_units_Z 36
_cell_length_a 12.144886
_cell_length_b 22.353145
_cell_length_c 9.143964
_cell_angle_alpha 90.000000
_cell_angle_beta 125.213449
_cell_angle_gamma 90.000000
_cell_volume 2028.120380
_symmetry_space_group_name_H-M "C 2/C"
_symmetry_group_IT_number 15
_symmetry_cell_setting 'monoclinic'
loop_
_space_group_symop_operation_xyz
x,y,z
-x,y,1/2-z
-x,-y,-z
x,-y,1/2+z
1/2+x,1/2+y,z
1/2-x,1/2+y,1/2-z
1/2-x,1/2-y,-z
1/2+x,1/2-y,1/2+z
loop_
_atom_site_type_symbol
_atom_site_label
_atom_site_fract_x
_atom_site_fract_y
_atom_site_fract_z
Si Si1 0.226175 0.276010 0.697455
Si Si2 0.381359 0.579770 0.920597
Si Si3 0.973702 0.194601 0.561978
Si Si4 0.342045 0.158807 0.632039
Si Si5 0.000000 0.008664 0.750000
O O1 0.308619 0.221963 0.684428
O O2 0.213960 0.330697 0.574856
O O3 0.077051 0.249436 0.610449
O O4 0.318616 0.292189 0.906429
O O5 0.478585 0.638070 0.997553
O O6 0.235829 0.607356 0.841237
O O7 0.404881 0.548567 0.781935
O O8 0.419035 0.533131 0.075553
O O9 0.000000 0.179178 0.750000
O O10 0.500000 0.148849 0.750000
#
# Coordination Sequence:
#
# PCOD9264169 Si02
#       5
#     8   8   8   8   4
#     4  10  20  32  54  81 120 152 181 215 275 338
#     4  10  21  35  61  77 111 138 196 235 285 319
#     4  11  20  34  52  86 116 151 180 227 273 343
#     4  10  19  35  56  83 111 151 184 224 272 343
#     4  10  20  40  56  84  98 146 190 254 278 320
#
# _framework density 17.750426999999998
#
# number of rings (size 3 to 8) (size 9 to 14) (size 15 to 20)
#    0.000    1.778    3.333    2.000    0.000    0.000 
#    0.000    1.111    0.000    0.000    0.000    0.000 
#    0.000    0.000    0.000    0.000    0.000    0.000 
#
# Total GULP energy -100359.291355 kJ/mol
# GULP energy per Si atom -5575.516186 kJ/mol
# Density = 1.771003 g / cm^3
# Si number density = 17.750427 Si / 1000 Ang^3
#
#
#
# Elastic Constant Matrix: (Units=GPa)
#
#
# Indices 1 2 3 4 5 6 
#
# 1 101.4865 44.3133 41.4960 0.0000 4.7313 0.0000
# 2 44.3133 66.8507 33.1923 0.0000 -1.8107 0.0000
# 3 41.4960 33.1923 114.3810 0.0000 2.6687 0.0000
# 4 0.0000 0.0000 0.0000 5.5322 0.0000 -11.7956
# 5 4.7313 -1.8107 2.6687 0.0000 26.9858 0.0000
# 6 0.0000 0.0000 0.0000 -11.7956 0.0000 7.3338
#
#
#
# Elastic Compliance Matrix: (Units=1/GPa)
#
#
# Indices 1 2 3 4 5 6 
#
# 1 0.014878 -0.008522 -0.002857 0.000000 -0.002898 0.000000
# 2 -0.008522 0.022434 -0.003497 0.000000 0.003345 0.000000
# 3 -0.002857 -0.003497 0.010813 0.000000 -0.000803 0.000000
# 4 0.000000 0.000000 0.000000 -0.074407 0.000000 -0.119674
# 5 -0.002898 0.003345 -0.000803 0.000000 0.037868 0.000000
# 6 0.000000 0.000000 0.000000 -0.119674 0.000000 -0.056128
#
#
# Mechanical properties :
#
#
# Convention : Reuss Voigt Hill
#
# Bulk Modulus (GPa) = 54.42546 57.85792 56.14169
# Shear Modulus (GPa) = -577.01085 18.88480 -279.06302
#
# Velocity S-wave (km/s) = -18.04922 3.26530 -12.55214
# Velocity P-wave (km/s) = 20.09074 6.84706 13.35582
#
# Compressibility (1/GPa) = 0.01837375
#
# Stress axis : x y z
#
# Youngs Moduli (GPa) = 67.21411 44.57436 92.48502
#
# Poissons Ratio (x) = 0.37987 0.26422
# Poissons Ratio (y) = 0.57280 0.32338
# Poissons Ratio (z) = 0.19202 0.15586
#
# Static dielectric constant tensor:
#      x y z
#    x 1.612540 0.000000 -0.032160 
#    y 0.000000 1.608150 0.000000 
#    z -0.032160 0.000000 1.616640 
# 
# From -- ./inp_files/28964.got.cif
#   From: 2010.05.17/outbox.cif.g08.bks.cpg/sg15_15_cif.got.tgz:28964.got - 2010.06.03 18:47:42.
