data_PCOD9264661
_publ_section_title
;
Structure prediction by ZEFSAII (Michael W. Deem and Ramdas Pophale) SiO2 
 PCOD9264661
Probable space group: C 2/C
;
_chemical_formula_sum "Si O2"
_cell_formula_units_Z 48
_cell_length_a 9.880440
_cell_length_b 14.956178
_cell_length_c 15.623945
_cell_angle_alpha 90.000000
_cell_angle_beta 124.291086
_cell_angle_gamma 90.000000
_cell_volume 1907.503840
_symmetry_space_group_name_H-M "C 2/C"
_symmetry_group_IT_number 15
_symmetry_cell_setting 'monoclinic'
loop_
_space_group_symop_operation_xyz
x,y,z
-x,y,1/2-z
-x,-y,-z
x,-y,1/2+z
1/2+x,1/2+y,z
1/2-x,1/2+y,1/2-z
1/2-x,1/2-y,-z
1/2+x,1/2-y,1/2+z
loop_
_atom_site_type_symbol
_atom_site_label
_atom_site_fract_x
_atom_site_fract_y
_atom_site_fract_z
Si Si1 0.961640 0.708357 0.148385
Si Si2 0.191169 0.119301 0.323931
Si Si3 0.157472 0.673862 0.566212
Si Si4 0.213413 0.010755 0.162210
Si Si5 0.278839 0.813041 0.229683
Si Si6 0.678332 0.488953 0.457048
O O1 0.775784 0.741613 0.092538
O O2 0.000000 0.658160 0.250000
O O3 0.091811 0.790740 0.194172
O O4 0.972807 0.669712 0.056702
O O5 0.190172 0.226435 0.316402
O O6 0.000000 0.093147 0.250000
O O7 0.259842 0.072556 0.260796
O O8 0.245586 0.077791 0.434088
O O9 0.106598 0.685227 0.645501
O O10 0.269800 0.587314 0.591574
O O11 0.285366 0.911099 0.194476
O O12 0.015763 0.999184 0.098778
O O13 0.246856 0.037610 0.075228
#
# Coordination Sequence:
#
# PCOD9264661 Si02
#       6
#     8   8   8   8   8   8
#     4   9  20  31  55  91 119 152 200 255 306 354
#     4  10  23  39  61  91 124 161 210 256 302 363
#     4  10  19  35  61  89 122 155 202 257 304 354
#     4  10  21  36  62  90 120 161 211 252 302 360
#     4  11  21  38  63  89 125 162 201 253 312 365
#     4  10  20  37  60  90 120 160 210 255 297 359
#
# _framework density 25.163775999999999
#
# number of rings (size 3 to 8) (size 9 to 14) (size 15 to 20)
#    0.000    2.000    3.333    0.000    7.000    2.000 
#    0.000    0.833    3.667    0.000    0.000    0.000 
#    0.000    0.000    0.000    0.000    0.000    0.000 
#
# Total GULP energy -133887.115839 kJ/mol
# GULP energy per Si atom -5578.629827 kJ/mol
# Density = 2.510650 g / cm^3
# Si number density = 25.163776 Si / 1000 Ang^3
#
#
#
# Elastic Constant Matrix: (Units=GPa)
#
#
# Indices 1 2 3 4 5 6 
#
# 1 44.7367 23.2080 21.0393 0.0000 -15.9714 0.0000
# 2 23.2080 106.0516 29.8310 0.0000 -24.9511 0.0000
# 3 21.0393 29.8310 113.0475 0.0000 0.2517 0.0000
# 4 0.0000 0.0000 0.0000 37.4972 0.0000 -15.3294
# 5 -15.9714 -24.9511 0.2517 0.0000 26.8455 0.0000
# 6 0.0000 0.0000 0.0000 -15.3294 0.0000 32.8535
#
#
#
# Elastic Compliance Matrix: (Units=1/GPa)
#
#
# Indices 1 2 3 4 5 6 
#
# 1 0.032089 -0.001169 -0.005704 0.000000 0.018057 0.000000
# 2 -0.001169 0.013400 -0.003345 0.000000 0.011790 0.000000
# 3 -0.005704 -0.003345 0.010805 0.000000 -0.006603 0.000000
# 4 0.000000 0.000000 0.000000 0.032955 0.000000 0.015377
# 5 0.018057 0.011790 -0.006603 0.000000 0.059013 0.000000
# 6 0.000000 0.000000 0.000000 0.015377 0.000000 0.037613
#
#
# Mechanical properties :
#
#
# Convention : Reuss Voigt Hill
#
# Bulk Modulus (GPa) = 27.88782 45.77695 36.83238
# Shear Modulus (GPa) = 22.90824 32.08975 27.49899
#
# Velocity S-wave (km/s) = 3.02050 3.57492 3.30934
# Velocity P-wave (km/s) = 4.82402 5.93895 5.41028
#
# Compressibility (1/GPa) = 0.03585795
#
# Stress axis : x y z
#
# Youngs Moduli (GPa) = 31.16359 74.62713 92.55288
#
# Poissons Ratio (x) = 0.08727 0.52789
# Poissons Ratio (y) = 0.03644 0.30955
# Poissons Ratio (z) = 0.17775 0.24960
#
# Static dielectric constant tensor:
#      x y z
#    x 2.044330 0.000000 -0.001540 
#    y 0.000000 1.949730 0.000000 
#    z -0.001540 0.000000 2.049020 
# 
# From -- ./inp_files/143830.got.cif
#   From: 2010.05.17/outbox.cif.g08.bks.cpg/sg15_72_cif.got.tgz:143830.got - 2010.06.03 18:47:42.
