data_PCOD9264399
_publ_section_title
;
Structure prediction by ZEFSAII (Michael W. Deem and Ramdas Pophale) SiO2 
 PCOD9264399
Probable space group: C 2/C
;
_chemical_formula_sum "Si O2"
_cell_formula_units_Z 48
_cell_length_a 32.277158
_cell_length_b 5.399723
_cell_length_c 13.184977
_cell_angle_alpha 90.000000
_cell_angle_beta 57.681185
_cell_angle_gamma 90.000000
_cell_volume 1941.991011
_symmetry_space_group_name_H-M "C 2/C"
_symmetry_group_IT_number 15
_symmetry_cell_setting 'monoclinic'
loop_
_space_group_symop_operation_xyz
x,y,z
-x,y,1/2-z
-x,-y,-z
x,-y,1/2+z
1/2+x,1/2+y,z
1/2-x,1/2+y,1/2-z
1/2-x,1/2-y,-z
1/2+x,1/2-y,1/2+z
loop_
_atom_site_type_symbol
_atom_site_label
_atom_site_fract_x
_atom_site_fract_y
_atom_site_fract_z
Si Si1 0.723878 0.194441 0.746047
Si Si2 0.854147 0.625746 0.066086
Si Si3 0.171610 0.313297 0.111088
Si Si4 0.378407 0.683453 0.751748
Si Si5 0.506661 0.364157 0.364618
Si Si6 0.966465 0.627230 0.894606
O O1 0.745258 0.451250 0.760144
O O2 0.714572 0.192686 0.637670
O O3 0.669808 0.131817 0.865054
O O4 0.860057 0.785216 0.160224
O O5 0.819713 0.714001 0.019884
O O6 0.908852 0.629957 0.949053
O O7 0.145382 0.580214 0.160634
O O8 0.138819 0.078310 0.183555
O O9 0.436757 0.686890 0.687108
O O10 0.500000 0.377208 0.250000
O O11 0.484487 0.626210 0.427234
O O12 0.475306 0.129318 0.440180
O O13 0.000000 0.616098 0.750000
#
# Coordination Sequence:
#
# PCOD9264399 Si02
#       6
#     8   8   8   8   8   8
#     4  11  26  48  72 104 137 172 232 290 344 425
#     4  11  26  45  74 101 139 190 225 282 359 399
#     4  11  24  45  72 102 139 176 228 290 346 415
#     4  11  24  42  67 104 142 184 237 281 329 413
#     4  10  19  35  58  89 136 179 221 275 320 377
#     4  10  21  37  61  96 135 178 229 271 323 401
#
# _framework density 24.716902999999999
#
# number of rings (size 3 to 8) (size 9 to 14) (size 15 to 20)
#    0.000    1.333    0.000    7.000    0.000   10.667 
#    0.000    0.000    0.000    0.000    0.000    0.000 
#    0.000    0.000    0.000    0.000    0.000    0.000 
#
# Total GULP energy -134299.962478 kJ/mol
# GULP energy per Si atom -5595.831770 kJ/mol
# Density = 2.466065 g / cm^3
# Si number density = 24.716903 Si / 1000 Ang^3
#
#
#
# Elastic Constant Matrix: (Units=GPa)
#
#
# Indices 1 2 3 4 5 6 
#
# 1 167.4518 56.8212 32.0480 0.0000 15.9368 0.0000
# 2 56.8212 161.8537 12.0812 0.0000 -7.2840 0.0000
# 3 32.0480 12.0812 88.3486 0.0000 18.6507 0.0000
# 4 0.0000 0.0000 0.0000 30.4012 0.0000 -4.9266
# 5 15.9368 -7.2840 18.6507 0.0000 61.0968 0.0000
# 6 0.0000 0.0000 0.0000 -4.9266 0.0000 39.4104
#
#
#
# Elastic Compliance Matrix: (Units=1/GPa)
#
#
# Indices 1 2 3 4 5 6 
#
# 1 0.007356 -0.002507 -0.001985 0.000000 -0.001612 0.000000
# 2 -0.002507 0.007163 -0.000415 0.000000 0.001635 0.000000
# 3 -0.001985 -0.000415 0.012823 0.000000 -0.003446 0.000000
# 4 0.000000 0.000000 0.000000 0.033574 0.000000 0.004197
# 5 -0.001612 0.001635 -0.003446 0.000000 0.018035 0.000000
# 6 0.000000 0.000000 0.000000 0.004197 0.000000 0.025899
#
#
# Mechanical properties :
#
#
# Convention : Reuss Voigt Hill
#
# Bulk Modulus (GPa) = 57.05329 68.83942 62.94636
# Shear Modulus (GPa) = 41.49170 47.29527 44.39349
#
# Velocity S-wave (km/s) = 4.10161 4.37908 4.24261
# Velocity P-wave (km/s) = 6.75009 7.31301 7.03718
#
# Compressibility (1/GPa) = 0.01752747
#
# Stress axis : x y z
#
# Youngs Moduli (GPa) = 135.94724 139.60641 77.98342
#
# Poissons Ratio (x) = 0.34995 0.15482
# Poissons Ratio (y) = 0.34078 0.03238
# Poissons Ratio (z) = 0.26990 0.05798
#
# Static dielectric constant tensor:
#      x y z
#    x 2.295640 0.000000 0.315550 
#    y 0.000000 1.942390 0.000000 
#    z 0.315550 0.000000 2.300300 
# 
# From -- ./inp_files/179960.got.cif
#   From: 2010.05.17/outbox.cif.g08.bks.cpg/sg15_90_cif.got.tgz:179960.got - 2010.06.03 18:47:42.
