data_PCOD9264317
_publ_section_title
;
Structure prediction by ZEFSAII (Michael W. Deem and Ramdas Pophale) SiO2 
 PCOD9264317
Probable space group: C 2/C
;
_chemical_formula_sum "Si O2"
_cell_formula_units_Z 48
_cell_length_a 9.180630
_cell_length_b 14.704913
_cell_length_c 19.639715
_cell_angle_alpha 90.000000
_cell_angle_beta 78.965786
_cell_angle_gamma 90.000000
_cell_volume 2602.353028
_symmetry_space_group_name_H-M "C 2/C"
_symmetry_group_IT_number 15
_symmetry_cell_setting 'monoclinic'
loop_
_space_group_symop_operation_xyz
x,y,z
-x,y,1/2-z
-x,-y,-z
x,-y,1/2+z
1/2+x,1/2+y,z
1/2-x,1/2+y,1/2-z
1/2-x,1/2-y,-z
1/2+x,1/2-y,1/2+z
loop_
_atom_site_type_symbol
_atom_site_label
_atom_site_fract_x
_atom_site_fract_y
_atom_site_fract_z
Si Si1 0.162603 0.532770 0.965643
Si Si2 0.714056 0.530174 0.843783
Si Si3 0.500000 0.599004 0.750000
Si Si4 0.892772 0.911803 0.006367
Si Si5 0.500000 0.119504 0.750000
Si Si6 0.213195 0.329455 0.345528
Si Si7 0.183569 0.849151 0.932132
O O1 0.175423 0.579288 0.891428
O O2 0.267318 0.444388 0.965543
O O3 0.222166 0.609678 0.013439
O O4 0.000000 0.500000 0.000000
O O5 0.584589 0.542275 0.800265
O O6 0.678046 0.594993 0.912438
O O7 0.705426 0.428508 0.873982
O O8 0.870928 0.558888 0.797081
O O9 0.629031 0.657425 0.704204
O O10 0.011093 0.838557 0.971231
O O11 0.000000 0.000000 0.000000
O O12 0.414148 0.178065 0.700462
O O13 0.226264 0.245473 0.395325
#
# Coordination Sequence:
#
# PCOD9264317 Si02
#       7
#     8   8   4   8   4   8   8
#     4  10  19  35  58  81 104 135 177 223 267 316
#     4   9  18  35  53  74  99 140 180 205 258 317
#     4  10  20  34  56  72 106 152 178 206 250 334
#     4   8  16  33  54  75 100 133 171 214 259 314
#     4  10  22  36  52  70 110 146 168 208 252 328
#     4  11  21  36  53  81 108 137 176 217 268 304
#     4  10  20  34  56  79 105 132 174 230 263 304
#
# _framework density 18.444845000000001
#
# number of rings (size 3 to 8) (size 9 to 14) (size 15 to 20)
#    0.000    2.667    0.000    5.500    0.000    1.333 
#    0.000    6.667    0.000    0.000    0.000    0.000 
#    0.000    0.000    0.000    0.000    0.000    0.000 
#
# Total GULP energy -133693.396309 kJ/mol
# GULP energy per Si atom -5570.558180 kJ/mol
# Density = 1.840286 g / cm^3
# Si number density = 18.444845 Si / 1000 Ang^3
#
#
#
# Elastic Constant Matrix: (Units=GPa)
#
#
# Indices 1 2 3 4 5 6 
#
# 1 116.5700 16.9843 30.9992 0.0000 -6.1144 0.0000
# 2 16.9843 35.1533 27.3567 0.0000 -0.7675 0.0000
# 3 30.9992 27.3567 87.6799 0.0000 -8.5223 0.0000
# 4 0.0000 0.0000 0.0000 30.1926 0.0000 4.1791
# 5 -6.1144 -0.7675 -8.5223 0.0000 40.2859 0.0000
# 6 0.0000 0.0000 0.0000 4.1791 0.0000 0.2794
#
#
#
# Elastic Compliance Matrix: (Units=1/GPa)
#
#
# Indices 1 2 3 4 5 6 
#
# 1 0.009684 -0.002724 -0.002487 0.000000 0.000892 0.000000
# 2 -0.002724 0.038463 -0.011238 0.000000 -0.002058 0.000000
# 3 -0.002487 -0.011238 0.016064 0.000000 0.002807 0.000000
# 4 0.000000 0.000000 0.000000 -0.030937 0.000000 0.462794
# 5 0.000892 -0.002058 0.002807 0.000000 0.025512 0.000000
# 6 0.000000 0.000000 0.000000 0.462794 0.000000 -3.343520
#
#
# Mechanical properties :
#
#
# Convention : Reuss Voigt Hill
#
# Bulk Modulus (GPa) = 31.93553 43.34261 37.63907
# Shear Modulus (GPa) = -1.54254 25.08910 11.77328
#
# Velocity S-wave (km/s) = -0.91549 3.69212 2.52919
# Velocity P-wave (km/s) = 4.02916 6.45950 5.38328
#
# Compressibility (1/GPa) = 0.03131308
#
# Stress axis : x y z
#
# Youngs Moduli (GPa) = 103.26799 25.99880 62.25274
#
# Poissons Ratio (x) = 0.07081 0.15483
# Poissons Ratio (y) = 0.28126 0.69959
# Poissons Ratio (z) = 0.25684 0.29217
#
# Static dielectric constant tensor:
#      x y z
#    x 1.671770 0.000000 -0.004210 
#    y 0.000000 1.625360 0.000000 
#    z -0.004210 0.000000 1.675770 
# 
# From -- ./inp_files/231100.got.cif
#   From: 2010.05.17/outbox.cif.g08.bks.cpg/sg15_116_cif.got.tgz:231100.got - 2010.06.03 18:47:42.
