data_PCOD9264061
_publ_section_title
;
Structure prediction by ZEFSAII (Michael W. Deem and Ramdas Pophale) SiO2 
 PCOD9264061
Probable space group: C 2/C
;
_chemical_formula_sum "Si O2"
_cell_formula_units_Z 36
_cell_length_a 6.964466
_cell_length_b 11.742501
_cell_length_c 20.122104
_cell_angle_alpha 90.000000
_cell_angle_beta 127.841389
_cell_angle_gamma 90.000000
_cell_volume 1299.542798
_symmetry_space_group_name_H-M "C 2/C"
_symmetry_group_IT_number 15
_symmetry_cell_setting 'monoclinic'
loop_
_space_group_symop_operation_xyz
x,y,z
-x,y,1/2-z
-x,-y,-z
x,-y,1/2+z
1/2+x,1/2+y,z
1/2-x,1/2+y,1/2-z
1/2-x,1/2-y,-z
1/2+x,1/2-y,1/2+z
loop_
_atom_site_type_symbol
_atom_site_label
_atom_site_fract_x
_atom_site_fract_y
_atom_site_fract_z
Si Si1 0.419798 0.509616 0.891709
Si Si2 0.116194 0.579401 0.586372
Si Si3 0.468704 0.703617 0.498964
Si Si4 0.726131 0.079402 0.217474
Si Si5 0.500000 0.724920 0.750000
O O1 0.705505 0.525649 0.931931
O O2 0.359092 0.626648 0.917422
O O3 0.265494 0.495349 0.792321
O O4 0.401461 0.393150 0.929962
O O5 0.952686 0.679062 0.520167
O O6 0.061200 0.477377 0.625489
O O7 0.298855 0.650512 0.671957
O O8 0.250000 0.750000 0.500000
O O9 0.617596 0.196701 0.218991
O O10 0.000000 0.096381 0.250000
#
# Coordination Sequence:
#
# PCOD9264061 Si02
#       5
#     8   8   8   8   4
#     4   9  16  31  54  83 111 153 197 230 288 353
#     4  10  19  35  54  82 117 149 192 247 289 338
#     4   9  17  29  56  84 111 158 192 227 296 344
#     4  10  21  37  57  88 117 147 201 244 284 354
#     4  12  20  36  60  84 116 154 188 242 300 334
#
# _framework density 27.702051000000001
#
# number of rings (size 3 to 8) (size 9 to 14) (size 15 to 20)
#    0.000    2.222    5.556    0.000    0.000    0.000 
#    2.000    0.000    0.000   22.667    0.000    0.000 
#    0.000    0.000    0.000    0.000    0.000    0.000 
#
# Total GULP energy -100843.114977 kJ/mol
# GULP energy per Si atom -5602.395277 kJ/mol
# Density = 2.763900 g / cm^3
# Si number density = 27.702051 Si / 1000 Ang^3
#
#
#
# Elastic Constant Matrix: (Units=GPa)
#
#
# Indices 1 2 3 4 5 6 
#
# 1 110.0715 63.8462 22.4889 0.0000 -13.4936 0.0000
# 2 63.8462 198.9218 74.4360 0.0000 -22.6888 0.0000
# 3 22.4889 74.4360 146.6390 0.0000 -31.9780 0.0000
# 4 0.0000 0.0000 0.0000 60.3097 0.0000 -14.2554
# 5 -13.4936 -22.6888 -31.9780 0.0000 26.9774 0.0000
# 6 0.0000 0.0000 0.0000 -14.2554 0.0000 58.0306
#
#
#
# Elastic Compliance Matrix: (Units=1/GPa)
#
#
# Indices 1 2 3 4 5 6 
#
# 1 0.011438 -0.003571 0.000878 0.000000 0.003759 0.000000
# 2 -0.003571 0.007402 -0.003023 0.000000 0.000856 0.000000
# 3 0.000878 -0.003023 0.010466 0.000000 0.010303 0.000000
# 4 0.000000 0.000000 0.000000 0.017603 0.000000 0.004324
# 5 0.003759 0.000856 0.010303 0.000000 0.051880 0.000000
# 6 0.000000 0.000000 0.000000 0.004324 0.000000 0.018295
#
#
# Mechanical properties :
#
#
# Convention : Reuss Voigt Hill
#
# Bulk Modulus (GPa) = 55.94687 86.35273 71.14980
# Shear Modulus (GPa) = 37.18198 48.72096 42.95147
#
# Velocity S-wave (km/s) = 3.66759 4.19829 3.94188
# Velocity P-wave (km/s) = 6.17857 7.39868 6.81598
#
# Compressibility (1/GPa) = 0.01787410
#
# Stress axis : x y z
#
# Youngs Moduli (GPa) = 87.43053 135.09684 95.54618
#
# Poissons Ratio (x) = 0.48243 -0.08391
# Poissons Ratio (y) = 0.31221 0.28885
# Poissons Ratio (z) = -0.07678 0.40842
#
# Static dielectric constant tensor:
#      x y z
#    x 2.266990 0.000000 -0.047290 
#    y 0.000000 2.085990 0.000000 
#    z -0.047290 0.000000 2.171270 
# 
# From -- ./inp_files/229588.got.cif
#   From: 2010.05.17/outbox.cif.g08.bks.cpg/sg15_115_cif.got.tgz:229588.got - 2010.06.03 18:47:42.
