data_PCOD9264663
_publ_section_title
;
Structure prediction by ZEFSAII (Michael W. Deem and Ramdas Pophale) SiO2 
 PCOD9264663
Probable space group: C 2/C
;
_chemical_formula_sum "Si O2"
_cell_formula_units_Z 56
_cell_length_a 8.913766
_cell_length_b 23.181599
_cell_length_c 17.661762
_cell_angle_alpha 90.000000
_cell_angle_beta 51.346296
_cell_angle_gamma 90.000000
_cell_volume 2850.058233
_symmetry_space_group_name_H-M "C 2/C"
_symmetry_group_IT_number 15
_symmetry_cell_setting 'monoclinic'
loop_
_space_group_symop_operation_xyz
x,y,z
-x,y,1/2-z
-x,-y,-z
x,-y,1/2+z
1/2+x,1/2+y,z
1/2-x,1/2+y,1/2-z
1/2-x,1/2-y,-z
1/2+x,1/2-y,1/2+z
loop_
_atom_site_type_symbol
_atom_site_label
_atom_site_fract_x
_atom_site_fract_y
_atom_site_fract_z
Si Si1 0.179191 0.762444 0.241129
Si Si2 0.920858 0.084989 0.605188
Si Si3 0.579316 0.295566 0.044074
Si Si4 0.307750 0.887167 0.177132
Si Si5 0.364994 0.497030 0.357943
Si Si6 0.932432 0.789836 0.922100
Si Si7 0.259557 0.904887 0.502780
O O1 0.216357 0.824597 0.189058
O O2 0.389322 0.734332 0.181882
O O3 0.000000 0.734891 0.250000
O O4 0.095564 0.771874 0.350715
O O5 0.748226 0.101565 0.717435
O O6 0.850362 0.080211 0.541330
O O7 0.080479 0.136150 0.563498
O O8 0.007469 0.027478 0.613406
O O9 0.750000 0.250000 0.000000
O O10 0.533363 0.296844 0.971038
O O11 0.225238 0.940907 0.155010
O O12 0.531561 0.884501 0.089567
O O13 0.500000 0.523851 0.250000
O O14 0.228635 0.543094 0.441126
O O15 0.750000 0.750000 0.000000
O O16 0.851060 0.851615 0.923749
#
# Coordination Sequence:
#
# PCOD9264663 Si02
#       7
#     8   8   8   8   8   8   8
#     4  11  20  37  63  85 119 159 199 248 297 355
#     4   9  20  35  60  84 116 152 197 252 295 346
#     4  10  20  35  60  89 115 154 202 245 294 358
#     4  10  19  35  61  90 111 152 207 249 290 351
#     4  10  21  38  59  85 117 158 204 245 297 357
#     4  11  23  38  56  89 123 154 195 247 302 364
#     4  11  21  37  58  85 124 153 194 248 309 351
#
# _framework density 19.648720999999998
#
# number of rings (size 3 to 8) (size 9 to 14) (size 15 to 20)
#    0.000    1.714    2.857    3.429    0.000    0.571 
#    2.571    0.000    3.143    0.000    0.000    0.000 
#    0.000    0.000    0.000    0.000    0.000    0.000 
#
# Total GULP energy -155988.739881 kJ/mol
# GULP energy per Si atom -5571.026424 kJ/mol
# Density = 1.960400 g / cm^3
# Si number density = 19.648721 Si / 1000 Ang^3
#
#
#
# Elastic Constant Matrix: (Units=GPa)
#
#
# Indices 1 2 3 4 5 6 
#
# 1 33.9212 22.5005 13.8986 0.0000 -12.5542 0.0000
# 2 22.5005 67.6341 46.4743 0.0000 -11.8287 0.0000
# 3 13.8986 46.4743 100.4184 0.0000 -18.5411 0.0000
# 4 0.0000 0.0000 0.0000 28.8140 0.0000 -3.4754
# 5 -12.5542 -11.8287 -18.5411 0.0000 31.9222 0.0000
# 6 0.0000 0.0000 0.0000 -3.4754 0.0000 19.9647
#
#
#
# Elastic Compliance Matrix: (Units=1/GPa)
#
#
# Indices 1 2 3 4 5 6 
#
# 1 0.042327 -0.013811 0.002982 0.000000 0.013261 0.000000
# 2 -0.013811 0.026362 -0.010628 0.000000 -0.001836 0.000000
# 3 0.002982 -0.010628 0.015630 0.000000 0.006313 0.000000
# 4 0.000000 0.000000 0.000000 0.035450 0.000000 0.006171
# 5 0.013261 -0.001836 0.006313 0.000000 0.039527 0.000000
# 6 0.000000 0.000000 0.000000 0.006171 0.000000 0.051162
#
#
# Mechanical properties :
#
#
# Convention : Reuss Voigt Hill
#
# Bulk Modulus (GPa) = 24.15194 40.85784 32.50489
# Shear Modulus (GPa) = 18.71435 24.08023 21.39729
#
# Velocity S-wave (km/s) = 3.08952 3.50456 3.30357
# Velocity P-wave (km/s) = 5.00454 6.10043 5.57946
#
# Compressibility (1/GPa) = 0.04140454
#
# Stress axis : x y z
#
# Youngs Moduli (GPa) = 23.62544 37.93337 63.98002
#
# Poissons Ratio (x) = 0.52391 -0.19079
# Poissons Ratio (y) = 0.32630 0.67998
# Poissons Ratio (z) = -0.07045 0.40316
#
# Static dielectric constant tensor:
#      x y z
#    x 1.722240 0.000000 -0.011390 
#    y 0.000000 -0.795450 0.000000 
#    z -0.011390 0.000000 1.697960 
# 
# From -- ./inp_files/193218.got.cif
#   From: 2010.05.17/outbox.cif.g08.bks.cpg/sg15_97_cif.got.tgz:193218.got - 2010.06.03 18:47:42.
