data_PCOD9264888
_publ_section_title
;
Structure prediction by ZEFSAII (Michael W. Deem and Ramdas Pophale) SiO2 
 PCOD9264888
Probable space group: C 2/C
;
_chemical_formula_sum "Si O2"
_cell_formula_units_Z 56
_cell_length_a 5.760413
_cell_length_b 17.146968
_cell_length_c 28.772554
_cell_angle_alpha 90.000000
_cell_angle_beta 126.269911
_cell_angle_gamma 90.000000
_cell_volume 2291.306631
_symmetry_space_group_name_H-M "C 2/C"
_symmetry_group_IT_number 15
_symmetry_cell_setting 'monoclinic'
loop_
_space_group_symop_operation_xyz
x,y,z
-x,y,1/2-z
-x,-y,-z
x,-y,1/2+z
1/2+x,1/2+y,z
1/2-x,1/2+y,1/2-z
1/2-x,1/2-y,-z
1/2+x,1/2-y,1/2+z
loop_
_atom_site_type_symbol
_atom_site_label
_atom_site_fract_x
_atom_site_fract_y
_atom_site_fract_z
Si Si1 0.052181 0.579840 0.386997
Si Si2 0.329188 0.056817 0.532744
Si Si3 0.446077 0.628490 0.616474
Si Si4 0.188487 0.211262 0.567662
Si Si5 0.015297 0.460809 0.197161
Si Si6 0.206197 0.193301 0.808640
Si Si7 0.840931 0.872394 0.576076
O O1 0.213506 0.521493 0.442919
O O2 0.905815 0.530600 0.328062
O O3 0.313733 0.627468 0.392841
O O4 0.798892 0.616632 0.389088
O O5 0.171192 0.133028 0.535530
O O6 0.274948 0.059911 0.471599
O O7 0.655411 0.081307 0.582387
O O8 0.449755 0.695018 0.578033
O O9 0.702051 0.567067 0.642125
O O10 0.483155 0.671006 0.669562
O O11 0.489643 0.218837 0.632915
O O12 0.190182 0.292212 0.541634
O O13 0.000000 0.479198 0.250000
O O14 0.205207 0.384832 0.209049
O O15 0.000000 0.242137 0.750000
#
# Coordination Sequence:
#
# PCOD9264888 Si02
#       7
#     8   8   8   8   8   8   8
#     4  12  26  45  67 101 139 174 230 277 337 410
#     4  11  23  43  71  97 128 184 233 278 321 400
#     4  10  19  37  68  98 129 156 236 286 323 383
#     4  10  24  41  66  97 134 173 231 277 332 415
#     4  11  21  38  68  99 126 171 223 284 333 389
#     4  10  19  35  69  98 124 164 226 291 331 380
#     4  12  29  44  66  98 147 185 213 277 351 398
#
# _framework density 24.440201999999999
#
# number of rings (size 3 to 8) (size 9 to 14) (size 15 to 20)
#    0.000    1.143    5.714    2.143    6.000    0.571 
#    0.000    0.714    3.143    0.000    0.000    0.000 
#    0.000    0.000    0.000    0.000    0.000    0.000 
#
# Total GULP energy -156356.791350 kJ/mol
# GULP energy per Si atom -5584.171120 kJ/mol
# Density = 2.438457 g / cm^3
# Si number density = 24.440202 Si / 1000 Ang^3
#
#
#
# Elastic Constant Matrix: (Units=GPa)
#
#
# Indices 1 2 3 4 5 6 
#
# 1 121.4328 33.2046 22.0436 0.0001 -30.1229 0.0001
# 2 33.2046 75.5379 5.6403 0.0000 -19.2438 0.0000
# 3 22.0436 5.6403 81.9968 0.0000 -18.9856 0.0000
# 4 0.0001 0.0000 0.0000 20.3662 0.0000 -11.1672
# 5 -30.1229 -19.2438 -18.9856 0.0000 47.9529 0.0001
# 6 0.0001 0.0000 0.0000 -11.1672 0.0001 32.8499
#
#
#
# Elastic Compliance Matrix: (Units=1/GPa)
#
#
# Indices 1 2 3 4 5 6 
#
# 1 0.010595 -0.003344 -0.001528 0.000000 0.004709 0.000000
# 2 -0.003344 0.015813 0.000874 0.000000 0.004592 0.000000
# 3 -0.001528 0.000874 0.013657 0.000000 0.004798 0.000000
# 4 0.000000 0.000000 0.000000 0.060350 0.000000 0.020516
# 5 0.004709 0.004592 0.004798 0.000000 0.027554 0.000000
# 6 0.000000 0.000000 0.000000 0.020516 0.000000 0.037416
#
#
# Mechanical properties :
#
#
# Convention : Reuss Voigt Hill
#
# Bulk Modulus (GPa) = 31.18185 44.52716 37.85450
# Shear Modulus (GPa) = 27.16379 34.77241 30.96810
#
# Velocity S-wave (km/s) = 3.33744 3.77603 3.56349
# Velocity P-wave (km/s) = 5.25714 6.10488 5.69680
#
# Compressibility (1/GPa) = 0.03206994
#
# Stress axis : x y z
#
# Youngs Moduli (GPa) = 94.38724 63.24091 73.22144
#
# Poissons Ratio (x) = 0.21145 0.11188
# Poissons Ratio (y) = 0.31558 -0.06402
# Poissons Ratio (z) = 0.14422 -0.05529
#
# Static dielectric constant tensor:
#      x y z
#    x 2.015430 0.000000 0.016470 
#    y 0.000000 2.014620 0.000000 
#    z 0.016470 0.000000 2.006420 
# 
# From -- ./inp_files/286104.got.cif
#   From: 2010.05.17/outbox.cif.g08.bks.cpg/sg15_144_cif.got.tgz:286104.got - 2010.06.03 18:47:42.
