data_PCOD9264142
_publ_section_title
;
Structure prediction by ZEFSAII (Michael W. Deem and Ramdas Pophale) SiO2 
 PCOD9264142
Probable space group: C 2/C
;
_chemical_formula_sum "Si O2"
_cell_formula_units_Z 56
_cell_length_a 15.907879
_cell_length_b 14.104798
_cell_length_c 20.444180
_cell_angle_alpha 90.000000
_cell_angle_beta 38.925917
_cell_angle_gamma 90.000000
_cell_volume 2882.214433
_symmetry_space_group_name_H-M "C 2/C"
_symmetry_group_IT_number 15
_symmetry_cell_setting 'monoclinic'
loop_
_space_group_symop_operation_xyz
x,y,z
-x,y,1/2-z
-x,-y,-z
x,-y,1/2+z
1/2+x,1/2+y,z
1/2-x,1/2+y,1/2-z
1/2-x,1/2-y,-z
1/2+x,1/2-y,1/2+z
loop_
_atom_site_type_symbol
_atom_site_label
_atom_site_fract_x
_atom_site_fract_y
_atom_site_fract_z
Si Si1 0.158064 0.118312 0.023305
Si Si2 0.523191 0.613266 0.980275
Si Si3 0.542796 0.585478 0.621872
Si Si4 0.579154 0.263303 0.762848
Si Si5 0.398327 0.210977 0.612354
Si Si6 0.685621 0.880060 0.949428
Si Si7 0.710758 0.586980 0.637465
O O1 0.285360 0.140711 0.991046
O O2 0.035129 0.172144 0.132937
O O3 0.123327 0.008003 0.052097
O O4 0.151064 0.136757 0.949780
O O5 0.512090 0.635806 0.910088
O O6 0.500000 0.500000 0.000000
O O7 0.411764 0.679355 0.082000
O O8 0.644894 0.632251 0.611924
O O9 0.414262 0.555868 0.741913
O O10 0.500000 0.216155 0.750000
O O11 0.633230 0.203656 0.791442
O O12 0.696271 0.328624 0.662330
O O13 0.542597 0.160443 0.516360
O O14 0.294714 0.160108 0.628459
O O15 0.703937 0.992601 0.929012
#
# Coordination Sequence:
#
# PCOD9264142 Si02
#       7
#     8   8   8   8   8   8   8
#     4   8  15  32  56  78 100 140 183 215 265 322
#     4   9  19  34  53  79 106 136 178 227 264 308
#     4   9  17  34  57  77  99 146 190 222 257 312
#     4   9  18  33  52  76 109 142 179 221 265 320
#     4  11  23  33  52  88 111 140 185 218 277 327
#     4  10  19  35  56  78 115 144 172 226 273 322
#     4  10  20  35  56  78 108 144 188 219 264 326
#
# _framework density 19.429504999999999
#
# number of rings (size 3 to 8) (size 9 to 14) (size 15 to 20)
#    0.000    2.571    1.429    0.429    2.000    5.714 
#    0.000    0.000    0.000    0.000    0.000    0.000 
#    0.000    0.000    0.000    0.000    0.000    0.000 
#
# Total GULP energy -155875.551416 kJ/mol
# GULP energy per Si atom -5566.983979 kJ/mol
# Density = 1.938528 g / cm^3
# Si number density = 19.429505 Si / 1000 Ang^3
#
#
#
# Elastic Constant Matrix: (Units=GPa)
#
#
# Indices 1 2 3 4 5 6 
#
# 1 186.8225 38.0430 37.7231 0.0000 23.4816 0.0000
# 2 38.0430 67.1232 12.7064 0.0000 0.9226 0.0000
# 3 37.7231 12.7064 47.5678 0.0002 12.9888 -0.0001
# 4 0.0000 0.0000 0.0002 16.5109 -0.0001 6.9750
# 5 23.4816 0.9226 12.9888 -0.0001 33.7232 0.0000
# 6 0.0000 0.0000 -0.0001 6.9750 0.0000 26.9400
#
#
#
# Elastic Compliance Matrix: (Units=1/GPa)
#
#
# Indices 1 2 3 4 5 6 
#
# 1 0.007255 -0.003322 -0.003924 0.000000 -0.003449 0.000000
# 2 -0.003322 0.017265 -0.002772 0.000000 0.002908 0.000000
# 3 -0.003924 -0.002772 0.026942 0.000000 -0.007568 0.000000
# 4 0.000000 0.000000 0.000000 0.068004 0.000000 -0.017607
# 5 -0.003449 0.002908 -0.007568 0.000000 0.034890 0.000000
# 6 0.000000 0.000000 0.000000 -0.017607 0.000000 0.041678
#
#
# Mechanical properties :
#
#
# Convention : Reuss Voigt Hill
#
# Bulk Modulus (GPa) = 31.82028 53.16205 42.49116
# Shear Modulus (GPa) = 22.07060 29.63757 25.85408
#
# Velocity S-wave (km/s) = 3.37402 3.90986 3.65178
# Velocity P-wave (km/s) = 5.62063 6.91401 6.30060
#
# Compressibility (1/GPa) = 0.03142650
#
# Stress axis : x y z
#
# Youngs Moduli (GPa) = 137.83601 57.91969 37.11703
#
# Poissons Ratio (x) = 0.19239 0.14566
# Poissons Ratio (y) = 0.45783 0.10288
# Poissons Ratio (z) = 0.54092 0.16055
#
# Static dielectric constant tensor:
#      x y z
#    x 1.765020 0.000000 0.035520 
#    y 0.000000 1.685510 0.000000 
#    z 0.035520 0.000000 1.679220 
# 
# From -- ./inp_files/153441.got.cif
#   From: 2010.05.17/outbox.cif.g08.bks.cpg/sg15_77_cif.got.tgz:153441.got - 2010.06.03 18:47:42.
