data_PCOD9264979
_publ_section_title
;
Structure prediction by ZEFSAII (Michael W. Deem and Ramdas Pophale) SiO2 
 PCOD9264979
Probable space group: C 2/C
;
_chemical_formula_sum "Si O2"
_cell_formula_units_Z 44
_cell_length_a 10.321090
_cell_length_b 27.297173
_cell_length_c 10.809213
_cell_angle_alpha 90.000000
_cell_angle_beta 127.131396
_cell_angle_gamma 90.000000
_cell_volume 2427.915810
_symmetry_space_group_name_H-M "C 2/C"
_symmetry_group_IT_number 15
_symmetry_cell_setting 'monoclinic'
loop_
_space_group_symop_operation_xyz
x,y,z
-x,y,1/2-z
-x,-y,-z
x,-y,1/2+z
1/2+x,1/2+y,z
1/2-x,1/2+y,1/2-z
1/2-x,1/2-y,-z
1/2+x,1/2-y,1/2+z
loop_
_atom_site_type_symbol
_atom_site_label
_atom_site_fract_x
_atom_site_fract_y
_atom_site_fract_z
Si Si1 0.667590 0.082143 0.401269
Si Si2 0.350662 0.901877 0.318717
Si Si3 0.000000 0.486091 0.250000
Si Si4 0.049624 0.707607 0.640790
Si Si5 0.001311 0.128351 0.900504
Si Si6 0.580022 0.738821 0.664692
O O1 0.500000 0.104174 0.250000
O O2 0.665988 0.092451 0.544911
O O3 0.837467 0.103669 0.451854
O O4 0.644347 0.024042 0.365590
O O5 0.442112 0.949421 0.322417
O O6 0.444282 0.851235 0.350296
O O7 0.170379 0.894667 0.156766
O O8 0.230543 0.726130 0.711059
O O9 0.000000 0.725308 0.750000
O O10 0.941624 0.725198 0.463478
O O11 0.000000 0.122484 0.750000
O O12 0.001267 0.186702 0.919919
O O13 0.500000 0.754345 0.750000
#
# Coordination Sequence:
#
# PCOD9264979 Si02
#       6
#     8   8   4   8   8   8
#     4   9  20  33  55  81 104 137 184 234 272 315
#     4  10  19  36  56  76 109 148 182 217 279 341
#     4  10  20  34  56  78 110 140 188 222 278 320
#     4  11  22  37  58  85 117 154 186 230 288 337
#     4   8  17  35  55  79 108 143 179 224 274 329
#     4  10  21  37  59  85 116 149 193 231 276 341
#
# _framework density 18.122540999999998
#
# number of rings (size 3 to 8) (size 9 to 14) (size 15 to 20)
#    0.545    1.818    0.909    2.727    0.000    2.909 
#    0.000    0.000    0.000    0.000    0.000    0.000 
#    0.000    0.000    0.000    0.000    0.000    0.000 
#
# Total GULP energy -122483.365667 kJ/mol
# GULP energy per Si atom -5567.425712 kJ/mol
# Density = 1.808129 g / cm^3
# Si number density = 18.122541 Si / 1000 Ang^3
#
#
#
# Elastic Constant Matrix: (Units=GPa)
#
#
# Indices 1 2 3 4 5 6 
#
# 1 21.3406 5.5981 -5.0804 0.0000 -11.6299 0.0000
# 2 5.5981 52.5217 29.6684 0.0000 13.2494 0.0000
# 3 -5.0804 29.6684 60.0048 0.0000 7.4755 0.0000
# 4 0.0000 0.0000 0.0000 19.4464 0.0000 -3.6269
# 5 -11.6299 13.2494 7.4755 0.0000 27.8162 0.0000
# 6 0.0000 0.0000 0.0000 -3.6269 0.0000 22.2495
#
#
#
# Elastic Compliance Matrix: (Units=1/GPa)
#
#
# Indices 1 2 3 4 5 6 
#
# 1 0.081826 -0.028538 0.015605 0.000000 0.043611 0.000000
# 2 -0.028538 0.038974 -0.018507 0.000000 -0.025522 0.000000
# 3 0.015605 -0.018507 0.026100 0.000000 0.008325 0.000000
# 4 0.000000 0.000000 0.000000 0.053036 0.000000 0.008646
# 5 0.043611 -0.025522 0.008325 0.000000 0.064103 0.000000
# 6 0.000000 0.000000 0.000000 0.008646 0.000000 0.046354
#
#
# Mechanical properties :
#
#
# Convention : Reuss Voigt Hill
#
# Bulk Modulus (GPa) = 11.90185 21.58215 16.74200
# Shear Modulus (GPa) = 12.46015 20.81447 16.63731
#
# Velocity S-wave (km/s) = 2.62496 3.39269 3.03321
# Velocity P-wave (km/s) = 3.97101 5.22322 4.63955
#
# Compressibility (1/GPa) = 0.08402054
#
# Stress axis : x y z
#
# Youngs Moduli (GPa) = 12.22100 25.65827 38.31474
#
# Poissons Ratio (x) = 0.73223 -0.59790
# Poissons Ratio (y) = 0.34876 0.70907
# Poissons Ratio (z) = -0.19071 0.47485
#
# Static dielectric constant tensor:
#      x y z
#    x 1.662340 0.000000 0.030620 
#    y 0.000000 1.621750 0.000000 
#    z 0.030620 0.000000 1.632340 
# 
# From -- ./inp_files/92477.got.cif
#   From: 2010.05.17/outbox.cif.g08.bks.cpg/sg15_47_cif.got.tgz:92477.got - 2010.06.03 18:47:42.
