data_PCOD9264290
_publ_section_title
;
Structure prediction by ZEFSAII (Michael W. Deem and Ramdas Pophale) SiO2 
 PCOD9264290
Probable space group: C 2/C
;
_chemical_formula_sum "Si O2"
_cell_formula_units_Z 56
_cell_length_a 24.643785
_cell_length_b 10.947058
_cell_length_c 8.597316
_cell_angle_alpha 90.000000
_cell_angle_beta 81.268034
_cell_angle_gamma 90.000000
_cell_volume 2292.474755
_symmetry_space_group_name_H-M "C 2/C"
_symmetry_group_IT_number 15
_symmetry_cell_setting 'monoclinic'
loop_
_space_group_symop_operation_xyz
x,y,z
-x,y,1/2-z
-x,-y,-z
x,-y,1/2+z
1/2+x,1/2+y,z
1/2-x,1/2+y,1/2-z
1/2-x,1/2-y,-z
1/2+x,1/2-y,1/2+z
loop_
_atom_site_type_symbol
_atom_site_label
_atom_site_fract_x
_atom_site_fract_y
_atom_site_fract_z
Si Si1 0.905711 0.498970 0.653670
Si Si2 0.439480 0.596353 0.268775
Si Si3 0.048210 0.635600 0.610155
Si Si4 0.218584 0.162486 0.326531
Si Si5 0.674650 0.568935 0.032413
Si Si6 0.161996 0.727632 0.274393
Si Si7 0.607498 0.251902 0.982443
O O1 0.903876 0.558535 0.825687
O O2 0.952205 0.405699 0.566996
O O3 0.853692 0.408887 0.663519
O O4 0.915876 0.619879 0.546972
O O5 0.500000 0.535985 0.250000
O O6 0.445057 0.720466 0.369337
O O7 0.383808 0.536836 0.359058
O O8 0.425862 0.645839 0.100054
O O9 0.000000 0.601583 0.750000
O O10 0.277654 0.219842 0.326276
O O11 0.167600 0.251845 0.376416
O O12 0.202748 0.046426 0.439197
O O13 0.213592 0.120006 0.150144
O O14 0.663644 0.673218 0.909520
O O15 0.118137 0.762543 0.160226
#
# Coordination Sequence:
#
# PCOD9264290 Si02
#       7
#     8   8   8   8   8   8   8
#     4  11  21  35  57  92 124 162 205 258 309 386
#     4   9  20  42  69  92 130 172 213 269 324 371
#     4  10  19  35  57  87 126 165 202 256 320 374
#     4  11  26  41  67  90 129 174 212 267 322 375
#     4  11  24  45  64  95 128 166 224 265 316 394
#     4  12  24  39  65  92 132 169 211 259 325 379
#     4  10  23  41  61  94 131 165 217 261 314 386
#
# _framework density 24.427751000000001
#
# number of rings (size 3 to 8) (size 9 to 14) (size 15 to 20)
#    0.000    1.429    2.857    2.143    4.000    0.000 
#    0.000    3.571    0.000    0.857    0.000    0.000 
#    0.000    0.000    0.000    0.000    0.000    0.000 
#
# Total GULP energy -156356.634931 kJ/mol
# GULP energy per Si atom -5584.165533 kJ/mol
# Density = 2.437215 g / cm^3
# Si number density = 24.427751 Si / 1000 Ang^3
#
#
#
# Elastic Constant Matrix: (Units=GPa)
#
#
# Indices 1 2 3 4 5 6 
#
# 1 90.0725 -6.4859 19.2176 0.0000 1.6193 0.0000
# 2 -6.4859 50.4840 12.6848 0.0000 11.3039 0.0000
# 3 19.2176 12.6848 91.1542 0.0000 17.5439 0.0000
# 4 0.0000 0.0000 0.0000 45.8420 0.0000 -1.4528
# 5 1.6193 11.3039 17.5439 0.0000 44.6393 0.0000
# 6 0.0000 0.0000 0.0000 -1.4528 0.0000 21.4095
#
#
#
# Elastic Compliance Matrix: (Units=1/GPa)
#
#
# Indices 1 2 3 4 5 6 
#
# 1 0.011863 0.002208 -0.002832 0.000000 0.000124 0.000000
# 2 0.002208 0.021772 -0.002617 0.000000 -0.004565 0.000000
# 3 -0.002832 -0.002617 0.012749 0.000000 -0.004245 0.000000
# 4 0.000000 0.000000 0.000000 0.021861 0.000000 0.001483
# 5 0.000124 -0.004565 -0.004245 0.000000 0.025222 0.000000
# 6 0.000000 0.000000 0.000000 0.001483 0.000000 0.046809
#
#
# Mechanical properties :
#
#
# Convention : Reuss Voigt Hill
#
# Bulk Modulus (GPa) = 25.06141 31.39376 28.22759
# Shear Modulus (GPa) = 31.23888 36.13111 33.68499
#
# Velocity S-wave (km/s) = 3.57995 3.85008 3.71747
# Velocity P-wave (km/s) = 5.23161 5.71347 5.47784
#
# Compressibility (1/GPa) = 0.03990198
#
# Stress axis : x y z
#
# Youngs Moduli (GPa) = 84.29432 45.93158 78.43972
#
# Poissons Ratio (x) = -0.10142 0.22215
# Poissons Ratio (y) = -0.18613 0.20525
# Poissons Ratio (z) = 0.23873 0.12018
#
# Static dielectric constant tensor:
#      x y z
#    x 2.068780 0.000000 0.079930 
#    y 0.000000 1.937010 0.000000 
#    z 0.079930 0.000000 2.055910 
# 
# From -- ./inp_files/65433.got.cif
#   From: 2010.05.17/outbox.cif.g08.bks.cpg/sg15_33_cif.got.tgz:65433.got - 2010.06.03 18:47:42.
