data_PCOD9264324
_publ_section_title
;
Structure prediction by ZEFSAII (Michael W. Deem and Ramdas Pophale) SiO2 
 PCOD9264324
Probable space group: C 2/C
;
_chemical_formula_sum "Si O2"
_cell_formula_units_Z 40
_cell_length_a 9.405422
_cell_length_b 13.400240
_cell_length_c 29.416595
_cell_angle_alpha 90.000000
_cell_angle_beta 151.852419
_cell_angle_gamma 90.000000
_cell_volume 1749.000381
_symmetry_space_group_name_H-M "C 2/C"
_symmetry_group_IT_number 15
_symmetry_cell_setting 'monoclinic'
loop_
_space_group_symop_operation_xyz
x,y,z
-x,y,1/2-z
-x,-y,-z
x,-y,1/2+z
1/2+x,1/2+y,z
1/2-x,1/2+y,1/2-z
1/2-x,1/2-y,-z
1/2+x,1/2-y,1/2+z
loop_
_atom_site_type_symbol
_atom_site_label
_atom_site_fract_x
_atom_site_fract_y
_atom_site_fract_z
Si Si1 0.812234 0.045049 0.904514
Si Si2 0.939525 0.250919 0.981065
Si Si3 0.840594 0.526090 0.837655
Si Si4 0.795983 0.557377 0.978884
Si Si5 0.343417 0.735248 0.358486
O O1 0.862321 0.163490 0.924652
O O2 0.472067 0.020438 0.823711
O O3 0.962177 0.019659 0.898594
O O4 0.000000 0.000000 0.000000
O O5 0.618008 0.300878 0.904105
O O6 0.179213 0.329223 0.030149
O O7 0.071205 0.208882 0.065761
O O8 0.500000 0.497854 0.750000
O O9 0.868207 0.642792 0.860862
O O10 0.030890 0.457687 0.924935
O O11 0.000000 0.500000 0.000000
O O12 0.000000 0.708080 0.250000
#
# Coordination Sequence:
#
# PCOD9264324 Si02
#       5
#     8   8   8   8   8
#     4   9  20  36  58  79 107 150 185 223 284 331
#     4  10  19  35  58  81 114 147 187 235 275 332
#     4   9  18  37  58  78 113 146 184 233 279 331
#     4  11  20  35  57  85 109 148 189 225 278 336
#     4   9  18  34  58  82 110 148 188 229 282 332
#
# _framework density 22.870207000000001
#
# number of rings (size 3 to 8) (size 9 to 14) (size 15 to 20)
#    0.000    2.400    2.000    0.600    2.800    0.000 
#    7.200    1.000    0.000    0.000    0.000    0.000 
#    0.000    0.000    0.000    0.000    0.000    0.000 
#
# Total GULP energy -111539.864568 kJ/mol
# GULP energy per Si atom -5576.993228 kJ/mol
# Density = 2.281815 g / cm^3
# Si number density = 22.870207 Si / 1000 Ang^3
#
#
#
# Elastic Constant Matrix: (Units=GPa)
#
#
# Indices 1 2 3 4 5 6 
#
# 1 188.3586 23.3509 40.3629 0.0000 47.8011 0.0000
# 2 23.3509 36.3117 -16.6120 0.0003 3.0075 0.0000
# 3 40.3629 -16.6120 83.0065 0.0007 28.9569 -0.0002
# 4 0.0000 0.0003 0.0007 16.2338 -0.0003 1.5641
# 5 47.8011 3.0075 28.9569 -0.0003 35.7329 -0.0001
# 6 0.0000 0.0000 -0.0002 1.5641 -0.0001 29.9838
#
#
#
# Elastic Compliance Matrix: (Units=1/GPa)
#
#
# Indices 1 2 3 4 5 6 
#
# 1 0.008991 -0.005956 -0.002151 0.000000 -0.009783 0.000000
# 2 -0.005956 0.037318 0.012102 -0.000001 -0.004981 0.000000
# 3 -0.002151 0.012102 0.020726 -0.000001 -0.014937 0.000000
# 4 0.000000 -0.000001 -0.000001 0.061911 0.000002 -0.003230
# 5 -0.009783 -0.004981 -0.014937 0.000002 0.053596 0.000000
# 6 0.000000 0.000000 0.000000 -0.003230 0.000000 0.033520
#
#
# Mechanical properties :
#
#
# Convention : Reuss Voigt Hill
#
# Bulk Modulus (GPa) = 13.32866 44.65336 28.99101
# Shear Modulus (GPa) = 21.45186 33.76177 27.60682
#
# Velocity S-wave (km/s) = 3.06597 3.84635 3.47812
# Velocity P-wave (km/s) = 4.28651 6.26841 5.36969
#
# Compressibility (1/GPa) = 0.07502629
#
# Stress axis : x y z
#
# Youngs Moduli (GPa) = 111.22186 26.79651 48.24885
#
# Poissons Ratio (x) = 0.15959 0.10378
# Poissons Ratio (y) = 0.66239 -0.58391
# Poissons Ratio (z) = 0.23924 -0.32429
#
# Static dielectric constant tensor:
#      x y z
#    x 1.937770 0.000000 0.075840 
#    y 0.000000 1.965540 0.000000 
#    z 0.075840 0.000000 1.902760 
# 
# From -- ./inp_files/133073.got.cif
#   From: 2010.05.17/outbox.cif.g08.bks.cpg/sg15_67_cif.got.tgz:133073.got - 2010.06.03 18:47:42.
