data_PCOD9264228
_publ_section_title
;
Structure prediction by ZEFSAII (Michael W. Deem and Ramdas Pophale) SiO2 
 PCOD9264228
Probable space group: C 2/C
;
_chemical_formula_sum "Si O2"
_cell_formula_units_Z 56
_cell_length_a 13.279769
_cell_length_b 6.999848
_cell_length_c 24.823853
_cell_angle_alpha 90.000000
_cell_angle_beta 109.935143
_cell_angle_gamma 90.000000
_cell_volume 2169.265718
_symmetry_space_group_name_H-M "C 2/C"
_symmetry_group_IT_number 15
_symmetry_cell_setting 'monoclinic'
loop_
_space_group_symop_operation_xyz
x,y,z
-x,y,1/2-z
-x,-y,-z
x,-y,1/2+z
1/2+x,1/2+y,z
1/2-x,1/2+y,1/2-z
1/2-x,1/2-y,-z
1/2+x,1/2-y,1/2+z
loop_
_atom_site_type_symbol
_atom_site_label
_atom_site_fract_x
_atom_site_fract_y
_atom_site_fract_z
Si Si1 0.802683 0.418179 0.386418
Si Si2 0.945349 0.433659 0.826320
Si Si3 0.161018 0.443615 0.384892
Si Si4 0.588117 0.551465 0.407524
Si Si5 0.340571 0.352124 0.979871
Si Si6 0.430773 0.615062 0.289913
Si Si7 0.791362 0.400100 0.711115
O O1 0.870202 0.568934 0.364763
O O2 0.699505 0.495715 0.398482
O O3 0.876572 0.305641 0.443210
O O4 0.755354 0.260688 0.336828
O O5 0.892012 0.336387 0.764984
O O6 0.067622 0.394696 0.864613
O O7 0.941632 0.657056 0.804864
O O8 0.271330 0.496930 0.433056
O O9 0.182728 0.423128 0.324556
O O10 0.106067 0.279489 0.410008
O O11 0.581187 0.453816 0.464167
O O12 0.486623 0.514242 0.351227
O O13 0.250000 0.250000 0.000000
O O14 0.500000 0.575906 0.250000
O O15 0.306414 0.561058 0.266247
#
# Coordination Sequence:
#
# PCOD9264228 Si02
#       7
#     8   8   8   8   8   8   8
#     4   9  20  37  56  82 114 146 185 236 285 333
#     4  10  19  35  57  81 112 148 186 231 280 339
#     4  10  20  36  59  85 110 150 194 231 282 338
#     4  10  19  37  60  82 111 148 188 235 284 336
#     4   9  19  38  57  80 116 149 189 240 284 332
#     4  10  20  35  56  83 111 144 185 232 282 336
#     4  10  20  36  56  81 114 147 180 229 285 340
#
# _framework density 25.815187000000002
#
# number of rings (size 3 to 8) (size 9 to 14) (size 15 to 20)
#    0.000    2.286    0.000    3.429    0.000    1.143 
#    0.000   37.143    0.000    0.000    0.000    0.000 
#    0.000    0.000    0.000    0.000    0.000    0.000 
#
# Total GULP energy -156592.822944 kJ/mol
# GULP energy per Si atom -5592.600819 kJ/mol
# Density = 2.575643 g / cm^3
# Si number density = 25.815187 Si / 1000 Ang^3
#
#
#
# Elastic Constant Matrix: (Units=GPa)
#
#
# Indices 1 2 3 4 5 6 
#
# 1 110.3625 -9.2884 15.7956 0.0000 -9.2012 0.0000
# 2 -9.2884 32.0583 -11.8799 0.0000 -4.7147 0.0000
# 3 15.7956 -11.8799 112.6147 0.0000 5.4549 0.0000
# 4 0.0000 0.0000 0.0000 22.8569 0.0000 -3.9485
# 5 -9.2012 -4.7147 5.4549 0.0000 40.1788 0.0000
# 6 0.0000 0.0000 0.0000 -3.9485 0.0000 27.9193
#
#
#
# Elastic Compliance Matrix: (Units=1/GPa)
#
#
# Indices 1 2 3 4 5 6 
#
# 1 0.009691 0.002761 -0.001199 0.000000 0.002706 0.000000
# 2 0.002761 0.033708 0.002966 0.000000 0.004185 0.000000
# 3 -0.001199 0.002966 0.009419 0.000000 -0.001205 0.000000
# 4 0.000000 0.000000 0.000000 0.044846 0.000000 0.006342
# 5 0.002706 0.004185 -0.001205 0.000000 0.026163 0.000000
# 6 0.000000 0.000000 0.000000 0.006342 0.000000 0.036715
#
#
# Mechanical properties :
#
#
# Convention : Reuss Voigt Hill
#
# Bulk Modulus (GPa) = 16.16186 27.14338 21.65262
# Shear Modulus (GPa) = 29.05120 35.55153 32.30137
#
# Velocity S-wave (km/s) = 3.35827 3.71503 3.54115
# Velocity P-wave (km/s) = 4.61644 5.37952 5.01252
#
# Compressibility (1/GPa) = 0.06187405
#
# Stress axis : x y z
#
# Youngs Moduli (GPa) = 103.19210 29.66676 106.16539
#
# Poissons Ratio (x) = -0.08192 0.12729
# Poissons Ratio (y) = -0.28495 -0.31487
# Poissons Ratio (z) = 0.12373 -0.08799
#
# Static dielectric constant tensor:
#      x y z
#    x 2.040470 0.000000 -0.007020 
#    y 0.000000 2.190110 0.000000 
#    z -0.007020 0.000000 2.048470 
# 
# From -- ./inp_files/272631.got.cif
#   From: 2010.05.17/outbox.cif.g08.bks.cpg/sg15_137_cif.got.tgz:272631.got - 2010.06.03 18:47:42.
