data_PCOD9264483
_publ_section_title
;
Structure prediction by ZEFSAII (Michael W. Deem and Ramdas Pophale) SiO2 
 PCOD9264483
Probable space group: C 2/C
;
_chemical_formula_sum "Si O2"
_cell_formula_units_Z 48
_cell_length_a 23.399331
_cell_length_b 12.890016
_cell_length_c 10.234252
_cell_angle_alpha 90.000000
_cell_angle_beta 123.705248
_cell_angle_gamma 90.000000
_cell_volume 2567.945780
_symmetry_space_group_name_H-M "C 2/C"
_symmetry_group_IT_number 15
_symmetry_cell_setting 'monoclinic'
loop_
_space_group_symop_operation_xyz
x,y,z
-x,y,1/2-z
-x,-y,-z
x,-y,1/2+z
1/2+x,1/2+y,z
1/2-x,1/2+y,1/2-z
1/2-x,1/2-y,-z
1/2+x,1/2-y,1/2+z
loop_
_atom_site_type_symbol
_atom_site_label
_atom_site_fract_x
_atom_site_fract_y
_atom_site_fract_z
Si Si1 0.491421 0.370134 0.595327
Si Si2 0.381009 0.530541 0.354210
Si Si3 0.956445 0.360132 0.004817
Si Si4 0.190596 0.091660 0.963775
Si Si5 0.157112 0.670779 0.362401
Si Si6 0.441048 0.078125 0.074370
O O1 0.500000 0.417856 0.750000
O O2 0.433507 0.435395 0.447713
O O3 0.565395 0.379368 0.619734
O O4 0.465721 0.253009 0.574681
O O5 0.341361 0.560245 0.436534
O O6 0.332159 0.492772 0.174017
O O7 0.897531 0.354720 0.819800
O O8 0.028682 0.391255 0.027510
O O9 0.936411 0.453861 0.073768
O O10 0.164541 0.205304 0.884088
O O11 0.272052 0.111629 0.076704
O O12 0.127687 0.630549 0.463294
O O13 0.500000 0.113166 0.250000
#
# Coordination Sequence:
#
# PCOD9264483 Si02
#       6
#     8   8   8   8   8   8
#     4  11  21  36  61  90 122 154 197 260 305 352
#     4  11  23  39  61  91 120 161 200 248 307 363
#     4  10  19  35  59  86 119 152 203 253 299 352
#     4  11  23  41  61  89 124 161 206 243 304 371
#     4  10  22  38  61  83 119 165 201 247 297 366
#     4   9  19  35  56  86 111 156 202 247 299 350
#
# _framework density 18.691983
#
# number of rings (size 3 to 8) (size 9 to 14) (size 15 to 20)
#    0.000    1.667    3.333    1.500    2.333    0.000 
#    0.000    0.000    0.000    6.000    0.000    0.000 
#    0.000    0.000    0.000    0.000    0.000    0.000 
#
# Total GULP energy -133823.246254 kJ/mol
# GULP energy per Si atom -5575.968594 kJ/mol
# Density = 1.864944 g / cm^3
# Si number density = 18.691983 Si / 1000 Ang^3
#
#
#
# Elastic Constant Matrix: (Units=GPa)
#
#
# Indices 1 2 3 4 5 6 
#
# 1 110.0772 1.0094 39.4286 0.0000 11.9213 0.0000
# 2 1.0094 30.7261 0.9762 0.0000 19.2753 0.0000
# 3 39.4286 0.9762 75.0892 0.0000 3.5612 0.0000
# 4 0.0000 0.0000 0.0000 16.6205 0.0000 -9.2707
# 5 11.9213 19.2753 3.5612 0.0000 23.0885 0.0000
# 6 0.0000 0.0000 0.0000 -9.2707 0.0000 21.2372
#
#
#
# Elastic Compliance Matrix: (Units=1/GPa)
#
#
# Indices 1 2 3 4 5 6 
#
# 1 0.012400 0.006749 -0.006072 0.000000 -0.011100 0.000000
# 2 0.006749 0.072257 -0.001468 0.000000 -0.063581 0.000000
# 3 -0.006072 -0.001468 0.016439 0.000000 0.001825 0.000000
# 4 0.000000 0.000000 0.000000 0.079532 0.000000 0.034718
# 5 -0.011100 -0.063581 0.001825 0.000000 0.101842 0.000000
# 6 0.000000 0.000000 0.000000 0.034718 0.000000 0.062242
#
#
# Mechanical properties :
#
#
# Convention : Reuss Voigt Hill
#
# Bulk Modulus (GPa) = 10.04896 33.19121 21.62009
# Shear Modulus (GPa) = 13.17646 23.82113 18.49879
#
# Velocity S-wave (km/s) = 2.65792 3.57375 3.14931
# Velocity P-wave (km/s) = 3.84801 5.90122 4.98154
#
# Compressibility (1/GPa) = 0.09951275
#
# Stress axis : x y z
#
# Youngs Moduli (GPa) = 80.64604 13.83957 60.83263
#
# Poissons Ratio (x) = -0.09340 0.36940
# Poissons Ratio (y) = -0.54428 0.08929
# Poissons Ratio (z) = 0.48971 0.02031
#
# Static dielectric constant tensor:
#      x y z
#    x 1.668030 0.000000 -0.015790 
#    y 0.000000 1.652380 0.000000 
#    z -0.015790 0.000000 1.651250 
# 
# From -- ./inp_files/104150.got.cif
#   From: 2010.05.17/outbox.cif.g08.bks.cpg/sg15_53_cif.got.tgz:104150.got - 2010.06.03 18:47:42.
