data_PCOD9264883
_publ_section_title
;
Structure prediction by ZEFSAII (Michael W. Deem and Ramdas Pophale) SiO2 
 PCOD9264883
Probable space group: C 2/C
;
_chemical_formula_sum "Si O2"
_cell_formula_units_Z 40
_cell_length_a 16.193078
_cell_length_b 9.254074
_cell_length_c 26.972300
_cell_angle_alpha 90.000000
_cell_angle_beta 157.411870
_cell_angle_gamma 90.000000
_cell_volume 1552.491555
_symmetry_space_group_name_H-M "C 2/C"
_symmetry_group_IT_number 15
_symmetry_cell_setting 'monoclinic'
loop_
_space_group_symop_operation_xyz
x,y,z
-x,y,1/2-z
-x,-y,-z
x,-y,1/2+z
1/2+x,1/2+y,z
1/2-x,1/2+y,1/2-z
1/2-x,1/2-y,-z
1/2+x,1/2-y,1/2+z
loop_
_atom_site_type_symbol
_atom_site_label
_atom_site_fract_x
_atom_site_fract_y
_atom_site_fract_z
Si Si1 0.269289 0.906109 0.485878
Si Si2 0.689312 0.374809 0.025123
Si Si3 0.354444 0.117695 0.821104
Si Si4 0.257123 0.479328 0.141166
Si Si5 0.303749 0.811913 0.190033
O O1 0.250000 0.750000 0.500000
O O2 0.186631 0.922500 0.382786
O O3 0.154578 0.013615 0.461539
O O4 0.516550 0.967416 0.617513
O O5 0.667240 0.392638 0.072198
O O6 0.947868 0.357829 0.168304
O O7 0.545167 0.235620 0.933027
O O8 0.217815 0.116821 0.795718
O O9 0.217891 0.157935 0.697166
O O10 0.323337 0.643747 0.187644
O O11 0.000000 0.500000 0.000000
#
# Coordination Sequence:
#
# PCOD9264883 Si02
#       5
#     8   8   8   8   8
#     4  10  20  37  62  91 126 162 205 270 323 362
#     4  10  20  37  69  90 117 174 221 247 308 399
#     4  10  21  41  67  90 123 170 214 261 312 389
#     4  10  20  39  64  90 129 164 206 270 317 369
#     4  10  19  35  68  91 120 169 221 247 310 393
#
# _framework density 25.765037
#
# number of rings (size 3 to 8) (size 9 to 14) (size 15 to 20)
#    0.000    2.000    4.000    2.400    2.800    0.000 
#    3.600    9.000   26.400    0.000    0.000    0.000 
#    0.000    0.000    0.000    0.000    0.000    0.000 
#
# Total GULP energy -111768.346844 kJ/mol
# GULP energy per Si atom -5588.417342 kJ/mol
# Density = 2.570639 g / cm^3
# Si number density = 25.765037 Si / 1000 Ang^3
#
#
#
# Elastic Constant Matrix: (Units=GPa)
#
#
# Indices 1 2 3 4 5 6 
#
# 1 275.6221 111.8463 67.5855 0.0006 -72.4319 -0.0002
# 2 111.8463 138.1295 30.1660 0.0010 -21.9293 0.0002
# 3 67.5855 30.1660 73.8131 0.0061 -53.0597 0.0000
# 4 0.0006 0.0010 0.0061 32.5951 0.0005 -4.6208
# 5 -72.4319 -21.9293 -53.0597 0.0005 72.1731 -0.0004
# 6 -0.0002 0.0002 0.0000 -4.6208 -0.0004 47.2250
#
#
#
# Elastic Compliance Matrix: (Units=1/GPa)
#
#
# Indices 1 2 3 4 5 6 
#
# 1 0.007099 -0.004743 -0.001010 0.000000 0.004941 0.000000
# 2 -0.004743 0.011118 -0.002533 0.000000 -0.003244 0.000000
# 3 -0.001010 -0.002533 0.030169 -0.000006 0.020397 0.000000
# 4 0.000000 0.000000 -0.000006 0.031111 -0.000004 0.003044
# 5 0.004941 -0.003244 0.020397 -0.000004 0.032823 0.000000
# 6 0.000000 0.000000 0.000000 0.003044 0.000000 0.021473
#
#
# Mechanical properties :
#
#
# Convention : Reuss Voigt Hill
#
# Bulk Modulus (GPa) = 31.43180 100.75113 66.09147
# Shear Modulus (GPa) = 31.06144 48.92976 39.99560
#
# Velocity S-wave (km/s) = 3.47589 4.36257 3.94422
# Velocity P-wave (km/s) = 5.32306 8.03522 6.81541
#
# Compressibility (1/GPa) = 0.03181491
#
# Stress axis : x y z
#
# Youngs Moduli (GPa) = 140.86473 89.94100 33.14612
#
# Poissons Ratio (x) = 0.42661 0.03348
# Poissons Ratio (y) = 0.66816 0.08395
# Poissons Ratio (z) = 0.14227 0.22780
#
# Static dielectric constant tensor:
#      x y z
#    x 2.255910 0.000000 -0.006540 
#    y 0.000000 1.994240 0.000000 
#    z -0.006540 0.000000 2.157400 
# 
# From -- ./inp_files/315405.got.cif
#   From: 2010.05.17/outbox.cif.g08.bks.cpg/sg15_158_cif.got.tgz:315405.got - 2010.06.03 18:47:42.
