data_PCOD9264137
_publ_section_title
;
Structure prediction by ZEFSAII (Michael W. Deem and Ramdas Pophale) SiO2 
 PCOD9264137
Probable space group: C 2/C
;
_chemical_formula_sum "Si O2"
_cell_formula_units_Z 60
_cell_length_a 23.652675
_cell_length_b 24.604954
_cell_length_c 9.625706
_cell_angle_alpha 90.000000
_cell_angle_beta 143.019865
_cell_angle_gamma 90.000000
_cell_volume 3369.756726
_symmetry_space_group_name_H-M "C 2/C"
_symmetry_group_IT_number 15
_symmetry_cell_setting 'monoclinic'
loop_
_space_group_symop_operation_xyz
x,y,z
-x,y,1/2-z
-x,-y,-z
x,-y,1/2+z
1/2+x,1/2+y,z
1/2-x,1/2+y,1/2-z
1/2-x,1/2-y,-z
1/2+x,1/2-y,1/2+z
loop_
_atom_site_type_symbol
_atom_site_label
_atom_site_fract_x
_atom_site_fract_y
_atom_site_fract_z
Si Si1 0.000000 0.685954 0.750000
Si Si2 0.825087 0.043589 0.489319
Si Si3 0.499050 0.746651 0.972018
Si Si4 0.300423 0.139449 0.281797
Si Si5 0.095391 0.967127 0.654014
Si Si6 0.304755 0.203277 0.023392
Si Si7 0.521435 0.370528 0.129207
Si Si8 0.205333 0.239761 0.261769
O O1 0.021179 0.724521 0.660583
O O2 0.907567 0.651135 0.534931
O O3 0.734456 0.078065 0.266779
O O4 0.877422 0.025163 0.452418
O O5 0.889842 0.089444 0.690763
O O6 0.824807 0.992157 0.590823
O O7 0.415230 0.781602 0.741460
O O8 0.460379 0.685510 0.911725
O O9 0.593790 0.739864 0.070178
O O10 0.292048 0.152466 0.100158
O O11 0.239596 0.183847 0.252648
O O12 0.065556 0.904050 0.606756
O O13 0.000000 0.000000 0.500000
O O14 0.250000 0.250000 0.000000
O O15 0.271429 0.211209 0.800175
O O16 0.500000 0.359805 0.250000
O O17 0.250000 0.250000 0.500000
#
# Coordination Sequence:
#
# PCOD9264137 Si02
#       8
#     4   8   8   8   8   8   8   8
#     4  10  22  36  50  80 114 154 192 246 258 328
#     4  10  19  35  56  77 106 146 180 229 287 342
#     4  11  19  33  51  77 114 156 191 219 282 326
#     4  10  20  37  54  74 112 153 192 228 295 336
#     4   9  18  33  54  80 109 135 177 229 279 343
#     4   9  19  32  51  73 108 152 191 227 264 342
#     4   9  16  29  50  76 106 142 176 208 279 345
#     4  11  19  31  51  79 110 146 192 237 274 327
#
# _framework density 17.805439
#
# number of rings (size 3 to 8) (size 9 to 14) (size 15 to 20)
#    0.000    2.133    1.333    5.600    0.000    0.000 
#    4.800    1.333    0.000    0.800    0.000    0.000 
#    0.000    0.000    0.000    0.000    0.000    0.000 
#
# Total GULP energy -167076.970721 kJ/mol
# GULP energy per Si atom -5569.232357 kJ/mol
# Density = 1.776491 g / cm^3
# Si number density = 17.805439 Si / 1000 Ang^3
#
#
#
# Elastic Constant Matrix: (Units=GPa)
#
#
# Indices 1 2 3 4 5 6 
#
# 1 85.4507 24.6055 44.9325 0.0000 0.2881 0.0000
# 2 24.6055 63.8096 31.4686 0.0000 -9.1216 0.0000
# 3 44.9325 31.4686 71.2072 0.0000 -13.0028 0.0000
# 4 0.0000 0.0000 0.0000 30.0359 0.0000 7.1555
# 5 0.2881 -9.1216 -13.0028 0.0000 34.5702 0.0000
# 6 0.0000 0.0000 0.0000 7.1555 0.0000 19.1284
#
#
#
# Elastic Compliance Matrix: (Units=1/GPa)
#
#
# Indices 1 2 3 4 5 6 
#
# 1 0.018445 -0.002099 -0.011640 0.000000 -0.005086 0.000000
# 2 -0.002099 0.020421 -0.007208 0.000000 0.002695 0.000000
# 3 -0.011640 -0.007208 0.026032 0.000000 0.007987 0.000000
# 4 0.000000 0.000000 0.000000 0.036551 0.000000 -0.013673
# 5 -0.005086 0.002695 0.007987 0.000000 0.032684 0.000000
# 6 0.000000 0.000000 0.000000 -0.013673 0.000000 0.057393
#
#
# Mechanical properties :
#
#
# Convention : Reuss Voigt Hill
#
# Bulk Modulus (GPa) = 43.47070 46.94227 45.20649
# Shear Modulus (GPa) = 20.73935 24.71097 22.72516
#
# Velocity S-wave (km/s) = 3.41658 3.72940 3.57642
# Velocity P-wave (km/s) = 6.32703 6.70566 6.51909
#
# Compressibility (1/GPa) = 0.02300400
#
# Stress axis : x y z
#
# Youngs Moduli (GPa) = 54.21580 48.96927 38.41397
#
# Poissons Ratio (x) = 0.10279 0.44713
# Poissons Ratio (y) = 0.11380 0.27689
# Poissons Ratio (z) = 0.63106 0.35297
#
# Static dielectric constant tensor:
#      x y z
#    x 1.639030 0.000000 0.013550 
#    y 0.000000 1.630650 0.000000 
#    z 0.013550 0.000000 1.676060 
# 
# From -- ./inp_files/64047.got.cif
#   From: 2010.05.17/outbox.cif.g08.bks.cpg/sg15_33_cif.got.tgz:64047.got - 2010.06.03 18:47:42.
