data_PCOD9264977
_publ_section_title
;
Structure prediction by ZEFSAII (Michael W. Deem and Ramdas Pophale) SiO2 
 PCOD9264977
Probable space group: C 2/C
;
_chemical_formula_sum "Si O2"
_cell_formula_units_Z 48
_cell_length_a 14.741947
_cell_length_b 26.460913
_cell_length_c 14.301335
_cell_angle_alpha 90.000000
_cell_angle_beta 150.368562
_cell_angle_gamma 90.000000
_cell_volume 2758.235207
_symmetry_space_group_name_H-M "C 2/C"
_symmetry_group_IT_number 15
_symmetry_cell_setting 'monoclinic'
loop_
_space_group_symop_operation_xyz
x,y,z
-x,y,1/2-z
-x,-y,-z
x,-y,1/2+z
1/2+x,1/2+y,z
1/2-x,1/2+y,1/2-z
1/2-x,1/2-y,-z
1/2+x,1/2-y,1/2+z
loop_
_atom_site_type_symbol
_atom_site_label
_atom_site_fract_x
_atom_site_fract_y
_atom_site_fract_z
Si Si1 0.526983 0.477034 0.883864
Si Si2 0.357347 0.376397 0.401423
Si Si3 0.509888 0.185582 0.649588
Si Si4 0.699542 0.047863 0.644722
Si Si5 0.082458 0.500125 0.226989
Si Si6 0.593859 0.304117 0.731575
O O1 0.500000 0.470047 0.750000
O O2 0.343984 0.502140 0.760395
O O3 0.579613 0.423964 0.978213
O O4 0.705429 0.512069 0.062025
O O5 0.323996 0.402588 0.270883
O O6 0.496800 0.333220 0.559716
O O7 0.160594 0.351483 0.244378
O O8 0.500000 0.174137 0.750000
O O9 0.573307 0.243993 0.699213
O O10 0.306165 0.181169 0.427069
O O11 0.551918 0.044306 0.429663
O O12 0.591706 0.037445 0.645900
O O13 0.000000 0.478858 0.250000
O O14 0.500000 0.315280 0.750000
#
# Coordination Sequence:
#
# PCOD9264977 Si02
#       6
#     8   8   8   8   8   8
#     4  11  22  37  56  78 112 153 189 229 280 325
#     4  11  22  32  51  82 106 144 188 224 268 330
#     4  11  20  33  52  73 109 148 187 228 267 333
#     4  10  23  38  53  82 114 142 193 238 269 333
#     4  10  19  36  56  74 107 150 178 225 282 318
#     4  11  19  35  51  73 109 149 186 224 275 326
#
# _framework density 17.402432000000001
#
# number of rings (size 3 to 8) (size 9 to 14) (size 15 to 20)
#    0.000    1.333    5.000    3.500    0.000    8.000 
#    0.000    0.000    0.000    0.000    0.000    0.000 
#    0.000    4.000    0.000    0.000    0.000    0.000 
#
# Total GULP energy -133665.413601 kJ/mol
# GULP energy per Si atom -5569.392233 kJ/mol
# Density = 1.736282 g / cm^3
# Si number density = 17.402432 Si / 1000 Ang^3
#
#
#
# Elastic Constant Matrix: (Units=GPa)
#
#
# Indices 1 2 3 4 5 6 
#
# 1 41.4060 3.5448 3.6561 0.0000 8.8570 0.0000
# 2 3.5448 42.9964 12.7258 0.0000 8.0146 0.0000
# 3 3.6561 12.7258 117.6189 0.0000 16.6158 0.0000
# 4 0.0000 0.0000 0.0000 72.6301 0.0000 14.3856
# 5 8.8570 8.0146 16.6158 0.0000 25.1161 0.0000
# 6 0.0000 0.0000 0.0000 14.3856 0.0000 16.6158
#
#
#
# Elastic Compliance Matrix: (Units=1/GPa)
#
#
# Indices 1 2 3 4 5 6 
#
# 1 0.026166 -0.000571 0.000580 0.000000 -0.009429 0.000000
# 2 -0.000571 0.025061 -0.001757 0.000000 -0.006633 0.000000
# 3 0.000580 -0.001757 0.009513 0.000000 -0.005937 0.000000
# 4 0.000000 0.000000 0.000000 0.016618 0.000000 -0.014387
# 5 -0.009429 -0.006633 -0.005937 0.000000 0.049185 0.000000
# 6 0.000000 0.000000 0.000000 -0.014387 0.000000 0.072640
#
#
# Mechanical properties :
#
#
# Convention : Reuss Voigt Hill
#
# Bulk Modulus (GPa) = 17.46897 26.87498 22.17198
# Shear Modulus (GPa) = 22.54697 35.01204 28.77951
#
# Velocity S-wave (km/s) = 3.60338 4.49029 4.07106
# Velocity P-wave (km/s) = 5.23187 6.50849 5.90478
#
# Compressibility (1/GPa) = 0.05724435
#
# Stress axis : x y z
#
# Youngs Moduli (GPa) = 38.21810 39.90220 105.12130
#
# Poissons Ratio (x) = 0.02280 -0.06102
# Poissons Ratio (y) = 0.02184 0.18466
# Poissons Ratio (z) = -0.02218 0.07009
#
# Static dielectric constant tensor:
#      x y z
#    x 1.609280 0.000000 0.010860 
#    y 0.000000 1.613630 0.000000 
#    z 0.010860 0.000000 1.655750 
# 
# From -- ./inp_files/157109.got.cif
#   From: 2010.05.17/outbox.cif.g08.bks.cpg/sg15_79_cif.got.tgz:157109.got - 2010.06.03 18:47:42.
