data_PCOD9264361
_publ_section_title
;
Structure prediction by ZEFSAII (Michael W. Deem and Ramdas Pophale) SiO2 
 PCOD9264361
Probable space group: C 2/C
;
_chemical_formula_sum "Si O2"
_cell_formula_units_Z 64
_cell_length_a 15.574779
_cell_length_b 11.031041
_cell_length_c 19.300936
_cell_angle_alpha 90.000000
_cell_angle_beta 128.678903
_cell_angle_gamma 90.000000
_cell_volume 2588.683826
_symmetry_space_group_name_H-M "C 2/C"
_symmetry_group_IT_number 15
_symmetry_cell_setting 'monoclinic'
loop_
_space_group_symop_operation_xyz
x,y,z
-x,y,1/2-z
-x,-y,-z
x,-y,1/2+z
1/2+x,1/2+y,z
1/2-x,1/2+y,1/2-z
1/2-x,1/2-y,-z
1/2+x,1/2-y,1/2+z
loop_
_atom_site_type_symbol
_atom_site_label
_atom_site_fract_x
_atom_site_fract_y
_atom_site_fract_z
Si Si1 0.464700 0.987075 0.402900
Si Si2 0.546182 0.254061 0.125081
Si Si3 0.857707 0.997176 0.138216
Si Si4 0.165377 0.260493 0.893915
Si Si5 0.952740 0.781781 0.928990
Si Si6 0.386873 0.014450 0.654013
Si Si7 0.200950 0.142903 0.518302
Si Si8 0.606206 0.487649 0.699962
O O1 0.405487 0.116952 0.357303
O O2 0.500000 0.000000 0.500000
O O3 0.419632 0.848649 0.379668
O O4 0.568675 0.985199 0.403008
O O5 0.460848 0.244414 0.144863
O O6 0.617409 0.375636 0.174237
O O7 0.462428 0.275142 0.017121
O O8 0.822317 0.862069 0.141364
O O9 0.833321 0.060157 0.199418
O O10 0.982595 0.008401 0.172130
O O11 0.799323 0.034354 0.037801
O O12 0.169819 0.386710 0.857530
O O13 0.250000 0.250000 0.000000
O O14 0.080611 0.816937 0.978831
O O15 0.889048 0.890918 0.859572
O O16 0.500000 0.036221 0.750000
O O17 0.292083 0.110903 0.620502
O O18 0.250000 0.250000 0.500000
#
# Coordination Sequence:
#
# PCOD9264361 Si02
#       8
#     8   8   8   8   8   8   8   8
#     4   9  19  36  57  82 115 157 197 234 298 367
#     4   9  19  33  58  86 114 159 196 241 299 363
#     4   9  19  33  54  82 113 149 191 244 303 351
#     4  10  19  35  59  85 116 151 198 246 301 356
#     4  10  19  35  58  84 118 156 199 240 304 365
#     4  11  23  36  60  91 115 157 207 258 306 365
#     4  11  21  37  57  82 116 154 199 251 302 360
#     4   9  18  32  56  83 113 147 194 245 294 356
#
# _framework density 24.722988999999998
#
# number of rings (size 3 to 8) (size 9 to 14) (size 15 to 20)
#    0.000    2.250    2.500    0.375    5.250    1.000 
#    0.000    0.000    2.750    1.500    0.000    0.000 
#    0.000    0.000    0.000    0.000    0.000    0.000 
#
# Total GULP energy -178205.742283 kJ/mol
# GULP energy per Si atom -5568.929446 kJ/mol
# Density = 2.466672 g / cm^3
# Si number density = 24.722989 Si / 1000 Ang^3
#
#
#
# Elastic Constant Matrix: (Units=GPa)
#
#
# Indices 1 2 3 4 5 6 
#
# 1 71.3469 9.6630 20.7496 0.0000 -5.4773 0.0000
# 2 9.6630 150.4302 9.5669 0.0000 -2.2528 0.0000
# 3 20.7496 9.5669 64.7848 0.0000 -5.3716 0.0000
# 4 0.0000 0.0000 0.0000 -1.9042 0.0000 -8.0696
# 5 -5.4773 -2.2528 -5.3716 0.0000 28.5456 0.0000
# 6 0.0000 0.0000 0.0000 -8.0696 0.0000 8.1887
#
#
#
# Elastic Compliance Matrix: (Units=1/GPa)
#
#
# Indices 1 2 3 4 5 6 
#
# 1 0.015644 -0.000673 -0.004741 0.000000 0.002057 0.000000
# 2 -0.000673 0.006743 -0.000759 0.000000 0.000260 0.000000
# 3 -0.004741 -0.000759 0.017255 0.000000 0.002277 0.000000
# 4 0.000000 0.000000 0.000000 -0.101457 0.000000 -0.099981
# 5 0.002057 0.000260 0.002277 0.000000 0.035875 0.000000
# 6 0.000000 0.000000 0.000000 -0.099981 0.000000 0.023593
#
#
# Mechanical properties :
#
#
# Convention : Reuss Voigt Hill
#
# Bulk Modulus (GPa) = 36.63309 40.72454 38.67882
# Shear Modulus (GPa) = 261.83721 23.40485 142.62103
#
# Velocity S-wave (km/s) = 10.30235 3.08016 7.60348
# Velocity P-wave (km/s) = 12.50469 5.39981 9.63134
#
# Compressibility (1/GPa) = 0.02729772
#
# Stress axis : x y z
#
# Youngs Moduli (GPa) = 63.92353 148.30287 57.95442
#
# Poissons Ratio (x) = 0.09975 0.27474
# Poissons Ratio (y) = 0.04300 0.04397
# Poissons Ratio (z) = 0.30304 0.11252
#
# Static dielectric constant tensor:
#      x y z
#    x 1.916250 0.000000 0.003710 
#    y 0.000000 2.773880 0.000000 
#    z 0.003710 0.000000 2.137490 
# 
# From -- ./inp_files/248637.got.cif
#   From: 2010.05.17/outbox.cif.g08.bks.cpg/sg15_125_cif.got.tgz:248637.got - 2010.06.03 18:47:42.
