data_PCOD9264945
_publ_section_title
;
Structure prediction by ZEFSAII (Michael W. Deem and Ramdas Pophale) SiO2 
 PCOD9264945
Probable space group: C 2/C
;
_chemical_formula_sum "Si O2"
_cell_formula_units_Z 60
_cell_length_a 8.820537
_cell_length_b 10.935929
_cell_length_c 31.528955
_cell_angle_alpha 90.000000
_cell_angle_beta 103.949919
_cell_angle_gamma 90.000000
_cell_volume 2951.609325
_symmetry_space_group_name_H-M "C 2/C"
_symmetry_group_IT_number 15
_symmetry_cell_setting 'monoclinic'
loop_
_space_group_symop_operation_xyz
x,y,z
-x,y,1/2-z
-x,-y,-z
x,-y,1/2+z
1/2+x,1/2+y,z
1/2-x,1/2+y,1/2-z
1/2-x,1/2-y,-z
1/2+x,1/2-y,1/2+z
loop_
_atom_site_type_symbol
_atom_site_label
_atom_site_fract_x
_atom_site_fract_y
_atom_site_fract_z
Si Si1 0.073460 0.876046 0.057447
Si Si2 0.717904 0.852375 0.677523
Si Si3 0.455213 0.096842 0.808837
Si Si4 0.564319 0.134285 0.907757
Si Si5 0.098544 0.384777 0.577022
Si Si6 0.235240 0.880758 0.223068
Si Si7 0.607076 0.618404 0.458246
Si Si8 0.000000 0.932187 0.750000
O O1 0.250265 0.882813 0.086318
O O2 0.006045 0.743678 0.066559
O O3 0.089584 0.877294 0.007527
O O4 0.977777 0.995761 0.063720
O O5 0.705688 0.867206 0.626347
O O6 0.652171 0.725570 0.691010
O O7 0.619496 0.963955 0.689286
O O8 0.890940 0.860198 0.709374
O O9 0.484955 0.152599 0.856798
O O10 0.619661 0.077944 0.796277
O O11 0.326976 0.165849 0.771466
O O12 0.542989 0.255154 0.934544
O O13 0.497907 0.008851 0.923480
O O14 0.213420 0.390809 0.544602
O O15 0.115035 0.982674 0.230025
#
# Coordination Sequence:
#
# PCOD9264945 Si02
#       8
#     8   8   8   8   8   8   8   4
#     4  10  22  38  56  84 113 143 182 226 277 331
#     4  10  21  36  54  80 109 141 181 226 270 318
#     4   9  20  36  54  79 109 140 182 225 269 320
#     4  10  20  38  59  82 110 147 184 225 277 328
#     4  10  21  37  58  83 114 144 183 231 274 323
#     4  10  19  36  55  75 109 145 177 222 268 316
#     4  10  22  38  57  82 113 144 182 227 274 332
#     4  10  22  34  54  82 104 142 188 216 264 326
#
# _framework density 20.327891999999999
#
# number of rings (size 3 to 8) (size 9 to 14) (size 15 to 20)
#    0.000    2.133    0.000    4.000    0.000    7.467 
#    0.000   13.333    0.000    0.000    0.000    0.000 
#    0.000    0.000    0.000    0.000    0.000    0.000 
#
# Total GULP energy -167419.180640 kJ/mol
# GULP energy per Si atom -5580.639355 kJ/mol
# Density = 2.028162 g / cm^3
# Si number density = 20.327892 Si / 1000 Ang^3
#
#
#
# Elastic Constant Matrix: (Units=GPa)
#
#
# Indices 1 2 3 4 5 6 
#
# 1 31.4568 32.6850 0.0477 0.0000 0.6094 0.0000
# 2 32.6850 107.2318 3.9962 0.0000 0.6034 0.0000
# 3 0.0477 3.9962 34.4705 0.0000 1.8440 0.0000
# 4 0.0000 0.0000 0.0000 31.1816 0.0000 1.2012
# 5 0.6094 0.6034 1.8440 0.0000 16.6767 0.0000
# 6 0.0000 0.0000 0.0000 1.2012 0.0000 30.5581
#
#
#
# Elastic Compliance Matrix: (Units=1/GPa)
#
#
# Indices 1 2 3 4 5 6 
#
# 1 0.046642 -0.014271 0.001663 0.000000 -0.001372 0.000000
# 2 -0.014271 0.013733 -0.001583 0.000000 0.000200 0.000000
# 3 0.001663 -0.001583 0.029365 0.000000 -0.003250 0.000000
# 4 0.000000 0.000000 0.000000 0.032119 0.000000 -0.001263
# 5 -0.001372 0.000200 -0.003250 0.000000 0.060366 0.000000
# 6 0.000000 0.000000 0.000000 -0.001263 0.000000 0.032774
#
#
# Mechanical properties :
#
#
# Convention : Reuss Voigt Hill
#
# Bulk Modulus (GPa) = 16.29748 27.40189 21.84969
# Shear Modulus (GPa) = 18.95126 24.77862 21.86494
#
# Velocity S-wave (km/s) = 3.05664 3.49513 3.28321
# Velocity P-wave (km/s) = 4.52682 5.45867 5.01444
#
# Compressibility (1/GPa) = 0.06135917
#
# Stress axis : x y z
#
# Youngs Moduli (GPa) = 21.43994 72.81523 34.05362
#
# Poissons Ratio (x) = 1.03915 -0.05664
# Poissons Ratio (y) = 0.30597 0.05391
# Poissons Ratio (z) = -0.03566 0.11527
#
# Static dielectric constant tensor:
#      x y z
#    x 1.700440 0.000000 0.013170 
#    y 0.000000 1.749840 0.000000 
#    z 0.013170 0.000000 1.760710 
# 
# From -- ./inp_files/307209.got.cif
#   From: 2010.05.17/outbox.cif.g08.bks.cpg/sg15_154_cif.got.tgz:307209.got - 2010.06.03 18:47:42.
