data_PCOD9264966
_publ_section_title
;
Structure prediction by ZEFSAII (Michael W. Deem and Ramdas Pophale) SiO2 
 PCOD9264966
Probable space group: C 2/C
;
_chemical_formula_sum "Si O2"
_cell_formula_units_Z 64
_cell_length_a 20.657415
_cell_length_b 29.110026
_cell_length_c 14.090128
_cell_angle_alpha 90.000000
_cell_angle_beta 24.792685
_cell_angle_gamma 90.000000
_cell_volume 3553.005201
_symmetry_space_group_name_H-M "C 2/C"
_symmetry_group_IT_number 15
_symmetry_cell_setting 'monoclinic'
loop_
_space_group_symop_operation_xyz
x,y,z
-x,y,1/2-z
-x,-y,-z
x,-y,1/2+z
1/2+x,1/2+y,z
1/2-x,1/2+y,1/2-z
1/2-x,1/2-y,-z
1/2+x,1/2-y,1/2+z
loop_
_atom_site_type_symbol
_atom_site_label
_atom_site_fract_x
_atom_site_fract_y
_atom_site_fract_z
Si Si1 0.337456 0.474632 0.937600
Si Si2 0.551517 0.291384 0.289505
Si Si3 0.667584 0.562310 0.684348
Si Si4 0.638154 0.378026 0.911338
Si Si5 0.112887 0.405039 0.761180
Si Si6 0.160900 0.429080 0.999655
Si Si7 0.839478 0.479254 0.129686
Si Si8 0.094609 0.309838 0.720580
O O1 0.500000 0.452754 0.750000
O O2 0.374134 0.520894 0.830880
O O3 0.246052 0.446338 0.980590
O O4 0.238397 0.484928 0.163796
O O5 0.500000 0.285810 0.250000
O O6 0.422888 0.325794 0.501937
O O7 0.567456 0.239495 0.306983
O O8 0.724457 0.311866 0.050513
O O9 0.815569 0.584855 0.437392
O O10 0.718176 0.545310 0.720346
O O11 0.520144 0.594002 0.883033
O O12 0.741937 0.397442 0.860741
O O13 0.739405 0.391538 0.686721
O O14 0.044325 0.353780 0.848548
O O15 0.988446 0.445626 0.943857
O O16 0.000000 0.410431 0.250000
O O17 0.131019 0.472772 0.967032
O O18 0.000000 0.311459 0.750000
#
# Coordination Sequence:
#
# PCOD9264966 Si02
#       8
#     8   8   8   8   8   8   8   8
#     4  11  22  38  54  76 109 148 191 241 280 324
#     4  10  19  36  55  84 118 145 182 226 283 348
#     4  11  21  34  54  79 109 146 188 229 277 336
#     4  12  22  36  57  80 110 151 190 222 281 343
#     4  12  21  34  54  83 115 149 181 226 278 339
#     4  11  24  39  55  80 111 149 193 241 278 325
#     4  11  23  37  55  79 112 151 193 233 284 329
#     4  10  20  33  55  83 120 148 174 229 285 340
#
# _framework density 18.012920000000001
#
# number of rings (size 3 to 8) (size 9 to 14) (size 15 to 20)
#    0.000    1.000    2.500    6.750    0.000    3.500 
#    0.000    0.000    0.000    0.000    0.000    4.375 
#    0.000    0.000    0.000    0.250    0.000    0.000 
#
# Total GULP energy -178560.824228 kJ/mol
# GULP energy per Si atom -5580.025757 kJ/mol
# Density = 1.797192 g / cm^3
# Si number density = 18.012920 Si / 1000 Ang^3
#
#
#
# Elastic Constant Matrix: (Units=GPa)
#
#
# Indices 1 2 3 4 5 6 
#
# 1 89.9210 14.6964 27.2916 -0.0018 -4.2387 0.0129
# 2 14.6964 63.0045 36.2738 0.0045 -2.7103 0.0060
# 3 27.2916 36.2738 103.0225 -0.0020 -0.8901 0.0210
# 4 -0.0018 0.0045 -0.0020 39.2875 0.0036 -6.3783
# 5 -4.2387 -2.7103 -0.8901 0.0036 33.5644 -0.0079
# 6 0.0129 0.0060 0.0210 -6.3783 -0.0079 15.0909
#
#
#
# Elastic Compliance Matrix: (Units=1/GPa)
#
#
# Indices 1 2 3 4 5 6 
#
# 1 0.012232 -0.001173 -0.002815 0.000000 0.001375 -0.000006
# 2 -0.001173 0.020088 -0.006751 -0.000003 0.001295 0.000002
# 3 -0.002815 -0.006751 0.012825 -0.000001 -0.000561 -0.000013
# 4 0.000000 -0.000003 -0.000001 0.027329 0.000000 0.011551
# 5 0.001375 0.001295 -0.000561 0.000000 0.030057 0.000015
# 6 -0.000006 0.000002 -0.000013 0.011551 0.000015 0.071147
#
#
# Mechanical properties :
#
#
# Convention : Reuss Voigt Hill
#
# Bulk Modulus (GPa) = 42.25553 45.83018 44.04286
# Shear Modulus (GPa) = 24.62515 29.43431 27.02973
#
# Velocity S-wave (km/s) = 3.70142 4.04674 3.87793
# Velocity P-wave (km/s) = 6.46349 6.87990 6.67494
#
# Compressibility (1/GPa) = 0.02366554
#
# Stress axis : x y z
#
# Youngs Moduli (GPa) = 81.75328 49.78102 77.97532
#
# Poissons Ratio (x) = 0.05840 0.21953
# Poissons Ratio (y) = 0.09591 0.52641
# Poissons Ratio (z) = 0.23017 0.33607
#
# Static dielectric constant tensor:
#      x y z
#    x 1.655060 -0.000060 -0.036330 
#    y -0.000060 1.689740 0.000050 
#    z -0.036330 0.000050 1.620150 
# 
# From -- ./inp_files/108627.got.cif
#   From: 2010.05.17/outbox.cif.g08.bks.cpg/sg15_55_cif.got.tgz:108627.got - 2010.06.03 18:47:42.
