data_PCOD9264653
_publ_section_title
;
Structure prediction by ZEFSAII (Michael W. Deem and Ramdas Pophale) SiO2 
 PCOD9264653
Probable space group: C 2/C
;
_chemical_formula_sum "Si O2"
_cell_formula_units_Z 48
_cell_length_a 23.112560
_cell_length_b 12.206349
_cell_length_c 10.330094
_cell_angle_alpha 90.000000
_cell_angle_beta 123.994855
_cell_angle_gamma 90.000000
_cell_volume 2416.231956
_symmetry_space_group_name_H-M "C 2/C"
_symmetry_group_IT_number 15
_symmetry_cell_setting 'monoclinic'
loop_
_space_group_symop_operation_xyz
x,y,z
-x,y,1/2-z
-x,-y,-z
x,-y,1/2+z
1/2+x,1/2+y,z
1/2-x,1/2+y,1/2-z
1/2-x,1/2-y,-z
1/2+x,1/2-y,1/2+z
loop_
_atom_site_type_symbol
_atom_site_label
_atom_site_fract_x
_atom_site_fract_y
_atom_site_fract_z
Si Si1 0.406645 0.502095 0.602766
Si Si2 0.446554 0.380025 0.410719
Si Si3 0.745668 0.572460 0.065880
Si Si4 0.705253 0.712296 0.764242
Si Si5 0.797182 0.337111 0.136649
Si Si6 0.056753 0.225848 0.214094
O O1 0.445928 0.479522 0.516589
O O2 0.434518 0.587131 0.746000
O O3 0.328313 0.534431 0.468047
O O4 0.412115 0.387294 0.687153
O O5 0.374902 0.317259 0.363435
O O6 0.512144 0.304930 0.530811
O O7 0.786322 0.657341 0.207185
O O8 0.785822 0.462147 0.079035
O O9 0.724579 0.644382 0.916200
O O10 0.762572 0.672876 0.733993
O O11 0.877638 0.302596 0.229724
O O12 0.750000 0.250000 0.000000
O O13 0.000000 0.264821 0.250000
#
# Coordination Sequence:
#
# PCOD9264653 Si02
#       6
#     8   8   8   8   8   8
#     4  10  19  35  61  87 122 155 201 254 314 357
#     4  10  20  38  57  91 124 162 197 257 312 369
#     4  10  22  40  62  94 123 158 200 264 309 358
#     4  10  23  40  63  91 127 154 205 258 310 361
#     4  12  22  37  67  92 117 164 209 247 302 379
#     4  10  21  37  54  90 123 154 205 249 302 362
#
# _framework density 19.865642999999999
#
# number of rings (size 3 to 8) (size 9 to 14) (size 15 to 20)
#    0.000    1.667    3.333    1.500    4.667    0.000 
#    0.000    0.833    0.000    0.000    0.000    0.000 
#    0.000    0.000    0.000    0.000    0.000    0.000 
#
# Total GULP energy -133933.560514 kJ/mol
# GULP energy per Si atom -5580.565021 kJ/mol
# Density = 1.982043 g / cm^3
# Si number density = 19.865643 Si / 1000 Ang^3
#
#
#
# Elastic Constant Matrix: (Units=GPa)
#
#
# Indices 1 2 3 4 5 6 
#
# 1 95.1626 39.8220 29.0836 0.0000 25.7035 0.0000
# 2 39.8220 108.1469 42.7523 0.0000 21.1834 0.0000
# 3 29.0836 42.7523 87.8543 0.0000 24.9453 0.0000
# 4 0.0000 0.0000 0.0000 17.6512 0.0000 6.2148
# 5 25.7035 21.1834 24.9453 0.0000 36.3758 0.0000
# 6 0.0000 0.0000 0.0000 6.2148 0.0000 30.8226
#
#
#
# Elastic Compliance Matrix: (Units=1/GPa)
#
#
# Indices 1 2 3 4 5 6 
#
# 1 0.014229 -0.003413 -0.000942 0.000000 -0.007420 0.000000
# 2 -0.003413 0.012646 -0.004493 0.000000 -0.001872 0.000000
# 3 -0.000942 -0.004493 0.016080 0.000000 -0.007745 0.000000
# 4 0.000000 0.000000 0.000000 0.060982 0.000000 -0.012296
# 5 -0.007420 -0.001872 -0.007745 0.000000 0.039135 0.000000
# 6 0.000000 0.000000 0.000000 -0.012296 0.000000 0.034923
#
#
# Mechanical properties :
#
#
# Convention : Reuss Voigt Hill
#
# Bulk Modulus (GPa) = 39.59134 57.16441 48.37787
# Shear Modulus (GPa) = 24.49643 28.93698 26.71671
#
# Velocity S-wave (km/s) = 3.51537 3.82073 3.67123
# Velocity P-wave (km/s) = 6.03738 6.94996 6.50968
#
# Compressibility (1/GPa) = 0.02525805
#
# Stress axis : x y z
#
# Youngs Moduli (GPa) = 70.27926 79.07535 62.19022
#
# Poissons Ratio (x) = 0.26991 0.05861
# Poissons Ratio (y) = 0.23989 0.27939
# Poissons Ratio (z) = 0.06624 0.35525
#
# Static dielectric constant tensor:
#      x y z
#    x 1.789820 0.000000 -0.011010 
#    y 0.000000 1.730780 0.000000 
#    z -0.011010 0.000000 1.741000 
# 
# From -- ./inp_files/117724.got.cif
#   From: 2010.05.17/outbox.cif.g08.bks.cpg/sg15_59_cif.got.tgz:117724.got - 2010.06.03 18:47:42.
