data_PCOD9264827
_publ_section_title
;
Structure prediction by ZEFSAII (Michael W. Deem and Ramdas Pophale) SiO2 
 PCOD9264827
Probable space group: C 2/C
;
_chemical_formula_sum "Si O2"
_cell_formula_units_Z 56
_cell_length_a 13.355806
_cell_length_b 13.103745
_cell_length_c 17.232630
_cell_angle_alpha 90.000000
_cell_angle_beta 63.016045
_cell_angle_gamma 90.000000
_cell_volume 2687.570895
_symmetry_space_group_name_H-M "C 2/C"
_symmetry_group_IT_number 15
_symmetry_cell_setting 'monoclinic'
loop_
_space_group_symop_operation_xyz
x,y,z
-x,y,1/2-z
-x,-y,-z
x,-y,1/2+z
1/2+x,1/2+y,z
1/2-x,1/2+y,1/2-z
1/2-x,1/2-y,-z
1/2+x,1/2-y,1/2+z
loop_
_atom_site_type_symbol
_atom_site_label
_atom_site_fract_x
_atom_site_fract_y
_atom_site_fract_z
Si Si1 0.728654 0.820943 0.179217
Si Si2 0.205714 0.793496 0.934659
Si Si3 0.054108 0.678890 0.867784
Si Si4 0.105281 0.250518 0.756139
Si Si5 0.836822 0.341877 0.525714
Si Si6 0.474700 0.941373 0.614226
Si Si7 0.772215 0.497922 0.438583
O O1 0.619449 0.785143 0.267196
O O2 0.829074 0.821553 0.207295
O O3 0.775098 0.741727 0.098779
O O4 0.711657 0.929307 0.143636
O O5 0.109857 0.730083 0.924401
O O6 0.307150 0.785543 0.838800
O O7 0.183117 0.912976 0.956594
O O8 0.250000 0.750000 0.000000
O O9 0.069901 0.556181 0.857521
O O10 0.921334 0.696684 0.927797
O O11 0.064804 0.353394 0.813255
O O12 0.000000 0.201202 0.750000
O O13 0.922287 0.403988 0.551518
O O14 0.750165 0.419261 0.516120
O O15 0.608813 0.951462 0.577747
#
# Coordination Sequence:
#
# PCOD9264827 Si02
#       7
#     8   8   8   8   8   8   8
#     4  10  23  36  56  90 121 152 195 244 294 350
#     4  11  21  33  56  89 114 147 191 240 289 349
#     4  10  21  35  55  90 120 150 187 244 297 342
#     4  10  20  36  59  87 115 146 190 247 298 339
#     4  10  21  38  60  89 123 150 192 249 292 345
#     4  10  19  35  64  92 116 143 198 249 297 342
#     4  11  20  37  61  89 114 154 196 240 296 347
#
# _framework density 20.836659000000001
#
# number of rings (size 3 to 8) (size 9 to 14) (size 15 to 20)
#    0.000    1.714    1.429    4.714    2.000    1.714 
#    0.000    0.714    0.000    0.000   11.143    0.000 
#    0.000    0.000    0.000    0.000    0.000    0.000 
#
# Total GULP energy -156224.807765 kJ/mol
# GULP energy per Si atom -5579.457420 kJ/mol
# Density = 2.078923 g / cm^3
# Si number density = 20.836659 Si / 1000 Ang^3
#
#
#
# Elastic Constant Matrix: (Units=GPa)
#
#
# Indices 1 2 3 4 5 6 
#
# 1 84.9347 37.3611 10.6055 0.0000 17.7817 0.0000
# 2 37.3611 73.6955 31.9201 0.0000 10.0854 0.0000
# 3 10.6055 31.9201 92.8083 0.0000 6.3572 0.0000
# 4 0.0000 0.0000 0.0000 22.8311 0.0000 2.9065
# 5 17.7817 10.0854 6.3572 0.0000 31.1956 0.0000
# 6 0.0000 0.0000 0.0000 2.9065 0.0000 42.4197
#
#
#
# Elastic Compliance Matrix: (Units=1/GPa)
#
#
# Indices 1 2 3 4 5 6 
#
# 1 0.016642 -0.008044 0.001355 0.000000 -0.007162 0.000000
# 2 -0.008044 0.020366 -0.006033 0.000000 -0.000770 0.000000
# 3 0.001355 -0.006033 0.012793 0.000000 -0.001429 0.000000
# 4 0.000000 0.000000 0.000000 0.044185 0.000000 -0.003027
# 5 -0.007162 -0.000770 -0.001429 0.000000 0.036678 0.000000
# 6 0.000000 0.000000 0.000000 -0.003027 0.000000 0.023781
#
#
# Mechanical properties :
#
#
# Convention : Reuss Voigt Hill
#
# Bulk Modulus (GPa) = 41.05365 45.69022 43.37193
# Shear Modulus (GPa) = 26.59471 30.72605 28.66038
#
# Velocity S-wave (km/s) = 3.57647 3.84424 3.71277
# Velocity P-wave (km/s) = 6.06632 6.45598 6.26418
#
# Compressibility (1/GPa) = 0.02435837
#
# Stress axis : x y z
#
# Youngs Moduli (GPa) = 60.08789 49.10238 78.16946
#
# Poissons Ratio (x) = 0.39498 -0.10595
# Poissons Ratio (y) = 0.48335 0.47156
# Poissons Ratio (z) = -0.08144 0.29621
#
# Static dielectric constant tensor:
#      x y z
#    x 1.789610 0.000000 0.019110 
#    y 0.000000 1.795270 0.000000 
#    z 0.019110 0.000000 1.790940 
# 
# From -- ./inp_files/203947.got.cif
#   From: 2010.05.17/outbox.cif.g08.bks.cpg/sg15_102_cif.got.tgz:203947.got - 2010.06.03 18:47:42.
