data_PCOD9264098
_publ_section_title
;
Structure prediction by ZEFSAII (Michael W. Deem and Ramdas Pophale) SiO2 
 PCOD9264098
Probable space group: C 2/C
;
_chemical_formula_sum "Si O2"
_cell_formula_units_Z 48
_cell_length_a 14.575969
_cell_length_b 19.204233
_cell_length_c 8.677395
_cell_angle_alpha 90.000000
_cell_angle_beta 70.277185
_cell_angle_gamma 90.000000
_cell_volume 2286.486009
_symmetry_space_group_name_H-M "C 2/C"
_symmetry_group_IT_number 15
_symmetry_cell_setting 'monoclinic'
loop_
_space_group_symop_operation_xyz
x,y,z
-x,y,1/2-z
-x,-y,-z
x,-y,1/2+z
1/2+x,1/2+y,z
1/2-x,1/2+y,1/2-z
1/2-x,1/2-y,-z
1/2+x,1/2-y,1/2+z
loop_
_atom_site_type_symbol
_atom_site_label
_atom_site_fract_x
_atom_site_fract_y
_atom_site_fract_z
Si Si1 0.368719 0.567293 0.561321
Si Si2 0.500000 0.514880 0.750000
Si Si3 0.311038 0.967109 0.788413
Si Si4 0.000000 0.333558 0.750000
Si Si5 0.710494 0.817351 0.162877
Si Si6 0.896512 0.577642 0.554330
Si Si7 0.823320 0.313652 0.660615
O O1 0.447581 0.563215 0.653112
O O2 0.422613 0.534850 0.382262
O O3 0.283541 0.514813 0.663597
O O4 0.311791 0.640229 0.571841
O O5 0.297171 0.893365 0.713956
O O6 0.401190 0.012006 0.666889
O O7 0.328802 0.951592 0.956800
O O8 0.906077 0.293582 0.739072
O O9 0.021902 0.383453 0.591493
O O10 0.651875 0.862259 0.317652
O O11 0.848074 0.688131 0.964437
O O12 0.737066 0.742353 0.215672
#
# Coordination Sequence:
#
# PCOD9264098 Si02
#       7
#     8   4   8   4   8   8   8
#     4  10  19  35  55  82 112 143 187 229 278 332
#     4  10  20  31  54  85 112 140 180 240 282 317
#     4  10  19  36  60  82 111 155 194 230 280 350
#     4  10  24  39  56  89 118 144 190 248 290 327
#     4  10  21  40  61  81 113 158 192 225 282 355
#     4  10  21  37  61  86 114 150 192 239 286 337
#     4  10  22  39  60  84 113 149 192 234 284 341
#
# _framework density 20.992913000000001
#
# number of rings (size 3 to 8) (size 9 to 14) (size 15 to 20)
#    0.000    2.000    0.000    5.000    0.000    6.667 
#    0.000    6.667    0.000    0.000    0.000    0.000 
#    0.000    0.000    0.000    0.000    0.000    0.000 
#
# Total GULP energy -133816.376694 kJ/mol
# GULP energy per Si atom -5575.682362 kJ/mol
# Density = 2.094513 g / cm^3
# Si number density = 20.992913 Si / 1000 Ang^3
#
#
#
# Elastic Constant Matrix: (Units=GPa)
#
#
# Indices 1 2 3 4 5 6 
#
# 1 44.1698 2.3565 3.6283 0.0000 18.6972 0.0000
# 2 2.3565 86.5515 25.1994 0.0000 10.8522 0.0000
# 3 3.6283 25.1994 83.4725 0.0000 8.4056 0.0000
# 4 0.0000 0.0000 0.0000 29.5249 0.0000 -0.3115
# 5 18.6972 10.8522 8.4056 0.0000 27.7978 0.0000
# 6 0.0000 0.0000 0.0000 -0.3115 0.0000 20.1521
#
#
#
# Elastic Compliance Matrix: (Units=1/GPa)
#
#
# Indices 1 2 3 4 5 6 
#
# 1 0.031959 0.001839 0.000302 0.000000 -0.022305 0.000000
# 2 0.001839 0.013198 -0.003528 0.000000 -0.005322 0.000000
# 3 0.000302 -0.003528 0.013319 0.000000 -0.002853 0.000000
# 4 0.000000 0.000000 0.000000 0.033875 0.000000 0.000524
# 5 -0.022305 -0.005322 -0.002853 0.000000 0.053918 0.000000
# 6 0.000000 0.000000 0.000000 0.000524 0.000000 0.049631
#
#
# Mechanical properties :
#
#
# Convention : Reuss Voigt Hill
#
# Bulk Modulus (GPa) = 17.95299 30.72911 24.34105
# Shear Modulus (GPa) = 23.01572 27.69559 25.35566
#
# Velocity S-wave (km/s) = 3.31472 3.63613 3.47914
# Velocity P-wave (km/s) = 4.81875 5.68316 5.26871
#
# Compressibility (1/GPa) = 0.05570102
#
# Stress axis : x y z
#
# Youngs Moduli (GPa) = 31.29022 75.76680 75.07865
#
# Poissons Ratio (x) = -0.13931 -0.02267
# Poissons Ratio (y) = -0.05753 0.26491
# Poissons Ratio (z) = -0.00945 0.26734
#
# Static dielectric constant tensor:
#      x y z
#    x 1.813980 0.000000 -0.038030 
#    y 0.000000 1.763190 0.000000 
#    z -0.038030 0.000000 1.797860 
# 
# From -- ./inp_files/40723.got.cif
#   From: 2010.05.17/outbox.cif.g08.bks.cpg/sg15_21_cif.got.tgz:40723.got - 2010.06.03 18:47:42.
