data_PCOD9264783
_publ_section_title
;
Structure prediction by ZEFSAII (Michael W. Deem and Ramdas Pophale) SiO2 
 PCOD9264783
Probable space group: C 2/C
;
_chemical_formula_sum "Si O2"
_cell_formula_units_Z 60
_cell_length_a 16.961617
_cell_length_b 12.571794
_cell_length_c 16.752124
_cell_angle_alpha 90.000000
_cell_angle_beta 58.378005
_cell_angle_gamma 90.000000
_cell_volume 3041.810525
_symmetry_space_group_name_H-M "C 2/C"
_symmetry_group_IT_number 15
_symmetry_cell_setting 'monoclinic'
loop_
_space_group_symop_operation_xyz
x,y,z
-x,y,1/2-z
-x,-y,-z
x,-y,1/2+z
1/2+x,1/2+y,z
1/2-x,1/2+y,1/2-z
1/2-x,1/2-y,-z
1/2+x,1/2-y,1/2+z
loop_
_atom_site_type_symbol
_atom_site_label
_atom_site_fract_x
_atom_site_fract_y
_atom_site_fract_z
Si Si1 0.321148 0.315525 0.290521
Si Si2 0.362539 0.759033 0.934600
Si Si3 0.011790 0.460298 0.586149
Si Si4 0.330700 0.445142 0.754333
Si Si5 0.851992 0.315014 0.630201
Si Si6 0.962733 0.304575 0.409234
Si Si7 0.630894 0.684477 0.405693
Si Si8 0.000000 0.157561 0.250000
O O1 0.382359 0.277746 0.333702
O O2 0.301525 0.439914 0.299722
O O3 0.358886 0.287156 0.182955
O O4 0.226000 0.250296 0.349131
O O5 0.408044 0.873802 0.934555
O O6 0.250000 0.750000 0.000000
O O7 0.396953 0.681136 0.986907
O O8 0.025561 0.572328 0.622236
O O9 0.000000 0.500000 0.500000
O O10 0.915118 0.399134 0.646450
O O11 0.250546 0.361901 0.819228
O O12 0.350342 0.425611 0.649774
O O13 0.425779 0.414105 0.745403
O O14 0.890585 0.299926 0.520763
O O15 0.055974 0.255120 0.398319
O O16 0.945947 0.232302 0.341484
#
# Coordination Sequence:
#
# PCOD9264783 Si02
#       8
#     8   8   8   8   8   8   8   4
#     4  10  22  37  59  88 128 153 205 257 306 369
#     4  10  20  34  58  92 124 152 196 260 312 368
#     4  10  19  35  63  90 115 158 199 250 319 352
#     4  10  22  40  60  81 122 167 199 244 323 366
#     4  10  21  37  63  90 113 159 208 254 302 382
#     4  10  20  38  64  84 119 154 209 253 311 359
#     4   9  18  40  59  85 116 163 202 250 312 377
#     4  10  24  42  54  86 124 162 200 258 298 376
#
# _framework density 19.725093999999999
#
# number of rings (size 3 to 8) (size 9 to 14) (size 15 to 20)
#    0.000    2.133    2.667    0.800    5.600    3.200 
#    2.400    8.000    0.000    0.000    0.000    0.000 
#    0.000    0.000    0.000    0.000    0.000    0.000 
#
# Total GULP energy -167013.861935 kJ/mol
# GULP energy per Si atom -5567.128731 kJ/mol
# Density = 1.968020 g / cm^3
# Si number density = 19.725094 Si / 1000 Ang^3
#
#
#
# Elastic Constant Matrix: (Units=GPa)
#
#
# Indices 1 2 3 4 5 6 
#
# 1 69.6673 18.5051 10.0872 0.0000 5.1677 0.0000
# 2 18.5051 36.8210 12.3282 0.0000 23.9452 0.0000
# 3 10.0872 12.3282 67.3567 0.0000 15.0529 0.0000
# 4 0.0000 0.0000 0.0000 19.4742 0.0000 1.0519
# 5 5.1677 23.9452 15.0529 0.0000 29.0537 0.0000
# 6 0.0000 0.0000 0.0000 1.0519 0.0000 19.2309
#
#
#
# Elastic Compliance Matrix: (Units=1/GPa)
#
#
# Indices 1 2 3 4 5 6 
#
# 1 0.017879 -0.014917 -0.002244 0.000000 0.010277 0.000000
# 2 -0.014917 0.070974 0.001949 0.000000 -0.056851 0.000000
# 3 -0.002244 0.001949 0.017072 0.000000 -0.010052 0.000000
# 4 0.000000 0.000000 0.000000 0.051502 0.000000 -0.002817
# 5 0.010277 -0.056851 -0.010052 0.000000 0.084654 0.000000
# 6 0.000000 0.000000 0.000000 -0.002817 0.000000 0.052154
#
#
# Mechanical properties :
#
#
# Convention : Reuss Voigt Hill
#
# Bulk Modulus (GPa) = 13.24506 28.40957 20.82731
# Shear Modulus (GPa) = 14.29283 22.41341 18.35312
#
# Velocity S-wave (km/s) = 2.69476 3.37455 3.05363
# Velocity P-wave (km/s) = 4.05114 5.44219 4.79735
#
# Compressibility (1/GPa) = 0.07549984
#
# Stress axis : x y z
#
# Youngs Moduli (GPa) = 55.93195 14.08974 58.57498
#
# Poissons Ratio (x) = 0.21018 0.13144
# Poissons Ratio (y) = 0.83435 -0.11415
# Poissons Ratio (z) = 0.12551 -0.02746
#
# Static dielectric constant tensor:
#      x y z
#    x 1.713570 0.000000 -0.000770 
#    y 0.000000 1.717530 0.000000 
#    z -0.000770 0.000000 1.796130 
# 
# From -- ./inp_files/210610.got.cif
#   From: 2010.05.17/outbox.cif.g08.bks.cpg/sg15_106_cif.got.tgz:210610.got - 2010.06.03 18:47:42.
