data_PCOD9264292
_publ_section_title
;
Structure prediction by ZEFSAII (Michael W. Deem and Ramdas Pophale) SiO2 
 PCOD9264292
Probable space group: C 2/C
;
_chemical_formula_sum "Si O2"
_cell_formula_units_Z 52
_cell_length_a 15.150376
_cell_length_b 16.985722
_cell_length_c 14.606115
_cell_angle_alpha 90.000000
_cell_angle_beta 39.789461
_cell_angle_gamma 90.000000
_cell_volume 2405.473899
_symmetry_space_group_name_H-M "C 2/C"
_symmetry_group_IT_number 15
_symmetry_cell_setting 'monoclinic'
loop_
_space_group_symop_operation_xyz
x,y,z
-x,y,1/2-z
-x,-y,-z
x,-y,1/2+z
1/2+x,1/2+y,z
1/2-x,1/2+y,1/2-z
1/2-x,1/2-y,-z
1/2+x,1/2-y,1/2+z
loop_
_atom_site_type_symbol
_atom_site_label
_atom_site_fract_x
_atom_site_fract_y
_atom_site_fract_z
Si Si1 0.703667 0.835832 0.138968
Si Si2 0.000000 0.542439 0.750000
Si Si3 0.153483 0.405413 0.867800
Si Si4 0.719425 0.229185 0.918956
Si Si5 0.596234 0.941704 0.532955
Si Si6 0.073898 0.234804 0.912514
Si Si7 0.142661 0.842185 0.674834
O O1 0.587456 0.901599 0.248354
O O2 0.839402 0.827212 0.094998
O O3 0.633107 0.750438 0.204419
O O4 0.751718 0.847851 0.995264
O O5 0.888546 0.485499 0.884165
O O6 0.087619 0.320562 0.951061
O O7 0.309233 0.386168 0.771905
O O8 0.066159 0.418506 0.845709
O O9 0.128941 0.488068 0.937468
O O10 0.843283 0.242469 0.749365
O O11 0.750000 0.250000 0.000000
O O12 0.680935 0.136562 0.948753
O O13 0.585586 0.275342 0.986116
O O14 0.000000 0.872717 0.750000
#
# Coordination Sequence:
#
# PCOD9264292 Si02
#       7
#     8   4   8   8   8   8   8
#     4  10  22  33  59  96 129 163 209 257 333 391
#     4  12  22  38  66  96 130 168 220 268 322 404
#     4   9  20  39  60  90 120 166 213 262 314 378
#     4  11  25  46  69  93 124 177 233 274 316 392
#     4  10  23  39  67  89 128 168 226 269 314 375
#     4  10  24  39  69  94 130 165 220 275 334 385
#     4  10  19  35  57  87 133 168 199 253 324 401
#
# _framework density 21.617362
#
# number of rings (size 3 to 8) (size 9 to 14) (size 15 to 20)
#    0.000    1.846    2.308    0.462   15.077    0.000 
#    0.000    1.538    0.000    2.769    0.000    0.000 
#    0.000    0.000    0.000    0.000    0.000    0.000 
#
# Total GULP energy -144737.977134 kJ/mol
# GULP energy per Si atom -5566.845274 kJ/mol
# Density = 2.156816 g / cm^3
# Si number density = 21.617362 Si / 1000 Ang^3
#
#
#
# Elastic Constant Matrix: (Units=GPa)
#
#
# Indices 1 2 3 4 5 6 
#
# 1 104.9213 27.9945 14.0319 -0.0001 -10.6480 0.0001
# 2 27.9945 100.0596 29.4866 -0.0001 3.8649 0.0001
# 3 14.0319 29.4866 60.4160 0.0000 8.9031 0.0001
# 4 -0.0001 -0.0001 0.0000 21.7968 0.0000 5.3657
# 5 -10.6480 3.8649 8.9031 0.0000 34.5287 -0.0001
# 6 0.0001 0.0001 0.0001 5.3657 -0.0001 28.6508
#
#
#
# Elastic Compliance Matrix: (Units=1/GPa)
#
#
# Indices 1 2 3 4 5 6 
#
# 1 0.010909 -0.002670 -0.001841 0.000000 0.004138 0.000000
# 2 -0.002670 0.012327 -0.005272 0.000000 -0.000844 0.000000
# 3 -0.001841 -0.005272 0.020321 0.000000 -0.005217 0.000000
# 4 0.000000 0.000000 0.000000 0.048096 0.000000 -0.009007
# 5 0.004138 -0.000844 -0.005217 0.000000 0.031677 0.000000
# 6 0.000000 0.000000 0.000000 -0.009007 0.000000 0.036590
#
#
# Mechanical properties :
#
#
# Convention : Reuss Voigt Hill
#
# Bulk Modulus (GPa) = 41.67817 45.38032 43.52925
# Shear Modulus (GPa) = 26.66915 29.92084 28.29499
#
# Velocity S-wave (km/s) = 3.51620 3.72440 3.62180
# Velocity P-wave (km/s) = 5.98387 6.28753 6.13758
#
# Compressibility (1/GPa) = 0.02399337
#
# Stress axis : x y z
#
# Youngs Moduli (GPa) = 91.66490 81.12178 49.20954
#
# Poissons Ratio (x) = 0.21656 0.09057
# Poissons Ratio (y) = 0.24471 0.25943
# Poissons Ratio (z) = 0.16871 0.42768
#
# Static dielectric constant tensor:
#      x y z
#    x 1.861700 0.000000 0.002250 
#    y 0.000000 1.779140 0.000000 
#    z 0.002250 0.000000 1.835900 
# 
# From -- ./inp_files/155441.got.cif
#   From: 2010.05.17/outbox.cif.g08.bks.cpg/sg15_78_cif.got.tgz:155441.got - 2010.06.03 18:47:42.
