data_PCOD9264548
_publ_section_title
;
Structure prediction by ZEFSAII (Michael W. Deem and Ramdas Pophale) SiO2 
 PCOD9264548
Probable space group: C 2/C
;
_chemical_formula_sum "Si O2"
_cell_formula_units_Z 56
_cell_length_a 26.559604
_cell_length_b 13.249816
_cell_length_c 9.102998
_cell_angle_alpha 90.000000
_cell_angle_beta 56.410506
_cell_angle_gamma 90.000000
_cell_volume 2668.533909
_symmetry_space_group_name_H-M "C 2/C"
_symmetry_group_IT_number 15
_symmetry_cell_setting 'monoclinic'
loop_
_space_group_symop_operation_xyz
x,y,z
-x,y,1/2-z
-x,-y,-z
x,-y,1/2+z
1/2+x,1/2+y,z
1/2-x,1/2+y,1/2-z
1/2-x,1/2-y,-z
1/2+x,1/2-y,1/2+z
loop_
_atom_site_type_symbol
_atom_site_label
_atom_site_fract_x
_atom_site_fract_y
_atom_site_fract_z
Si Si1 0.528610 0.150281 0.553281
Si Si2 0.826722 0.872570 0.578091
Si Si3 0.417268 0.936782 0.039052
Si Si4 0.776207 0.217572 0.656058
Si Si5 0.191402 0.394479 0.066771
Si Si6 0.066406 0.738329 0.206690
Si Si7 0.710504 0.465790 0.159206
O O1 0.500000 0.190925 0.750000
O O2 0.473994 0.107154 0.539822
O O3 0.562950 0.225024 0.387493
O O4 0.569013 0.051995 0.524193
O O5 0.778314 0.785353 0.691535
O O6 0.887334 0.821058 0.425203
O O7 0.800223 0.941131 0.491851
O O8 0.832135 0.946631 0.707943
O O9 0.360612 0.924737 0.237936
O O10 0.413457 0.868155 0.899802
O O11 0.823103 0.300044 0.516498
O O12 0.746600 0.151561 0.574052
O O13 0.798204 0.138117 0.739668
O O14 0.221470 0.488632 0.933713
O O15 0.000000 0.760351 0.250000
#
# Coordination Sequence:
#
# PCOD9264548 Si02
#       7
#     8   8   8   8   8   8   8
#     4  10  21  36  55  90 120 152 201 244 298 357
#     4  11  23  41  64  87 120 159 201 253 302 353
#     4  10  19  35  60  82 121 161 193 241 298 359
#     4  10  21  39  59  90 124 160 204 239 295 363
#     4  10  21  36  61  90 123 163 198 242 301 355
#     4  10  22  40  61  85 116 159 201 248 302 356
#     4  11  23  40  60  90 126 159 202 249 296 358
#
# _framework density 20.985306000000001
#
# number of rings (size 3 to 8) (size 9 to 14) (size 15 to 20)
#    0.000    1.714    2.857    2.571    2.000    2.286 
#    0.000    2.143    0.000    0.000    0.000    0.000 
#    0.000    0.000    0.000    0.000    0.000    0.000 
#
# Total GULP energy -156509.482773 kJ/mol
# GULP energy per Si atom -5589.624385 kJ/mol
# Density = 2.093754 g / cm^3
# Si number density = 20.985306 Si / 1000 Ang^3
#
#
#
# Elastic Constant Matrix: (Units=GPa)
#
#
# Indices 1 2 3 4 5 6 
#
# 1 15.9112 26.0076 17.3915 0.0000 -9.2166 0.0000
# 2 26.0076 96.5410 58.8955 0.0000 -7.8939 0.0000
# 3 17.3915 58.8955 160.3058 0.0000 -12.7230 0.0000
# 4 0.0000 0.0000 0.0000 40.5631 0.0000 4.2070
# 5 -9.2166 -7.8939 -12.7230 0.0000 31.5867 0.0000
# 6 0.0000 0.0000 0.0000 4.2070 0.0000 21.1286
#
#
#
# Elastic Compliance Matrix: (Units=1/GPa)
#
#
# Indices 1 2 3 4 5 6 
#
# 1 0.137371 -0.034623 0.000322 0.000000 0.031560 0.000000
# 2 -0.034623 0.022137 -0.004896 0.000000 -0.006542 0.000000
# 3 0.000322 -0.004896 0.008174 0.000000 0.002163 0.000000
# 4 0.000000 0.000000 0.000000 0.025173 0.000000 -0.005012
# 5 0.031560 -0.006542 0.002163 0.000000 0.040104 0.000000
# 6 0.000000 0.000000 0.000000 -0.005012 0.000000 0.048327
#
#
# Mechanical properties :
#
#
# Convention : Reuss Voigt Hill
#
# Bulk Modulus (GPa) = 11.19975 53.03855 32.11915
# Shear Modulus (GPa) = 12.83886 30.01991 21.42938
#
# Velocity S-wave (km/s) = 2.47615 3.78633 3.19903
# Velocity P-wave (km/s) = 3.67745 6.66663 5.38366
#
# Compressibility (1/GPa) = 0.08928774
#
# Stress axis : x y z
#
# Youngs Moduli (GPa) = 7.27957 45.17233 122.34424
#
# Poissons Ratio (x) = 1.56398 -0.03936
# Poissons Ratio (y) = 0.25204 0.59903
# Poissons Ratio (z) = -0.00234 0.22117
#
# Static dielectric constant tensor:
#      x y z
#    x 1.776820 0.000000 0.018410 
#    y 0.000000 1.761240 0.000000 
#    z 0.018410 0.000000 1.767220 
# 
# From -- ./inp_files/69284.got.cif
#   From: 2010.05.17/outbox.cif.g08.bks.cpg/sg15_35_cif.got.tgz:69284.got - 2010.06.03 18:47:42.
