data_PCOD9264960
_publ_section_title
;
Structure prediction by ZEFSAII (Michael W. Deem and Ramdas Pophale) SiO2 
 PCOD9264960
Probable space group: C 2/C
;
_chemical_formula_sum "Si O2"
_cell_formula_units_Z 56
_cell_length_a 9.722565
_cell_length_b 26.768453
_cell_length_c 14.045502
_cell_angle_alpha 90.000000
_cell_angle_beta 47.371363
_cell_angle_gamma 90.000000
_cell_volume 2689.532473
_symmetry_space_group_name_H-M "C 2/C"
_symmetry_group_IT_number 15
_symmetry_cell_setting 'monoclinic'
loop_
_space_group_symop_operation_xyz
x,y,z
-x,y,1/2-z
-x,-y,-z
x,-y,1/2+z
1/2+x,1/2+y,z
1/2-x,1/2+y,1/2-z
1/2-x,1/2-y,-z
1/2+x,1/2-y,1/2+z
loop_
_atom_site_type_symbol
_atom_site_label
_atom_site_fract_x
_atom_site_fract_y
_atom_site_fract_z
Si Si1 0.836682 0.795133 0.244539
Si Si2 0.575218 0.426274 0.619642
Si Si3 0.275273 0.492054 0.197407
Si Si4 0.367871 0.113043 0.403448
Si Si5 0.432684 0.612573 0.575865
Si Si6 0.080105 0.280694 0.529460
Si Si7 0.627819 0.004390 0.049853
O O1 0.646238 0.784025 0.389737
O O2 0.000000 0.801473 0.250000
O O3 0.834509 0.844871 0.183013
O O4 0.900574 0.750244 0.146137
O O5 0.500000 0.400483 0.750000
O O6 0.407197 0.462042 0.662026
O O7 0.629381 0.392071 0.505057
O O8 0.741604 0.465091 0.565070
O O9 0.390572 0.440870 0.143892
O O10 0.207499 0.500070 0.120763
O O11 0.087286 0.488184 0.346690
O O12 0.500000 0.103522 0.250000
O O13 0.154249 0.122207 0.472845
O O14 0.432416 0.163374 0.424482
O O15 0.367046 0.063731 0.469761
O O16 0.250000 0.250000 0.500000
#
# Coordination Sequence:
#
# PCOD9264960 Si02
#       7
#     8   8   8   8   8   8   8
#     4  10  20  36  56  86 123 153 180 242 309 382
#     4  11  22  35  53  80 120 163 210 254 281 347
#     4  10  19  36  55  81 112 158 213 244 300 349
#     4  12  18  30  56  84 119 158 187 234 307 375
#     4  11  20  35  56  79 116 163 204 232 305 362
#     4  10  20  32  53  87 121 148 184 236 312 385
#     4  10  19  36  57  78 117 159 198 258 298 355
#
# _framework density 20.821462
#
# number of rings (size 3 to 8) (size 9 to 14) (size 15 to 20)
#    0.000    1.429    7.143    2.143    0.000    2.286 
#    0.000    1.429    0.000    0.000    0.000    1.000 
#    0.000    0.000    0.000    0.000    0.000    0.000 
#
# Total GULP energy -156411.354072 kJ/mol
# GULP energy per Si atom -5586.119788 kJ/mol
# Density = 2.077407 g / cm^3
# Si number density = 20.821462 Si / 1000 Ang^3
#
#
#
# Elastic Constant Matrix: (Units=GPa)
#
#
# Indices 1 2 3 4 5 6 
#
# 1 43.3658 8.4744 26.0334 0.0000 7.7178 0.0000
# 2 8.4744 105.6361 36.6646 0.0000 21.7953 0.0000
# 3 26.0334 36.6646 113.5258 0.0000 16.6873 0.0000
# 4 0.0000 0.0000 0.0000 30.8098 0.0000 9.4718
# 5 7.7178 21.7953 16.6873 0.0000 30.0755 0.0000
# 6 0.0000 0.0000 0.0000 9.4718 0.0000 12.4474
#
#
#
# Elastic Compliance Matrix: (Units=1/GPa)
#
#
# Indices 1 2 3 4 5 6 
#
# 1 0.027183 0.000726 -0.005842 0.000000 -0.004260 0.000000
# 2 0.000726 0.011917 -0.002960 0.000000 -0.007180 0.000000
# 3 -0.005842 -0.002960 0.011507 0.000000 -0.002741 0.000000
# 4 0.000000 0.000000 0.000000 0.042369 0.000000 -0.032241
# 5 -0.004260 -0.007180 -0.002741 0.000000 0.041067 0.000000
# 6 0.000000 0.000000 0.000000 -0.032241 0.000000 0.104872
#
#
# Mechanical properties :
#
#
# Convention : Reuss Voigt Hill
#
# Bulk Modulus (GPa) = 29.02291 44.98583 37.00437
# Shear Modulus (GPa) = 18.75815 27.42356 23.09085
#
# Velocity S-wave (km/s) = 3.00476 3.63310 3.33377
# Velocity P-wave (km/s) = 5.09974 6.26511 5.71222
#
# Compressibility (1/GPa) = 0.03445554
#
# Stress axis : x y z
#
# Youngs Moduli (GPa) = 36.78787 83.91416 86.90423
#
# Poissons Ratio (x) = -0.06091 0.50767
# Poissons Ratio (y) = -0.02670 0.25722
# Poissons Ratio (z) = 0.21490 0.24837
#
# Static dielectric constant tensor:
#      x y z
#    x 1.781990 0.000000 0.033460 
#    y 0.000000 1.725040 0.000000 
#    z 0.033460 0.000000 1.809640 
# 
# From -- ./inp_files/200747.got.cif
#   From: 2010.05.17/outbox.cif.g08.bks.cpg/sg15_101_cif.got.tgz:200747.got - 2010.06.03 18:47:42.
