data_PCOD9264645
_publ_section_title
;
Structure prediction by ZEFSAII (Michael W. Deem and Ramdas Pophale) SiO2 
 PCOD9264645
Probable space group: C 2/C
;
_chemical_formula_sum "Si O2"
_cell_formula_units_Z 56
_cell_length_a 14.442138
_cell_length_b 9.608252
_cell_length_c 29.148041
_cell_angle_alpha 90.000000
_cell_angle_beta 134.791015
_cell_angle_gamma 90.000000
_cell_volume 2870.440601
_symmetry_space_group_name_H-M "C 2/C"
_symmetry_group_IT_number 15
_symmetry_cell_setting 'monoclinic'
loop_
_space_group_symop_operation_xyz
x,y,z
-x,y,1/2-z
-x,-y,-z
x,-y,1/2+z
1/2+x,1/2+y,z
1/2-x,1/2+y,1/2-z
1/2-x,1/2-y,-z
1/2+x,1/2-y,1/2+z
loop_
_atom_site_type_symbol
_atom_site_label
_atom_site_fract_x
_atom_site_fract_y
_atom_site_fract_z
Si Si1 0.596294 0.238516 0.450709
Si Si2 0.000964 0.222747 0.014048
Si Si3 0.585858 0.464539 0.150508
Si Si4 0.889186 0.792152 0.247887
Si Si5 0.009985 0.536903 0.339368
Si Si6 0.793231 0.031411 0.899464
Si Si7 0.409015 0.213435 0.861063
O O1 0.750000 0.250000 0.500000
O O2 0.549763 0.200521 0.485466
O O3 0.536781 0.389369 0.416780
O O4 0.541412 0.130721 0.394836
O O5 0.004586 0.304723 0.062925
O O6 0.109197 0.099940 0.059085
O O7 0.862591 0.152976 0.953142
O O8 0.606218 0.391395 0.206087
O O9 0.697574 0.435567 0.151481
O O10 0.569479 0.629419 0.149171
O O11 0.742972 0.798264 0.177946
O O12 0.000000 0.831249 0.250000
O O13 0.923223 0.636303 0.277003
O O14 0.147991 0.502288 0.364064
O O15 0.941612 0.398467 0.333775
#
# Coordination Sequence:
#
# PCOD9264645 Si02
#       7
#     8   8   8   8   8   8   8
#     4  10  19  35  61  86 117 156 201 233 278 359
#     4   9  18  34  57  86 123 157 186 245 294 343
#     4   9  21  39  59  84 115 154 192 249 294 339
#     4  11  23  42  64  83 111 159 208 243 290 362
#     4  11  23  37  63  92 115 160 201 241 293 354
#     4   9  17  36  60  86 116 154 200 234 294 354
#     4  11  23  38  57  89 125 152 195 252 301 347
#
# _framework density 19.509198999999999
#
# number of rings (size 3 to 8) (size 9 to 14) (size 15 to 20)
#    0.000    2.000    1.429    3.429    2.000    1.143 
#    0.000    6.429    0.000    0.000    0.000    0.000 
#    0.000    0.000    0.000    0.000    0.000    0.000 
#
# Total GULP energy -156333.199536 kJ/mol
# GULP energy per Si atom -5583.328555 kJ/mol
# Density = 1.946480 g / cm^3
# Si number density = 19.509199 Si / 1000 Ang^3
#
#
#
# Elastic Constant Matrix: (Units=GPa)
#
#
# Indices 1 2 3 4 5 6 
#
# 1 91.8159 43.9393 22.1267 0.0000 -9.8704 0.0000
# 2 43.9393 66.4842 15.8205 0.0000 -0.2562 0.0000
# 3 22.1267 15.8205 62.1555 0.0000 -16.2664 0.0000
# 4 0.0000 0.0000 0.0000 22.8171 0.0000 -6.8786
# 5 -9.8704 -0.2562 -16.2664 0.0000 36.2145 0.0000
# 6 0.0000 0.0000 0.0000 -6.8786 0.0000 27.6691
#
#
#
# Elastic Compliance Matrix: (Units=1/GPa)
#
#
# Indices 1 2 3 4 5 6 
#
# 1 0.016913 -0.010587 -0.002424 0.000000 0.003446 0.000000
# 2 -0.010587 0.022761 -0.003102 0.000000 -0.004118 0.000000
# 3 -0.002424 -0.003102 0.019902 0.000000 0.008257 0.000000
# 4 0.000000 0.000000 0.000000 0.047377 0.000000 0.011778
# 5 0.003446 -0.004118 0.008257 0.000000 0.032232 0.000000
# 6 0.000000 0.000000 0.000000 0.011778 0.000000 0.039069
#
#
# Mechanical properties :
#
#
# Convention : Reuss Voigt Hill
#
# Bulk Modulus (GPa) = 36.56530 42.69207 39.62868
# Shear Modulus (GPa) = 22.76895 26.57809 24.67352
#
# Velocity S-wave (km/s) = 3.41997 3.69499 3.56014
# Velocity P-wave (km/s) = 5.86330 6.33518 6.10380
#
# Compressibility (1/GPa) = 0.02734833
#
# Stress axis : x y z
#
# Youngs Moduli (GPa) = 59.12727 43.93551 50.24621
#
# Poissons Ratio (x) = 0.46516 0.12180
# Poissons Ratio (y) = 0.62601 0.15586
# Poissons Ratio (z) = 0.14333 0.13629
#
# Static dielectric constant tensor:
#      x y z
#    x 1.669880 0.000000 -0.023100 
#    y 0.000000 1.692740 0.000000 
#    z -0.023100 0.000000 1.711170 
# 
# From -- ./inp_files/312941.got.cif
#   From: 2010.05.17/outbox.cif.g08.bks.cpg/sg15_157_cif.got.tgz:312941.got - 2010.06.03 18:47:42.
