data_PCOD9264196
_publ_section_title
;
Structure prediction by ZEFSAII (Michael W. Deem and Ramdas Pophale) SiO2 
 PCOD9264196
Probable space group: C 2/C
;
_chemical_formula_sum "Si O2"
_cell_formula_units_Z 56
_cell_length_a 19.865845
_cell_length_b 17.143668
_cell_length_c 12.580838
_cell_angle_alpha 90.000000
_cell_angle_beta 34.493044
_cell_angle_gamma 90.000000
_cell_volume 2426.451758
_symmetry_space_group_name_H-M "C 2/C"
_symmetry_group_IT_number 15
_symmetry_cell_setting 'monoclinic'
loop_
_space_group_symop_operation_xyz
x,y,z
-x,y,1/2-z
-x,-y,-z
x,-y,1/2+z
1/2+x,1/2+y,z
1/2-x,1/2+y,1/2-z
1/2-x,1/2-y,-z
1/2+x,1/2-y,1/2+z
loop_
_atom_site_type_symbol
_atom_site_label
_atom_site_fract_x
_atom_site_fract_y
_atom_site_fract_z
Si Si1 0.234405 0.547801 0.249707
Si Si2 0.958443 0.047937 0.450678
Si Si3 0.092366 0.322498 0.827105
Si Si4 0.583392 0.067690 0.062452
Si Si5 0.696438 0.622239 0.113287
Si Si6 0.358474 0.796642 0.242279
Si Si7 0.790651 0.171499 0.773816
O O1 0.191691 0.617083 0.232264
O O2 0.130869 0.483863 0.403099
O O3 0.257721 0.582107 0.338043
O O4 0.351002 0.506620 0.051018
O O5 0.894784 0.125067 0.579032
O O6 0.078401 0.074198 0.235257
O O7 0.000000 0.000000 0.500000
O O8 0.152472 0.239132 0.729344
O O9 0.008431 0.364464 0.851433
O O10 0.997947 0.311236 0.045939
O O11 0.500000 0.018829 0.250000
O O12 0.704998 0.109131 0.943563
O O13 0.657420 0.710917 0.189025
O O14 0.795586 0.636536 0.894660
O O15 0.291521 0.795112 0.214918
#
# Coordination Sequence:
#
# PCOD9264196 Si02
#       7
#     8   8   8   8   8   8   8
#     4  10  21  38  61  87 120 162 195 248 301 363
#     4   9  19  36  57  79 120 161 194 233 295 357
#     4  11  21  38  65  85 119 155 205 249 303 360
#     4  10  24  40  58  87 117 155 202 254 302 354
#     4  10  19  35  56  89 124 157 193 234 296 365
#     4  10  21  33  56  93 122 150 193 244 302 350
#     4  10  20  39  60  86 117 156 198 250 300 352
#
# _framework density 23.078966000000001
#
# number of rings (size 3 to 8) (size 9 to 14) (size 15 to 20)
#    0.000    2.000    2.857    0.429    2.000    1.143 
#    0.000    0.000    3.143    0.000    0.000    0.000 
#    0.000    0.000    0.000    0.000    0.000    0.000 
#
# Total GULP energy -156295.499711 kJ/mol
# GULP energy per Si atom -5581.982133 kJ/mol
# Density = 2.302644 g / cm^3
# Si number density = 23.078966 Si / 1000 Ang^3
#
#
#
# Elastic Constant Matrix: (Units=GPa)
#
#
# Indices 1 2 3 4 5 6 
#
# 1 49.9061 9.2674 2.6883 0.0000 -11.6224 0.0000
# 2 9.2674 84.5009 23.4007 0.0000 -10.5847 0.0000
# 3 2.6883 23.4007 121.2793 0.0000 2.3738 0.0000
# 4 0.0000 0.0000 0.0000 31.0458 0.0000 -6.8693
# 5 -11.6224 -10.5847 2.3738 0.0000 28.2083 0.0000
# 6 0.0000 0.0000 0.0000 -6.8693 0.0000 32.3072
#
#
#
# Elastic Compliance Matrix: (Units=1/GPa)
#
#
# Indices 1 2 3 4 5 6 
#
# 1 0.022333 -0.001231 -0.000429 0.000000 0.008776 0.000000
# 2 -0.001231 0.013286 -0.002628 0.000000 0.004699 0.000000
# 3 -0.000429 -0.002628 0.008799 0.000000 -0.001904 0.000000
# 4 0.000000 0.000000 0.000000 0.033801 0.000000 0.007187
# 5 0.008776 0.004699 -0.001904 0.000000 0.040990 0.000000
# 6 0.000000 0.000000 0.000000 0.007187 0.000000 0.032481
#
#
# Mechanical properties :
#
#
# Convention : Reuss Voigt Hill
#
# Bulk Modulus (GPa) = 27.90104 36.26657 32.08381
# Shear Modulus (GPa) = 29.03370 33.00092 31.01731
#
# Velocity S-wave (km/s) = 3.55070 3.78552 3.66999
# Velocity P-wave (km/s) = 5.37825 5.90382 5.64716
#
# Compressibility (1/GPa) = 0.03584095
#
# Stress axis : x y z
#
# Youngs Moduli (GPa) = 44.77647 75.26924 113.64538
#
# Poissons Ratio (x) = 0.09267 0.04878
# Poissons Ratio (y) = 0.05513 0.29868
# Poissons Ratio (z) = 0.01922 0.19782
#
# Static dielectric constant tensor:
#      x y z
#    x 1.885320 0.000000 0.056740 
#    y 0.000000 1.826620 0.000000 
#    z 0.056740 0.000000 1.901860 
# 
# From -- ./inp_files/119273.got.cif
#   From: 2010.05.17/outbox.cif.g08.bks.cpg/sg15_60_cif.got.tgz:119273.got - 2010.06.03 18:47:42.
