data_PCOD9264532
_publ_section_title
;
Structure prediction by ZEFSAII (Michael W. Deem and Ramdas Pophale) SiO2 
 PCOD9264532
Probable space group: C 2/C
;
_chemical_formula_sum "Si O2"
_cell_formula_units_Z 56
_cell_length_a 31.165101
_cell_length_b 10.025507
_cell_length_c 8.647641
_cell_angle_alpha 90.000000
_cell_angle_beta 123.971597
_cell_angle_gamma 90.000000
_cell_volume 2240.742166
_symmetry_space_group_name_H-M "C 2/C"
_symmetry_group_IT_number 15
_symmetry_cell_setting 'monoclinic'
loop_
_space_group_symop_operation_xyz
x,y,z
-x,y,1/2-z
-x,-y,-z
x,-y,1/2+z
1/2+x,1/2+y,z
1/2-x,1/2+y,1/2-z
1/2-x,1/2-y,-z
1/2+x,1/2-y,1/2+z
loop_
_atom_site_type_symbol
_atom_site_label
_atom_site_fract_x
_atom_site_fract_y
_atom_site_fract_z
Si Si1 0.158514 0.378445 0.725294
Si Si2 0.722170 0.020283 0.083215
Si Si3 0.707865 0.401359 0.057913
Si Si4 0.117275 0.217571 0.205588
Si Si5 0.443793 0.555901 0.929128
Si Si6 0.358790 0.667633 0.564936
Si Si7 0.442691 0.187905 0.646636
O O1 0.204422 0.398231 0.696314
O O2 0.161168 0.239820 0.821469
O O3 0.102412 0.388603 0.535426
O O4 0.171115 0.483690 0.884737
O O5 0.752275 0.894197 0.219966
O O6 0.759964 0.087757 0.036254
O O7 0.662372 0.299804 0.923620
O O8 0.676859 0.538841 0.030588
O O9 0.073259 0.296595 0.206713
O O10 0.094321 0.069677 0.122719
O O11 0.139302 0.258975 0.084096
O O12 0.417469 0.629776 0.730573
O O13 0.500000 0.500000 0.000000
O O14 0.444356 0.663207 0.069857
O O15 0.500000 0.130800 0.750000
#
# Coordination Sequence:
#
# PCOD9264532 Si02
#       7
#     8   8   8   8   8   8   8
#     4  10  25  45  65  94 123 166 219 278 317 376
#     4  10  22  42  67  81 125 168 221 265 318 364
#     4  10  20  39  61  95 128 175 207 244 320 389
#     4  11  21  34  59  96 138 173 204 242 316 395
#     4  10  19  35  59  92 137 177 197 241 316 383
#     4  10  22  37  61  95 137 163 211 261 308 396
#     4  11  23  41  63  97 133 167 217 266 311 384
#
# _framework density 24.991719
#
# number of rings (size 3 to 8) (size 9 to 14) (size 15 to 20)
#    0.000    1.714    2.857    1.714    4.000    4.571 
#    0.000    2.143    0.000    0.000    0.000    0.000 
#    0.000    0.000    0.000    0.000    0.000    0.000 
#
# Total GULP energy -156697.499380 kJ/mol
# GULP energy per Si atom -5596.339264 kJ/mol
# Density = 2.493484 g / cm^3
# Si number density = 24.991719 Si / 1000 Ang^3
#
#
#
# Elastic Constant Matrix: (Units=GPa)
#
#
# Indices 1 2 3 4 5 6 
#
# 1 154.4433 22.3638 54.5555 0.0000 1.3633 0.0000
# 2 22.3638 36.6710 17.1046 0.0000 4.9326 0.0000
# 3 54.5555 17.1046 117.5740 0.0000 2.5596 0.0000
# 4 0.0000 0.0000 0.0000 37.1531 0.0000 2.0418
# 5 1.3633 4.9326 2.5596 0.0000 46.0653 0.0000
# 6 0.0000 0.0000 0.0000 2.0418 0.0000 30.4283
#
#
#
# Elastic Compliance Matrix: (Units=1/GPa)
#
#
# Indices 1 2 3 4 5 6 
#
# 1 0.008132 -0.003474 -0.003275 0.000000 0.000313 0.000000
# 2 -0.003474 0.031131 -0.002850 0.000000 -0.003072 0.000000
# 3 -0.003275 -0.002850 0.010443 0.000000 -0.000178 0.000000
# 4 0.000000 0.000000 0.000000 0.027015 0.000000 -0.001813
# 5 0.000313 -0.003072 -0.000178 0.000000 0.022038 0.000000
# 6 0.000000 0.000000 0.000000 -0.001813 0.000000 0.032986
#
#
# Mechanical properties :
#
#
# Convention : Reuss Voigt Hill
#
# Bulk Modulus (GPa) = 32.77781 55.19291 43.98536
# Shear Modulus (GPa) = 31.03436 37.04029 34.03732
#
# Velocity S-wave (km/s) = 3.52772 3.85398 3.69446
# Velocity P-wave (km/s) = 5.45317 6.47585 5.98639
#
# Compressibility (1/GPa) = 0.03050845
#
# Stress axis : x y z
#
# Youngs Moduli (GPa) = 122.97250 32.12265 95.75525
#
# Poissons Ratio (x) = 0.11159 0.31357
# Poissons Ratio (y) = 0.42720 0.27291
# Poissons Ratio (z) = 0.40270 0.09155
#
# Static dielectric constant tensor:
#      x y z
#    x 1.951480 0.000000 -0.032070 
#    y 0.000000 2.072290 0.000000 
#    z -0.032070 0.000000 1.992480 
# 
# From -- ./inp_files/69461.got.cif
#   From: 2010.05.17/outbox.cif.g08.bks.cpg/sg15_35_cif.got.tgz:69461.got - 2010.06.03 18:47:42.
