data_PCOD9264525
_publ_section_title
;
Structure prediction by ZEFSAII (Michael W. Deem and Ramdas Pophale) SiO2 
 PCOD9264525
Probable space group: C 2/C
;
_chemical_formula_sum "Si O2"
_cell_formula_units_Z 60
_cell_length_a 9.584867
_cell_length_b 23.299636
_cell_length_c 17.772040
_cell_angle_alpha 90.000000
_cell_angle_beta 44.997397
_cell_angle_gamma 90.000000
_cell_volume 2806.323805
_symmetry_space_group_name_H-M "C 2/C"
_symmetry_group_IT_number 15
_symmetry_cell_setting 'monoclinic'
loop_
_space_group_symop_operation_xyz
x,y,z
-x,y,1/2-z
-x,-y,-z
x,-y,1/2+z
1/2+x,1/2+y,z
1/2-x,1/2+y,1/2-z
1/2-x,1/2-y,-z
1/2+x,1/2-y,1/2+z
loop_
_atom_site_type_symbol
_atom_site_label
_atom_site_fract_x
_atom_site_fract_y
_atom_site_fract_z
Si Si1 0.258514 0.916192 0.595633
Si Si2 0.500000 0.080448 0.250000
Si Si3 0.017236 0.003236 0.583070
Si Si4 0.609478 0.285907 0.289801
Si Si5 0.794517 0.126192 0.954345
Si Si6 0.913164 0.626651 0.621698
Si Si7 0.104293 0.500612 0.327988
Si Si8 0.141984 0.655478 0.313145
O O1 0.381375 0.869224 0.500548
O O2 0.370538 0.967034 0.601653
O O3 0.209362 0.876732 0.687183
O O4 0.137537 0.953365 0.581616
O O5 0.452692 0.037056 0.335868
O O6 0.658599 0.123381 0.226286
O O7 0.807686 0.998095 0.704697
O O8 0.000000 0.000000 0.500000
O O9 0.106737 0.066273 0.562694
O O10 0.500000 0.278648 0.250000
O O11 0.452952 0.322305 0.398806
O O12 0.811469 0.322644 0.205933
O O13 0.658766 0.223032 0.300875
O O14 0.742879 0.117797 0.886157
O O15 0.586680 0.142669 0.073301
O O16 0.941920 0.565922 0.650525
#
# Coordination Sequence:
#
# PCOD9264525 Si02
#       8
#     8   4   8   8   8   8   8   8
#     4  10  23  37  61  90 129 169 209 256 335 395
#     4  10  22  34  56  96 120 158 198 262 316 382
#     4  12  24  37  59  97 127 166 211 268 325 393
#     4  10  19  35  59  91 124 160 219 265 311 372
#     4  10  20  34  56  90 123 158 207 263 321 367
#     4  10  20  35  61  89 122 163 204 267 311 386
#     4  11  21  37  61  90 131 164 203 255 330 395
#     4  10  20  37  57  88 126 167 209 260 319 374
#
# _framework density 21.380285000000001
#
# number of rings (size 3 to 8) (size 9 to 14) (size 15 to 20)
#    0.000    1.600    3.333    2.000    5.600    0.000 
#    0.000    0.000    0.000    0.800   13.867    0.000 
#    0.000    0.000    0.000    0.000    0.000    0.000 
#
# Total GULP energy -167058.158507 kJ/mol
# GULP energy per Si atom -5568.605284 kJ/mol
# Density = 2.133162 g / cm^3
# Si number density = 21.380285 Si / 1000 Ang^3
#
#
#
# Elastic Constant Matrix: (Units=GPa)
#
#
# Indices 1 2 3 4 5 6 
#
# 1 74.7135 35.4545 24.7877 0.0000 10.5849 0.0000
# 2 35.4545 165.5135 20.9234 0.0000 1.2844 0.0000
# 3 24.7877 20.9234 68.6191 0.0000 -4.6251 0.0000
# 4 0.0000 0.0000 0.0000 27.2148 0.0000 -4.0103
# 5 10.5849 1.2844 -4.6251 0.0000 20.7350 0.0000
# 6 0.0000 0.0000 0.0000 -4.0103 0.0000 23.5504
#
#
#
# Elastic Compliance Matrix: (Units=1/GPa)
#
#
# Indices 1 2 3 4 5 6 
#
# 1 0.018500 -0.003062 -0.006470 0.000000 -0.010697 0.000000
# 2 -0.003062 0.006805 -0.000906 0.000000 0.000940 0.000000
# 3 -0.006470 -0.000906 0.017679 0.000000 0.007302 0.000000
# 4 0.000000 0.000000 0.000000 0.037690 0.000000 0.006418
# 5 -0.010697 0.000940 0.007302 0.000000 0.055259 0.000000
# 6 0.000000 0.000000 0.000000 0.006418 0.000000 0.043555
#
#
# Mechanical properties :
#
#
# Convention : Reuss Voigt Hill
#
# Bulk Modulus (GPa) = 45.23225 52.35304 48.79265
# Shear Modulus (GPa) = 24.06945 29.47874 26.77409
#
# Velocity S-wave (km/s) = 3.35890 3.71722 3.54260
# Velocity P-wave (km/s) = 6.02038 6.55465 6.29319
#
# Compressibility (1/GPa) = 0.02210812
#
# Stress axis : x y z
#
# Youngs Moduli (GPa) = 54.05537 146.95366 56.56505
#
# Poissons Ratio (x) = 0.44995 0.36598
# Poissons Ratio (y) = 0.16551 0.05122
# Poissons Ratio (z) = 0.34974 0.13308
#
# Static dielectric constant tensor:
#      x y z
#    x 1.824370 0.000000 -0.012680 
#    y 0.000000 1.751990 0.000000 
#    z -0.012680 0.000000 1.901880 
# 
# From -- ./inp_files/192515.got.cif
#   From: 2010.05.17/outbox.cif.g08.bks.cpg/sg15_97_cif.got.tgz:192515.got - 2010.06.03 18:47:42.
