data_PCOD9264195
_publ_section_title
;
Structure prediction by ZEFSAII (Michael W. Deem and Ramdas Pophale) SiO2 
 PCOD9264195
Probable space group: C 2/C
;
_chemical_formula_sum "Si O2"
_cell_formula_units_Z 56
_cell_length_a 14.310278
_cell_length_b 11.855623
_cell_length_c 16.948028
_cell_angle_alpha 90.000000
_cell_angle_beta 82.993537
_cell_angle_gamma 90.000000
_cell_volume 2853.883997
_symmetry_space_group_name_H-M "C 2/C"
_symmetry_group_IT_number 15
_symmetry_cell_setting 'monoclinic'
loop_
_space_group_symop_operation_xyz
x,y,z
-x,y,1/2-z
-x,-y,-z
x,-y,1/2+z
1/2+x,1/2+y,z
1/2-x,1/2+y,1/2-z
1/2-x,1/2-y,-z
1/2+x,1/2-y,1/2+z
loop_
_atom_site_type_symbol
_atom_site_label
_atom_site_fract_x
_atom_site_fract_y
_atom_site_fract_z
Si Si1 0.161356 0.163694 0.306369
Si Si2 0.500000 0.144528 0.250000
Si Si3 0.926022 0.662344 0.495637
Si Si4 0.966006 0.514819 0.626483
Si Si5 0.509706 0.609900 0.443962
Si Si6 0.000000 0.320485 0.250000
Si Si7 0.096153 0.986872 0.687317
Si Si8 0.157557 0.770179 0.136616
O O1 0.110087 0.112776 0.388729
O O2 0.085954 0.246695 0.272594
O O3 0.252950 0.228436 0.324366
O O4 0.170540 0.066474 0.240202
O O5 0.565934 0.218618 0.188915
O O6 0.566308 0.067346 0.299707
O O7 0.901179 0.593749 0.578060
O O8 0.992415 0.769329 0.511620
O O9 0.845432 0.717455 0.450603
O O10 0.977150 0.568430 0.436662
O O11 0.027693 0.602692 0.671821
O O12 0.500000 0.500000 0.500000
O O13 0.435447 0.595732 0.380268
O O14 0.139132 0.097383 0.643142
O O15 0.000000 0.008124 0.750000
#
# Coordination Sequence:
#
# PCOD9264195 Si02
#       8
#     8   4   8   8   8   4   8   8
#     4  11  23  37  60  89 121 161 213 252 300 369
#     4   9  20  37  58  86 117 162 200 245 316 357
#     4  10  19  35  56  89 117 153 202 244 310 363
#     4   9  19  33  60  83 117 156 189 247 310 365
#     4  11  20  38  62  85 119 167 205 254 304 364
#     4  11  18  39  58  82 121 160 204 247 306 367
#     4  10  20  39  62  86 120 168 202 249 312 361
#     4  11  22  36  60  90 120 155 208 258 299 372
#
# _framework density 19.622381000000001
#
# number of rings (size 3 to 8) (size 9 to 14) (size 15 to 20)
#    0.000    1.714    5.714    0.000    0.000    4.000 
#    0.000    0.000    0.000    0.000    0.000   14.000 
#    0.000    0.000    0.000    0.000    0.000    0.000 
#
# Total GULP energy -155890.798022 kJ/mol
# GULP energy per Si atom -5567.528501 kJ/mol
# Density = 1.957772 g / cm^3
# Si number density = 19.622381 Si / 1000 Ang^3
#
#
#
# Elastic Constant Matrix: (Units=GPa)
#
#
# Indices 1 2 3 4 5 6 
#
# 1 79.6251 33.1122 24.2410 0.0000 24.9329 0.0000
# 2 33.1122 115.8163 43.0632 0.0000 16.4951 0.0000
# 3 24.2410 43.0632 93.7314 0.0000 23.4122 0.0000
# 4 0.0000 0.0000 0.0000 42.1397 0.0000 10.8031
# 5 24.9329 16.4951 23.4122 0.0000 28.0720 0.0000
# 6 0.0000 0.0000 0.0000 10.8031 0.0000 22.4779
#
#
#
# Elastic Compliance Matrix: (Units=1/GPa)
#
#
# Indices 1 2 3 4 5 6 
#
# 1 0.018441 -0.003335 0.000461 0.000000 -0.014803 0.000000
# 2 -0.003335 0.011180 -0.004260 0.000000 -0.000054 0.000000
# 3 0.000461 -0.004260 0.015137 0.000000 -0.010530 0.000000
# 4 0.000000 0.000000 0.000000 0.027065 0.000000 -0.013008
# 5 -0.014803 -0.000054 -0.010530 0.000000 0.057585 0.000000
# 6 0.000000 0.000000 0.000000 -0.013008 0.000000 0.050740
#
#
# Mechanical properties :
#
#
# Convention : Reuss Voigt Hill
#
# Bulk Modulus (GPa) = 32.79983 54.44507 43.62245
# Shear Modulus (GPa) = 24.44033 31.12168 27.78100
#
# Velocity S-wave (km/s) = 3.53304 3.98682 3.76677
# Velocity P-wave (km/s) = 5.77884 6.99997 6.41851
#
# Compressibility (1/GPa) = 0.03048796
#
# Stress axis : x y z
#
# Youngs Moduli (GPa) = 54.22733 89.44819 66.06219
#
# Poissons Ratio (x) = 0.29833 -0.03043
# Poissons Ratio (y) = 0.18086 0.28144
# Poissons Ratio (z) = -0.02498 0.38108
#
# Static dielectric constant tensor:
#      x y z
#    x 1.654770 0.000000 0.019860 
#    y 0.000000 1.745270 0.000000 
#    z 0.019860 0.000000 1.748010 
# 
# From -- ./inp_files/209976.got.cif
#   From: 2010.05.17/outbox.cif.g08.bks.cpg/sg15_105_cif.got.tgz:209976.got - 2010.06.03 18:47:42.
