data_PCOD9264568
_publ_section_title
;
Structure prediction by ZEFSAII (Michael W. Deem and Ramdas Pophale) SiO2 
 PCOD9264568
Probable space group: C 2/C
;
_chemical_formula_sum "Si O2"
_cell_formula_units_Z 40
_cell_length_a 12.768934
_cell_length_b 23.244320
_cell_length_c 9.048662
_cell_angle_alpha 90.000000
_cell_angle_beta 46.213928
_cell_angle_gamma 90.000000
_cell_volume 1938.875918
_symmetry_space_group_name_H-M "C 2/C"
_symmetry_group_IT_number 15
_symmetry_cell_setting 'monoclinic'
loop_
_space_group_symop_operation_xyz
x,y,z
-x,y,1/2-z
-x,-y,-z
x,-y,1/2+z
1/2+x,1/2+y,z
1/2-x,1/2+y,1/2-z
1/2-x,1/2-y,-z
1/2+x,1/2-y,1/2+z
loop_
_atom_site_type_symbol
_atom_site_label
_atom_site_fract_x
_atom_site_fract_y
_atom_site_fract_z
Si Si1 0.137984 0.317521 0.218928
Si Si2 0.173844 0.430556 0.329748
Si Si3 0.500000 0.998590 0.750000
Si Si4 0.527355 0.420910 0.980274
Si Si5 0.870488 0.811696 0.761037
Si Si6 0.000000 0.000406 0.250000
O O1 0.125819 0.364092 0.358224
O O2 0.175790 0.252961 0.237645
O O3 0.000000 0.313479 0.250000
O O4 0.252859 0.338638 0.984993
O O5 0.102196 0.460568 0.542138
O O6 0.350977 0.427456 0.157164
O O7 0.103193 0.463160 0.256843
O O8 0.586651 0.456277 0.061289
O O9 0.580361 0.355930 0.912459
O O10 0.577255 0.456287 0.787177
O O11 0.000000 0.805216 0.750000
#
# Coordination Sequence:
#
# PCOD9264568 Si02
#       6
#     8   8   4   8   8   4
#     4  10  20  35  58  87 115 150 192 236 287 343
#     4  11  20  39  57  84 116 154 190 237 283 349
#     4  10  24  36  56  86 120 156 192 228 294 346
#     4  11  20  38  59  86 114 150 190 242 285 343
#     4  10  19  35  60  86 113 149 193 240 286 340
#     4  10  22  34  56  88 112 144 186 236 294 336
#
# _framework density 20.630510999999998
#
# number of rings (size 3 to 8) (size 9 to 14) (size 15 to 20)
#    0.000    1.600    4.000    1.200    0.000    1.600 
#    3.600    1.000    0.000    2.400    0.000    0.000 
#    0.000    0.000    0.000    0.000    0.000    0.000 
#
# Total GULP energy -111451.998958 kJ/mol
# GULP energy per Si atom -5572.599948 kJ/mol
# Density = 2.058355 g / cm^3
# Si number density = 20.630511 Si / 1000 Ang^3
#
#
#
# Elastic Constant Matrix: (Units=GPa)
#
#
# Indices 1 2 3 4 5 6 
#
# 1 47.8107 8.2401 33.3125 0.0000 1.7315 0.0000
# 2 8.2401 148.1032 52.8320 0.0000 18.9084 0.0000
# 3 33.3125 52.8320 101.4938 0.0000 2.7258 0.0000
# 4 0.0000 0.0000 0.0000 45.0013 0.0000 4.1624
# 5 1.7315 18.9084 2.7258 0.0000 39.0470 0.0000
# 6 0.0000 0.0000 0.0000 4.1624 0.0000 22.3400
#
#
#
# Elastic Compliance Matrix: (Units=1/GPa)
#
#
# Indices 1 2 3 4 5 6 
#
# 1 0.027730 0.002330 -0.010271 0.000000 -0.001641 0.000000
# 2 0.002330 0.009065 -0.005373 0.000000 -0.004118 0.000000
# 3 -0.010271 -0.005373 0.015969 0.000000 0.001943 0.000000
# 4 0.000000 0.000000 0.000000 0.022611 0.000000 -0.004213
# 5 -0.001641 -0.004118 0.001943 0.000000 0.027541 0.000000
# 6 0.000000 0.000000 0.000000 -0.004213 0.000000 0.045548
#
#
# Mechanical properties :
#
#
# Convention : Reuss Voigt Hill
#
# Bulk Modulus (GPa) = 38.25999 54.01967 46.13983
# Shear Modulus (GPa) = 27.20325 34.81253 31.00789
#
# Velocity S-wave (km/s) = 3.63518 4.11229 3.88107
# Velocity P-wave (km/s) = 6.01706 6.98492 6.51898
#
# Compressibility (1/GPa) = 0.02613696
#
# Stress axis : x y z
#
# Youngs Moduli (GPa) = 36.06244 110.31717 62.62321
#
# Poissons Ratio (x) = -0.25709 0.64317
# Poissons Ratio (y) = -0.08404 0.33647
# Poissons Ratio (z) = 0.37038 0.59273
#
# Static dielectric constant tensor:
#      x y z
#    x 1.719690 0.000000 0.004300 
#    y 0.000000 1.793560 0.000000 
#    z 0.004300 0.000000 1.742700 
# 
# From -- ./inp_files/32296.got.cif
#   From: 2010.05.17/outbox.cif.g08.bks.cpg/sg15_17_cif.got.tgz:32296.got - 2010.06.03 18:47:42.
