data_PCOD9264744
_publ_section_title
;
Structure prediction by ZEFSAII (Michael W. Deem and Ramdas Pophale) SiO2 
 PCOD9264744
Probable space group: C 2/C
;
_chemical_formula_sum "Si O2"
_cell_formula_units_Z 60
_cell_length_a 8.922748
_cell_length_b 22.967941
_cell_length_c 15.051047
_cell_angle_alpha 90.000000
_cell_angle_beta 78.786850
_cell_angle_gamma 90.000000
_cell_volume 3025.636908
_symmetry_space_group_name_H-M "C 2/C"
_symmetry_group_IT_number 15
_symmetry_cell_setting 'monoclinic'
loop_
_space_group_symop_operation_xyz
x,y,z
-x,y,1/2-z
-x,-y,-z
x,-y,1/2+z
1/2+x,1/2+y,z
1/2-x,1/2+y,1/2-z
1/2-x,1/2-y,-z
1/2+x,1/2-y,1/2+z
loop_
_atom_site_type_symbol
_atom_site_label
_atom_site_fract_x
_atom_site_fract_y
_atom_site_fract_z
Si Si1 0.000000 0.547889 0.750000
Si Si2 0.628661 0.628376 0.306544
Si Si3 0.511338 0.855683 0.531419
Si Si4 0.629925 0.734433 0.936376
Si Si5 0.198695 0.628604 0.610668
Si Si6 0.582719 0.448112 0.541186
Si Si7 0.832329 0.451895 0.657360
Si Si8 0.813409 0.808228 0.537650
O O1 0.130193 0.588343 0.693848
O O2 0.077891 0.505779 0.812845
O O3 0.500000 0.646709 0.250000
O O4 0.541423 0.589971 0.390885
O O5 0.751065 0.587955 0.242299
O O6 0.695905 0.681931 0.355233
O O7 0.441045 0.796395 0.584653
O O8 0.439788 0.856406 0.441374
O O9 0.448015 0.910256 0.591767
O O10 0.694352 0.854938 0.512175
O O11 0.722695 0.688574 0.865692
O O12 0.750000 0.750000 0.000000
O O13 0.490003 0.696923 0.991851
O O14 0.318701 0.591320 0.537948
O O15 0.500000 0.500000 0.500000
O O16 0.701003 0.469810 0.602935
O O17 0.750000 0.750000 0.500000
#
# Coordination Sequence:
#
# PCOD9264744 Si02
#       8
#     4   8   8   8   8   8   8   8
#     4  12  24  38  58  88 136 166 204 260 322 384
#     4  10  20  35  59  91 124 154 206 263 316 368
#     4   9  20  37  65  89 122 159 212 260 312 381
#     4   9  18  37  63  88 118 158 211 253 305 377
#     4  10  21  39  59  87 123 169 204 250 322 380
#     4  10  20  36  62  89 113 164 212 257 316 382
#     4  10  22  38  59  93 127 163 208 267 323 376
#     4  10  19  35  62  93 115 160 206 259 310 373
#
# _framework density 19.830535999999999
#
# number of rings (size 3 to 8) (size 9 to 14) (size 15 to 20)
#    0.000    2.133    1.333    1.600    1.867    3.200 
#    0.000    4.000    0.000    1.600    0.000    0.000 
#    0.000    0.000    0.000    0.000    0.000    0.000 
#
# Total GULP energy -167226.689349 kJ/mol
# GULP energy per Si atom -5574.222978 kJ/mol
# Density = 1.978540 g / cm^3
# Si number density = 19.830536 Si / 1000 Ang^3
#
#
#
# Elastic Constant Matrix: (Units=GPa)
#
#
# Indices 1 2 3 4 5 6 
#
# 1 107.3195 37.6631 13.6257 0.0000 2.5851 0.0000
# 2 37.6631 89.2015 32.9131 0.0000 17.9858 0.0000
# 3 13.6257 32.9131 47.7264 0.0000 4.3954 0.0000
# 4 0.0000 0.0000 0.0000 37.0319 0.0000 7.4688
# 5 2.5851 17.9858 4.3954 0.0000 22.9155 0.0000
# 6 0.0000 0.0000 0.0000 7.4688 0.0000 22.0948
#
#
#
# Elastic Compliance Matrix: (Units=1/GPa)
#
#
# Indices 1 2 3 4 5 6 
#
# 1 0.011099 -0.005373 0.000268 0.000000 0.002913 0.000000
# 2 -0.005373 0.020278 -0.011239 0.000000 -0.013154 0.000000
# 3 0.000268 -0.011239 0.028318 0.000000 0.003359 0.000000
# 4 0.000000 0.000000 0.000000 0.028979 0.000000 -0.009796
# 5 0.002913 -0.013154 0.003359 0.000000 0.052990 0.000000
# 6 0.000000 0.000000 0.000000 -0.009796 0.000000 0.048571
#
#
# Mechanical properties :
#
#
# Convention : Reuss Voigt Hill
#
# Bulk Modulus (GPa) = 37.02653 45.85016 41.43834
# Shear Modulus (GPa) = 21.55867 27.07813 24.31840
#
# Velocity S-wave (km/s) = 3.30077 3.69924 3.50567
# Velocity P-wave (km/s) = 5.76530 6.43561 6.10966
#
# Compressibility (1/GPa) = 0.02700766
#
# Stress axis : x y z
#
# Youngs Moduli (GPa) = 90.09584 49.31392 35.31384
#
# Poissons Ratio (x) = 0.26495 -0.00946
# Poissons Ratio (y) = 0.48406 0.39689
# Poissons Ratio (z) = -0.02415 0.55424
#
# Static dielectric constant tensor:
#      x y z
#    x 1.749310 0.000000 0.004030 
#    y 0.000000 1.734120 0.000000 
#    z 0.004030 0.000000 1.685620 
# 
# From -- ./inp_files/137343.got.cif
#   From: 2010.05.17/outbox.cif.g08.bks.cpg/sg15_69_cif.got.tgz:137343.got - 2010.06.03 18:47:42.
