data_PCOD9264598
_publ_section_title
;
Structure prediction by ZEFSAII (Michael W. Deem and Ramdas Pophale) SiO2 
 PCOD9264598
Probable space group: C 2/C
;
_chemical_formula_sum "Si O2"
_cell_formula_units_Z 60
_cell_length_a 15.044459
_cell_length_b 15.478522
_cell_length_c 16.008089
_cell_angle_alpha 90.000000
_cell_angle_beta 56.940902
_cell_angle_gamma 90.000000
_cell_volume 3124.249596
_symmetry_space_group_name_H-M "C 2/C"
_symmetry_group_IT_number 15
_symmetry_cell_setting 'monoclinic'
loop_
_space_group_symop_operation_xyz
x,y,z
-x,y,1/2-z
-x,-y,-z
x,-y,1/2+z
1/2+x,1/2+y,z
1/2-x,1/2+y,1/2-z
1/2-x,1/2-y,-z
1/2+x,1/2-y,1/2+z
loop_
_atom_site_type_symbol
_atom_site_label
_atom_site_fract_x
_atom_site_fract_y
_atom_site_fract_z
Si Si1 0.063133 0.472794 0.131611
Si Si2 0.773035 0.384305 0.941500
Si Si3 0.921770 0.668411 0.630565
Si Si4 0.928742 0.000489 0.953694
Si Si5 0.792311 0.206481 0.855669
Si Si6 0.678236 0.189912 0.640243
Si Si7 0.500000 0.397124 0.250000
Si Si8 0.900019 0.199220 0.472248
O O1 0.124519 0.561072 0.080917
O O2 0.151498 0.400765 0.109023
O O3 0.000000 0.487901 0.250000
O O4 0.984448 0.423273 0.107246
O O5 0.796217 0.310857 0.860275
O O6 0.681192 0.452096 0.965121
O O7 0.725700 0.331721 0.042958
O O8 0.809713 0.672293 0.642119
O O9 0.891673 0.693154 0.741193
O O10 0.000339 0.741536 0.553815
O O11 0.970309 0.046604 0.847504
O O12 0.920498 0.899286 0.940777
O O13 0.000000 0.000000 0.000000
O O14 0.902289 0.163692 0.772146
O O15 0.803717 0.201027 0.588153
O O16 0.642012 0.259786 0.592017
#
# Coordination Sequence:
#
# PCOD9264598 Si02
#       8
#     8   8   8   8   8   8   4   8
#     4   9  18  34  60  87 116 153 201 250 305 363
#     4  10  21  41  58  83 116 166 201 257 305 366
#     4  10  21  37  59  91 118 155 202 255 304 375
#     4  11  23  38  65  92 125 159 208 253 313 380
#     4  10  23  42  59  79 125 158 212 251 309 371
#     4   9  19  35  58  87 124 157 187 248 315 370
#     4  10  26  42  62  90 120 172 202 262 314 370
#     4  10  19  35  60  89 123 155 191 246 317 367
#
# _framework density 19.204612000000001
#
# number of rings (size 3 to 8) (size 9 to 14) (size 15 to 20)
#    0.000    2.133    1.333    2.000    4.667    0.533 
#    0.000    0.000    0.000    0.000    0.000    0.000 
#    0.000    0.000    0.000    0.000    0.000    0.000 
#
# Total GULP energy -167098.583187 kJ/mol
# GULP energy per Si atom -5569.952773 kJ/mol
# Density = 1.916090 g / cm^3
# Si number density = 19.204612 Si / 1000 Ang^3
#
#
#
# Elastic Constant Matrix: (Units=GPa)
#
#
# Indices 1 2 3 4 5 6 
#
# 1 107.0191 29.2110 4.4712 0.0000 -23.0992 0.0000
# 2 29.2110 113.8065 15.1095 0.0000 -19.7435 0.0000
# 3 4.4712 15.1095 34.0764 0.0000 -17.0262 0.0000
# 4 0.0000 0.0000 0.0000 5.2426 0.0000 -0.9442
# 5 -23.0992 -19.7435 -17.0262 0.0000 29.1043 0.0000
# 6 0.0000 0.0000 0.0000 -0.9442 0.0000 16.5525
#
#
#
# Elastic Compliance Matrix: (Units=1/GPa)
#
#
# Indices 1 2 3 4 5 6 
#
# 1 0.012037 -0.001793 0.004778 0.000000 0.011132 0.000000
# 2 -0.001793 0.010278 -0.002189 0.000000 0.004269 0.000000
# 3 0.004778 -0.002189 0.043581 0.000000 0.027802 0.000000
# 4 0.000000 0.000000 0.000000 0.192727 0.000000 0.010994
# 5 0.011132 0.004269 0.027802 0.000000 0.062354 0.000000
# 6 0.000000 0.000000 0.000000 0.010994 0.000000 0.061041
#
#
# Mechanical properties :
#
#
# Convention : Reuss Voigt Hill
#
# Bulk Modulus (GPa) = 14.81762 39.16505 26.99134
# Shear Modulus (GPa) = 12.40936 23.92056 18.16496
#
# Velocity S-wave (km/s) = 2.54474 3.53308 3.07883
# Velocity P-wave (km/s) = 4.04557 6.08945 5.16953
#
# Compressibility (1/GPa) = 0.06748720
#
# Stress axis : x y z
#
# Youngs Moduli (GPa) = 83.08033 97.29341 22.94590
#
# Poissons Ratio (x) = 0.17440 -0.10963
# Poissons Ratio (y) = 0.14893 0.05023
# Poissons Ratio (z) = -0.39692 0.21299
#
# Static dielectric constant tensor:
#      x y z
#    x 1.741010 0.000000 -0.003250 
#    y 0.000000 1.716930 0.000000 
#    z -0.003250 0.000000 1.688740 
# 
# From -- ./inp_files/154243.got.cif
#   From: 2010.05.17/outbox.cif.g08.bks.cpg/sg15_78_cif.got.tgz:154243.got - 2010.06.03 18:47:42.
