data_PCOD9264056
_publ_section_title
;
Structure prediction by ZEFSAII (Michael W. Deem and Ramdas Pophale) SiO2 
 PCOD9264056
Probable space group: C 2/C
;
_chemical_formula_sum "Si O2"
_cell_formula_units_Z 56
_cell_length_a 9.641524
_cell_length_b 17.320497
_cell_length_c 18.760491
_cell_angle_alpha 90.000000
_cell_angle_beta 59.255160
_cell_angle_gamma 90.000000
_cell_volume 2692.601560
_symmetry_space_group_name_H-M "C 2/C"
_symmetry_group_IT_number 15
_symmetry_cell_setting 'monoclinic'
loop_
_space_group_symop_operation_xyz
x,y,z
-x,y,1/2-z
-x,-y,-z
x,-y,1/2+z
1/2+x,1/2+y,z
1/2-x,1/2+y,1/2-z
1/2-x,1/2-y,-z
1/2+x,1/2-y,1/2+z
loop_
_atom_site_type_symbol
_atom_site_label
_atom_site_fract_x
_atom_site_fract_y
_atom_site_fract_z
Si Si1 0.799984 0.640003 0.509980
Si Si2 0.009946 0.229740 0.944563
Si Si3 0.347157 0.206358 0.837928
Si Si4 0.027109 0.171520 0.091990
Si Si5 0.834419 0.629037 0.329018
Si Si6 0.720264 0.535816 0.877095
Si Si7 0.868420 0.004995 0.434769
O O1 0.637731 0.691679 0.559069
O O2 0.834029 0.635691 0.415544
O O3 0.763420 0.557805 0.555396
O O4 0.947854 0.691435 0.496896
O O5 0.173630 0.238619 0.858506
O O6 0.046535 0.173215 0.001272
O O7 0.500000 0.224161 0.750000
O O8 0.388512 0.253603 0.898357
O O9 0.319307 0.114572 0.847798
O O10 0.106800 0.091890 0.099995
O O11 0.833135 0.167713 0.153335
O O12 0.812617 0.537620 0.320643
O O13 0.000000 0.656973 0.250000
O O14 0.544058 0.535842 0.885998
O O15 0.679791 0.515366 0.969699
#
# Coordination Sequence:
#
# PCOD9264056 Si02
#       7
#     8   8   8   8   8   8   8
#     4   9  18  32  59  79 100 138 183 222 256 304
#     4  10  19  35  54  81 105 138 180 219 258 313
#     4  12  23  33  53  81 115 139 173 216 276 318
#     4  10  21  35  56  76 107 144 174 222 262 313
#     4   9  18  32  54  78 108 136 175 218 268 311
#     4   9  16  31  54  80 101 136 180 220 252 307
#     4   9  15  33  57  79  97 135 186 220 253 302
#
# _framework density 20.797729
#
# number of rings (size 3 to 8) (size 9 to 14) (size 15 to 20)
#    0.000    2.286    2.857    2.571    2.000    0.000 
#    0.000    0.714    0.000    0.000    0.000    0.000 
#    0.000    0.000    0.000    0.000    0.000    0.000 
#
# Total GULP energy -155920.258552 kJ/mol
# GULP energy per Si atom -5568.580663 kJ/mol
# Density = 2.075039 g / cm^3
# Si number density = 20.797729 Si / 1000 Ang^3
#
#
#
# Elastic Constant Matrix: (Units=GPa)
#
#
# Indices 1 2 3 4 5 6 
#
# 1 38.5091 28.9481 27.5436 0.0000 -27.3626 0.0000
# 2 28.9481 97.5124 -7.4659 0.0000 -6.6722 0.0000
# 3 27.5436 -7.4659 63.5608 0.0000 -37.8492 0.0000
# 4 0.0000 0.0000 0.0000 16.1595 0.0000 -11.1386
# 5 -27.3626 -6.6722 -37.8492 0.0000 33.1767 0.0000
# 6 0.0000 0.0000 0.0000 -11.1386 0.0000 34.8121
#
#
#
# Elastic Compliance Matrix: (Units=1/GPa)
#
#
# Indices 1 2 3 4 5 6 
#
# 1 0.097789 -0.023843 -0.000017 0.000000 0.075837 0.000000
# 2 -0.023843 0.017576 0.008706 0.000000 -0.006197 0.000000
# 3 -0.000017 0.008706 0.055503 0.000000 0.065056 0.000000
# 4 0.000000 0.000000 0.000000 0.079393 0.000000 0.025403
# 5 0.075837 -0.006197 0.065056 0.000000 0.165660 0.000000
# 6 0.000000 0.000000 0.000000 0.025403 0.000000 0.036854
#
#
# Mechanical properties :
#
#
# Convention : Reuss Voigt Hill
#
# Bulk Modulus (GPa) = 7.11441 33.07044 20.09242
# Shear Modulus (GPa) = 9.43510 26.86676 18.15093
#
# Velocity S-wave (km/s) = 2.13224 3.59808 2.95742
# Velocity P-wave (km/s) = 3.08060 5.76169 4.61991
#
# Compressibility (1/GPa) = 0.14055986
#
# Stress axis : x y z
#
# Youngs Moduli (GPa) = 10.22606 56.89687 18.01718
#
# Poissons Ratio (x) = 1.35657 0.00031
# Poissons Ratio (y) = 0.24382 -0.15686
# Poissons Ratio (z) = 0.00018 -0.49535
#
# Static dielectric constant tensor:
#      x y z
#    x 1.773580 0.000000 -0.030570 
#    y 0.000000 1.837680 0.000000 
#    z -0.030570 0.000000 1.767600 
# 
# From -- ./inp_files/232582.got.cif
#   From: 2010.05.17/outbox.cif.g08.bks.cpg/sg15_117_cif.got.tgz:232582.got - 2010.06.03 18:47:42.
