data_PCOD9264320
_publ_section_title
;
Structure prediction by ZEFSAII (Michael W. Deem and Ramdas Pophale) SiO2 
 PCOD9264320
Probable space group: C 2/C
;
_chemical_formula_sum "Si O2"
_cell_formula_units_Z 56
_cell_length_a 5.019634
_cell_length_b 32.643675
_cell_length_c 18.404512
_cell_angle_alpha 90.000000
_cell_angle_beta 68.141418
_cell_angle_gamma 90.000000
_cell_volume 2798.935011
_symmetry_space_group_name_H-M "C 2/C"
_symmetry_group_IT_number 15
_symmetry_cell_setting 'monoclinic'
loop_
_space_group_symop_operation_xyz
x,y,z
-x,y,1/2-z
-x,-y,-z
x,-y,1/2+z
1/2+x,1/2+y,z
1/2-x,1/2+y,1/2-z
1/2-x,1/2-y,-z
1/2+x,1/2-y,1/2+z
loop_
_atom_site_type_symbol
_atom_site_label
_atom_site_fract_x
_atom_site_fract_y
_atom_site_fract_z
Si Si1 0.814875 0.143995 0.695765
Si Si2 0.174073 0.458355 0.996503
Si Si3 0.407874 0.278727 0.585223
Si Si4 0.933495 0.087188 0.335633
Si Si5 0.124156 0.774952 0.403145
Si Si6 0.110784 0.911929 0.046736
Si Si7 0.640656 0.134554 0.116065
O O1 0.500000 0.130209 0.750000
O O2 0.792622 0.186903 0.654630
O O3 0.000000 0.149110 0.750000
O O4 0.952206 0.111568 0.626611
O O5 0.422766 0.449199 0.030657
O O6 0.918692 0.427260 0.042342
O O7 0.311093 0.444994 0.905721
O O8 0.000000 0.500000 0.000000
O O9 0.637712 0.260917 0.618417
O O10 0.576992 0.287465 0.492434
O O11 0.229072 0.319058 0.622657
O O12 0.178229 0.243114 0.592674
O O13 0.693257 0.123353 0.357521
O O14 0.000000 0.069907 0.250000
O O15 0.225433 0.106124 0.335842
O O16 0.190374 0.880600 0.973405
#
# Coordination Sequence:
#
# PCOD9264320 Si02
#       7
#     8   8   8   8   8   8   8
#     4  12  24  40  59  84 125 166 202 254 303 344
#     4  10  21  39  66  91 118 153 194 242 288 356
#     4  10  19  35  58  81 108 148 205 256 289 346
#     4  10  21  36  57  87 120 151 186 237 304 353
#     4  10  21  35  55  82 112 151 204 250 299 344
#     4  10  21  39  61  88 116 153 205 236 287 364
#     4  10  19  36  60  83 113 152 198 243 284 356
#
# _framework density 20.007611000000001
#
# number of rings (size 3 to 8) (size 9 to 14) (size 15 to 20)
#    0.000    1.714    1.429    3.429    0.000    0.000 
#    0.000    9.286    0.000    1.714    0.000    0.000 
#    0.000    0.000    0.000    0.000    0.000    0.000 
#
# Total GULP energy -156314.518554 kJ/mol
# GULP energy per Si atom -5582.661377 kJ/mol
# Density = 1.996207 g / cm^3
# Si number density = 20.007611 Si / 1000 Ang^3
#
#
#
# Elastic Constant Matrix: (Units=GPa)
#
#
# Indices 1 2 3 4 5 6 
#
# 1 82.1322 -13.5720 16.7156 0.0000 -0.9335 0.0000
# 2 -13.5720 42.4357 12.8910 0.0000 -0.6509 0.0000
# 3 16.7156 12.8910 97.2130 0.0000 -2.8890 0.0000
# 4 0.0000 0.0000 0.0000 -15.5436 0.0000 -14.3470
# 5 -0.9335 -0.6509 -2.8890 0.0000 25.5058 0.0000
# 6 0.0000 0.0000 0.0000 -14.3470 0.0000 13.2027
#
#
#
# Elastic Compliance Matrix: (Units=1/GPa)
#
#
# Indices 1 2 3 4 5 6 
#
# 1 0.013675 0.005303 -0.003046 0.000000 0.000291 0.000000
# 2 0.005303 0.026613 -0.004430 0.000000 0.000371 0.000000
# 3 -0.003046 -0.004430 0.011430 0.000000 0.001070 0.000000
# 4 0.000000 0.000000 0.000000 -0.032119 0.000000 -0.034903
# 5 0.000291 0.000371 0.001070 0.000000 0.039348 0.000000
# 6 0.000000 0.000000 0.000000 -0.034903 0.000000 0.037814
#
#
# Mechanical properties :
#
#
# Convention : Reuss Voigt Hill
#
# Bulk Modulus (GPa) = 21.10933 28.20557 24.65745
# Shear Modulus (GPa) = 42.77303 18.34940 30.56121
#
# Velocity S-wave (km/s) = 4.62869 3.03169 3.91254
# Velocity P-wave (km/s) = 6.25619 5.13642 5.72376
#
# Compressibility (1/GPa) = 0.04737241
#
# Stress axis : x y z
#
# Youngs Moduli (GPa) = 73.12568 37.57620 87.49159
#
# Poissons Ratio (x) = -0.19928 0.26650
# Poissons Ratio (y) = -0.38781 0.38757
# Poissons Ratio (z) = 0.22274 0.16646
#
# Static dielectric constant tensor:
#      x y z
#    x 1.702660 0.000000 -0.015430 
#    y 0.000000 1.706710 0.000000 
#    z -0.015430 0.000000 1.735390 
# 
# From -- ./inp_files/186666.got.cif
#   From: 2010.05.17/outbox.cif.g08.bks.cpg/sg15_94_cif.got.tgz:186666.got - 2010.06.03 18:47:42.
