data_PCOD9264354
_publ_section_title
;
Structure prediction by ZEFSAII (Michael W. Deem and Ramdas Pophale) SiO2 
 PCOD9264354
Probable space group: C 2/C
;
_chemical_formula_sum "Si O2"
_cell_formula_units_Z 48
_cell_length_a 14.358715
_cell_length_b 14.905625
_cell_length_c 20.971236
_cell_angle_alpha 90.000000
_cell_angle_beta 27.886837
_cell_angle_gamma 90.000000
_cell_volume 2099.336318
_symmetry_space_group_name_H-M "C 2/C"
_symmetry_group_IT_number 15
_symmetry_cell_setting 'monoclinic'
loop_
_space_group_symop_operation_xyz
x,y,z
-x,y,1/2-z
-x,-y,-z
x,-y,1/2+z
1/2+x,1/2+y,z
1/2-x,1/2+y,1/2-z
1/2-x,1/2-y,-z
1/2+x,1/2-y,1/2+z
loop_
_atom_site_type_symbol
_atom_site_label
_atom_site_fract_x
_atom_site_fract_y
_atom_site_fract_z
Si Si1 0.976117 0.284837 0.576687
Si Si2 0.697567 0.031178 0.669257
Si Si3 0.050671 0.973649 0.373169
Si Si4 0.327257 0.817818 0.802961
Si Si5 0.318919 0.576830 0.905279
Si Si6 0.806140 0.438190 0.607584
O O1 0.114308 0.211534 0.459541
O O2 0.135942 0.359960 0.502567
O O3 0.860578 0.271452 0.713566
O O4 0.849184 0.335664 0.598647
O O5 0.500000 0.060260 0.750000
O O6 0.665467 0.926145 0.707489
O O7 0.897678 0.034615 0.505697
O O8 0.776463 0.071024 0.688580
O O9 0.895839 0.911022 0.429576
O O10 0.156427 0.027617 0.252776
O O11 0.500000 0.795862 0.750000
O O12 0.500000 0.602002 0.750000
O O13 0.267001 0.473881 0.916949
O O14 0.000000 0.500000 0.500000
#
# Coordination Sequence:
#
# PCOD9264354 Si02
#       6
#     8   8   8   8   8   8
#     4  11  21  36  53  84 120 154 194 232 296 349
#     4  10  21  35  57  86 119 150 183 236 298 351
#     4  10  19  35  58  84 113 149 189 239 291 346
#     4  11  22  34  54  79 119 160 185 238 288 358
#     4   9  18  33  57  85 110 144 192 242 286 342
#     4   9  19  33  55  81 111 150 192 240 283 336
#
# _framework density 22.864367999999999
#
# number of rings (size 3 to 8) (size 9 to 14) (size 15 to 20)
#    0.000    2.000    1.667    3.000    2.333    4.000 
#    0.000    0.000    0.000    1.000    0.000    0.000 
#    0.000    0.000    0.000    0.000    0.000    0.000 
#
# Total GULP energy -133861.570399 kJ/mol
# GULP energy per Si atom -5577.565433 kJ/mol
# Density = 2.281233 g / cm^3
# Si number density = 22.864368 Si / 1000 Ang^3
#
#
#
# Elastic Constant Matrix: (Units=GPa)
#
#
# Indices 1 2 3 4 5 6 
#
# 1 152.6169 17.1651 22.1675 0.0051 -9.0730 0.0032
# 2 17.1651 32.9329 5.0182 0.0118 6.0577 0.0078
# 3 22.1675 5.0182 94.9771 0.0037 4.5062 0.0103
# 4 0.0051 0.0118 0.0037 16.8190 -0.0036 -9.3418
# 5 -9.0730 6.0577 4.5062 -0.0036 36.9329 -0.0028
# 6 0.0032 0.0078 0.0103 -9.3418 -0.0028 13.9540
#
#
#
# Elastic Compliance Matrix: (Units=1/GPa)
#
#
# Indices 1 2 3 4 5 6 
#
# 1 0.007413 -0.004110 -0.001641 0.000005 0.002695 0.000005
# 2 -0.004110 0.033779 -0.000518 -0.000055 -0.006487 -0.000055
# 3 -0.001641 -0.000518 0.011018 -0.000010 -0.001663 -0.000014
# 4 0.000005 -0.000055 -0.000010 0.094652 0.000025 0.063367
# 5 0.002695 -0.006487 -0.001663 0.000025 0.029005 0.000027
# 6 0.000005 -0.000055 -0.000014 0.063367 0.000027 0.114086
#
#
# Mechanical properties :
#
#
# Convention : Reuss Voigt Hill
#
# Bulk Modulus (GPa) = 25.20578 41.02538 33.11558
# Shear Modulus (GPa) = 15.83707 29.28626 22.56167
#
# Velocity S-wave (km/s) = 2.63469 3.58281 3.14468
# Velocity P-wave (km/s) = 4.50593 5.92429 5.26311
#
# Compressibility (1/GPa) = 0.03967344
#
# Stress axis : x y z
#
# Youngs Moduli (GPa) = 134.89529 29.60429 90.75977
#
# Poissons Ratio (x) = 0.12166 0.14893
# Poissons Ratio (y) = 0.55437 0.04699
# Poissons Ratio (z) = 0.22136 0.01533
#
# Static dielectric constant tensor:
#      x y z
#    x 1.978960 -0.000010 0.005330 
#    y -0.000010 1.970300 0.000000 
#    z 0.005330 0.000000 1.884440 
# 
# From -- ./inp_files/155276.got.cif
#   From: 2010.05.17/outbox.cif.g08.bks.cpg/sg15_78_cif.got.tgz:155276.got - 2010.06.03 18:47:42.
