data_PCOD9264295
_publ_section_title
;
Structure prediction by ZEFSAII (Michael W. Deem and Ramdas Pophale) SiO2 
 PCOD9264295
Probable space group: C 2/C
;
_chemical_formula_sum "Si O2"
_cell_formula_units_Z 64
_cell_length_a 8.572778
_cell_length_b 25.211267
_cell_length_c 14.992879
_cell_angle_alpha 90.000000
_cell_angle_beta 90.645351
_cell_angle_gamma 90.000000
_cell_volume 3240.214312
_symmetry_space_group_name_H-M "C 2/C"
_symmetry_group_IT_number 15
_symmetry_cell_setting 'monoclinic'
loop_
_space_group_symop_operation_xyz
x,y,z
-x,y,1/2-z
-x,-y,-z
x,-y,1/2+z
1/2+x,1/2+y,z
1/2-x,1/2+y,1/2-z
1/2-x,1/2-y,-z
1/2+x,1/2-y,1/2+z
loop_
_atom_site_type_symbol
_atom_site_label
_atom_site_fract_x
_atom_site_fract_y
_atom_site_fract_z
Si Si1 0.318437 0.459852 0.774153
Si Si2 0.313385 0.298924 0.942551
Si Si3 0.317257 0.491199 0.979844
Si Si4 0.191214 0.161342 0.251432
Si Si5 0.683444 0.889664 0.065635
Si Si6 0.816697 0.799148 0.556106
Si Si7 0.187329 0.396929 0.446911
Si Si8 0.812792 0.574065 0.751251
O O1 0.500000 0.460714 0.750000
O O2 0.301391 0.468393 0.879828
O O3 0.258339 0.400981 0.747993
O O4 0.245025 0.513779 0.734404
O O5 0.257787 0.309915 0.840229
O O6 0.498333 0.292454 0.937381
O O7 0.250000 0.250000 0.000000
O O8 0.268762 0.349922 0.000563
O O9 0.227008 0.546345 0.989232
O O10 0.500000 0.500000 0.000000
O O11 0.238462 0.448200 0.041323
O O12 0.241027 0.191084 0.342518
O O13 0.000000 0.160266 0.250000
O O14 0.497120 0.885004 0.053848
O O15 0.728123 0.885700 0.169770
O O16 0.750000 0.750000 0.500000
O O17 0.775941 0.851677 0.500380
O O18 0.241074 0.403999 0.344597
O O19 0.000000 0.570975 0.750000
#
# Coordination Sequence:
#
# PCOD9264295 Si02
#       8
#     8   8   8   8   8   8   8   8
#     4  10  19  35  57  88 121 158 209 241 297 363
#     4  11  23  43  67  91 118 160 206 251 306 364
#     4  11  21  34  59  91 125 160 201 250 302 362
#     4   9  21  40  63  87 118 160 201 248 301 367
#     4  11  21  39  60  88 123 160 205 246 301 361
#     4  11  24  44  65  90 122 158 207 257 309 362
#     4  10  23  39  59  88 122 163 201 250 303 361
#     4   9  21  38  56  85 126 166 200 243 300 359
#
# _framework density 19.751781000000001
#
# number of rings (size 3 to 8) (size 9 to 14) (size 15 to 20)
#    0.000    1.750    1.250    2.625    5.250    2.000 
#    0.000    7.500    0.000    0.000    0.000    0.000 
#    0.000    0.000    0.000    0.000    0.000    0.000 
#
# Total GULP energy -178607.889928 kJ/mol
# GULP energy per Si atom -5581.496560 kJ/mol
# Density = 1.970682 g / cm^3
# Si number density = 19.751781 Si / 1000 Ang^3
#
#
#
# Elastic Constant Matrix: (Units=GPa)
#
#
# Indices 1 2 3 4 5 6 
#
# 1 19.2440 4.4544 20.1282 0.0000 -1.2381 0.0000
# 2 4.4544 102.8260 81.3890 0.0000 0.1907 0.0000
# 3 20.1282 81.3890 146.5957 0.0000 -0.9738 0.0000
# 4 0.0000 0.0000 0.0000 24.0139 0.0000 -2.4504
# 5 -1.2381 0.1907 -0.9738 0.0000 23.0625 0.0000
# 6 0.0000 0.0000 0.0000 -2.4504 0.0000 37.2648
#
#
#
# Elastic Compliance Matrix: (Units=1/GPa)
#
#
# Indices 1 2 3 4 5 6 
#
# 1 0.063891 0.007414 -0.012870 0.000000 0.002825 0.000000
# 2 0.007414 0.018217 -0.011133 0.000000 -0.000223 0.000000
# 3 -0.012870 -0.011133 0.014770 0.000000 0.000025 0.000000
# 4 0.000000 0.000000 0.000000 0.041924 0.000000 0.002757
# 5 0.002825 -0.000223 0.000025 0.000000 0.043515 0.000000
# 6 0.000000 0.000000 0.000000 0.002757 0.000000 0.027016
#
#
# Mechanical properties :
#
#
# Convention : Reuss Voigt Hill
#
# Bulk Modulus (GPa) = 15.69881 53.40098 34.54990
# Shear Modulus (GPa) = 18.95778 27.71451 23.33614
#
# Velocity S-wave (km/s) = 3.10143 3.74991 3.44098
# Velocity P-wave (km/s) = 4.55965 6.77081 5.77210
#
# Compressibility (1/GPa) = 0.06369908
#
# Stress axis : x y z
#
# Youngs Moduli (GPa) = 15.65162 54.89515 67.70584
#
# Poissons Ratio (x) = -0.40698 0.87136
# Poissons Ratio (y) = -0.11604 0.75378
# Poissons Ratio (z) = 0.20143 0.61116
#
# Static dielectric constant tensor:
#      x y z
#    x 1.649450 0.000000 0.064330 
#    y 0.000000 1.698060 0.000000 
#    z 0.064330 0.000000 1.522820 
# 
# From -- ./inp_files/137824.got.cif
#   From: 2010.05.17/outbox.cif.g08.bks.cpg/sg15_69_cif.got.tgz:137824.got - 2010.06.03 18:47:42.
