data_PCOD9264329
_publ_section_title
;
Structure prediction by ZEFSAII (Michael W. Deem and Ramdas Pophale) SiO2 
 PCOD9264329
Probable space group: C 2/C
;
_chemical_formula_sum "Si O2"
_cell_formula_units_Z 48
_cell_length_a 30.870424
_cell_length_b 9.536470
_cell_length_c 18.409942
_cell_angle_alpha 90.000000
_cell_angle_beta 156.364479
_cell_angle_gamma 90.000000
_cell_volume 2172.887298
_symmetry_space_group_name_H-M "C 2/C"
_symmetry_group_IT_number 15
_symmetry_cell_setting 'monoclinic'
loop_
_space_group_symop_operation_xyz
x,y,z
-x,y,1/2-z
-x,-y,-z
x,-y,1/2+z
1/2+x,1/2+y,z
1/2-x,1/2+y,1/2-z
1/2-x,1/2-y,-z
1/2+x,1/2-y,1/2+z
loop_
_atom_site_type_symbol
_atom_site_label
_atom_site_fract_x
_atom_site_fract_y
_atom_site_fract_z
Si Si1 0.222098 0.297145 0.852575
Si Si2 0.668790 0.012908 0.474893
Si Si3 0.060183 0.060048 0.764848
Si Si4 0.985303 0.331496 0.872050
Si Si5 0.057357 0.259058 0.257793
Si Si6 0.366582 0.935782 0.912352
O O1 0.110379 0.342555 0.717099
O O2 0.221949 0.355757 0.770558
O O3 0.322092 0.371460 0.045192
O O4 0.238895 0.130634 0.886994
O O5 0.660351 0.862519 0.421970
O O6 0.662429 0.974083 0.549874
O O7 0.565638 0.095099 0.279616
O O8 0.995790 0.168748 0.615526
O O9 0.000000 0.059498 0.750000
O O10 0.073820 0.900660 0.761335
O O11 0.090540 0.418377 0.055089
O O12 0.000000 0.259116 0.250000
O O13 0.969389 0.332209 0.071776
#
# Coordination Sequence:
#
# PCOD9264329 Si02
#       6
#     8   8   8   8   8   8
#     4  11  22  35  57  87 111 142 191 241 281 330
#     4   9  18  35  57  79 109 151 188 221 276 343
#     4  10  19  35  58  82 108 148 193 228 271 343
#     4  10  19  37  57  81 114 152 186 227 284 347
#     4   8  17  34  55  77 106 144 184 228 277 331
#     4  10  20  36  57  82 113 149 187 235 284 330
#
# _framework density 22.090422
#
# number of rings (size 3 to 8) (size 9 to 14) (size 15 to 20)
#    0.000    2.333    0.000    6.000    0.000    4.667 
#    0.000   10.000    0.000    4.000    0.000    0.000 
#    0.000    0.000    0.000    0.000    0.000    0.000 
#
# Total GULP energy -133860.910267 kJ/mol
# GULP energy per Si atom -5577.537928 kJ/mol
# Density = 2.204014 g / cm^3
# Si number density = 22.090422 Si / 1000 Ang^3
#
#
#
# Elastic Constant Matrix: (Units=GPa)
#
#
# Indices 1 2 3 4 5 6 
#
# 1 56.9938 14.2672 7.5742 0.0000 -6.8014 0.0000
# 2 14.2672 195.0240 29.3485 0.0000 -7.4455 0.0000
# 3 7.5742 29.3485 33.3432 0.0000 -12.5679 0.0000
# 4 0.0000 0.0000 0.0000 26.2917 0.0000 5.1639
# 5 -6.8014 -7.4455 -12.5679 0.0000 19.2690 0.0000
# 6 0.0000 0.0000 0.0000 5.1639 0.0000 2.9454
#
#
#
# Elastic Compliance Matrix: (Units=1/GPa)
#
#
# Indices 1 2 3 4 5 6 
#
# 1 0.018600 -0.000949 -0.001397 0.000000 0.005287 0.000000
# 2 -0.000949 0.005990 -0.005716 0.000000 -0.001748 0.000000
# 3 -0.001397 -0.005716 0.045510 0.000000 0.026981 0.000000
# 4 0.000000 0.000000 0.000000 0.058010 0.000000 -0.101704
# 5 0.005287 -0.001748 0.026981 0.000000 0.070685 0.000000
# 6 0.000000 0.000000 0.000000 -0.101704 0.000000 0.517821
#
#
# Mechanical properties :
#
#
# Convention : Reuss Voigt Hill
#
# Bulk Modulus (GPa) = 18.52681 43.08231 30.80456
# Shear Modulus (GPa) = 6.66016 25.31263 15.98639
#
# Velocity S-wave (km/s) = 1.73825 3.38873 2.69305
# Velocity P-wave (km/s) = 3.52614 5.90393 4.86262
#
# Compressibility (1/GPa) = 0.05397582
#
# Stress axis : x y z
#
# Youngs Moduli (GPa) = 53.76376 166.93248 21.97331
#
# Poissons Ratio (x) = 0.15835 0.03070
# Poissons Ratio (y) = 0.05100 0.12561
# Poissons Ratio (z) = 0.07512 0.95424
#
# Static dielectric constant tensor:
#      x y z
#    x 1.845050 0.000000 0.004250 
#    y 0.000000 1.841370 0.000000 
#    z 0.004250 0.000000 1.824610 
# 
# From -- ./inp_files/224683.got.cif
#   From: 2010.05.17/outbox.cif.g08.bks.cpg/sg15_113_cif.got.tgz:224683.got - 2010.06.03 18:47:42.
