data_PCOD9264095
_publ_section_title
;
Structure prediction by ZEFSAII (Michael W. Deem and Ramdas Pophale) SiO2 
 PCOD9264095
Probable space group: C 2/C
;
_chemical_formula_sum "Si O2"
_cell_formula_units_Z 64
_cell_length_a 15.787138
_cell_length_b 11.739019
_cell_length_c 20.054260
_cell_angle_alpha 90.000000
_cell_angle_beta 127.702251
_cell_angle_gamma 90.000000
_cell_volume 2940.545204
_symmetry_space_group_name_H-M "C 2/C"
_symmetry_group_IT_number 15
_symmetry_cell_setting 'monoclinic'
loop_
_space_group_symop_operation_xyz
x,y,z
-x,y,1/2-z
-x,-y,-z
x,-y,1/2+z
1/2+x,1/2+y,z
1/2-x,1/2+y,1/2-z
1/2-x,1/2-y,-z
1/2+x,1/2-y,1/2+z
loop_
_atom_site_type_symbol
_atom_site_label
_atom_site_fract_x
_atom_site_fract_y
_atom_site_fract_z
Si Si1 0.481765 0.186656 0.318605
Si Si2 0.536364 0.585129 0.908375
Si Si3 0.182381 0.959288 0.878503
Si Si4 0.779015 0.161488 0.697507
Si Si5 0.785175 0.861784 0.911061
Si Si6 0.291772 0.570001 0.832674
Si Si7 0.127217 0.511550 0.433736
Si Si8 0.800150 0.708968 0.594639
O O1 0.500000 0.155247 0.250000
O O2 0.550554 0.297151 0.373986
O O3 0.365841 0.245102 0.263532
O O4 0.516270 0.081079 0.381526
O O5 0.596460 0.490489 0.894152
O O6 0.413278 0.564417 0.865277
O O7 0.599454 0.602016 0.007073
O O8 0.170902 0.050467 0.813908
O O9 0.164907 0.826766 0.854117
O O10 0.302024 0.979893 0.967318
O O11 0.715226 0.231780 0.611360
O O12 0.723809 0.119737 0.738489
O O13 0.703175 0.899197 0.929503
O O14 0.757096 0.945037 0.836898
O O15 0.280683 0.647991 0.892860
O O16 0.120467 0.394129 0.388004
O O17 0.750000 0.750000 0.500000
#
# Coordination Sequence:
#
# PCOD9264095 Si02
#       8
#     8   8   8   8   8   8   8   8
#     4  11  18  32  55  85 118 141 191 235 298 331
#     4  10  20  35  61  88 112 151 196 254 290 346
#     4  10  19  35  62  90 115 152 203 240 300 359
#     4  11  22  33  59  85 119 152 186 252 294 350
#     4  10  19  35  55  81 112 149 199 231 293 353
#     4  10  23  36  58  82 117 155 193 245 306 343
#     4   9  18  34  59  84 113 155 193 237 285 363
#     4   9  20  39  62  82 115 160 199 239 297 370
#
# _framework density 21.764672000000001
#
# number of rings (size 3 to 8) (size 9 to 14) (size 15 to 20)
#    0.000    2.000    2.500    1.875    1.750    2.000 
#    0.000    0.000   13.750    6.750    0.000    0.000 
#    0.000    0.000    0.000    0.000    0.000    0.000 
#
# Total GULP energy -178324.441908 kJ/mol
# GULP energy per Si atom -5572.638810 kJ/mol
# Density = 2.171513 g / cm^3
# Si number density = 21.764672 Si / 1000 Ang^3
#
#
#
# Elastic Constant Matrix: (Units=GPa)
#
#
# Indices 1 2 3 4 5 6 
#
# 1 30.6654 17.4990 8.1665 0.0000 -7.3442 0.0000
# 2 17.4990 131.2468 26.5062 0.0000 6.6636 0.0000
# 3 8.1665 26.5062 47.1033 0.0000 -9.7067 0.0000
# 4 0.0000 0.0000 0.0000 12.6560 0.0000 3.5191
# 5 -7.3442 6.6636 -9.7067 0.0000 21.1559 0.0000
# 6 0.0000 0.0000 0.0000 3.5191 0.0000 10.2270
#
#
#
# Elastic Compliance Matrix: (Units=1/GPa)
#
#
# Indices 1 2 3 4 5 6 
#
# 1 0.039881 -0.006052 -0.000291 0.000000 0.015617 0.000000
# 2 -0.006052 0.010122 -0.006335 0.000000 -0.008196 0.000000
# 3 -0.000291 -0.006335 0.027871 0.000000 0.014682 0.000000
# 4 0.000000 0.000000 0.000000 0.087374 0.000000 -0.030065
# 5 0.015617 -0.008196 0.014682 0.000000 0.062008 0.000000
# 6 0.000000 0.000000 0.000000 -0.030065 0.000000 0.108126
#
#
# Mechanical properties :
#
#
# Convention : Reuss Voigt Hill
#
# Bulk Modulus (GPa) = 19.04093 34.81767 26.92930
# Shear Modulus (GPa) = 13.21901 19.26400 16.24151
#
# Velocity S-wave (km/s) = 2.46714 2.97830 2.73469
# Velocity P-wave (km/s) = 4.10893 5.27817 4.72982
#
# Compressibility (1/GPa) = 0.05251844
#
# Stress axis : x y z
#
# Youngs Moduli (GPa) = 25.07460 98.79778 35.87941
#
# Poissons Ratio (x) = 0.59788 0.01043
# Poissons Ratio (y) = 0.15174 0.22731
# Poissons Ratio (z) = 0.00729 0.62593
#
# Static dielectric constant tensor:
#      x y z
#    x 1.833880 0.000000 0.012640 
#    y 0.000000 1.841540 0.000000 
#    z 0.012640 0.000000 1.912440 
# 
# From -- ./inp_files/248644.got.cif
#   From: 2010.05.17/outbox.cif.g08.bks.cpg/sg15_125_cif.got.tgz:248644.got - 2010.06.03 18:47:42.
