data_PCOD9264976
_publ_section_title
;
Structure prediction by ZEFSAII (Michael W. Deem and Ramdas Pophale) SiO2 
 PCOD9264976
Probable space group: C 2/C
;
_chemical_formula_sum "Si O2"
_cell_formula_units_Z 64
_cell_length_a 11.967377
_cell_length_b 20.949779
_cell_length_c 12.204951
_cell_angle_alpha 90.000000
_cell_angle_beta 67.297282
_cell_angle_gamma 90.000000
_cell_volume 2822.865242
_symmetry_space_group_name_H-M "C 2/C"
_symmetry_group_IT_number 15
_symmetry_cell_setting 'monoclinic'
loop_
_space_group_symop_operation_xyz
x,y,z
-x,y,1/2-z
-x,-y,-z
x,-y,1/2+z
1/2+x,1/2+y,z
1/2-x,1/2+y,1/2-z
1/2-x,1/2-y,-z
1/2+x,1/2-y,1/2+z
loop_
_atom_site_type_symbol
_atom_site_label
_atom_site_fract_x
_atom_site_fract_y
_atom_site_fract_z
Si Si1 0.015395 0.315417 0.479459
Si Si2 0.609762 0.291587 0.334544
Si Si3 0.145305 0.126232 0.205650
Si Si4 0.688101 0.474610 0.880404
Si Si5 0.512425 0.424766 0.373073
Si Si6 0.890568 0.395291 0.878089
Si Si7 0.216898 0.321955 0.049558
Si Si8 0.234343 0.779949 0.854615
O O1 0.932791 0.273599 0.593245
O O2 0.926595 0.328973 0.411673
O O3 0.056332 0.380179 0.522966
O O4 0.124896 0.266274 0.424664
O O5 0.516332 0.348614 0.378743
O O6 0.727411 0.321493 0.350971
O O7 0.652883 0.268123 0.200898
O O8 0.178477 0.066668 0.271358
O O9 0.211073 0.131798 0.062961
O O10 0.189828 0.186862 0.258957
O O11 0.000000 0.127598 0.250000
O O12 0.636658 0.543549 0.869356
O O13 0.820253 0.460815 0.879728
O O14 0.593781 0.449464 0.008229
O O15 0.500000 0.442697 0.250000
O O16 0.788386 0.339743 0.900275
O O17 0.000000 0.387283 0.750000
O O18 0.250000 0.250000 0.000000
#
# Coordination Sequence:
#
# PCOD9264976 Si02
#       8
#     8   8   8   8   8   8   8   8
#     4  11  21  35  57  89 130 167 205 255 329 392
#     4  11  22  37  57  94 132 165 206 263 324 383
#     4  11  18  34  61  87 121 163 210 261 310 375
#     4  10  24  44  63  96 116 167 224 264 317 378
#     4  11  25  43  68  91 128 167 213 273 318 383
#     4  11  21  40  63  90 124 160 213 270 312 385
#     4  10  19  36  55  91 132 166 207 258 322 382
#     4  11  22  31  55  89 126 164 197 255 325 389
#
# _framework density 22.671999
#
# number of rings (size 3 to 8) (size 9 to 14) (size 15 to 20)
#    0.000    1.250    3.750    5.250    3.500    1.000 
#    0.000    0.000    2.750    1.500    0.000    0.000 
#    0.000    0.000    0.000    0.000    0.000    0.000 
#
# Total GULP energy -178550.219385 kJ/mol
# GULP energy per Si atom -5579.694356 kJ/mol
# Density = 2.262040 g / cm^3
# Si number density = 22.671999 Si / 1000 Ang^3
#
#
#
# Elastic Constant Matrix: (Units=GPa)
#
#
# Indices 1 2 3 4 5 6 
#
# 1 74.1605 14.0374 -2.9571 0.0000 2.2019 0.0000
# 2 14.0374 53.9495 1.3484 0.0000 6.3341 0.0000
# 3 -2.9571 1.3484 26.5594 0.0000 0.6945 0.0000
# 4 0.0000 0.0000 0.0000 5.0479 0.0000 -8.8374
# 5 2.2019 6.3341 0.6945 0.0000 38.0058 0.0000
# 6 0.0000 0.0000 0.0000 -8.8374 0.0000 29.2041
#
#
#
# Elastic Compliance Matrix: (Units=1/GPa)
#
#
# Indices 1 2 3 4 5 6 
#
# 1 0.014268 -0.003729 0.001784 0.000000 -0.000238 0.000000
# 2 -0.003729 0.019901 -0.001345 0.000000 -0.003076 0.000000
# 3 0.001784 -0.001345 0.037933 0.000000 -0.000572 0.000000
# 4 0.000000 0.000000 0.000000 0.421290 0.000000 0.127486
# 5 -0.000238 -0.003076 -0.000572 0.000000 0.026849 0.000000
# 6 0.000000 0.000000 0.000000 0.127486 0.000000 0.072820
#
#
# Mechanical properties :
#
#
# Convention : Reuss Voigt Hill
#
# Bulk Modulus (GPa) = 15.26198 19.94741 17.60469
# Shear Modulus (GPa) = 8.04528 23.93429 15.98979
#
# Velocity S-wave (km/s) = 1.88580 3.25264 2.65857
# Velocity P-wave (km/s) = 3.38939 4.78786 4.14798
#
# Compressibility (1/GPa) = 0.06552231
#
# Stress axis : x y z
#
# Youngs Moduli (GPa) = 70.08515 50.24880 26.36206
#
# Poissons Ratio (x) = 0.18739 -0.04703
# Poissons Ratio (y) = 0.26136 0.03546
# Poissons Ratio (z) = -0.12504 0.06759
#
# Static dielectric constant tensor:
#      x y z
#    x 1.923370 0.000000 0.008870 
#    y 0.000000 1.829460 0.000000 
#    z 0.008870 0.000000 1.882940 
# 
# From -- ./inp_files/91249.got.cif
#   From: 2010.05.17/outbox.cif.g08.bks.cpg/sg15_46_cif.got.tgz:91249.got - 2010.06.03 18:47:42.
