data_PCOD9264506
_publ_section_title
;
Structure prediction by ZEFSAII (Michael W. Deem and Ramdas Pophale) SiO2 
 PCOD9264506
Probable space group: C 2/C
;
_chemical_formula_sum "Si O2"
_cell_formula_units_Z 48
_cell_length_a 18.737123
_cell_length_b 8.523168
_cell_length_c 13.325618
_cell_angle_alpha 90.000000
_cell_angle_beta 94.469443
_cell_angle_gamma 90.000000
_cell_volume 2121.625028
_symmetry_space_group_name_H-M "C 2/C"
_symmetry_group_IT_number 15
_symmetry_cell_setting 'monoclinic'
loop_
_space_group_symop_operation_xyz
x,y,z
-x,y,1/2-z
-x,-y,-z
x,-y,1/2+z
1/2+x,1/2+y,z
1/2-x,1/2+y,1/2-z
1/2-x,1/2-y,-z
1/2+x,1/2-y,1/2+z
loop_
_atom_site_type_symbol
_atom_site_label
_atom_site_fract_x
_atom_site_fract_y
_atom_site_fract_z
Si Si1 0.555316 0.792063 0.501886
Si Si2 0.078033 0.393295 0.281926
Si Si3 0.195552 0.120119 0.542573
Si Si4 0.750501 0.906630 0.105568
Si Si5 0.403904 0.851964 0.440339
Si Si6 0.714941 0.918543 0.794343
O O1 0.616728 0.684679 0.555697
O O2 0.469886 0.760334 0.499209
O O3 0.572204 0.794809 0.383437
O O4 0.570808 0.966665 0.545856
O O5 0.099513 0.309163 0.179486
O O6 0.134745 0.527596 0.308087
O O7 0.000000 0.459170 0.250000
O O8 0.250000 0.250000 0.500000
O O9 0.191342 0.981873 0.459789
O O10 0.233634 0.036613 0.639623
O O11 0.678869 0.856144 0.036066
O O12 0.772464 0.757467 0.171825
O O13 0.727739 0.044904 0.179285
#
# Coordination Sequence:
#
# PCOD9264506 Si02
#       6
#     8   8   8   8   8   8
#     4  10  19  35  59  89 115 157 198 247 289 363
#     4   9  18  33  57  83 113 152 200 235 284 360
#     4  12  21  37  62  90 119 155 203 255 304 357
#     4  11  23  38  60  88 122 159 202 251 305 366
#     4   9  19  34  58  87 118 152 202 235 298 361
#     4  11  23  37  60  87 120 156 199 252 306 363
#
# _framework density 22.624168000000001
#
# number of rings (size 3 to 8) (size 9 to 14) (size 15 to 20)
#    0.000    1.667    3.333    1.500    4.667    0.000 
#    0.000    0.833    3.667    0.000    0.000    0.000 
#    0.000    0.000    0.000    0.000    0.000    0.000 
#
# Total GULP energy -134040.962492 kJ/mol
# GULP energy per Si atom -5585.040104 kJ/mol
# Density = 2.257267 g / cm^3
# Si number density = 22.624168 Si / 1000 Ang^3
#
#
#
# Elastic Constant Matrix: (Units=GPa)
#
#
# Indices 1 2 3 4 5 6 
#
# 1 99.1359 20.3818 -3.9142 0.0000 31.7691 0.0000
# 2 20.3818 69.8860 14.7354 0.0000 13.5832 0.0000
# 3 -3.9142 14.7354 68.2732 0.0000 6.3520 0.0000
# 4 0.0000 0.0000 0.0000 34.9274 0.0000 -2.5756
# 5 31.7691 13.5832 6.3520 0.0000 37.8697 0.0000
# 6 0.0000 0.0000 0.0000 -2.5756 0.0000 18.4500
#
#
#
# Elastic Compliance Matrix: (Units=1/GPa)
#
#
# Indices 1 2 3 4 5 6 
#
# 1 0.014412 -0.002459 0.002438 0.000000 -0.011617 0.000000
# 2 -0.002459 0.016367 -0.003372 0.000000 -0.003242 0.000000
# 3 0.002438 -0.003372 0.015840 0.000000 -0.003492 0.000000
# 4 0.000000 0.000000 0.000000 0.028929 0.000000 0.004038
# 5 -0.011617 -0.003242 -0.003492 0.000000 0.037900 0.000000
# 6 0.000000 0.000000 0.000000 0.004038 0.000000 0.054764
#
#
# Mechanical properties :
#
#
# Convention : Reuss Voigt Hill
#
# Bulk Modulus (GPa) = 25.10546 33.30012 29.20279
# Shear Modulus (GPa) = 26.55677 31.98890 29.27284
#
# Velocity S-wave (km/s) = 3.42983 3.76430 3.60095
# Velocity P-wave (km/s) = 5.17743 5.80035 5.49772
#
# Compressibility (1/GPa) = 0.03983198
#
# Stress axis : x y z
#
# Youngs Moduli (GPa) = 69.38769 61.09730 63.13329
#
# Poissons Ratio (x) = 0.15025 -0.15391
# Poissons Ratio (y) = 0.17064 0.21288
# Poissons Ratio (z) = -0.16916 0.20602
#
# Static dielectric constant tensor:
#      x y z
#    x 1.871740 0.000000 -0.038710 
#    y 0.000000 1.835830 0.000000 
#    z -0.038710 0.000000 1.893040 
# 
# From -- ./inp_files/166390.got.cif
#   From: 2010.05.17/outbox.cif.g08.bks.cpg/sg15_84_cif.got.tgz:166390.got - 2010.06.03 18:47:42.
