data_PCOD9264346
_publ_section_title
;
Structure prediction by ZEFSAII (Michael W. Deem and Ramdas Pophale) SiO2 
 PCOD9264346
Probable space group: C 2/C
;
_chemical_formula_sum "Si O2"
_cell_formula_units_Z 64
_cell_length_a 8.896062
_cell_length_b 21.622273
_cell_length_c 17.271104
_cell_angle_alpha 90.000000
_cell_angle_beta 85.875799
_cell_angle_gamma 90.000000
_cell_volume 3313.547344
_symmetry_space_group_name_H-M "C 2/C"
_symmetry_group_IT_number 15
_symmetry_cell_setting 'monoclinic'
loop_
_space_group_symop_operation_xyz
x,y,z
-x,y,1/2-z
-x,-y,-z
x,-y,1/2+z
1/2+x,1/2+y,z
1/2-x,1/2+y,1/2-z
1/2-x,1/2-y,-z
1/2+x,1/2-y,1/2+z
loop_
_atom_site_type_symbol
_atom_site_label
_atom_site_fract_x
_atom_site_fract_y
_atom_site_fract_z
Si Si1 0.165905 0.492725 0.728527
Si Si2 0.836503 0.290257 0.217220
Si Si3 0.632826 0.489534 0.055326
Si Si4 0.290766 0.219715 0.416944
Si Si5 0.856890 0.905113 0.298313
Si Si6 0.905726 0.720525 0.177430
Si Si7 0.312623 0.907285 0.624226
Si Si8 0.146918 0.425054 0.567842
O O1 0.289668 0.543086 0.743765
O O2 0.174897 0.438618 0.791835
O O3 0.182172 0.464093 0.643713
O O4 0.000000 0.520830 0.750000
O O5 0.821484 0.241388 0.147305
O O6 0.772408 0.354325 0.185128
O O7 0.715048 0.268853 0.286411
O O8 0.000000 0.294530 0.250000
O O9 0.598365 0.441699 0.125824
O O10 0.678896 0.556242 0.088039
O O11 0.500000 0.500000 0.000000
O O12 0.774386 0.458889 0.006013
O O13 0.250000 0.250000 0.500000
O O14 0.458582 0.241514 0.383478
O O15 0.296772 0.145468 0.424431
O O16 0.000000 0.876149 0.250000
O O17 0.814689 0.665420 0.139610
O O18 0.000000 0.696943 0.250000
O O19 0.466008 0.921521 0.571643
#
# Coordination Sequence:
#
# PCOD9264346 Si02
#       8
#     8   8   8   8   8   8   8   8
#     4   9  17  32  55  81 106 139 184 229 274 333
#     4  11  23  39  60  86 113 152 200 243 287 344
#     4  11  23  36  54  84 118 148 185 233 288 339
#     4  10  20  37  61  86 117 154 191 236 291 345
#     4  11  22  38  56  77 112 151 188 234 287 339
#     4   9  18  37  62  85 111 148 192 237 286 343
#     4   9  18  34  57  82 110 145 185 227 276 341
#     4  10  19  35  58  83 111 147 184 225 282 344
#
# _framework density 19.314647000000001
#
# number of rings (size 3 to 8) (size 9 to 14) (size 15 to 20)
#    0.000    2.000    0.000    6.000    0.000    1.000 
#    0.000   10.000    0.000    0.000    0.000    0.000 
#    0.000    0.000    0.000    0.000    0.000    0.000 
#
# Total GULP energy -178563.875159 kJ/mol
# GULP energy per Si atom -5580.121099 kJ/mol
# Density = 1.927069 g / cm^3
# Si number density = 19.314647 Si / 1000 Ang^3
#
#
#
# Elastic Constant Matrix: (Units=GPa)
#
#
# Indices 1 2 3 4 5 6 
#
# 1 68.4816 33.6800 40.8771 0.0000 14.3221 0.0000
# 2 33.6800 69.0422 20.0499 0.0000 9.2923 0.0000
# 3 40.8771 20.0499 83.6890 0.0000 -6.3963 0.0000
# 4 0.0000 0.0000 0.0000 18.9480 0.0000 -1.9329
# 5 14.3221 9.2923 -6.3963 0.0000 35.7655 0.0000
# 6 0.0000 0.0000 0.0000 -1.9329 0.0000 23.8706
#
#
#
# Elastic Compliance Matrix: (Units=1/GPa)
#
#
# Indices 1 2 3 4 5 6 
#
# 1 0.029198 -0.008883 -0.013029 0.000000 -0.011714 0.000000
# 2 -0.008883 0.019118 -0.000354 0.000000 -0.001473 0.000000
# 3 -0.013029 -0.000354 0.019064 0.000000 0.008719 0.000000
# 4 0.000000 0.000000 0.000000 0.053216 0.000000 0.004309
# 5 -0.011714 -0.001473 0.008719 0.000000 0.034593 0.000000
# 6 0.000000 0.000000 0.000000 0.004309 0.000000 0.042242
#
#
# Mechanical properties :
#
#
# Convention : Reuss Voigt Hill
#
# Bulk Modulus (GPa) = 43.76624 45.60299 44.68461
# Shear Modulus (GPa) = 20.03379 24.15719 22.09549
#
# Velocity S-wave (km/s) = 3.22410 3.54039 3.38594
# Velocity P-wave (km/s) = 6.04720 6.35408 6.20254
#
# Compressibility (1/GPa) = 0.02284866
#
# Stress axis : x y z
#
# Youngs Moduli (GPa) = 34.24877 52.30577 52.45512
#
# Poissons Ratio (x) = 0.46464 0.68342
# Poissons Ratio (y) = 0.30424 0.01857
# Poissons Ratio (z) = 0.44622 0.01852
#
# Static dielectric constant tensor:
#      x y z
#    x 1.695690 0.000000 -0.009310 
#    y 0.000000 1.678110 0.000000 
#    z -0.009310 0.000000 1.655590 
# 
# From -- ./inp_files/137828.got.cif
#   From: 2010.05.17/outbox.cif.g08.bks.cpg/sg15_69_cif.got.tgz:137828.got - 2010.06.03 18:47:42.
