data_PCOD9264752
_publ_section_title
;
Structure prediction by ZEFSAII (Michael W. Deem and Ramdas Pophale) SiO2 
 PCOD9264752
Probable space group: C 2/C
;
_chemical_formula_sum "Si O2"
_cell_formula_units_Z 56
_cell_length_a 20.006660
_cell_length_b 8.486057
_cell_length_c 20.541781
_cell_angle_alpha 90.000000
_cell_angle_beta 130.764545
_cell_angle_gamma 90.000000
_cell_volume 2641.456741
_symmetry_space_group_name_H-M "C 2/C"
_symmetry_group_IT_number 15
_symmetry_cell_setting 'monoclinic'
loop_
_space_group_symop_operation_xyz
x,y,z
-x,y,1/2-z
-x,-y,-z
x,-y,1/2+z
1/2+x,1/2+y,z
1/2-x,1/2+y,1/2-z
1/2-x,1/2-y,-z
1/2+x,1/2-y,1/2+z
loop_
_atom_site_type_symbol
_atom_site_label
_atom_site_fract_x
_atom_site_fract_y
_atom_site_fract_z
Si Si1 0.096532 0.673553 0.338322
Si Si2 0.545712 0.685239 0.379009
Si Si3 0.819840 0.822731 0.222717
Si Si4 0.255337 0.832178 0.803395
Si Si5 0.982067 0.172885 0.596963
Si Si6 0.453516 0.165829 0.481047
Si Si7 0.877445 0.314814 0.190828
O O1 0.170517 0.769974 0.345899
O O2 0.085347 0.712250 0.407313
O O3 0.107712 0.492310 0.324547
O O4 0.000000 0.724653 0.250000
O O5 0.540050 0.504676 0.396939
O O6 0.553144 0.787072 0.448416
O O7 0.458208 0.748526 0.286086
O O8 0.622383 0.710616 0.374574
O O9 0.756577 0.719020 0.228638
O O10 0.918127 0.798638 0.314057
O O11 0.793154 0.003163 0.215094
O O12 0.355173 0.845756 0.890674
O O13 0.206955 0.702858 0.817249
O O14 0.989800 0.209226 0.525516
O O15 0.500000 0.000000 0.500000
#
# Coordination Sequence:
#
# PCOD9264752 Si02
#       7
#     8   8   8   8   8   8   8
#     4  10  19  35  62  95 122 154 209 266 311 365
#     4  11  22  40  64  95 124 165 214 261 322 382
#     4  10  21  34  60  90 123 157 213 262 309 367
#     4  11  23  39  60  94 127 169 208 270 314 373
#     4  10  21  39  64  91 123 164 211 260 311 377
#     4  11  26  41  62  91 133 173 207 259 327 381
#     4  11  22  38  68  95 122 165 215 266 313 374
#
# _framework density 21.200423000000001
#
# number of rings (size 3 to 8) (size 9 to 14) (size 15 to 20)
#    0.000    1.429    2.857    3.000   10.000    0.571 
#    0.000    1.429    0.000    3.429    0.000    0.000 
#    0.000    0.000    0.000    0.000    0.000    0.000 
#
# Total GULP energy -156352.004345 kJ/mol
# GULP energy per Si atom -5584.000155 kJ/mol
# Density = 2.115217 g / cm^3
# Si number density = 21.200423 Si / 1000 Ang^3
#
#
#
# Elastic Constant Matrix: (Units=GPa)
#
#
# Indices 1 2 3 4 5 6 
#
# 1 141.2696 38.6712 23.2937 0.0000 -21.1842 0.0000
# 2 38.6712 90.3558 0.8438 0.0000 -6.9617 0.0000
# 3 23.2937 0.8438 39.3032 0.0000 -20.8827 0.0000
# 4 0.0000 0.0000 0.0000 -90.9392 0.0000 109.8738
# 5 -21.1842 -6.9617 -20.8827 0.0000 22.6369 0.0000
# 6 0.0000 0.0000 0.0000 109.8738 0.0000 -83.8423
#
#
#
# Elastic Compliance Matrix: (Units=1/GPa)
#
#
# Indices 1 2 3 4 5 6 
#
# 1 0.009257 -0.003546 -0.002720 0.000000 0.005063 0.000000
# 2 -0.003546 0.012898 0.004254 0.000000 0.004572 0.000000
# 3 -0.002720 0.004254 0.051597 0.000000 0.046361 0.000000
# 4 0.000000 0.000000 0.000000 0.018851 0.000000 0.024704
# 5 0.005063 0.004572 0.046361 0.000000 0.093089 0.000000
# 6 0.000000 0.000000 0.000000 0.024704 0.000000 0.020446
#
#
# Mechanical properties :
#
#
# Convention : Reuss Voigt Hill
#
# Bulk Modulus (GPa) = 14.34156 44.06064 29.20110
# Shear Modulus (GPa) = 21.42201 -16.55424 2.43389
#
# Velocity S-wave (km/s) = 3.18221 -2.79739 1.07263
# Velocity P-wave (km/s) = 4.50349 3.22400 3.91635
#
# Compressibility (1/GPa) = 0.06972743
#
# Stress axis : x y z
#
# Youngs Moduli (GPa) = 108.02349 77.53277 19.38098
#
# Poissons Ratio (x) = 0.27497 0.05272
# Poissons Ratio (y) = 0.38310 -0.08245
# Poissons Ratio (z) = 0.29384 -0.32985
#
# Static dielectric constant tensor:
#      x y z
#    x 1.812360 0.000000 -0.015670 
#    y 0.000000 1.769200 0.000000 
#    z -0.015670 0.000000 1.760200 
# 
# From -- ./inp_files/247584.got.cif
#   From: 2010.05.17/outbox.cif.g08.bks.cpg/sg15_124_cif.got.tgz:247584.got - 2010.06.03 18:47:42.
