data_PCOD9264255
_publ_section_title
;
Structure prediction by ZEFSAII (Michael W. Deem and Ramdas Pophale) SiO2 
 PCOD9264255
Probable space group: C 2/C
;
_chemical_formula_sum "Si O2"
_cell_formula_units_Z 40
_cell_length_a 9.811618
_cell_length_b 11.561841
_cell_length_c 16.600365
_cell_angle_alpha 90.000000
_cell_angle_beta 119.201363
_cell_angle_gamma 90.000000
_cell_volume 1643.822666
_symmetry_space_group_name_H-M "C 2/C"
_symmetry_group_IT_number 15
_symmetry_cell_setting 'monoclinic'
loop_
_space_group_symop_operation_xyz
x,y,z
-x,y,1/2-z
-x,-y,-z
x,-y,1/2+z
1/2+x,1/2+y,z
1/2-x,1/2+y,1/2-z
1/2-x,1/2-y,-z
1/2+x,1/2-y,1/2+z
loop_
_atom_site_type_symbol
_atom_site_label
_atom_site_fract_x
_atom_site_fract_y
_atom_site_fract_z
Si Si1 0.259219 0.796261 0.874385
Si Si2 0.103843 0.839757 0.214761
Si Si3 0.331147 0.041580 0.894011
Si Si4 0.509383 0.716749 0.426013
Si Si5 0.167186 0.873662 0.489652
O O1 0.260337 0.729614 0.790856
O O2 0.091772 0.818474 0.866823
O O3 0.366960 0.908599 0.889289
O O4 0.351990 0.721575 0.967644
O O5 0.183343 0.935777 0.292926
O O6 0.000000 0.769034 0.250000
O O7 0.985666 0.878043 0.111116
O O8 0.439136 0.152452 0.906844
O O9 0.282797 0.041758 0.975211
O O10 0.384751 0.629362 0.432162
O O11 0.250000 0.750000 0.500000
#
# Coordination Sequence:
#
# PCOD9264255 Si02
#       5
#     8   8   8   8   8
#     4  10  20  36  58  82 116 152 190 247 289 345
#     4   9  19  37  52  77 115 146 189 232 289 358
#     4  10  19  35  57  83 115 153 187 240 303 345
#     4   9  19  36  57  83 113 147 199 242 283 358
#     4   8  16  34  59  76 109 148 185 236 286 349
#
# _framework density 24.333525000000002
#
# number of rings (size 3 to 8) (size 9 to 14) (size 15 to 20)
#    0.000    2.800    0.000    0.600    0.000    1.600 
#   14.400    0.000   17.600    0.000    0.000    0.000 
#    0.000    0.000    0.000    0.000    0.000    0.000 
#
# Total GULP energy -111363.762377 kJ/mol
# GULP energy per Si atom -5568.188119 kJ/mol
# Density = 2.427814 g / cm^3
# Si number density = 24.333525 Si / 1000 Ang^3
#
#
#
# Elastic Constant Matrix: (Units=GPa)
#
#
# Indices 1 2 3 4 5 6 
#
# 1 91.6485 8.7835 44.4132 0.0000 -26.8041 0.0000
# 2 8.7835 47.5824 19.0467 0.0000 -15.2895 0.0000
# 3 44.4132 19.0467 77.8403 0.0000 -16.3982 0.0000
# 4 0.0000 0.0000 0.0000 28.9662 0.0000 5.6872
# 5 -26.8041 -15.2895 -16.3982 0.0000 54.0526 0.0000
# 6 0.0000 0.0000 0.0000 5.6872 0.0000 14.9192
#
#
#
# Elastic Compliance Matrix: (Units=1/GPa)
#
#
# Indices 1 2 3 4 5 6 
#
# 1 0.016833 0.002488 -0.008873 0.000000 0.006359 0.000000
# 2 0.002488 0.025115 -0.006205 0.000000 0.006455 0.000000
# 3 -0.008873 -0.006205 0.019369 0.000000 -0.000279 0.000000
# 4 0.000000 0.000000 0.000000 0.037316 0.000000 -0.014225
# 5 0.006359 0.006455 -0.000279 0.000000 0.023395 0.000000
# 6 0.000000 0.000000 0.000000 -0.014225 0.000000 0.072450
#
#
# Mechanical properties :
#
#
# Convention : Reuss Voigt Hill
#
# Bulk Modulus (GPa) = 27.67320 40.17310 33.92315
# Shear Modulus (GPa) = 21.57927 29.24280 25.41104
#
# Velocity S-wave (km/s) = 2.98117 3.47039 3.23504
# Velocity P-wave (km/s) = 4.82151 5.70993 5.28442
#
# Compressibility (1/GPa) = 0.03613604
#
# Stress axis : x y z
#
# Youngs Moduli (GPa) = 59.40836 39.81684 51.62853
#
# Poissons Ratio (x) = -0.09906 0.45812
# Poissons Ratio (y) = -0.14781 0.32035
# Poissons Ratio (z) = 0.52715 0.24706
#
# Static dielectric constant tensor:
#      x y z
#    x 2.106190 0.000000 0.013430 
#    y 0.000000 1.936570 0.000000 
#    z 0.013430 0.000000 1.953530 
# 
# From -- ./inp_files/142391.got.cif
#   From: 2010.05.17/outbox.cif.g08.bks.cpg/sg15_72_cif.got.tgz:142391.got - 2010.06.03 18:47:42.
