data_PCOD9264109
_publ_section_title
;
Structure prediction by ZEFSAII (Michael W. Deem and Ramdas Pophale) SiO2 
 PCOD9264109
Probable space group: C 2/C
;
_chemical_formula_sum "Si O2"
_cell_formula_units_Z 56
_cell_length_a 14.600127
_cell_length_b 33.206143
_cell_length_c 5.288408
_cell_angle_alpha 90.000000
_cell_angle_beta 96.588981
_cell_angle_gamma 90.000000
_cell_volume 2546.958835
_symmetry_space_group_name_H-M "C 2/C"
_symmetry_group_IT_number 15
_symmetry_cell_setting 'monoclinic'
loop_
_space_group_symop_operation_xyz
x,y,z
-x,y,1/2-z
-x,-y,-z
x,-y,1/2+z
1/2+x,1/2+y,z
1/2-x,1/2+y,1/2-z
1/2-x,1/2-y,-z
1/2+x,1/2-y,1/2+z
loop_
_atom_site_type_symbol
_atom_site_label
_atom_site_fract_x
_atom_site_fract_y
_atom_site_fract_z
Si Si1 0.856910 0.020170 0.516348
Si Si2 0.701982 0.767174 0.735994
Si Si3 0.000000 0.284018 0.750000
Si Si4 0.500000 0.161533 0.750000
Si Si5 0.939187 0.892342 0.981178
Si Si6 0.758913 0.141028 0.299095
Si Si7 0.677483 0.893525 0.287407
Si Si8 0.148081 0.513307 0.891891
O O1 0.879231 0.066751 0.492132
O O2 0.895428 0.995385 0.292859
O O3 0.747924 0.008556 0.473092
O O4 0.750000 0.750000 0.500000
O O5 0.592684 0.759388 0.719426
O O6 0.715680 0.815269 0.745982
O O7 0.750000 0.750000 0.000000
O O8 0.984200 0.311324 0.494347
O O9 0.412285 0.132983 0.680821
O O10 0.865225 0.857143 0.915119
O O11 0.000000 0.896524 0.750000
O O12 0.000000 0.887143 0.250000
O O13 0.707995 0.118357 0.514266
O O14 0.750884 0.117989 0.028912
O O15 0.659064 0.940588 0.315401
O O16 0.101671 0.510267 0.148990
#
# Coordination Sequence:
#
# PCOD9264109 Si02
#       8
#     8   8   4   4   8   8   8   8
#     4  10  19  35  55  83 118 168 226 281 345 396
#     4  12  26  48  77 114 147 187 230 287 365 438
#     4  12  24  50  76 113 152 180 242 302 338 437
#     4  12  22  42  74 111 134 184 238 302 340 411
#     4  12  26  42  62  92 132 180 236 290 343 416
#     4  12  24  46  71  97 141 178 235 286 351 432
#     4  12  22  41  72 101 133 183 233 294 355 419
#     4  10  20  35  57  90 129 174 229 280 359 413
#
# _framework density 21.987006999999998
#
# number of rings (size 3 to 8) (size 9 to 14) (size 15 to 20)
#    0.000    0.571    2.857    7.714    0.000    1.714 
#    3.857    0.714    0.000    0.000    0.000    0.000 
#    0.000    0.000    0.000    0.000    0.000    0.000 
#
# Total GULP energy -156651.359272 kJ/mol
# GULP energy per Si atom -5594.691403 kJ/mol
# Density = 2.193696 g / cm^3
# Si number density = 21.987007 Si / 1000 Ang^3
#
#
#
# Elastic Constant Matrix: (Units=GPa)
#
#
# Indices 1 2 3 4 5 6 
#
# 1 119.8199 7.5070 13.7576 0.0000 -5.3902 0.0000
# 2 7.5070 53.1202 25.1588 0.0000 -7.2614 0.0000
# 3 13.7576 25.1588 138.9683 0.0000 -19.2182 0.0000
# 4 0.0000 0.0000 0.0000 31.4781 0.0000 10.2691
# 5 -5.3902 -7.2614 -19.2182 0.0000 26.6222 0.0000
# 6 0.0000 0.0000 0.0000 10.2691 0.0000 25.9713
#
#
#
# Elastic Compliance Matrix: (Units=1/GPa)
#
#
# Indices 1 2 3 4 5 6 
#
# 1 0.008508 -0.000792 -0.000545 0.000000 0.001113 0.000000
# 2 -0.000792 0.020921 -0.003268 0.000000 0.003186 0.000000
# 3 -0.000545 -0.003268 0.008557 0.000000 0.005176 0.000000
# 4 0.000000 0.000000 0.000000 0.036473 0.000000 -0.014422
# 5 0.001113 0.003186 0.005176 0.000000 0.042393 0.000000
# 6 0.000000 0.000000 0.000000 -0.014422 0.000000 0.044206
#
#
# Mechanical properties :
#
#
# Convention : Reuss Voigt Hill
#
# Bulk Modulus (GPa) = 34.75211 44.97280 39.86245
# Shear Modulus (GPa) = 27.79917 34.51330 31.15623
#
# Velocity S-wave (km/s) = 3.55962 3.96626 3.76843
# Velocity P-wave (km/s) = 5.72142 6.44000 6.09131
#
# Compressibility (1/GPa) = 0.02877524
#
# Stress axis : x y z
#
# Youngs Moduli (GPa) = 117.53454 47.79947 116.85944
#
# Poissons Ratio (x) = 0.03786 0.06368
# Poissons Ratio (y) = 0.09310 0.38194
# Poissons Ratio (z) = 0.06405 0.15623
#
# Static dielectric constant tensor:
#      x y z
#    x 1.849570 0.000000 -0.034330 
#    y 0.000000 1.762450 0.000000 
#    z -0.034330 0.000000 1.844680 
# 
# From -- ./inp_files/9106.got.cif
#   From: 2010.05.17/outbox.cif.g08.bks.cpg/sg15_5_cif.got.tgz:9106.got - 2010.06.03 18:47:42.
