data_PCOD9264761
_publ_section_title
;
Structure prediction by ZEFSAII (Michael W. Deem and Ramdas Pophale) SiO2 
 PCOD9264761
Probable space group: C 2/C
;
_chemical_formula_sum "Si O2"
_cell_formula_units_Z 40
_cell_length_a 6.049619
_cell_length_b 21.147234
_cell_length_c 15.939632
_cell_angle_alpha 90.000000
_cell_angle_beta 117.486088
_cell_angle_gamma 90.000000
_cell_volume 1809.021330
_symmetry_space_group_name_H-M "C 2/C"
_symmetry_group_IT_number 15
_symmetry_cell_setting 'monoclinic'
loop_
_space_group_symop_operation_xyz
x,y,z
-x,y,1/2-z
-x,-y,-z
x,-y,1/2+z
1/2+x,1/2+y,z
1/2-x,1/2+y,1/2-z
1/2-x,1/2-y,-z
1/2+x,1/2-y,1/2+z
loop_
_atom_site_type_symbol
_atom_site_label
_atom_site_fract_x
_atom_site_fract_y
_atom_site_fract_z
Si Si1 0.600208 0.807544 0.513121
Si Si2 0.645161 0.633179 0.855328
Si Si3 0.477165 0.877797 0.648307
Si Si4 0.572767 0.412582 0.013620
Si Si5 0.978910 0.516291 0.847649
O O1 0.750000 0.750000 0.500000
O O2 0.330037 0.814434 0.424169
O O3 0.564783 0.819936 0.605683
O O4 0.746901 0.868641 0.507795
O O5 0.500000 0.657389 0.750000
O O6 0.464265 0.612671 0.898244
O O7 0.797610 0.570248 0.852513
O O8 0.500000 0.863647 0.750000
O O9 0.194985 0.898271 0.575239
O O10 0.617068 0.944840 0.654471
O O11 0.749466 0.474052 0.059827
O O12 0.000000 0.523396 0.750000
#
# Coordination Sequence:
#
# PCOD9264761 Si02
#       5
#     8   8   8   8   8
#     4  10  24  44  63  87 129 169 223 274 311 375
#     4  10  20  37  64  96 124 165 216 261 329 386
#     4  10  23  40  61  94 129 171 214 257 330 394
#     4  10  21  38  62  89 131 162 215 262 324 379
#     4  10  19  35  62  96 131 164 207 265 328 395
#
# _framework density 22.111402999999999
#
# number of rings (size 3 to 8) (size 9 to 14) (size 15 to 20)
#    0.000    2.000    2.000    0.600    0.000   12.800 
#    0.000    6.000    0.000    0.000    0.000    0.000 
#    0.000    0.000    0.000    0.000    0.000    0.000 
#
# Total GULP energy -111542.214274 kJ/mol
# GULP energy per Si atom -5577.110714 kJ/mol
# Density = 2.206108 g / cm^3
# Si number density = 22.111403 Si / 1000 Ang^3
#
#
#
# Elastic Constant Matrix: (Units=GPa)
#
#
# Indices 1 2 3 4 5 6 
#
# 1 46.6140 20.4107 28.4015 0.0000 -19.6630 0.0000
# 2 20.4107 70.4800 48.4079 0.0000 -16.6735 0.0000
# 3 28.4015 48.4079 159.8557 0.0000 -27.5375 0.0000
# 4 0.0000 0.0000 0.0000 19.9429 0.0000 -11.2172
# 5 -19.6630 -16.6735 -27.5375 0.0000 24.2029 0.0000
# 6 0.0000 0.0000 0.0000 -11.2172 0.0000 38.3312
#
#
#
# Elastic Compliance Matrix: (Units=1/GPa)
#
#
# Indices 1 2 3 4 5 6 
#
# 1 0.033578 -0.003524 -0.000768 0.000000 0.023978 0.000000
# 2 -0.003524 0.019508 -0.004303 0.000000 0.005681 0.000000
# 3 -0.000768 -0.004303 0.008802 0.000000 0.006427 0.000000
# 4 0.000000 0.000000 0.000000 0.060023 0.000000 0.017565
# 5 0.023978 0.005681 0.006427 0.000000 0.072023 0.000000
# 6 0.000000 0.000000 0.000000 0.017565 0.000000 0.031229
#
#
# Mechanical properties :
#
#
# Convention : Reuss Voigt Hill
#
# Bulk Modulus (GPa) = 22.37192 52.37663 37.37428
# Shear Modulus (GPa) = 19.43608 28.47736 23.95672
#
# Velocity S-wave (km/s) = 2.96802 3.59263 3.29516
# Velocity P-wave (km/s) = 4.67818 6.39909 5.60507
#
# Compressibility (1/GPa) = 0.04469889
#
# Stress axis : x y z
#
# Youngs Moduli (GPa) = 29.78097 51.26055 113.60799
#
# Poissons Ratio (x) = 0.18065 0.08726
# Poissons Ratio (y) = 0.10495 0.48884
# Poissons Ratio (z) = 0.02287 0.22057
#
# Static dielectric constant tensor:
#      x y z
#    x 1.886600 0.000000 -0.074150 
#    y 0.000000 1.844360 0.000000 
#    z -0.074150 0.000000 2.001000 
# 
# From -- ./inp_files/129118.got.cif
#   From: 2010.05.17/outbox.cif.g08.bks.cpg/sg15_65_cif.got.tgz:129118.got - 2010.06.03 18:47:42.
