data_PCOD9264086
_publ_section_title
;
Structure prediction by ZEFSAII (Michael W. Deem and Ramdas Pophale) SiO2 
 PCOD9264086
Probable space group: C 2/C
;
_chemical_formula_sum "Si O2"
_cell_formula_units_Z 64
_cell_length_a 16.991001
_cell_length_b 21.744056
_cell_length_c 16.768780
_cell_angle_alpha 90.000000
_cell_angle_beta 35.143751
_cell_angle_gamma 90.000000
_cell_volume 3566.188346
_symmetry_space_group_name_H-M "C 2/C"
_symmetry_group_IT_number 15
_symmetry_cell_setting 'monoclinic'
loop_
_space_group_symop_operation_xyz
x,y,z
-x,y,1/2-z
-x,-y,-z
x,-y,1/2+z
1/2+x,1/2+y,z
1/2-x,1/2+y,1/2-z
1/2-x,1/2-y,-z
1/2+x,1/2-y,1/2+z
loop_
_atom_site_type_symbol
_atom_site_label
_atom_site_fract_x
_atom_site_fract_y
_atom_site_fract_z
Si Si1 0.625612 0.301353 0.888678
Si Si2 0.056361 0.308409 0.928403
Si Si3 0.900829 0.163894 0.901795
Si Si4 0.101395 0.644198 0.091281
Si Si5 0.411437 0.526113 0.946181
Si Si6 0.367181 0.005157 0.414776
Si Si7 0.889559 0.064234 0.149008
Si Si8 0.410950 0.943521 0.539202
O O1 0.785302 0.293732 0.728492
O O2 0.577667 0.363527 0.883989
O O3 0.523055 0.244963 0.958538
O O4 0.610110 0.312369 0.997702
O O5 0.040901 0.373929 0.985623
O O6 0.972103 0.319571 0.917196
O O7 0.942531 0.091734 0.879477
O O8 0.000000 0.190184 0.750000
O O9 0.748455 0.169257 0.993600
O O10 0.126165 0.572598 0.049599
O O11 0.000000 0.644177 0.250000
O O12 0.525082 0.473011 0.855359
O O13 0.269870 0.503901 0.024437
O O14 0.401146 0.540752 0.048611
O O15 0.500000 0.000726 0.250000
O O16 0.380035 0.955392 0.472579
O O17 0.732197 0.054491 0.297501
O O18 0.500000 0.000000 0.500000
#
# Coordination Sequence:
#
# PCOD9264086 Si02
#       8
#     8   8   8   8   8   8   8   8
#     4  10  23  41  54  78 115 158 198 234 287 342
#     4  11  23  40  58  81 113 158 199 239 284 345
#     4  10  21  32  53  87 117 147 192 232 278 352
#     4  10  19  35  55  78 118 154 183 235 282 339
#     4   9  19  35  56  84 117 150 182 240 292 342
#     4  10  20  34  57  88 118 145 184 237 298 345
#     4   9  20  38  57  83 121 151 187 236 295 340
#     4  11  21  36  60  88 113 148 195 241 292 344
#
# _framework density 17.946332000000002
#
# number of rings (size 3 to 8) (size 9 to 14) (size 15 to 20)
#    0.000    2.000    2.500    0.750    8.750    1.000 
#    6.750    0.000    0.000    0.750    0.000    0.000 
#    0.000    0.000    0.000    0.000    0.000    0.000 
#
# Total GULP energy -178289.524649 kJ/mol
# GULP energy per Si atom -5571.547645 kJ/mol
# Density = 1.790549 g / cm^3
# Si number density = 17.946332 Si / 1000 Ang^3
#
#
#
# Elastic Constant Matrix: (Units=GPa)
#
#
# Indices 1 2 3 4 5 6 
#
# 1 47.4757 39.3055 6.1780 0.0010 -12.6087 0.0005
# 2 39.3055 122.7949 47.7666 0.0007 -18.1138 -0.0001
# 3 6.1780 47.7666 60.0511 -0.0013 -8.5580 0.0021
# 4 0.0010 0.0007 -0.0013 27.3918 -0.0017 0.4058
# 5 -12.6087 -18.1138 -8.5580 -0.0017 21.5864 0.0005
# 6 0.0005 -0.0001 0.0021 0.4058 0.0005 21.6349
#
#
#
# Elastic Compliance Matrix: (Units=1/GPa)
#
#
# Indices 1 2 3 4 5 6 
#
# 1 0.033127 -0.011762 0.007736 0.000000 0.012546 -0.000002
# 2 -0.011762 0.016911 -0.011869 0.000000 0.002615 0.000001
# 3 0.007736 -0.011869 0.025991 0.000002 0.004863 -0.000003
# 4 0.000000 0.000000 0.000002 0.036517 0.000003 -0.000685
# 5 0.012546 0.002615 0.004863 0.000003 0.057776 -0.000002
# 6 -0.000002 0.000001 -0.000003 -0.000685 -0.000002 0.046234
#
#
# Mechanical properties :
#
#
# Convention : Reuss Voigt Hill
#
# Bulk Modulus (GPa) = 22.60486 46.31354 34.45920
# Shear Modulus (GPa) = 19.00468 23.26075 21.13271
#
# Velocity S-wave (km/s) = 3.25772 3.60408 3.43527
# Velocity P-wave (km/s) = 5.17431 6.57130 5.91419
#
# Compressibility (1/GPa) = 0.04423827
#
# Stress axis : x y z
#
# Youngs Moduli (GPa) = 30.18715 59.13195 38.47524
#
# Poissons Ratio (x) = 0.69551 -0.29764
# Poissons Ratio (y) = 0.35506 0.45667
# Poissons Ratio (z) = -0.23352 0.70184
#
# Static dielectric constant tensor:
#      x y z
#    x 1.631920 0.000000 0.172420 
#    y 0.000000 1.695590 0.000030 
#    z 0.172420 0.000030 2.592750 
# 
# From -- ./inp_files/211951.got.cif
#   From: 2010.05.17/outbox.cif.g08.bks.cpg/sg15_106_cif.got.tgz:211951.got - 2010.06.03 18:47:42.
