data_PCOD9264475
_publ_section_title
;
Structure prediction by ZEFSAII (Michael W. Deem and Ramdas Pophale) SiO2 
 PCOD9264475
Probable space group: C 2/C
;
_chemical_formula_sum "Si O2"
_cell_formula_units_Z 64
_cell_length_a 31.023354
_cell_length_b 15.073351
_cell_length_c 9.098657
_cell_angle_alpha 90.000000
_cell_angle_beta 49.475758
_cell_angle_gamma 90.000000
_cell_volume 3234.181317
_symmetry_space_group_name_H-M "C 2/C"
_symmetry_group_IT_number 15
_symmetry_cell_setting 'monoclinic'
loop_
_space_group_symop_operation_xyz
x,y,z
-x,y,1/2-z
-x,-y,-z
x,-y,1/2+z
1/2+x,1/2+y,z
1/2-x,1/2+y,1/2-z
1/2-x,1/2-y,-z
1/2+x,1/2-y,1/2+z
loop_
_atom_site_type_symbol
_atom_site_label
_atom_site_fract_x
_atom_site_fract_y
_atom_site_fract_z
Si Si1 0.141466 0.564501 0.288637
Si Si2 0.116083 0.001181 0.637003
Si Si3 0.462952 0.937177 0.973812
Si Si4 0.052267 0.087635 0.031507
Si Si5 0.612454 0.215927 0.751928
Si Si6 0.831915 0.111953 0.226103
Si Si7 0.059944 0.285450 0.054290
Si Si8 0.799093 0.573240 0.036257
O O1 0.093961 0.491756 0.435355
O O2 0.100491 0.651266 0.367315
O O3 0.183267 0.577608 0.332727
O O4 0.178916 0.522387 0.074516
O O5 0.140094 0.082593 0.489987
O O6 0.102179 0.932298 0.537614
O O7 0.157141 0.956311 0.663792
O O8 0.064840 0.033680 0.855942
O O9 0.500000 0.924734 0.750000
O O10 0.441759 0.840824 0.073350
O O11 0.500000 0.000000 0.000000
O O12 0.045885 0.191587 0.011063
O O13 0.000000 0.059797 0.250000
O O14 0.636157 0.298842 0.790569
O O15 0.595505 0.237943 0.622149
O O16 0.662824 0.145132 0.631677
O O17 0.764983 0.103463 0.347291
O O18 0.000000 0.325197 0.250000
#
# Coordination Sequence:
#
# PCOD9264475 Si02
#       8
#     8   8   8   8   8   8   8   8
#     4  10  20  36  58  90 116 159 202 243 300 377
#     4  10  22  38  62  81 115 152 203 259 296 369
#     4  11  21  38  61  92 128 160 195 244 308 372
#     4  10  20  38  59  86 112 155 194 243 315 366
#     4  10  21  37  58  89 119 159 199 252 296 367
#     4  11  21  41  60  84 116 157 209 254 308 348
#     4  10  19  35  59  85 123 156 189 239 312 370
#     4  10  21  37  61  82 117 161 202 252 309 354
#
# _framework density 19.788625
#
# number of rings (size 3 to 8) (size 9 to 14) (size 15 to 20)
#    0.000    1.750    1.250    4.875    0.000    0.000 
#   11.250    0.625    0.000    3.000    0.000    0.000 
#    0.000    0.000    0.000    0.000    0.000    0.000 
#
# Total GULP energy -178170.459164 kJ/mol
# GULP energy per Si atom -5567.826849 kJ/mol
# Density = 1.974359 g / cm^3
# Si number density = 19.788625 Si / 1000 Ang^3
#
#
#
# Elastic Constant Matrix: (Units=GPa)
#
#
# Indices 1 2 3 4 5 6 
#
# 1 89.1577 25.8646 21.0260 0.0000 -10.3877 0.0000
# 2 25.8646 73.6094 23.6724 0.0000 1.8616 0.0000
# 3 21.0260 23.6724 78.9958 0.0000 -1.8072 0.0000
# 4 0.0000 0.0000 0.0000 22.7580 0.0000 0.4774
# 5 -10.3877 1.8616 -1.8072 0.0000 26.7715 0.0000
# 6 0.0000 0.0000 0.0000 0.4774 0.0000 20.0478
#
#
#
# Elastic Compliance Matrix: (Units=1/GPa)
#
#
# Indices 1 2 3 4 5 6 
#
# 1 0.013591 -0.004193 -0.002237 0.000000 0.005414 0.000000
# 2 -0.004193 0.016377 -0.003861 0.000000 -0.003026 0.000000
# 3 -0.002237 -0.003861 0.014420 0.000000 0.000374 0.000000
# 4 0.000000 0.000000 0.000000 0.043963 0.000000 -0.001047
# 5 0.005414 -0.003026 0.000374 0.000000 0.039690 0.000000
# 6 0.000000 0.000000 0.000000 -0.001047 0.000000 0.049906
#
#
# Mechanical properties :
#
#
# Convention : Reuss Voigt Hill
#
# Bulk Modulus (GPa) = 42.00672 42.54322 42.27497
# Shear Modulus (GPa) = 24.21753 25.32877 24.77315
#
# Velocity S-wave (km/s) = 3.50210 3.58154 3.54204
# Velocity P-wave (km/s) = 6.13406 6.21681 6.17557
#
# Compressibility (1/GPa) = 0.02380571
#
# Stress axis : x y z
#
# Youngs Moduli (GPa) = 73.57919 61.06242 69.34900
#
# Poissons Ratio (x) = 0.25603 0.15514
# Poissons Ratio (y) = 0.30852 0.26774
# Poissons Ratio (z) = 0.16460 0.23575
#
# Static dielectric constant tensor:
#      x y z
#    x 1.725570 0.000000 -0.020940 
#    y 0.000000 1.758770 0.000000 
#    z -0.020940 0.000000 1.696700 
# 
# From -- ./inp_files/70118.got.cif
#   From: 2010.05.17/outbox.cif.g08.bks.cpg/sg15_36_cif.got.tgz:70118.got - 2010.06.03 18:47:42.
