data_PCOD9264439
_publ_section_title
;
Structure prediction by ZEFSAII (Michael W. Deem and Ramdas Pophale) SiO2 
 PCOD9264439
Probable space group: C 2/C
;
_chemical_formula_sum "Si O2"
_cell_formula_units_Z 64
_cell_length_a 22.727758
_cell_length_b 12.091889
_cell_length_c 17.023091
_cell_angle_alpha 90.000000
_cell_angle_beta 131.439017
_cell_angle_gamma 90.000000
_cell_volume 3507.145885
_symmetry_space_group_name_H-M "C 2/C"
_symmetry_group_IT_number 15
_symmetry_cell_setting 'monoclinic'
loop_
_space_group_symop_operation_xyz
x,y,z
-x,y,1/2-z
-x,-y,-z
x,-y,1/2+z
1/2+x,1/2+y,z
1/2-x,1/2+y,1/2-z
1/2-x,1/2-y,-z
1/2+x,1/2-y,1/2+z
loop_
_atom_site_type_symbol
_atom_site_label
_atom_site_fract_x
_atom_site_fract_y
_atom_site_fract_z
Si Si1 0.021113 0.250115 0.951614
Si Si2 0.765610 0.976745 0.864936
Si Si3 0.367955 0.117492 0.357495
Si Si4 0.444547 0.428512 0.271315
Si Si5 0.759164 0.713031 0.708884
Si Si6 0.284094 0.371332 0.047349
Si Si7 0.613109 0.612524 0.158052
Si Si8 0.333172 0.901977 0.425283
O O1 0.952770 0.336948 0.911168
O O2 0.990420 0.165359 0.859841
O O3 0.047514 0.178705 0.050931
O O4 0.097371 0.318129 0.992009
O O5 0.685658 0.917699 0.764537
O O6 0.830738 0.949124 0.855998
O O7 0.750235 0.107105 0.853751
O O8 0.792200 0.930735 0.971298
O O9 0.319539 0.216459 0.354900
O O10 0.366903 0.010419 0.412559
O O11 0.500000 0.469635 0.250000
O O12 0.366251 0.375297 0.165191
O O13 0.420440 0.525567 0.309961
O O14 0.829992 0.796297 0.752005
O O15 0.780396 0.662133 0.813609
O O16 0.220738 0.429157 0.048478
O O17 0.250000 0.250000 0.000000
#
# Coordination Sequence:
#
# PCOD9264439 Si02
#       8
#     8   8   8   8   8   8   8   8
#     4  11  21  36  59  83 112 149 188 227 279 335
#     4  10  20  36  59  84 110 149 190 227 277 337
#     4  10  19  35  59  83 109 147 188 232 274 332
#     4  12  24  37  56  86 115 143 181 233 284 330
#     4   9  18  36  59  80 106 147 191 228 274 334
#     4  12  22  37  57  83 115 146 182 234 286 333
#     4  10  21  39  58  81 112 147 188 230 274 339
#     4  10  21  36  55  84 114 144 188 235 279 330
#
# _framework density 18.248456999999998
#
# number of rings (size 3 to 8) (size 9 to 14) (size 15 to 20)
#    0.000    1.500    0.000    9.000    0.000    1.000 
#    0.000    3.750    0.000    0.000    0.000    0.000 
#    0.000    0.000    0.000    0.000    0.000    0.000 
#
# Total GULP energy -178819.803577 kJ/mol
# GULP energy per Si atom -5588.118862 kJ/mol
# Density = 1.820692 g / cm^3
# Si number density = 18.248457 Si / 1000 Ang^3
#
#
#
# Elastic Constant Matrix: (Units=GPa)
#
#
# Indices 1 2 3 4 5 6 
#
# 1 99.9768 38.4474 29.5499 0.0000 0.0978 0.0000
# 2 38.4474 95.0097 28.2988 0.0000 -1.5438 0.0000
# 3 29.5499 28.2988 69.9854 0.0000 10.7737 0.0000
# 4 0.0000 0.0000 0.0000 24.1280 0.0000 7.5360
# 5 0.0978 -1.5438 10.7737 0.0000 19.4584 0.0000
# 6 0.0000 0.0000 0.0000 7.5360 0.0000 22.4725
#
#
#
# Elastic Compliance Matrix: (Units=1/GPa)
#
#
# Indices 1 2 3 4 5 6 
#
# 1 0.012704 -0.003895 -0.004079 0.000000 0.001886 0.000000
# 2 -0.003895 0.013448 -0.004329 0.000000 0.003483 0.000000
# 3 -0.004079 -0.004329 0.019471 0.000000 -0.011104 0.000000
# 4 0.000000 0.000000 0.000000 0.046294 0.000000 -0.015525
# 5 0.001886 0.003483 -0.011104 0.000000 0.057806 0.000000
# 6 0.000000 0.000000 0.000000 -0.015525 0.000000 0.049705
#
#
# Mechanical properties :
#
#
# Convention : Reuss Voigt Hill
#
# Bulk Modulus (GPa) = 47.58452 50.84045 49.21248
# Shear Modulus (GPa) = 21.64120 24.45684 23.04902
#
# Velocity S-wave (km/s) = 3.44745 3.66487 3.55782
# Velocity P-wave (km/s) = 6.47913 6.76971 6.62601
#
# Compressibility (1/GPa) = 0.02101524
#
# Stress axis : x y z
#
# Youngs Moduli (GPa) = 78.71423 74.36280 51.35874
#
# Poissons Ratio (x) = 0.28967 0.20951
# Poissons Ratio (y) = 0.30662 0.22234
# Poissons Ratio (z) = 0.32110 0.32192
#
# Static dielectric constant tensor:
#      x y z
#    x 1.620200 0.000000 0.009790 
#    y 0.000000 1.623970 0.000000 
#    z 0.009790 0.000000 1.622080 
# 
# From -- ./inp_files/215080.got.cif
#   From: 2010.05.17/outbox.cif.g08.bks.cpg/sg15_108_cif.got.tgz:215080.got - 2010.06.03 18:47:42.
