data_PCOD9264101
_publ_section_title
;
Structure prediction by ZEFSAII (Michael W. Deem and Ramdas Pophale) SiO2 
 PCOD9264101
Probable space group: C 2/C
;
_chemical_formula_sum "Si O2"
_cell_formula_units_Z 64
_cell_length_a 20.491857
_cell_length_b 27.131513
_cell_length_c 14.434039
_cell_angle_alpha 90.000000
_cell_angle_beta 152.373181
_cell_angle_gamma 90.000000
_cell_volume 3721.263416
_symmetry_space_group_name_H-M "C 2/C"
_symmetry_group_IT_number 15
_symmetry_cell_setting 'monoclinic'
loop_
_space_group_symop_operation_xyz
x,y,z
-x,y,1/2-z
-x,-y,-z
x,-y,1/2+z
1/2+x,1/2+y,z
1/2-x,1/2+y,1/2-z
1/2-x,1/2-y,-z
1/2+x,1/2-y,1/2+z
loop_
_atom_site_type_symbol
_atom_site_label
_atom_site_fract_x
_atom_site_fract_y
_atom_site_fract_z
Si Si1 0.588340 0.690592 0.268214
Si Si2 0.597033 0.585729 0.788523
Si Si3 0.116237 0.541753 0.823238
Si Si4 0.915224 0.114972 0.933987
Si Si5 0.419944 0.926593 0.743464
Si Si6 0.109194 0.615218 0.643675
Si Si7 0.906440 0.307331 0.223029
Si Si8 0.062521 0.969900 0.728224
O O1 0.500000 0.681379 0.250000
O O2 0.748846 0.678425 0.493819
O O3 0.584301 0.749062 0.243823
O O4 0.519225 0.656914 0.103290
O O5 0.500000 0.604120 0.750000
O O6 0.590758 0.614384 0.684218
O O7 0.550477 0.529089 0.707241
O O8 0.756147 0.585038 0.025719
O O9 0.072773 0.486059 0.741810
O O10 0.123853 0.573189 0.740006
O O11 0.000000 0.560340 0.750000
O O12 0.270911 0.541186 0.063579
O O13 0.760160 0.122018 0.783362
O O14 0.977712 0.062562 0.048085
O O15 0.500000 0.912092 0.750000
O O16 0.495913 0.901484 0.925333
O O17 0.062228 0.662308 0.644914
O O18 0.000000 0.316929 0.250000
O O19 0.000000 0.955502 0.750000
#
# Coordination Sequence:
#
# PCOD9264101 Si02
#       8
#     8   8   8   8   8   8   8   8
#     4  10  20  38  60  87 118 143 171 225 291 343
#     4  10  23  38  54  80 115 150 189 237 273 309
#     4  10  21  34  52  82 119 146 181 232 278 322
#     4  12  21  35  62  84 106 150 196 224 272 339
#     4  10  21  38  54  77 115 156 189 229 274 317
#     4  12  21  35  60  84 108 152 194 224 270 338
#     4  10  22  37  58  89 120 140 171 228 289 339
#     4  10  19  35  55  82 116 146 183 229 278 333
#
# _framework density 17.198460000000001
#
# number of rings (size 3 to 8) (size 9 to 14) (size 15 to 20)
#    0.000    1.500    3.750    2.250    0.000    2.000 
#    0.000    0.000    0.000    1.500    0.000    0.000 
#    0.000    0.000    0.000    0.000    0.000    0.000 
#
# Total GULP energy -178664.673836 kJ/mol
# GULP energy per Si atom -5583.271057 kJ/mol
# Density = 1.715932 g / cm^3
# Si number density = 17.198460 Si / 1000 Ang^3
#
#
#
# Elastic Constant Matrix: (Units=GPa)
#
#
# Indices 1 2 3 4 5 6 
#
# 1 108.6109 16.5528 27.9603 0.0000 -0.7462 0.0000
# 2 16.5528 47.0016 29.6466 0.0000 -12.2080 0.0000
# 3 27.9603 29.6466 60.6412 0.0000 -4.9627 0.0000
# 4 0.0000 0.0000 0.0000 -93.1389 0.0000 -182.7457
# 5 -0.7462 -12.2080 -4.9627 0.0000 35.7991 0.0000
# 6 0.0000 0.0000 0.0000 -182.7457 0.0000 -257.6497
#
#
#
# Elastic Compliance Matrix: (Units=1/GPa)
#
#
# Indices 1 2 3 4 5 6 
#
# 1 0.010495 -0.001165 -0.004333 0.000000 -0.000779 0.000000
# 2 -0.001165 0.033682 -0.015163 0.000000 0.009360 0.000000
# 3 -0.004333 -0.015163 0.025763 0.000000 -0.001690 0.000000
# 4 0.000000 0.000000 0.000000 0.027413 0.000000 -0.019444
# 5 -0.000779 0.009360 -0.001690 0.000000 0.030875 0.000000
# 6 0.000000 0.000000 0.000000 -0.019444 0.000000 0.009910
#
#
# Mechanical properties :
#
#
# Convention : Reuss Voigt Hill
#
# Bulk Modulus (GPa) = 34.94490 40.50812 37.72651
# Shear Modulus (GPa) = 26.45515 -53.52497 -13.53491
#
# Velocity S-wave (km/s) = 3.92628 -5.58476 -2.80837
# Velocity P-wave (km/s) = 6.39664 4.24047 3.38640
#
# Compressibility (1/GPa) = 0.02861648
#
# Stress axis : x y z
#
# Youngs Moduli (GPa) = 95.28429 29.68983 38.81532
#
# Poissons Ratio (x) = 0.03460 0.16819
# Poissons Ratio (y) = 0.11104 0.58856
# Poissons Ratio (z) = 0.41287 0.45019
#
# Static dielectric constant tensor:
#      x y z
#    x 1.563020 0.000000 0.018280 
#    y 0.000000 1.596070 0.000000 
#    z 0.018280 0.000000 1.563360 
# 
# From -- ./inp_files/108672.got.cif
#   From: 2010.05.17/outbox.cif.g08.bks.cpg/sg15_55_cif.got.tgz:108672.got - 2010.06.03 18:47:42.
