data_PCOD9264435
_publ_section_title
;
Structure prediction by ZEFSAII (Michael W. Deem and Ramdas Pophale) SiO2 
 PCOD9264435
Probable space group: C 2/C
;
_chemical_formula_sum "Si O2"
_cell_formula_units_Z 60
_cell_length_a 7.934043
_cell_length_b 32.174693
_cell_length_c 10.423988
_cell_angle_alpha 90.000000
_cell_angle_beta 63.389798
_cell_angle_gamma 90.000000
_cell_volume 2379.121220
_symmetry_space_group_name_H-M "C 2/C"
_symmetry_group_IT_number 15
_symmetry_cell_setting 'monoclinic'
loop_
_space_group_symop_operation_xyz
x,y,z
-x,y,1/2-z
-x,-y,-z
x,-y,1/2+z
1/2+x,1/2+y,z
1/2-x,1/2+y,1/2-z
1/2-x,1/2-y,-z
1/2+x,1/2-y,1/2+z
loop_
_atom_site_type_symbol
_atom_site_label
_atom_site_fract_x
_atom_site_fract_y
_atom_site_fract_z
Si Si1 0.210674 0.001173 0.370550
Si Si2 0.277016 0.208733 0.302043
Si Si3 0.500000 0.541216 0.750000
Si Si4 0.225340 0.418812 0.521023
Si Si5 0.292272 0.828790 0.037269
Si Si6 0.275425 0.201378 0.804998
Si Si7 0.261052 0.162391 0.067237
Si Si8 0.095144 0.420116 0.084500
O O1 0.322824 0.964839 0.404162
O O2 0.172146 0.987328 0.238449
O O3 0.292425 0.046916 0.362528
O O4 0.000000 0.000000 0.500000
O O5 0.500000 0.201489 0.250000
O O6 0.206930 0.205978 0.473003
O O7 0.255454 0.252563 0.238695
O O8 0.191362 0.175045 0.231992
O O9 0.576559 0.570342 0.613279
O O10 0.227886 0.370159 0.541531
O O11 0.062140 0.424899 0.471089
O O12 0.211711 0.828293 0.208931
O O13 0.515600 0.826543 0.990878
O O14 0.500000 0.197144 0.750000
O O15 0.190704 0.190114 0.972257
O O16 0.260758 0.114456 0.020032
O O17 0.000000 0.403835 0.250000
#
# Coordination Sequence:
#
# PCOD9264435 Si02
#       8
#     8   8   4   8   8   8   8   8
#     4  10  22  38  56  86 123 153 187 250 312 348
#     4  10  20  37  54  83 120 152 189 247 306 354
#     4  10  20  38  58  82 122 154 186 252 304 360
#     4  10  20  38  60  86 113 154 203 249 301 355
#     4   9  19  36  58  82 117 154 195 244 297 356
#     4  10  19  35  59  82 113 156 199 243 295 358
#     4   9  19  34  59  88 115 149 199 254 294 345
#     4  11  19  37  65  88 111 158 215 247 292 371
#
# _framework density 25.219396
#
# number of rings (size 3 to 8) (size 9 to 14) (size 15 to 20)
#    0.000    2.133    1.333    3.200    0.000    0.000 
#    6.000    4.667    0.000    0.000    0.000    0.000 
#    0.000    0.000    0.000    0.000    0.000    0.000 
#
# Total GULP energy -167505.679724 kJ/mol
# GULP energy per Si atom -5583.522657 kJ/mol
# Density = 2.516200 g / cm^3
# Si number density = 25.219396 Si / 1000 Ang^3
#
#
#
# Elastic Constant Matrix: (Units=GPa)
#
#
# Indices 1 2 3 4 5 6 
#
# 1 79.4691 28.3576 15.9562 0.0000 16.7574 0.0000
# 2 28.3576 146.3285 39.2542 0.0000 38.6510 0.0000
# 3 15.9562 39.2542 98.5700 0.0000 33.7619 0.0000
# 4 0.0000 0.0000 0.0000 33.4333 0.0000 9.1643
# 5 16.7574 38.6510 33.7619 0.0000 31.5280 0.0000
# 6 0.0000 0.0000 0.0000 9.1643 0.0000 18.1931
#
#
#
# Elastic Compliance Matrix: (Units=1/GPa)
#
#
# Indices 1 2 3 4 5 6 
#
# 1 0.014308 -0.001121 0.000417 0.000000 -0.006677 0.000000
# 2 -0.001121 0.010202 0.000313 0.000000 -0.012246 0.000000
# 3 0.000417 0.000313 0.016046 0.000000 -0.017788 0.000000
# 4 0.000000 0.000000 0.000000 0.034702 0.000000 -0.017480
# 5 -0.006677 -0.012246 -0.017788 0.000000 0.069329 0.000000
# 6 0.000000 0.000000 0.000000 -0.017480 0.000000 0.063771
#
#
# Mechanical properties :
#
#
# Convention : Reuss Voigt Hill
#
# Bulk Modulus (GPa) = 25.14155 54.61152 39.87654
# Shear Modulus (GPa) = 22.48245 32.68418 27.58331
#
# Velocity S-wave (km/s) = 2.98900 3.60390 3.31075
# Velocity P-wave (km/s) = 4.68005 6.24652 5.51914
#
# Compressibility (1/GPa) = 0.03977479
#
# Stress axis : x y z
#
# Youngs Moduli (GPa) = 69.89217 98.02119 62.32254
#
# Poissons Ratio (x) = 0.10988 -0.02602
# Poissons Ratio (y) = 0.07835 -0.01953
# Poissons Ratio (z) = -0.02918 -0.03071
#
# Static dielectric constant tensor:
#      x y z
#    x 2.002000 0.000000 0.001530 
#    y 0.000000 2.060720 0.000000 
#    z 0.001530 0.000000 2.189370 
# 
# From -- ./inp_files/82197.got.cif
#   From: 2010.05.17/outbox.cif.g08.bks.cpg/sg15_42_cif.got.tgz:82197.got - 2010.06.03 18:47:42.
