data_PCOD9264491
_publ_section_title
;
Structure prediction by ZEFSAII (Michael W. Deem and Ramdas Pophale) SiO2 
 PCOD9264491
Probable space group: C 2/C
;
_chemical_formula_sum "Si O2"
_cell_formula_units_Z 56
_cell_length_a 16.642814
_cell_length_b 9.489977
_cell_length_c 21.636187
_cell_angle_alpha 90.000000
_cell_angle_beta 63.423428
_cell_angle_gamma 90.000000
_cell_volume 3056.145067
_symmetry_space_group_name_H-M "C 2/C"
_symmetry_group_IT_number 15
_symmetry_cell_setting 'monoclinic'
loop_
_space_group_symop_operation_xyz
x,y,z
-x,y,1/2-z
-x,-y,-z
x,-y,1/2+z
1/2+x,1/2+y,z
1/2-x,1/2+y,1/2-z
1/2-x,1/2-y,-z
1/2+x,1/2-y,1/2+z
loop_
_atom_site_type_symbol
_atom_site_label
_atom_site_fract_x
_atom_site_fract_y
_atom_site_fract_z
Si Si1 0.148742 0.115420 0.770269
Si Si2 0.379661 0.597938 0.051822
Si Si3 0.233284 0.803502 0.074031
Si Si4 0.394870 0.856500 0.800029
Si Si5 0.830891 0.921023 0.857683
Si Si6 0.265073 0.889708 0.349611
Si Si7 0.481903 0.500409 0.399090
O O1 0.149515 0.270678 0.741118
O O2 0.153371 0.000606 0.713380
O O3 0.227665 0.103093 0.792668
O O4 0.054495 0.091700 0.837365
O O5 0.313372 0.728877 0.084044
O O6 0.315520 0.461088 0.083158
O O7 0.457437 0.596987 0.076389
O O8 0.422560 0.586877 0.968990
O O9 0.138729 0.740658 0.131300
O O10 0.233368 0.969789 0.083651
O O11 0.250000 0.750000 0.000000
O O12 0.500000 0.861016 0.750000
O O13 0.350752 0.008032 0.824728
O O14 0.790359 0.767503 0.860843
O O15 0.919889 0.921591 0.870119
#
# Coordination Sequence:
#
# PCOD9264491 Si02
#       7
#     8   8   8   8   8   8   8
#     4  10  20  37  59  82 112 153 198 234 288 352
#     4   9  20  37  59  82 116 157 186 243 291 342
#     4  10  19  37  59  86 114 158 199 235 283 361
#     4  10  21  36  56  85 113 149 191 242 292 332
#     4  11  21  35  62  86 112 156 198 239 285 353
#     4  10  22  38  55  84 119 151 186 241 304 344
#     4  10  19  35  59  87 114 146 200 238 286 346
#
# _framework density 18.323737999999999
#
# number of rings (size 3 to 8) (size 9 to 14) (size 15 to 20)
#    0.000    2.000    1.429    3.000    0.000    2.857 
#    0.000    1.429    0.000    7.714    0.000    0.000 
#    0.000    0.000    0.000    0.000    0.000    0.000 
#
# Total GULP energy -156085.194052 kJ/mol
# GULP energy per Si atom -5574.471216 kJ/mol
# Density = 1.828203 g / cm^3
# Si number density = 18.323738 Si / 1000 Ang^3
#
#
#
# Elastic Constant Matrix: (Units=GPa)
#
#
# Indices 1 2 3 4 5 6 
#
# 1 88.8775 30.2594 9.0704 0.0000 7.7909 0.0000
# 2 30.2594 117.9526 15.8095 0.0000 7.0953 0.0000
# 3 9.0704 15.8095 83.7079 0.0000 6.2623 0.0000
# 4 0.0000 0.0000 0.0000 17.8666 0.0000 1.2873
# 5 7.7909 7.0953 6.2623 0.0000 26.7728 0.0000
# 6 0.0000 0.0000 0.0000 1.2873 0.0000 22.0672
#
#
#
# Elastic Compliance Matrix: (Units=1/GPa)
#
#
# Indices 1 2 3 4 5 6 
#
# 1 0.012566 -0.002980 -0.000595 0.000000 -0.002728 0.000000
# 2 -0.002980 0.009507 -0.001373 0.000000 -0.001331 0.000000
# 3 -0.000595 -0.001373 0.012448 0.000000 -0.002375 0.000000
# 4 0.000000 0.000000 0.000000 0.056206 0.000000 -0.003279
# 5 -0.002728 -0.001331 -0.002375 0.000000 0.039053 0.000000
# 6 0.000000 0.000000 0.000000 -0.003279 0.000000 0.045507
#
#
# Mechanical properties :
#
#
# Convention : Reuss Voigt Hill
#
# Bulk Modulus (GPa) = 40.60927 44.53520 42.57223
# Shear Modulus (GPa) = 25.85440 29.03456 27.44448
#
# Velocity S-wave (km/s) = 3.76037 3.98494 3.87428
# Velocity P-wave (km/s) = 6.40813 6.74762 6.58006
#
# Compressibility (1/GPa) = 0.02462492
#
# Stress axis : x y z
#
# Youngs Moduli (GPa) = 79.58134 105.19103 80.33613
#
# Poissons Ratio (x) = 0.31345 0.04778
# Poissons Ratio (y) = 0.23714 0.11030
# Poissons Ratio (z) = 0.04733 0.14443
#
# Static dielectric constant tensor:
#      x y z
#    x 1.663250 0.000000 0.015750 
#    y 0.000000 1.614670 0.000000 
#    z 0.015750 0.000000 1.660340 
# 
# From -- ./inp_files/247366.got.cif
#   From: 2010.05.17/outbox.cif.g08.bks.cpg/sg15_124_cif.got.tgz:247366.got - 2010.06.03 18:47:42.
