data_PCOD9264271
_publ_section_title
;
Structure prediction by ZEFSAII (Michael W. Deem and Ramdas Pophale) SiO2 
 PCOD9264271
Probable space group: C 2/C
;
_chemical_formula_sum "Si O2"
_cell_formula_units_Z 48
_cell_length_a 20.851229
_cell_length_b 8.808272
_cell_length_c 15.493940
_cell_angle_alpha 90.000000
_cell_angle_beta 119.842914
_cell_angle_gamma 90.000000
_cell_volume 2468.312534
_symmetry_space_group_name_H-M "C 2/C"
_symmetry_group_IT_number 15
_symmetry_cell_setting 'monoclinic'
loop_
_space_group_symop_operation_xyz
x,y,z
-x,y,1/2-z
-x,-y,-z
x,-y,1/2+z
1/2+x,1/2+y,z
1/2-x,1/2+y,1/2-z
1/2-x,1/2-y,-z
1/2+x,1/2-y,1/2+z
loop_
_atom_site_type_symbol
_atom_site_label
_atom_site_fract_x
_atom_site_fract_y
_atom_site_fract_z
Si Si1 0.599134 0.656556 0.065262
Si Si2 0.665896 0.809887 0.940822
Si Si3 0.233794 0.038301 0.260304
Si Si4 0.694392 0.141022 0.012709
Si Si5 0.062077 0.195443 0.517059
Si Si6 0.350316 0.229407 0.261068
O O1 0.665347 0.635303 0.177322
O O2 0.578405 0.484525 0.023188
O O3 0.625638 0.749043 0.999435
O O4 0.524322 0.723657 0.055568
O O5 0.631452 0.755524 0.827214
O O6 0.750000 0.750000 0.000000
O O7 0.671460 0.990961 0.946441
O O8 0.261906 0.087018 0.372676
O O9 0.303404 0.075904 0.245530
O O10 0.204749 0.866550 0.247163
O O11 0.620154 0.224979 0.993288
O O12 0.750000 0.250000 0.000000
O O13 0.082523 0.253429 0.627412
#
# Coordination Sequence:
#
# PCOD9264271 Si02
#       6
#     8   8   8   8   8   8
#     4  10  20  39  63  83 121 157 195 240 293 357
#     4  12  21  36  60  91 116 153 199 246 294 343
#     4  10  19  35  57  86 113 155 194 237 293 344
#     4  11  23  37  60  87 117 151 201 252 285 348
#     4   9  22  40  59  88 119 159 194 237 299 351
#     4  10  21  35  59  88 117 154 195 241 290 351
#
# _framework density 19.446484000000002
#
# number of rings (size 3 to 8) (size 9 to 14) (size 15 to 20)
#    0.000    1.667    3.333    1.000    4.667    1.333 
#    0.000    0.833    3.667    0.000    0.000    0.000 
#    0.000    0.000    0.000    0.000    0.000    0.000 
#
# Total GULP energy -133985.873831 kJ/mol
# GULP energy per Si atom -5582.744743 kJ/mol
# Density = 1.940222 g / cm^3
# Si number density = 19.446484 Si / 1000 Ang^3
#
#
#
# Elastic Constant Matrix: (Units=GPa)
#
#
# Indices 1 2 3 4 5 6 
#
# 1 78.7538 29.4291 12.9028 0.0000 0.0248 0.0000
# 2 29.4291 68.9879 10.9780 0.0000 -4.0835 0.0000
# 3 12.9028 10.9780 52.2472 0.0000 -7.0364 0.0000
# 4 0.0000 0.0000 0.0000 16.7208 0.0000 -6.3802
# 5 0.0248 -4.0835 -7.0364 0.0000 25.7058 0.0000
# 6 0.0000 0.0000 0.0000 -6.3802 0.0000 24.6993
#
#
#
# Elastic Compliance Matrix: (Units=1/GPa)
#
#
# Indices 1 2 3 4 5 6 
#
# 1 0.015494 -0.006277 -0.002745 0.000000 -0.001763 0.000000
# 2 -0.006277 0.017602 -0.001839 0.000000 0.002299 0.000000
# 3 -0.002745 -0.001839 0.020937 0.000000 0.005442 0.000000
# 4 0.000000 0.000000 0.000000 0.066345 0.000000 0.017138
# 5 -0.001763 0.002299 0.005442 0.000000 0.040758 0.000000
# 6 0.000000 0.000000 0.000000 0.017138 0.000000 0.044914
#
#
# Mechanical properties :
#
#
# Convention : Reuss Voigt Hill
#
# Bulk Modulus (GPa) = 30.94903 34.06761 32.50832
# Shear Modulus (GPa) = 20.96081 23.20378 22.08229
#
# Velocity S-wave (km/s) = 3.28666 3.45804 3.37344
# Velocity P-wave (km/s) = 5.50930 5.78798 5.65036
#
# Compressibility (1/GPa) = 0.03231119
#
# Stress axis : x y z
#
# Youngs Moduli (GPa) = 64.54254 56.81307 47.76279
#
# Poissons Ratio (x) = 0.35661 0.13110
# Poissons Ratio (y) = 0.40513 0.08782
# Poissons Ratio (z) = 0.17716 0.10446
#
# Static dielectric constant tensor:
#      x y z
#    x 1.673350 0.000000 -0.003220 
#    y 0.000000 1.733160 0.000000 
#    z -0.003220 0.000000 1.676420 
# 
# From -- ./inp_files/166109.got.cif
#   From: 2010.05.17/outbox.cif.g08.bks.cpg/sg15_84_cif.got.tgz:166109.got - 2010.06.03 18:47:42.
