data_PCOD9264407
_publ_section_title
;
Structure prediction by ZEFSAII (Michael W. Deem and Ramdas Pophale) SiO2 
 PCOD9264407
Probable space group: C 2/C
;
_chemical_formula_sum "Si O2"
_cell_formula_units_Z 52
_cell_length_a 15.209491
_cell_length_b 28.668296
_cell_length_c 7.869791
_cell_angle_alpha 90.000000
_cell_angle_beta 133.407090
_cell_angle_gamma 90.000000
_cell_volume 2492.924846
_symmetry_space_group_name_H-M "C 2/C"
_symmetry_group_IT_number 15
_symmetry_cell_setting 'monoclinic'
loop_
_space_group_symop_operation_xyz
x,y,z
-x,y,1/2-z
-x,-y,-z
x,-y,1/2+z
1/2+x,1/2+y,z
1/2-x,1/2+y,1/2-z
1/2-x,1/2-y,-z
1/2+x,1/2-y,1/2+z
loop_
_atom_site_type_symbol
_atom_site_label
_atom_site_fract_x
_atom_site_fract_y
_atom_site_fract_z
Si Si1 0.500000 0.668207 0.250000
Si Si2 0.054789 0.329196 0.007960
Si Si3 0.410760 0.276258 0.965950
Si Si4 0.634154 0.427436 0.462812
Si Si5 0.370549 0.524949 0.171800
Si Si6 0.738944 0.612220 0.593676
Si Si7 0.203908 0.347735 0.702580
O O1 0.462420 0.698196 0.365556
O O2 0.608976 0.635073 0.456997
O O3 0.108026 0.277714 0.109023
O O4 0.000000 0.327669 0.750000
O O5 0.937624 0.339220 0.966125
O O6 0.156324 0.368413 0.150449
O O7 0.500000 0.279451 0.250000
O O8 0.283905 0.301532 0.839056
O O9 0.658669 0.470231 0.368392
O O10 0.625325 0.452479 0.636053
O O11 0.735427 0.387960 0.600824
O O12 0.500000 0.407254 0.250000
O O13 0.500000 0.528973 0.250000
O O14 0.276657 0.557096 0.945007
O O15 0.772835 0.633633 0.455321
#
# Coordination Sequence:
#
# PCOD9264407 Si02
#       7
#     4   8   8   8   8   8   8
#     4  10  22  38  68  88 118 170 202 254 326 344
#     4  11  26  39  61  89 121 165 202 254 308 368
#     4  10  24  40  61  92 123 162 214 260 303 370
#     4  10  20  35  60  90 122 158 198 253 305 359
#     4  10  19  35  58  91 120 155 202 250 304 357
#     4  10  22  40  61  89 123 157 208 252 299 376
#     4  10  23  41  59  88 123 162 204 250 315 359
#
# _framework density 20.859034000000001
#
# number of rings (size 3 to 8) (size 9 to 14) (size 15 to 20)
#    0.000    1.846    0.769    2.769    6.462    4.923 
#    0.000    0.769    0.000    0.000    0.000    0.000 
#    0.000    0.000    0.000    0.000    0.000    0.000 
#
# Total GULP energy -145284.647333 kJ/mol
# GULP energy per Si atom -5587.871051 kJ/mol
# Density = 2.081156 g / cm^3
# Si number density = 20.859034 Si / 1000 Ang^3
#
#
#
# Elastic Constant Matrix: (Units=GPa)
#
#
# Indices 1 2 3 4 5 6 
#
# 1 53.9096 9.2404 17.2426 0.0000 6.1158 0.0000
# 2 9.2404 91.0320 33.6493 0.0000 18.6013 0.0000
# 3 17.2426 33.6493 58.5891 0.0000 14.2083 0.0000
# 4 0.0000 0.0000 0.0000 14.9572 0.0000 -2.4204
# 5 6.1158 18.6013 14.2083 0.0000 30.6612 0.0000
# 6 0.0000 0.0000 0.0000 -2.4204 0.0000 9.0220
#
#
#
# Elastic Compliance Matrix: (Units=1/GPa)
#
#
# Indices 1 2 3 4 5 6 
#
# 1 0.020547 0.000426 -0.005898 0.000000 -0.001624 0.000000
# 2 0.000426 0.014780 -0.007231 0.000000 -0.005700 0.000000
# 3 -0.005898 -0.007231 0.024343 0.000000 -0.005717 0.000000
# 4 0.000000 0.000000 0.000000 0.069892 0.000000 0.018751
# 5 -0.001624 -0.005700 -0.005717 0.000000 0.039046 0.000000
# 6 0.000000 0.000000 0.000000 0.018751 0.000000 0.115870
#
#
# Mechanical properties :
#
#
# Convention : Reuss Voigt Hill
#
# Bulk Modulus (GPa) = 29.18510 35.97726 32.58118
# Shear Modulus (GPa) = 15.56147 20.48797 18.02472
#
# Velocity S-wave (km/s) = 2.73432 3.13742 2.94278
# Velocity P-wave (km/s) = 4.89802 5.51451 5.21538
#
# Compressibility (1/GPa) = 0.03426406
#
# Stress axis : x y z
#
# Youngs Moduli (GPa) = 48.66848 67.66011 41.07875
#
# Poissons Ratio (x) = -0.02884 0.24228
# Poissons Ratio (y) = -0.02075 0.29706
# Poissons Ratio (z) = 0.28705 0.48928
#
# Static dielectric constant tensor:
#      x y z
#    x 1.513830 0.000000 -0.213220 
#    y 0.000000 1.764770 0.000000 
#    z -0.213220 0.000000 1.685020 
# 
# From -- ./inp_files/44906.got.cif
#   From: 2010.05.17/outbox.cif.g08.bks.cpg/sg15_23_cif.got.tgz:44906.got - 2010.06.03 18:47:42.
