data_PCOD9264839
_publ_section_title
;
Structure prediction by ZEFSAII (Michael W. Deem and Ramdas Pophale) SiO2 
 PCOD9264839
Probable space group: C 2/C
;
_chemical_formula_sum "Si O2"
_cell_formula_units_Z 48
_cell_length_a 8.206189
_cell_length_b 19.437725
_cell_length_c 14.356187
_cell_angle_alpha 90.000000
_cell_angle_beta 112.765570
_cell_angle_gamma 90.000000
_cell_volume 2111.553661
_symmetry_space_group_name_H-M "C 2/C"
_symmetry_group_IT_number 15
_symmetry_cell_setting 'monoclinic'
loop_
_space_group_symop_operation_xyz
x,y,z
-x,y,1/2-z
-x,-y,-z
x,-y,1/2+z
1/2+x,1/2+y,z
1/2-x,1/2+y,1/2-z
1/2-x,1/2-y,-z
1/2+x,1/2-y,1/2+z
loop_
_atom_site_type_symbol
_atom_site_label
_atom_site_fract_x
_atom_site_fract_y
_atom_site_fract_z
Si Si1 0.758750 0.217194 0.878888
Si Si2 0.176535 0.081982 0.489866
Si Si3 0.115933 0.762893 0.666424
Si Si4 0.248954 0.443486 0.896870
Si Si5 0.689415 0.411929 0.780951
Si Si6 0.920419 0.698925 0.125896
O O1 0.787653 0.145767 0.935436
O O2 0.686761 0.208212 0.756902
O O3 0.933920 0.262967 0.903104
O O4 0.907684 0.245572 0.108031
O O5 0.246429 0.094043 0.400064
O O6 0.961540 0.073376 0.443799
O O7 0.265280 0.013200 0.549532
O O8 0.151837 0.836550 0.726324
O O9 0.236930 0.760884 0.602731
O O10 0.204400 0.449737 0.776532
O O11 0.138499 0.378666 0.911222
O O12 0.500000 0.448517 0.750000
O O13 0.000000 0.696909 0.250000
#
# Coordination Sequence:
#
# PCOD9264839 Si02
#       6
#     8   8   8   8   8   8
#     4  10  19  35  64  96 125 162 218 275 325 384
#     4  10  21  35  64  96 125 173 222 273 335 391
#     4   9  18  37  60  93 127 169 210 266 335 390
#     4   9  20  40  60  90 130 175 220 269 332 406
#     4   9  16  35  62  83 120 172 214 247 330 399
#     4   9  19  37  65  90 122 173 219 257 332 401
#
# _framework density 22.732077
#
# number of rings (size 3 to 8) (size 9 to 14) (size 15 to 20)
#    0.000    2.667    1.667    0.000    2.333    1.333 
#    3.000   12.500    7.333   13.000    0.000    0.000 
#    0.000    0.000    0.000    0.000    0.000    0.000 
#
# Total GULP energy -133931.327904 kJ/mol
# GULP energy per Si atom -5580.471996 kJ/mol
# Density = 2.268034 g / cm^3
# Si number density = 22.732077 Si / 1000 Ang^3
#
#
#
# Elastic Constant Matrix: (Units=GPa)
#
#
# Indices 1 2 3 4 5 6 
#
# 1 188.7174 58.0916 48.9951 0.0000 -11.7734 0.0000
# 2 58.0916 124.2142 80.5026 0.0000 -5.6058 0.0000
# 3 48.9951 80.5026 123.9761 0.0000 -15.6373 0.0000
# 4 0.0000 0.0000 0.0000 33.7812 0.0000 6.1028
# 5 -11.7734 -5.6058 -15.6373 0.0000 27.4006 0.0000
# 6 0.0000 0.0000 0.0000 6.1028 0.0000 26.0030
#
#
#
# Elastic Compliance Matrix: (Units=1/GPa)
#
#
# Indices 1 2 3 4 5 6 
#
# 1 0.006343 -0.002432 -0.000696 0.000000 0.001830 0.000000
# 2 -0.002432 0.014992 -0.009179 0.000000 -0.003217 0.000000
# 3 -0.000696 -0.009179 0.015115 0.000000 0.006449 0.000000
# 4 0.000000 0.000000 0.000000 0.030913 0.000000 -0.007255
# 5 0.001830 -0.003217 0.006449 0.000000 0.040304 0.000000
# 6 0.000000 0.000000 0.000000 -0.007255 0.000000 0.040160
#
#
# Mechanical properties :
#
#
# Convention : Reuss Voigt Hill
#
# Bulk Modulus (GPa) = 84.50391 90.23180 87.36786
# Shear Modulus (GPa) = 28.34662 34.05819 31.20241
#
# Velocity S-wave (km/s) = 3.53510 3.87491 3.70890
# Velocity P-wave (km/s) = 7.34283 7.73303 7.54045
#
# Compressibility (1/GPa) = 0.01183377
#
# Stress axis : x y z
#
# Youngs Moduli (GPa) = 157.66308 66.70154 66.15854
#
# Poissons Ratio (x) = 0.16225 0.04606
# Poissons Ratio (y) = 0.38350 0.60730
# Poissons Ratio (z) = 0.10978 0.61228
#
# Static dielectric constant tensor:
#      x y z
#    x 1.952980 0.000000 0.049180 
#    y 0.000000 1.831780 0.000000 
#    z 0.049180 0.000000 1.932600 
# 
# From -- ./inp_files/89160.got.cif
#   From: 2010.05.17/outbox.cif.g08.bks.cpg/sg15_45_cif.got.tgz:89160.got - 2010.06.03 18:47:42.
