data_PCOD9264477
_publ_section_title
;
Structure prediction by ZEFSAII (Michael W. Deem and Ramdas Pophale) SiO2 
 PCOD9264477
Probable space group: C 2/C
;
_chemical_formula_sum "Si O2"
_cell_formula_units_Z 44
_cell_length_a 16.760250
_cell_length_b 8.134743
_cell_length_c 14.934573
_cell_angle_alpha 90.000000
_cell_angle_beta 128.564416
_cell_angle_gamma 90.000000
_cell_volume 1592.108561
_symmetry_space_group_name_H-M "C 2/C"
_symmetry_group_IT_number 15
_symmetry_cell_setting 'monoclinic'
loop_
_space_group_symop_operation_xyz
x,y,z
-x,y,1/2-z
-x,-y,-z
x,-y,1/2+z
1/2+x,1/2+y,z
1/2-x,1/2+y,1/2-z
1/2-x,1/2-y,-z
1/2+x,1/2-y,1/2+z
loop_
_atom_site_type_symbol
_atom_site_label
_atom_site_fract_x
_atom_site_fract_y
_atom_site_fract_z
Si Si1 0.997882 0.311573 0.589278
Si Si2 0.831560 0.693731 0.641427
Si Si3 0.016728 0.685219 0.907321
Si Si4 0.709814 0.509023 0.814034
Si Si5 0.500000 0.603491 0.750000
Si Si6 0.274066 0.873549 0.674424
O O1 0.003237 0.233758 0.494665
O O2 0.947880 0.210558 0.634663
O O3 0.113837 0.334927 0.706029
O O4 0.954877 0.495039 0.553683
O O5 0.901837 0.746264 0.607496
O O6 0.784270 0.510381 0.604124
O O7 0.909506 0.678573 0.779875
O O8 0.755070 0.840317 0.613619
O O9 0.592123 0.516846 0.763865
O O10 0.761318 0.686422 0.869517
O O11 0.716287 0.468345 0.713537
#
# Coordination Sequence:
#
# PCOD9264477 Si02
#       6
#     8   8   8   8   4   8
#     4   9  18  34  58  88 114 151 188 239 282 336
#     4  10  19  35  59  86 111 155 187 234 282 338
#     4   9  17  33  59  85 118 147 195 230 283 340
#     4  11  20  36  58  87 111 151 195 230 281 345
#     4  10  20  34  58  82 114 148 194 232 284 330
#     4  10  20  35  59  81 116 150 190 232 289 328
#
# _framework density 27.636306000000001
#
# number of rings (size 3 to 8) (size 9 to 14) (size 15 to 20)
#    0.000    2.182    1.818    4.364    0.000    0.000 
#    0.000    9.091    4.000    4.364    0.000    0.000 
#    0.000    0.000    0.000    0.000    0.000    0.000 
#
# Total GULP energy -123111.383525 kJ/mol
# GULP energy per Si atom -5595.971978 kJ/mol
# Density = 2.757340 g / cm^3
# Si number density = 27.636306 Si / 1000 Ang^3
#
#
#
# Elastic Constant Matrix: (Units=GPa)
#
#
# Indices 1 2 3 4 5 6 
#
# 1 82.0068 35.9448 37.0543 0.0000 -32.1192 0.0000
# 2 35.9448 194.6307 32.1098 0.0000 -15.8387 0.0000
# 3 37.0543 32.1098 119.2792 0.0000 -13.9010 0.0000
# 4 0.0000 0.0000 0.0000 36.6716 0.0000 -14.0883
# 5 -32.1192 -15.8387 -13.9010 0.0000 56.7050 0.0000
# 6 0.0000 0.0000 0.0000 -14.0883 0.0000 50.5227
#
#
#
# Elastic Compliance Matrix: (Units=1/GPa)
#
#
# Indices 1 2 3 4 5 6 
#
# 1 0.018412 -0.001995 -0.004151 0.000000 0.008854 0.000000
# 2 -0.001995 0.005671 -0.000879 0.000000 0.000238 0.000000
# 3 -0.004151 -0.000879 0.009890 0.000000 -0.000172 0.000000
# 4 0.000000 0.000000 0.000000 0.030541 0.000000 0.008516
# 5 0.008854 0.000238 -0.000172 0.000000 0.022675 0.000000
# 6 0.000000 0.000000 0.000000 0.008516 0.000000 0.022168
#
#
# Mechanical properties :
#
#
# Convention : Reuss Voigt Hill
#
# Bulk Modulus (GPa) = 50.19372 67.34828 58.77100
# Shear Modulus (GPa) = 38.44779 48.16704 43.30741
#
# Velocity S-wave (km/s) = 3.73393 4.17932 3.96289
# Velocity P-wave (km/s) = 6.06559 6.90734 6.50010
#
# Compressibility (1/GPa) = 0.01992281
#
# Stress axis : x y z
#
# Youngs Moduli (GPa) = 54.31262 176.34187 101.11539
#
# Poissons Ratio (x) = 0.35181 0.41971
# Poissons Ratio (y) = 0.10835 0.08888
# Poissons Ratio (z) = 0.22544 0.15501
#
# Static dielectric constant tensor:
#      x y z
#    x 2.146380 0.000000 0.029690 
#    y 0.000000 2.287850 0.000000 
#    z 0.029690 0.000000 2.184430 
# 
# From -- ./inp_files/159260.got.cif
#   From: 2010.05.17/outbox.cif.g08.bks.cpg/sg15_80_cif.got.tgz:159260.got - 2010.06.03 18:47:42.
