data_PCOD9264695
_publ_section_title
;
Structure prediction by ZEFSAII (Michael W. Deem and Ramdas Pophale) SiO2 
 PCOD9264695
Probable space group: C 2/C
;
_chemical_formula_sum "Si O2"
_cell_formula_units_Z 56
_cell_length_a 16.537149
_cell_length_b 31.428670
_cell_length_c 5.360213
_cell_angle_alpha 90.000000
_cell_angle_beta 89.999925
_cell_angle_gamma 90.000000
_cell_volume 2785.920314
_symmetry_space_group_name_H-M "C 2/C"
_symmetry_group_IT_number 15
_symmetry_cell_setting 'monoclinic'
loop_
_space_group_symop_operation_xyz
x,y,z
-x,y,1/2-z
-x,-y,-z
x,-y,1/2+z
1/2+x,1/2+y,z
1/2-x,1/2+y,1/2-z
1/2-x,1/2-y,-z
1/2+x,1/2-y,1/2+z
loop_
_atom_site_type_symbol
_atom_site_label
_atom_site_fract_x
_atom_site_fract_y
_atom_site_fract_z
Si Si1 0.304580 0.250576 0.750000
Si Si2 0.649085 0.654565 0.250004
Si Si3 0.595819 0.836595 0.249996
Si Si4 0.822756 0.479141 0.749998
Si Si5 0.640001 0.484628 0.250000
Si Si6 0.333759 0.877784 0.750004
Si Si7 0.906709 0.891438 0.249996
O O1 0.250000 0.250000 0.500000
O O2 0.354170 0.294508 0.749999
O O3 0.360037 0.208990 0.750002
O O4 0.250000 0.250000 0.000000
O O5 0.743130 0.640965 0.250002
O O6 0.610911 0.635193 0.500718
O O7 0.610910 0.635192 0.999294
O O8 0.500000 0.831412 0.250000
O O9 0.623424 0.861219 0.499324
O O10 0.623422 0.861218 0.000664
O O11 0.857582 0.499999 0.499995
O O12 0.727149 0.491748 0.749998
O O13 0.830385 0.428725 0.750003
O O14 0.597811 0.500000 0.500000
O O15 0.647919 0.433908 0.250002
O O16 0.000000 0.905251 0.250000
#
# Coordination Sequence:
#
# PCOD9264695 Si02
#       7
#     8   8   8   8   8   8   8
#     4  12  23  46  70 104 135 173 227 277 326 401
#     4  12  23  42  71  95 134 179 233 276 326 397
#     4  12  26  45  70 105 139 174 218 275 350 403
#     4  10  19  35  61  96 125 161 227 274 327 379
#     4  10  20  37  57  86 126 170 228 273 324 381
#     4  12  23  42  73  99 133 179 224 285 321 405
#     4  12  26  41  61  99 143 184 227 280 340 392
#
# _framework density 20.10108
#
# number of rings (size 3 to 8) (size 9 to 14) (size 15 to 20)
#    0.000    0.571    2.857    7.714    0.000    1.714 
#    0.000    0.000    0.000    8.571    0.000    0.000 
#    0.000    0.000    0.000    0.000    0.000    0.000 
#
# Total GULP energy -156631.773716 kJ/mol
# GULP energy per Si atom -5593.991918 kJ/mol
# Density = 2.005533 g / cm^3
# Si number density = 20.101080 Si / 1000 Ang^3
#
#
#
# Elastic Constant Matrix: (Units=GPa)
#
#
# Indices 1 2 3 4 5 6 
#
# 1 69.0940 35.9135 41.5954 0.0000 -0.0130 0.0000
# 2 35.9135 223.1935 85.5519 0.0000 -0.0139 0.0000
# 3 41.5954 85.5519 221.1104 0.0000 -0.0224 0.0000
# 4 0.0000 0.0000 0.0000 33.1701 0.0000 0.0004
# 5 -0.0130 -0.0139 -0.0224 0.0000 97.8051 0.0000
# 6 0.0000 0.0000 0.0000 0.0004 0.0000 -3.6005
#
#
#
# Elastic Compliance Matrix: (Units=1/GPa)
#
#
# Indices 1 2 3 4 5 6 
#
# 1 0.016891 -0.001761 -0.002496 0.000000 0.000001 0.000000
# 2 -0.001761 0.005444 -0.001775 0.000000 0.000000 0.000000
# 3 -0.002496 -0.001775 0.005679 0.000000 0.000001 0.000000
# 4 0.000000 0.000000 0.000000 0.030148 0.000000 0.000003
# 5 0.000001 0.000000 0.000001 0.000000 0.010224 0.000000
# 6 0.000000 0.000000 0.000000 0.000003 0.000000 -0.277739
#
#
# Mechanical properties :
#
#
# Convention : Reuss Voigt Hill
#
# Bulk Modulus (GPa) = 62.69774 93.27994 77.98884
# Shear Modulus (GPa) = -26.04559 48.83075 11.39258
#
# Velocity S-wave (km/s) = -3.60353 4.93410 2.38326
# Velocity P-wave (km/s) = 3.73430 8.88632 6.81585
#
# Compressibility (1/GPa) = 0.01594954
#
# Stress axis : x y z
#
# Youngs Moduli (GPa) = 59.20260 183.68054 176.08551
#
# Poissons Ratio (x) = 0.32348 0.43954
# Poissons Ratio (y) = 0.10426 0.31258
# Poissons Ratio (z) = 0.14778 0.32607
#
# Static dielectric constant tensor:
#      x y z
#    x 1.666360 0.000000 -0.000010 
#    y 0.000000 1.686080 0.000000 
#    z -0.000010 0.000000 1.675260 
# 
# From -- ./inp_files/9051.got.cif
#   From: 2010.05.17/outbox.cif.g08.bks.cpg/sg15_5_cif.got.tgz:9051.got - 2010.06.03 18:47:42.
