data_PCOD9264881
_publ_section_title
;
Structure prediction by ZEFSAII (Michael W. Deem and Ramdas Pophale) SiO2 
 PCOD9264881
Probable space group: C 2/C
;
_chemical_formula_sum "Si O2"
_cell_formula_units_Z 44
_cell_length_a 7.709948
_cell_length_b 27.859707
_cell_length_c 10.993390
_cell_angle_alpha 90.000000
_cell_angle_beta 124.926986
_cell_angle_gamma 90.000000
_cell_volume 1936.025813
_symmetry_space_group_name_H-M "C 2/C"
_symmetry_group_IT_number 15
_symmetry_cell_setting 'monoclinic'
loop_
_space_group_symop_operation_xyz
x,y,z
-x,y,1/2-z
-x,-y,-z
x,-y,1/2+z
1/2+x,1/2+y,z
1/2-x,1/2+y,1/2-z
1/2-x,1/2-y,-z
1/2+x,1/2-y,1/2+z
loop_
_atom_site_type_symbol
_atom_site_label
_atom_site_fract_x
_atom_site_fract_y
_atom_site_fract_z
Si Si1 0.970755 0.186292 0.978392
Si Si2 0.274719 0.898333 0.211590
Si Si3 0.869999 0.650043 0.000198
Si Si4 0.679154 0.224701 0.213152
Si Si5 0.879005 0.997088 0.822656
Si Si6 0.500000 0.928938 0.750000
O O1 0.166375 0.178963 0.964185
O O2 0.096831 0.207335 0.144397
O O3 0.858520 0.134347 0.936142
O O4 0.817935 0.226326 0.860738
O O5 0.500000 0.912524 0.250000
O O6 0.318006 0.866232 0.345635
O O7 0.173098 0.947110 0.217279
O O8 0.076460 0.683127 0.089628
O O9 0.905560 0.606003 0.108017
O O10 0.500000 0.228892 0.250000
O O11 0.000000 0.979976 0.750000
O O12 0.678430 0.962926 0.764064
O O13 0.000000 0.000000 0.000000
#
# Coordination Sequence:
#
# PCOD9264881 Si02
#       6
#     8   8   8   8   8   4
#     4  11  20  40  66 101 133 181 234 289 354 422
#     4  12  26  44  65  98 141 186 235 297 358 420
#     4  11  22  42  69 100 139 179 230 298 351 428
#     4  10  19  35  68 102 132 174 235 288 349 427
#     4  12  28  47  75 105 144 194 246 304 371 434
#     4  12  24  46  74 108 144 182 248 298 360 432
#
# _framework density 22.726970000000001
#
# number of rings (size 3 to 8) (size 9 to 14) (size 15 to 20)
#    0.000    0.727    3.636    8.182    2.545    1.455 
#    0.000    4.545    0.000    0.000    0.000    0.000 
#    0.000    0.000    0.000    0.000    0.000    0.000 
#
# Total GULP energy -123097.251273 kJ/mol
# GULP energy per Si atom -5595.329603 kJ/mol
# Density = 2.267524 g / cm^3
# Si number density = 22.726970 Si / 1000 Ang^3
#
#
#
# Elastic Constant Matrix: (Units=GPa)
#
#
# Indices 1 2 3 4 5 6 
#
# 1 88.1504 19.0170 24.1396 0.0000 -3.4860 0.0000
# 2 19.0170 117.6081 28.4290 0.0000 5.8291 0.0000
# 3 24.1396 28.4290 93.5916 0.0000 3.6576 0.0000
# 4 0.0000 0.0000 0.0000 154.9800 0.0000 120.9639
# 5 -3.4860 5.8291 3.6576 0.0000 19.5959 0.0000
# 6 0.0000 0.0000 0.0000 120.9639 0.0000 116.9054
#
#
#
# Elastic Compliance Matrix: (Units=1/GPa)
#
#
# Indices 1 2 3 4 5 6 
#
# 1 0.012594 -0.001490 -0.002922 0.000000 0.003229 0.000000
# 2 -0.001490 0.009450 -0.002383 0.000000 -0.002631 0.000000
# 3 -0.002922 -0.002383 0.012244 0.000000 -0.002096 0.000000
# 4 0.000000 0.000000 0.000000 0.033538 0.000000 -0.034703
# 5 0.003229 -0.002631 -0.002096 0.000000 0.052780 0.000000
# 6 0.000000 0.000000 0.000000 -0.034703 0.000000 0.044461
#
#
# Mechanical properties :
#
#
# Convention : Reuss Voigt Hill
#
# Bulk Modulus (GPa) = 48.31502 49.16902 48.74202
# Shear Modulus (GPa) = 26.94595 73.48056 50.21325
#
# Velocity S-wave (km/s) = 3.44704 5.69228 4.70554
# Velocity P-wave (km/s) = 6.09490 8.05508 7.14256
#
# Compressibility (1/GPa) = 0.02069750
#
# Stress axis : x y z
#
# Youngs Moduli (GPa) = 79.40593 105.81648 81.67128
#
# Poissons Ratio (x) = 0.15768 0.23862
# Poissons Ratio (y) = 0.11832 0.19466
# Poissons Ratio (z) = 0.23200 0.25221
#
# Static dielectric constant tensor:
#      x y z
#    x 1.834250 0.000000 0.022530 
#    y 0.000000 1.880110 0.000000 
#    z 0.022530 0.000000 1.798200 
# 
# From -- ./inp_files/81594.got.cif
#   From: 2010.05.17/outbox.cif.g08.bks.cpg/sg15_41_cif.got.tgz:81594.got - 2010.06.03 18:47:42.
