data_PCOD9264786
_publ_section_title
;
Structure prediction by ZEFSAII (Michael W. Deem and Ramdas Pophale) SiO2 
 PCOD9264786
Probable space group: C 2/C
;
_chemical_formula_sum "Si O2"
_cell_formula_units_Z 48
_cell_length_a 18.186119
_cell_length_b 7.960967
_cell_length_c 15.984269
_cell_angle_alpha 90.000000
_cell_angle_beta 114.805552
_cell_angle_gamma 90.000000
_cell_volume 2100.673651
_symmetry_space_group_name_H-M "C 2/C"
_symmetry_group_IT_number 15
_symmetry_cell_setting 'monoclinic'
loop_
_space_group_symop_operation_xyz
x,y,z
-x,y,1/2-z
-x,-y,-z
x,-y,1/2+z
1/2+x,1/2+y,z
1/2-x,1/2+y,1/2-z
1/2-x,1/2-y,-z
1/2+x,1/2-y,1/2+z
loop_
_atom_site_type_symbol
_atom_site_label
_atom_site_fract_x
_atom_site_fract_y
_atom_site_fract_z
Si Si1 0.497967 0.353428 0.147336
Si Si2 0.825711 0.617444 0.600966
Si Si3 0.826439 0.754860 0.098344
Si Si4 0.496369 0.270216 0.649674
Si Si5 0.072544 0.532046 0.101372
Si Si6 0.750088 0.068230 0.111580
O O1 0.500000 0.346338 0.250000
O O2 0.405681 0.301097 0.083470
O O3 0.510815 0.543350 0.121457
O O4 0.554041 0.210144 0.135899
O O5 0.840729 0.430267 0.642859
O O6 0.905735 0.695764 0.595373
O O7 0.791574 0.753261 0.649931
O O8 0.763189 0.585229 0.495164
O O9 0.808016 0.908142 0.152618
O O10 0.750000 0.750000 0.000000
O O11 0.500000 0.292022 0.750000
O O12 0.559581 0.129029 0.653832
O O13 0.162623 0.537489 0.108303
O O14 0.000000 0.500000 0.000000
#
# Coordination Sequence:
#
# PCOD9264786 Si02
#       6
#     8   8   8   8   8   8
#     4  11  24  42  67  91 130 175 213 257 327 395
#     4  10  19  37  62  86 118 169 200 252 310 373
#     4  10  19  35  63  90 117 164 213 253 308 380
#     4  11  23  41  66  89 125 172 212 250 323 394
#     4  12  23  40  63  99 124 159 214 279 312 363
#     4  10  21  36  58  92 125 148 210 260 309 362
#
# _framework density 22.849812
#
# number of rings (size 3 to 8) (size 9 to 14) (size 15 to 20)
#    0.000    1.333    5.000    1.500    0.000    2.000 
#    0.000    1.667    0.000    0.000    0.000    0.000 
#    0.000    0.000    0.000    0.000    0.000    0.000 
#
# Total GULP energy -134020.135547 kJ/mol
# GULP energy per Si atom -5584.172314 kJ/mol
# Density = 2.279781 g / cm^3
# Si number density = 22.849812 Si / 1000 Ang^3
#
#
#
# Elastic Constant Matrix: (Units=GPa)
#
#
# Indices 1 2 3 4 5 6 
#
# 1 113.6160 75.7593 -13.0881 0.0000 -16.3962 0.0000
# 2 75.7593 281.4072 8.9816 0.0000 -22.3248 0.0000
# 3 -13.0881 8.9816 24.9557 0.0000 7.2920 0.0000
# 4 0.0000 0.0000 0.0000 17.3625 0.0000 5.8798
# 5 -16.3962 -22.3248 7.2920 0.0000 23.0246 0.0000
# 6 0.0000 0.0000 0.0000 5.8798 0.0000 21.9471
#
#
#
# Elastic Compliance Matrix: (Units=1/GPa)
#
#
# Indices 1 2 3 4 5 6 
#
# 1 0.012205 -0.003216 0.006535 0.000000 0.003503 0.000000
# 2 -0.003216 0.004874 -0.004576 0.000000 0.003884 0.000000
# 3 0.006535 -0.004576 0.049679 0.000000 -0.015517 0.000000
# 4 0.000000 0.000000 0.000000 0.063342 0.000000 -0.016970
# 5 0.003503 0.003884 -0.015517 0.000000 0.054607 0.000000
# 6 0.000000 0.000000 0.000000 -0.016970 0.000000 0.050111
#
#
# Mechanical properties :
#
#
# Convention : Reuss Voigt Hill
#
# Bulk Modulus (GPa) = 15.56604 62.58716 39.07660
# Shear Modulus (GPa) = 19.32397 35.68857 27.50627
#
# Velocity S-wave (km/s) = 2.91124 3.95634 3.47332
# Velocity P-wave (km/s) = 4.25764 6.95128 5.76402
#
# Compressibility (1/GPa) = 0.06424240
#
# Stress axis : x y z
#
# Youngs Moduli (GPa) = 81.93688 205.18460 20.12918
#
# Poissons Ratio (x) = 0.65994 -0.13154
# Poissons Ratio (y) = 0.26354 0.09211
# Poissons Ratio (z) = -0.53544 0.93890
#
# Static dielectric constant tensor:
#      x y z
#    x 1.815850 0.000000 0.014670 
#    y 0.000000 2.042560 0.000000 
#    z 0.014670 0.000000 1.840790 
# 
# From -- ./inp_files/208671.got.cif
#   From: 2010.05.17/outbox.cif.g08.bks.cpg/sg15_105_cif.got.tgz:208671.got - 2010.06.03 18:47:42.
