data_PCOD9264796
_publ_section_title
;
Structure prediction by ZEFSAII (Michael W. Deem and Ramdas Pophale) SiO2 
 PCOD9264796
Probable space group: C 2/C
;
_chemical_formula_sum "Si O2"
_cell_formula_units_Z 56
_cell_length_a 18.595745
_cell_length_b 20.406015
_cell_length_c 12.368466
_cell_angle_alpha 90.000000
_cell_angle_beta 146.284257
_cell_angle_gamma 90.000000
_cell_volume 2605.179945
_symmetry_space_group_name_H-M "C 2/C"
_symmetry_group_IT_number 15
_symmetry_cell_setting 'monoclinic'
loop_
_space_group_symop_operation_xyz
x,y,z
-x,y,1/2-z
-x,-y,-z
x,-y,1/2+z
1/2+x,1/2+y,z
1/2-x,1/2+y,1/2-z
1/2-x,1/2-y,-z
1/2+x,1/2-y,1/2+z
loop_
_atom_site_type_symbol
_atom_site_label
_atom_site_fract_x
_atom_site_fract_y
_atom_site_fract_z
Si Si1 0.856919 0.610540 0.023248
Si Si2 0.510370 0.346336 0.379611
Si Si3 0.980295 0.287244 0.538525
Si Si4 0.531198 0.417111 0.620530
Si Si5 0.217159 0.619589 0.332224
Si Si6 0.291593 0.493151 0.301290
Si Si7 0.607334 0.276736 0.794413
O O1 0.769973 0.618002 0.021506
O O2 0.000000 0.594138 0.250000
O O3 0.873138 0.678262 0.978787
O O4 0.806481 0.557026 0.876380
O O5 0.500000 0.379462 0.250000
O O6 0.456229 0.273186 0.316601
O O7 0.469785 0.386206 0.433162
O O8 0.667232 0.341443 0.581794
O O9 0.930235 0.256160 0.365967
O O10 0.084572 0.342990 0.643962
O O11 0.407927 0.456543 0.512031
O O12 0.637950 0.467051 0.708274
O O13 0.592569 0.355804 0.760182
O O14 0.224388 0.546719 0.293290
O O15 0.500000 0.258541 0.750000
O O16 0.750000 0.250000 0.000000
#
# Coordination Sequence:
#
# PCOD9264796 Si02
#       7
#     8   8   8   8   8   8   8
#     4  10  22  40  60  93 126 166 218 269 342 403
#     4  10  19  35  63  93 123 163 210 265 345 389
#     4  10  24  40  62  90 133 165 214 281 338 405
#     4   9  22  41  63  95 130 172 224 285 335 405
#     4  10  22  39  61  92 128 168 219 274 331 415
#     4  10  21  40  65  90 131 173 225 278 337 403
#     4  11  27  46  70 103 136 181 234 284 348 418
#
# _framework density 21.495635
#
# number of rings (size 3 to 8) (size 9 to 14) (size 15 to 20)
#    0.000    2.000    0.000    2.143    8.000    6.857 
#    2.571    1.429    0.000    0.000    0.000    0.000 
#    0.000    0.000    0.000    0.000    0.000    0.000 
#
# Total GULP energy -156322.632944 kJ/mol
# GULP energy per Si atom -5582.951177 kJ/mol
# Density = 2.144671 g / cm^3
# Si number density = 21.495635 Si / 1000 Ang^3
#
#
#
# Elastic Constant Matrix: (Units=GPa)
#
#
# Indices 1 2 3 4 5 6 
#
# 1 84.0050 20.6891 6.0644 0.0000 8.1920 0.0000
# 2 20.6891 116.6818 18.3405 0.0000 3.6414 0.0000
# 3 6.0644 18.3405 50.1810 0.0000 1.2519 0.0000
# 4 0.0000 0.0000 0.0000 34.5046 0.0000 1.4655
# 5 8.1920 3.6414 1.2519 0.0000 25.2405 0.0000
# 6 0.0000 0.0000 0.0000 1.4655 0.0000 41.7825
#
#
#
# Elastic Compliance Matrix: (Units=1/GPa)
#
#
# Indices 1 2 3 4 5 6 
#
# 1 0.012833 -0.002044 -0.000708 0.000000 -0.003835 0.000000
# 2 -0.002044 0.009452 -0.003194 0.000000 -0.000542 0.000000
# 3 -0.000708 -0.003194 0.021190 0.000000 -0.000360 0.000000
# 4 0.000000 0.000000 0.000000 0.029025 0.000000 -0.001018
# 5 -0.003835 -0.000542 -0.000360 0.000000 0.040960 0.000000
# 6 0.000000 0.000000 0.000000 -0.001018 0.000000 0.023969
#
#
# Mechanical properties :
#
#
# Convention : Reuss Voigt Hill
#
# Bulk Modulus (GPa) = 31.66406 37.89510 34.77958
# Shear Modulus (GPa) = 31.27982 34.02377 32.65180
#
# Velocity S-wave (km/s) = 3.81881 3.98279 3.90166
# Velocity P-wave (km/s) = 5.84866 6.23038 6.04253
#
# Compressibility (1/GPa) = 0.03158154
#
# Stress axis : x y z
#
# Youngs Moduli (GPa) = 77.92632 105.80048 47.19269
#
# Poissons Ratio (x) = 0.21630 0.03341
# Poissons Ratio (y) = 0.15931 0.15073
# Poissons Ratio (z) = 0.05517 0.33792
#
# Static dielectric constant tensor:
#      x y z
#    x 1.817750 0.000000 0.008470 
#    y 0.000000 1.795330 0.000000 
#    z 0.008470 0.000000 1.836400 
# 
# From -- ./inp_files/169179.got.cif
#   From: 2010.05.17/outbox.cif.g08.bks.cpg/sg15_85_cif.got.tgz:169179.got - 2010.06.03 18:47:42.
