data_PCOD9264813
_publ_section_title
;
Structure prediction by ZEFSAII (Michael W. Deem and Ramdas Pophale) SiO2 
 PCOD9264813
Probable space group: C 2/C
;
_chemical_formula_sum "Si O2"
_cell_formula_units_Z 48
_cell_length_a 30.587245
_cell_length_b 9.254672
_cell_length_c 14.525058
_cell_angle_alpha 90.000000
_cell_angle_beta 31.207480
_cell_angle_gamma 90.000000
_cell_volume 2130.420228
_symmetry_space_group_name_H-M "C 2/C"
_symmetry_group_IT_number 15
_symmetry_cell_setting 'monoclinic'
loop_
_space_group_symop_operation_xyz
x,y,z
-x,y,1/2-z
-x,-y,-z
x,-y,1/2+z
1/2+x,1/2+y,z
1/2-x,1/2+y,1/2-z
1/2-x,1/2-y,-z
1/2+x,1/2-y,1/2+z
loop_
_atom_site_type_symbol
_atom_site_label
_atom_site_fract_x
_atom_site_fract_y
_atom_site_fract_z
Si Si1 0.817771 0.020921 0.601032
Si Si2 0.665873 0.343838 0.628653
Si Si3 0.357390 0.178304 0.551447
Si Si4 0.581306 0.901790 0.360303
Si Si5 0.157989 0.125608 0.757920
Si Si6 0.649165 0.152373 0.133070
O O1 0.834876 0.078195 0.468157
O O2 0.721336 0.067622 0.794548
O O3 0.867184 0.112898 0.590649
O O4 0.832960 0.849408 0.586786
O O5 0.750000 0.250000 0.500000
O O6 0.588493 0.233950 0.780093
O O7 0.658718 0.464484 0.719063
O O8 0.405787 0.152895 0.559517
O O9 0.398156 0.138286 0.379127
O O10 0.500000 0.000000 0.500000
O O11 0.651851 0.012594 0.193174
O O12 0.254934 0.183219 0.573987
O O13 0.111905 0.224157 0.766014
#
# Coordination Sequence:
#
# PCOD9264813 Si02
#       6
#     8   8   8   8   8   8
#     4  11  21  35  68 106 137 172 231 299 354 398
#     4  12  20  39  66 103 136 174 234 292 342 406
#     4  11  23  39  66 102 135 179 232 292 356 410
#     4  12  27  44  64  96 144 189 228 282 350 430
#     4  10  19  35  64 102 130 166 226 296 343 390
#     4  10  22  38  63  95 135 173 223 287 347 401
#
# _framework density 22.530766
#
# number of rings (size 3 to 8) (size 9 to 14) (size 15 to 20)
#    0.000    1.000    6.667    0.000    7.000    0.667 
#    0.000    0.833    0.000    0.000    0.000    0.000 
#    0.000    0.000    0.000    0.000    0.000    0.000 
#
# Total GULP energy -133859.279831 kJ/mol
# GULP energy per Si atom -5577.469993 kJ/mol
# Density = 2.247949 g / cm^3
# Si number density = 22.530766 Si / 1000 Ang^3
#
#
#
# Elastic Constant Matrix: (Units=GPa)
#
#
# Indices 1 2 3 4 5 6 
#
# 1 164.2403 67.3016 44.5744 0.0000 52.0315 0.0000
# 2 67.3016 137.9620 25.0777 0.0000 10.4742 0.0000
# 3 44.5744 25.0777 48.6222 0.0000 14.9932 0.0000
# 4 0.0000 0.0000 0.0000 26.2628 0.0000 13.0144
# 5 52.0315 10.4742 14.9932 0.0000 31.8469 0.0000
# 6 0.0000 0.0000 0.0000 13.0144 0.0000 41.6360
#
#
#
# Elastic Compliance Matrix: (Units=1/GPa)
#
#
# Indices 1 2 3 4 5 6 
#
# 1 0.017727 -0.005749 -0.005777 0.000000 -0.024352 0.000000
# 2 -0.005749 0.009880 -0.002012 0.000000 0.007090 0.000000
# 3 -0.005777 -0.002012 0.027825 0.000000 -0.003000 0.000000
# 4 0.000000 0.000000 0.000000 0.045056 0.000000 -0.014083
# 5 -0.024352 0.007090 -0.003000 0.000000 0.070266 0.000000
# 6 0.000000 0.000000 0.000000 -0.014083 0.000000 0.028420
#
#
# Mechanical properties :
#
#
# Convention : Reuss Voigt Hill
#
# Bulk Modulus (GPa) = 35.26450 69.41463 52.33957
# Shear Modulus (GPa) = 21.21324 34.20719 27.71021
#
# Velocity S-wave (km/s) = 3.07175 3.90069 3.51077
# Velocity P-wave (km/s) = 5.31663 7.15282 6.30196
#
# Compressibility (1/GPa) = 0.02835713
#
# Stress axis : x y z
#
# Youngs Moduli (GPa) = 56.41181 101.21246 35.93827
#
# Poissons Ratio (x) = 0.58184 0.20761
# Poissons Ratio (y) = 0.32430 0.07231
# Poissons Ratio (z) = 0.32589 0.20364
#
# Static dielectric constant tensor:
#      x y z
#    x 1.953710 0.000000 -0.043000 
#    y 0.000000 1.844550 0.000000 
#    z -0.043000 0.000000 1.944020 
# 
# From -- ./inp_files/176846.got.cif
#   From: 2010.05.17/outbox.cif.g08.bks.cpg/sg15_89_cif.got.tgz:176846.got - 2010.06.03 18:47:42.
