data_PCOD9264390
_publ_section_title
;
Structure prediction by ZEFSAII (Michael W. Deem and Ramdas Pophale) SiO2 
 PCOD9264390
Probable space group: C 2/C
;
_chemical_formula_sum "Si O2"
_cell_formula_units_Z 64
_cell_length_a 24.904446
_cell_length_b 24.445057
_cell_length_c 11.981535
_cell_angle_alpha 90.000000
_cell_angle_beta 151.045592
_cell_angle_gamma 90.000000
_cell_volume 3531.242954
_symmetry_space_group_name_H-M "C 2/C"
_symmetry_group_IT_number 15
_symmetry_cell_setting 'monoclinic'
loop_
_space_group_symop_operation_xyz
x,y,z
-x,y,1/2-z
-x,-y,-z
x,-y,1/2+z
1/2+x,1/2+y,z
1/2-x,1/2+y,1/2-z
1/2-x,1/2-y,-z
1/2+x,1/2-y,1/2+z
loop_
_atom_site_type_symbol
_atom_site_label
_atom_site_fract_x
_atom_site_fract_y
_atom_site_fract_z
Si Si1 0.338684 0.221414 0.809813
Si Si2 0.972760 0.819716 0.569240
Si Si3 0.394268 0.051478 0.139255
Si Si4 0.553637 0.914701 0.517093
Si Si5 0.322339 0.938371 0.974708
Si Si6 0.931056 0.294027 0.871835
Si Si7 0.769022 0.335622 0.404031
Si Si8 0.201688 0.837439 0.867104
O O1 0.289939 0.203413 0.837751
O O2 0.285382 0.182613 0.616989
O O3 0.306108 0.284087 0.726299
O O4 0.470738 0.213316 0.040594
O O5 0.946222 0.757976 0.478895
O O6 0.860199 0.850469 0.331243
O O7 0.000000 0.820162 0.750000
O O8 0.080498 0.841931 0.701683
O O9 0.500000 0.042330 0.250000
O O10 0.430487 0.056721 0.334471
O O11 0.304837 0.003104 0.959457
O O12 0.341225 0.110144 0.016964
O O13 0.438312 0.931168 0.251766
O O14 0.651090 0.927921 0.606924
O O15 0.548684 0.849744 0.525102
O O16 0.241468 0.892529 0.878602
O O17 0.815992 0.305030 0.598664
#
# Coordination Sequence:
#
# PCOD9264390 Si02
#       8
#     8   8   8   8   8   8   8   8
#     4  10  19  35  58  88 119 153 192 244 308 347
#     4  11  23  38  58  86 116 161 205 243 290 365
#     4  11  23  38  59  90 122 152 197 250 298 351
#     4  10  21  34  57  92 121 149 193 235 309 353
#     4  11  22  36  60  87 120 161 188 246 298 354
#     4  10  21  35  58  88 122 145 194 250 302 360
#     4  11  22  37  58  86 119 161 194 249 302 352
#     4  10  22  36  56  88 120 154 199 243 292 355
#
# _framework density 18.123930000000001
#
# number of rings (size 3 to 8) (size 9 to 14) (size 15 to 20)
#    0.000    1.500    3.750    2.625    3.500    0.000 
#    0.000    0.625    0.000    0.000    0.000    0.000 
#    0.000    0.000    0.000    0.000    0.000    0.000 
#
# Total GULP energy -178549.295537 kJ/mol
# GULP energy per Si atom -5579.665486 kJ/mol
# Density = 1.808268 g / cm^3
# Si number density = 18.123930 Si / 1000 Ang^3
#
#
#
# Elastic Constant Matrix: (Units=GPa)
#
#
# Indices 1 2 3 4 5 6 
#
# 1 93.2800 29.3834 34.8504 0.0000 0.1709 0.0000
# 2 29.3834 65.4061 14.6337 0.0000 10.5636 0.0000
# 3 34.8504 14.6337 82.9879 0.0000 8.0859 0.0000
# 4 0.0000 0.0000 0.0000 16.8150 0.0000 8.1683
# 5 0.1709 10.5636 8.0859 0.0000 19.2952 0.0000
# 6 0.0000 0.0000 0.0000 8.1683 0.0000 20.4918
#
#
#
# Elastic Compliance Matrix: (Units=1/GPa)
#
#
# Indices 1 2 3 4 5 6 
#
# 1 0.014813 -0.006307 -0.005663 0.000000 0.005695 0.000000
# 2 -0.006307 0.019834 0.000212 0.000000 -0.010892 0.000000
# 3 -0.005663 0.000212 0.015010 0.000000 -0.006356 0.000000
# 4 0.000000 0.000000 0.000000 0.073752 0.000000 -0.029399
# 5 0.005695 -0.010892 -0.006356 0.000000 0.060402 0.000000
# 6 0.000000 0.000000 0.000000 -0.029399 0.000000 0.060519
#
#
# Mechanical properties :
#
#
# Convention : Reuss Voigt Hill
#
# Bulk Modulus (GPa) = 38.25425 44.37877 41.31651
# Shear Modulus (GPa) = 18.07929 22.17416 20.12672
#
# Velocity S-wave (km/s) = 3.16181 3.50161 3.33604
# Velocity P-wave (km/s) = 5.87216 6.39436 6.13881
#
# Compressibility (1/GPa) = 0.02614089
#
# Stress axis : x y z
#
# Youngs Moduli (GPa) = 67.51001 50.41808 66.62198
#
# Poissons Ratio (x) = 0.31800 0.37729
# Poissons Ratio (y) = 0.42580 -0.01416
# Poissons Ratio (z) = 0.38232 -0.01071
#
# Static dielectric constant tensor:
#      x y z
#    x 1.626840 0.000000 0.011370 
#    y 0.000000 1.627150 0.000000 
#    z 0.011370 0.000000 1.640270 
# 
# From -- ./inp_files/90862.got.cif
#   From: 2010.05.17/outbox.cif.g08.bks.cpg/sg15_46_cif.got.tgz:90862.got - 2010.06.03 18:47:42.
