data_PCOD9264315
_publ_section_title
;
Structure prediction by ZEFSAII (Michael W. Deem and Ramdas Pophale) SiO2 
 PCOD9264315
Probable space group: C 2/C
;
_chemical_formula_sum "Si O2"
_cell_formula_units_Z 60
_cell_length_a 30.400731
_cell_length_b 12.307467
_cell_length_c 25.735600
_cell_angle_alpha 90.000000
_cell_angle_beta 16.122923
_cell_angle_gamma 90.000000
_cell_volume 2673.999697
_symmetry_space_group_name_H-M "C 2/C"
_symmetry_group_IT_number 15
_symmetry_cell_setting 'monoclinic'
loop_
_space_group_symop_operation_xyz
x,y,z
-x,y,1/2-z
-x,-y,-z
x,-y,1/2+z
1/2+x,1/2+y,z
1/2-x,1/2+y,1/2-z
1/2-x,1/2-y,-z
1/2+x,1/2-y,1/2+z
loop_
_atom_site_type_symbol
_atom_site_label
_atom_site_fract_x
_atom_site_fract_y
_atom_site_fract_z
Si Si1 0.727708 0.035967 0.481732
Si Si2 0.317466 0.895550 0.584172
Si Si3 0.908567 0.895861 0.925037
Si Si4 0.357718 0.417978 0.180163
Si Si5 0.855749 0.174315 0.799573
Si Si6 0.968494 0.797705 0.963208
Si Si7 0.000000 0.704418 0.750000
Si Si8 0.635768 0.372671 0.051868
O O1 0.668191 0.064694 0.491138
O O2 0.625529 0.119259 0.631680
O O3 0.907123 0.070048 0.287731
O O4 0.740899 0.905753 0.464531
O O5 0.149731 0.828588 0.770767
O O6 0.449998 0.819736 0.458472
O O7 0.290769 0.001106 0.650020
O O8 0.894637 0.874921 0.002082
O O9 0.904766 0.784917 0.896626
O O10 0.817993 0.000651 0.006368
O O11 0.364193 0.371780 0.231311
O O12 0.500000 0.500000 0.000000
O O13 0.365955 0.319363 0.130728
O O14 0.034221 0.163701 0.617145
O O15 0.783233 0.292961 0.888452
O O16 0.500000 0.361761 0.250000
#
# Coordination Sequence:
#
# PCOD9264315 Si02
#       8
#     8   8   8   8   8   8   4   8
#     4   9  20  35  54  80 115 147 190 239 289 351
#     4   9  18  35  53  80 109 140 185 231 284 342
#     4  10  21  36  55  85 116 151 191 236 302 353
#     4   9  19  37  61  81 112 155 191 238 296 349
#     4  10  23  40  60  88 118 158 204 239 297 353
#     4  10  19  35  58  80 109 147 184 234 289 343
#     4  12  18  34  58  82 110 148 198 236 296 346
#     4  11  22  41  60  85 122 158 200 245 292 352
#
# _framework density 22.438298
#
# number of rings (size 3 to 8) (size 9 to 14) (size 15 to 20)
#    0.000    2.133    2.000    3.200    0.933    3.200 
#    0.000    3.333    0.000    0.000    0.000    0.000 
#    0.000    0.000    0.000    0.000    0.000    0.000 
#
# Total GULP energy -167212.054705 kJ/mol
# GULP energy per Si atom -5573.735157 kJ/mol
# Density = 2.238723 g / cm^3
# Si number density = 22.438298 Si / 1000 Ang^3
#
#
#
# Elastic Constant Matrix: (Units=GPa)
#
#
# Indices 1 2 3 4 5 6 
#
# 1 67.4357 16.3111 9.1096 0.0040 8.1331 -0.0024
# 2 16.3111 85.5299 18.5240 0.0116 -1.6688 -0.0084
# 3 9.1096 18.5240 22.7110 0.0044 7.0837 -0.0039
# 4 0.0040 0.0116 0.0044 34.5334 -0.0014 -0.5958
# 5 8.1331 -1.6688 7.0837 -0.0014 19.6702 0.0014
# 6 -0.0024 -0.0084 -0.0039 -0.5958 0.0014 28.2749
#
#
#
# Elastic Compliance Matrix: (Units=1/GPa)
#
#
# Indices 1 2 3 4 5 6 
#
# 1 0.016575 -0.002745 -0.002477 -0.000001 -0.006194 0.000001
# 2 -0.002745 0.015326 -0.013697 -0.000003 0.007368 0.000002
# 3 -0.002477 -0.013697 0.063357 -0.000004 -0.022954 0.000005
# 4 -0.000001 -0.000003 -0.000004 0.028968 0.000004 0.000610
# 5 -0.006194 0.007368 -0.022954 0.000004 0.062291 -0.000004
# 6 0.000001 0.000002 0.000005 0.000610 -0.000004 0.035380
#
#
# Mechanical properties :
#
#
# Convention : Reuss Voigt Hill
#
# Bulk Modulus (GPa) = 17.41622 29.28513 23.35067
# Shear Modulus (GPa) = 17.92922 25.27781 21.60351
#
# Velocity S-wave (km/s) = 2.82981 3.36005 3.10626
# Velocity P-wave (km/s) = 4.29601 5.30405 4.82642
#
# Compressibility (1/GPa) = 0.05741774
#
# Stress axis : x y z
#
# Youngs Moduli (GPa) = 60.33322 65.25007 15.78363
#
# Poissons Ratio (x) = 0.17913 0.03910
# Poissons Ratio (y) = 0.16563 0.21619
# Poissons Ratio (z) = 0.14946 0.89374
#
# Static dielectric constant tensor:
#      x y z
#    x 1.887730 0.000000 0.035370 
#    y 0.000000 1.905930 0.000010 
#    z 0.035370 0.000010 1.865540 
# 
# From -- ./inp_files/304319.got.cif
#   From: 2010.05.17/outbox.cif.g08.bks.cpg/sg15_153_cif.got.tgz:304319.got - 2010.06.03 18:47:42.
