data_PCOD9264119
_publ_section_title
;
Structure prediction by ZEFSAII (Michael W. Deem and Ramdas Pophale) SiO2 
 PCOD9264119
Probable space group: C 2/C
;
_chemical_formula_sum "Si O2"
_cell_formula_units_Z 64
_cell_length_a 27.110495
_cell_length_b 5.707772
_cell_length_c 21.703613
_cell_angle_alpha 90.000000
_cell_angle_beta 65.800067
_cell_angle_gamma 90.000000
_cell_volume 3063.291762
_symmetry_space_group_name_H-M "C 2/C"
_symmetry_group_IT_number 15
_symmetry_cell_setting 'monoclinic'
loop_
_space_group_symop_operation_xyz
x,y,z
-x,y,1/2-z
-x,-y,-z
x,-y,1/2+z
1/2+x,1/2+y,z
1/2-x,1/2+y,1/2-z
1/2-x,1/2-y,-z
1/2+x,1/2-y,1/2+z
loop_
_atom_site_type_symbol
_atom_site_label
_atom_site_fract_x
_atom_site_fract_y
_atom_site_fract_z
Si Si1 0.811846 0.849164 0.148221
Si Si2 0.185227 0.733216 0.041363
Si Si3 0.391970 0.901474 0.690227
Si Si4 0.545849 0.422751 0.672649
Si Si5 0.301496 0.287128 0.743945
Si Si6 0.853806 0.091908 0.815522
Si Si7 0.490603 0.066307 0.329857
Si Si8 0.307082 0.734369 0.507750
O O1 0.866023 0.721977 0.143861
O O2 0.760754 0.778850 0.217198
O O3 0.798969 0.794456 0.084881
O O4 0.815352 0.117450 0.168563
O O5 0.171308 0.738570 0.120753
O O6 0.250000 0.750000 0.000000
O O7 0.166812 0.488482 0.020496
O O8 0.165525 0.986657 0.025724
O O9 0.390502 0.721425 0.747351
O O10 0.454240 0.968408 0.659461
O O11 0.347447 0.094079 0.730842
O O12 0.500000 0.419826 0.750000
O O13 0.605039 0.419832 0.672106
O O14 0.536520 0.677510 0.644867
O O15 0.540676 0.175564 0.640774
O O16 0.310125 0.465938 0.795987
O O17 0.500000 0.066476 0.250000
O O18 0.250000 0.750000 0.500000
#
# Coordination Sequence:
#
# PCOD9264119 Si02
#       8
#     8   8   8   8   8   8   8   8
#     4  11  24  37  58  87 125 169 210 254 309 383
#     4  10  23  38  59  87 117 168 213 257 295 349
#     4  11  23  36  58  90 128 165 195 250 328 384
#     4  10  19  35  56  89 124 152 193 252 312 379
#     4  11  22  36  55  88 127 163 202 246 317 384
#     4  11  23  36  63  92 126 164 206 257 317 377
#     4  10  19  35  55  85 126 150 194 240 310 388
#     4  10  23  41  59  80 116 165 218 257 293 344
#
# _framework density 20.892558999999999
#
# number of rings (size 3 to 8) (size 9 to 14) (size 15 to 20)
#    0.000    1.500    3.750    3.000    8.750    0.000 
#    0.000    0.000    0.000    0.000    0.000    5.250 
#    0.000    0.000    0.000    0.000    0.000    0.000 
#
# Total GULP energy -178261.204147 kJ/mol
# GULP energy per Si atom -5570.662630 kJ/mol
# Density = 2.084501 g / cm^3
# Si number density = 20.892559 Si / 1000 Ang^3
#
#
#
# Elastic Constant Matrix: (Units=GPa)
#
#
# Indices 1 2 3 4 5 6 
#
# 1 99.7040 25.0526 25.7383 0.0395 15.9312 0.1303
# 2 25.0526 145.5502 12.1090 0.0263 12.3183 0.0810
# 3 25.7383 12.1090 59.2506 0.0173 25.2606 0.0447
# 4 0.0395 0.0263 0.0173 15.3612 0.0121 14.8491
# 5 15.9312 12.3183 25.2606 0.0121 19.7445 0.0380
# 6 0.1303 0.0810 0.0447 14.8491 0.0380 89.6514
#
#
#
# Elastic Compliance Matrix: (Units=1/GPa)
#
#
# Indices 1 2 3 4 5 6 
#
# 1 0.011911 -0.001373 -0.002555 -0.000011 -0.005485 -0.000011
# 2 -0.001373 0.007438 0.001281 -0.000004 -0.005172 -0.000002
# 3 -0.002555 0.001281 0.037811 -0.000006 -0.047112 0.000005
# 4 -0.000011 -0.000004 -0.000006 0.077509 -0.000004 -0.012838
# 5 -0.005485 -0.005172 -0.047112 -0.000004 0.118573 -0.000013
# 6 -0.000011 -0.000002 0.000005 -0.012838 -0.000013 0.013281
#
#
# Mechanical properties :
#
#
# Convention : Reuss Voigt Hill
#
# Bulk Modulus (GPa) = 19.28056 47.81162 33.54609
# Shear Modulus (GPa) = 17.29478 41.05843 29.17661
#
# Velocity S-wave (km/s) = 2.88027 4.43789 3.74104
# Velocity P-wave (km/s) = 4.50663 7.01384 5.89507
#
# Compressibility (1/GPa) = 0.05186571
#
# Stress axis : x y z
#
# Youngs Moduli (GPa) = 83.95791 134.44552 26.44739
#
# Poissons Ratio (x) = 0.18464 0.06757
# Poissons Ratio (y) = 0.11530 -0.03389
# Poissons Ratio (z) = 0.21451 -0.17227
#
# Static dielectric constant tensor:
#      x y z
#    x 1.785970 0.000010 -0.053190 
#    y 0.000010 1.909820 -0.000040 
#    z -0.053190 -0.000040 1.754260 
# 
# From -- ./inp_files/258441.got.cif
#   From: 2010.05.17/outbox.cif.g08.bks.cpg/sg15_130_cif.got.tgz:258441.got - 2010.06.03 18:47:42.
