data_PCOD9264071
_publ_section_title
;
Structure prediction by ZEFSAII (Michael W. Deem and Ramdas Pophale) SiO2 
 PCOD9264071
Probable space group: C 2/C
;
_chemical_formula_sum "Si O2"
_cell_formula_units_Z 56
_cell_length_a 17.850956
_cell_length_b 17.406412
_cell_length_c 9.899880
_cell_angle_alpha 90.000000
_cell_angle_beta 108.642681
_cell_angle_gamma 90.000000
_cell_volume 2914.700184
_symmetry_space_group_name_H-M "C 2/C"
_symmetry_group_IT_number 15
_symmetry_cell_setting 'monoclinic'
loop_
_space_group_symop_operation_xyz
x,y,z
-x,y,1/2-z
-x,-y,-z
x,-y,1/2+z
1/2+x,1/2+y,z
1/2-x,1/2+y,1/2-z
1/2-x,1/2-y,-z
1/2+x,1/2-y,1/2+z
loop_
_atom_site_type_symbol
_atom_site_label
_atom_site_fract_x
_atom_site_fract_y
_atom_site_fract_z
Si Si1 0.222991 0.384965 0.860164
Si Si2 0.408472 0.418630 0.659874
Si Si3 0.446504 0.085601 0.323610
Si Si4 0.333100 0.522101 0.846011
Si Si5 0.018973 0.411977 0.116746
Si Si6 0.195198 0.633829 0.652141
Si Si7 0.211672 0.217700 0.339373
O O1 0.139468 0.425254 0.782925
O O2 0.290080 0.449482 0.891637
O O3 0.234382 0.328264 0.739318
O O4 0.217278 0.351072 0.007895
O O5 0.500000 0.406904 0.750000
O O6 0.377132 0.486642 0.741183
O O7 0.389281 0.440686 0.492815
O O8 0.357105 0.342560 0.662758
O O9 0.500000 0.132222 0.250000
O O10 0.454509 0.120214 0.475796
O O11 0.488778 0.003631 0.367730
O O12 0.263731 0.579841 0.755664
O O13 0.107543 0.402231 0.111826
O O14 0.000000 0.376015 0.250000
O O15 0.186690 0.709219 0.737541
O O16 0.250000 0.250000 0.500000
#
# Coordination Sequence:
#
# PCOD9264071 Si02
#       7
#     8   8   8   8   8   8   8
#     4  11  23  40  66  91 128 167 219 267 321 383
#     4  11  24  45  68  99 130 164 218 280 334 385
#     4  10  19  35  54  90 125 161 198 259 309 363
#     4  11  22  39  73  98 121 167 219 279 330 381
#     4  10  22  31  57  92 129 158 203 251 308 367
#     4  12  22  41  62  91 130 175 213 263 325 393
#     4  11  26  43  65  91 129 173 212 261 329 403
#
# _framework density 19.212954
#
# number of rings (size 3 to 8) (size 9 to 14) (size 15 to 20)
#    0.000    1.143    5.714    0.857    2.000    0.571 
#    0.000    0.000    0.000    0.000    0.000    0.000 
#    0.000    0.000    0.000    0.000    0.000    0.000 
#
# Total GULP energy -155949.876543 kJ/mol
# GULP energy per Si atom -5569.638448 kJ/mol
# Density = 1.916922 g / cm^3
# Si number density = 19.212954 Si / 1000 Ang^3
#
#
#
# Elastic Constant Matrix: (Units=GPa)
#
#
# Indices 1 2 3 4 5 6 
#
# 1 67.8750 10.5710 43.1772 0.0000 4.5461 0.0000
# 2 10.5710 61.1202 44.1286 0.0000 -1.3602 0.0000
# 3 43.1772 44.1286 166.2094 0.0000 -4.5847 0.0000
# 4 0.0000 0.0000 0.0000 26.0354 0.0000 -0.9261
# 5 4.5461 -1.3602 -4.5847 0.0000 34.7941 0.0000
# 6 0.0000 0.0000 0.0000 -0.9261 0.0000 14.0543
#
#
#
# Elastic Compliance Matrix: (Units=1/GPa)
#
#
# Indices 1 2 3 4 5 6 
#
# 1 0.017955 0.000316 -0.004830 0.000000 -0.002970 0.000000
# 2 0.000316 0.020247 -0.005457 0.000000 0.000031 0.000000
# 3 -0.004830 -0.005457 0.008763 0.000000 0.001573 0.000000
# 4 0.000000 0.000000 0.000000 0.038499 0.000000 0.002537
# 5 -0.002970 0.000031 0.001573 0.000000 0.029337 0.000000
# 6 0.000000 0.000000 0.000000 0.002537 0.000000 0.071320
#
#
# Mechanical properties :
#
#
# Convention : Reuss Voigt Hill
#
# Bulk Modulus (GPa) = 37.00476 54.55091 45.77784
# Shear Modulus (GPa) = 23.24803 28.13196 25.68999
#
# Velocity S-wave (km/s) = 3.48231 3.83066 3.66063
# Velocity P-wave (km/s) = 5.95573 6.92963 6.46105
#
# Compressibility (1/GPa) = 0.02702355
#
# Stress axis : x y z
#
# Youngs Moduli (GPa) = 55.69389 49.38995 114.11097
#
# Poissons Ratio (x) = -0.01560 0.55117
# Poissons Ratio (y) = -0.01759 0.62268
# Poissons Ratio (z) = 0.26901 0.26951
#
# Static dielectric constant tensor:
#      x y z
#    x 1.692810 0.000000 -0.064400 
#    y 0.000000 1.682860 0.000000 
#    z -0.064400 0.000000 1.796820 
# 
# From -- ./inp_files/49142.got.cif
#   From: 2010.05.17/outbox.cif.g08.bks.cpg/sg15_25_cif.got.tgz:49142.got - 2010.06.03 18:47:42.
