data_PCOD9264514
_publ_section_title
;
Structure prediction by ZEFSAII (Michael W. Deem and Ramdas Pophale) SiO2 
 PCOD9264514
Probable space group: C 2/C
;
_chemical_formula_sum "Si O2"
_cell_formula_units_Z 52
_cell_length_a 12.832895
_cell_length_b 24.785339
_cell_length_c 9.244377
_cell_angle_alpha 90.000000
_cell_angle_beta 54.003256
_cell_angle_gamma 90.000000
_cell_volume 2378.881052
_symmetry_space_group_name_H-M "C 2/C"
_symmetry_group_IT_number 15
_symmetry_cell_setting 'monoclinic'
loop_
_space_group_symop_operation_xyz
x,y,z
-x,y,1/2-z
-x,-y,-z
x,-y,1/2+z
1/2+x,1/2+y,z
1/2-x,1/2+y,1/2-z
1/2-x,1/2-y,-z
1/2+x,1/2-y,1/2+z
loop_
_atom_site_type_symbol
_atom_site_label
_atom_site_fract_x
_atom_site_fract_y
_atom_site_fract_z
Si Si1 0.092847 0.670920 0.295618
Si Si2 0.151430 0.561404 0.145691
Si Si3 0.336370 0.577230 0.509482
Si Si4 0.297581 0.498359 0.277736
Si Si5 0.594003 0.142405 0.806575
Si Si6 0.000000 0.828466 0.750000
Si Si7 0.790673 0.244950 0.300275
O O1 0.176135 0.624559 0.151345
O O2 0.180085 0.714000 0.304569
O O3 0.000000 0.695571 0.250000
O O4 0.003980 0.636456 0.480117
O O5 0.208081 0.529113 0.235471
O O6 0.000000 0.551565 0.250000
O O7 0.220230 0.541150 0.946091
O O8 0.346960 0.542888 0.352160
O O9 0.384028 0.540176 0.604063
O O10 0.189937 0.595416 0.673068
O O11 0.409348 0.632431 0.417402
O O12 0.500000 0.156220 0.750000
O O13 0.676185 0.195404 0.779614
O O14 0.081796 0.791630 0.792339
O O15 0.750000 0.250000 0.500000
#
# Coordination Sequence:
#
# PCOD9264514 Si02
#       7
#     8   8   8   8   8   4   8
#     4  11  24  41  64  98 136 169 211 286 348 393
#     4  10  19  35  59  89 128 167 214 270 334 388
#     4  11  24  39  65  93 131 172 222 269 329 389
#     4  10  22  39  57  91 130 174 219 268 322 398
#     4  12  22  40  68  97 128 171 226 276 328 400
#     4  12  22  40  68 102 124 174 228 276 318 398
#     4  12  22  43  69  99 127 173 228 278 326 406
#
# _framework density 21.859016
#
# number of rings (size 3 to 8) (size 9 to 14) (size 15 to 20)
#    0.000    0.923    3.846    4.154    0.000    4.923 
#    0.000    0.000    0.000    3.692    0.000    0.000 
#    0.000    0.000    0.000    0.000    0.000    0.000 
#
# Total GULP energy -145304.065216 kJ/mol
# GULP energy per Si atom -5588.617893 kJ/mol
# Density = 2.180926 g / cm^3
# Si number density = 21.859016 Si / 1000 Ang^3
#
#
#
# Elastic Constant Matrix: (Units=GPa)
#
#
# Indices 1 2 3 4 5 6 
#
# 1 87.8418 35.2390 39.0657 0.0000 23.3849 0.0000
# 2 35.2390 98.4227 16.9126 0.0000 8.5735 0.0000
# 3 39.0657 16.9126 67.8042 0.0000 26.3809 0.0000
# 4 0.0000 0.0000 0.0000 34.1646 0.0000 -0.9395
# 5 23.3849 8.5735 26.3809 0.0000 33.2458 0.0000
# 6 0.0000 0.0000 0.0000 -0.9395 0.0000 33.8240
#
#
#
# Elastic Compliance Matrix: (Units=1/GPa)
#
#
# Indices 1 2 3 4 5 6 
#
# 1 0.017894 -0.004716 -0.006813 0.000000 -0.005964 0.000000
# 2 -0.004716 0.011878 -0.000498 0.000000 0.000650 0.000000
# 3 -0.006813 -0.000498 0.024424 0.000000 -0.014460 0.000000
# 4 0.000000 0.000000 0.000000 0.029292 0.000000 0.000814
# 5 -0.005964 0.000650 -0.014460 0.000000 0.045581 0.000000
# 6 0.000000 0.000000 0.000000 0.000814 0.000000 0.029587
#
#
# Mechanical properties :
#
#
# Convention : Reuss Voigt Hill
#
# Bulk Modulus (GPa) = 33.17733 48.50037 40.83885
# Shear Modulus (GPa) = 25.93937 31.10365 28.52151
#
# Velocity S-wave (km/s) = 3.44854 3.77625 3.61611
# Velocity P-wave (km/s) = 5.57381 6.42257 6.01319
#
# Compressibility (1/GPa) = 0.03014107
#
# Stress axis : x y z
#
# Youngs Moduli (GPa) = 55.88573 84.18989 40.94379
#
# Poissons Ratio (x) = 0.39707 0.27893
# Poissons Ratio (y) = 0.26358 0.02040
# Poissons Ratio (z) = 0.38073 0.04194
#
# Static dielectric constant tensor:
#      x y z
#    x 1.801950 0.000000 -0.039840 
#    y 0.000000 1.830800 0.000000 
#    z -0.039840 0.000000 1.843430 
# 
# From -- ./inp_files/34099.got.cif
#   From: 2010.05.17/outbox.cif.g08.bks.cpg/sg15_18_cif.got.tgz:34099.got - 2010.06.03 18:47:42.
