data_PCOD9264734
_publ_section_title
;
Structure prediction by ZEFSAII (Michael W. Deem and Ramdas Pophale) SiO2 
 PCOD9264734
Probable space group: C 2/C
;
_chemical_formula_sum "Si O2"
_cell_formula_units_Z 60
_cell_length_a 8.384329
_cell_length_b 21.444008
_cell_length_c 24.423859
_cell_angle_alpha 90.000000
_cell_angle_beta 139.154222
_cell_angle_gamma 90.000000
_cell_volume 2871.990836
_symmetry_space_group_name_H-M "C 2/C"
_symmetry_group_IT_number 15
_symmetry_cell_setting 'monoclinic'
loop_
_space_group_symop_operation_xyz
x,y,z
-x,y,1/2-z
-x,-y,-z
x,-y,1/2+z
1/2+x,1/2+y,z
1/2-x,1/2+y,1/2-z
1/2-x,1/2-y,-z
1/2+x,1/2-y,1/2+z
loop_
_atom_site_type_symbol
_atom_site_label
_atom_site_fract_x
_atom_site_fract_y
_atom_site_fract_z
Si Si1 0.270578 0.417866 0.580133
Si Si2 0.500000 0.392715 0.250000
Si Si3 0.667161 0.990646 0.348191
Si Si4 0.557997 0.881872 0.404572
Si Si5 0.107742 0.662818 0.487456
Si Si6 0.093251 0.051948 0.885550
Si Si7 0.250319 0.374971 0.843134
Si Si8 0.012601 0.204539 0.006370
O O1 0.159129 0.400091 0.491261
O O2 0.247897 0.490909 0.584115
O O3 0.554849 0.400894 0.650010
O O4 0.129545 0.377647 0.588417
O O5 0.537413 0.433455 0.205246
O O6 0.771037 0.361711 0.328015
O O7 0.500000 0.987660 0.250000
O O8 0.584559 0.944467 0.374512
O O9 0.924961 0.965540 0.393000
O O10 0.699019 0.064356 0.368695
O O11 0.750354 0.829717 0.432485
O O12 0.270252 0.614566 0.563399
O O13 0.009105 0.721527 0.496548
O O14 0.283772 0.683460 0.484683
O O15 0.377241 0.318888 0.907921
O O16 0.000000 0.356574 0.750000
#
# Coordination Sequence:
#
# PCOD9264734 Si02
#       8
#     8   4   8   8   8   8   8   8
#     4  10  23  39  64  91 125 161 201 259 310 354
#     4  12  24  36  60 100 120 156 202 252 320 352
#     4  10  19  35  62  90 129 157 196 255 307 362
#     4  11  22  38  62  94 122 164 203 248 311 362
#     4  11  22  42  62  90 121 163 209 250 302 371
#     4  11  22  39  60  95 124 158 200 257 306 364
#     4   9  21  40  61  92 122 165 207 249 309 362
#     4  10  24  41  65  85 122 171 206 248 306 363
#
# _framework density 20.89143
#
# number of rings (size 3 to 8) (size 9 to 14) (size 15 to 20)
#    0.000    1.600    4.000    0.400    1.867    3.733 
#    1.200    0.000    0.000    3.200    0.000    0.000 
#    0.000    0.000    0.000    0.000    0.000    0.000 
#
# Total GULP energy -167250.045492 kJ/mol
# GULP energy per Si atom -5575.001516 kJ/mol
# Density = 2.084388 g / cm^3
# Si number density = 20.891430 Si / 1000 Ang^3
#
#
#
# Elastic Constant Matrix: (Units=GPa)
#
#
# Indices 1 2 3 4 5 6 
#
# 1 63.4318 9.1635 12.3831 0.0007 23.8766 -0.0017
# 2 9.1635 48.6175 -1.3856 0.0006 2.1494 -0.0008
# 3 12.3831 -1.3856 60.5380 0.0029 31.9826 -0.0017
# 4 0.0007 0.0006 0.0029 16.3412 0.0014 8.4359
# 5 23.8766 2.1494 31.9826 0.0014 32.0728 -0.0012
# 6 -0.0017 -0.0008 -0.0017 8.4359 -0.0012 23.2132
#
#
#
# Elastic Compliance Matrix: (Units=1/GPa)
#
#
# Indices 1 2 3 4 5 6 
#
# 1 0.024808 -0.003179 0.009504 -0.000001 -0.027732 0.000001
# 2 -0.003179 0.021224 0.001347 -0.000001 -0.000399 0.000001
# 3 0.009504 0.001347 0.038867 -0.000005 -0.045923 0.000003
# 4 -0.000001 -0.000001 -0.000005 0.075327 0.000001 -0.027375
# 5 -0.027732 -0.000399 -0.045923 0.000001 0.097645 -0.000001
# 6 0.000001 0.000001 0.000003 -0.027375 -0.000001 0.053027
#
#
# Mechanical properties :
#
#
# Convention : Reuss Voigt Hill
#
# Bulk Modulus (GPa) = 9.97586 23.65658 16.81622
# Shear Modulus (GPa) = 15.19906 24.48718 19.84312
#
# Velocity S-wave (km/s) = 2.70020 3.42733 3.08526
# Velocity P-wave (km/s) = 3.80879 5.19714 4.55616
#
# Compressibility (1/GPa) = 0.10024202
#
# Stress axis : x y z
#
# Youngs Moduli (GPa) = 40.31011 47.11670 25.72891
#
# Poissons Ratio (x) = 0.14978 -0.24453
# Poissons Ratio (y) = 0.12814 -0.03465
# Poissons Ratio (z) = -0.38311 -0.06345
#
# Static dielectric constant tensor:
#      x y z
#    x 1.833400 0.000000 0.043900 
#    y 0.000000 1.759100 0.000000 
#    z 0.043900 0.000000 1.763240 
# 
# From -- ./inp_files/266252.got.cif
#   From: 2010.05.17/outbox.cif.g08.bks.cpg/sg15_134_cif.got.tgz:266252.got - 2010.06.03 18:47:42.
