data_PCOD9264640
_publ_section_title
;
Structure prediction by ZEFSAII (Michael W. Deem and Ramdas Pophale) SiO2 
 PCOD9264640
Probable space group: C 2/C
;
_chemical_formula_sum "Si O2"
_cell_formula_units_Z 60
_cell_length_a 9.162657
_cell_length_b 25.561167
_cell_length_c 13.780049
_cell_angle_alpha 90.000000
_cell_angle_beta 115.846794
_cell_angle_gamma 90.000000
_cell_volume 2904.541127
_symmetry_space_group_name_H-M "C 2/C"
_symmetry_group_IT_number 15
_symmetry_cell_setting 'monoclinic'
loop_
_space_group_symop_operation_xyz
x,y,z
-x,y,1/2-z
-x,-y,-z
x,-y,1/2+z
1/2+x,1/2+y,z
1/2-x,1/2+y,1/2-z
1/2-x,1/2-y,-z
1/2+x,1/2-y,1/2+z
loop_
_atom_site_type_symbol
_atom_site_label
_atom_site_fract_x
_atom_site_fract_y
_atom_site_fract_z
Si Si1 0.793989 0.082813 0.320255
Si Si2 0.899640 0.494237 0.127338
Si Si3 0.933636 0.243739 0.863247
Si Si4 0.667044 0.062240 0.089204
Si Si5 0.000000 0.334428 0.750000
Si Si6 0.138462 0.674796 0.010214
Si Si7 0.605101 0.231543 0.684214
Si Si8 0.008748 0.831331 0.964002
O O1 0.730879 0.033141 0.362474
O O2 0.809944 0.066374 0.211453
O O3 0.651984 0.127175 0.282535
O O4 0.941060 0.112313 0.415356
O O5 0.000000 0.470214 0.250000
O O6 0.031808 0.529023 0.107457
O O7 0.821032 0.459717 0.017697
O O8 0.796126 0.223531 0.751071
O O9 0.029562 0.292401 0.845073
O O10 0.826960 0.274994 0.912747
O O11 0.025091 0.196573 0.942371
O O12 0.613596 0.121783 0.060180
O O13 0.973725 0.690204 0.910633
O O14 0.296820 0.667330 0.990417
O O15 0.500000 0.224689 0.750000
O O16 0.566769 0.289704 0.633774
#
# Coordination Sequence:
#
# PCOD9264640 Si02
#       8
#     8   8   8   8   4   8   8   8
#     4  11  20  37  59  88 117 153 199 245 291 363
#     4   9  19  38  59  85 116 141 193 258 300 356
#     4  11  21  36  51  84 122 159 196 234 281 341
#     4  10  19  35  61  85 110 148 195 247 301 343
#     4  12  20  36  58  80 124 156 202 228 284 358
#     4  11  20  33  56  86 110 148 200 236 284 351
#     4  11  18  33  53  78 120 150 187 243 276 325
#     4  11  22  33  57  82 118 159 194 235 286 349
#
# _framework density 20.657305999999998
#
# number of rings (size 3 to 8) (size 9 to 14) (size 15 to 20)
#    0.000    1.333    7.333    0.800    0.000    1.067 
#    2.400    0.667    0.000    0.000    0.000    0.000 
#    0.000    0.000    0.000    0.000    0.000    0.000 
#
# Total GULP energy -167137.425446 kJ/mol
# GULP energy per Si atom -5571.247515 kJ/mol
# Density = 2.061029 g / cm^3
# Si number density = 20.657306 Si / 1000 Ang^3
#
#
#
# Elastic Constant Matrix: (Units=GPa)
#
#
# Indices 1 2 3 4 5 6 
#
# 1 25.7719 18.6297 25.1558 0.0000 0.8186 0.0000
# 2 18.6297 68.9182 58.5166 0.0000 3.7577 0.0000
# 3 25.1558 58.5166 116.9878 0.0000 -7.1671 0.0000
# 4 0.0000 0.0000 0.0000 39.2574 0.0000 4.5618
# 5 0.8186 3.7577 -7.1671 0.0000 24.4230 0.0000
# 6 0.0000 0.0000 0.0000 4.5618 0.0000 13.8957
#
#
#
# Elastic Compliance Matrix: (Units=1/GPa)
#
#
# Indices 1 2 3 4 5 6 
#
# 1 0.051620 -0.007349 -0.007597 0.000000 -0.002829 0.000000
# 2 -0.007349 0.027784 -0.012794 0.000000 -0.007783 0.000000
# 3 -0.007597 -0.012794 0.017023 0.000000 0.007219 0.000000
# 4 0.000000 0.000000 0.000000 0.026483 0.000000 -0.008694
# 5 -0.002829 -0.007783 0.007219 0.000000 0.044356 0.000000
# 6 0.000000 0.000000 0.000000 -0.008694 0.000000 0.074819
#
#
# Mechanical properties :
#
#
# Convention : Reuss Voigt Hill
#
# Bulk Modulus (GPa) = 24.42192 46.25356 35.33774
# Shear Modulus (GPa) = 16.06618 22.80694 19.43656
#
# Velocity S-wave (km/s) = 2.79184 3.32635 3.07074
# Velocity P-wave (km/s) = 4.71599 6.09855 5.45128
#
# Compressibility (1/GPa) = 0.04094682
#
# Stress axis : x y z
#
# Youngs Moduli (GPa) = 19.37248 35.99220 58.74335
#
# Poissons Ratio (x) = 0.26450 0.44629
# Poissons Ratio (y) = 0.14236 0.75156
# Poissons Ratio (z) = 0.14718 0.46048
#
# Static dielectric constant tensor:
#      x y z
#    x 1.798300 0.000000 -0.027690 
#    y 0.000000 1.718730 0.000000 
#    z -0.027690 0.000000 1.879350 
# 
# From -- ./inp_files/147897.got.cif
#   From: 2010.05.17/outbox.cif.g08.bks.cpg/sg15_74_cif.got.tgz:147897.got - 2010.06.03 18:47:42.
