data_PCOD9264797
_publ_section_title
;
Structure prediction by ZEFSAII (Michael W. Deem and Ramdas Pophale) SiO2 
 PCOD9264797
Probable space group: C 2/C
;
_chemical_formula_sum "Si O2"
_cell_formula_units_Z 48
_cell_length_a 33.014282
_cell_length_b 7.173430
_cell_length_c 21.218473
_cell_angle_alpha 90.000000
_cell_angle_beta 25.162901
_cell_angle_gamma 90.000000
_cell_volume 2136.629833
_symmetry_space_group_name_H-M "C 2/C"
_symmetry_group_IT_number 15
_symmetry_cell_setting 'monoclinic'
loop_
_space_group_symop_operation_xyz
x,y,z
-x,y,1/2-z
-x,-y,-z
x,-y,1/2+z
1/2+x,1/2+y,z
1/2-x,1/2+y,1/2-z
1/2-x,1/2-y,-z
1/2+x,1/2-y,1/2+z
loop_
_atom_site_type_symbol
_atom_site_label
_atom_site_fract_x
_atom_site_fract_y
_atom_site_fract_z
Si Si1 0.774670 0.051079 0.434014
Si Si2 0.294114 0.656017 0.265956
Si Si3 0.538978 0.445500 0.762238
Si Si4 0.640015 0.652344 0.915648
Si Si5 0.442768 0.033682 0.517042
Si Si6 0.560315 0.994450 0.726677
O O1 0.750000 0.250000 0.500000
O O2 0.812879 0.092149 0.310193
O O3 0.861622 0.971750 0.353047
O O4 0.672954 0.949465 0.569369
O O5 0.294669 0.477206 0.219682
O O6 0.195342 0.770014 0.399094
O O7 0.372329 0.797669 0.130144
O O8 0.500000 0.512001 0.750000
O O9 0.553981 0.221106 0.736271
O O10 0.453355 0.460380 0.932674
O O11 0.610781 0.839198 0.920793
O O12 0.508736 0.069869 0.363271
O O13 0.500000 0.000000 0.500000
O O14 0.500000 0.935677 0.750000
#
# Coordination Sequence:
#
# PCOD9264797 Si02
#       6
#     8   8   8   8   8   8
#     4  10  19  35  63  93 123 173 217 267 327 406
#     4  12  23  40  68  94 133 171 226 274 342 399
#     4   9  18  34  59  89 124 164 219 263 326 398
#     4  11  23  40  63  95 129 173 217 277 340 399
#     4  11  23  40  65  99 130 170 221 283 339 410
#     4   9  18  35  61  89 126 170 217 262 335 405
#
# _framework density 22.465285000000002
#
# number of rings (size 3 to 8) (size 9 to 14) (size 15 to 20)
#    0.000    1.667    1.667    7.000    0.000    2.667 
#    0.000    0.833    0.000    7.000    0.000    0.000 
#    0.000    0.000    0.000    0.000    0.000    0.000 
#
# Total GULP energy -134150.053361 kJ/mol
# GULP energy per Si atom -5589.585557 kJ/mol
# Density = 2.241415 g / cm^3
# Si number density = 22.465285 Si / 1000 Ang^3
#
#
#
# Elastic Constant Matrix: (Units=GPa)
#
#
# Indices 1 2 3 4 5 6 
#
# 1 190.7100 22.8572 70.0542 0.0023 -17.0266 -0.0001
# 2 22.8572 80.6493 33.0656 -0.0010 1.1256 -0.0010
# 3 70.0542 33.0656 127.6447 0.0065 -10.9722 0.0006
# 4 0.0023 -0.0010 0.0065 20.9216 0.0013 0.8859
# 5 -17.0266 1.1256 -10.9722 0.0013 44.3679 -0.0011
# 6 -0.0001 -0.0010 0.0006 0.8859 -0.0011 -3.0235
#
#
#
# Elastic Compliance Matrix: (Units=1/GPa)
#
#
# Indices 1 2 3 4 5 6 
#
# 1 0.006711 -0.000535 -0.003394 0.000000 0.001749 -0.000001
# 2 -0.000535 0.013985 -0.003451 0.000002 -0.001413 -0.000004
# 3 -0.003394 -0.003451 0.010714 -0.000003 0.001435 0.000002
# 4 0.000000 0.000002 -0.000003 0.047212 -0.000002 0.013834
# 5 0.001749 -0.001413 0.001435 -0.000002 0.023601 -0.000008
# 6 -0.000001 -0.000004 0.000002 0.013834 -0.000008 -0.326693
#
#
# Mechanical properties :
#
#
# Convention : Reuss Voigt Hill
#
# Bulk Modulus (GPa) = 60.05650 72.32866 66.19258
# Shear Modulus (GPa) = -24.49056 30.65500 3.08222
#
# Velocity S-wave (km/s) = -3.30533 3.69799 1.17259
# Velocity P-wave (km/s) = 3.49631 7.10627 5.60015
#
# Compressibility (1/GPa) = 0.01665099
#
# Stress axis : x y z
#
# Youngs Moduli (GPa) = 149.01825 71.50277 93.33405
#
# Poissons Ratio (x) = 0.03824 0.31678
# Poissons Ratio (y) = 0.07969 0.32208
# Poissons Ratio (z) = 0.50577 0.24675
#
# Static dielectric constant tensor:
#      x y z
#    x 1.817150 -0.000010 -0.031930 
#    y -0.000010 1.811960 0.000000 
#    z -0.031930 0.000000 1.822640 
# 
# From -- ./inp_files/224550.got.cif
#   From: 2010.05.17/outbox.cif.g08.bks.cpg/sg15_113_cif.got.tgz:224550.got - 2010.06.03 18:47:42.
