data_PCOD9264504
_publ_section_title
;
Structure prediction by ZEFSAII (Michael W. Deem and Ramdas Pophale) SiO2 
 PCOD9264504
Probable space group: C 2/C
;
_chemical_formula_sum "Si O2"
_cell_formula_units_Z 48
_cell_length_a 15.712876
_cell_length_b 8.640303
_cell_length_c 19.384187
_cell_angle_alpha 90.000000
_cell_angle_beta 128.949369
_cell_angle_gamma 90.000000
_cell_volume 2046.658279
_symmetry_space_group_name_H-M "C 2/C"
_symmetry_group_IT_number 15
_symmetry_cell_setting 'monoclinic'
loop_
_space_group_symop_operation_xyz
x,y,z
-x,y,1/2-z
-x,-y,-z
x,-y,1/2+z
1/2+x,1/2+y,z
1/2-x,1/2+y,1/2-z
1/2-x,1/2-y,-z
1/2+x,1/2-y,1/2+z
loop_
_atom_site_type_symbol
_atom_site_label
_atom_site_fract_x
_atom_site_fract_y
_atom_site_fract_z
Si Si1 0.133178 0.254858 0.325472
Si Si2 0.645120 0.622523 0.191112
Si Si3 0.912186 0.287340 0.051777
Si Si4 0.062954 0.360456 0.894363
Si Si5 0.946490 0.143275 0.932881
Si Si6 0.339627 0.886495 0.692041
O O1 0.174425 0.145181 0.285764
O O2 0.170451 0.430264 0.329801
O O3 0.000000 0.257989 0.250000
O O4 0.149172 0.210836 0.413725
O O5 0.538197 0.728201 0.123192
O O6 0.619799 0.443665 0.160809
O O7 0.738905 0.669070 0.185784
O O8 0.908463 0.470326 0.062186
O O9 0.882107 0.237376 0.959059
O O10 0.039304 0.245508 0.944472
O O11 0.948095 0.373664 0.794033
O O12 0.145275 0.309936 0.875455
O O13 0.000000 0.000000 0.000000
#
# Coordination Sequence:
#
# PCOD9264504 Si02
#       6
#     8   8   8   8   8   8
#     4   9  16  37  58  77 112 151 185 229 281 331
#     4  10  20  34  59  87 117 137 188 249 273 325
#     4   9  18  39  61  76 112 158 188 220 284 348
#     4  10  19  38  61  79 113 154 188 227 284 337
#     4  10  22  37  55  87 118 147 186 230 287 338
#     4  10  19  35  59  89 106 142 199 236 272 328
#
# _framework density 23.452864999999999
#
# number of rings (size 3 to 8) (size 9 to 14) (size 15 to 20)
#    0.000    2.333    5.000    0.500    2.333    0.000 
#   15.000    6.667    3.667    0.000    0.000    0.000 
#    0.000    0.000    0.000    0.000    0.000    0.000 
#
# Total GULP energy -134080.628789 kJ/mol
# GULP energy per Si atom -5586.692866 kJ/mol
# Density = 2.339948 g / cm^3
# Si number density = 23.452865 Si / 1000 Ang^3
#
#
#
# Elastic Constant Matrix: (Units=GPa)
#
#
# Indices 1 2 3 4 5 6 
#
# 1 107.6249 25.9119 66.8360 0.0000 -48.4655 0.0000
# 2 25.9119 75.8621 64.5020 0.0000 -36.6751 0.0000
# 3 66.8360 64.5020 143.9797 0.0000 -51.2386 0.0000
# 4 0.0000 0.0000 0.0000 46.3319 0.0000 -11.1814
# 5 -48.4655 -36.6751 -51.2386 0.0000 62.1878 0.0000
# 6 0.0000 0.0000 0.0000 -11.1814 0.0000 27.3660
#
#
#
# Elastic Compliance Matrix: (Units=1/GPa)
#
#
# Indices 1 2 3 4 5 6 
#
# 1 0.016802 0.004619 -0.005998 0.000000 0.010877 0.000000
# 2 0.004619 0.024699 -0.009542 0.000000 0.010304 0.000000
# 3 -0.005998 -0.009542 0.014628 0.000000 0.001750 0.000000
# 4 0.000000 0.000000 0.000000 0.023944 0.000000 0.009783
# 5 0.010877 0.010304 0.001750 0.000000 0.032075 0.000000
# 6 0.000000 0.000000 0.000000 0.009783 0.000000 0.040539
#
#
# Mechanical properties :
#
#
# Convention : Reuss Voigt Hill
#
# Bulk Modulus (GPa) = 29.16658 71.32958 50.24808
# Shear Modulus (GPa) = 26.88765 38.52493 32.70629
#
# Velocity S-wave (km/s) = 3.38961 4.05736 3.73842
# Velocity P-wave (km/s) = 5.27091 7.24083 6.33294
#
# Compressibility (1/GPa) = 0.03428582
#
# Stress axis : x y z
#
# Youngs Moduli (GPa) = 59.51507 40.48795 68.36430
#
# Poissons Ratio (x) = -0.18703 0.41008
# Poissons Ratio (y) = -0.27492 0.65236
# Poissons Ratio (z) = 0.35700 0.38635
#
# Static dielectric constant tensor:
#      x y z
#    x 1.965920 0.000000 0.051360 
#    y 0.000000 1.839510 0.000000 
#    z 0.051360 0.000000 2.004980 
# 
# From -- ./inp_files/203025.got.cif
#   From: 2010.05.17/outbox.cif.g08.bks.cpg/sg15_102_cif.got.tgz:203025.got - 2010.06.03 18:47:42.
