data_PCOD9264660
_publ_section_title
;
Structure prediction by ZEFSAII (Michael W. Deem and Ramdas Pophale) SiO2 
 PCOD9264660
Probable space group: C 2/C
;
_chemical_formula_sum "Si O2"
_cell_formula_units_Z 52
_cell_length_a 8.532559
_cell_length_b 31.040094
_cell_length_c 13.809164
_cell_angle_alpha 90.000000
_cell_angle_beta 137.289739
_cell_angle_gamma 90.000000
_cell_volume 2480.766822
_symmetry_space_group_name_H-M "C 2/C"
_symmetry_group_IT_number 15
_symmetry_cell_setting 'monoclinic'
loop_
_space_group_symop_operation_xyz
x,y,z
-x,y,1/2-z
-x,-y,-z
x,-y,1/2+z
1/2+x,1/2+y,z
1/2-x,1/2+y,1/2-z
1/2-x,1/2-y,-z
1/2+x,1/2-y,1/2+z
loop_
_atom_site_type_symbol
_atom_site_label
_atom_site_fract_x
_atom_site_fract_y
_atom_site_fract_z
Si Si1 0.149462 0.786385 0.725523
Si Si2 0.436938 0.063381 0.530553
Si Si3 0.953748 0.291912 0.453910
Si Si4 0.500000 0.651863 0.750000
Si Si5 0.306886 0.357526 0.528873
Si Si6 0.323873 0.523149 0.578407
Si Si7 0.358455 0.410728 0.356099
O O1 0.104326 0.754184 0.617799
O O2 0.000000 0.770081 0.750000
O O3 0.047100 0.833530 0.657314
O O4 0.407280 0.787651 0.882972
O O5 0.285290 0.105552 0.440743
O O6 0.598177 0.048993 0.514219
O O7 0.618889 0.074034 0.698529
O O8 0.271373 0.024256 0.486361
O O9 0.723672 0.318912 0.361565
O O10 0.119892 0.319020 0.455880
O O11 0.529966 0.621258 0.671746
O O12 0.318964 0.383109 0.433927
O O13 0.500000 0.520528 0.750000
O O14 0.465088 0.548876 0.560741
#
# Coordination Sequence:
#
# PCOD9264660 Si02
#       7
#     8   8   8   4   8   8   8
#     4  10  24  43  66  98 131 163 217 265 322 384
#     4  10  19  35  61  88 125 173 209 264 318 383
#     4  11  25  43  67  96 128 170 211 266 324 384
#     4  12  24  40  68  92 132 166 216 260 324 396
#     4  11  22  38  67  92 127 168 219 263 312 383
#     4   9  19  37  58  91 130 168 214 266 324 378
#     4  11  21  39  62  96 123 170 219 264 320 380
#
# _framework density 20.961259999999999
#
# number of rings (size 3 to 8) (size 9 to 14) (size 15 to 20)
#    0.000    1.538    3.846    2.308    4.308    3.077 
#    0.000    0.000    0.000    0.000    0.000    0.000 
#    0.000    0.000    0.000    0.000    0.000    0.000 
#
# Total GULP energy -145254.512422 kJ/mol
# GULP energy per Si atom -5586.712016 kJ/mol
# Density = 2.091355 g / cm^3
# Si number density = 20.961260 Si / 1000 Ang^3
#
#
#
# Elastic Constant Matrix: (Units=GPa)
#
#
# Indices 1 2 3 4 5 6 
#
# 1 57.9081 32.0926 29.3037 0.0000 7.9012 0.0000
# 2 32.0926 142.6995 61.2611 0.0000 9.0372 0.0000
# 3 29.3037 61.2611 90.6513 0.0000 16.3603 0.0000
# 4 0.0000 0.0000 0.0000 -0.2534 0.0000 101.7576
# 5 7.9012 9.0372 16.3603 0.0000 21.9104 0.0000
# 6 0.0000 0.0000 0.0000 101.7576 0.0000 -212.9923
#
#
#
# Elastic Compliance Matrix: (Units=1/GPa)
#
#
# Indices 1 2 3 4 5 6 
#
# 1 0.021499 -0.002673 -0.004557 0.000000 -0.003248 0.000000
# 2 -0.002673 0.010225 -0.006309 0.000000 0.001457 0.000000
# 3 -0.004557 -0.006309 0.018494 0.000000 -0.009564 0.000000
# 4 0.000000 0.000000 0.000000 0.020678 0.000000 0.009879
# 5 -0.003248 0.001457 -0.009564 0.000000 0.053351 0.000000
# 6 0.000000 0.000000 0.000000 0.009879 0.000000 0.000025
#
#
# Mechanical properties :
#
#
# Convention : Reuss Voigt Hill
#
# Bulk Modulus (GPa) = 43.21541 59.61932 51.41736
# Shear Modulus (GPa) = 31.43393 -27.02695 2.20349
#
# Velocity S-wave (km/s) = 3.87669 -3.59468 1.02640
# Velocity P-wave (km/s) = 6.37965 3.35788 5.09781
#
# Compressibility (1/GPa) = 0.02313989
#
# Stress axis : x y z
#
# Youngs Moduli (GPa) = 46.51292 97.79944 54.07173
#
# Poissons Ratio (x) = 0.26142 0.24642
# Poissons Ratio (y) = 0.12433 0.34113
# Poissons Ratio (z) = 0.21198 0.61701
#
# Static dielectric constant tensor:
#      x y z
#    x 1.792320 0.000000 0.000420 
#    y 0.000000 1.755590 0.000000 
#    z 0.000420 0.000000 1.757800 
# 
# From -- ./inp_files/139905.got.cif
#   From: 2010.05.17/outbox.cif.g08.bks.cpg/sg15_70_cif.got.tgz:139905.got - 2010.06.03 18:47:42.
