data_PCOD9264161
_publ_section_title
;
Structure prediction by ZEFSAII (Michael W. Deem and Ramdas Pophale) SiO2 
 PCOD9264161
Probable space group: C 2/C
;
_chemical_formula_sum "Si O2"
_cell_formula_units_Z 64
_cell_length_a 22.715902
_cell_length_b 16.307375
_cell_length_c 16.503124
_cell_angle_alpha 90.000000
_cell_angle_beta 151.908699
_cell_angle_gamma 90.000000
_cell_volume 2878.647966
_symmetry_space_group_name_H-M "C 2/C"
_symmetry_group_IT_number 15
_symmetry_cell_setting 'monoclinic'
loop_
_space_group_symop_operation_xyz
x,y,z
-x,y,1/2-z
-x,-y,-z
x,-y,1/2+z
1/2+x,1/2+y,z
1/2-x,1/2+y,1/2-z
1/2-x,1/2-y,-z
1/2+x,1/2-y,1/2+z
loop_
_atom_site_type_symbol
_atom_site_label
_atom_site_fract_x
_atom_site_fract_y
_atom_site_fract_z
Si Si1 0.087717 0.432323 0.701092
Si Si2 0.668594 0.859078 0.117090
Si Si3 0.633607 0.202542 0.394491
Si Si4 0.878823 0.653396 0.417058
Si Si5 0.018037 0.790072 0.519073
Si Si6 0.895677 0.056879 0.833966
Si Si7 0.903357 0.600576 0.707257
Si Si8 0.306899 0.390965 0.664709
O O1 0.105446 0.366158 0.793272
O O2 0.147632 0.405759 0.690063
O O3 0.128888 0.517541 0.786204
O O4 0.939786 0.427190 0.502932
O O5 0.613907 0.778059 0.097598
O O6 0.798115 0.908255 0.282439
O O7 0.672169 0.836161 0.026579
O O8 0.500000 0.246047 0.250000
O O9 0.750000 0.250000 0.500000
O O10 0.779680 0.632587 0.364096
O O11 0.892640 0.741395 0.391966
O O12 0.013344 0.648017 0.626004
O O13 0.073071 0.836830 0.665084
O O14 0.972905 0.861205 0.402008
O O15 0.829741 0.989889 0.694540
O O16 0.000000 0.000000 0.000000
O O17 0.775483 0.634088 0.513228
O O18 0.000000 0.584164 0.750000
#
# Coordination Sequence:
#
# PCOD9264161 Si02
#       8
#     8   8   8   8   8   8   8   8
#     4  10  20  36  56  90 118 159 210 256 315 385
#     4  10  20  35  60  84 122 160 203 254 307 376
#     4  10  22  35  56  88 127 167 206 256 318 386
#     4  10  21  36  60  87 115 150 208 255 306 372
#     4  10  22  36  60  90 120 158 205 254 312 378
#     4  10  21  37  58  87 118 160 202 251 313 382
#     4  10  19  35  56  81 114 153 200 254 311 375
#     4  10  21  38  60  85 118 159 200 252 319 377
#
# _framework density 22.232659999999999
#
# number of rings (size 3 to 8) (size 9 to 14) (size 15 to 20)
#    0.000    2.000    0.000    4.500    7.000    1.500 
#    0.000    0.000    0.000    0.000    0.000   12.250 
#    0.000    0.000    0.000    0.000    0.000    0.000 
#
# Total GULP energy -178311.926121 kJ/mol
# GULP energy per Si atom -5572.247691 kJ/mol
# Density = 2.218206 g / cm^3
# Si number density = 22.232660 Si / 1000 Ang^3
#
#
#
# Elastic Constant Matrix: (Units=GPa)
#
#
# Indices 1 2 3 4 5 6 
#
# 1 61.7842 22.5271 8.3677 0.0000 -5.8178 0.0000
# 2 22.5271 86.7961 19.4915 0.0000 0.7304 0.0000
# 3 8.3677 19.4915 76.2912 0.0000 3.3997 0.0000
# 4 0.0000 0.0000 0.0000 28.1134 0.0000 0.0576
# 5 -5.8178 0.7304 3.3997 0.0000 41.1381 0.0000
# 6 0.0000 0.0000 0.0000 0.0576 0.0000 21.5492
#
#
#
# Elastic Compliance Matrix: (Units=1/GPa)
#
#
# Indices 1 2 3 4 5 6 
#
# 1 0.018228 -0.004538 -0.000962 0.000000 0.002738 0.000000
# 2 -0.004538 0.013352 -0.002885 0.000000 -0.000640 0.000000
# 3 -0.000962 -0.002885 0.014006 0.000000 -0.001242 0.000000
# 4 0.000000 0.000000 0.000000 0.035570 0.000000 -0.000095
# 5 0.002738 -0.000640 -0.001242 0.000000 0.024810 0.000000
# 6 0.000000 0.000000 0.000000 -0.000095 0.000000 0.046406
#
#
# Mechanical properties :
#
#
# Convention : Reuss Voigt Hill
#
# Bulk Modulus (GPa) = 34.70278 36.18269 35.44273
# Shear Modulus (GPa) = 27.97252 29.79249 28.88251
#
# Velocity S-wave (km/s) = 3.55092 3.66462 3.60822
# Velocity P-wave (km/s) = 5.69692 5.84943 5.77367
#
# Compressibility (1/GPa) = 0.02881614
#
# Stress axis : x y z
#
# Youngs Moduli (GPa) = 54.86052 74.89333 71.39976
#
# Poissons Ratio (x) = 0.33986 0.06868
# Poissons Ratio (y) = 0.24895 0.20600
# Poissons Ratio (z) = 0.05277 0.21608
#
# Static dielectric constant tensor:
#      x y z
#    x 1.837650 0.000000 -0.041340 
#    y 0.000000 1.890780 0.000000 
#    z -0.041340 0.000000 2.104900 
# 
# From -- ./inp_files/219746.got.cif
#   From: 2010.05.17/outbox.cif.g08.bks.cpg/sg15_110_cif.got.tgz:219746.got - 2010.06.03 18:47:42.
