data_PCOD9264062
_publ_section_title
;
Structure prediction by ZEFSAII (Michael W. Deem and Ramdas Pophale) SiO2 
 PCOD9264062
Probable space group: C 2/C
;
_chemical_formula_sum "Si O2"
_cell_formula_units_Z 48
_cell_length_a 17.645745
_cell_length_b 8.535706
_cell_length_c 23.202852
_cell_angle_alpha 90.000000
_cell_angle_beta 130.884848
_cell_angle_gamma 90.000000
_cell_volume 2642.152540
_symmetry_space_group_name_H-M "C 2/C"
_symmetry_group_IT_number 15
_symmetry_cell_setting 'monoclinic'
loop_
_space_group_symop_operation_xyz
x,y,z
-x,y,1/2-z
-x,-y,-z
x,-y,1/2+z
1/2+x,1/2+y,z
1/2-x,1/2+y,1/2-z
1/2-x,1/2-y,-z
1/2+x,1/2-y,1/2+z
loop_
_atom_site_type_symbol
_atom_site_label
_atom_site_fract_x
_atom_site_fract_y
_atom_site_fract_z
Si Si1 0.834690 0.357533 0.071597
Si Si2 0.920686 0.051845 0.878987
Si Si3 0.350631 0.961700 0.960682
Si Si4 0.028522 0.152348 0.199168
Si Si5 0.726160 0.799640 0.337288
Si Si6 0.541684 0.748989 0.023683
O O1 0.799420 0.402388 0.118311
O O2 0.935159 0.253635 0.128647
O O3 0.750000 0.250000 0.000000
O O4 0.844268 0.485918 0.026381
O O5 0.813541 0.127737 0.841682
O O6 0.943524 0.995620 0.826142
O O7 0.930707 0.891992 0.920726
O O8 0.003493 0.170551 0.945429
O O9 0.263820 0.863714 0.885475
O O10 0.370968 0.126636 0.941398
O O11 0.447053 0.847939 0.000197
O O12 0.126018 0.263310 0.252419
O O13 0.000000 0.106517 0.250000
#
# Coordination Sequence:
#
# PCOD9264062 Si02
#       6
#     8   8   8   8   8   8
#     4   9  17  33  58  79 102 143 187 223 259 338
#     4  10  19  35  54  83 110 141 182 233 274 329
#     4   9  16  33  54  82 104 142 181 224 268 333
#     4  10  20  36  57  79 109 154 187 222 274 337
#     4   9  20  33  55  81 108 144 186 219 280 331
#     4   9  18  30  57  82 106 135 183 230 277 313
#
# _framework density 18.167005
#
# number of rings (size 3 to 8) (size 9 to 14) (size 15 to 20)
#    0.000    2.667    1.667    0.000    2.333    1.333 
#    3.000    0.833    3.667    0.000    0.000    0.000 
#    0.000    0.000    0.000    0.000    0.000    0.000 
#
# Total GULP energy -133633.892514 kJ/mol
# GULP energy per Si atom -5568.078855 kJ/mol
# Density = 1.812566 g / cm^3
# Si number density = 18.167005 Si / 1000 Ang^3
#
#
#
# Elastic Constant Matrix: (Units=GPa)
#
#
# Indices 1 2 3 4 5 6 
#
# 1 52.7412 11.4933 29.4582 0.0000 5.2616 0.0000
# 2 11.4933 47.7959 11.1439 0.0000 5.6745 0.0000
# 3 29.4582 11.1439 82.0019 0.0000 13.5068 0.0000
# 4 0.0000 0.0000 0.0000 11.9722 0.0000 -1.4241
# 5 5.2616 5.6745 13.5068 0.0000 29.1294 0.0000
# 6 0.0000 0.0000 0.0000 -1.4241 0.0000 28.8906
#
#
#
# Elastic Compliance Matrix: (Units=1/GPa)
#
#
# Indices 1 2 3 4 5 6 
#
# 1 0.024423 -0.003969 -0.008266 0.000000 0.000195 0.000000
# 2 -0.003969 0.022511 -0.001114 0.000000 -0.003152 0.000000
# 3 -0.008266 -0.001114 0.016277 0.000000 -0.005837 0.000000
# 4 0.000000 0.000000 0.000000 0.084019 0.000000 0.004142
# 5 0.000195 -0.003152 -0.005837 0.000000 0.037615 0.000000
# 6 0.000000 0.000000 0.000000 0.004142 0.000000 0.034817
#
#
# Mechanical properties :
#
#
# Convention : Reuss Voigt Hill
#
# Bulk Modulus (GPa) = 27.38810 31.85888 29.62349
# Shear Modulus (GPa) = 19.33992 22.69469 21.01731
#
# Velocity S-wave (km/s) = 3.26630 3.53827 3.40501
# Velocity P-wave (km/s) = 5.41604 5.85382 5.63918
#
# Compressibility (1/GPa) = 0.03651221
#
# Stress axis : x y z
#
# Youngs Moduli (GPa) = 40.94482 44.42346 61.43502
#
# Poissons Ratio (x) = 0.17630 0.50785
# Poissons Ratio (y) = 0.16250 0.06846
# Poissons Ratio (z) = 0.33847 0.04950
#
# Static dielectric constant tensor:
#      x y z
#    x 1.692660 0.000000 -0.022280 
#    y 0.000000 1.600730 0.000000 
#    z -0.022280 0.000000 1.635360 
# 
# From -- ./inp_files/208529.got.cif
#   From: 2010.05.17/outbox.cif.g08.bks.cpg/sg15_105_cif.got.tgz:208529.got - 2010.06.03 18:47:42.
