data_PCOD9264025
_publ_section_title
;
Structure prediction by ZEFSAII (Michael W. Deem and Ramdas Pophale) SiO2 
 PCOD9264025
Probable space group: C 2/C
;
_chemical_formula_sum "Si O2"
_cell_formula_units_Z 64
_cell_length_a 22.856469
_cell_length_b 9.566085
_cell_length_c 11.645850
_cell_angle_alpha 90.000000
_cell_angle_beta 75.379360
_cell_angle_gamma 90.000000
_cell_volume 2463.874831
_symmetry_space_group_name_H-M "C 2/C"
_symmetry_group_IT_number 15
_symmetry_cell_setting 'monoclinic'
loop_
_space_group_symop_operation_xyz
x,y,z
-x,y,1/2-z
-x,-y,-z
x,-y,1/2+z
1/2+x,1/2+y,z
1/2-x,1/2+y,1/2-z
1/2-x,1/2-y,-z
1/2+x,1/2-y,1/2+z
loop_
_atom_site_type_symbol
_atom_site_label
_atom_site_fract_x
_atom_site_fract_y
_atom_site_fract_z
Si Si1 0.110646 0.966357 0.748992
Si Si2 0.852713 0.276292 0.737856
Si Si3 0.319023 0.207708 0.489812
Si Si4 0.512020 0.171414 0.375105
Si Si5 0.107255 0.011670 0.500649
Si Si6 0.224999 0.821470 0.401756
Si Si7 0.339831 0.158270 0.725669
Si Si8 0.478130 0.856612 0.142594
O O1 0.079259 0.969614 0.638400
O O2 0.150137 0.824903 0.746100
O O3 0.149351 0.109981 0.728438
O O4 0.076080 0.986208 0.889467
O O5 0.847120 0.353721 0.860852
O O6 0.916205 0.308464 0.648270
O O7 0.797017 0.291139 0.681074
O O8 0.250000 0.250000 0.500000
O O9 0.363057 0.336785 0.498609
O O10 0.321720 0.123405 0.604436
O O11 0.500000 0.229908 0.250000
O O12 0.486472 0.216022 0.513666
O O13 0.490925 0.009431 0.379758
O O14 0.165765 0.911039 0.458981
O O15 0.250000 0.750000 0.500000
O O16 0.283378 0.898218 0.323769
O O17 0.408298 0.109913 0.701197
O O18 0.500000 0.785040 0.250000
#
# Coordination Sequence:
#
# PCOD9264025 Si02
#       8
#     8   8   8   8   8   8   8   8
#     4   9  19  35  55  80 119 149 182 241 296 341
#     4  10  21  38  62  85 115 162 194 247 301 357
#     4  10  19  35  53  84 118 150 194 240 295 355
#     4  10  22  45  65  86 120 155 210 254 297 347
#     4   9  19  33  50  75 117 158 179 230 289 345
#     4  11  21  34  55  88 120 156 199 233 302 363
#     4  11  21  38  59  86 122 157 194 249 303 358
#     4  10  24  42  64  89 118 160 201 260 297 343
#
# _framework density 25.975345000000001
#
# number of rings (size 3 to 8) (size 9 to 14) (size 15 to 20)
#    0.000    2.000    2.500    0.750    1.750    1.000 
#    4.500    1.250    0.000    0.000    0.000    0.000 
#    0.000    0.000    0.000    0.000    0.000    0.000 
#
# Total GULP energy -178438.684023 kJ/mol
# GULP energy per Si atom -5576.208876 kJ/mol
# Density = 2.591622 g / cm^3
# Si number density = 25.975345 Si / 1000 Ang^3
#
#
#
# Elastic Constant Matrix: (Units=GPa)
#
#
# Indices 1 2 3 4 5 6 
#
# 1 86.0279 -8.8871 53.9158 0.0000 1.2578 0.0000
# 2 -8.8871 81.1955 19.1902 0.0000 -10.4348 0.0000
# 3 53.9158 19.1902 234.0529 0.0000 33.7273 0.0000
# 4 0.0000 0.0000 0.0000 -1.4800 0.0000 -1.2445
# 5 1.2578 -10.4348 33.7273 0.0000 40.7330 0.0000
# 6 0.0000 0.0000 0.0000 -1.2445 0.0000 15.1845
#
#
#
# Elastic Compliance Matrix: (Units=1/GPa)
#
#
# Indices 1 2 3 4 5 6 
#
# 1 0.014466 0.003038 -0.004121 0.000000 0.003744 0.000000
# 2 0.003038 0.014013 -0.002671 0.000000 0.005708 0.000000
# 3 -0.004121 -0.002671 0.006269 0.000000 -0.005748 0.000000
# 4 0.000000 0.000000 0.000000 -0.632104 0.000000 -0.051808
# 5 0.003744 0.005708 -0.005748 0.000000 0.030656 0.000000
# 6 0.000000 0.000000 0.000000 -0.051808 0.000000 0.061611
#
#
# Mechanical properties :
#
#
# Convention : Reuss Voigt Hill
#
# Bulk Modulus (GPa) = 36.70972 58.85713 47.78342
# Shear Modulus (GPa) = -10.23541 33.35799 11.56129
#
# Velocity S-wave (km/s) = -1.98721 3.58749 2.11200
# Velocity P-wave (km/s) = 2.98293 6.31412 4.93791
#
# Compressibility (1/GPa) = 0.02724075
#
# Stress axis : x y z
#
# Youngs Moduli (GPa) = 69.12753 71.35986 159.51067
#
# Poissons Ratio (x) = -0.21683 0.65734
# Poissons Ratio (y) = -0.21004 0.42613
# Poissons Ratio (z) = 0.28487 0.19063
#
# Static dielectric constant tensor:
#      x y z
#    x 2.065670 0.000000 0.101380 
#    y 0.000000 2.193690 0.000000 
#    z 0.101380 0.000000 2.120010 
# 
# From -- ./inp_files/117974.got.cif
#   From: 2010.05.17/outbox.cif.g08.bks.cpg/sg15_59_cif.got.tgz:117974.got - 2010.06.03 18:47:42.
