data_PCOD9264893
_publ_section_title
;
Structure prediction by ZEFSAII (Michael W. Deem and Ramdas Pophale) SiO2 
 PCOD9264893
Probable space group: C 2/C
;
_chemical_formula_sum "Si O2"
_cell_formula_units_Z 52
_cell_length_a 9.909094
_cell_length_b 18.240352
_cell_length_c 15.860021
_cell_angle_alpha 90.000000
_cell_angle_beta 48.284298
_cell_angle_gamma 90.000000
_cell_volume 2139.809175
_symmetry_space_group_name_H-M "C 2/C"
_symmetry_group_IT_number 15
_symmetry_cell_setting 'monoclinic'
loop_
_space_group_symop_operation_xyz
x,y,z
-x,y,1/2-z
-x,-y,-z
x,-y,1/2+z
1/2+x,1/2+y,z
1/2-x,1/2+y,1/2-z
1/2-x,1/2-y,-z
1/2+x,1/2-y,1/2+z
loop_
_atom_site_type_symbol
_atom_site_label
_atom_site_fract_x
_atom_site_fract_y
_atom_site_fract_z
Si Si1 0.000000 0.205374 0.250000
Si Si2 0.737602 0.469756 0.235890
Si Si3 0.167084 0.980373 0.063494
Si Si4 0.643404 0.755515 0.633656
Si Si5 0.382347 0.195895 0.674737
Si Si6 0.211685 0.368132 0.972552
Si Si7 0.993438 0.395289 0.618886
O O1 0.150813 0.256047 0.229334
O O2 0.094066 0.155598 0.141626
O O3 0.699270 0.480535 0.151561
O O4 0.545365 0.474635 0.362611
O O5 0.814068 0.387462 0.211648
O O6 0.872544 0.536763 0.203586
O O7 0.254248 0.055641 0.995103
O O8 0.296396 0.917854 0.974874
O O9 0.500000 0.704905 0.750000
O O10 0.750000 0.750000 0.500000
O O11 0.810409 0.743453 0.627185
O O12 0.503604 0.821356 0.667923
O O13 0.598151 0.187229 0.575101
O O14 0.085966 0.381346 0.941739
#
# Coordination Sequence:
#
# PCOD9264893 Si02
#       7
#     4   8   8   8   8   8   8
#     4  12  28  42  66  96 144 200 248 296 374 452
#     4  10  20  37  67 101 141 191 246 302 376 446
#     4  10  19  35  72 101 133 187 243 297 371 468
#     4  12  27  45  74 112 155 193 247 316 385 448
#     4  12  25  43  69  98 147 196 247 307 367 454
#     4  11  20  43  65  97 139 187 243 299 376 449
#     4  11  20  42  68 106 144 182 245 320 371 440
#
# _framework density 24.301233
#
# number of rings (size 3 to 8) (size 9 to 14) (size 15 to 20)
#    0.000    0.923    4.615    4.154    4.308    0.000 
#    1.385    0.000    0.000    2.769    0.000    0.000 
#    0.000    0.000    0.000    0.000    0.000    0.000 
#
# Total GULP energy -144995.149049 kJ/mol
# GULP energy per Si atom -5576.736502 kJ/mol
# Density = 2.424592 g / cm^3
# Si number density = 24.301233 Si / 1000 Ang^3
#
#
#
# Elastic Constant Matrix: (Units=GPa)
#
#
# Indices 1 2 3 4 5 6 
#
# 1 70.2280 35.8090 24.0442 0.0000 -1.9067 -0.0001
# 2 35.8090 101.9725 1.2231 0.0000 -13.4254 0.0000
# 3 24.0442 1.2231 91.8360 0.0000 -28.2460 0.0000
# 4 0.0000 0.0000 0.0000 12.3414 0.0000 -9.6009
# 5 -1.9067 -13.4254 -28.2460 0.0000 40.9227 0.0000
# 6 -0.0001 0.0000 0.0000 -9.6009 0.0000 29.2914
#
#
#
# Elastic Compliance Matrix: (Units=1/GPa)
#
#
# Indices 1 2 3 4 5 6 
#
# 1 0.020709 -0.008078 -0.007405 0.000000 -0.006796 0.000000
# 2 -0.008078 0.013495 0.004039 0.000000 0.006839 0.000000
# 3 -0.007405 0.004039 0.016599 0.000000 0.012437 0.000000
# 4 0.000000 0.000000 0.000000 0.108761 0.000000 0.035649
# 5 -0.006796 0.006839 0.012437 0.000000 0.034948 0.000000
# 6 0.000000 0.000000 0.000000 0.035649 0.000000 0.045824
#
#
# Mechanical properties :
#
#
# Convention : Reuss Voigt Hill
#
# Bulk Modulus (GPa) = 35.82329 42.90990 39.36659
# Shear Modulus (GPa) = 18.34659 30.04177 24.19418
#
# Velocity S-wave (km/s) = 2.75064 3.51981 3.15873
# Velocity P-wave (km/s) = 4.98612 5.84932 5.43489
#
# Compressibility (1/GPa) = 0.02791480
#
# Stress axis : x y z
#
# Youngs Moduli (GPa) = 48.28806 74.10014 60.24402
#
# Poissons Ratio (x) = 0.59860 0.44609
# Poissons Ratio (y) = 0.39008 -0.24330
# Poissons Ratio (z) = 0.35756 -0.29926
#
# Static dielectric constant tensor:
#      x y z
#    x 1.964850 0.000000 -0.003770 
#    y 0.000000 1.991580 0.000000 
#    z -0.003770 0.000000 2.015720 
# 
# From -- ./inp_files/192451.got.cif
#   From: 2010.05.17/outbox.cif.g08.bks.cpg/sg15_97_cif.got.tgz:192451.got - 2010.06.03 18:47:42.
