data_PCOD9264432
_publ_section_title
;
Structure prediction by ZEFSAII (Michael W. Deem and Ramdas Pophale) SiO2 
 PCOD9264432
Probable space group: C 2/C
;
_chemical_formula_sum "Si O2"
_cell_formula_units_Z 40
_cell_length_a 12.669511
_cell_length_b 15.533121
_cell_length_c 14.915811
_cell_angle_alpha 90.000000
_cell_angle_beta 146.317041
_cell_angle_gamma 90.000000
_cell_volume 1627.957025
_symmetry_space_group_name_H-M "C 2/C"
_symmetry_group_IT_number 15
_symmetry_cell_setting 'monoclinic'
loop_
_space_group_symop_operation_xyz
x,y,z
-x,y,1/2-z
-x,-y,-z
x,-y,1/2+z
1/2+x,1/2+y,z
1/2-x,1/2+y,1/2-z
1/2-x,1/2-y,-z
1/2+x,1/2-y,1/2+z
loop_
_atom_site_type_symbol
_atom_site_label
_atom_site_fract_x
_atom_site_fract_y
_atom_site_fract_z
Si Si1 0.229191 0.013576 0.006801
Si Si2 0.187864 0.658244 0.566808
Si Si3 0.978491 0.576584 0.555510
Si Si4 0.226427 0.661847 0.318959
Si Si5 0.930060 0.143335 0.289493
O O1 0.202918 0.083329 0.908186
O O2 0.240512 0.074134 0.102176
O O3 0.421470 0.963491 0.110052
O O4 0.064479 0.941286 0.893544
O O5 0.157089 0.634099 0.651124
O O6 0.979488 0.658546 0.373181
O O7 0.271499 0.752963 0.619619
O O8 0.783152 0.622177 0.391259
O O9 0.000000 0.500000 0.500000
O O10 0.395506 0.675386 0.365622
O O11 0.000000 0.195074 0.250000
#
# Coordination Sequence:
#
# PCOD9264432 Si02
#       5
#     8   8   8   8   8
#     4  10  19  35  59  82 108 147 191 236 280 330
#     4  10  22  38  57  85 122 152 186 235 288 339
#     4   8  17  34  54  78 111 149 185 228 280 335
#     4  11  22  37  57  87 118 151 190 235 284 342
#     4   9  19  36  58  82 112 149 191 236 283 336
#
# _framework density 24.570672999999999
#
# number of rings (size 3 to 8) (size 9 to 14) (size 15 to 20)
#    0.000    2.400    0.000    1.800    0.000    6.400 
#    0.000   13.000    0.000    0.000    0.000    0.000 
#    0.000    0.000    0.000    0.000    0.000    0.000 
#
# Total GULP energy -111465.869160 kJ/mol
# GULP energy per Si atom -5573.293458 kJ/mol
# Density = 2.451475 g / cm^3
# Si number density = 24.570673 Si / 1000 Ang^3
#
#
#
# Elastic Constant Matrix: (Units=GPa)
#
#
# Indices 1 2 3 4 5 6 
#
# 1 142.6169 13.8983 29.6550 -0.0028 -17.8153 -0.0025
# 2 13.8983 72.4764 7.6656 -0.0050 -11.4279 -0.0045
# 3 29.6550 7.6656 48.6577 -0.0085 -9.0542 -0.0083
# 4 -0.0028 -0.0050 -0.0085 1.6830 -0.0055 -5.8769
# 5 -17.8153 -11.4279 -9.0542 -0.0055 29.8328 -0.0044
# 6 -0.0025 -0.0045 -0.0083 -5.8769 -0.0044 23.3202
#
#
#
# Elastic Compliance Matrix: (Units=1/GPa)
#
#
# Indices 1 2 3 4 5 6 
#
# 1 0.008416 -0.000604 -0.004390 0.000008 0.003462 0.000002
# 2 -0.000604 0.014811 -0.001035 0.000545 0.004999 0.000141
# 3 -0.004390 -0.001035 0.024195 0.001304 0.004326 0.000337
# 4 0.000008 0.000545 0.001304 4.951219 0.001700 1.247747
# 5 0.003462 0.004999 0.004326 0.001700 0.038816 0.000439
# 6 0.000002 0.000141 0.000337 1.247747 0.000439 0.357323
#
#
# Mechanical properties :
#
#
# Convention : Reuss Voigt Hill
#
# Bulk Modulus (GPa) = 28.27629 40.68762 34.48196
# Shear Modulus (GPa) = 0.92274 25.13600 13.02937
#
# Velocity S-wave (km/s) = 0.61348 3.20192 2.30528
# Velocity P-wave (km/s) = 3.46914 5.50137 4.59891
#
# Compressibility (1/GPa) = 0.03536532
#
# Stress axis : x y z
#
# Youngs Moduli (GPa) = 118.82262 67.51680 41.33013
#
# Poissons Ratio (x) = 0.04076 0.18143
# Poissons Ratio (y) = 0.07173 0.04278
# Poissons Ratio (z) = 0.52161 0.06989
#
# Static dielectric constant tensor:
#      x y z
#    x 2.037900 0.000000 -0.043550 
#    y 0.000000 1.961130 0.000000 
#    z -0.043550 0.000000 1.945860 
# 
# From -- ./inp_files/143937.got.cif
#   From: 2010.05.17/outbox.cif.g08.bks.cpg/sg15_72_cif.got.tgz:143937.got - 2010.06.03 18:47:42.
