data_PCOD9264856
_publ_section_title
;
Structure prediction by ZEFSAII (Michael W. Deem and Ramdas Pophale) SiO2 
 PCOD9264856
Probable space group: C 2/C
;
_chemical_formula_sum "Si O2"
_cell_formula_units_Z 60
_cell_length_a 16.423004
_cell_length_b 14.611538
_cell_length_c 12.130327
_cell_angle_alpha 90.000000
_cell_angle_beta 80.524603
_cell_angle_gamma 90.000000
_cell_volume 2871.143493
_symmetry_space_group_name_H-M "C 2/C"
_symmetry_group_IT_number 15
_symmetry_cell_setting 'monoclinic'
loop_
_space_group_symop_operation_xyz
x,y,z
-x,y,1/2-z
-x,-y,-z
x,-y,1/2+z
1/2+x,1/2+y,z
1/2-x,1/2+y,1/2-z
1/2-x,1/2-y,-z
1/2+x,1/2-y,1/2+z
loop_
_atom_site_type_symbol
_atom_site_label
_atom_site_fract_x
_atom_site_fract_y
_atom_site_fract_z
Si Si1 0.590239 0.089938 0.635309
Si Si2 0.094220 0.230485 0.220634
Si Si3 0.804682 0.336389 0.954251
Si Si4 0.735436 0.169989 0.286045
Si Si5 0.004030 0.312093 0.541329
Si Si6 0.867307 0.185329 0.539242
Si Si7 0.745100 0.537715 0.017153
Si Si8 0.000000 0.577825 0.250000
O O1 0.589483 0.160753 0.736027
O O2 0.531145 0.129837 0.553249
O O3 0.680107 0.082286 0.566236
O O4 0.563760 0.991325 0.680522
O O5 0.169471 0.191200 0.272022
O O6 0.000000 0.194696 0.250000
O O7 0.129832 0.218893 0.088658
O O8 0.809308 0.342008 0.820139
O O9 0.897749 0.319171 0.976791
O O10 0.761601 0.429550 0.008486
O O11 0.750000 0.250000 0.000000
O O12 0.692328 0.251555 0.369772
O O13 0.744127 0.080963 0.362919
O O14 0.961353 0.211716 0.551192
O O15 0.968996 0.360484 0.657929
O O16 0.834540 0.081911 0.528002
#
# Coordination Sequence:
#
# PCOD9264856 Si02
#       8
#     8   8   8   8   8   8   8   4
#     4  11  21  34  64  99 126 166 224 276 328 417
#     4  10  19  35  66 100 127 167 233 286 326 397
#     4  12  30  43  62 103 142 175 225 294 351 395
#     4  11  22  43  68  94 139 181 222 282 343 409
#     4  11  24  39  60  93 139 168 217 286 343 408
#     4  10  21  41  69  97 125 178 230 272 333 420
#     4  11  22  46  67  97 130 182 232 268 334 424
#     4  12  22  34  58 100 136 176 204 274 376 398
#
# _framework density 20.897596
#
# number of rings (size 3 to 8) (size 9 to 14) (size 15 to 20)
#    0.000    1.067    6.000    2.000    3.733    1.067 
#    0.000    0.667    0.000    0.000    0.000    0.000 
#    0.000    0.000    0.000    0.000    0.000    0.000 
#
# Total GULP energy -167205.647587 kJ/mol
# GULP energy per Si atom -5573.521586 kJ/mol
# Density = 2.085003 g / cm^3
# Si number density = 20.897596 Si / 1000 Ang^3
#
#
#
# Elastic Constant Matrix: (Units=GPa)
#
#
# Indices 1 2 3 4 5 6 
#
# 1 118.2744 73.1263 13.2093 0.0000 -4.4805 0.0000
# 2 73.1263 124.7358 29.3311 0.0000 -0.0200 0.0000
# 3 13.2093 29.3311 83.0386 0.0000 -1.1454 0.0000
# 4 0.0000 0.0000 0.0000 58.2957 0.0000 -20.3824
# 5 -4.4805 -0.0200 -1.1454 0.0000 21.6321 0.0000
# 6 0.0000 0.0000 0.0000 -20.3824 0.0000 40.2224
#
#
#
# Elastic Compliance Matrix: (Units=1/GPa)
#
#
# Indices 1 2 3 4 5 6 
#
# 1 0.013469 -0.008071 0.000747 0.000000 0.002822 0.000000
# 2 -0.008071 0.013580 -0.003538 0.000000 -0.001847 0.000000
# 3 0.000747 -0.003538 0.013185 0.000000 0.000850 0.000000
# 4 0.000000 0.000000 0.000000 0.020848 0.000000 0.010564
# 5 0.002822 -0.001847 0.000850 0.000000 0.046855 0.000000
# 6 0.000000 0.000000 0.000000 0.010564 0.000000 0.030215
#
#
# Mechanical properties :
#
#
# Convention : Reuss Voigt Hill
#
# Bulk Modulus (GPa) = 54.02587 61.93136 57.97861
# Shear Modulus (GPa) = 30.11191 38.05550 34.08370
#
# Velocity S-wave (km/s) = 3.80007 4.27200 4.04293
# Velocity P-wave (km/s) = 6.72033 7.35074 7.04259
#
# Compressibility (1/GPa) = 0.01850965
#
# Stress axis : x y z
#
# Youngs Moduli (GPa) = 74.24666 73.63504 75.84207
#
# Poissons Ratio (x) = 0.59433 -0.05668
# Poissons Ratio (y) = 0.59926 0.26837
# Poissons Ratio (z) = -0.05549 0.26056
#
# Static dielectric constant tensor:
#      x y z
#    x 1.890920 0.000000 -0.000710 
#    y 0.000000 1.778000 0.000000 
#    z -0.000710 0.000000 1.801570 
# 
# From -- ./inp_files/105346.got.cif
#   From: 2010.05.17/outbox.cif.g08.bks.cpg/sg15_53_cif.got.tgz:105346.got - 2010.06.03 18:47:42.
