data_PCOD9264010
_publ_section_title
;
Structure prediction by ZEFSAII (Michael W. Deem and Ramdas Pophale) SiO2 
 PCOD9264010
Probable space group: C 2/C
;
_chemical_formula_sum "Si O2"
_cell_formula_units_Z 36
_cell_length_a 15.274281
_cell_length_b 6.955131
_cell_length_c 14.454296
_cell_angle_alpha 90.000000
_cell_angle_beta 95.204377
_cell_angle_gamma 90.000000
_cell_volume 1529.216385
_symmetry_space_group_name_H-M "C 2/C"
_symmetry_group_IT_number 15
_symmetry_cell_setting 'monoclinic'
loop_
_space_group_symop_operation_xyz
x,y,z
-x,y,1/2-z
-x,-y,-z
x,-y,1/2+z
1/2+x,1/2+y,z
1/2-x,1/2+y,1/2-z
1/2-x,1/2-y,-z
1/2+x,1/2-y,1/2+z
loop_
_atom_site_type_symbol
_atom_site_label
_atom_site_fract_x
_atom_site_fract_y
_atom_site_fract_z
Si Si1 0.712863 0.555078 0.453255
Si Si2 0.000000 0.675020 0.250000
Si Si3 0.832818 0.927884 0.857646
Si Si4 0.979480 0.980299 0.607481
Si Si5 0.819922 0.624891 0.300036
O O1 0.750000 0.750000 0.500000
O O2 0.693662 0.414524 0.536986
O O3 0.619031 0.599776 0.396093
O O4 0.783378 0.500962 0.381958
O O5 0.087812 0.560715 0.233457
O O6 0.023979 0.817772 0.337704
O O7 0.836736 0.159040 0.838010
O O8 0.756611 0.861147 0.782627
O O9 0.933904 0.868044 0.848843
O O10 0.000000 0.000000 0.500000
#
# Coordination Sequence:
#
# PCOD9264010 Si02
#       5
#     8   4   8   8   8
#     4   9  17  31  53  78 104 133 173 220 263 309
#     4  10  20  34  54  76 106 144 178 214 262 324
#     4   9  19  34  55  78 104 138 178 221 265 316
#     4   9  17  33  55  77 100 137 180 213 255 318
#     4  10  19  35  53  76 105 140 178 219 263 315
#
# _framework density 23.541468999999999
#
# number of rings (size 3 to 8) (size 9 to 14) (size 15 to 20)
#    0.000    2.667    0.000    4.000    0.000    0.000 
#    0.000   15.556    0.000    0.000    0.000    0.000 
#    0.000    0.000    0.000    0.000    0.000    0.000 
#
# Total GULP energy -100459.252328 kJ/mol
# GULP energy per Si atom -5581.069574 kJ/mol
# Density = 2.348789 g / cm^3
# Si number density = 23.541469 Si / 1000 Ang^3
#
#
#
# Elastic Constant Matrix: (Units=GPa)
#
#
# Indices 1 2 3 4 5 6 
#
# 1 255.4289 15.7351 77.2907 0.0000 -2.5877 0.0000
# 2 15.7351 48.3598 15.6394 0.0000 0.2089 0.0000
# 3 77.2907 15.6394 120.4420 0.0000 -6.4124 0.0000
# 4 0.0000 0.0000 0.0000 21.3476 0.0000 4.6912
# 5 -2.5877 0.2089 -6.4124 0.0000 48.3644 0.0000
# 6 0.0000 0.0000 0.0000 4.6912 0.0000 24.5033
#
#
#
# Elastic Compliance Matrix: (Units=1/GPa)
#
#
# Indices 1 2 3 4 5 6 
#
# 1 0.004876 -0.000597 -0.003059 0.000000 -0.000142 0.000000
# 2 -0.000597 0.021668 -0.002455 0.000000 -0.000451 0.000000
# 3 -0.003059 -0.002455 0.010652 0.000000 0.001259 0.000000
# 4 0.000000 0.000000 0.000000 0.048901 0.000000 -0.009362
# 5 -0.000142 -0.000451 0.001259 0.000000 0.020838 0.000000
# 6 0.000000 0.000000 0.000000 -0.009362 0.000000 0.042603
#
#
# Mechanical properties :
#
#
# Convention : Reuss Voigt Hill
#
# Bulk Modulus (GPa) = 40.04023 71.28456 55.66239
# Shear Modulus (GPa) = 29.39726 39.88076 34.63901
#
# Velocity S-wave (km/s) = 3.53759 4.12037 3.84005
# Velocity P-wave (km/s) = 5.80787 7.27892 6.58461
#
# Compressibility (1/GPa) = 0.02497488
#
# Stress axis : x y z
#
# Youngs Moduli (GPa) = 205.08771 46.15041 93.88197
#
# Poissons Ratio (x) = 0.02753 0.28720
# Poissons Ratio (y) = 0.12235 0.23046
# Poissons Ratio (z) = 0.62739 0.11329
#
# Static dielectric constant tensor:
#      x y z
#    x 1.950650 0.000000 -0.043300 
#    y 0.000000 1.956590 0.000000 
#    z -0.043300 0.000000 1.906190 
# 
# From -- ./inp_files/141371.got.cif
#   From: 2010.05.17/outbox.cif.g08.bks.cpg/sg15_71_cif.got.tgz:141371.got - 2010.06.03 18:47:42.
