data_PCOD9264807
_publ_section_title
;
Structure prediction by ZEFSAII (Michael W. Deem and Ramdas Pophale) SiO2 
 PCOD9264807
Probable space group: C 2/C
;
_chemical_formula_sum "Si O2"
_cell_formula_units_Z 56
_cell_length_a 8.689938
_cell_length_b 18.493021
_cell_length_c 15.763681
_cell_angle_alpha 90.000000
_cell_angle_beta 110.041699
_cell_angle_gamma 90.000000
_cell_volume 2379.867748
_symmetry_space_group_name_H-M "C 2/C"
_symmetry_group_IT_number 15
_symmetry_cell_setting 'monoclinic'
loop_
_space_group_symop_operation_xyz
x,y,z
-x,y,1/2-z
-x,-y,-z
x,-y,1/2+z
1/2+x,1/2+y,z
1/2-x,1/2+y,1/2-z
1/2-x,1/2-y,-z
1/2+x,1/2-y,1/2+z
loop_
_atom_site_type_symbol
_atom_site_label
_atom_site_fract_x
_atom_site_fract_y
_atom_site_fract_z
Si Si1 0.218031 0.005304 0.110430
Si Si2 0.114689 0.615810 0.031052
Si Si3 0.481919 0.367968 0.569210
Si Si4 0.501635 0.624895 0.617188
Si Si5 0.702565 0.033345 0.573801
Si Si6 0.000000 0.215848 0.250000
Si Si7 0.365513 0.228068 0.330964
Si Si8 0.000000 0.401497 0.750000
O O1 0.370834 0.045285 0.181338
O O2 0.055439 0.052554 0.096959
O O3 0.160067 0.927192 0.133340
O O4 0.260073 0.013372 0.018269
O O5 0.286429 0.634967 0.020319
O O6 0.163628 0.546771 0.101527
O O7 0.073288 0.689805 0.070730
O O8 0.958360 0.583924 0.952592
O O9 0.554030 0.351521 0.489675
O O10 0.517066 0.326593 0.663254
O O11 0.358264 0.578169 0.633253
O O12 0.535271 0.700224 0.667565
O O13 0.175986 0.252245 0.296189
O O14 0.387187 0.158514 0.275693
#
# Coordination Sequence:
#
# PCOD9264807 Si02
#       8
#     8   8   8   8   8   4   8   4
#     4  11  20  41  66  90 122 172 214 259 307 393
#     4  10  19  35  63  99 123 158 210 263 310 384
#     4  10  19  39  65  93 125 165 216 257 316 375
#     4  11  23  41  65  98 128 166 216 276 311 376
#     4  10  19  37  65  95 124 157 216 262 309 380
#     4  10  22  39  65  92 126 172 204 262 318 397
#     4  11  25  42  64  92 133 168 212 262 336 374
#     4  12  24  45  65  88 126 188 210 256 326 405
#
# _framework density 23.530719999999999
#
# number of rings (size 3 to 8) (size 9 to 14) (size 15 to 20)
#    0.000    1.429    5.714    0.857    0.000    3.429 
#    0.000    3.571    0.000    0.000    0.000    0.000 
#    0.000    0.000    0.000    0.000    0.000    0.000 
#
# Total GULP energy -155937.236111 kJ/mol
# GULP energy per Si atom -5569.187004 kJ/mol
# Density = 2.347716 g / cm^3
# Si number density = 23.530720 Si / 1000 Ang^3
#
#
#
# Elastic Constant Matrix: (Units=GPa)
#
#
# Indices 1 2 3 4 5 6 
#
# 1 89.6413 34.1438 11.8533 0.0000 26.3221 0.0000
# 2 34.1438 138.2250 37.6867 0.0000 20.7073 0.0000
# 3 11.8533 37.6867 53.1881 0.0000 6.3003 0.0000
# 4 0.0000 0.0000 0.0000 -1.7598 0.0000 5.0386
# 5 26.3221 20.7073 6.3003 0.0000 27.0324 0.0000
# 6 0.0000 0.0000 0.0000 5.0386 0.0000 17.5010
#
#
#
# Elastic Compliance Matrix: (Units=1/GPa)
#
#
# Indices 1 2 3 4 5 6 
#
# 1 0.016045 -0.001636 -0.000735 0.000000 -0.014199 0.000000
# 2 -0.001636 0.010021 -0.006186 0.000000 -0.004641 0.000000
# 3 -0.000735 -0.006186 0.023346 0.000000 0.000013 0.000000
# 4 0.000000 0.000000 0.000000 -0.311484 0.000000 0.089677
# 5 -0.014199 -0.004641 0.000013 0.000000 0.054371 0.000000
# 6 0.000000 0.000000 0.000000 0.089677 0.000000 0.031321
#
#
# Mechanical properties :
#
#
# Convention : Reuss Voigt Hill
#
# Bulk Modulus (GPa) = 30.96033 49.82468 40.39251
# Shear Modulus (GPa) = -33.66991 21.71276 -5.97857
#
# Velocity S-wave (km/s) = -3.78682 3.04096 -1.59570
# Velocity P-wave (km/s) = 2.43598 5.79225 3.71593
#
# Compressibility (1/GPa) = 0.03229939
#
# Stress axis : x y z
#
# Youngs Moduli (GPa) = 62.32354 99.79535 42.83321
#
# Poissons Ratio (x) = 0.16326 0.03147
# Poissons Ratio (y) = 0.10196 0.26495
# Poissons Ratio (z) = 0.04579 0.61731
#
# Static dielectric constant tensor:
#      x y z
#    x 1.947390 0.000000 -0.041480 
#    y 0.000000 1.873690 0.000000 
#    z -0.041480 0.000000 2.032910 
# 
# From -- ./inp_files/191081.got.cif
#   From: 2010.05.17/outbox.cif.g08.bks.cpg/sg15_96_cif.got.tgz:191081.got - 2010.06.03 18:47:42.
