data_PCOD9264686
_publ_section_title
;
Structure prediction by ZEFSAII (Michael W. Deem and Ramdas Pophale) SiO2 
 PCOD9264686
Probable space group: C 2/C
;
_chemical_formula_sum "Si O2"
_cell_formula_units_Z 56
_cell_length_a 12.215787
_cell_length_b 16.033161
_cell_length_c 18.272707
_cell_angle_alpha 90.000000
_cell_angle_beta 54.208209
_cell_angle_gamma 90.000000
_cell_volume 2902.975656
_symmetry_space_group_name_H-M "C 2/C"
_symmetry_group_IT_number 15
_symmetry_cell_setting 'monoclinic'
loop_
_space_group_symop_operation_xyz
x,y,z
-x,y,1/2-z
-x,-y,-z
x,-y,1/2+z
1/2+x,1/2+y,z
1/2-x,1/2+y,1/2-z
1/2-x,1/2-y,-z
1/2+x,1/2-y,1/2+z
loop_
_atom_site_type_symbol
_atom_site_label
_atom_site_fract_x
_atom_site_fract_y
_atom_site_fract_z
Si Si1 0.120728 0.550374 0.761202
Si Si2 0.155935 0.734460 0.377864
Si Si3 0.568371 0.590604 0.890592
Si Si4 0.604687 0.471405 0.645089
Si Si5 0.108478 0.545494 0.407831
Si Si6 0.577468 0.762205 0.297620
Si Si7 0.403341 0.341938 0.973318
O O1 0.277416 0.554524 0.673137
O O2 0.094923 0.477847 0.828581
O O3 0.101782 0.641146 0.805371
O O4 0.000000 0.545270 0.750000
O O5 0.072475 0.809249 0.371620
O O6 0.096439 0.645372 0.420620
O O7 0.282704 0.718148 0.277047
O O8 0.194449 0.784618 0.438347
O O9 0.471799 0.540680 0.873856
O O10 0.530648 0.596863 0.991517
O O11 0.500000 0.444790 0.750000
O O12 0.744891 0.491975 0.628441
O O13 0.648432 0.398641 0.571776
O O14 0.000000 0.500000 0.500000
O O15 0.500000 0.759079 0.250000
O O16 0.506557 0.718266 0.392575
#
# Coordination Sequence:
#
# PCOD9264686 Si02
#       7
#     8   8   8   8   8   8   8
#     4  10  22  41  62  88 130 167 207 259 335 386
#     4   9  22  40  58  91 130 161 218 262 329 384
#     4   9  22  43  64  93 128 168 210 266 331 386
#     4  12  23  41  67  98 129 168 220 272 325 393
#     4  12  25  39  64  94 129 170 221 268 323 391
#     4  10  19  35  61  93 120 160 205 276 324 372
#     4  10  21  37  66  92 127 160 215 261 330 383
#
# _framework density 19.290551000000001
#
# number of rings (size 3 to 8) (size 9 to 14) (size 15 to 20)
#    0.857    0.857    1.429    3.429    2.000    2.286 
#    0.000    1.429    0.000    0.000    0.000    0.000 
#    0.000    0.000    0.000    0.000    0.000    0.000 
#
# Total GULP energy -155877.003680 kJ/mol
# GULP energy per Si atom -5567.035846 kJ/mol
# Density = 1.924664 g / cm^3
# Si number density = 19.290551 Si / 1000 Ang^3
#
#
#
# Elastic Constant Matrix: (Units=GPa)
#
#
# Indices 1 2 3 4 5 6 
#
# 1 74.9668 31.0830 19.9356 0.0000 -4.1293 0.0000
# 2 31.0830 86.4431 17.9238 0.0000 3.6215 0.0000
# 3 19.9356 17.9238 87.2644 0.0000 2.9347 0.0000
# 4 0.0000 0.0000 0.0000 19.1234 0.0000 -5.9155
# 5 -4.1293 3.6215 2.9347 0.0000 27.5185 0.0000
# 6 0.0000 0.0000 0.0000 -5.9155 0.0000 11.1923
#
#
#
# Elastic Compliance Matrix: (Units=1/GPa)
#
#
# Indices 1 2 3 4 5 6 
#
# 1 0.016560 -0.005528 -0.002766 0.000000 0.003507 0.000000
# 2 -0.005528 0.013977 -0.001524 0.000000 -0.002506 0.000000
# 3 -0.002766 -0.001524 0.012456 0.000000 -0.001543 0.000000
# 4 0.000000 0.000000 0.000000 0.062512 0.000000 0.033040
# 5 0.003507 -0.002506 -0.001543 0.000000 0.037360 0.000000
# 6 0.000000 0.000000 0.000000 0.033040 0.000000 0.106810
#
#
# Mechanical properties :
#
#
# Convention : Reuss Voigt Hill
#
# Bulk Modulus (GPa) = 42.81130 42.95101 42.88115
# Shear Modulus (GPa) = 18.04428 23.54897 20.79663
#
# Velocity S-wave (km/s) = 3.06174 3.49772 3.28696
# Velocity P-wave (km/s) = 5.89407 6.21496 6.05664
#
# Compressibility (1/GPa) = 0.02335832
#
# Stress axis : x y z
#
# Youngs Moduli (GPa) = 60.38668 71.54614 80.28212
#
# Poissons Ratio (x) = 0.39551 0.22203
# Poissons Ratio (y) = 0.33382 0.12232
# Poissons Ratio (z) = 0.16701 0.10901
#
# Static dielectric constant tensor:
#      x y z
#    x 1.777470 0.000000 0.038310 
#    y 0.000000 1.730620 0.000000 
#    z 0.038310 0.000000 1.694370 
# 
# From -- ./inp_files/199063.got.cif
#   From: 2010.05.17/outbox.cif.g08.bks.cpg/sg15_100_cif.got.tgz:199063.got - 2010.06.03 18:47:42.
