data_PCOD9264332
_publ_section_title
;
Structure prediction by ZEFSAII (Michael W. Deem and Ramdas Pophale) SiO2 
 PCOD9264332
Probable space group: C 2/C
;
_chemical_formula_sum "Si O2"
_cell_formula_units_Z 48
_cell_length_a 13.954709
_cell_length_b 10.252576
_cell_length_c 17.574982
_cell_angle_alpha 90.000000
_cell_angle_beta 114.202414
_cell_angle_gamma 90.000000
_cell_volume 2293.466922
_symmetry_space_group_name_H-M "C 2/C"
_symmetry_group_IT_number 15
_symmetry_cell_setting 'monoclinic'
loop_
_space_group_symop_operation_xyz
x,y,z
-x,y,1/2-z
-x,-y,-z
x,-y,1/2+z
1/2+x,1/2+y,z
1/2-x,1/2+y,1/2-z
1/2-x,1/2-y,-z
1/2+x,1/2-y,1/2+z
loop_
_atom_site_type_symbol
_atom_site_label
_atom_site_fract_x
_atom_site_fract_y
_atom_site_fract_z
Si Si1 0.617037 0.953818 0.560160
Si Si2 0.823649 0.010918 0.041839
Si Si3 0.506329 0.012377 0.160802
Si Si4 0.508295 0.313512 0.343403
Si Si5 0.405222 0.759357 0.162224
Si Si6 0.819542 0.163007 0.887517
O O1 0.709546 0.015772 0.541023
O O2 0.615879 0.992627 0.649996
O O3 0.636688 0.798826 0.562814
O O4 0.500000 0.000000 0.500000
O O5 0.870638 0.136906 0.101204
O O6 0.900917 0.894325 0.086643
O O7 0.819511 0.052045 0.952181
O O8 0.500000 0.006767 0.250000
O O9 0.471052 0.160335 0.133122
O O10 0.441073 0.881542 0.121750
O O11 0.500000 0.331187 0.250000
O O12 0.398129 0.360198 0.343994
O O13 0.500000 0.725798 0.250000
O O14 0.300999 0.807164 0.172381
#
# Coordination Sequence:
#
# PCOD9264332 Si02
#       6
#     8   8   8   8   8   8
#     4  10  19  35  58  82 111 150 189 228 280 344
#     4  11  21  37  60  87 115 148 194 246 285 333
#     4   9  19  36  55  78 113 150 185 226 282 343
#     4  10  22  39  56  82 117 152 188 236 294 344
#     4  10  20  37  61  86 112 152 198 236 280 339
#     4  10  21  38  59  83 118 152 187 240 292 339
#
# _framework density 20.929015
#
# number of rings (size 3 to 8) (size 9 to 14) (size 15 to 20)
#    0.000    2.000    0.000    5.000    0.000    2.667 
#    0.000   15.833    0.000    0.000    0.000    0.000 
#    0.000    0.000    0.000    0.000    0.000    0.000 
#
# Total GULP energy -133818.566086 kJ/mol
# GULP energy per Si atom -5575.773587 kJ/mol
# Density = 2.088138 g / cm^3
# Si number density = 20.929015 Si / 1000 Ang^3
#
#
#
# Elastic Constant Matrix: (Units=GPa)
#
#
# Indices 1 2 3 4 5 6 
#
# 1 153.6591 26.6307 49.0665 0.0000 -11.4594 0.0000
# 2 26.6307 61.0154 5.8226 0.0000 2.5217 0.0000
# 3 49.0665 5.8226 86.0217 0.0000 -3.8334 0.0000
# 4 0.0000 0.0000 0.0000 27.8641 0.0000 7.5503
# 5 -11.4594 2.5217 -3.8334 0.0000 40.7340 0.0000
# 6 0.0000 0.0000 0.0000 7.5503 0.0000 24.4348
#
#
#
# Elastic Compliance Matrix: (Units=1/GPa)
#
#
# Indices 1 2 3 4 5 6 
#
# 1 0.008767 -0.003474 -0.004666 0.000000 0.002242 0.000000
# 2 -0.003474 0.017924 0.000678 0.000000 -0.002023 0.000000
# 3 -0.004666 0.000678 0.014240 0.000000 -0.000014 0.000000
# 4 0.000000 0.000000 0.000000 0.039168 0.000000 -0.012103
# 5 0.002242 -0.002023 -0.000014 0.000000 0.025304 0.000000
# 6 0.000000 0.000000 0.000000 -0.012103 0.000000 0.044665
#
#
# Mechanical properties :
#
#
# Convention : Reuss Voigt Hill
#
# Bulk Modulus (GPa) = 38.44932 51.52622 44.98777
# Shear Modulus (GPa) = 28.79179 33.21832 31.00506
#
# Velocity S-wave (km/s) = 3.71305 3.98828 3.85312
# Velocity P-wave (km/s) = 6.06577 6.77358 6.42942
#
# Compressibility (1/GPa) = 0.02600826
#
# Stress axis : x y z
#
# Youngs Moduli (GPa) = 114.06373 55.78984 70.22620
#
# Poissons Ratio (x) = 0.19381 0.32765
# Poissons Ratio (y) = 0.39624 -0.04762
# Poissons Ratio (z) = 0.53218 -0.03783
#
# Static dielectric constant tensor:
#      x y z
#    x 1.762750 0.000000 -0.038000 
#    y 0.000000 1.745430 0.000000 
#    z -0.038000 0.000000 1.883600 
# 
# From -- ./inp_files/196571.got.cif
#   From: 2010.05.17/outbox.cif.g08.bks.cpg/sg15_99_cif.got.tgz:196571.got - 2010.06.03 18:47:42.
