data_PCOD9264624
_publ_section_title
;
Structure prediction by ZEFSAII (Michael W. Deem and Ramdas Pophale) SiO2 
 PCOD9264624
Probable space group: C 2/C
;
_chemical_formula_sum "Si O2"
_cell_formula_units_Z 56
_cell_length_a 12.558884
_cell_length_b 9.316965
_cell_length_c 20.690213
_cell_angle_alpha 90.000000
_cell_angle_beta 110.598234
_cell_angle_gamma 90.000000
_cell_volume 2266.203875
_symmetry_space_group_name_H-M "C 2/C"
_symmetry_group_IT_number 15
_symmetry_cell_setting 'monoclinic'
loop_
_space_group_symop_operation_xyz
x,y,z
-x,y,1/2-z
-x,-y,-z
x,-y,1/2+z
1/2+x,1/2+y,z
1/2-x,1/2+y,1/2-z
1/2-x,1/2-y,-z
1/2+x,1/2-y,1/2+z
loop_
_atom_site_type_symbol
_atom_site_label
_atom_site_fract_x
_atom_site_fract_y
_atom_site_fract_z
Si Si1 0.527473 0.761735 0.879932
Si Si2 0.582571 0.498171 0.079977
Si Si3 0.887387 0.403360 0.474236
Si Si4 0.368244 0.959794 0.320932
Si Si5 0.479566 0.732141 0.150015
Si Si6 0.215921 0.603764 0.958048
Si Si7 0.376145 0.541928 0.692215
O O1 0.441237 0.635862 0.879224
O O2 0.619953 0.686225 0.852395
O O3 0.449483 0.896920 0.838496
O O4 0.586081 0.791859 0.962674
O O5 0.548825 0.636309 0.113308
O O6 0.706577 0.470816 0.078493
O O7 0.500000 0.500000 0.000000
O O8 0.864275 0.398674 0.393873
O O9 0.787089 0.494181 0.483835
O O10 0.000000 0.500000 0.500000
O O11 0.426669 0.830330 0.293348
O O12 0.232096 0.975822 0.283116
O O13 0.402757 0.853523 0.099514
O O14 0.394749 0.614350 0.162469
O O15 0.250000 0.750000 0.000000
O O16 0.500000 0.559465 0.750000
#
# Coordination Sequence:
#
# PCOD9264624 Si02
#       7
#     8   8   8   8   8   8   8
#     4  10  22  42  61  92 133 165 209 266 323 386
#     4  11  22  33  55  93 128 169 207 246 312 387
#     4  10  19  35  60  96 130 161 199 248 322 396
#     4  11  23  42  67  94 131 170 208 263 329 393
#     4  11  23  41  63  91 123 165 217 259 317 381
#     4  12  20  34  59  89 135 169 200 250 305 382
#     4  11  27  46  65  92 124 169 226 277 320 369
#
# _framework density 24.710927000000002
#
# number of rings (size 3 to 8) (size 9 to 14) (size 15 to 20)
#    0.000    1.143    4.286    4.286    4.000    1.714 
#    0.000    0.714    0.000    0.000    0.000    0.000 
#    0.000    0.000    0.000    0.000    0.000    0.000 
#
# Total GULP energy -156042.852712 kJ/mol
# GULP energy per Si atom -5572.959025 kJ/mol
# Density = 2.465468 g / cm^3
# Si number density = 24.710927 Si / 1000 Ang^3
#
#
#
# Elastic Constant Matrix: (Units=GPa)
#
#
# Indices 1 2 3 4 5 6 
#
# 1 135.5905 57.9811 -4.4264 0.0000 0.4961 0.0000
# 2 57.9811 127.3912 3.7530 0.0000 6.9979 0.0000
# 3 -4.4264 3.7530 33.5705 0.0000 10.7783 0.0000
# 4 0.0000 0.0000 0.0000 14.9438 0.0000 -3.8701
# 5 0.4961 6.9979 10.7783 0.0000 29.7169 0.0000
# 6 0.0000 0.0000 0.0000 -3.8701 0.0000 32.2199
#
#
#
# Elastic Compliance Matrix: (Units=1/GPa)
#
#
# Indices 1 2 3 4 5 6 
#
# 1 0.009255 -0.004274 0.001612 0.000000 0.000267 0.000000
# 2 -0.004274 0.009930 -0.001071 0.000000 -0.001879 0.000000
# 3 0.001612 -0.001071 0.034008 0.000000 -0.012110 0.000000
# 4 0.000000 0.000000 0.000000 0.069066 0.000000 0.008296
# 5 0.000267 -0.001879 -0.012110 0.000000 0.038481 0.000000
# 6 0.000000 0.000000 0.000000 0.008296 0.000000 0.032033
#
#
# Mechanical properties :
#
#
# Convention : Reuss Voigt Hill
#
# Bulk Modulus (GPa) = 21.86853 45.68528 33.77690
# Shear Modulus (GPa) = 23.20393 31.32575 27.26484
#
# Velocity S-wave (km/s) = 3.06766 3.56432 3.32528
# Velocity P-wave (km/s) = 4.62778 5.95544 5.33308
#
# Compressibility (1/GPa) = 0.04572782
#
# Stress axis : x y z
#
# Youngs Moduli (GPa) = 108.05448 100.70485 29.40456
#
# Poissons Ratio (x) = 0.43045 -0.04741
# Poissons Ratio (y) = 0.46186 0.03148
# Poissons Ratio (z) = -0.17422 0.10781
#
# Static dielectric constant tensor:
#      x y z
#    x 2.103610 0.000000 -0.240010 
#    y 0.000000 1.957910 0.000000 
#    z -0.240010 0.000000 2.836560 
# 
# From -- ./inp_files/291625.got.cif
#   From: 2010.05.17/outbox.cif.g08.bks.cpg/sg15_146_cif.got.tgz:291625.got - 2010.06.03 18:47:42.
