data_PCOD9264823
_publ_section_title
;
Structure prediction by ZEFSAII (Michael W. Deem and Ramdas Pophale) SiO2 
 PCOD9264823
Probable space group: C 2/C
;
_chemical_formula_sum "Si O2"
_cell_formula_units_Z 32
_cell_length_a 8.028401
_cell_length_b 18.559694
_cell_length_c 9.947988
_cell_angle_alpha 90.000000
_cell_angle_beta 119.414104
_cell_angle_gamma 90.000000
_cell_volume 1291.218132
_symmetry_space_group_name_H-M "C 2/C"
_symmetry_group_IT_number 15
_symmetry_cell_setting 'monoclinic'
loop_
_space_group_symop_operation_xyz
x,y,z
-x,y,1/2-z
-x,-y,-z
x,-y,1/2+z
1/2+x,1/2+y,z
1/2-x,1/2+y,1/2-z
1/2-x,1/2-y,-z
1/2+x,1/2-y,1/2+z
loop_
_atom_site_type_symbol
_atom_site_label
_atom_site_fract_x
_atom_site_fract_y
_atom_site_fract_z
Si Si1 0.772838 0.454881 0.175161
Si Si2 0.631001 0.801374 0.678569
Si Si3 0.580902 0.388684 0.581535
Si Si4 0.268658 0.838345 0.382990
O O1 0.687223 0.534214 0.129397
O O2 0.746103 0.416487 0.308358
O O3 0.000000 0.455507 0.250000
O O4 0.642556 0.406622 0.023291
O O5 0.500000 0.830700 0.750000
O O6 0.826311 0.845214 0.759452
O O7 0.487883 0.814655 0.498936
O O8 0.687362 0.721494 0.749155
O O9 0.653610 0.344651 0.477522
#
# Coordination Sequence:
#
# PCOD9264823 Si02
#       4
#     8   8   8   8
#     4  11  23  39  59  88 122 156 193 239 298 355
#     4  10  19  35  64  91 112 150 206 252 283 333
#     4  10  22  39  61  87 117 155 200 244 289 345
#     4  11  21  39  64  89 118 154 199 246 291 343
#
# _framework density 24.782796999999999
#
# number of rings (size 3 to 8) (size 9 to 14) (size 15 to 20)
#    0.000    1.500    0.000    9.000    0.000    4.000 
#    0.000    8.750    0.000    0.000    0.000    0.000 
#    0.000    0.000    0.000    0.000    0.000    0.000 
#
# Total GULP energy -89375.140825 kJ/mol
# GULP energy per Si atom -5585.946302 kJ/mol
# Density = 2.472639 g / cm^3
# Si number density = 24.782797 Si / 1000 Ang^3
#
#
#
# Elastic Constant Matrix: (Units=GPa)
#
#
# Indices 1 2 3 4 5 6 
#
# 1 86.7726 23.8875 56.7259 0.0000 47.4805 0.0000
# 2 23.8875 122.3476 76.3942 0.0000 24.8234 0.0000
# 3 56.7259 76.3942 191.8577 0.0000 65.4098 0.0000
# 4 0.0000 0.0000 0.0000 38.2908 0.0000 26.3486
# 5 47.4805 24.8234 65.4098 0.0000 57.9737 0.0000
# 6 0.0000 0.0000 0.0000 26.3486 0.0000 7.8994
#
#
#
# Elastic Compliance Matrix: (Units=1/GPa)
#
#
# Indices 1 2 3 4 5 6 
#
# 1 0.020944 -0.000516 -0.000348 0.000000 -0.016539 0.000000
# 2 -0.000516 0.010896 -0.004452 0.000000 0.000780 0.000000
# 3 -0.000348 -0.004452 0.010304 0.000000 -0.009435 0.000000
# 4 0.000000 0.000000 0.000000 -0.020163 0.000000 0.067255
# 5 -0.016539 0.000780 -0.009435 0.000000 0.041106 0.000000
# 6 0.000000 0.000000 0.000000 0.067255 0.000000 -0.097737
#
#
# Mechanical properties :
#
#
# Convention : Reuss Voigt Hill
#
# Bulk Modulus (GPa) = 31.73402 79.44368 55.58885
# Shear Modulus (GPa) = -369.99199 37.09746 -166.44726
#
# Velocity S-wave (km/s) = -12.23184 3.87318 -8.20416
# Velocity P-wave (km/s) = 13.66228 7.21995 8.20154
#
# Compressibility (1/GPa) = 0.03151193
#
# Stress axis : x y z
#
# Youngs Moduli (GPa) = 47.74591 91.77984 97.04652
#
# Poissons Ratio (x) = 0.04736 0.03380
# Poissons Ratio (y) = 0.02464 0.43204
# Poissons Ratio (z) = 0.01663 0.40859
#
# Static dielectric constant tensor:
#      x y z
#    x 2.028660 0.000000 0.001730 
#    y 0.000000 1.939880 0.000000 
#    z 0.001730 0.000000 2.035710 
# 
# From -- ./inp_files/22148.got.cif
#   From: 2010.05.17/outbox.cif.g08.bks.cpg/sg15_12_cif.got.tgz:22148.got - 2010.06.03 18:47:42.
