data_PCOD9264700
_publ_section_title
;
Structure prediction by ZEFSAII (Michael W. Deem and Ramdas Pophale) SiO2 
 PCOD9264700
Probable space group: C 2/C
;
_chemical_formula_sum "Si O2"
_cell_formula_units_Z 60
_cell_length_a 26.800078
_cell_length_b 7.566406
_cell_length_c 17.052072
_cell_angle_alpha 90.000000
_cell_angle_beta 120.995848
_cell_angle_gamma 90.000000
_cell_volume 2964.062524
_symmetry_space_group_name_H-M "C 2/C"
_symmetry_group_IT_number 15
_symmetry_cell_setting 'monoclinic'
loop_
_space_group_symop_operation_xyz
x,y,z
-x,y,1/2-z
-x,-y,-z
x,-y,1/2+z
1/2+x,1/2+y,z
1/2-x,1/2+y,1/2-z
1/2-x,1/2-y,-z
1/2+x,1/2-y,1/2+z
loop_
_atom_site_type_symbol
_atom_site_label
_atom_site_fract_x
_atom_site_fract_y
_atom_site_fract_z
Si Si1 0.510822 0.168844 0.424448
Si Si2 0.419025 0.688036 0.374067
Si Si3 0.793757 0.600748 0.214041
Si Si4 0.110027 0.386230 0.474948
Si Si5 0.396238 0.292475 0.376182
Si Si6 0.603841 0.914247 0.294398
Si Si7 0.193259 0.351420 0.133257
Si Si8 0.000000 0.686177 0.250000
O O1 0.534515 0.258277 0.522266
O O2 0.442822 0.142616 0.388388
O O3 0.514934 0.276223 0.345301
O O4 0.550146 0.996981 0.439888
O O5 0.419763 0.478418 0.367780
O O6 0.421166 0.782092 0.291565
O O7 0.358209 0.747730 0.364074
O O8 0.836781 0.745539 0.286372
O O9 0.835169 0.494840 0.187623
O O10 0.778538 0.472817 0.275150
O O11 0.738619 0.708041 0.137869
O O12 0.110713 0.225655 0.536514
O O13 0.114591 0.331899 0.388771
O O14 0.161410 0.520473 0.544839
O O15 0.555541 0.064881 0.272662
#
# Coordination Sequence:
#
# PCOD9264700 Si02
#       8
#     8   8   8   8   8   8   8   4
#     4  10  20  36  56  81 113 154 198 239 287 351
#     4  10  22  36  56  85 117 153 198 237 296 351
#     4  10  19  35  62  83 113 151 202 241 292 346
#     4   9  21  36  59  82 118 154 198 241 298 344
#     4  11  20  36  56  84 116 156 194 240 288 357
#     4  10  21  37  57  86 115 158 191 240 292 349
#     4   9  19  36  58  86 111 154 199 247 284 352
#     4  10  20  36  58  82 118 150 198 234 288 342
#
# _framework density 20.242486
#
# number of rings (size 3 to 8) (size 9 to 14) (size 15 to 20)
#    0.000    2.133    1.333    2.400    3.733    0.533 
#    2.400    0.000    0.000   27.200    0.000    0.000 
#    0.000    0.000    0.000    0.000    0.000    0.000 
#
# Total GULP energy -167277.475134 kJ/mol
# GULP energy per Si atom -5575.915838 kJ/mol
# Density = 2.019641 g / cm^3
# Si number density = 20.242486 Si / 1000 Ang^3
#
#
#
# Elastic Constant Matrix: (Units=GPa)
#
#
# Indices 1 2 3 4 5 6 
#
# 1 67.0457 13.7627 42.7673 0.0000 -4.4900 0.0000
# 2 13.7627 54.5960 25.2606 0.0000 -8.6477 0.0000
# 3 42.7673 25.2606 117.0749 0.0000 -32.4326 0.0000
# 4 0.0000 0.0000 0.0000 7.2744 0.0000 -0.4894
# 5 -4.4900 -8.6477 -32.4326 0.0000 45.8059 0.0000
# 6 0.0000 0.0000 0.0000 -0.4894 0.0000 10.9462
#
#
#
# Elastic Compliance Matrix: (Units=1/GPa)
#
#
# Indices 1 2 3 4 5 6 
#
# 1 0.020214 -0.002004 -0.008096 0.000000 -0.004129 0.000000
# 2 -0.002004 0.020577 -0.003341 0.000000 0.001322 0.000000
# 3 -0.008096 -0.003341 0.014711 0.000000 0.008991 0.000000
# 4 0.000000 0.000000 0.000000 0.137883 0.000000 0.006164
# 5 -0.004129 0.001322 0.008991 0.000000 0.028043 0.000000
# 6 0.000000 0.000000 0.000000 0.006164 0.000000 0.091631
#
#
# Mechanical properties :
#
#
# Convention : Reuss Voigt Hill
#
# Bulk Modulus (GPa) = 34.94080 44.69977 39.82028
# Shear Modulus (GPa) = 14.30695 23.26703 18.78699
#
# Velocity S-wave (km/s) = 2.66141 3.39398 3.04977
# Velocity P-wave (km/s) = 5.17134 6.12282 5.66708
#
# Compressibility (1/GPa) = 0.02861984
#
# Stress axis : x y z
#
# Youngs Moduli (GPa) = 49.47042 48.59793 67.97791
#
# Poissons Ratio (x) = 0.09739 0.55032
# Poissons Ratio (y) = 0.09913 0.22714
# Poissons Ratio (z) = 0.40049 0.16239
#
# Static dielectric constant tensor:
#      x y z
#    x 1.725050 0.000000 -0.001820 
#    y 0.000000 1.729800 0.000000 
#    z -0.001820 0.000000 1.771240 
# 
# From -- ./inp_files/221699.got.cif
#   From: 2010.05.17/outbox.cif.g08.bks.cpg/sg15_111_cif.got.tgz:221699.got - 2010.06.03 18:47:42.
