data_PCOD9264650
_publ_section_title
;
Structure prediction by ZEFSAII (Michael W. Deem and Ramdas Pophale) SiO2 
 PCOD9264650
Probable space group: C 2/C
;
_chemical_formula_sum "Si O2"
_cell_formula_units_Z 56
_cell_length_a 15.930189
_cell_length_b 13.928650
_cell_length_c 23.821305
_cell_angle_alpha 90.000000
_cell_angle_beta 28.096423
_cell_angle_gamma 90.000000
_cell_volume 2489.296243
_symmetry_space_group_name_H-M "C 2/C"
_symmetry_group_IT_number 15
_symmetry_cell_setting 'monoclinic'
loop_
_space_group_symop_operation_xyz
x,y,z
-x,y,1/2-z
-x,-y,-z
x,-y,1/2+z
1/2+x,1/2+y,z
1/2-x,1/2+y,1/2-z
1/2-x,1/2-y,-z
1/2+x,1/2-y,1/2+z
loop_
_atom_site_type_symbol
_atom_site_label
_atom_site_fract_x
_atom_site_fract_y
_atom_site_fract_z
Si Si1 0.295349 0.987428 0.624875
Si Si2 0.065155 0.465426 0.772994
Si Si3 0.549105 0.676050 0.281452
Si Si4 0.833522 0.803907 0.664901
Si Si5 0.705473 0.488288 0.055954
Si Si6 0.885026 0.902195 0.072637
Si Si7 0.604450 0.628717 0.807401
O O1 0.218573 0.034415 0.614031
O O2 0.219480 0.034472 0.725425
O O3 0.500000 0.000000 0.500000
O O4 0.232300 0.879194 0.659696
O O5 0.195413 0.391613 0.730562
O O6 0.183762 0.559399 0.687556
O O7 0.000000 0.426736 0.750000
O O8 0.893430 0.491220 0.912629
O O9 0.500000 0.723019 0.250000
O O10 0.600210 0.721678 0.310728
O O11 0.403713 0.590265 0.381037
O O12 0.717049 0.713586 0.713655
O O13 0.020456 0.830886 0.525866
O O14 0.588812 0.402334 0.099468
O O15 0.910931 0.856542 0.117945
O O16 0.000000 0.000000 0.000000
#
# Coordination Sequence:
#
# PCOD9264650 Si02
#       7
#     8   8   8   8   8   8   8
#     4  10  19  35  61  87 116 159 211 260 310 370
#     4  11  21  36  63  91 120 167 217 256 305 376
#     4   9  19  37  60  84 115 159 211 258 301 362
#     4  11  23  38  59  89 130 165 198 257 322 378
#     4  10  19  35  61  90 119 157 212 269 308 364
#     4  10  21  41  63  85 122 171 219 252 299 382
#     4  11  23  38  59  92 127 160 200 259 327 376
#
# _framework density 22.496317000000001
#
# number of rings (size 3 to 8) (size 9 to 14) (size 15 to 20)
#    0.000    1.714    0.000    9.000    0.000    4.000 
#    0.000    0.714    0.000    9.429    0.000    0.000 
#    0.000    0.000    0.000    0.000    0.000    0.000 
#
# Total GULP energy -156028.156775 kJ/mol
# GULP energy per Si atom -5572.434171 kJ/mol
# Density = 2.244511 g / cm^3
# Si number density = 22.496317 Si / 1000 Ang^3
#
#
#
# Elastic Constant Matrix: (Units=GPa)
#
#
# Indices 1 2 3 4 5 6 
#
# 1 97.9494 11.6193 9.9683 0.0039 8.3942 -0.0012
# 2 11.6193 40.4571 7.0739 0.0051 -7.9122 -0.0004
# 3 9.9683 7.0739 96.1568 0.0104 -13.0965 0.0036
# 4 0.0039 0.0051 0.0104 26.2527 0.0008 -7.5436
# 5 8.3942 -7.9122 -13.0965 0.0008 37.2991 0.0019
# 6 -0.0012 -0.0004 0.0036 -7.5436 0.0019 -0.0595
#
#
#
# Elastic Compliance Matrix: (Units=1/GPa)
#
#
# Indices 1 2 3 4 5 6 
#
# 1 0.011112 -0.003685 -0.001395 -0.000003 -0.003772 -0.000010
# 2 -0.003685 0.027144 -0.000754 0.000000 0.006323 0.000017
# 3 -0.001395 -0.000754 0.011154 0.000006 0.004070 0.000037
# 4 -0.000003 0.000000 0.000006 0.001018 0.000010 -0.129021
# 5 -0.003772 0.006323 0.004070 0.000010 0.030430 0.000045
# 6 -0.000010 0.000017 0.000037 -0.129021 0.000045 -0.449007
#
#
# Mechanical properties :
#
#
# Convention : Reuss Voigt Hill
#
# Bulk Modulus (GPa) = 26.49487 32.43181 29.46334
# Shear Modulus (GPa) = -14.53905 26.42525 5.94310
#
# Velocity S-wave (km/s) = -2.54497 3.43103 1.62713
# Velocity P-wave (km/s) = 1.77965 5.49033 4.08111
#
# Compressibility (1/GPa) = 0.03774316
#
# Stress axis : x y z
#
# Youngs Moduli (GPa) = 89.99523 36.84020 89.65330
#
# Poissons Ratio (x) = 0.13576 0.12503
# Poissons Ratio (y) = 0.33165 0.06757
# Poissons Ratio (z) = 0.12550 0.02777
#
# Static dielectric constant tensor:
#      x y z
#    x 1.808470 -0.000010 0.076660 
#    y -0.000010 1.853170 0.000010 
#    z 0.076660 0.000010 1.738260 
# 
# From -- ./inp_files/274434.got.cif
#   From: 2010.05.17/outbox.cif.g08.bks.cpg/sg15_138_cif.got.tgz:274434.got - 2010.06.03 18:47:42.
