data_PCOD9264216
_publ_section_title
;
Structure prediction by ZEFSAII (Michael W. Deem and Ramdas Pophale) SiO2 
 PCOD9264216
Probable space group: C 2/C
;
_chemical_formula_sum "Si O2"
_cell_formula_units_Z 56
_cell_length_a 21.381902
_cell_length_b 8.522781
_cell_length_c 35.278050
_cell_angle_alpha 90.000000
_cell_angle_beta 152.956254
_cell_angle_gamma 90.000000
_cell_volume 2923.002362
_symmetry_space_group_name_H-M "C 2/C"
_symmetry_group_IT_number 15
_symmetry_cell_setting 'monoclinic'
loop_
_space_group_symop_operation_xyz
x,y,z
-x,y,1/2-z
-x,-y,-z
x,-y,1/2+z
1/2+x,1/2+y,z
1/2-x,1/2+y,1/2-z
1/2-x,1/2-y,-z
1/2+x,1/2-y,1/2+z
loop_
_atom_site_type_symbol
_atom_site_label
_atom_site_fract_x
_atom_site_fract_y
_atom_site_fract_z
Si Si1 0.797927 0.068134 0.343196
Si Si2 0.261019 0.616476 0.407604
Si Si3 0.634854 0.699395 0.907416
Si Si4 0.438909 0.893714 0.843011
Si Si5 0.799415 0.399574 0.002976
Si Si6 0.907415 0.224153 0.990582
Si Si7 0.441751 0.768491 0.926061
O O1 0.723299 0.114860 0.342617
O O2 0.697714 0.070021 0.253594
O O3 0.935434 0.173524 0.416204
O O4 0.857678 0.893144 0.377342
O O5 0.155964 0.693346 0.381146
O O6 0.315603 0.436837 0.443201
O O7 0.397431 0.722190 0.487127
O O8 0.494024 0.733586 0.853151
O O9 0.674581 0.517677 0.925765
O O10 0.750000 0.750000 0.000000
O O11 0.415517 0.873172 0.875184
O O12 0.567637 0.013124 0.906682
O O13 0.750000 0.250000 0.000000
O O14 0.854375 0.338428 0.993249
O O15 0.904723 0.313676 0.948874
#
# Coordination Sequence:
#
# PCOD9264216 Si02
#       7
#     8   8   8   8   8   8   8
#     4   9  21  34  58  87 116 145 184 231 296 342
#     4   9  16  38  60  80 107 154 193 227 274 346
#     4  10  19  35  57  79 110 147 195 227 270 334
#     4  11  22  36  57  87 116 151 183 240 285 333
#     4  11  23  36  57  86 110 151 195 236 277 330
#     4   9  19  36  60  86 108 148 189 233 278 344
#     4   9  18  36  59  82 115 145 188 227 282 348
#
# _framework density 19.158383000000001
#
# number of rings (size 3 to 8) (size 9 to 14) (size 15 to 20)
#    0.000    2.286    2.857    3.429    4.000    1.143 
#    0.000    0.000    0.000    3.429    0.000    0.000 
#    0.000    0.000    0.000    0.000    0.000    0.000 
#
# Total GULP energy -155914.545550 kJ/mol
# GULP energy per Si atom -5568.376627 kJ/mol
# Density = 1.911478 g / cm^3
# Si number density = 19.158383 Si / 1000 Ang^3
#
#
#
# Elastic Constant Matrix: (Units=GPa)
#
#
# Indices 1 2 3 4 5 6 
#
# 1 107.8730 41.4462 33.8985 0.0000 -21.3890 0.0001
# 2 41.4462 59.7041 15.6981 0.0004 -7.3151 -0.0001
# 3 33.8985 15.6981 80.3464 0.0002 -21.3084 -0.0001
# 4 0.0000 0.0004 0.0002 11.7524 -0.0001 -9.8632
# 5 -21.3890 -7.3151 -21.3084 -0.0001 22.8749 0.0000
# 6 0.0001 -0.0001 -0.0001 -9.8632 0.0000 34.5878
#
#
#
# Elastic Compliance Matrix: (Units=1/GPa)
#
#
# Indices 1 2 3 4 5 6 
#
# 1 0.015211 -0.008833 -0.002216 0.000000 0.009334 0.000000
# 2 -0.008833 0.022967 -0.001332 -0.000001 -0.002156 0.000000
# 3 -0.002216 -0.001332 0.017237 0.000000 0.013558 0.000000
# 4 0.000000 -0.000001 0.000000 0.111859 0.000001 0.031898
# 5 0.009334 -0.002156 0.013558 0.000001 0.064384 0.000000
# 6 0.000000 0.000000 0.000000 0.031898 0.000000 0.038008
#
#
# Mechanical properties :
#
#
# Convention : Reuss Voigt Hill
#
# Bulk Modulus (GPa) = 32.62439 47.77879 40.20159
# Shear Modulus (GPa) = 16.41236 24.30173 20.35704
#
# Velocity S-wave (km/s) = 2.93006 3.56541 3.26324
# Velocity P-wave (km/s) = 5.33974 6.47631 5.93529
#
# Compressibility (1/GPa) = 0.03065191
#
# Stress axis : x y z
#
# Youngs Moduli (GPa) = 65.74128 43.54006 58.01360
#
# Poissons Ratio (x) = 0.38459 0.12859
# Poissons Ratio (y) = 0.58070 0.07729
# Poissons Ratio (z) = 0.14571 0.05801
#
# Static dielectric constant tensor:
#      x y z
#    x 1.723220 0.000000 -0.003420 
#    y 0.000000 1.755310 0.000000 
#    z -0.003420 0.000000 1.481600 
# 
# From -- ./inp_files/251941.got.cif
#   From: 2010.05.17/outbox.cif.g08.bks.cpg/sg15_126_cif.got.tgz:251941.got - 2010.06.03 18:47:42.
