data_PCOD9264049
_publ_section_title
;
Structure prediction by ZEFSAII (Michael W. Deem and Ramdas Pophale) SiO2 
 PCOD9264049
Probable space group: C 2/C
;
_chemical_formula_sum "Si O2"
_cell_formula_units_Z 40
_cell_length_a 19.733366
_cell_length_b 5.107328
_cell_length_c 22.788800
_cell_angle_alpha 90.000000
_cell_angle_beta 121.949090
_cell_angle_gamma 90.000000
_cell_volume 1948.847043
_symmetry_space_group_name_H-M "C 2/C"
_symmetry_group_IT_number 15
_symmetry_cell_setting 'monoclinic'
loop_
_space_group_symop_operation_xyz
x,y,z
-x,y,1/2-z
-x,-y,-z
x,-y,1/2+z
1/2+x,1/2+y,z
1/2-x,1/2+y,1/2-z
1/2-x,1/2-y,-z
1/2+x,1/2-y,1/2+z
loop_
_atom_site_type_symbol
_atom_site_label
_atom_site_fract_x
_atom_site_fract_y
_atom_site_fract_z
Si Si1 0.858971 0.776772 0.803464
Si Si2 0.170059 0.956250 0.011935
Si Si3 0.683636 0.775063 0.781715
Si Si4 0.503222 0.249245 0.959230
Si Si5 0.247594 0.537728 0.576411
O O1 0.775167 0.763883 0.800249
O O2 0.851256 0.558366 0.749081
O O3 0.931614 0.729559 0.880434
O O4 0.864472 0.063120 0.778180
O O5 0.216228 0.753415 0.076562
O O6 0.175634 0.249444 0.040149
O O7 0.086595 0.810159 0.964497
O O8 0.213600 0.994815 0.969584
O O9 0.690114 0.667882 0.850616
O O10 0.500000 0.500000 0.000000
O O11 0.500000 0.000000 0.000000
#
# Coordination Sequence:
#
# PCOD9264049 Si02
#       5
#     8   8   8   8   8
#     4  10  21  33  53  82 110 143 185 227 280 349
#     4  10  21  36  58  86 111 143 194 235 283 348
#     4  10  19  35  54  78 111 145 184 227 277 339
#     4  12  23  37  58  84 117 149 185 243 301 347
#     4  10  20  37  60  82 110 150 190 238 283 337
#
# _framework density 20.524956
#
# number of rings (size 3 to 8) (size 9 to 14) (size 15 to 20)
#    0.000    1.600    0.000    6.000    0.000    3.200 
#    0.000    1.000    0.000    2.400    0.000    0.000 
#    0.000    0.000    0.000    0.000    0.000    0.000 
#
# Total GULP energy -111594.133041 kJ/mol
# GULP energy per Si atom -5579.706652 kJ/mol
# Density = 2.047824 g / cm^3
# Si number density = 20.524956 Si / 1000 Ang^3
#
#
#
# Elastic Constant Matrix: (Units=GPa)
#
#
# Indices 1 2 3 4 5 6 
#
# 1 35.1599 33.9621 14.4512 0.0001 16.5952 0.0005
# 2 33.9621 121.9348 12.3639 -0.0021 2.9941 0.0034
# 3 14.4512 12.3639 99.4370 -0.0006 21.0994 -0.0002
# 4 0.0001 -0.0021 -0.0006 34.9300 -0.0002 -0.5537
# 5 16.5952 2.9941 21.0994 -0.0002 27.7673 0.0004
# 6 0.0005 0.0034 -0.0002 -0.5537 0.0004 23.9406
#
#
#
# Elastic Compliance Matrix: (Units=1/GPa)
#
#
# Indices 1 2 3 4 5 6 
#
# 1 0.059801 -0.015870 0.000600 -0.000001 -0.034484 0.000001
# 2 -0.015870 0.012518 -0.001164 0.000001 0.009019 -0.000002
# 3 0.000600 -0.001164 0.012117 0.000000 -0.009440 0.000000
# 4 -0.000001 0.000001 0.000000 0.028639 0.000001 0.000662
# 5 -0.034484 0.009019 -0.009440 0.000001 0.062824 -0.000002
# 6 0.000001 -0.000002 0.000000 0.000662 -0.000002 0.041785
#
#
# Mechanical properties :
#
#
# Convention : Reuss Voigt Hill
#
# Bulk Modulus (GPa) = 19.39213 42.00957 30.70085
# Shear Modulus (GPa) = 18.67464 30.37789 24.52626
#
# Velocity S-wave (km/s) = 3.01964 3.85131 3.46055
# Velocity P-wave (km/s) = 4.65040 6.34734 5.56395
#
# Compressibility (1/GPa) = 0.05156732
#
# Stress axis : x y z
#
# Youngs Moduli (GPa) = 16.72215 79.88558 82.52632
#
# Poissons Ratio (x) = 1.26780 -0.04948
# Poissons Ratio (y) = 0.26538 0.09605
# Poissons Ratio (z) = -0.01003 0.09298
#
# Static dielectric constant tensor:
#      x y z
#    x 1.799020 0.000000 0.011620 
#    y 0.000000 1.737570 0.000000 
#    z 0.011620 0.000000 1.720170 
# 
# From -- ./inp_files/212614.got.cif
#   From: 2010.05.17/outbox.cif.g08.bks.cpg/sg15_107_cif.got.tgz:212614.got - 2010.06.03 18:47:42.
