data_PCOD9264923
_publ_section_title
;
Structure prediction by ZEFSAII (Michael W. Deem and Ramdas Pophale) SiO2 
 PCOD9264923
Probable space group: C 2/C
;
_chemical_formula_sum "Si O2"
_cell_formula_units_Z 44
_cell_length_a 15.223565
_cell_length_b 16.910634
_cell_length_c 9.668811
_cell_angle_alpha 90.000000
_cell_angle_beta 103.509280
_cell_angle_gamma 90.000000
_cell_volume 2420.270734
_symmetry_space_group_name_H-M "C 2/C"
_symmetry_group_IT_number 15
_symmetry_cell_setting 'monoclinic'
loop_
_space_group_symop_operation_xyz
x,y,z
-x,y,1/2-z
-x,-y,-z
x,-y,1/2+z
1/2+x,1/2+y,z
1/2-x,1/2+y,1/2-z
1/2-x,1/2-y,-z
1/2+x,1/2-y,1/2+z
loop_
_atom_site_type_symbol
_atom_site_label
_atom_site_fract_x
_atom_site_fract_y
_atom_site_fract_z
Si Si1 0.815009 0.325413 0.037711
Si Si2 0.688391 0.957110 0.257175
Si Si3 0.766572 0.632755 0.230913
Si Si4 0.885185 0.645625 0.012846
Si Si5 0.915893 0.769184 0.791603
Si Si6 0.000000 0.540158 0.250000
O O1 0.776215 0.398475 0.111103
O O2 0.895484 0.295508 0.163789
O O3 0.750000 0.250000 0.000000
O O4 0.829967 0.352328 0.887693
O O5 0.743912 0.038191 0.278436
O O6 0.586380 0.986269 0.251301
O O7 0.676249 0.908709 0.111171
O O8 0.819284 0.665568 0.116921
O O9 0.671380 0.675558 0.219565
O O10 0.965916 0.594657 0.110473
O O11 0.921821 0.718867 0.935797
O O12 0.000000 0.813031 0.750000
#
# Coordination Sequence:
#
# PCOD9264923 Si02
#       6
#     8   8   8   8   8   4
#     4   9  20  36  55  79 110 152 186 220 279 339
#     4  10  20  33  56  81 114 145 177 232 282 341
#     4  10  19  36  54  79 109 147 190 223 279 331
#     4  10  21  32  53  81 112 146 177 229 278 344
#     4  10  22  35  55  77 113 150 189 230 275 330
#     4  10  20  30  52  86 120 138 178 224 300 334
#
# _framework density 18.179784000000001
#
# number of rings (size 3 to 8) (size 9 to 14) (size 15 to 20)
#    0.000    2.182    0.000    3.273   10.182    0.000 
#    0.000    0.000    0.000    9.818    0.000    0.000 
#    0.000    0.000    0.000    0.000    0.000    0.000 
#
# Total GULP energy -122523.773183 kJ/mol
# GULP energy per Si atom -5569.262417 kJ/mol
# Density = 1.813841 g / cm^3
# Si number density = 18.179784 Si / 1000 Ang^3
#
#
#
# Elastic Constant Matrix: (Units=GPa)
#
#
# Indices 1 2 3 4 5 6 
#
# 1 69.9247 37.9459 37.4237 0.0000 -21.7670 0.0000
# 2 37.9459 84.3435 38.9722 0.0000 -9.9724 0.0000
# 3 37.4237 38.9722 137.6464 0.0000 -18.7112 0.0000
# 4 0.0000 0.0000 0.0000 33.4434 0.0000 5.6252
# 5 -21.7670 -9.9724 -18.7112 0.0000 21.9928 0.0000
# 6 0.0000 0.0000 0.0000 5.6252 0.0000 14.2097
#
#
#
# Elastic Compliance Matrix: (Units=1/GPa)
#
#
# Indices 1 2 3 4 5 6 
#
# 1 0.026387 -0.008532 -0.001961 0.000000 0.020579 0.000000
# 2 -0.008532 0.016612 -0.002836 0.000000 -0.003324 0.000000
# 3 -0.001961 -0.002836 0.009230 0.000000 0.004626 0.000000
# 4 0.000000 0.000000 0.000000 0.032034 0.000000 -0.012681
# 5 0.020579 -0.003324 0.004626 0.000000 0.068265 0.000000
# 6 0.000000 0.000000 0.000000 -0.012681 0.000000 0.075394
#
#
# Mechanical properties :
#
#
# Convention : Reuss Voigt Hill
#
# Bulk Modulus (GPa) = 39.10640 57.84424 48.47532
# Shear Modulus (GPa) = 19.00393 25.76737 22.38565
#
# Velocity S-wave (km/s) = 3.23667 3.76887 3.51286
# Velocity P-wave (km/s) = 5.96034 7.12925 6.57084
#
# Compressibility (1/GPa) = 0.02557126
#
# Stress axis : x y z
#
# Youngs Moduli (GPa) = 37.89796 60.19756 108.34421
#
# Poissons Ratio (x) = 0.51361 0.21246
# Poissons Ratio (y) = 0.32335 0.30722
# Poissons Ratio (z) = 0.07432 0.17070
#
# Static dielectric constant tensor:
#      x y z
#    x 1.649950 0.000000 -0.007200 
#    y 0.000000 1.656790 0.000000 
#    z -0.007200 0.000000 1.666590 
# 
# From -- ./inp_files/39046.got.cif
#   From: 2010.05.17/outbox.cif.g08.bks.cpg/sg15_20_cif.got.tgz:39046.got - 2010.06.03 18:47:42.
