data_PCOD9264129
_publ_section_title
;
Structure prediction by ZEFSAII (Michael W. Deem and Ramdas Pophale) SiO2 
 PCOD9264129
Probable space group: C 2/C
;
_chemical_formula_sum "Si O2"
_cell_formula_units_Z 40
_cell_length_a 7.543970
_cell_length_b 15.934263
_cell_length_c 23.618334
_cell_angle_alpha 90.000000
_cell_angle_beta 41.184458
_cell_angle_gamma 90.000000
_cell_volume 1869.507888
_symmetry_space_group_name_H-M "C 2/C"
_symmetry_group_IT_number 15
_symmetry_cell_setting 'monoclinic'
loop_
_space_group_symop_operation_xyz
x,y,z
-x,y,1/2-z
-x,-y,-z
x,-y,1/2+z
1/2+x,1/2+y,z
1/2-x,1/2+y,1/2-z
1/2-x,1/2-y,-z
1/2+x,1/2-y,1/2+z
loop_
_atom_site_type_symbol
_atom_site_label
_atom_site_fract_x
_atom_site_fract_y
_atom_site_fract_z
Si Si1 0.026801 0.697065 0.424957
Si Si2 0.893387 0.115469 0.480550
Si Si3 0.211325 0.814118 0.292481
Si Si4 0.475535 0.235818 0.619098
Si Si5 0.870572 0.930475 0.453001
O O1 0.750000 0.750000 0.500000
O O2 0.929564 0.603842 0.462283
O O3 0.129111 0.724144 0.338759
O O4 0.270798 0.728559 0.405332
O O5 0.601781 0.159400 0.553611
O O6 0.087390 0.186372 0.406765
O O7 0.972030 0.094752 0.526537
O O8 0.891768 0.030225 0.445733
O O9 0.500000 0.838498 0.250000
O O10 0.262513 0.799862 0.214313
O O11 0.002453 0.881829 0.368105
#
# Coordination Sequence:
#
# PCOD9264129 Si02
#       5
#     8   8   8   8   8
#     4   9  16  32  56  74  97 147 178 206 261 323
#     4  10  20  33  54  84 107 137 176 222 272 319
#     4   9  16  33  54  75 101 148 173 212 261 325
#     4  10  19  35  56  75 109 142 181 213 270 317
#     4  10  19  35  56  79 109 137 182 215 271 316
#
# _framework density 21.396004999999999
#
# number of rings (size 3 to 8) (size 9 to 14) (size 15 to 20)
#    0.000    2.400    6.000    0.000    0.000    0.800 
#    3.600    1.000    0.000    0.000    0.000    0.000 
#    0.000    0.000    0.000    0.000    0.000    0.000 
#
# Total GULP energy -111507.837995 kJ/mol
# GULP energy per Si atom -5575.391900 kJ/mol
# Density = 2.134731 g / cm^3
# Si number density = 21.396005 Si / 1000 Ang^3
#
#
#
# Elastic Constant Matrix: (Units=GPa)
#
#
# Indices 1 2 3 4 5 6 
#
# 1 64.7539 22.8423 18.7469 -0.0125 -10.7637 0.0155
# 2 22.8423 139.7627 61.7902 -0.0034 13.8581 0.0020
# 3 18.7469 61.7902 144.4029 -0.0137 34.0334 0.0129
# 4 -0.0125 -0.0034 -0.0137 21.4708 0.0099 11.4694
# 5 -10.7637 13.8581 34.0334 0.0099 34.4691 -0.0117
# 6 0.0155 0.0020 0.0129 11.4694 -0.0117 18.9541
#
#
#
# Elastic Compliance Matrix: (Units=1/GPa)
#
#
# Indices 1 2 3 4 5 6 
#
# 1 0.019316 -0.002458 -0.004054 0.000009 0.011022 -0.000012
# 2 -0.002458 0.009139 -0.003316 -0.000004 -0.001167 0.000005
# 3 -0.004054 -0.003316 0.011540 0.000023 -0.011327 -0.000025
# 4 0.000009 -0.000004 0.000023 0.068820 -0.000052 -0.041644
# 5 0.011022 -0.001167 -0.011327 -0.000052 0.044106 0.000057
# 6 -0.000012 0.000005 -0.000025 -0.041644 0.000057 0.077958
#
#
# Mechanical properties :
#
#
# Convention : Reuss Voigt Hill
#
# Bulk Modulus (GPa) = 49.16690 61.74203 55.45447
# Shear Modulus (GPa) = 19.43151 31.34816 25.38984
#
# Velocity S-wave (km/s) = 3.01688 3.83187 3.44853
# Velocity P-wave (km/s) = 5.92999 6.96398 6.46768
#
# Compressibility (1/GPa) = 0.02033888
#
# Stress axis : x y z
#
# Youngs Moduli (GPa) = 51.77096 109.42695 86.65609
#
# Poissons Ratio (x) = 0.26893 0.35129
# Poissons Ratio (y) = 0.12723 0.28737
# Poissons Ratio (z) = 0.20987 0.36289
#
# Static dielectric constant tensor:
#      x y z
#    x 1.889650 0.000000 0.000230 
#    y 0.000000 1.812390 0.000000 
#    z 0.000230 0.000000 1.789130 
# 
# From -- ./inp_files/289218.got.cif
#   From: 2010.05.17/outbox.cif.g08.bks.cpg/sg15_145_cif.got.tgz:289218.got - 2010.06.03 18:47:42.
