data_PCOD9264904
_publ_section_title
;
Structure prediction by ZEFSAII (Michael W. Deem and Ramdas Pophale) SiO2 
 PCOD9264904
Probable space group: C 2/C
;
_chemical_formula_sum "Si O2"
_cell_formula_units_Z 56
_cell_length_a 24.362110
_cell_length_b 18.092685
_cell_length_c 19.451669
_cell_angle_alpha 90.000000
_cell_angle_beta 23.381453
_cell_angle_gamma 90.000000
_cell_volume 3402.530591
_symmetry_space_group_name_H-M "C 2/C"
_symmetry_group_IT_number 15
_symmetry_cell_setting 'monoclinic'
loop_
_space_group_symop_operation_xyz
x,y,z
-x,y,1/2-z
-x,-y,-z
x,-y,1/2+z
1/2+x,1/2+y,z
1/2-x,1/2+y,1/2-z
1/2-x,1/2-y,-z
1/2+x,1/2-y,1/2+z
loop_
_atom_site_type_symbol
_atom_site_label
_atom_site_fract_x
_atom_site_fract_y
_atom_site_fract_z
Si Si1 0.743290 0.203643 0.938610
Si Si2 0.398511 0.418083 0.550757
Si Si3 0.836592 0.539041 0.426985
Si Si4 0.299164 0.512954 0.784915
Si Si5 0.952529 0.245998 0.956733
Si Si6 0.823238 0.506417 0.283406
Si Si7 0.914324 0.399251 0.066022
O O1 0.885685 0.225535 0.736675
O O2 0.750000 0.250000 0.000000
O O3 0.729204 0.119290 0.980430
O O4 0.614599 0.224877 0.037560
O O5 0.330900 0.443820 0.699834
O O6 0.557570 0.443549 0.369450
O O7 0.382821 0.331585 0.555875
O O8 0.320385 0.464895 0.582372
O O9 0.769620 0.490517 0.564349
O O10 0.815437 0.509871 0.374398
O O11 0.000000 0.545986 0.250000
O O12 0.195283 0.566457 0.862351
O O13 0.926263 0.311967 0.040750
O O14 0.867907 0.430432 0.193814
O O15 0.939758 0.564342 0.123233
#
# Coordination Sequence:
#
# PCOD9264904 Si02
#       7
#     8   8   8   8   8   8   8
#     4  12  23  31  49  80 114 143 167 210 275 328
#     4  10  21  35  53  79 104 141 181 219 258 318
#     4  12  20  36  54  77 107 146 176 219 271 318
#     4  10  20  37  54  72 108 142 180 216 264 318
#     4  12  20  35  52  77 111 144 173 218 265 319
#     4  10  21  33  55  77 106 141 185 217 250 323
#     4  10  19  36  52  76 106 146 181 213 257 318
#
# _framework density 16.458338999999999
#
# number of rings (size 3 to 8) (size 9 to 14) (size 15 to 20)
#    0.000    1.143    4.286    3.857    0.000    0.571 
#    0.000    0.000    0.000    0.857    0.000    0.000 
#    0.000    0.000    0.000    0.000    0.000    0.000 
#
# Total GULP energy -156223.048053 kJ/mol
# GULP energy per Si atom -5579.394573 kJ/mol
# Density = 1.642088 g / cm^3
# Si number density = 16.458339 Si / 1000 Ang^3
#
#
#
# Elastic Constant Matrix: (Units=GPa)
#
#
# Indices 1 2 3 4 5 6 
#
# 1 96.2292 23.7087 26.5103 0.0007 19.4167 -0.0007
# 2 23.7087 62.0248 15.7130 -0.0008 25.6299 0.0002
# 3 26.5103 15.7130 56.9497 0.0009 12.4141 -0.0015
# 4 0.0007 -0.0008 0.0009 23.6116 -0.0001 5.0453
# 5 19.4167 25.6299 12.4141 -0.0001 41.2960 0.0005
# 6 -0.0007 0.0002 -0.0015 5.0453 0.0005 18.6036
#
#
#
# Elastic Compliance Matrix: (Units=1/GPa)
#
#
# Indices 1 2 3 4 5 6 
#
# 1 0.012913 -0.002457 -0.004646 0.000000 -0.003150 0.000000
# 2 -0.002457 0.022733 -0.002466 0.000001 -0.012212 -0.000001
# 3 -0.004646 -0.002466 0.020967 -0.000001 -0.002588 0.000002
# 4 0.000000 0.000001 -0.000001 0.044957 0.000000 -0.012192
# 5 -0.003150 -0.012212 -0.002588 0.000000 0.034053 -0.000001
# 6 0.000000 -0.000001 0.000002 -0.012192 -0.000001 0.057059
#
#
# Mechanical properties :
#
#
# Convention : Reuss Voigt Hill
#
# Bulk Modulus (GPa) = 26.68623 38.56306 32.62465
# Shear Modulus (GPa) = 22.29020 26.65371 24.47196
#
# Velocity S-wave (km/s) = 3.68413 4.02862 3.86022
# Velocity P-wave (km/s) = 5.86061 6.71724 6.30349
#
# Compressibility (1/GPa) = 0.03747251
#
# Stress axis : x y z
#
# Youngs Moduli (GPa) = 77.44236 43.98887 47.69450
#
# Poissons Ratio (x) = 0.10809 0.22161
# Poissons Ratio (y) = 0.19030 0.11763
# Poissons Ratio (z) = 0.35983 0.10849
#
# Static dielectric constant tensor:
#      x y z
#    x 1.581340 0.000000 -0.007330 
#    y 0.000000 1.571290 0.000000 
#    z -0.007330 0.000000 1.571990 
# 
# From -- ./inp_files/258004.got.cif
#   From: 2010.05.17/outbox.cif.g08.bks.cpg/sg15_130_cif.got.tgz:258004.got - 2010.06.03 18:47:42.
