data_PCOD9264274
_publ_section_title
;
Structure prediction by ZEFSAII (Michael W. Deem and Ramdas Pophale) SiO2 
 PCOD9264274
Probable space group: C 2/C
;
_chemical_formula_sum "Si O2"
_cell_formula_units_Z 64
_cell_length_a 7.326150
_cell_length_b 13.946503
_cell_length_c 34.605560
_cell_angle_alpha 90.000000
_cell_angle_beta 121.810248
_cell_angle_gamma 90.000000
_cell_volume 3004.712582
_symmetry_space_group_name_H-M "C 2/C"
_symmetry_group_IT_number 15
_symmetry_cell_setting 'monoclinic'
loop_
_space_group_symop_operation_xyz
x,y,z
-x,y,1/2-z
-x,-y,-z
x,-y,1/2+z
1/2+x,1/2+y,z
1/2-x,1/2+y,1/2-z
1/2-x,1/2-y,-z
1/2+x,1/2-y,1/2+z
loop_
_atom_site_type_symbol
_atom_site_label
_atom_site_fract_x
_atom_site_fract_y
_atom_site_fract_z
Si Si1 0.722807 0.907482 0.751533
Si Si2 0.023268 0.599311 0.980521
Si Si3 0.944650 0.944484 0.324113
Si Si4 0.760660 0.190243 0.743083
Si Si5 0.878906 0.549550 0.830085
Si Si6 0.948565 0.699400 0.043918
Si Si7 0.021549 0.893011 0.417811
Si Si8 0.781770 0.502580 0.067249
O O1 0.500000 0.910741 0.750000
O O2 0.697280 0.969415 0.709669
O O3 0.890319 0.952865 0.800097
O O4 0.780440 0.798432 0.750400
O O5 0.777424 0.619861 0.941103
O O6 0.162914 0.577770 0.958742
O O7 0.095049 0.667853 0.023675
O O8 0.000000 0.500000 0.000000
O O9 0.186108 0.924856 0.337565
O O10 0.783728 0.874818 0.283369
O O11 0.929756 0.931982 0.367609
O O12 0.597699 0.143059 0.694407
O O13 0.000000 0.185140 0.750000
O O14 0.068889 0.513856 0.878466
O O15 0.851477 0.606838 0.056748
O O16 0.054520 0.784870 0.080369
O O17 0.750000 0.750000 0.000000
O O18 0.953988 0.970772 0.443254
#
# Coordination Sequence:
#
# PCOD9264274 Si02
#       8
#     8   8   8   8   8   8   8   8
#     4  10  19  35  57  86 114 159 205 247 302 366
#     4   9  20  41  63  87 124 154 195 257 311 368
#     4  10  20  38  57  83 123 161 200 250 305 359
#     4   8  18  35  57  80 118 164 196 246 305 359
#     4  10  20  38  57  84 122 160 202 248 309 357
#     4   9  22  41  63  91 121 159 205 253 321 374
#     4  11  22  40  63  93 121 162 206 251 308 375
#     4  11  22  40  65  92 122 162 203 262 307 372
#
# _framework density 21.299873999999999
#
# number of rings (size 3 to 8) (size 9 to 14) (size 15 to 20)
#    0.000    2.250    1.250    1.875    1.750    5.000 
#    4.500   10.000    0.000    0.000    0.000    0.000 
#    0.000    0.000    0.000    0.000    0.000    0.000 
#
# Total GULP energy -178321.543879 kJ/mol
# GULP energy per Si atom -5572.548246 kJ/mol
# Density = 2.125139 g / cm^3
# Si number density = 21.299874 Si / 1000 Ang^3
#
#
#
# Elastic Constant Matrix: (Units=GPa)
#
#
# Indices 1 2 3 4 5 6 
#
# 1 71.8615 2.8944 26.6803 0.0000 -28.2582 0.0000
# 2 2.8944 82.4038 15.0509 0.0000 -18.8696 0.0000
# 3 26.6803 15.0509 81.6404 0.0000 -26.2040 0.0000
# 4 0.0000 0.0000 0.0000 18.7913 0.0000 0.6564
# 5 -28.2582 -18.8696 -26.2040 0.0000 34.3230 0.0000
# 6 0.0000 0.0000 0.0000 0.6564 0.0000 22.4166
#
#
#
# Elastic Compliance Matrix: (Units=1/GPa)
#
#
# Indices 1 2 3 4 5 6 
#
# 1 0.021769 0.003837 -0.001844 0.000000 0.018625 0.000000
# 2 0.003837 0.014561 -0.000470 0.000000 0.010805 0.000000
# 3 -0.001844 -0.000470 0.016382 0.000000 0.010731 0.000000
# 4 0.000000 0.000000 0.000000 0.053271 0.000000 -0.001560
# 5 0.018625 0.010805 0.010731 0.000000 0.058601 0.000000
# 6 0.000000 0.000000 0.000000 -0.001560 0.000000 0.044656
#
#
# Mechanical properties :
#
#
# Convention : Reuss Voigt Hill
#
# Bulk Modulus (GPa) = 17.93453 36.12853 27.03153
# Shear Modulus (GPa) = 22.24398 27.85818 25.05108
#
# Velocity S-wave (km/s) = 3.23511 3.62042 3.43317
# Velocity P-wave (km/s) = 4.73211 5.87156 5.33236
#
# Compressibility (1/GPa) = 0.05575836
#
# Stress axis : x y z
#
# Youngs Moduli (GPa) = 45.93598 68.67804 61.04164
#
# Poissons Ratio (x) = -0.26351 0.11255
# Poissons Ratio (y) = -0.17625 0.02870
# Poissons Ratio (z) = 0.08469 0.03229
#
# Static dielectric constant tensor:
#      x y z
#    x 2.300680 0.000000 0.260280 
#    y 0.000000 1.791490 0.000000 
#    z 0.260280 0.000000 1.914210 
# 
# From -- ./inp_files/308042.got.cif
#   From: 2010.05.17/outbox.cif.g08.bks.cpg/sg15_155_cif.got.tgz:308042.got - 2010.06.03 18:47:42.
