data_PCOD9264533
_publ_section_title
;
Structure prediction by ZEFSAII (Michael W. Deem and Ramdas Pophale) SiO2 
 PCOD9264533
Probable space group: C 2/C
;
_chemical_formula_sum "Si O2"
_cell_formula_units_Z 44
_cell_length_a 14.913587
_cell_length_b 13.116713
_cell_length_c 31.680175
_cell_angle_alpha 90.000000
_cell_angle_beta 160.126905
_cell_angle_gamma 90.000000
_cell_volume 2106.659657
_symmetry_space_group_name_H-M "C 2/C"
_symmetry_group_IT_number 15
_symmetry_cell_setting 'monoclinic'
loop_
_space_group_symop_operation_xyz
x,y,z
-x,y,1/2-z
-x,-y,-z
x,-y,1/2+z
1/2+x,1/2+y,z
1/2-x,1/2+y,1/2-z
1/2-x,1/2-y,-z
1/2+x,1/2-y,1/2+z
loop_
_atom_site_type_symbol
_atom_site_label
_atom_site_fract_x
_atom_site_fract_y
_atom_site_fract_z
Si Si1 0.000000 0.337156 0.750000
Si Si2 0.174519 0.465437 0.702090
Si Si3 0.782425 0.825384 0.955095
Si Si4 0.455220 0.526561 0.415284
Si Si5 0.197695 0.207576 0.297482
Si Si6 0.586937 0.167375 0.900929
O O1 0.877936 0.282229 0.655732
O O2 0.781441 0.412999 0.669997
O O3 0.375502 0.482310 0.830403
O O4 0.307455 0.407512 0.722274
O O5 0.938819 0.387331 0.614542
O O6 0.067739 0.577760 0.643028
O O7 0.994467 0.739571 0.061201
O O8 0.983601 0.919380 0.036526
O O9 0.704202 0.598896 0.531416
O O10 0.000000 0.221288 0.250000
O O11 0.094410 0.275542 0.212693
O O12 0.750000 0.250000 0.000000
#
# Coordination Sequence:
#
# PCOD9264533 Si02
#       6
#     4   8   8   8   8   8
#     4  10  20  32  56  92 138 154 210 288 330 376
#     4  10  22  41  63  94 129 173 219 273 322 397
#     4  10  21  36  60  93 131 171 220 265 338 386
#     4  10  19  35  59  93 128 169 212 269 328 384
#     4  12  24  40  67 100 134 173 221 278 328 391
#     4  11  22  41  69  90 129 176 225 261 328 403
#
# _framework density 20.886146
#
# number of rings (size 3 to 8) (size 9 to 14) (size 15 to 20)
#    0.000    1.455    3.636    2.182    1.273    0.000 
#    0.000    0.909    2.000    0.000    0.000    0.000 
#    0.000    0.000    0.000    0.000    0.000    0.000 
#
# Total GULP energy -122557.815387 kJ/mol
# GULP energy per Si atom -5570.809790 kJ/mol
# Density = 2.083861 g / cm^3
# Si number density = 20.886146 Si / 1000 Ang^3
#
#
#
# Elastic Constant Matrix: (Units=GPa)
#
#
# Indices 1 2 3 4 5 6 
#
# 1 36.7690 29.6421 16.4313 0.0080 -14.5108 0.0013
# 2 29.6421 100.7756 27.4516 0.0237 -14.3943 0.0030
# 3 16.4313 27.4516 113.0325 0.0255 -23.2305 0.0054
# 4 0.0080 0.0237 0.0255 35.4563 0.0088 11.4721
# 5 -14.5108 -14.3943 -23.2305 0.0088 25.6458 0.0088
# 6 0.0013 0.0030 0.0054 11.4721 0.0088 15.9181
#
#
#
# Elastic Compliance Matrix: (Units=1/GPa)
#
#
# Indices 1 2 3 4 5 6 
#
# 1 0.042421 -0.009842 0.000026 -0.000005 0.018502 -0.000008
# 2 -0.009842 0.013341 -0.001739 -0.000007 0.000344 0.000003
# 3 0.000026 -0.001739 0.011142 -0.000008 0.009132 -0.000002
# 4 -0.000005 -0.000007 -0.000008 0.036780 -0.000018 -0.026507
# 5 0.018502 0.000344 0.009132 -0.000018 0.057927 -0.000024
# 6 -0.000008 0.000003 -0.000002 -0.026507 -0.000024 0.081925
#
#
# Mechanical properties :
#
#
# Convention : Reuss Voigt Hill
#
# Bulk Modulus (GPa) = 22.83347 44.18079 33.50713
# Shear Modulus (GPa) = 17.77816 27.20751 22.49284
#
# Velocity S-wave (km/s) = 2.92069 3.61315 3.28522
# Velocity P-wave (km/s) = 4.72546 6.21334 5.51976
#
# Compressibility (1/GPa) = 0.04379535
#
# Stress axis : x y z
#
# Youngs Moduli (GPa) = 23.57302 74.95836 89.74872
#
# Poissons Ratio (x) = 0.73775 -0.00235
# Poissons Ratio (y) = 0.23201 0.15603
# Poissons Ratio (z) = -0.00062 0.13032
#
# Static dielectric constant tensor:
#      x y z
#    x 1.803510 -0.000020 -0.029450 
#    y -0.000020 1.739970 0.000000 
#    z -0.029450 0.000000 1.767680 
# 
# From -- ./inp_files/95719.got.cif
#   From: 2010.05.17/outbox.cif.g08.bks.cpg/sg15_48_cif.got.tgz:95719.got - 2010.06.03 18:47:42.
