data_PCOD9264033
_publ_section_title
;
Structure prediction by ZEFSAII (Michael W. Deem and Ramdas Pophale) SiO2 
 PCOD9264033
Probable space group: C 2/C
;
_chemical_formula_sum "Si O2"
_cell_formula_units_Z 56
_cell_length_a 22.539554
_cell_length_b 11.793761
_cell_length_c 8.279617
_cell_angle_alpha 90.000000
_cell_angle_beta 121.743489
_cell_angle_gamma 90.000000
_cell_volume 1871.704468
_symmetry_space_group_name_H-M "C 2/C"
_symmetry_group_IT_number 15
_symmetry_cell_setting 'monoclinic'
loop_
_space_group_symop_operation_xyz
x,y,z
-x,y,1/2-z
-x,-y,-z
x,-y,1/2+z
1/2+x,1/2+y,z
1/2-x,1/2+y,1/2-z
1/2-x,1/2-y,-z
1/2+x,1/2-y,1/2+z
loop_
_atom_site_type_symbol
_atom_site_label
_atom_site_fract_x
_atom_site_fract_y
_atom_site_fract_z
Si Si1 0.000000 0.042066 0.250000
Si Si2 0.654094 0.173531 0.988786
Si Si3 0.464401 0.261132 0.897186
Si Si4 0.000000 0.604384 0.250000
Si Si5 0.644505 0.125698 0.341646
Si Si6 0.127152 0.105229 0.792449
Si Si7 0.235538 0.336209 0.296286
Si Si8 0.331994 0.394372 0.834179
O O1 0.984959 0.134571 0.086164
O O2 0.062053 0.962516 0.280079
O O3 0.575321 0.199263 0.808501
O O4 0.691166 0.113041 0.883509
O O5 0.657577 0.108292 0.166638
O O6 0.682412 0.304878 0.063123
O O7 0.403993 0.332162 0.899017
O O8 0.486511 0.173342 0.064359
O O9 0.077157 0.557121 0.315104
O O10 0.620252 0.259823 0.288427
O O11 0.700980 0.131820 0.573101
O O12 0.157545 0.019103 0.708782
O O13 0.188733 0.092158 0.012704
O O14 0.219386 0.201039 0.297289
#
# Coordination Sequence:
#
# PCOD9264033 Si02
#       8
#     4   8   8   4   8   8   8   8
#     4  10  21  30  42  64  98 140 170 195 234 274
#     4  10  19  35  54  61  86 119 178 217 243 279
#     4  10  20  31  42  65  86 130 169 201 242 272
#     4  12  19  32  44  64 110 112 170 207 230 302
#     4  11  21  32  49  71  93 134 159 204 254 277
#     4  10  20  27  41  63  96 124 165 193 233 280
#     4   9  19  37  48  69  84 113 180 222 232 286
#     4   9  19  29  41  63  87 120 164 196 242 269
#
# _framework density 29.919250999999999
#
# number of rings (size 3 to 8) (size 9 to 14) (size 15 to 20)
#    0.000    2.000    4.286    1.714    8.000    1.143 
#    0.000    0.000    0.000    0.000    0.000    0.000 
#    0.000    0.000    0.000    0.000    0.000  150.000 
#
# Total GULP energy -155991.595761 kJ/mol
# GULP energy per Si atom -5571.128420 kJ/mol
# Density = 2.985115 g / cm^3
# Si number density = 29.919251 Si / 1000 Ang^3
#
#
#
# Elastic Constant Matrix: (Units=GPa)
#
#
# Indices 1 2 3 4 5 6 
#
# 1 111.5109 24.6116 62.9492 0.0000 -18.6722 0.0000
# 2 24.6116 104.9899 33.5162 0.0000 -9.1684 0.0000
# 3 62.9492 33.5162 152.8846 0.0000 0.2709 0.0000
# 4 0.0000 0.0000 0.0000 -11.5899 0.0000 25.2263
# 5 -18.6722 -9.1684 0.2709 0.0000 45.4671 0.0000
# 6 0.0000 0.0000 0.0000 25.2263 0.0000 3.3020
#
#
#
# Elastic Compliance Matrix: (Units=1/GPa)
#
#
# Indices 1 2 3 4 5 6 
#
# 1 0.012933 -0.000945 -0.005127 0.000000 0.005151 0.000000
# 2 -0.000945 0.010511 -0.001918 0.000000 0.001743 0.000000
# 3 -0.005127 -0.001918 0.009077 0.000000 -0.002546 0.000000
# 4 0.000000 0.000000 0.000000 -0.004895 0.000000 0.037392
# 5 0.005151 0.001743 -0.002546 0.000000 0.024476 0.000000
# 6 0.000000 0.000000 0.000000 0.037392 0.000000 0.017179
#
#
# Mechanical properties :
#
#
# Convention : Reuss Voigt Hill
#
# Bulk Modulus (GPa) = 60.45909 67.94880 64.20394
# Shear Modulus (GPa) = 55.08061 23.98976 39.53518
#
# Velocity S-wave (km/s) = 4.29531 2.83471 3.63904
# Velocity P-wave (km/s) = 6.69708 5.78568 6.25800
#
# Compressibility (1/GPa) = 0.01654011
#
# Stress axis : x y z
#
# Youngs Moduli (GPa) = 77.32039 95.14006 110.16939
#
# Poissons Ratio (x) = 0.08993 0.56485
# Poissons Ratio (y) = 0.07308 0.21132
# Poissons Ratio (z) = 0.39643 0.18249
#
# Static dielectric constant tensor:
#      x y z
#    x 3.126500 0.000000 0.103310 
#    y 0.000000 2.403860 0.000000 
#    z 0.103310 0.000000 2.820200 
# 
# From -- ./inp_files/63051.got.cif
#   From: 2010.05.17/outbox.cif.g08.bks.cpg/sg15_32_cif.got.tgz:63051.got - 2010.06.03 18:47:42.
