data_PCOD9264221
_publ_section_title
;
Structure prediction by ZEFSAII (Michael W. Deem and Ramdas Pophale) SiO2 
 PCOD9264221
Probable space group: C 2/C
;
_chemical_formula_sum "Si O2"
_cell_formula_units_Z 60
_cell_length_a 8.965978
_cell_length_b 16.931777
_cell_length_c 17.698390
_cell_angle_alpha 90.000000
_cell_angle_beta 103.292641
_cell_angle_gamma 90.000000
_cell_volume 2614.808114
_symmetry_space_group_name_H-M "C 2/C"
_symmetry_group_IT_number 15
_symmetry_cell_setting 'monoclinic'
loop_
_space_group_symop_operation_xyz
x,y,z
-x,y,1/2-z
-x,-y,-z
x,-y,1/2+z
1/2+x,1/2+y,z
1/2-x,1/2+y,1/2-z
1/2-x,1/2-y,-z
1/2+x,1/2-y,1/2+z
loop_
_atom_site_type_symbol
_atom_site_label
_atom_site_fract_x
_atom_site_fract_y
_atom_site_fract_z
Si Si1 0.000000 0.281907 0.750000
Si Si2 0.265135 0.396815 0.721670
Si Si3 0.674813 0.282679 0.897503
Si Si4 0.031514 0.748579 0.410827
Si Si5 0.400988 0.508106 0.378845
Si Si6 0.727486 0.994854 0.577391
Si Si7 0.733272 0.122691 0.951124
Si Si8 0.261523 0.626437 0.485036
O O1 0.142276 0.338923 0.746233
O O2 0.037812 0.226765 0.824867
O O3 0.366263 0.337694 0.678733
O O4 0.344246 0.452269 0.793801
O O5 0.184509 0.454952 0.651034
O O6 0.624199 0.191915 0.904681
O O7 0.856794 0.268756 0.908692
O O8 0.662186 0.332581 0.972883
O O9 0.124073 0.667425 0.425737
O O10 0.118960 0.808351 0.474149
O O11 0.584808 0.504102 0.400184
O O12 0.325290 0.424086 0.396090
O O13 0.345111 0.565982 0.439132
O O14 0.665154 0.943455 0.499347
O O15 0.693584 0.083933 0.551072
#
# Coordination Sequence:
#
# PCOD9264221 Si02
#       8
#     4   8   8   8   8   8   8   8
#     4  10  20  40  54  74 110 152 186 226 278 332
#     4  10  21  36  52  80 108 150 182 224 280 330
#     4   9  18  35  56  80 107 146 190 227 268 335
#     4  10  19  35  57  80 112 146 189 227 277 330
#     4  11  19  35  56  83 115 145 181 230 287 326
#     4  10  20  35  55  84 113 139 188 230 281 326
#     4   9  18  34  57  82 107 140 188 227 274 328
#     4  10  20  35  56  87 111 143 187 233 277 331
#
# _framework density 22.946232999999999
#
# number of rings (size 3 to 8) (size 9 to 14) (size 15 to 20)
#    0.000    2.133    1.333    3.600    0.000    0.000 
#    9.600    2.667    0.000    0.000    3.467    0.000 
#    0.000    0.000    0.000    0.000    0.000    0.000 
#
# Total GULP energy -167336.181710 kJ/mol
# GULP energy per Si atom -5577.872724 kJ/mol
# Density = 2.289401 g / cm^3
# Si number density = 22.946233 Si / 1000 Ang^3
#
#
#
# Elastic Constant Matrix: (Units=GPa)
#
#
# Indices 1 2 3 4 5 6 
#
# 1 40.8766 7.8452 20.7105 0.0000 -3.7698 0.0000
# 2 7.8452 77.2384 22.5447 0.0000 -5.0676 0.0000
# 3 20.7105 22.5447 133.0475 0.0000 -10.8425 0.0000
# 4 0.0000 0.0000 0.0000 38.7781 0.0000 -14.5158
# 5 -3.7698 -5.0676 -10.8425 0.0000 24.3514 0.0000
# 6 0.0000 0.0000 0.0000 -14.5158 0.0000 16.1476
#
#
#
# Elastic Compliance Matrix: (Units=1/GPa)
#
#
# Indices 1 2 3 4 5 6 
#
# 1 0.026850 -0.001490 -0.003750 0.000000 0.002177 0.000000
# 2 -0.001490 0.013786 -0.001960 0.000000 0.001766 0.000000
# 3 -0.003750 -0.001960 0.008666 0.000000 0.002870 0.000000
# 4 0.000000 0.000000 0.000000 0.038866 0.000000 0.034938
# 5 0.002177 0.001766 0.002870 0.000000 0.043048 0.000000
# 6 0.000000 0.000000 0.000000 0.034938 0.000000 0.093336
#
#
# Mechanical properties :
#
#
# Convention : Reuss Voigt Hill
#
# Bulk Modulus (GPa) = 28.65101 39.26258 33.95680
# Shear Modulus (GPa) = 19.95316 29.19289 24.57302
#
# Velocity S-wave (km/s) = 2.95203 3.57070 3.27600
# Velocity P-wave (km/s) = 4.91249 5.84361 5.39816
#
# Compressibility (1/GPa) = 0.03490278
#
# Stress axis : x y z
#
# Youngs Moduli (GPa) = 37.24335 72.53592 115.39540
#
# Poissons Ratio (x) = 0.10807 0.43270
# Poissons Ratio (y) = 0.05549 0.22621
# Poissons Ratio (z) = 0.13965 0.14219
#
# Static dielectric constant tensor:
#      x y z
#    x 1.908340 0.000000 -0.032320 
#    y 0.000000 1.977660 0.000000 
#    z -0.032320 0.000000 1.883200 
# 
# From -- ./inp_files/199269.got.cif
#   From: 2010.05.17/outbox.cif.g08.bks.cpg/sg15_100_cif.got.tgz:199269.got - 2010.06.03 18:47:42.
