data_PCOD9264798
_publ_section_title
;
Structure prediction by ZEFSAII (Michael W. Deem and Ramdas Pophale) SiO2 
 PCOD9264798
Probable space group: C 2/C
;
_chemical_formula_sum "Si O2"
_cell_formula_units_Z 56
_cell_length_a 12.800078
_cell_length_b 15.975618
_cell_length_c 17.882674
_cell_angle_alpha 90.000000
_cell_angle_beta 127.445588
_cell_angle_gamma 90.000000
_cell_volume 2903.257521
_symmetry_space_group_name_H-M "C 2/C"
_symmetry_group_IT_number 15
_symmetry_cell_setting 'monoclinic'
loop_
_space_group_symop_operation_xyz
x,y,z
-x,y,1/2-z
-x,-y,-z
x,-y,1/2+z
1/2+x,1/2+y,z
1/2-x,1/2+y,1/2-z
1/2-x,1/2-y,-z
1/2+x,1/2-y,1/2+z
loop_
_atom_site_type_symbol
_atom_site_label
_atom_site_fract_x
_atom_site_fract_y
_atom_site_fract_z
Si Si1 0.772052 0.869570 0.977487
Si Si2 0.145865 0.221834 0.843083
Si Si3 0.255846 0.439208 0.482219
Si Si4 0.852712 0.131177 0.167979
Si Si5 0.554707 0.208681 0.884772
Si Si6 0.551305 0.324990 0.024090
Si Si7 0.736944 0.240458 0.767181
O O1 0.799898 0.847870 0.076471
O O2 0.908690 0.848283 0.993928
O O3 0.661082 0.806961 0.897907
O O4 0.735742 0.965697 0.951037
O O5 0.228795 0.233999 0.804283
O O6 0.000000 0.204985 0.750000
O O7 0.281880 0.432409 0.582553
O O8 0.136801 0.375586 0.415177
O O9 0.382412 0.400083 0.494548
O O10 0.870203 0.217003 0.126946
O O11 0.780604 0.164183 0.210560
O O12 0.000000 0.102017 0.250000
O O13 0.408534 0.201101 0.788456
O O14 0.544817 0.245933 0.964563
O O15 0.650600 0.302638 0.134522
#
# Coordination Sequence:
#
# PCOD9264798 Si02
#       7
#     8   8   8   8   8   8   8
#     4  11  25  42  62  86 124 164 210 255 303 371
#     4  11  24  44  64  79 114 172 218 247 296 374
#     4  11  21  38  60  95 129 155 191 265 326 356
#     4   9  18  33  60  92 121 153 197 248 309 372
#     4  10  19  35  63  93 124 159 196 244 314 376
#     4  11  19  38  65  90 125 162 197 248 309 377
#     4  11  19  36  66  89 113 162 212 247 295 375
#
# _framework density 19.288678999999998
#
# number of rings (size 3 to 8) (size 9 to 14) (size 15 to 20)
#    0.000    1.429    5.714    1.286    0.000    0.571 
#    2.571    0.714    0.000    0.000    0.000    0.000 
#    0.000    0.000    0.000    0.000    0.000    0.000 
#
# Total GULP energy -156307.215321 kJ/mol
# GULP energy per Si atom -5582.400547 kJ/mol
# Density = 1.924478 g / cm^3
# Si number density = 19.288679 Si / 1000 Ang^3
#
#
#
# Elastic Constant Matrix: (Units=GPa)
#
#
# Indices 1 2 3 4 5 6 
#
# 1 42.0153 -11.6119 1.4180 0.0000 -25.6045 0.0000
# 2 -11.6119 64.1824 9.5764 0.0000 -1.0459 0.0000
# 3 1.4180 9.5764 86.3367 0.0000 -6.5808 0.0000
# 4 0.0000 0.0000 0.0000 10.9536 0.0000 0.2705
# 5 -25.6045 -1.0459 -6.5808 0.0000 31.9579 0.0000
# 6 0.0000 0.0000 0.0000 0.2705 0.0000 16.1119
#
#
#
# Elastic Compliance Matrix: (Units=1/GPa)
#
#
# Indices 1 2 3 4 5 6 
#
# 1 0.052534 0.010009 0.001280 0.000000 0.042681 0.000000
# 2 0.010009 0.017751 -0.001501 0.000000 0.008291 0.000000
# 3 0.001280 -0.001501 0.011991 0.000000 0.003446 0.000000
# 4 0.000000 0.000000 0.000000 0.091332 0.000000 -0.001533
# 5 0.042681 0.008291 0.003446 0.000000 0.066468 0.000000
# 6 0.000000 0.000000 0.000000 -0.001533 0.000000 0.062092
#
#
# Mechanical properties :
#
#
# Convention : Reuss Voigt Hill
#
# Bulk Modulus (GPa) = 9.81823 21.25549 15.53686
# Shear Modulus (GPa) = 15.79570 24.68148 20.23859
#
# Velocity S-wave (km/s) = 2.86477 3.58101 3.24272
# Velocity P-wave (km/s) = 4.00546 5.30488 4.70029
#
# Compressibility (1/GPa) = 0.10185138
#
# Stress axis : x y z
#
# Youngs Moduli (GPa) = 19.03519 56.33636 83.39794
#
# Poissons Ratio (x) = -0.56387 -0.10677
# Poissons Ratio (y) = -0.19052 0.12521
# Poissons Ratio (z) = -0.02437 0.08458
#
# Static dielectric constant tensor:
#      x y z
#    x 1.727750 0.000000 -0.023160 
#    y 0.000000 1.644550 0.000000 
#    z -0.023160 0.000000 1.711870 
# 
# From -- ./inp_files/205477.got.cif
#   From: 2010.05.17/outbox.cif.g08.bks.cpg/sg15_103_cif.got.tgz:205477.got - 2010.06.03 18:47:42.
