data_PCOD9264391
_publ_section_title
;
Structure prediction by ZEFSAII (Michael W. Deem and Ramdas Pophale) SiO2 
 PCOD9264391
Probable space group: C 2/C
;
_chemical_formula_sum "Si O2"
_cell_formula_units_Z 56
_cell_length_a 25.726902
_cell_length_b 15.844523
_cell_length_c 8.758845
_cell_angle_alpha 90.000000
_cell_angle_beta 38.741566
_cell_angle_gamma 90.000000
_cell_volume 2234.369914
_symmetry_space_group_name_H-M "C 2/C"
_symmetry_group_IT_number 15
_symmetry_cell_setting 'monoclinic'
loop_
_space_group_symop_operation_xyz
x,y,z
-x,y,1/2-z
-x,-y,-z
x,-y,1/2+z
1/2+x,1/2+y,z
1/2-x,1/2+y,1/2-z
1/2-x,1/2-y,-z
1/2+x,1/2-y,1/2+z
loop_
_atom_site_type_symbol
_atom_site_label
_atom_site_fract_x
_atom_site_fract_y
_atom_site_fract_z
Si Si1 0.213163 0.219126 0.831268
Si Si2 0.139979 0.489036 0.732012
Si Si3 0.882810 0.620921 0.470068
Si Si4 0.938003 0.829509 0.032451
Si Si5 0.255741 0.085177 0.251433
Si Si6 0.079622 0.064888 0.626565
Si Si7 0.921905 0.773660 0.591396
O O1 0.284593 0.147946 0.678545
O O2 0.148716 0.202546 0.839493
O O3 0.253357 0.313168 0.729174
O O4 0.155520 0.221564 0.114951
O O5 0.098578 0.544659 0.956467
O O6 0.091704 0.416711 0.751310
O O7 0.176767 0.555713 0.526595
O O8 0.213164 0.442147 0.654932
O O9 0.915326 0.701137 0.483596
O O10 0.925793 0.903160 0.186117
O O11 0.000000 0.846040 0.750000
O O12 0.993741 0.764959 0.004688
O O13 0.172750 0.032824 0.402184
O O14 0.077969 0.140696 0.506419
O O15 0.000000 0.014409 0.750000
#
# Coordination Sequence:
#
# PCOD9264391 Si02
#       7
#     8   8   8   8   8   8   8
#     4  11  20  35  66  88 114 156 211 248 292 354
#     4  10  24  35  54  87 129 154 193 247 302 351
#     4  11  20  37  58  88 118 160 197 245 295 354
#     4   9  21  35  53  92 122 145 188 265 303 337
#     4  11  21  39  58  88 118 157 202 248 295 356
#     4  10  20  35  59  89 115 149 201 249 298 349
#     4  10  19  35  58  88 122 150 192 252 300 345
#
# _framework density 25.062994
#
# number of rings (size 3 to 8) (size 9 to 14) (size 15 to 20)
#    0.000    1.714    2.857    2.143    2.000    1.143 
#    0.000    0.714    0.000   15.429    0.000    0.000 
#    0.000    0.000    0.000    0.000    0.000    0.000 
#
# Total GULP energy -156482.433022 kJ/mol
# GULP energy per Si atom -5588.658322 kJ/mol
# Density = 2.500595 g / cm^3
# Si number density = 25.062994 Si / 1000 Ang^3
#
#
#
# Elastic Constant Matrix: (Units=GPa)
#
#
# Indices 1 2 3 4 5 6 
#
# 1 185.4220 41.4013 33.8258 0.0000 0.2439 0.0000
# 2 41.4013 91.4356 4.1729 0.0000 11.7098 0.0000
# 3 33.8258 4.1729 53.0304 0.0000 6.8805 0.0000
# 4 0.0000 0.0000 0.0000 -534.5788 0.0000 315.3708
# 5 0.2439 11.7098 6.8805 0.0000 45.3198 0.0000
# 6 0.0000 0.0000 0.0000 315.3708 0.0000 -145.8472
#
#
#
# Elastic Compliance Matrix: (Units=1/GPa)
#
#
# Indices 1 2 3 4 5 6 
#
# 1 0.006871 -0.003096 -0.004323 0.000000 0.001419 0.000000
# 2 -0.003096 0.012720 0.001426 0.000000 -0.003486 0.000000
# 3 -0.004323 0.001426 0.021980 0.000000 -0.003682 0.000000
# 4 0.000000 0.000000 0.000000 0.006786 0.000000 0.014674
# 5 0.001419 -0.003486 -0.003682 0.000000 0.023518 0.000000
# 6 0.000000 0.000000 0.000000 0.014674 0.000000 0.024873
#
#
# Mechanical properties :
#
#
# Convention : Reuss Voigt Hill
#
# Bulk Modulus (GPa) = 33.80058 54.29867 44.04963
# Shear Modulus (GPa) = 42.15988 -110.32205 -34.08108
#
# Velocity S-wave (km/s) = 4.10586 -6.64180 -3.69157
# Velocity P-wave (km/s) = 5.99941 6.09147 0.74601
#
# Compressibility (1/GPa) = 0.02958529
#
# Stress axis : x y z
#
# Youngs Moduli (GPa) = 145.53653 78.61788 45.49522
#
# Poissons Ratio (x) = 0.24337 0.19669
# Poissons Ratio (y) = 0.45053 -0.06488
# Poissons Ratio (z) = 0.62920 -0.11211
#
# Static dielectric constant tensor:
#      x y z
#    x 2.015670 0.000000 -0.094000 
#    y 0.000000 2.006590 0.000000 
#    z -0.094000 0.000000 2.046880 
# 
# From -- ./inp_files/55601.got.cif
#   From: 2010.05.17/outbox.cif.g08.bks.cpg/sg15_28_cif.got.tgz:55601.got - 2010.06.03 18:47:42.
