data_PCOD9264831
_publ_section_title
;
Structure prediction by ZEFSAII (Michael W. Deem and Ramdas Pophale) SiO2 
 PCOD9264831
Probable space group: C 2/C
;
_chemical_formula_sum "Si O2"
_cell_formula_units_Z 36
_cell_length_a 7.432580
_cell_length_b 23.882680
_cell_length_c 8.243104
_cell_angle_alpha 90.000000
_cell_angle_beta 75.737425
_cell_angle_gamma 90.000000
_cell_volume 1418.131385
_symmetry_space_group_name_H-M "C 2/C"
_symmetry_group_IT_number 15
_symmetry_cell_setting 'monoclinic'
loop_
_space_group_symop_operation_xyz
x,y,z
-x,y,1/2-z
-x,-y,-z
x,-y,1/2+z
1/2+x,1/2+y,z
1/2-x,1/2+y,1/2-z
1/2-x,1/2-y,-z
1/2+x,1/2-y,1/2+z
loop_
_atom_site_type_symbol
_atom_site_label
_atom_site_fract_x
_atom_site_fract_y
_atom_site_fract_z
Si Si1 0.206261 0.981466 0.006318
Si Si2 0.816835 0.681965 0.696278
Si Si3 0.226785 0.082215 0.193051
Si Si4 0.796541 0.697067 0.319550
Si Si5 0.500000 0.390949 0.250000
O O1 0.155539 0.934541 0.149898
O O2 0.294813 0.040033 0.039549
O O3 0.294754 0.949217 0.839259
O O4 0.000000 0.000000 0.000000
O O5 0.785630 0.673744 0.506819
O O6 0.827174 0.749648 0.692810
O O7 0.635574 0.652038 0.816580
O O8 0.000000 0.661458 0.750000
O O9 0.279562 0.146260 0.197473
O O10 0.000000 0.081710 0.250000
O O11 0.000000 0.721418 0.250000
#
# Coordination Sequence:
#
# PCOD9264831 Si02
#       5
#     8   8   8   8   4
#     4  10  19  35  64  93 127 174 216 260 327 384
#     4  11  26  44  67  98 132 175 217 271 333 383
#     4  10  20  37  63  94 126 171 223 259 324 390
#     4  11  24  45  63  96 134 170 223 272 322 393
#     4  12  20  42  70  94 136 164 226 262 326 392
#
# _framework density 25.385517
#
# number of rings (size 3 to 8) (size 9 to 14) (size 15 to 20)
#    0.000    1.333    6.667    0.667    0.000    4.444 
#    0.000    2.222    0.000    0.000    0.000    0.000 
#    0.000    0.000    0.000    0.000    0.000    0.000 
#
# Total GULP energy -100325.608920 kJ/mol
# GULP energy per Si atom -5573.644940 kJ/mol
# Density = 2.532774 g / cm^3
# Si number density = 25.385517 Si / 1000 Ang^3
#
#
#
# Elastic Constant Matrix: (Units=GPa)
#
#
# Indices 1 2 3 4 5 6 
#
# 1 110.6177 16.1778 10.4387 0.0000 15.5571 0.0000
# 2 16.1778 167.6361 12.7393 0.0000 26.8186 0.0000
# 3 10.4387 12.7393 31.3270 0.0000 8.5800 0.0000
# 4 0.0000 0.0000 0.0000 11.8549 0.0000 3.5889
# 5 15.5571 26.8186 8.5800 0.0000 22.4189 0.0000
# 6 0.0000 0.0000 0.0000 3.5889 0.0000 32.2350
#
#
#
# Elastic Compliance Matrix: (Units=1/GPa)
#
#
# Indices 1 2 3 4 5 6 
#
# 1 0.010096 0.000211 -0.001633 0.000000 -0.006633 0.000000
# 2 0.000211 0.007393 -0.000686 0.000000 -0.008728 0.000000
# 3 -0.001633 -0.000686 0.035981 0.000000 -0.011816 0.000000
# 4 0.000000 0.000000 0.000000 0.087296 0.000000 -0.009719
# 5 -0.006633 -0.008728 -0.011816 0.000000 0.064172 0.000000
# 6 0.000000 0.000000 0.000000 -0.009719 0.000000 0.032104
#
#
# Mechanical properties :
#
#
# Convention : Reuss Voigt Hill
#
# Bulk Modulus (GPa) = 20.30314 43.14358 31.72336
# Shear Modulus (GPa) = 19.40412 31.31676 25.36044
#
# Velocity S-wave (km/s) = 2.76774 3.51614 3.16414
# Velocity P-wave (km/s) = 4.26956 5.78935 5.08654
#
# Compressibility (1/GPa) = 0.04925347
#
# Stress axis : x y z
#
# Youngs Moduli (GPa) = 99.04581 135.25504 27.79252
#
# Poissons Ratio (x) = -0.02854 0.04539
# Poissons Ratio (y) = -0.02090 0.01908
# Poissons Ratio (z) = 0.16177 0.09283
#
# Static dielectric constant tensor:
#      x y z
#    x 2.273690 0.000000 -0.105550 
#    y 0.000000 2.042180 0.000000 
#    z -0.105550 0.000000 2.219900 
# 
# From -- ./inp_files/23074.got.cif
#   From: 2010.05.17/outbox.cif.g08.bks.cpg/sg15_12_cif.got.tgz:23074.got - 2010.06.03 18:47:42.
