data_PCOD9264408
_publ_section_title
;
Structure prediction by ZEFSAII (Michael W. Deem and Ramdas Pophale) SiO2 
 PCOD9264408
Probable space group: C 2/C
;
_chemical_formula_sum "Si O2"
_cell_formula_units_Z 64
_cell_length_a 12.685783
_cell_length_b 15.112951
_cell_length_c 25.799126
_cell_angle_alpha 90.000000
_cell_angle_beta 43.759321
_cell_angle_gamma 90.000000
_cell_volume 3420.942086
_symmetry_space_group_name_H-M "C 2/C"
_symmetry_group_IT_number 15
_symmetry_cell_setting 'monoclinic'
loop_
_space_group_symop_operation_xyz
x,y,z
-x,y,1/2-z
-x,-y,-z
x,-y,1/2+z
1/2+x,1/2+y,z
1/2-x,1/2+y,1/2-z
1/2-x,1/2-y,-z
1/2+x,1/2-y,1/2+z
loop_
_atom_site_type_symbol
_atom_site_label
_atom_site_fract_x
_atom_site_fract_y
_atom_site_fract_z
Si Si1 0.916444 0.411792 0.683465
Si Si2 0.306020 0.780192 0.897977
Si Si3 0.540867 0.005403 0.545304
Si Si4 0.887628 0.690163 0.928792
Si Si5 0.345468 0.676240 0.157245
Si Si6 0.601994 0.071201 0.670678
Si Si7 0.073694 0.001061 0.417197
Si Si8 0.333443 0.616816 0.958432
O O1 0.762770 0.371318 0.761990
O O2 0.038031 0.332973 0.647592
O O3 0.919098 0.451476 0.624261
O O4 0.990213 0.495137 0.687833
O O5 0.252520 0.789834 0.857760
O O6 0.322651 0.681131 0.913214
O O7 0.191452 0.827128 0.979698
O O8 0.562651 0.108060 0.552353
O O9 0.500000 0.000000 0.500000
O O10 0.699402 0.955365 0.502140
O O11 0.843227 0.639745 0.891860
O O12 0.039099 0.748499 0.865350
O O13 0.750000 0.750000 0.000000
O O14 0.447942 0.597748 0.097938
O O15 0.500000 0.118208 0.750000
O O16 0.749143 0.021088 0.639931
O O17 0.992698 0.931479 0.408753
O O18 0.000000 0.000000 0.500000
#
# Coordination Sequence:
#
# PCOD9264408 Si02
#       8
#     8   8   8   8   8   8   8   8
#     4  10  20  39  62  92 121 162 211 260 316 385
#     4  10  19  35  58  91 123 147 208 265 306 350
#     4  10  21  43  64  85 130 171 201 254 331 378
#     4  11  25  40  60  94 129 160 212 261 315 385
#     4  12  21  37  65  88 123 164 206 265 318 365
#     4  11  21  41  62  89 127 168 205 262 328 373
#     4  12  20  36  65  89 121 166 215 257 303 374
#     4  10  21  34  59  94 116 159 216 258 297 379
#
# _framework density 18.708296000000001
#
# number of rings (size 3 to 8) (size 9 to 14) (size 15 to 20)
#    0.000    1.250    3.750    4.125    0.000    1.000 
#    2.250    0.000    0.000    0.000    0.000    0.000 
#    0.000    0.000    0.000    0.000    0.000    0.000 
#
# Total GULP energy -178546.777550 kJ/mol
# GULP energy per Si atom -5579.586798 kJ/mol
# Density = 1.866572 g / cm^3
# Si number density = 18.708296 Si / 1000 Ang^3
#
#
#
# Elastic Constant Matrix: (Units=GPa)
#
#
# Indices 1 2 3 4 5 6 
#
# 1 61.6473 21.1360 18.3422 0.0000 8.7318 0.0000
# 2 21.1360 109.3733 32.6264 0.0000 -1.2895 0.0000
# 3 18.3422 32.6264 88.7553 0.0000 8.0931 0.0000
# 4 0.0000 0.0000 0.0000 38.8798 0.0000 -1.2083
# 5 8.7318 -1.2895 8.0931 0.0000 19.6976 0.0000
# 6 0.0000 0.0000 0.0000 -1.2083 0.0000 24.8908
#
#
#
# Elastic Compliance Matrix: (Units=1/GPa)
#
#
# Indices 1 2 3 4 5 6 
#
# 1 0.019019 -0.003152 -0.002061 0.000000 -0.007790 0.000000
# 2 -0.003152 0.010894 -0.003684 0.000000 0.003624 0.000000
# 3 -0.002061 -0.003684 0.013491 0.000000 -0.004870 0.000000
# 4 0.000000 0.000000 0.000000 0.025759 0.000000 0.001250
# 5 -0.007790 0.003624 -0.004870 0.000000 0.056459 0.000000
# 6 0.000000 0.000000 0.000000 0.001250 0.000000 0.040236
#
#
# Mechanical properties :
#
#
# Convention : Reuss Voigt Hill
#
# Bulk Modulus (GPa) = 39.04816 44.88724 41.96770
# Shear Modulus (GPa) = 26.01608 29.20507 27.61057
#
# Velocity S-wave (km/s) = 3.73314 3.95533 3.84584
# Velocity P-wave (km/s) = 6.28484 6.70111 6.49631
#
# Compressibility (1/GPa) = 0.02560940
#
# Stress axis : x y z
#
# Youngs Moduli (GPa) = 52.57947 91.79627 74.12303
#
# Poissons Ratio (x) = 0.28937 0.15279
# Poissons Ratio (y) = 0.16575 0.27303
# Poissons Ratio (z) = 0.10838 0.33813
#
# Static dielectric constant tensor:
#      x y z
#    x 1.640520 0.000000 0.023760 
#    y 0.000000 1.648850 0.000000 
#    z 0.023760 0.000000 1.693660 
# 
# From -- ./inp_files/293034.got.cif
#   From: 2010.05.17/outbox.cif.g08.bks.cpg/sg15_147_cif.got.tgz:293034.got - 2010.06.03 18:47:42.
