data_PCOD9264311
_publ_section_title
;
Structure prediction by ZEFSAII (Michael W. Deem and Ramdas Pophale) SiO2 
 PCOD9264311
Probable space group: C 2/C
;
_chemical_formula_sum "Si O2"
_cell_formula_units_Z 60
_cell_length_a 25.754602
_cell_length_b 22.752347
_cell_length_c 12.855697
_cell_angle_alpha 90.000000
_cell_angle_beta 24.226325
_cell_angle_gamma 90.000000
_cell_volume 3091.168789
_symmetry_space_group_name_H-M "C 2/C"
_symmetry_group_IT_number 15
_symmetry_cell_setting 'monoclinic'
loop_
_space_group_symop_operation_xyz
x,y,z
-x,y,1/2-z
-x,-y,-z
x,-y,1/2+z
1/2+x,1/2+y,z
1/2-x,1/2+y,1/2-z
1/2-x,1/2-y,-z
1/2+x,1/2-y,1/2+z
loop_
_atom_site_type_symbol
_atom_site_label
_atom_site_fract_x
_atom_site_fract_y
_atom_site_fract_z
Si Si1 0.279253 0.014772 0.386032
Si Si2 0.000000 0.820121 0.750000
Si Si3 0.884282 0.658089 0.648662
Si Si4 0.441239 0.256590 0.241810
Si Si5 0.396405 0.616258 0.729795
Si Si6 0.267661 0.322301 0.285481
Si Si7 0.996808 0.540471 0.134767
Si Si8 0.645847 0.392703 0.659600
O O1 0.186068 0.070307 0.553975
O O2 0.362932 0.017145 0.338702
O O3 0.195583 0.956312 0.536815
O O4 0.390331 0.005085 0.098609
O O5 0.929235 0.860793 0.795916
O O6 0.111381 0.788174 0.483970
O O7 0.815966 0.657622 0.659787
O O8 0.974471 0.601107 0.479966
O O9 0.962243 0.718670 0.506131
O O10 0.773810 0.646976 0.935197
O O11 0.500000 0.263338 0.250000
O O12 0.406552 0.319393 0.260487
O O13 0.317969 0.217234 0.485027
O O14 0.322982 0.625109 0.753908
O O15 0.542464 0.599764 0.439102
O O16 0.000000 0.553064 0.250000
#
# Coordination Sequence:
#
# PCOD9264311 Si02
#       8
#     8   4   8   8   8   8   8   8
#     4  10  21  35  52  78 109 133 177 218 253 322
#     4   8  16  32  54  78 100 122 176 224 260 288
#     4   9  17  33  56  79  98 125 175 230 260 295
#     4  10  20  33  49  74 105 137 171 209 261 317
#     4  11  20  33  50  75 107 139 168 207 259 321
#     4   9  17  31  55  75  98 127 174 221 255 292
#     4  10  19  35  58  79  98 134 178 225 267 294
#     4   9  19  34  52  78 102 136 173 218 262 299
#
# _framework density 19.410135
#
# number of rings (size 3 to 8) (size 9 to 14) (size 15 to 20)
#    0.000    2.400    0.000    3.600    0.000    1.600 
#    3.600    0.000    1.467    0.000    0.000    0.000 
#    0.000    0.000    0.000    0.000    0.000    0.000 
#
# Total GULP energy -167108.303869 kJ/mol
# GULP energy per Si atom -5570.276796 kJ/mol
# Density = 1.936596 g / cm^3
# Si number density = 19.410135 Si / 1000 Ang^3
#
#
#
# Elastic Constant Matrix: (Units=GPa)
#
#
# Indices 1 2 3 4 5 6 
#
# 1 10.1844 -4.4140 7.9265 -0.0001 -8.0519 0.0000
# 2 -4.4140 75.2148 52.4861 -0.0006 -2.9149 0.0001
# 3 7.9265 52.4861 125.6918 -0.0015 -2.1985 0.0006
# 4 -0.0001 -0.0006 -0.0015 12.6513 0.0006 -6.8757
# 5 -8.0519 -2.9149 -2.1985 0.0006 12.1021 -0.0002
# 6 0.0000 0.0001 0.0006 -6.8757 -0.0002 7.5082
#
#
#
# Elastic Compliance Matrix: (Units=1/GPa)
#
#
# Indices 1 2 3 4 5 6 
#
# 1 0.338631 0.057755 -0.041420 -0.000013 0.231687 -0.000006
# 2 0.057755 0.028730 -0.014893 -0.000002 0.042641 0.000000
# 3 -0.041420 -0.014893 0.016294 0.000003 -0.028185 0.000001
# 4 -0.000013 -0.000002 0.000003 0.157361 -0.000015 0.144104
# 5 0.231687 0.042641 -0.028185 -0.000015 0.241928 -0.000008
# 6 -0.000006 0.000000 0.000001 0.144104 -0.000008 0.265153
#
#
# Mechanical properties :
#
#
# Convention : Reuss Voigt Hill
#
# Bulk Modulus (GPa) = 2.58706 35.89868 19.24287
# Shear Modulus (GPa) = 4.25873 16.79181 10.52527
#
# Velocity S-wave (km/s) = 1.48285 2.94446 2.33117
# Velocity P-wave (km/s) = 2.06580 5.48587 4.14501
#
# Compressibility (1/GPa) = 0.38653889
#
# Stress axis : x y z
#
# Youngs Moduli (GPa) = 2.95307 34.80676 61.37147
#
# Poissons Ratio (x) = -2.01027 2.54200
# Poissons Ratio (y) = -0.17056 0.91403
# Poissons Ratio (z) = 0.12232 0.51839
#
# Static dielectric constant tensor:
#      x y z
#    x 1.681440 0.000000 0.002870 
#    y 0.000000 1.669080 0.000000 
#    z 0.002870 0.000000 1.760240 
# 
# From -- ./inp_files/146727.got.cif
#   From: 2010.05.17/outbox.cif.g08.bks.cpg/sg15_74_cif.got.tgz:146727.got - 2010.06.03 18:47:42.
