data_PCOD9264534
_publ_section_title
;
Structure prediction by ZEFSAII (Michael W. Deem and Ramdas Pophale) SiO2 
 PCOD9264534
Probable space group: C 2/C
;
_chemical_formula_sum "Si O2"
_cell_formula_units_Z 56
_cell_length_a 13.398862
_cell_length_b 26.390652
_cell_length_c 9.565603
_cell_angle_alpha 90.000000
_cell_angle_beta 123.882640
_cell_angle_gamma 90.000000
_cell_volume 2808.040068
_symmetry_space_group_name_H-M "C 2/C"
_symmetry_group_IT_number 15
_symmetry_cell_setting 'monoclinic'
loop_
_space_group_symop_operation_xyz
x,y,z
-x,y,1/2-z
-x,-y,-z
x,-y,1/2+z
1/2+x,1/2+y,z
1/2-x,1/2+y,1/2-z
1/2-x,1/2-y,-z
1/2+x,1/2-y,1/2+z
loop_
_atom_site_type_symbol
_atom_site_label
_atom_site_fract_x
_atom_site_fract_y
_atom_site_fract_z
Si Si1 0.665646 0.452764 0.880646
Si Si2 0.295010 0.220905 0.895870
Si Si3 0.594778 0.450176 0.151186
Si Si4 0.474369 0.286181 0.398461
Si Si5 0.391901 0.384735 0.905294
Si Si6 0.915021 0.496385 0.563695
Si Si7 0.219670 0.609379 0.516796
O O1 0.604759 0.498035 0.744259
O O2 0.631539 0.401731 0.771471
O O3 0.640246 0.453167 0.025940
O O4 0.803444 0.466561 0.964837
O O5 0.170858 0.223091 0.704579
O O6 0.322936 0.162394 0.953158
O O7 0.250000 0.250000 0.000000
O O8 0.425058 0.246415 0.964569
O O9 0.674560 0.409954 0.298052
O O10 0.459680 0.430908 0.035275
O O11 0.500000 0.291095 0.250000
O O12 0.518268 0.337995 0.505235
O O13 0.272433 0.378013 0.904333
O O14 0.868321 0.439061 0.555746
O O15 0.000000 0.514920 0.750000
O O16 0.000000 0.500000 0.500000
#
# Coordination Sequence:
#
# PCOD9264534 Si02
#       7
#     8   8   8   8   8   8   8
#     4  11  24  38  59  90 119 164 208 255 307 384
#     4  10  19  36  59  96 128 159 209 264 327 375
#     4  11  22  38  58  89 124 157 199 250 312 372
#     4  10  19  35  59  93 131 160 203 269 315 387
#     4  12  20  36  59  91 126 158 199 259 323 369
#     4  11  23  41  56  79 121 165 211 258 304 372
#     4  11  21  37  62  89 122 163 205 260 317 377
#
# _framework density 19.942734999999999
#
# number of rings (size 3 to 8) (size 9 to 14) (size 15 to 20)
#    0.000    1.143    4.286    5.571    0.000    4.000 
#    2.571    0.000    0.000    0.857    0.000    0.000 
#    0.000    0.000    0.000    0.000    0.000    0.000 
#
# Total GULP energy -156137.282134 kJ/mol
# GULP energy per Si atom -5576.331505 kJ/mol
# Density = 1.989734 g / cm^3
# Si number density = 19.942735 Si / 1000 Ang^3
#
#
#
# Elastic Constant Matrix: (Units=GPa)
#
#
# Indices 1 2 3 4 5 6 
#
# 1 92.3017 8.3168 44.0913 0.0000 8.0130 0.0000
# 2 8.3168 73.1338 28.2843 0.0000 7.3279 0.0000
# 3 44.0913 28.2843 94.7274 0.0000 -2.7105 0.0000
# 4 0.0000 0.0000 0.0000 34.0793 0.0000 7.4936
# 5 8.0130 7.3279 -2.7105 0.0000 44.1126 0.0000
# 6 0.0000 0.0000 0.0000 7.4936 0.0000 -32.3679
#
#
#
# Elastic Compliance Matrix: (Units=1/GPa)
#
#
# Indices 1 2 3 4 5 6 
#
# 1 0.014463 0.001502 -0.007275 0.000000 -0.003324 0.000000
# 2 0.001502 0.015983 -0.005565 0.000000 -0.003270 0.000000
# 3 -0.007275 -0.005565 0.015696 0.000000 0.003210 0.000000
# 4 0.000000 0.000000 0.000000 0.027922 0.000000 0.006464
# 5 -0.003324 -0.003270 0.003210 0.000000 0.024013 0.000000
# 6 0.000000 0.000000 0.000000 0.006464 0.000000 -0.029398
#
#
# Mechanical properties :
#
#
# Convention : Reuss Voigt Hill
#
# Bulk Modulus (GPa) = 42.61611 46.83863 44.72737
# Shear Modulus (GPa) = 50.41520 21.12951 35.77235
#
# Velocity S-wave (km/s) = 5.03337 3.25854 4.23987
# Velocity P-wave (km/s) = 7.42936 6.13963 6.81507
#
# Compressibility (1/GPa) = 0.02346531
#
# Stress axis : x y z
#
# Youngs Moduli (GPa) = 69.14429 62.56812 63.70904
#
# Poissons Ratio (x) = -0.09398 0.46350
# Poissons Ratio (y) = -0.10386 0.35453
# Poissons Ratio (z) = 0.50304 0.34818
#
# Static dielectric constant tensor:
#      x y z
#    x 1.839550 0.000000 0.015460 
#    y 0.000000 1.742430 0.000000 
#    z 0.015460 0.000000 1.719670 
# 
# From -- ./inp_files/43609.got.cif
#   From: 2010.05.17/outbox.cif.g08.bks.cpg/sg15_22_cif.got.tgz:43609.got - 2010.06.03 18:47:42.
