data_PCOD9264756
_publ_section_title
;
Structure prediction by ZEFSAII (Michael W. Deem and Ramdas Pophale) SiO2 
 PCOD9264756
Probable space group: C 2/C
;
_chemical_formula_sum "Si O2"
_cell_formula_units_Z 44
_cell_length_a 16.373340
_cell_length_b 22.132564
_cell_length_c 7.286662
_cell_angle_alpha 90.000000
_cell_angle_beta 56.746360
_cell_angle_gamma 90.000000
_cell_volume 2208.179891
_symmetry_space_group_name_H-M "C 2/C"
_symmetry_group_IT_number 15
_symmetry_cell_setting 'monoclinic'
loop_
_space_group_symop_operation_xyz
x,y,z
-x,y,1/2-z
-x,-y,-z
x,-y,1/2+z
1/2+x,1/2+y,z
1/2-x,1/2+y,1/2-z
1/2-x,1/2-y,-z
1/2+x,1/2-y,1/2+z
loop_
_atom_site_type_symbol
_atom_site_label
_atom_site_fract_x
_atom_site_fract_y
_atom_site_fract_z
Si Si1 0.811696 0.190351 0.896085
Si Si2 0.520794 0.070922 0.938498
Si Si3 0.182986 0.583208 0.202633
Si Si4 0.725198 0.055369 0.573997
Si Si5 0.912133 0.881394 0.996375
Si Si6 0.500000 0.362332 0.250000
O O1 0.745172 0.133498 0.027372
O O2 0.750000 0.250000 0.000000
O O3 0.855251 0.178639 0.638403
O O4 0.907854 0.181078 0.904739
O O5 0.500000 0.082809 0.750000
O O6 0.636411 0.081296 0.810421
O O7 0.432349 0.099433 0.161457
O O8 0.500000 0.000000 0.000000
O O9 0.212129 0.578979 0.382521
O O10 0.206400 0.516609 0.095574
O O11 0.830563 0.073761 0.519648
O O12 0.963804 0.901501 0.123338
O O13 0.000000 0.869958 0.750000
#
# Coordination Sequence:
#
# PCOD9264756 Si02
#       6
#     8   8   8   8   8   4
#     4  10  22  44  64  86 124 166 214 270 315 370
#     4   8  16  30  51  83 126 158 196 253 305 366
#     4  10  19  36  60  95 132 166 212 265 320 390
#     4  10  19  35  62  95 133 171 208 258 330 388
#     4  10  21  42  65  93 129 170 212 262 323 380
#     4   8  22  42  64  84 136 150 220 262 310 364
#
# _framework density 19.925913000000001
#
# number of rings (size 3 to 8) (size 9 to 14) (size 15 to 20)
#    1.091    1.455    0.000    2.182    0.000    1.455 
#    4.909    9.091    0.000    0.000    0.000    0.000 
#    0.000    0.000    0.000    0.000    0.000    0.000 
#
# Total GULP energy -122475.713086 kJ/mol
# GULP energy per Si atom -5567.077868 kJ/mol
# Density = 1.988056 g / cm^3
# Si number density = 19.925913 Si / 1000 Ang^3
#
#
#
# Elastic Constant Matrix: (Units=GPa)
#
#
# Indices 1 2 3 4 5 6 
#
# 1 130.8462 34.4468 57.4932 0.0000 -16.0178 0.0000
# 2 34.4468 61.3242 54.9063 0.0000 -18.7142 0.0000
# 3 57.4932 54.9063 167.0910 0.0000 -34.3789 0.0000
# 4 0.0000 0.0000 0.0000 13.4254 0.0000 -1.4421
# 5 -16.0178 -18.7142 -34.3789 0.0000 39.1977 0.0000
# 6 0.0000 0.0000 0.0000 -1.4421 0.0000 13.4218
#
#
#
# Elastic Compliance Matrix: (Units=1/GPa)
#
#
# Indices 1 2 3 4 5 6 
#
# 1 0.009488 -0.003329 -0.002074 0.000000 0.000468 0.000000
# 2 -0.003329 0.025225 -0.006034 0.000000 0.005390 0.000000
# 3 -0.002074 -0.006034 0.009657 0.000000 0.004741 0.000000
# 4 0.000000 0.000000 0.000000 0.075356 0.000000 0.008097
# 5 0.000468 0.005390 0.004741 0.000000 0.032435 0.000000
# 6 0.000000 0.000000 0.000000 0.008097 0.000000 0.075376
#
#
# Mechanical properties :
#
#
# Convention : Reuss Voigt Hill
#
# Bulk Modulus (GPa) = 46.52566 72.55043 59.53805
# Shear Modulus (GPa) = 19.41179 27.36997 23.39088
#
# Velocity S-wave (km/s) = 3.12460 3.71021 3.42993
# Velocity P-wave (km/s) = 6.03469 7.40563 6.75503
#
# Compressibility (1/GPa) = 0.02149351
#
# Stress axis : x y z
#
# Youngs Moduli (GPa) = 105.39871 39.64390 103.55426
#
# Poissons Ratio (x) = 0.13199 0.21479
# Poissons Ratio (y) = 0.35092 0.62487
# Poissons Ratio (z) = 0.21861 0.23922
#
# Static dielectric constant tensor:
#      x y z
#    x 1.797000 0.000000 -0.002030 
#    y 0.000000 1.650720 0.000000 
#    z -0.002030 0.000000 1.763270 
# 
# From -- ./inp_files/51418.got.cif
#   From: 2010.05.17/outbox.cif.g08.bks.cpg/sg15_26_cif.got.tgz:51418.got - 2010.06.03 18:47:42.
