data_PCOD9264203
_publ_section_title
;
Structure prediction by ZEFSAII (Michael W. Deem and Ramdas Pophale) SiO2 
 PCOD9264203
Probable space group: C 2/C
;
_chemical_formula_sum "Si O2"
_cell_formula_units_Z 60
_cell_length_a 14.890905
_cell_length_b 10.553519
_cell_length_c 19.386980
_cell_angle_alpha 90.000000
_cell_angle_beta 92.947401
_cell_angle_gamma 90.000000
_cell_volume 3042.661709
_symmetry_space_group_name_H-M "C 2/C"
_symmetry_group_IT_number 15
_symmetry_cell_setting 'monoclinic'
loop_
_space_group_symop_operation_xyz
x,y,z
-x,y,1/2-z
-x,-y,-z
x,-y,1/2+z
1/2+x,1/2+y,z
1/2-x,1/2+y,1/2-z
1/2-x,1/2-y,-z
1/2+x,1/2-y,1/2+z
loop_
_atom_site_type_symbol
_atom_site_label
_atom_site_fract_x
_atom_site_fract_y
_atom_site_fract_z
Si Si1 0.798350 0.466713 0.724974
Si Si2 0.334745 0.154608 0.551308
Si Si3 0.737513 0.268289 0.182168
Si Si4 0.472662 0.937290 0.398011
Si Si5 0.500000 0.965308 0.250000
Si Si6 0.920794 0.269874 0.917649
Si Si7 0.741701 0.589321 0.068423
Si Si8 0.895132 0.752409 0.007166
O O1 0.769182 0.614391 0.731272
O O2 0.764869 0.366123 0.779705
O O3 0.907914 0.460717 0.726646
O O4 0.754877 0.430753 0.649978
O O5 0.303000 0.229220 0.617925
O O6 0.424449 0.076442 0.574941
O O7 0.360285 0.231025 0.484510
O O8 0.264843 0.043436 0.533638
O O9 0.637661 0.289248 0.145941
O O10 0.420521 0.852819 0.450898
O O11 0.471068 0.893327 0.318477
O O12 0.439156 0.081786 0.400179
O O13 0.017800 0.217262 0.943416
O O14 0.645643 0.633205 0.037991
O O15 0.815685 0.693704 0.049888
#
# Coordination Sequence:
#
# PCOD9264203 Si02
#       8
#     8   8   8   8   4   8   8   8
#     4  11  25  41  63  92 121 168 211 259 315 370
#     4  10  19  38  58  91 121 158 210 261 302 363
#     4  11  24  40  63  92 130 162 209 264 313 377
#     4  11  19  34  61  94 119 157 223 256 289 363
#     4  12  20  38  64  84 118 172 220 256 296 370
#     4  11  19  37  63  92 118 161 212 264 305 358
#     4  10  19  35  56  91 127 151 204 253 310 367
#     4  10  20  33  60  94 123 160 201 261 308 365
#
# _framework density 19.719576
#
# number of rings (size 3 to 8) (size 9 to 14) (size 15 to 20)
#    0.000    1.333    6.667    1.200    1.867    0.000 
#    0.000    2.667    0.000    8.800    0.000    0.000 
#    0.000    0.000    0.000    0.000    0.000    0.000 
#
# Total GULP energy -167326.979583 kJ/mol
# GULP energy per Si atom -5577.565986 kJ/mol
# Density = 1.967469 g / cm^3
# Si number density = 19.719576 Si / 1000 Ang^3
#
#
#
# Elastic Constant Matrix: (Units=GPa)
#
#
# Indices 1 2 3 4 5 6 
#
# 1 87.3879 46.1178 20.9624 0.0000 18.5432 0.0000
# 2 46.1178 56.8997 19.1164 0.0000 13.0230 0.0000
# 3 20.9624 19.1164 57.0263 0.0000 11.6105 0.0000
# 4 0.0000 0.0000 0.0000 29.6548 0.0000 9.9945
# 5 18.5432 13.0230 11.6105 0.0000 32.1338 0.0000
# 6 0.0000 0.0000 0.0000 9.9945 0.0000 22.6434
#
#
#
# Elastic Compliance Matrix: (Units=1/GPa)
#
#
# Indices 1 2 3 4 5 6 
#
# 1 0.021021 -0.015300 -0.001501 0.000000 -0.005387 0.000000
# 2 -0.015300 0.032105 -0.004627 0.000000 -0.002510 0.000000
# 3 -0.001501 -0.004627 0.020596 0.000000 -0.004700 0.000000
# 4 0.000000 0.000000 0.000000 0.039614 0.000000 -0.017485
# 5 -0.005387 -0.002510 -0.004700 0.000000 0.036944 0.000000
# 6 0.000000 0.000000 0.000000 -0.017485 0.000000 0.051881
#
#
# Mechanical properties :
#
#
# Convention : Reuss Voigt Hill
#
# Bulk Modulus (GPa) = 32.39982 41.52300 36.96141
# Shear Modulus (GPa) = 19.58434 24.56089 22.07262
#
# Velocity S-wave (km/s) = 3.15483 3.53300 3.34926
# Velocity P-wave (km/s) = 5.45313 6.14372 5.80869
#
# Compressibility (1/GPa) = 0.03086437
#
# Stress axis : x y z
#
# Youngs Moduli (GPa) = 47.57136 31.14786 48.55409
#
# Poissons Ratio (x) = 0.47657 0.07289
# Poissons Ratio (y) = 0.72786 0.22465
# Poissons Ratio (z) = 0.07142 0.14412
#
# Static dielectric constant tensor:
#      x y z
#    x 1.735440 0.000000 0.007550 
#    y 0.000000 1.721540 0.000000 
#    z 0.007550 0.000000 1.732340 
# 
# From -- ./inp_files/243390.got.cif
#   From: 2010.05.17/outbox.cif.g08.bks.cpg/sg15_122_cif.got.tgz:243390.got - 2010.06.03 18:47:42.
