data_PCOD9264674
_publ_section_title
;
Structure prediction by ZEFSAII (Michael W. Deem and Ramdas Pophale) SiO2 
 PCOD9264674
Probable space group: C 2/C
;
_chemical_formula_sum "Si O2"
_cell_formula_units_Z 48
_cell_length_a 11.852764
_cell_length_b 12.465168
_cell_length_c 20.436837
_cell_angle_alpha 90.000000
_cell_angle_beta 138.597912
_cell_angle_gamma 90.000000
_cell_volume 1996.897258
_symmetry_space_group_name_H-M "C 2/C"
_symmetry_group_IT_number 15
_symmetry_cell_setting 'monoclinic'
loop_
_space_group_symop_operation_xyz
x,y,z
-x,y,1/2-z
-x,-y,-z
x,-y,1/2+z
1/2+x,1/2+y,z
1/2-x,1/2+y,1/2-z
1/2-x,1/2-y,-z
1/2+x,1/2-y,1/2+z
loop_
_atom_site_type_symbol
_atom_site_label
_atom_site_fract_x
_atom_site_fract_y
_atom_site_fract_z
Si Si1 0.186683 0.129259 0.334303
Si Si2 0.613432 0.848966 0.235417
Si Si3 0.074111 0.370519 0.967097
Si Si4 0.654205 0.215741 0.361090
Si Si5 0.306864 0.516398 0.899627
Si Si6 0.681997 0.102732 0.977126
O O1 0.159427 0.228813 0.273570
O O2 0.381009 0.095327 0.401444
O O3 0.214783 0.164511 0.422511
O O4 0.000000 0.070984 0.250000
O O5 0.500000 0.886869 0.250000
O O6 0.773070 0.926890 0.315398
O O7 0.510058 0.862146 0.124160
O O8 0.078842 0.306524 0.900660
O O9 0.176559 0.480333 0.000515
O O10 0.182598 0.293917 0.062267
O O11 0.500000 0.258007 0.250000
O O12 0.711538 0.097819 0.360972
O O13 0.262677 0.594681 0.941121
O O14 0.500000 0.500000 0.000000
#
# Coordination Sequence:
#
# PCOD9264674 Si02
#       6
#     8   8   8   8   8   8
#     4  11  24  39  59  89 122 160 205 254 316 381
#     4   9  20  37  57  82 114 153 198 245 302 361
#     4  10  22  41  60  88 124 157 203 254 309 376
#     4  10  21  38  63  89 118 161 207 256 308 366
#     4  10  19  35  61  91 120 157 207 254 297 357
#     4  10  22  40  59  83 123 162 197 253 313 369
#
# _framework density 24.037289999999999
#
# number of rings (size 3 to 8) (size 9 to 14) (size 15 to 20)
#    0.000    2.000    0.000    4.000    0.000   10.667 
#    0.000    0.000    0.000    0.000    0.000    0.000 
#    0.000    0.000    0.000    0.000    0.000    0.000 
#
# Total GULP energy -133830.065412 kJ/mol
# GULP energy per Si atom -5576.252726 kJ/mol
# Density = 2.398258 g / cm^3
# Si number density = 24.037290 Si / 1000 Ang^3
#
#
#
# Elastic Constant Matrix: (Units=GPa)
#
#
# Indices 1 2 3 4 5 6 
#
# 1 60.1040 -6.2121 35.8987 0.0000 11.7573 0.0000
# 2 -6.2121 69.9943 16.2792 0.0000 -2.1128 0.0000
# 3 35.8987 16.2792 156.8785 0.0000 7.8061 0.0000
# 4 0.0000 0.0000 0.0000 27.5043 0.0000 -3.1078
# 5 11.7573 -2.1128 7.8061 0.0000 34.9107 0.0000
# 6 0.0000 0.0000 0.0000 -3.1078 0.0000 2.0200
#
#
#
# Elastic Compliance Matrix: (Units=1/GPa)
#
#
# Indices 1 2 3 4 5 6 
#
# 1 0.020923 0.002795 -0.004789 0.000000 -0.005806 0.000000
# 2 0.002795 0.015067 -0.002226 0.000000 0.000468 0.000000
# 3 -0.004789 -0.002226 0.007714 0.000000 -0.000247 0.000000
# 4 0.000000 0.000000 0.000000 0.044009 0.000000 0.067708
# 5 -0.005806 0.000468 -0.000247 0.000000 0.030684 0.000000
# 6 0.000000 0.000000 0.000000 0.067708 0.000000 0.599220
#
#
# Mechanical properties :
#
#
# Convention : Reuss Voigt Hill
#
# Bulk Modulus (GPa) = 28.35795 42.10094 35.22944
# Shear Modulus (GPa) = 6.77681 28.95440 17.86560
#
# Velocity S-wave (km/s) = 1.68090 3.47444 2.72921
# Velocity P-wave (km/s) = 3.94846 5.80074 4.96180
#
# Compressibility (1/GPa) = 0.03526348
#
# Stress axis : x y z
#
# Youngs Moduli (GPa) = 47.79438 66.37050 129.64205
#
# Poissons Ratio (x) = -0.18554 0.62086
# Poissons Ratio (y) = -0.13361 0.28865
# Poissons Ratio (z) = 0.22889 0.14777
#
# Static dielectric constant tensor:
#      x y z
#    x 2.048860 0.000000 0.130800 
#    y 0.000000 2.067540 0.000000 
#    z 0.130800 0.000000 2.007580 
# 
# From -- ./inp_files/274375.got.cif
#   From: 2010.05.17/outbox.cif.g08.bks.cpg/sg15_138_cif.got.tgz:274375.got - 2010.06.03 18:47:42.
