data_PCOD9264335
_publ_section_title
;
Structure prediction by ZEFSAII (Michael W. Deem and Ramdas Pophale) SiO2 
 PCOD9264335
Probable space group: C 2/C
;
_chemical_formula_sum "Si O2"
_cell_formula_units_Z 60
_cell_length_a 14.760082
_cell_length_b 12.835343
_cell_length_c 17.139036
_cell_angle_alpha 90.000000
_cell_angle_beta 106.039580
_cell_angle_gamma 90.000000
_cell_volume 3120.600244
_symmetry_space_group_name_H-M "C 2/C"
_symmetry_group_IT_number 15
_symmetry_cell_setting 'monoclinic'
loop_
_space_group_symop_operation_xyz
x,y,z
-x,y,1/2-z
-x,-y,-z
x,-y,1/2+z
1/2+x,1/2+y,z
1/2-x,1/2+y,1/2-z
1/2-x,1/2-y,-z
1/2+x,1/2-y,1/2+z
loop_
_atom_site_type_symbol
_atom_site_label
_atom_site_fract_x
_atom_site_fract_y
_atom_site_fract_z
Si Si1 0.623080 0.059944 0.488743
Si Si2 0.653191 0.184844 0.976142
Si Si3 0.000000 0.313796 0.750000
Si Si4 0.109649 0.733922 0.790073
Si Si5 0.235507 0.071691 0.286602
Si Si6 0.709846 0.145434 0.661802
Si Si7 0.565783 0.169993 0.106732
Si Si8 0.198375 0.634887 0.352200
O O1 0.638617 0.115903 0.575189
O O2 0.516933 0.087178 0.434463
O O3 0.694364 0.107560 0.441429
O O4 0.649858 0.938253 0.496298
O O5 0.621060 0.189300 0.879316
O O6 0.750000 0.250000 0.000000
O O7 0.589473 0.229607 0.032128
O O8 0.029422 0.264147 0.673545
O O9 0.091488 0.379280 0.796063
O O10 0.159632 0.846242 0.797878
O O11 0.157744 0.667721 0.731578
O O12 0.000000 0.743287 0.750000
O O13 0.336790 0.117055 0.340520
O O14 0.238047 0.070843 0.192909
O O15 0.225138 0.955617 0.314108
O O16 0.769581 0.246664 0.653678
#
# Coordination Sequence:
#
# PCOD9264335 Si02
#       8
#     8   8   4   8   8   8   8   8
#     4  11  21  35  58  89 116 153 205 252 296 363
#     4  12  22  37  59  90 127 160 197 251 315 366
#     4   8  18  36  56  80 108 150 192 252 280 360
#     4  11  24  38  58  90 121 158 201 252 308 367
#     4  10  20  39  54  83 116 155 189 249 302 361
#     4  11  21  37  59  80 121 157 197 243 307 363
#     4  10  19  35  58  82 118 145 199 243 306 342
#     4   9  20  36  57  81 112 151 201 244 299 351
#
# _framework density 19.227070999999999
#
# number of rings (size 3 to 8) (size 9 to 14) (size 15 to 20)
#    0.000    1.600    2.667    2.400    1.867    0.000 
#    3.600    0.000    0.000    0.000    0.000   10.267 
#    0.000    0.000    0.000    0.000    0.000    0.000 
#
# Total GULP energy -167078.264272 kJ/mol
# GULP energy per Si atom -5569.275476 kJ/mol
# Density = 1.918331 g / cm^3
# Si number density = 19.227071 Si / 1000 Ang^3
#
#
#
# Elastic Constant Matrix: (Units=GPa)
#
#
# Indices 1 2 3 4 5 6 
#
# 1 63.2777 27.3359 46.8766 0.0000 -23.7461 0.0000
# 2 27.3359 64.5814 32.8476 0.0000 -0.0747 0.0000
# 3 46.8766 32.8476 146.6428 0.0000 -33.6011 0.0000
# 4 0.0000 0.0000 0.0000 10.7324 0.0000 0.9962
# 5 -23.7461 -0.0747 -33.6011 0.0000 46.9435 0.0000
# 6 0.0000 0.0000 0.0000 0.9962 0.0000 14.7028
#
#
#
# Elastic Compliance Matrix: (Units=1/GPa)
#
#
# Indices 1 2 3 4 5 6 
#
# 1 0.026806 -0.009273 -0.004053 0.000000 0.010644 0.000000
# 2 -0.009273 0.021126 -0.003391 0.000000 -0.007084 0.000000
# 3 -0.004053 -0.003391 0.010052 0.000000 0.005140 0.000000
# 4 0.000000 0.000000 0.000000 0.093766 0.000000 -0.006353
# 5 0.010644 -0.007084 0.005140 0.000000 0.030354 0.000000
# 6 0.000000 0.000000 0.000000 -0.006353 0.000000 0.068445
#
#
# Mechanical properties :
#
#
# Convention : Reuss Voigt Hill
#
# Bulk Modulus (GPa) = 40.73281 54.29134 47.51208
# Shear Modulus (GPa) = 17.11359 25.63852 21.37605
#
# Velocity S-wave (km/s) = 2.98665 3.65562 3.33794
# Velocity P-wave (km/s) = 5.75540 6.79090 6.29448
#
# Compressibility (1/GPa) = 0.02455023
#
# Stress axis : x y z
#
# Youngs Moduli (GPa) = 37.30537 47.33533 99.48083
#
# Poissons Ratio (x) = 0.43892 0.40320
# Poissons Ratio (y) = 0.34591 0.33737
# Poissons Ratio (z) = 0.15120 0.16053
#
# Static dielectric constant tensor:
#      x y z
#    x 1.689000 0.000000 -0.043620 
#    y 0.000000 1.684940 0.000000 
#    z -0.043620 0.000000 1.768640 
# 
# From -- ./inp_files/204505.got.cif
#   From: 2010.05.17/outbox.cif.g08.bks.cpg/sg15_103_cif.got.tgz:204505.got - 2010.06.03 18:47:42.
