data_PCOD9264192
_publ_section_title
;
Structure prediction by ZEFSAII (Michael W. Deem and Ramdas Pophale) SiO2 
 PCOD9264192
Probable space group: C 2/C
;
_chemical_formula_sum "Si O2"
_cell_formula_units_Z 56
_cell_length_a 7.791492
_cell_length_b 22.964122
_cell_length_c 14.376062
_cell_angle_alpha 90.000000
_cell_angle_beta 55.182495
_cell_angle_gamma 90.000000
_cell_volume 2111.739005
_symmetry_space_group_name_H-M "C 2/C"
_symmetry_group_IT_number 15
_symmetry_cell_setting 'monoclinic'
loop_
_space_group_symop_operation_xyz
x,y,z
-x,y,1/2-z
-x,-y,-z
x,-y,1/2+z
1/2+x,1/2+y,z
1/2-x,1/2+y,1/2-z
1/2-x,1/2-y,-z
1/2+x,1/2-y,1/2+z
loop_
_atom_site_type_symbol
_atom_site_label
_atom_site_fract_x
_atom_site_fract_y
_atom_site_fract_z
Si Si1 0.762252 0.694476 0.911383
Si Si2 0.879289 0.441970 0.565938
Si Si3 0.751326 0.573787 0.813880
Si Si4 0.966697 0.142225 0.370482
Si Si5 0.243867 0.449573 0.691584
Si Si6 0.168439 0.640574 0.884585
Si Si7 0.052300 0.239348 0.631863
O O1 0.695466 0.632299 0.885136
O O2 0.658999 0.737454 0.866104
O O3 0.000397 0.679093 0.873570
O O4 0.624645 0.697872 0.048550
O O5 0.698697 0.410912 0.562961
O O6 0.755245 0.453637 0.697623
O O7 0.000000 0.500000 0.500000
O O8 0.048878 0.389865 0.507617
O O9 0.661401 0.511171 0.870644
O O10 0.743339 0.589735 0.708032
O O11 0.000000 0.566429 0.750000
O O12 0.000000 0.152816 0.250000
O O13 0.164316 0.113446 0.358621
O O14 0.000000 0.447596 0.750000
O O15 0.356393 0.678294 0.861259
O O16 0.250000 0.250000 0.500000
O O17 0.000000 0.269405 0.750000
#
# Coordination Sequence:
#
# PCOD9264192 Si02
#       7
#     8   8   8   8   8   8   8
#     4  10  22  43  69  93 133 177 225 281 342 421
#     4  10  19  35  56  87 130 174 223 271 321 392
#     4   9  17  33  59  88 126 179 225 268 325 394
#     4   9  21  38  54  86 132 179 228 270 328 397
#     4  10  20  32  50  87 133 175 229 277 316 384
#     4  10  21  42  69  94 133 183 222 273 343 406
#     4  12  28  51  75 109 134 169 230 295 362 436
#
# _framework density 26.518429999999999
#
# number of rings (size 3 to 8) (size 9 to 14) (size 15 to 20)
#    0.000    2.000    2.857    0.000    4.000    2.286 
#   10.286    0.000    0.000    0.000    0.000    0.000 
#    0.000    0.000    0.000    0.000    0.000    0.000 
#
# Total GULP energy -155941.640404 kJ/mol
# GULP energy per Si atom -5569.344300 kJ/mol
# Density = 2.645807 g / cm^3
# Si number density = 26.518430 Si / 1000 Ang^3
#
#
#
# Elastic Constant Matrix: (Units=GPa)
#
#
# Indices 1 2 3 4 5 6 
#
# 1 95.4377 30.2139 10.8332 0.0000 10.5678 0.0000
# 2 30.2139 46.2459 8.7630 0.0000 -8.9470 0.0000
# 3 10.8332 8.7630 120.1091 0.0000 -2.4988 0.0000
# 4 0.0000 0.0000 0.0000 40.5096 0.0000 -10.7552
# 5 10.5678 -8.9470 -2.4988 0.0000 33.0780 0.0000
# 6 0.0000 0.0000 0.0000 -10.7552 0.0000 28.1298
#
#
#
# Elastic Compliance Matrix: (Units=1/GPa)
#
#
# Indices 1 2 3 4 5 6 
#
# 1 0.014960 -0.011160 -0.000698 0.000000 -0.007851 0.000000
# 2 -0.011160 0.031431 -0.001037 0.000000 0.011989 0.000000
# 3 -0.000698 -0.001037 0.008477 0.000000 0.000583 0.000000
# 4 0.000000 0.000000 0.000000 0.027474 0.000000 0.010505
# 5 -0.007851 0.011989 0.000583 0.000000 0.036026 0.000000
# 6 0.000000 0.000000 0.000000 0.010505 0.000000 0.039566
#
#
# Mechanical properties :
#
#
# Convention : Reuss Voigt Hill
#
# Bulk Modulus (GPa) = 34.39312 40.15701 37.27507
# Shear Modulus (GPa) = 25.85089 34.47566 30.16328
#
# Velocity S-wave (km/s) = 3.12561 3.60955 3.37626
# Velocity P-wave (km/s) = 5.10133 5.70506 5.41162
#
# Compressibility (1/GPa) = 0.02907558
#
# Stress axis : x y z
#
# Youngs Moduli (GPa) = 66.84606 31.81604 117.97255
#
# Poissons Ratio (x) = 0.35507 0.08239
# Poissons Ratio (y) = 0.74601 0.12235
# Poissons Ratio (z) = 0.04668 0.03300
#
# Static dielectric constant tensor:
#      x y z
#    x 2.214130 0.000000 0.340760 
#    y 0.000000 2.286850 0.000000 
#    z 0.340760 0.000000 3.224810 
# 
# From -- ./inp_files/137704.got.cif
#   From: 2010.05.17/outbox.cif.g08.bks.cpg/sg15_69_cif.got.tgz:137704.got - 2010.06.03 18:47:42.
