data_PCOD9264465
_publ_section_title
;
Structure prediction by ZEFSAII (Michael W. Deem and Ramdas Pophale) SiO2 
 PCOD9264465
Probable space group: C 2/C
;
_chemical_formula_sum "Si O2"
_cell_formula_units_Z 48
_cell_length_a 8.303835
_cell_length_b 29.104496
_cell_length_c 14.287438
_cell_angle_alpha 90.000000
_cell_angle_beta 44.537608
_cell_angle_gamma 90.000000
_cell_volume 2421.836642
_symmetry_space_group_name_H-M "C 2/C"
_symmetry_group_IT_number 15
_symmetry_cell_setting 'monoclinic'
loop_
_space_group_symop_operation_xyz
x,y,z
-x,y,1/2-z
-x,-y,-z
x,-y,1/2+z
1/2+x,1/2+y,z
1/2-x,1/2+y,1/2-z
1/2-x,1/2-y,-z
1/2+x,1/2-y,1/2+z
loop_
_atom_site_type_symbol
_atom_site_label
_atom_site_fract_x
_atom_site_fract_y
_atom_site_fract_z
Si Si1 0.498800 0.447628 0.967001
Si Si2 0.011396 0.199419 0.856724
Si Si3 0.762552 0.893454 0.790502
Si Si4 0.538305 0.049263 0.533941
Si Si5 0.993748 0.301165 0.641067
Si Si6 0.366002 0.602239 0.706582
O O1 0.268656 0.446964 0.999484
O O2 0.492754 0.418512 0.064585
O O3 0.500000 0.500000 0.000000
O O4 0.692022 0.425192 0.819588
O O5 0.000000 0.204271 0.750000
O O6 0.071854 0.250202 0.869515
O O7 0.175599 0.155587 0.804385
O O8 0.752688 0.188509 0.998621
O O9 0.682065 0.841676 0.807817
O O10 0.000000 0.893488 0.750000
O O11 0.568674 0.916256 0.934926
O O12 0.341304 0.067908 0.683716
O O13 0.500000 0.000000 0.500000
O O14 0.000000 0.299020 0.750000
O O15 0.500000 0.603480 0.750000
#
# Coordination Sequence:
#
# PCOD9264465 Si02
#       6
#     8   8   8   8   8   8
#     4  11  23  39  58  83 114 149 193 238 284 342
#     4   9  19  34  57  85 113 145 188 236 277 331
#     4  10  22  38  56  82 116 149 184 233 287 339
#     4  11  23  39  58  82 113 151 193 237 287 340
#     4  10  19  35  59  85 111 146 191 232 278 335
#     4  11  21  37  59  84 114 149 188 235 288 337
#
# _framework density 19.819669000000001
#
# number of rings (size 3 to 8) (size 9 to 14) (size 15 to 20)
#    0.000    1.667    0.000    5.500    0.000    2.667 
#    0.000    1.667    0.000   13.000    0.000    0.000 
#    0.000    0.000    0.000    0.000    0.000    0.000 
#
# Total GULP energy -133749.725179 kJ/mol
# GULP energy per Si atom -5572.905216 kJ/mol
# Density = 1.977456 g / cm^3
# Si number density = 19.819669 Si / 1000 Ang^3
#
#
#
# Elastic Constant Matrix: (Units=GPa)
#
#
# Indices 1 2 3 4 5 6 
#
# 1 37.4145 18.3739 11.1888 0.0000 15.2337 0.0000
# 2 18.3739 152.1335 8.9232 0.0000 11.5950 0.0000
# 3 11.1888 8.9232 102.6401 0.0000 26.8400 0.0000
# 4 0.0000 0.0000 0.0000 33.7035 0.0000 -0.8087
# 5 15.2337 11.5950 26.8400 0.0000 25.2891 0.0000
# 6 0.0000 0.0000 0.0000 -0.8087 0.0000 31.8187
#
#
#
# Elastic Compliance Matrix: (Units=1/GPa)
#
#
# Indices 1 2 3 4 5 6 
#
# 1 0.036963 -0.002813 0.002354 0.000000 -0.023474 0.000000
# 2 -0.002813 0.007032 0.000132 0.000000 -0.001670 0.000000
# 3 0.002354 0.000132 0.013649 0.000000 -0.015965 0.000000
# 4 0.000000 0.000000 0.000000 0.029689 0.000000 0.000755
# 5 -0.023474 -0.001670 -0.015965 0.000000 0.071392 0.000000
# 6 0.000000 0.000000 0.000000 0.000755 0.000000 0.031447
#
#
# Mechanical properties :
#
#
# Convention : Reuss Voigt Hill
#
# Bulk Modulus (GPa) = 17.54713 41.01776 29.28244
# Shear Modulus (GPa) = 23.82944 35.07576 29.45260
#
# Velocity S-wave (km/s) = 3.47120 4.21140 3.85909
# Velocity P-wave (km/s) = 4.99382 6.66245 5.88755
#
# Compressibility (1/GPa) = 0.05698938
#
# Stress axis : x y z
#
# Youngs Moduli (GPa) = 27.05424 142.19779 73.26288
#
# Poissons Ratio (x) = 0.40002 -0.17243
# Poissons Ratio (y) = 0.07611 -0.00966
# Poissons Ratio (z) = -0.06367 -0.01876
#
# Static dielectric constant tensor:
#      x y z
#    x 1.692870 0.000000 -0.012610 
#    y 0.000000 1.782950 0.000000 
#    z -0.012610 0.000000 1.683340 
# 
# From -- ./inp_files/80926.got.cif
#   From: 2010.05.17/outbox.cif.g08.bks.cpg/sg15_41_cif.got.tgz:80926.got - 2010.06.03 18:47:42.
