data_PCOD9264223
_publ_section_title
;
Structure prediction by ZEFSAII (Michael W. Deem and Ramdas Pophale) SiO2 
 PCOD9264223
Probable space group: C 2/C
;
_chemical_formula_sum "Si O2"
_cell_formula_units_Z 48
_cell_length_a 13.939232
_cell_length_b 5.743172
_cell_length_c 22.943263
_cell_angle_alpha 90.000000
_cell_angle_beta 79.986386
_cell_angle_gamma 90.000000
_cell_volume 1808.752330
_symmetry_space_group_name_H-M "C 2/C"
_symmetry_group_IT_number 15
_symmetry_cell_setting 'monoclinic'
loop_
_space_group_symop_operation_xyz
x,y,z
-x,y,1/2-z
-x,-y,-z
x,-y,1/2+z
1/2+x,1/2+y,z
1/2-x,1/2+y,1/2-z
1/2-x,1/2-y,-z
1/2+x,1/2-y,1/2+z
loop_
_atom_site_type_symbol
_atom_site_label
_atom_site_fract_x
_atom_site_fract_y
_atom_site_fract_z
Si Si1 0.551310 0.373469 0.372568
Si Si2 0.264931 0.551203 0.951855
Si Si3 0.039922 0.374102 0.379631
Si Si4 0.849420 0.864527 0.322075
Si Si5 0.603090 0.132901 0.705967
Si Si6 0.421634 0.746018 0.499780
O O1 0.593061 0.632220 0.358567
O O2 0.457611 0.371694 0.340197
O O3 0.538427 0.365556 0.444539
O O4 0.592938 0.114216 0.357185
O O5 0.279212 0.640121 0.885188
O O6 0.170387 0.394535 0.967911
O O7 0.250000 0.750000 0.000000
O O8 0.361707 0.420619 0.962164
O O9 0.935756 0.377516 0.356685
O O10 0.003711 0.364219 0.450475
O O11 0.845469 0.616845 0.289102
O O12 0.843006 0.118771 0.291951
O O13 0.500000 0.139791 0.750000
#
# Coordination Sequence:
#
# PCOD9264223 Si02
#       6
#     8   8   8   8   8   8
#     4  10  20  33  54  76 110 145 176 215 271 318
#     4  11  23  34  50  77 121 149 181 212 264 337
#     4  10  20  34  53  81 109 135 184 227 258 325
#     4  10  21  37  54  83 113 136 183 231 265 329
#     4  10  19  35  57  81 107 136 178 234 285 303
#     4  11  22  33  51  79 112 153 174 210 268 334
#
# _framework density 26.537628999999999
#
# number of rings (size 3 to 8) (size 9 to 14) (size 15 to 20)
#    0.000    1.667    3.333    3.500    4.667    0.000 
#    0.000    0.000    0.000    0.000    0.000   18.667 
#    0.000    0.000    0.000    0.000    0.000    0.000 
#
# Total GULP energy -133975.944184 kJ/mol
# GULP energy per Si atom -5582.331008 kJ/mol
# Density = 2.647723 g / cm^3
# Si number density = 26.537629 Si / 1000 Ang^3
#
#
#
# Elastic Constant Matrix: (Units=GPa)
#
#
# Indices 1 2 3 4 5 6 
#
# 1 104.0082 31.0758 3.3178 0.0000 5.8840 0.0000
# 2 31.0758 295.9981 33.2916 0.0000 -28.7988 0.0000
# 3 3.3178 33.2916 96.4632 0.0000 -16.4351 0.0000
# 4 0.0000 0.0000 0.0000 7.6273 0.0000 -17.5576
# 5 5.8840 -28.7988 -16.4351 0.0000 40.8047 0.0000
# 6 0.0000 0.0000 0.0000 -17.5576 0.0000 20.5673
#
#
#
# Elastic Compliance Matrix: (Units=1/GPa)
#
#
# Indices 1 2 3 4 5 6 
#
# 1 0.010146 -0.001270 -0.000336 0.000000 -0.002495 0.000000
# 2 -0.001270 0.003857 -0.000851 0.000000 0.002562 0.000000
# 3 -0.000336 -0.000851 0.011357 0.000000 0.004022 0.000000
# 4 0.000000 0.000000 0.000000 -0.135851 0.000000 -0.115971
# 5 -0.002495 0.002562 0.004022 0.000000 0.028295 0.000000
# 6 0.000000 0.000000 0.000000 -0.115971 0.000000 -0.050380
#
#
# Mechanical properties :
#
#
# Convention : Reuss Voigt Hill
#
# Bulk Modulus (GPa) = 48.90766 70.20442 59.55604
# Shear Modulus (GPa) = -41.37473 42.38548 0.50537
#
# Velocity S-wave (km/s) = -3.95282 4.00081 0.43686
# Velocity P-wave (km/s) = 1.53738 6.91767 4.76920
#
# Compressibility (1/GPa) = 0.02044669
#
# Stress axis : x y z
#
# Youngs Moduli (GPa) = 98.56137 259.28566 88.05046
#
# Poissons Ratio (x) = 0.32933 0.02955
# Poissons Ratio (y) = 0.12519 0.07491
# Poissons Ratio (z) = 0.03308 0.22060
#
# Static dielectric constant tensor:
#      x y z
#    x 2.056130 0.000000 0.028500 
#    y 0.000000 2.174060 0.000000 
#    z 0.028500 0.000000 2.105750 
# 
# From -- ./inp_files/275837.got.cif
#   From: 2010.05.17/outbox.cif.g08.bks.cpg/sg15_138_cif.got.tgz:275837.got - 2010.06.03 18:47:42.
