data_PCOD9264606
_publ_section_title
;
Structure prediction by ZEFSAII (Michael W. Deem and Ramdas Pophale) SiO2 
 PCOD9264606
Probable space group: C 2/C
;
_chemical_formula_sum "Si O2"
_cell_formula_units_Z 56
_cell_length_a 8.473489
_cell_length_b 24.690337
_cell_length_c 16.263901
_cell_angle_alpha 90.000000
_cell_angle_beta 130.322813
_cell_angle_gamma 90.000000
_cell_volume 2594.197381
_symmetry_space_group_name_H-M "C 2/C"
_symmetry_group_IT_number 15
_symmetry_cell_setting 'monoclinic'
loop_
_space_group_symop_operation_xyz
x,y,z
-x,y,1/2-z
-x,-y,-z
x,-y,1/2+z
1/2+x,1/2+y,z
1/2-x,1/2+y,1/2-z
1/2-x,1/2-y,-z
1/2+x,1/2-y,1/2+z
loop_
_atom_site_type_symbol
_atom_site_label
_atom_site_fract_x
_atom_site_fract_y
_atom_site_fract_z
Si Si1 0.865483 0.000299 0.320915
Si Si2 0.538982 0.684642 0.168096
Si Si3 0.667921 0.799864 0.231593
Si Si4 0.690319 0.963607 0.590520
Si Si5 0.341199 0.140261 0.525602
Si Si6 0.926724 0.116678 0.904713
Si Si7 0.231244 0.596966 0.360585
O O1 0.732774 0.024264 0.200496
O O2 0.783164 0.033290 0.371270
O O3 0.100227 0.017405 0.383079
O O4 0.866345 0.936156 0.332003
O O5 0.500000 0.674564 0.250000
O O6 0.677215 0.738156 0.204568
O O7 0.637958 0.632211 0.160475
O O8 0.311865 0.689083 0.051446
O O9 0.500000 0.797948 0.250000
O O10 0.561833 0.837387 0.127307
O O11 0.868762 0.829167 0.335488
O O12 0.651254 0.902724 0.545808
O O13 0.500000 0.000000 0.500000
O O14 0.226795 0.115039 0.567389
O O15 0.162993 0.114770 0.017609
O O16 0.000000 0.605563 0.250000
#
# Coordination Sequence:
#
# PCOD9264606 Si02
#       7
#     8   8   8   8   8   8   8
#     4  11  23  40  57  87 126 159 200 253 301 375
#     4  10  19  38  61  88 122 152 205 259 305 357
#     4   9  19  34  61  89 113 156 196 256 309 357
#     4  11  23  36  59  88 124 160 200 247 310 364
#     4  10  19  35  60  91 118 153 205 251 301 367
#     4  10  21  39  59  87 122 151 204 250 302 368
#     4  11  24  38  63  87 118 165 209 250 307 368
#
# _framework density 21.586638000000001
#
# number of rings (size 3 to 8) (size 9 to 14) (size 15 to 20)
#    0.000    1.714    2.857    2.571    2.000    2.857 
#    0.000    0.714    6.286    0.000    0.000    0.000 
#    0.000    0.000    0.000    0.000    0.000    0.000 
#
# Total GULP energy -156286.944111 kJ/mol
# GULP energy per Si atom -5581.676575 kJ/mol
# Density = 2.153751 g / cm^3
# Si number density = 21.586638 Si / 1000 Ang^3
#
#
#
# Elastic Constant Matrix: (Units=GPa)
#
#
# Indices 1 2 3 4 5 6 
#
# 1 12.0045 2.1420 19.6040 0.0000 5.3242 0.0000
# 2 2.1420 114.0053 37.5285 0.0000 -4.4883 0.0000
# 3 19.6040 37.5285 126.3096 0.0000 15.6916 0.0000
# 4 0.0000 0.0000 0.0000 32.7628 0.0000 3.1858
# 5 5.3242 -4.4883 15.6916 0.0000 29.9636 0.0000
# 6 0.0000 0.0000 0.0000 3.1858 0.0000 3.3137
#
#
#
# Elastic Compliance Matrix: (Units=1/GPa)
#
#
# Indices 1 2 3 4 5 6 
#
# 1 0.116430 0.003193 -0.017658 0.000000 -0.010963 0.000000
# 2 0.003193 0.010101 -0.003866 0.000000 0.002970 0.000000
# 3 -0.017658 -0.003866 0.012288 0.000000 -0.003877 0.000000
# 4 0.000000 0.000000 0.000000 0.033670 0.000000 -0.032370
# 5 -0.010963 0.002970 -0.003877 0.000000 0.037797 0.000000
# 6 0.000000 0.000000 0.000000 -0.032370 0.000000 0.332901
#
#
# Mechanical properties :
#
#
# Convention : Reuss Voigt Hill
#
# Bulk Modulus (GPa) = 9.78864 41.20761 25.49813
# Shear Modulus (GPa) = 8.14466 26.07767 17.11116
#
# Velocity S-wave (km/s) = 1.94453 3.47947 2.81850
# Velocity P-wave (km/s) = 3.09613 5.93912 4.73599
#
# Compressibility (1/GPa) = 0.10215919
#
# Stress axis : x y z
#
# Youngs Moduli (GPa) = 8.58883 99.00013 81.38180
#
# Poissons Ratio (x) = -0.31614 1.43700
# Poissons Ratio (y) = -0.02743 0.31460
# Poissons Ratio (z) = 0.15166 0.38271
#
# Static dielectric constant tensor:
#      x y z
#    x 1.806450 0.000000 -0.017670 
#    y 0.000000 1.777620 0.000000 
#    z -0.017670 0.000000 1.852230 
# 
# From -- ./inp_files/193320.got.cif
#   From: 2010.05.17/outbox.cif.g08.bks.cpg/sg15_97_cif.got.tgz:193320.got - 2010.06.03 18:47:42.
