data_PCOD9264596
_publ_section_title
;
Structure prediction by ZEFSAII (Michael W. Deem and Ramdas Pophale) SiO2 
 PCOD9264596
Probable space group: C 2/C
;
_chemical_formula_sum "Si O2"
_cell_formula_units_Z 56
_cell_length_a 7.735775
_cell_length_b 19.785015
_cell_length_c 21.539784
_cell_angle_alpha 90.000000
_cell_angle_beta 133.423618
_cell_angle_gamma 90.000000
_cell_volume 2394.376543
_symmetry_space_group_name_H-M "C 2/C"
_symmetry_group_IT_number 15
_symmetry_cell_setting 'monoclinic'
loop_
_space_group_symop_operation_xyz
x,y,z
-x,y,1/2-z
-x,-y,-z
x,-y,1/2+z
1/2+x,1/2+y,z
1/2-x,1/2+y,1/2-z
1/2-x,1/2-y,-z
1/2+x,1/2-y,1/2+z
loop_
_atom_site_type_symbol
_atom_site_label
_atom_site_fract_x
_atom_site_fract_y
_atom_site_fract_z
Si Si1 0.732413 0.199467 0.206517
Si Si2 0.432820 0.224161 0.467230
Si Si3 0.963293 0.558888 0.886358
Si Si4 0.380570 0.919582 0.620697
Si Si5 0.288177 0.605836 0.563033
Si Si6 0.418315 0.641724 0.040489
Si Si7 0.230888 0.343522 0.262494
O O1 0.588221 0.227040 0.111060
O O2 0.587456 0.133293 0.187949
O O3 0.730980 0.265619 0.248942
O O4 0.000000 0.183814 0.250000
O O5 0.642756 0.174998 0.540002
O O6 0.459707 0.298318 0.501184
O O7 0.195323 0.184853 0.431609
O O8 0.817696 0.550667 0.914771
O O9 0.820523 0.612615 0.810404
O O10 0.010447 0.493785 0.855847
O O11 0.216470 0.591173 0.966714
O O12 0.276193 0.911344 0.523999
O O13 0.156981 0.900814 0.608607
O O14 0.558193 0.621678 0.646654
O O15 0.000000 0.341554 0.250000
#
# Coordination Sequence:
#
# PCOD9264596 Si02
#       7
#     8   8   8   8   8   8   8
#     4  10  21  38  58  83 116 155 199 252 308 361
#     4   9  19  36  61  89 114 153 202 250 301 358
#     4  11  23  38  58  90 127 164 200 246 312 373
#     4  11  22  39  62  89 121 162 204 250 305 367
#     4  10  21  38  62  88 119 158 205 251 301 369
#     4  10  19  35  60  89 121 153 199 251 297 359
#     4  11  22  38  61  87 118 158 205 257 307 363
#
# _framework density 23.388134999999998
#
# number of rings (size 3 to 8) (size 9 to 14) (size 15 to 20)
#    0.000    1.714    0.000    5.571    0.000    3.429 
#    0.000    5.000    0.000    0.000    0.000    0.000 
#    0.000    0.000    0.000    0.000    0.000    0.000 
#
# Total GULP energy -156655.400346 kJ/mol
# GULP energy per Si atom -5594.835727 kJ/mol
# Density = 2.333490 g / cm^3
# Si number density = 23.388135 Si / 1000 Ang^3
#
#
#
# Elastic Constant Matrix: (Units=GPa)
#
#
# Indices 1 2 3 4 5 6 
#
# 1 44.3129 9.7495 19.7836 -0.0001 10.8842 -0.0003
# 2 9.7495 114.4701 26.8623 -0.0001 8.0026 -0.0001
# 3 19.7836 26.8623 88.7902 0.0000 17.6055 -0.0003
# 4 -0.0001 -0.0001 0.0000 28.8285 -0.0001 3.3160
# 5 10.8842 8.0026 17.6055 -0.0001 37.4856 -0.0002
# 6 -0.0003 -0.0001 -0.0003 3.3160 -0.0002 18.2422
#
#
#
# Elastic Compliance Matrix: (Units=1/GPa)
#
#
# Indices 1 2 3 4 5 6 
#
# 1 0.026054 -0.000790 -0.004521 0.000000 -0.005273 0.000000
# 2 -0.000790 0.009446 -0.002566 0.000000 -0.000582 0.000000
# 3 -0.004521 -0.002566 0.013979 0.000000 -0.004705 0.000000
# 4 0.000000 0.000000 0.000000 0.035429 0.000000 -0.006440
# 5 -0.005273 -0.000582 -0.004705 0.000000 0.030542 0.000000
# 6 0.000000 0.000000 0.000000 -0.006440 0.000000 0.055989
#
#
# Mechanical properties :
#
#
# Convention : Reuss Voigt Hill
#
# Bulk Modulus (GPa) = 29.65090 40.04044 34.84567
# Shear Modulus (GPa) = 25.19729 29.65644 27.42687
#
# Velocity S-wave (km/s) = 3.28587 3.56478 3.42816
# Velocity P-wave (km/s) = 5.20588 5.83958 5.53181
#
# Compressibility (1/GPa) = 0.03372579
#
# Stress axis : x y z
#
# Youngs Moduli (GPa) = 38.38178 105.86373 71.53527
#
# Poissons Ratio (x) = 0.08358 0.32339
# Poissons Ratio (y) = 0.03030 0.18359
# Poissons Ratio (z) = 0.17351 0.27170
#
# Static dielectric constant tensor:
#      x y z
#    x 1.951170 0.000000 -0.017460 
#    y 0.000000 1.879160 0.000000 
#    z -0.017460 0.000000 1.866880 
# 
# From -- ./inp_files/191034.got.cif
#   From: 2010.05.17/outbox.cif.g08.bks.cpg/sg15_96_cif.got.tgz:191034.got - 2010.06.03 18:47:42.
