data_PCOD9264294
_publ_section_title
;
Structure prediction by ZEFSAII (Michael W. Deem and Ramdas Pophale) SiO2 
 PCOD9264294
Probable space group: C 2/C
;
_chemical_formula_sum "Si O2"
_cell_formula_units_Z 52
_cell_length_a 7.800846
_cell_length_b 20.271265
_cell_length_c 24.445139
_cell_angle_alpha 90.000000
_cell_angle_beta 42.209061
_cell_angle_gamma 90.000000
_cell_volume 2597.044909
_symmetry_space_group_name_H-M "C 2/C"
_symmetry_group_IT_number 15
_symmetry_cell_setting 'monoclinic'
loop_
_space_group_symop_operation_xyz
x,y,z
-x,y,1/2-z
-x,-y,-z
x,-y,1/2+z
1/2+x,1/2+y,z
1/2-x,1/2+y,1/2-z
1/2-x,1/2-y,-z
1/2+x,1/2-y,1/2+z
loop_
_atom_site_type_symbol
_atom_site_label
_atom_site_fract_x
_atom_site_fract_y
_atom_site_fract_z
Si Si1 0.984418 0.301161 0.948707
Si Si2 0.980598 0.974688 0.192374
Si Si3 0.185069 0.100301 0.461330
Si Si4 0.918058 0.627289 0.580060
Si Si5 0.199950 0.317999 0.110261
Si Si6 0.500000 0.086106 0.750000
Si Si7 0.624869 0.471984 0.548181
O O1 0.936924 0.357548 0.914425
O O2 0.235853 0.256230 0.887156
O O3 0.750000 0.250000 0.000000
O O4 0.955445 0.334607 0.014718
O O5 0.854249 0.907261 0.349834
O O6 0.697998 0.957275 0.238131
O O7 0.000000 0.998310 0.250000
O O8 0.101622 0.022779 0.118513
O O9 0.952695 0.151848 0.522108
O O10 0.125893 0.061498 0.419461
O O11 0.152265 0.044804 0.516034
O O12 0.980686 0.673526 0.616869
O O13 0.128119 0.568676 0.528992
O O14 0.143987 0.365900 0.173934
#
# Coordination Sequence:
#
# PCOD9264294 Si02
#       7
#     8   8   8   8   8   4   8
#     4  10  19  35  57  88 119 152 205 252 302 352
#     4  12  23  37  59  92 128 161 200 257 321 374
#     4   9  18  33  59  89 121 151 199 252 306 348
#     4  11  21  37  61  93 118 158 211 262 307 362
#     4  10  20  35  59  89 122 159 197 256 301 371
#     4  12  22  40  58  88 132 154 206 246 322 378
#     4  10  20  36  60  92 122 155 203 260 304 366
#
# _framework density 20.022758
#
# number of rings (size 3 to 8) (size 9 to 14) (size 15 to 20)
#    0.000    1.538    4.615    1.846    0.000    0.000 
#    0.000    0.000    1.692    0.000    4.000    0.000 
#    0.000    0.000    0.000    0.000    0.000    0.000 
#
# Total GULP energy -145092.481261 kJ/mol
# GULP energy per Si atom -5580.480049 kJ/mol
# Density = 1.997719 g / cm^3
# Si number density = 20.022758 Si / 1000 Ang^3
#
#
#
# Elastic Constant Matrix: (Units=GPa)
#
#
# Indices 1 2 3 4 5 6 
#
# 1 120.3267 37.7015 23.1580 0.0022 17.9432 -0.0030
# 2 37.7015 65.4755 -4.4609 0.0011 0.7183 -0.0015
# 3 23.1580 -4.4609 37.5911 0.0000 14.3752 -0.0019
# 4 0.0022 0.0011 0.0000 19.6464 -0.0007 7.4394
# 5 17.9432 0.7183 14.3752 -0.0007 27.3892 0.0023
# 6 -0.0030 -0.0015 -0.0019 7.4394 0.0023 27.6834
#
#
#
# Elastic Compliance Matrix: (Units=1/GPa)
#
#
# Indices 1 2 3 4 5 6 
#
# 1 0.012782 -0.007795 -0.007101 -0.000002 -0.004443 0.000001
# 2 -0.007795 0.020215 0.006820 -0.000001 0.000997 0.000001
# 3 -0.007101 0.006820 0.037627 -0.000002 -0.015276 0.000004
# 4 -0.000002 -0.000001 -0.000002 0.056666 0.000005 -0.015228
# 5 -0.004443 0.000997 -0.015276 0.000005 0.047413 -0.000007
# 6 0.000001 0.000001 0.000004 -0.015228 -0.000007 0.040215
#
#
# Mechanical properties :
#
#
# Convention : Reuss Voigt Hill
#
# Bulk Modulus (GPa) = 18.35790 37.35451 27.85621
# Shear Modulus (GPa) = 20.06196 26.07678 23.06937
#
# Velocity S-wave (km/s) = 3.16881 3.61273 3.39803
# Velocity P-wave (km/s) = 4.75151 6.00824 5.41645
#
# Compressibility (1/GPa) = 0.05447246
#
# Stress axis : x y z
#
# Youngs Moduli (GPa) = 78.23368 49.46786 26.57656
#
# Poissons Ratio (x) = 0.38561 0.18871
# Poissons Ratio (y) = 0.60985 -0.18124
# Poissons Ratio (z) = 0.55550 -0.33736
#
# Static dielectric constant tensor:
#      x y z
#    x 1.788340 0.000000 -0.015070 
#    y 0.000000 1.740150 0.000000 
#    z -0.015070 0.000000 1.698990 
# 
# From -- ./inp_files/190340.got.cif
#   From: 2010.05.17/outbox.cif.g08.bks.cpg/sg15_96_cif.got.tgz:190340.got - 2010.06.03 18:47:42.
