data_PCOD9264052
_publ_section_title
;
Structure prediction by ZEFSAII (Michael W. Deem and Ramdas Pophale) SiO2 
 PCOD9264052
Probable space group: C 2/C
;
_chemical_formula_sum "Si O2"
_cell_formula_units_Z 64
_cell_length_a 18.712551
_cell_length_b 31.190951
_cell_length_c 8.774395
_cell_angle_alpha 90.000000
_cell_angle_beta 140.212315
_cell_angle_gamma 90.000000
_cell_volume 3277.337300
_symmetry_space_group_name_H-M "C 2/C"
_symmetry_group_IT_number 15
_symmetry_cell_setting 'monoclinic'
loop_
_space_group_symop_operation_xyz
x,y,z
-x,y,1/2-z
-x,-y,-z
x,-y,1/2+z
1/2+x,1/2+y,z
1/2-x,1/2+y,1/2-z
1/2-x,1/2-y,-z
1/2+x,1/2-y,1/2+z
loop_
_atom_site_type_symbol
_atom_site_label
_atom_site_fract_x
_atom_site_fract_y
_atom_site_fract_z
Si Si1 0.496686 0.348260 0.564724
Si Si2 0.749157 0.629105 0.441054
Si Si3 0.121304 0.555360 0.003581
Si Si4 0.188358 0.296167 0.054803
Si Si5 0.424648 0.259238 0.386879
Si Si6 0.353390 0.216667 0.674325
Si Si7 0.764764 0.887633 0.220315
Si Si8 0.382185 0.036825 0.142495
O O1 0.500000 0.333913 0.750000
O O2 0.616935 0.363783 0.710279
O O3 0.467411 0.306759 0.416506
O O4 0.396916 0.382690 0.404153
O O5 0.792970 0.592308 0.401921
O O6 0.815829 0.673861 0.523786
O O7 0.759765 0.616455 0.638372
O O8 0.112054 0.543278 0.166335
O O9 0.145623 0.511934 0.949014
O O10 0.000000 0.570958 0.750000
O O11 0.306100 0.270866 0.270451
O O12 0.135636 0.297811 0.132815
O O13 0.213705 0.345327 0.054701
O O14 0.113780 0.270710 0.814002
O O15 0.525882 0.238250 0.645438
O O16 0.250000 0.250000 0.500000
O O17 0.709485 0.930389 0.069530
O O18 0.500000 0.046180 0.250000
#
# Coordination Sequence:
#
# PCOD9264052 Si02
#       8
#     8   8   8   8   8   8   8   8
#     4   9  18  36  59  80 115 162 207 249 301 359
#     4  10  20  39  58  88 123 158 207 257 301 362
#     4  11  23  41  63  96 123 156 196 247 308 367
#     4   9  21  36  52  78 115 156 205 247 302 358
#     4  10  19  35  54  79 112 158 204 253 299 358
#     4  11  21  35  55  80 114 162 205 248 304 346
#     4   9  19  37  63  84 113 160 205 248 304 363
#     4  11  22  41  68  91 124 158 194 242 308 375
#
# _framework density 19.528047999999998
#
# number of rings (size 3 to 8) (size 9 to 14) (size 15 to 20)
#    0.000    2.000    1.250    4.125    0.000    3.000 
#    9.000    1.250    0.000    0.000    0.000    0.000 
#    0.000    0.000    0.000    0.000    0.000    0.000 
#
# Total GULP energy -178464.285300 kJ/mol
# GULP energy per Si atom -5577.008916 kJ/mol
# Density = 1.948360 g / cm^3
# Si number density = 19.528048 Si / 1000 Ang^3
#
#
#
# Elastic Constant Matrix: (Units=GPa)
#
#
# Indices 1 2 3 4 5 6 
#
# 1 90.1009 60.8223 44.8456 0.0000 6.3922 0.0000
# 2 60.8223 91.2446 47.7121 0.0000 19.2509 0.0000
# 3 44.8456 47.7121 90.7964 0.0000 24.5791 0.0000
# 4 0.0000 0.0000 0.0000 28.3290 0.0000 0.4285
# 5 6.3922 19.2509 24.5791 0.0000 28.9963 0.0000
# 6 0.0000 0.0000 0.0000 0.4285 0.0000 23.9302
#
#
#
# Elastic Compliance Matrix: (Units=1/GPa)
#
#
# Indices 1 2 3 4 5 6 
#
# 1 0.023265 -0.014053 -0.006805 0.000000 0.009970 0.000000
# 2 -0.014053 0.024022 -0.002860 0.000000 -0.010427 0.000000
# 3 -0.006805 -0.002860 0.019412 0.000000 -0.013056 0.000000
# 4 0.000000 0.000000 0.000000 0.035309 0.000000 -0.000632
# 5 0.009970 -0.010427 -0.013056 0.000000 0.050279 0.000000
# 6 0.000000 0.000000 0.000000 -0.000632 0.000000 0.041800
#
#
# Mechanical properties :
#
#
# Convention : Reuss Voigt Hill
#
# Bulk Modulus (GPa) = 51.91246 64.32245 58.11745
# Shear Modulus (GPa) = 20.16591 24.16856 22.16723
#
# Velocity S-wave (km/s) = 3.21699 3.52182 3.37285
# Velocity P-wave (km/s) = 6.35924 7.03901 6.70774
#
# Compressibility (1/GPa) = 0.01926320
#
# Stress axis : x y z
#
# Youngs Moduli (GPa) = 42.98326 41.62791 51.51491
#
# Poissons Ratio (x) = 0.58500 0.35056
# Poissons Ratio (y) = 0.60405 0.14733
# Poissons Ratio (z) = 0.29250 0.11905
#
# Static dielectric constant tensor:
#      x y z
#    x 1.692150 0.000000 0.021410 
#    y 0.000000 1.674210 0.000000 
#    z 0.021410 0.000000 1.678300 
# 
# From -- ./inp_files/52855.got.cif
#   From: 2010.05.17/outbox.cif.g08.bks.cpg/sg15_27_cif.got.tgz:52855.got - 2010.06.03 18:47:42.
