data_PCOD9264974
_publ_section_title
;
Structure prediction by ZEFSAII (Michael W. Deem and Ramdas Pophale) SiO2 
 PCOD9264974
Probable space group: C 2/C
;
_chemical_formula_sum "Si O2"
_cell_formula_units_Z 44
_cell_length_a 21.043549
_cell_length_b 18.267600
_cell_length_c 8.966388
_cell_angle_alpha 90.000000
_cell_angle_beta 40.814772
_cell_angle_gamma 90.000000
_cell_volume 2252.892744
_symmetry_space_group_name_H-M "C 2/C"
_symmetry_group_IT_number 15
_symmetry_cell_setting 'monoclinic'
loop_
_space_group_symop_operation_xyz
x,y,z
-x,y,1/2-z
-x,-y,-z
x,-y,1/2+z
1/2+x,1/2+y,z
1/2-x,1/2+y,1/2-z
1/2-x,1/2-y,-z
1/2+x,1/2-y,1/2+z
loop_
_atom_site_type_symbol
_atom_site_label
_atom_site_fract_x
_atom_site_fract_y
_atom_site_fract_z
Si Si1 0.409686 0.170836 0.155099
Si Si2 0.282180 0.073247 0.603048
Si Si3 0.500000 0.066253 0.750000
Si Si4 0.874932 0.715967 0.726851
Si Si5 0.191638 0.213531 0.866176
Si Si6 0.334182 0.050815 0.838493
O O1 0.352246 0.125168 0.380369
O O2 0.347335 0.237081 0.198347
O O3 0.433700 0.117749 0.972684
O O4 0.515784 0.199201 0.017297
O O5 0.198891 0.128841 0.806419
O O6 0.332955 0.044047 0.663700
O O7 0.255572 0.002692 0.551610
O O8 0.431951 0.026448 0.751130
O O9 0.800417 0.736582 0.728349
O O10 0.830987 0.638257 0.865129
O O11 0.871779 0.770519 0.872604
#
# Coordination Sequence:
#
# PCOD9264974 Si02
#       6
#     8   8   4   8   8   8
#     4  11  19  37  56  87 115 155 187 239 283 351
#     4  11  24  34  57  81 124 150 195 229 289 346
#     4  10  20  34  60  74 122 150 184 228 298 350
#     4   9  20  35  60  80 120 151 191 236 295 337
#     4  10  19  36  55  89 114 152 194 238 281 350
#     4  10  21  36  48  84 115 157 181 232 283 353
#
# _framework density 19.530446999999999
#
# number of rings (size 3 to 8) (size 9 to 14) (size 15 to 20)
#    0.000    1.818    3.636    1.636    0.000   14.545 
#    0.000    0.000    0.000    0.000    0.000   31.818 
#    0.000    0.182    0.000    0.000    0.000    0.000 
#
# Total GULP energy -122637.639986 kJ/mol
# GULP energy per Si atom -5574.438181 kJ/mol
# Density = 1.948599 g / cm^3
# Si number density = 19.530447 Si / 1000 Ang^3
#
#
#
# Elastic Constant Matrix: (Units=GPa)
#
#
# Indices 1 2 3 4 5 6 
#
# 1 70.2285 25.4034 -0.9461 0.0000 12.8421 0.0000
# 2 25.4034 98.1221 33.0504 0.0000 6.5197 0.0000
# 3 -0.9461 33.0504 56.0337 0.0000 22.1825 0.0000
# 4 0.0000 0.0000 0.0000 36.2144 0.0000 5.5186
# 5 12.8421 6.5197 22.1825 0.0000 30.9350 0.0000
# 6 0.0000 0.0000 0.0000 5.5186 0.0000 12.7285
#
#
#
# Elastic Compliance Matrix: (Units=1/GPa)
#
#
# Indices 1 2 3 4 5 6 
#
# 1 0.019729 -0.007687 0.010428 0.000000 -0.014048 0.000000
# 2 -0.007687 0.016036 -0.013285 0.000000 0.009338 0.000000
# 3 0.010428 -0.013285 0.036954 0.000000 -0.028028 0.000000
# 4 0.000000 0.000000 0.000000 0.029567 0.000000 -0.012819
# 5 -0.014048 0.009338 -0.028028 0.000000 0.056288 0.000000
# 6 0.000000 0.000000 0.000000 -0.012819 0.000000 0.084121
#
#
# Mechanical properties :
#
#
# Convention : Reuss Voigt Hill
#
# Bulk Modulus (GPa) = 19.36776 37.71105 28.53940
# Shear Modulus (GPa) = 17.79413 27.10070 22.44741
#
# Velocity S-wave (km/s) = 3.02171 3.72911 3.39389
# Velocity P-wave (km/s) = 4.70240 6.15568 5.47745
#
# Compressibility (1/GPa) = 0.05163220
#
# Stress axis : x y z
#
# Youngs Moduli (GPa) = 50.68647 62.36068 27.06084
#
# Poissons Ratio (x) = 0.47936 -0.28220
# Poissons Ratio (y) = 0.38962 0.35949
# Poissons Ratio (z) = -0.52858 0.82844
#
# Static dielectric constant tensor:
#      x y z
#    x 1.723000 0.000000 0.001920 
#    y 0.000000 1.749880 0.000000 
#    z 0.001920 0.000000 1.723110 
# 
# From -- ./inp_files/62635.got.cif
#   From: 2010.05.17/outbox.cif.g08.bks.cpg/sg15_32_cif.got.tgz:62635.got - 2010.06.03 18:47:42.
