data_PCOD9264619
_publ_section_title
;
Structure prediction by ZEFSAII (Michael W. Deem and Ramdas Pophale) SiO2 
 PCOD9264619
Probable space group: C 2/C
;
_chemical_formula_sum "Si O2"
_cell_formula_units_Z 48
_cell_length_a 13.565773
_cell_length_b 27.549477
_cell_length_c 11.397424
_cell_angle_alpha 90.000000
_cell_angle_beta 145.661508
_cell_angle_gamma 90.000000
_cell_volume 2402.735734
_symmetry_space_group_name_H-M "C 2/C"
_symmetry_group_IT_number 15
_symmetry_cell_setting 'monoclinic'
loop_
_space_group_symop_operation_xyz
x,y,z
-x,y,1/2-z
-x,-y,-z
x,-y,1/2+z
1/2+x,1/2+y,z
1/2-x,1/2+y,1/2-z
1/2-x,1/2-y,-z
1/2+x,1/2-y,1/2+z
loop_
_atom_site_type_symbol
_atom_site_label
_atom_site_fract_x
_atom_site_fract_y
_atom_site_fract_z
Si Si1 0.318782 0.368349 0.117351
Si Si2 0.565513 0.100721 0.936201
Si Si3 0.904084 0.038650 0.272848
Si Si4 0.859738 0.677019 0.287473
Si Si5 0.738098 0.443258 0.242103
Si Si6 0.229221 0.272794 0.108049
O O1 0.500000 0.389315 0.250000
O O2 0.235486 0.407343 0.121720
O O3 0.358014 0.319148 0.231520
O O4 0.211939 0.351842 0.897040
O O5 0.500000 0.123044 0.750000
O O6 0.411161 0.065133 0.833869
O O7 0.743976 0.072906 0.083803
O O8 0.610960 0.140217 0.078679
O O9 0.000000 0.018974 0.250000
O O10 0.057457 0.067027 0.493927
O O11 0.810408 0.996613 0.257200
O O12 0.748741 0.725630 0.207731
O O13 0.044853 0.701424 0.439494
O O14 0.250000 0.250000 0.000000
#
# Coordination Sequence:
#
# PCOD9264619 Si02
#       6
#     8   8   8   8   8   8
#     4  11  20  37  64 100 131 169 213 283 342 391
#     4  12  25  46  67  94 135 188 221 270 331 398
#     4  11  24  45  67 100 134 172 226 280 332 395
#     4  11  23  40  63  97 135 170 224 270 339 402
#     4  11  24  43  70  99 133 174 224 273 334 403
#     4  10  19  35  60  93 130 162 203 274 330 387
#
# _framework density 19.977226999999999
#
# number of rings (size 3 to 8) (size 9 to 14) (size 15 to 20)
#    0.000    1.000    3.333    6.000    0.000    1.333 
#    3.000    0.833    0.000    0.000    0.000    0.000 
#    0.000    0.000    0.000    0.000    0.000    0.000 
#
# Total GULP energy -133805.396829 kJ/mol
# GULP energy per Si atom -5575.224868 kJ/mol
# Density = 1.993176 g / cm^3
# Si number density = 19.977227 Si / 1000 Ang^3
#
#
#
# Elastic Constant Matrix: (Units=GPa)
#
#
# Indices 1 2 3 4 5 6 
#
# 1 80.1084 15.6773 38.3600 0.0000 5.9906 0.0000
# 2 15.6773 60.3862 33.3974 0.0000 -9.1565 0.0000
# 3 38.3600 33.3974 98.0872 0.0000 -11.1328 0.0000
# 4 0.0000 0.0000 0.0000 29.8804 0.0000 -2.5246
# 5 5.9906 -9.1565 -11.1328 0.0000 32.5475 0.0000
# 6 0.0000 0.0000 0.0000 -2.5246 0.0000 11.9079
#
#
#
# Elastic Compliance Matrix: (Units=1/GPa)
#
#
# Indices 1 2 3 4 5 6 
#
# 1 0.016317 -0.001490 -0.006516 0.000000 -0.005651 0.000000
# 2 -0.001490 0.020928 -0.006080 0.000000 0.004082 0.000000
# 3 -0.006516 -0.006080 0.015351 0.000000 0.004740 0.000000
# 4 0.000000 0.000000 0.000000 0.034077 0.000000 0.007225
# 5 -0.005651 0.004082 0.004740 0.000000 0.034534 0.000000
# 6 0.000000 0.000000 0.000000 0.007225 0.000000 0.085509
#
#
# Mechanical properties :
#
#
# Convention : Reuss Voigt Hill
#
# Bulk Modulus (GPa) = 40.93895 45.93902 43.43898
# Shear Modulus (GPa) = 20.57362 24.94364 22.75863
#
# Velocity S-wave (km/s) = 3.21261 3.53739 3.37891
# Velocity P-wave (km/s) = 5.85649 6.30316 6.08393
#
# Compressibility (1/GPa) = 0.02442662
#
# Stress axis : x y z
#
# Youngs Moduli (GPa) = 61.28521 47.78191 65.14147
#
# Poissons Ratio (x) = 0.07117 0.42443
# Poissons Ratio (y) = 0.09129 0.39606
# Poissons Ratio (z) = 0.39931 0.29051
#
# Static dielectric constant tensor:
#      x y z
#    x 1.737590 0.000000 0.030100 
#    y 0.000000 1.763790 0.000000 
#    z 0.030100 0.000000 1.788070 
# 
# From -- ./inp_files/101392.got.cif
#   From: 2010.05.17/outbox.cif.g08.bks.cpg/sg15_51_cif.got.tgz:101392.got - 2010.06.03 18:47:42.
