data_PCOD9264200
_publ_section_title
;
Structure prediction by ZEFSAII (Michael W. Deem and Ramdas Pophale) SiO2 
 PCOD9264200
Probable space group: C 2/C
;
_chemical_formula_sum "Si O2"
_cell_formula_units_Z 64
_cell_length_a 17.210950
_cell_length_b 8.929306
_cell_length_c 19.797468
_cell_angle_alpha 90.000000
_cell_angle_beta 108.246316
_cell_angle_gamma 90.000000
_cell_volume 2889.531573
_symmetry_space_group_name_H-M "C 2/C"
_symmetry_group_IT_number 15
_symmetry_cell_setting 'monoclinic'
loop_
_space_group_symop_operation_xyz
x,y,z
-x,y,1/2-z
-x,-y,-z
x,-y,1/2+z
1/2+x,1/2+y,z
1/2-x,1/2+y,1/2-z
1/2-x,1/2-y,-z
1/2+x,1/2-y,1/2+z
loop_
_atom_site_type_symbol
_atom_site_label
_atom_site_fract_x
_atom_site_fract_y
_atom_site_fract_z
Si Si1 0.148438 0.197356 0.152526
Si Si2 0.668714 0.047840 0.551059
Si Si3 0.167791 0.074994 0.466964
Si Si4 0.755720 0.067392 0.860481
Si Si5 0.558196 0.069255 0.702248
Si Si6 0.494016 0.530825 0.918974
Si Si7 0.118089 0.695396 0.144438
Si Si8 0.392509 0.095123 0.589325
O O1 0.162998 0.296773 0.089135
O O2 0.130332 0.313167 0.207530
O O3 0.222206 0.079993 0.175801
O O4 0.067987 0.093301 0.126415
O O5 0.759147 0.985702 0.559446
O O6 0.626503 0.925935 0.587473
O O7 0.626085 0.040267 0.466795
O O8 0.195524 0.055576 0.553014
O O9 0.144744 0.250185 0.451061
O O10 0.086893 0.988163 0.422074
O O11 0.798506 0.207677 0.835271
O O12 0.661910 0.075269 0.857910
O O13 0.500000 0.089896 0.750000
O O14 0.489093 0.099985 0.625524
O O15 0.594010 0.903329 0.702476
O O16 0.453788 0.688512 0.891296
O O17 0.500000 0.500000 0.000000
#
# Coordination Sequence:
#
# PCOD9264200 Si02
#       8
#     8   8   8   8   8   8   8   8
#     4  10  22  35  57  85 117 146 182 235 282 330
#     4  10  20  32  55  90 117 149 176 219 292 354
#     4  11  18  32  55  90 128 143 169 220 287 356
#     4  10  19  35  56  90 117 142 177 221 289 350
#     4  11  26  42  56  76 109 152 203 243 270 317
#     4  11  19  32  55  90 122 144 177 219 286 348
#     4  10  20  36  58  80 117 146 184 227 280 345
#     4  11  20  34  59  83 118 151 183 222 285 341
#
# _framework density 22.148918999999999
#
# number of rings (size 3 to 8) (size 9 to 14) (size 15 to 20)
#    0.000    1.500    6.250    0.750    1.750    4.000 
#    0.000    3.750    0.000    0.000    0.000    0.000 
#    0.000    0.000    0.000    0.000    0.000    0.000 
#
# Total GULP energy -178758.038169 kJ/mol
# GULP energy per Si atom -5586.188693 kJ/mol
# Density = 2.209851 g / cm^3
# Si number density = 22.148919 Si / 1000 Ang^3
#
#
#
# Elastic Constant Matrix: (Units=GPa)
#
#
# Indices 1 2 3 4 5 6 
#
# 1 125.8683 28.0567 9.4595 0.0000 -7.9970 0.0000
# 2 28.0567 115.1173 15.5797 0.0000 -11.1633 0.0000
# 3 9.4595 15.5797 44.8120 0.0000 -18.3534 0.0000
# 4 0.0000 0.0000 0.0000 13.7030 0.0000 -10.1641
# 5 -7.9970 -11.1633 -18.3534 0.0000 31.9454 0.0000
# 6 0.0000 0.0000 0.0000 -10.1641 0.0000 26.4420
#
#
#
# Elastic Compliance Matrix: (Units=1/GPa)
#
#
# Indices 1 2 3 4 5 6 
#
# 1 0.008482 -0.001869 -0.000704 0.000000 0.001066 0.000000
# 2 -0.001869 0.009606 -0.002304 0.000000 0.001565 0.000000
# 3 -0.000704 -0.002304 0.029898 0.000000 0.016196 0.000000
# 4 0.000000 0.000000 0.000000 0.102082 0.000000 0.039239
# 5 0.001066 0.001565 0.016196 0.000000 0.041422 0.000000
# 6 0.000000 0.000000 0.000000 0.039239 0.000000 0.052902
#
#
# Mechanical properties :
#
#
# Convention : Reuss Voigt Hill
#
# Bulk Modulus (GPa) = 26.15609 43.55438 34.85524
# Shear Modulus (GPa) = 18.73427 29.93153 24.33290
#
# Velocity S-wave (km/s) = 2.91147 3.68010 3.31812
# Velocity P-wave (km/s) = 4.81010 6.14528 5.51822
#
# Compressibility (1/GPa) = 0.03823201
#
# Stress axis : x y z
#
# Youngs Moduli (GPa) = 117.89711 104.10351 33.44660
#
# Poissons Ratio (x) = 0.19453 0.02356
# Poissons Ratio (y) = 0.22030 0.07707
# Poissons Ratio (z) = 0.08305 0.23987
#
# Static dielectric constant tensor:
#      x y z
#    x 1.835870 0.000000 -0.008620 
#    y 0.000000 1.798870 0.000000 
#    z -0.008620 0.000000 1.959050 
# 
# From -- ./inp_files/276282.got.cif
#   From: 2010.05.17/outbox.cif.g08.bks.cpg/sg15_139_cif.got.tgz:276282.got - 2010.06.03 18:47:42.
