data_PCOD9264639
_publ_section_title
;
Structure prediction by ZEFSAII (Michael W. Deem and Ramdas Pophale) SiO2 
 PCOD9264639
Probable space group: C 2/C
;
_chemical_formula_sum "Si O2"
_cell_formula_units_Z 64
_cell_length_a 24.273367
_cell_length_b 9.421055
_cell_length_c 14.904144
_cell_angle_alpha 90.000000
_cell_angle_beta 69.435281
_cell_angle_gamma 90.000000
_cell_volume 3191.100602
_symmetry_space_group_name_H-M "C 2/C"
_symmetry_group_IT_number 15
_symmetry_cell_setting 'monoclinic'
loop_
_space_group_symop_operation_xyz
x,y,z
-x,y,1/2-z
-x,-y,-z
x,-y,1/2+z
1/2+x,1/2+y,z
1/2-x,1/2+y,1/2-z
1/2-x,1/2-y,-z
1/2+x,1/2-y,1/2+z
loop_
_atom_site_type_symbol
_atom_site_label
_atom_site_fract_x
_atom_site_fract_y
_atom_site_fract_z
Si Si1 0.219416 0.012187 0.362704
Si Si2 0.115028 0.299775 0.174753
Si Si3 0.982489 0.773392 0.914536
Si Si4 0.966112 0.495745 0.175903
Si Si5 0.776398 0.406624 0.495788
Si Si6 0.420150 0.724644 0.630856
Si Si7 0.789452 0.681813 0.178644
Si Si8 0.607622 0.571770 0.314033
O O1 0.261243 0.115144 0.282627
O O2 0.153152 0.056293 0.371413
O O3 0.237451 0.010617 0.456930
O O4 0.229594 0.846623 0.327411
O O5 0.061985 0.232301 0.145114
O O6 0.093285 0.413282 0.261236
O O7 0.159087 0.383290 0.084363
O O8 0.138565 0.166443 0.219252
O O9 0.000992 0.608035 0.911761
O O10 0.043801 0.856560 0.866611
O O11 0.948649 0.826579 0.021281
O O12 0.960587 0.655259 0.148836
O O13 0.000000 0.493619 0.250000
O O14 0.750000 0.250000 0.500000
O O15 0.777272 0.423192 0.601794
O O16 0.359342 0.802681 0.644728
O O17 0.406591 0.590971 0.701425
#
# Coordination Sequence:
#
# PCOD9264639 Si02
#       8
#     8   8   8   8   8   8   8   8
#     4  10  21  37  59  86 119 151 196 241 293 356
#     4  10  19  38  60  82 108 153 203 235 280 357
#     4  10  20  37  58  83 112 153 198 236 285 360
#     4   9  20  34  56  80 113 152 191 233 293 351
#     4  10  19  35  61  85 108 151 197 235 283 355
#     4  11  20  35  56  86 118 143 193 249 298 341
#     4  10  21  38  61  86 114 154 197 242 294 347
#     4  10  21  34  54  84 117 150 188 241 301 346
#
# _framework density 20.055776000000002
#
# number of rings (size 3 to 8) (size 9 to 14) (size 15 to 20)
#    0.000    2.000    1.250    4.125    0.000    2.000 
#    0.000    0.625    2.750    0.000    0.000    0.000 
#    0.000    0.000    0.000    0.000    0.000    0.000 
#
# Total GULP energy -178259.923976 kJ/mol
# GULP energy per Si atom -5570.622624 kJ/mol
# Density = 2.001013 g / cm^3
# Si number density = 20.055776 Si / 1000 Ang^3
#
#
#
# Elastic Constant Matrix: (Units=GPa)
#
#
# Indices 1 2 3 4 5 6 
#
# 1 72.9882 20.4473 3.8980 0.0000 -2.4179 0.0000
# 2 20.4473 53.5976 8.0488 0.0000 21.5993 0.0000
# 3 3.8980 8.0488 31.0176 0.0000 1.6018 0.0000
# 4 0.0000 0.0000 0.0000 21.9547 0.0000 9.7197
# 5 -2.4179 21.5993 1.6018 0.0000 25.9349 0.0000
# 6 0.0000 0.0000 0.0000 9.7197 0.0000 21.6082
#
#
#
# Elastic Compliance Matrix: (Units=1/GPa)
#
#
# Indices 1 2 3 4 5 6 
#
# 1 0.017067 -0.010785 0.000108 0.000000 0.010567 0.000000
# 2 -0.010785 0.036098 -0.006428 0.000000 -0.030672 0.000000
# 3 0.000108 -0.006428 0.033725 0.000000 0.003280 0.000000
# 4 0.000000 0.000000 0.000000 0.056874 0.000000 -0.025583
# 5 0.010567 -0.030672 0.003280 0.000000 0.064885 0.000000
# 6 0.000000 0.000000 0.000000 -0.025583 0.000000 0.057786
#
#
# Mechanical properties :
#
#
# Convention : Reuss Voigt Hill
#
# Bulk Modulus (GPa) = 18.98278 24.71017 21.84648
# Shear Modulus (GPa) = 15.71322 22.24686 18.98004
#
# Velocity S-wave (km/s) = 2.80210 3.33415 3.07964
# Velocity P-wave (km/s) = 4.46705 5.21244 4.85408
#
# Compressibility (1/GPa) = 0.05267932
#
# Stress axis : x y z
#
# Youngs Moduli (GPa) = 58.59408 27.70260 29.65187
#
# Poissons Ratio (x) = 0.29878 -0.00321
# Poissons Ratio (y) = 0.63196 0.19059
# Poissons Ratio (z) = -0.00635 0.17807
#
# Static dielectric constant tensor:
#      x y z
#    x 1.789250 0.000000 -0.025010 
#    y 0.000000 1.757700 0.000000 
#    z -0.025010 0.000000 1.780880 
# 
# From -- ./inp_files/176570.got.cif
#   From: 2010.05.17/outbox.cif.g08.bks.cpg/sg15_89_cif.got.tgz:176570.got - 2010.06.03 18:47:42.
