data_PCOD9264536
_publ_section_title
;
Structure prediction by ZEFSAII (Michael W. Deem and Ramdas Pophale) SiO2 
 PCOD9264536
Probable space group: C 2/C
;
_chemical_formula_sum "Si O2"
_cell_formula_units_Z 44
_cell_length_a 7.364665
_cell_length_b 28.956333
_cell_length_c 9.009718
_cell_angle_alpha 90.000000
_cell_angle_beta 72.867614
_cell_angle_gamma 90.000000
_cell_volume 1836.098659
_symmetry_space_group_name_H-M "C 2/C"
_symmetry_group_IT_number 15
_symmetry_cell_setting 'monoclinic'
loop_
_space_group_symop_operation_xyz
x,y,z
-x,y,1/2-z
-x,-y,-z
x,-y,1/2+z
1/2+x,1/2+y,z
1/2-x,1/2+y,1/2-z
1/2-x,1/2-y,-z
1/2+x,1/2-y,1/2+z
loop_
_atom_site_type_symbol
_atom_site_label
_atom_site_fract_x
_atom_site_fract_y
_atom_site_fract_z
Si Si1 0.321146 0.163508 0.695246
Si Si2 0.267994 0.559527 0.818095
Si Si3 0.307083 0.476308 0.615277
Si Si4 0.505272 0.779104 0.926068
Si Si5 0.399624 0.312226 0.976895
Si Si6 0.000000 0.897595 0.750000
O O1 0.500000 0.179358 0.750000
O O2 0.316345 0.108801 0.694120
O O3 0.354595 0.183767 0.524882
O O4 0.150121 0.179552 0.838979
O O5 0.500000 0.564098 0.750000
O O6 0.213719 0.518722 0.721113
O O7 0.208332 0.544598 0.996564
O O8 0.500000 0.500000 0.500000
O O9 0.350060 0.434486 0.718904
O O10 0.500000 0.773841 0.750000
O O11 0.715925 0.796918 0.923498
O O12 0.472250 0.733449 0.036411
O O13 0.457873 0.361267 0.892729
#
# Coordination Sequence:
#
# PCOD9264536 Si02
#       6
#     8   8   8   8   8   4
#     4  10  23  44  66  90 131 169 211 259 322 383
#     4  10  20  37  64  93 125 161 210 262 318 368
#     4  10  19  35  59  94 127 158 206 267 310 366
#     4  10  24  44  63  92 128 168 214 262 317 387
#     4  10  24  40  65  91 130 170 208 265 318 371
#     4  12  22  36  68  98 128 164 216 258 316 372
#
# _framework density 23.963854000000001
#
# number of rings (size 3 to 8) (size 9 to 14) (size 15 to 20)
#    0.000    1.818    2.727    2.182    8.909    2.909 
#    0.000    0.909    0.000    0.000    0.000    0.000 
#    0.000    0.000    0.000    0.000    0.000    0.000 
#
# Total GULP energy -122880.205505 kJ/mol
# GULP energy per Si atom -5585.463887 kJ/mol
# Density = 2.390931 g / cm^3
# Si number density = 23.963854 Si / 1000 Ang^3
#
#
#
# Elastic Constant Matrix: (Units=GPa)
#
#
# Indices 1 2 3 4 5 6 
#
# 1 40.6529 28.1291 26.4723 0.0000 8.1550 0.0000
# 2 28.1291 184.8561 65.0208 0.0000 -4.6440 0.0000
# 3 26.4723 65.0208 152.5488 0.0000 13.3979 0.0000
# 4 0.0000 0.0000 0.0000 80.8439 0.0000 -14.8236
# 5 8.1550 -4.6440 13.3979 0.0000 20.9877 0.0000
# 6 0.0000 0.0000 0.0000 -14.8236 0.0000 55.1665
#
#
#
# Elastic Compliance Matrix: (Units=1/GPa)
#
#
# Indices 1 2 3 4 5 6 
#
# 1 0.031511 -0.004131 -0.002703 0.000000 -0.011432 0.000000
# 2 -0.004131 0.007132 -0.002757 0.000000 0.004944 0.000000
# 3 -0.002703 -0.002757 0.008646 0.000000 -0.005079 0.000000
# 4 0.000000 0.000000 0.000000 0.013011 0.000000 0.003496
# 5 -0.011432 0.004944 -0.005079 0.000000 0.056425 0.000000
# 6 0.000000 0.000000 0.000000 0.003496 0.000000 0.019066
#
#
# Mechanical properties :
#
#
# Convention : Reuss Voigt Hill
#
# Bulk Modulus (GPa) = 35.58075 68.58914 52.08494
# Shear Modulus (GPa) = 30.42430 48.62867 39.52649
#
# Velocity S-wave (km/s) = 3.56700 4.50961 4.06571
# Velocity P-wave (km/s) = 5.64310 7.46990 6.61982
#
# Compressibility (1/GPa) = 0.02810509
#
# Stress axis : x y z
#
# Youngs Moduli (GPa) = 31.73531 140.20771 115.66507
#
# Poissons Ratio (x) = 0.57924 0.31267
# Poissons Ratio (y) = 0.13111 0.31892
# Poissons Ratio (z) = 0.08579 0.38659
#
# Static dielectric constant tensor:
#      x y z
#    x 2.118810 0.000000 -0.063100 
#    y 0.000000 1.903440 0.000000 
#    z -0.063100 0.000000 1.954750 
# 
# From -- ./inp_files/25549.got.cif
#   From: 2010.05.17/outbox.cif.g08.bks.cpg/sg15_13_cif.got.tgz:25549.got - 2010.06.03 18:47:42.
