data_PCOD9264365
_publ_section_title
;
Structure prediction by ZEFSAII (Michael W. Deem and Ramdas Pophale) SiO2 
 PCOD9264365
Probable space group: C 2/C
;
_chemical_formula_sum "Si O2"
_cell_formula_units_Z 56
_cell_length_a 9.074770
_cell_length_b 21.082700
_cell_length_c 17.224832
_cell_angle_alpha 90.000000
_cell_angle_beta 59.758336
_cell_angle_gamma 90.000000
_cell_volume 2846.982145
_symmetry_space_group_name_H-M "C 2/C"
_symmetry_group_IT_number 15
_symmetry_cell_setting 'monoclinic'
loop_
_space_group_symop_operation_xyz
x,y,z
-x,y,1/2-z
-x,-y,-z
x,-y,1/2+z
1/2+x,1/2+y,z
1/2-x,1/2+y,1/2-z
1/2-x,1/2-y,-z
1/2+x,1/2-y,1/2+z
loop_
_atom_site_type_symbol
_atom_site_label
_atom_site_fract_x
_atom_site_fract_y
_atom_site_fract_z
Si Si1 0.518209 0.783617 0.118708
Si Si2 0.239842 0.610955 0.633528
Si Si3 0.836141 0.299880 0.587657
Si Si4 0.642212 0.710990 0.777603
Si Si5 0.312272 0.970173 0.789206
Si Si6 0.476306 0.558695 0.449248
Si Si7 0.817206 0.931799 0.833353
O O1 0.581035 0.848027 0.145017
O O2 0.652111 0.731096 0.113943
O O3 0.324952 0.769902 0.192683
O O4 0.548285 0.791944 0.019117
O O5 0.324465 0.645997 0.683945
O O6 0.194014 0.539308 0.668871
O O7 0.374554 0.610247 0.526078
O O8 0.903698 0.261680 0.643687
O O9 0.802541 0.372157 0.618850
O O10 0.500000 0.705183 0.750000
O O11 0.500000 0.943235 0.750000
O O12 0.164789 0.927090 0.867084
O O13 0.265179 0.975374 0.710832
O O14 0.500000 0.500000 0.500000
O O15 0.364396 0.539143 0.404191
O O16 0.000000 0.910086 0.750000
#
# Coordination Sequence:
#
# PCOD9264365 Si02
#       7
#     8   8   8   8   8   8   8
#     4  10  20  38  66  86 110 156 205 239 281 355
#     4  10  19  40  61  81 113 158 205 238 282 357
#     4  10  20  38  63  87 112 155 204 237 283 359
#     4  11  24  38  57  92 122 149 188 251 309 343
#     4  10  21  36  57  86 120 156 193 245 299 351
#     4   9  19  35  56  82 113 150 198 243 284 346
#     4  10  19  35  58  85 116 156 195 237 292 348
#
# _framework density 19.669951000000001
#
# number of rings (size 3 to 8) (size 9 to 14) (size 15 to 20)
#    0.000    2.000    1.429    3.429    0.000    4.000 
#    2.571    2.857    0.000    0.000    0.000    0.000 
#    0.000    0.000    0.000    0.000    0.000    0.000 
#
# Total GULP energy -156265.839649 kJ/mol
# GULP energy per Si atom -5580.922845 kJ/mol
# Density = 1.962518 g / cm^3
# Si number density = 19.669951 Si / 1000 Ang^3
#
#
#
# Elastic Constant Matrix: (Units=GPa)
#
#
# Indices 1 2 3 4 5 6 
#
# 1 95.0426 -4.2548 61.1195 0.0000 11.3129 0.0000
# 2 -4.2548 25.5864 12.8632 0.0000 1.3511 0.0000
# 3 61.1195 12.8632 136.0338 0.0000 16.6975 0.0000
# 4 0.0000 0.0000 0.0000 29.9480 0.0000 1.0054
# 5 11.3129 1.3511 16.6975 0.0000 23.9716 0.0000
# 6 0.0000 0.0000 0.0000 1.0054 0.0000 5.7866
#
#
#
# Elastic Compliance Matrix: (Units=1/GPa)
#
#
# Indices 1 2 3 4 5 6 
#
# 1 0.015918 0.006529 -0.007438 0.000000 -0.002699 0.000000
# 2 0.006529 0.043716 -0.006984 0.000000 -0.000681 0.000000
# 3 -0.007438 -0.006984 0.011891 0.000000 -0.004379 0.000000
# 4 0.000000 0.000000 0.000000 0.033587 0.000000 -0.005836
# 5 -0.002699 -0.000681 -0.004379 0.000000 0.046078 0.000000
# 6 0.000000 0.000000 0.000000 -0.005836 0.000000 0.173826
#
#
# Mechanical properties :
#
#
# Convention : Reuss Voigt Hill
#
# Bulk Modulus (GPa) = 17.94052 44.01318 30.97685
# Shear Modulus (GPa) = 13.91277 24.40357 19.15817
#
# Velocity S-wave (km/s) = 2.66242 3.52611 3.12425
# Velocity P-wave (km/s) = 4.31183 6.24519 5.36629
#
# Compressibility (1/GPa) = 0.05573976
#
# Stress axis : x y z
#
# Youngs Moduli (GPa) = 62.82005 22.87500 84.09801
#
# Poissons Ratio (x) = -0.14935 0.62554
# Poissons Ratio (y) = -0.41016 0.58731
# Poissons Ratio (z) = 0.46727 0.15975
#
# Static dielectric constant tensor:
#      x y z
#    x 1.670660 0.000000 -0.021210 
#    y 0.000000 1.688790 0.000000 
#    z -0.021210 0.000000 1.734920 
# 
# From -- ./inp_files/137283.got.cif
#   From: 2010.05.17/outbox.cif.g08.bks.cpg/sg15_69_cif.got.tgz:137283.got - 2010.06.03 18:47:42.
