data_PCOD9264968
_publ_section_title
;
Structure prediction by ZEFSAII (Michael W. Deem and Ramdas Pophale) SiO2 
 PCOD9264968
Probable space group: C 2/C
;
_chemical_formula_sum "Si O2"
_cell_formula_units_Z 48
_cell_length_a 12.255825
_cell_length_b 18.844407
_cell_length_c 14.778449
_cell_angle_alpha 90.000000
_cell_angle_beta 134.207123
_cell_angle_gamma 90.000000
_cell_volume 2446.619199
_symmetry_space_group_name_H-M "C 2/C"
_symmetry_group_IT_number 15
_symmetry_cell_setting 'monoclinic'
loop_
_space_group_symop_operation_xyz
x,y,z
-x,y,1/2-z
-x,-y,-z
x,-y,1/2+z
1/2+x,1/2+y,z
1/2-x,1/2+y,1/2-z
1/2-x,1/2-y,-z
1/2+x,1/2-y,1/2+z
loop_
_atom_site_type_symbol
_atom_site_label
_atom_site_fract_x
_atom_site_fract_y
_atom_site_fract_z
Si Si1 0.771320 0.793128 0.789445
Si Si2 0.303587 0.828418 0.558981
Si Si3 0.806441 0.977386 0.972973
Si Si4 0.628951 0.958512 0.520621
Si Si5 0.873183 0.050976 0.311172
Si Si6 0.012787 0.312804 0.515045
O O1 0.861329 0.863723 0.811190
O O2 0.653836 0.771120 0.642993
O O3 0.670231 0.816356 0.818774
O O4 0.892602 0.735038 0.891897
O O5 0.250000 0.750000 0.500000
O O6 0.186816 0.894669 0.492351
O O7 0.425341 0.846192 0.551673
O O8 0.665033 0.011900 0.942835
O O9 0.793537 0.977476 0.857018
O O10 0.957988 0.019976 0.087071
O O11 0.780744 0.969355 0.668759
O O12 0.581715 0.876254 0.496144
O O13 0.500000 0.000000 0.500000
#
# Coordination Sequence:
#
# PCOD9264968 Si02
#       6
#     8   8   8   8   8   8
#     4   9  19  35  57  79 118 153 197 238 296 346
#     4   9  17  32  53  82 113 145 188 241 295 341
#     4  10  19  38  58  85 113 156 197 232 298 354
#     4  11  21  36  58  87 120 154 190 244 300 346
#     4   9  21  38  59  84 119 154 194 246 289 350
#     4  10  19  36  55  85 116 154 192 247 291 355
#
# _framework density 19.618908999999999
#
# number of rings (size 3 to 8) (size 9 to 14) (size 15 to 20)
#    0.000    2.333    1.667    1.000    0.000    0.667 
#   12.000    5.833    0.000    0.000    0.000    0.000 
#    0.000    0.000    0.000    0.000    0.000    0.000 
#
# Total GULP energy -133683.711777 kJ/mol
# GULP energy per Si atom -5570.154657 kJ/mol
# Density = 1.957426 g / cm^3
# Si number density = 19.618909 Si / 1000 Ang^3
#
#
#
# Elastic Constant Matrix: (Units=GPa)
#
#
# Indices 1 2 3 4 5 6 
#
# 1 86.5142 29.2308 9.4827 0.0000 -9.6588 0.0000
# 2 29.2308 49.0213 19.5916 0.0000 -1.8625 0.0000
# 3 9.4827 19.5916 52.0444 0.0001 5.0519 0.0000
# 4 0.0000 0.0000 0.0001 22.7010 0.0000 7.2383
# 5 -9.6588 -1.8625 5.0519 0.0000 15.7688 0.0000
# 6 0.0000 0.0000 0.0000 7.2383 0.0000 29.0231
#
#
#
# Elastic Compliance Matrix: (Units=1/GPa)
#
#
# Indices 1 2 3 4 5 6 
#
# 1 0.015526 -0.008791 -0.000353 0.000000 0.008585 0.000000
# 2 -0.008791 0.029536 -0.009632 0.000000 0.001190 0.000000
# 3 -0.000353 -0.009632 0.023775 0.000000 -0.008971 0.000000
# 4 0.000000 0.000000 0.000000 0.047856 0.000000 -0.011935
# 5 0.008585 0.001190 -0.008971 0.000000 0.071689 0.000000
# 6 0.000000 0.000000 0.000000 -0.011935 0.000000 0.037432
#
#
# Mechanical properties :
#
#
# Convention : Reuss Voigt Hill
#
# Bulk Modulus (GPa) = 31.96391 33.79890 32.88140
# Shear Modulus (GPa) = 18.26178 22.11691 20.18934
#
# Velocity S-wave (km/s) = 3.05425 3.36121 3.21140
# Velocity P-wave (km/s) = 5.36337 5.68584 5.52696
#
# Compressibility (1/GPa) = 0.03128529
#
# Stress axis : x y z
#
# Youngs Moduli (GPa) = 64.40758 33.85704 42.06016
#
# Poissons Ratio (x) = 0.29763 0.01485
# Poissons Ratio (y) = 0.56619 0.40514
# Poissons Ratio (z) = 0.02274 0.32612
#
# Static dielectric constant tensor:
#      x y z
#    x 1.714930 0.000000 0.005880 
#    y 0.000000 1.684230 0.000000 
#    z 0.005880 0.000000 1.692370 
# 
# From -- ./inp_files/88411.got.cif
#   From: 2010.05.17/outbox.cif.g08.bks.cpg/sg15_45_cif.got.tgz:88411.got - 2010.06.03 18:47:42.
