data_PCOD9264038
_publ_section_title
;
Structure prediction by ZEFSAII (Michael W. Deem and Ramdas Pophale) SiO2 
 PCOD9264038
Probable space group: C 2/C
;
_chemical_formula_sum "Si O2"
_cell_formula_units_Z 48
_cell_length_a 11.565478
_cell_length_b 7.323220
_cell_length_c 25.127521
_cell_angle_alpha 90.000000
_cell_angle_beta 105.864019
_cell_angle_gamma 90.000000
_cell_volume 2047.157139
_symmetry_space_group_name_H-M "C 2/C"
_symmetry_group_IT_number 15
_symmetry_cell_setting 'monoclinic'
loop_
_space_group_symop_operation_xyz
x,y,z
-x,y,1/2-z
-x,-y,-z
x,-y,1/2+z
1/2+x,1/2+y,z
1/2-x,1/2+y,1/2-z
1/2-x,1/2-y,-z
1/2+x,1/2-y,1/2+z
loop_
_atom_site_type_symbol
_atom_site_label
_atom_site_fract_x
_atom_site_fract_y
_atom_site_fract_z
Si Si1 0.017612 0.731677 0.527838
Si Si2 0.949237 0.914521 0.074630
Si Si3 0.117625 0.613201 0.729984
Si Si4 0.269048 0.808979 0.828704
Si Si5 0.312321 0.912559 0.944207
Si Si6 0.993197 0.008841 0.191743
O O1 0.099882 0.577349 0.562566
O O2 0.026465 0.919589 0.559792
O O3 0.879181 0.670058 0.503935
O O4 0.054963 0.760942 0.470823
O O5 0.814935 0.995803 0.061446
O O6 0.996372 0.882899 0.140322
O O7 0.232057 0.647555 0.783604
O O8 0.151652 0.459909 0.691813
O O9 0.000000 0.562589 0.750000
O O10 0.081255 0.813562 0.701352
O O11 0.308385 0.772038 0.894381
O O12 0.139245 0.903161 0.823103
O O13 0.000000 0.913638 0.250000
#
# Coordination Sequence:
#
# PCOD9264038 Si02
#       6
#     8   8   8   8   8   8
#     4  10  21  33  53  77 101 135 173 209 251 299
#     4  10  19  35  54  75 102 135 171 209 251 300
#     4   9  18  34  51  74 101 132 170 208 250 302
#     4   9  18  33  54  73 102 137 167 209 256 299
#     4  10  20  35  51  75 105 132 167 213 256 297
#     4   8  17  32  53  74 100 132 164 205 252 297
#
# _framework density 23.447150000000001
#
# number of rings (size 3 to 8) (size 9 to 14) (size 15 to 20)
#    0.000    3.000    0.000    2.000    0.000    2.667 
#    0.000    6.667    0.000    0.000    0.000    0.000 
#    0.000    0.000    0.000    0.000    0.000    0.000 
#
# Total GULP energy -133931.734871 kJ/mol
# GULP energy per Si atom -5580.488953 kJ/mol
# Density = 2.339378 g / cm^3
# Si number density = 23.447150 Si / 1000 Ang^3
#
#
#
# Elastic Constant Matrix: (Units=GPa)
#
#
# Indices 1 2 3 4 5 6 
#
# 1 58.7544 25.2119 13.1618 0.0000 2.3858 0.0000
# 2 25.2119 64.8664 14.6555 0.0000 -2.2673 0.0000
# 3 13.1618 14.6555 106.9633 0.0000 11.6896 0.0000
# 4 0.0000 0.0000 0.0000 30.9323 0.0000 -3.2813
# 5 2.3858 -2.2673 11.6896 0.0000 9.6326 0.0000
# 6 0.0000 0.0000 0.0000 -3.2813 0.0000 17.6472
#
#
#
# Elastic Compliance Matrix: (Units=1/GPa)
#
#
# Indices 1 2 3 4 5 6 
#
# 1 0.020958 -0.008184 -0.000784 0.000000 -0.006166 0.000000
# 2 -0.008184 0.019572 -0.002766 0.000000 0.009991 0.000000
# 3 -0.000784 -0.002766 0.011384 0.000000 -0.014272 0.000000
# 4 0.000000 0.000000 0.000000 0.032979 0.000000 0.006132
# 5 -0.006166 0.009991 -0.014272 0.000000 0.125013 0.000000
# 6 0.000000 0.000000 0.000000 0.006132 0.000000 0.057806
#
#
# Mechanical properties :
#
#
# Convention : Reuss Voigt Hill
#
# Bulk Modulus (GPa) = 35.15539 37.40471 36.28005
# Shear Modulus (GPa) = 16.62998 23.47943 20.05470
#
# Velocity S-wave (km/s) = 2.66607 3.16789 2.92775
# Velocity P-wave (km/s) = 4.95008 5.41923 5.18996
#
# Compressibility (1/GPa) = 0.02844514
#
# Stress axis : x y z
#
# Youngs Moduli (GPa) = 47.71489 51.09463 87.84077
#
# Poissons Ratio (x) = 0.41817 0.06883
# Poissons Ratio (y) = 0.39051 0.24300
# Poissons Ratio (z) = 0.03739 0.14135
#
# Static dielectric constant tensor:
#      x y z
#    x 1.930850 0.000000 0.039690 
#    y 0.000000 1.855100 0.000000 
#    z 0.039690 0.000000 1.954610 
# 
# From -- ./inp_files/267814.got.cif
#   From: 2010.05.17/outbox.cif.g08.bks.cpg/sg15_134_cif.got.tgz:267814.got - 2010.06.03 18:47:42.
