data_PCOD9264493
_publ_section_title
;
Structure prediction by ZEFSAII (Michael W. Deem and Ramdas Pophale) SiO2 
 PCOD9264493
Probable space group: C 2/C
;
_chemical_formula_sum "Si O2"
_cell_formula_units_Z 60
_cell_length_a 11.232820
_cell_length_b 25.361714
_cell_length_c 20.333466
_cell_angle_alpha 90.000000
_cell_angle_beta 149.225676
_cell_angle_gamma 90.000000
_cell_volume 2963.865472
_symmetry_space_group_name_H-M "C 2/C"
_symmetry_group_IT_number 15
_symmetry_cell_setting 'monoclinic'
loop_
_space_group_symop_operation_xyz
x,y,z
-x,y,1/2-z
-x,-y,-z
x,-y,1/2+z
1/2+x,1/2+y,z
1/2-x,1/2+y,1/2-z
1/2-x,1/2-y,-z
1/2+x,1/2-y,1/2+z
loop_
_atom_site_type_symbol
_atom_site_label
_atom_site_fract_x
_atom_site_fract_y
_atom_site_fract_z
Si Si1 0.000000 0.265675 0.750000
Si Si2 0.467255 0.798357 0.483860
Si Si3 0.281028 0.166293 0.264988
Si Si4 0.165055 0.196282 0.517142
Si Si5 0.957184 0.631334 0.858938
Si Si6 0.541313 0.388765 0.066546
Si Si7 0.807852 0.457978 0.100845
Si Si8 0.441999 0.925120 0.645524
O O1 0.783222 0.229504 0.624050
O O2 0.904214 0.302464 0.763024
O O3 0.607611 0.812266 0.615647
O O4 0.617776 0.755922 0.514033
O O5 0.430601 0.849252 0.420178
O O6 0.345703 0.104199 0.289208
O O7 0.009462 0.178379 0.124208
O O8 0.428335 0.180106 0.626718
O O9 0.086254 0.161364 0.542187
O O10 0.138870 0.584624 0.930046
O O11 0.721644 0.613436 0.711833
O O12 0.582641 0.438698 0.035895
O O13 0.284382 0.389593 0.972490
O O14 0.854799 0.515214 0.092577
O O15 0.000000 0.451431 0.250000
O O16 0.500000 0.923999 0.750000
#
# Coordination Sequence:
#
# PCOD9264493 Si02
#       8
#     4   8   8   8   8   8   8   8
#     4  10  22  40  56  86 118 150 190 238 282 334
#     4  11  24  36  60  83 118 160 185 233 284 345
#     4  11  22  38  57  88 112 149 196 236 281 339
#     4  10  21  39  57  83 116 153 190 237 277 331
#     4  10  22  40  55  86 118 150 191 232 283 347
#     4  10  19  35  59  87 116 143 189 241 286 337
#     4   8  18  34  57  86 113 146 188 241 286 332
#     4  11  18  34  60  87 113 146 190 242 292 326
#
# _framework density 20.243835000000001
#
# number of rings (size 3 to 8) (size 9 to 14) (size 15 to 20)
#    0.000    1.867    2.000    3.200    5.600    0.533 
#    2.400    0.667    0.000    0.000    6.933    0.000 
#    0.000    0.000    0.000    0.000    0.000    0.000 
#
# Total GULP energy -167362.348516 kJ/mol
# GULP energy per Si atom -5578.744951 kJ/mol
# Density = 2.019776 g / cm^3
# Si number density = 20.243835 Si / 1000 Ang^3
#
#
#
# Elastic Constant Matrix: (Units=GPa)
#
#
# Indices 1 2 3 4 5 6 
#
# 1 23.5358 11.0091 15.1994 0.0059 1.9852 0.0026
# 2 11.0091 77.2867 9.2191 -0.0010 -16.9463 -0.0008
# 3 15.1994 9.2191 89.1760 0.0168 -9.0996 0.0053
# 4 0.0059 -0.0010 0.0168 24.5856 0.0066 0.8857
# 5 1.9852 -16.9463 -9.0996 0.0066 29.0166 0.0032
# 6 0.0026 -0.0008 0.0053 0.8857 0.0032 6.0085
#
#
#
# Elastic Compliance Matrix: (Units=1/GPa)
#
#
# Indices 1 2 3 4 5 6 
#
# 1 0.053913 -0.009187 -0.009466 -0.000003 -0.012022 -0.000009
# 2 -0.009187 0.016443 0.000940 -0.000001 0.010527 0.000000
# 3 -0.009466 0.000940 0.013277 -0.000008 0.005360 -0.000009
# 4 -0.000003 -0.000001 -0.000008 0.040891 -0.000011 -0.006028
# 5 -0.012022 0.010527 0.005360 -0.000011 0.043114 -0.000019
# 6 -0.000009 0.000000 -0.000009 -0.006028 -0.000019 0.167320
#
#
# Mechanical properties :
#
#
# Convention : Reuss Voigt Hill
#
# Bulk Modulus (GPa) = 20.74344 28.98374 24.86359
# Shear Modulus (GPa) = 12.93816 22.22686 17.58251
#
# Velocity S-wave (km/s) = 2.53082 3.31714 2.95029
# Velocity P-wave (km/s) = 4.33694 5.38698 4.89023
#
# Compressibility (1/GPa) = 0.04820802
#
# Stress axis : x y z
#
# Youngs Moduli (GPa) = 18.54844 60.81468 75.31826
#
# Poissons Ratio (x) = 0.55867 0.71297
# Poissons Ratio (y) = 0.17040 -0.07080
# Poissons Ratio (z) = 0.17558 -0.05716
#
# Static dielectric constant tensor:
#      x y z
#    x 1.739300 0.000000 0.040750 
#    y 0.000000 1.780400 0.000000 
#    z 0.040750 0.000000 1.713800 
# 
# From -- ./inp_files/201285.got.cif
#   From: 2010.05.17/outbox.cif.g08.bks.cpg/sg15_101_cif.got.tgz:201285.got - 2010.06.03 18:47:42.
