data_PCOD9264865
_publ_section_title
;
Structure prediction by ZEFSAII (Michael W. Deem and Ramdas Pophale) SiO2 
 PCOD9264865
Probable space group: C 2/C
;
_chemical_formula_sum "Si O2"
_cell_formula_units_Z 52
_cell_length_a 15.235679
_cell_length_b 11.036619
_cell_length_c 24.899947
_cell_angle_alpha 90.000000
_cell_angle_beta 35.445079
_cell_angle_gamma 90.000000
_cell_volume 2428.097427
_symmetry_space_group_name_H-M "C 2/C"
_symmetry_group_IT_number 15
_symmetry_cell_setting 'monoclinic'
loop_
_space_group_symop_operation_xyz
x,y,z
-x,y,1/2-z
-x,-y,-z
x,-y,1/2+z
1/2+x,1/2+y,z
1/2-x,1/2+y,1/2-z
1/2-x,1/2-y,-z
1/2+x,1/2-y,1/2+z
loop_
_atom_site_type_symbol
_atom_site_label
_atom_site_fract_x
_atom_site_fract_y
_atom_site_fract_z
Si Si1 0.903629 0.105325 0.899356
Si Si2 0.000000 0.762550 0.250000
Si Si3 0.745521 0.564252 0.355618
Si Si4 0.059886 0.681170 0.041924
Si Si5 0.478073 0.766108 0.062062
Si Si6 0.944069 0.458256 0.164407
Si Si7 0.711464 0.404103 0.475488
O O1 0.954288 0.186733 0.924653
O O2 0.003680 0.150407 0.799796
O O3 0.733611 0.143113 0.966122
O O4 0.882639 0.968662 0.929688
O O5 0.859262 0.669215 0.321025
O O6 0.613648 0.640983 0.394191
O O7 0.689933 0.483178 0.432229
O O8 0.833487 0.481671 0.268969
O O9 0.962194 0.585519 0.124192
O O10 0.023305 0.681480 0.997399
O O11 0.402280 0.857512 0.141601
O O12 0.646530 0.728699 0.996562
O O13 0.110367 0.419395 0.102289
#
# Coordination Sequence:
#
# PCOD9264865 Si02
#       7
#     8   4   8   8   8   8   8
#     4  10  19  35  66  92 119 160 215 254 311 363
#     4  12  18  38  68  92 122 164 216 272 300 362
#     4  12  22  39  66  93 120 168 220 260 304 374
#     4  10  19  38  61  92 123 162 208 259 304 374
#     4  12  25  39  64  96 127 165 214 260 314 380
#     4  11  24  42  64  94 131 167 206 262 324 367
#     4  11  23  43  65  90 131 174 205 252 322 389
#
# _framework density 21.415945000000001
#
# number of rings (size 3 to 8) (size 9 to 14) (size 15 to 20)
#    0.000    0.923    6.154    2.308    0.000    2.462 
#    0.000    0.000    6.769    0.000    0.000    0.000 
#    0.000    0.000    0.000    0.000    0.000    0.000 
#
# Total GULP energy -145338.407605 kJ/mol
# GULP energy per Si atom -5589.938754 kJ/mol
# Density = 2.136720 g / cm^3
# Si number density = 21.415945 Si / 1000 Ang^3
#
#
#
# Elastic Constant Matrix: (Units=GPa)
#
#
# Indices 1 2 3 4 5 6 
#
# 1 76.9873 21.7798 15.7045 0.0000 16.8525 0.0000
# 2 21.7798 35.7675 36.4603 0.0000 20.1366 0.0000
# 3 15.7045 36.4603 65.6639 -0.0001 20.5430 0.0000
# 4 0.0000 0.0000 -0.0001 21.3256 0.0000 -1.0314
# 5 16.8525 20.1366 20.5430 0.0000 35.1794 0.0000
# 6 0.0000 0.0000 0.0000 -1.0314 0.0000 20.6715
#
#
#
# Elastic Compliance Matrix: (Units=1/GPa)
#
#
# Indices 1 2 3 4 5 6 
#
# 1 0.016298 -0.011945 0.003717 0.000000 -0.003141 0.000000
# 2 -0.011945 0.086443 -0.038482 0.000000 -0.021286 0.000000
# 3 0.003717 -0.038482 0.035939 0.000000 -0.000741 0.000000
# 4 0.000000 0.000000 0.000000 0.047005 0.000000 0.002345
# 5 -0.003141 -0.021286 -0.000741 0.000000 0.042547 0.000000
# 6 0.000000 0.000000 0.000000 0.002345 0.000000 0.048493
#
#
# Mechanical properties :
#
#
# Convention : Reuss Voigt Hill
#
# Bulk Modulus (GPa) = 22.09454 36.25642 29.17548
# Shear Modulus (GPa) = 12.97927 22.40025 17.68976
#
# Velocity S-wave (km/s) = 2.46449 3.23764 2.87715
# Velocity P-wave (km/s) = 4.29390 5.56263 4.96892
#
# Compressibility (1/GPa) = 0.04526004
#
# Stress axis : x y z
#
# Youngs Moduli (GPa) = 61.35839 11.56836 27.82511
#
# Poissons Ratio (x) = 0.13819 -0.10344
# Poissons Ratio (y) = 0.73296 1.07075
# Poissons Ratio (z) = -0.22810 0.44517
#
# Static dielectric constant tensor:
#      x y z
#    x 1.830840 0.000000 -0.038250 
#    y 0.000000 1.770320 0.000000 
#    z -0.038250 0.000000 1.766590 
# 
# From -- ./inp_files/243793.got.cif
#   From: 2010.05.17/outbox.cif.g08.bks.cpg/sg15_122_cif.got.tgz:243793.got - 2010.06.03 18:47:42.
