data_PCOD9264319
_publ_section_title
;
Structure prediction by ZEFSAII (Michael W. Deem and Ramdas Pophale) SiO2 
 PCOD9264319
Probable space group: C 2/C
;
_chemical_formula_sum "Si O2"
_cell_formula_units_Z 32
_cell_length_a 14.904993
_cell_length_b 8.207121
_cell_length_c 11.363273
_cell_angle_alpha 90.000000
_cell_angle_beta 110.600399
_cell_angle_gamma 90.000000
_cell_volume 1301.153063
_symmetry_space_group_name_H-M "C 2/C"
_symmetry_group_IT_number 15
_symmetry_cell_setting 'monoclinic'
loop_
_space_group_symop_operation_xyz
x,y,z
-x,y,1/2-z
-x,-y,-z
x,-y,1/2+z
1/2+x,1/2+y,z
1/2-x,1/2+y,1/2-z
1/2-x,1/2-y,-z
1/2+x,1/2-y,1/2+z
loop_
_atom_site_type_symbol
_atom_site_label
_atom_site_fract_x
_atom_site_fract_y
_atom_site_fract_z
Si Si1 0.726171 0.704495 0.622947
Si Si2 0.171197 0.122832 0.003347
Si Si3 0.403187 0.389943 0.745671
Si Si4 0.974177 0.778155 0.370759
O O1 0.750000 0.750000 0.500000
O O2 0.714956 0.509370 0.613206
O O3 0.818107 0.766677 0.736451
O O4 0.625244 0.783162 0.618916
O O5 0.073568 0.222768 0.987492
O O6 0.141044 0.009570 0.876885
O O7 0.250000 0.250000 0.000000
O O8 0.500000 0.297131 0.750000
O O9 0.448917 0.529141 0.848709
O O10 0.000000 0.718516 0.250000
#
# Coordination Sequence:
#
# PCOD9264319 Si02
#       4
#     8   8   8   8
#     4  10  19  35  58  81 106 143 186 224 270 330
#     4   9  18  34  56  80 107 140 177 223 273 324
#     4   8  18  36  53  76 107 143 180 220 274 325
#     4   9  19  35  54  77 109 146 180 223 276 321
#
# _framework density 24.593571000000001
#
# number of rings (size 3 to 8) (size 9 to 14) (size 15 to 20)
#    0.000    3.500    0.000    0.750    0.000    4.000 
#    0.000   12.500    0.000    0.000    0.000    0.000 
#    0.000    0.000    0.000    0.000    0.000    0.000 
#
# Total GULP energy -89091.723331 kJ/mol
# GULP energy per Si atom -5568.232708 kJ/mol
# Density = 2.453759 g / cm^3
# Si number density = 24.593571 Si / 1000 Ang^3
#
#
#
# Elastic Constant Matrix: (Units=GPa)
#
#
# Indices 1 2 3 4 5 6 
#
# 1 262.0504 52.0288 54.0152 0.0000 40.7549 0.0000
# 2 52.0288 50.1843 28.2602 0.0000 24.0443 0.0000
# 3 54.0152 28.2602 94.7635 0.0000 28.4431 0.0000
# 4 0.0000 0.0000 0.0000 36.9330 0.0000 8.2816
# 5 40.7549 24.0443 28.4431 0.0000 59.0066 0.0000
# 6 0.0000 0.0000 0.0000 8.2816 0.0000 40.1613
#
#
#
# Elastic Compliance Matrix: (Units=1/GPa)
#
#
# Indices 1 2 3 4 5 6 
#
# 1 0.005061 -0.003883 -0.001348 0.000000 -0.001264 0.000000
# 2 -0.003883 0.030036 -0.004531 0.000000 -0.007373 0.000000
# 3 -0.001348 -0.004531 0.013841 0.000000 -0.003895 0.000000
# 4 0.000000 0.000000 0.000000 0.028389 0.000000 -0.005854
# 5 -0.001264 -0.007373 -0.003895 0.000000 0.022702 0.000000
# 6 0.000000 0.000000 0.000000 -0.005854 0.000000 0.026107
#
#
# Mechanical properties :
#
#
# Convention : Reuss Voigt Hill
#
# Bulk Modulus (GPa) = 33.99551 75.06738 54.53145
# Shear Modulus (GPa) = 32.16164 45.39979 38.78071
#
# Velocity S-wave (km/s) = 3.62017 4.30117 3.97528
# Velocity P-wave (km/s) = 5.59706 7.43345 6.57964
#
# Compressibility (1/GPa) = 0.02941565
#
# Stress axis : x y z
#
# Youngs Moduli (GPa) = 197.57592 33.29287 72.24933
#
# Poissons Ratio (x) = 0.12927 0.09737
# Poissons Ratio (y) = 0.76716 0.32736
# Poissons Ratio (z) = 0.26626 0.15085
#
# Static dielectric constant tensor:
#      x y z
#    x 2.259250 0.000000 -0.166130 
#    y 0.000000 1.946170 0.000000 
#    z -0.166130 0.000000 2.322790 
# 
# From -- ./inp_files/150450.got.cif
#   From: 2010.05.17/outbox.cif.g08.bks.cpg/sg15_76_cif.got.tgz:150450.got - 2010.06.03 18:47:42.
