data_PCOD9264908
_publ_section_title
;
Structure prediction by ZEFSAII (Michael W. Deem and Ramdas Pophale) SiO2 
 PCOD9264908
Probable space group: C 2/C
;
_chemical_formula_sum "Si O2"
_cell_formula_units_Z 60
_cell_length_a 18.452275
_cell_length_b 9.809156
_cell_length_c 26.335470
_cell_angle_alpha 90.000000
_cell_angle_beta 150.367627
_cell_angle_gamma 90.000000
_cell_volume 2356.840217
_symmetry_space_group_name_H-M "C 2/C"
_symmetry_group_IT_number 15
_symmetry_cell_setting 'monoclinic'
loop_
_space_group_symop_operation_xyz
x,y,z
-x,y,1/2-z
-x,-y,-z
x,-y,1/2+z
1/2+x,1/2+y,z
1/2-x,1/2+y,1/2-z
1/2-x,1/2-y,-z
1/2+x,1/2-y,1/2+z
loop_
_atom_site_type_symbol
_atom_site_label
_atom_site_fract_x
_atom_site_fract_y
_atom_site_fract_z
Si Si1 0.829397 0.478172 0.278915
Si Si2 0.000000 0.498399 0.750000
Si Si3 0.097106 0.218284 0.963050
Si Si4 0.673769 0.963468 0.106358
Si Si5 0.633286 0.225536 0.256127
Si Si6 0.321061 0.973017 0.996398
Si Si7 0.592801 0.639435 0.561704
Si Si8 0.787352 0.085385 0.967124
O O1 0.779697 0.473467 0.306845
O O2 0.791119 0.633670 0.240507
O O3 0.742059 0.390728 0.183977
O O4 0.004259 0.446169 0.387551
O O5 0.936572 0.392886 0.752417
O O6 0.878297 0.593550 0.652124
O O7 0.992810 0.195159 0.850439
O O8 0.994253 0.233406 0.950992
O O9 0.177636 0.360065 0.998795
O O10 0.180063 0.076792 0.021008
O O11 0.752774 0.817091 0.144851
O O12 0.727057 0.051513 0.090918
O O13 0.500000 0.000000 0.000000
O O14 0.219530 0.901382 0.976320
O O15 0.500000 0.500000 0.500000
O O16 0.619182 0.668841 0.517685
#
# Coordination Sequence:
#
# PCOD9264908 Si02
#       8
#     8   4   8   8   8   8   8   8
#     4  10  19  36  52  80 115 153 195 239 294 357
#     4  12  20  30  54  88 120 152 184 248 312 376
#     4  10  20  32  50  79 118 151 193 233 292 365
#     4  10  22  37  56  82 122 155 200 244 300 367
#     4  11  21  33  56  83 120 151 188 243 303 356
#     4  10  20  33  54  80 111 152 191 244 301 353
#     4  10  20  32  49  73 118 152 194 231 283 367
#     4  11  19  32  49  78 118 155 183 235 300 362
#
# _framework density 25.457815
#
# number of rings (size 3 to 8) (size 9 to 14) (size 15 to 20)
#    0.000    1.600    5.333    1.200    3.733    0.000 
#    0.000    0.000    0.000    0.000    0.000   14.933 
#   32.000    0.000    0.000    0.000    0.000    0.000 
#
# Total GULP energy -167263.012742 kJ/mol
# GULP energy per Si atom -5575.433758 kJ/mol
# Density = 2.539987 g / cm^3
# Si number density = 25.457815 Si / 1000 Ang^3
#
#
#
# Elastic Constant Matrix: (Units=GPa)
#
#
# Indices 1 2 3 4 5 6 
#
# 1 191.9115 -2.5580 11.8459 0.0000 -33.5795 0.0000
# 2 -2.5580 69.8833 -9.0371 0.0000 8.9935 0.0000
# 3 11.8459 -9.0371 68.9610 0.0001 -16.3168 0.0001
# 4 0.0000 0.0000 0.0001 22.4112 0.0000 2.4005
# 5 -33.5795 8.9935 -16.3168 0.0000 32.8476 0.0000
# 6 0.0000 0.0000 0.0001 2.4005 0.0000 10.9196
#
#
#
# Elastic Compliance Matrix: (Units=1/GPa)
#
#
# Indices 1 2 3 4 5 6 
#
# 1 0.006385 -0.000597 0.000462 0.000000 0.006921 0.000000
# 2 -0.000597 0.014964 0.001076 0.000000 -0.004173 0.000000
# 3 0.000462 0.001076 0.016550 0.000000 0.008399 0.000000
# 4 0.000000 0.000000 0.000000 0.045697 0.000000 -0.010046
# 5 0.006921 -0.004173 0.008399 0.000000 0.042833 0.000000
# 6 0.000000 0.000000 0.000000 -0.010046 0.000000 0.093787
#
#
# Mechanical properties :
#
#
# Convention : Reuss Voigt Hill
#
# Bulk Modulus (GPa) = 25.13706 36.80637 30.97172
# Shear Modulus (GPa) = 21.58961 35.26935 28.42948
#
# Velocity S-wave (km/s) = 2.91530 3.72614 3.34537
# Velocity P-wave (km/s) = 4.60732 5.74468 5.20714
#
# Compressibility (1/GPa) = 0.03978189
#
# Stress axis : x y z
#
# Youngs Moduli (GPa) = 156.61320 66.82743 60.42353
#
# Poissons Ratio (x) = 0.03990 -0.02794
# Poissons Ratio (y) = 0.09352 -0.06503
# Poissons Ratio (z) = -0.07242 -0.07192
#
# Static dielectric constant tensor:
#      x y z
#    x 2.175820 0.000000 0.006580 
#    y 0.000000 2.073980 0.000000 
#    z 0.006580 0.000000 2.007390 
# 
# From -- ./inp_files/299107.got.cif
#   From: 2010.05.17/outbox.cif.g08.bks.cpg/sg15_150_cif.got.tgz:299107.got - 2010.06.03 18:47:42.
