data_PCOD9264499
_publ_section_title
;
Structure prediction by ZEFSAII (Michael W. Deem and Ramdas Pophale) SiO2 
 PCOD9264499
Probable space group: C 2/C
;
_chemical_formula_sum "Si O2"
_cell_formula_units_Z 40
_cell_length_a 14.144183
_cell_length_b 27.119896
_cell_length_c 8.346597
_cell_angle_alpha 90.000000
_cell_angle_beta 34.533979
_cell_angle_gamma 90.000000
_cell_volume 1815.005173
_symmetry_space_group_name_H-M "C 2/C"
_symmetry_group_IT_number 15
_symmetry_cell_setting 'monoclinic'
loop_
_space_group_symop_operation_xyz
x,y,z
-x,y,1/2-z
-x,-y,-z
x,-y,1/2+z
1/2+x,1/2+y,z
1/2-x,1/2+y,1/2-z
1/2-x,1/2-y,-z
1/2+x,1/2-y,1/2+z
loop_
_atom_site_type_symbol
_atom_site_label
_atom_site_fract_x
_atom_site_fract_y
_atom_site_fract_z
Si Si1 0.268431 0.708540 0.337294
Si Si2 0.816557 0.479251 0.278479
Si Si3 0.368370 0.601782 0.286720
Si Si4 0.111160 0.044497 0.774066
Si Si5 0.926225 0.729705 0.197686
O O1 0.250000 0.750000 0.500000
O O2 0.290759 0.655234 0.382493
O O3 0.121588 0.706874 0.408648
O O4 0.442069 0.726410 0.014831
O O5 0.772960 0.439357 0.478393
O O6 0.695327 0.525080 0.495348
O O7 0.761562 0.452876 0.191571
O O8 0.000000 0.500000 0.000000
O O9 0.500000 0.598212 0.250000
O O10 0.487989 0.590436 0.967344
O O11 0.000000 0.000000 0.000000
O O12 0.750000 0.750000 0.500000
O O13 0.000000 0.700351 0.250000
#
# Coordination Sequence:
#
# PCOD9264499 Si02
#       5
#     8   8   8   8   8
#     4  11  20  37  63  88 119 165 211 252 296 358
#     4  10  19  35  59  88 117 146 191 253 305 351
#     4   9  19  35  57  86 119 159 205 244 297 373
#     4   9  18  35  56  79 113 153 190 233 294 366
#     4   9  20  38  59  85 120 163 202 250 310 358
#
# _framework density 22.038506000000002
#
# number of rings (size 3 to 8) (size 9 to 14) (size 15 to 20)
#    0.000    2.400    0.000    4.200    0.000    0.000 
#    0.000   22.000    0.000    4.800    0.000    0.000 
#    0.000    0.000    0.000    0.000    0.000    0.000 
#
# Total GULP energy -111415.770417 kJ/mol
# GULP energy per Si atom -5570.788521 kJ/mol
# Density = 2.198835 g / cm^3
# Si number density = 22.038506 Si / 1000 Ang^3
#
#
#
# Elastic Constant Matrix: (Units=GPa)
#
#
# Indices 1 2 3 4 5 6 
#
# 1 120.6656 31.5872 50.3518 0.0000 -0.6362 0.0000
# 2 31.5872 111.7418 47.3752 0.0000 -5.0626 0.0000
# 3 50.3518 47.3752 126.9988 0.0000 -6.7921 0.0000
# 4 0.0000 0.0000 0.0000 23.1768 0.0000 -6.5468
# 5 -0.6362 -5.0626 -6.7921 0.0000 34.6875 0.0000
# 6 0.0000 0.0000 0.0000 -6.5468 0.0000 25.2482
#
#
#
# Elastic Compliance Matrix: (Units=1/GPa)
#
#
# Indices 1 2 3 4 5 6 
#
# 1 0.010122 -0.001397 -0.003530 0.000000 -0.000709 0.000000
# 2 -0.001397 0.010844 -0.003444 0.000000 0.000883 0.000000
# 3 -0.003530 -0.003444 0.010640 0.000000 0.001516 0.000000
# 4 0.000000 0.000000 0.000000 0.046557 0.000000 0.012072
# 5 -0.000709 0.000883 0.001516 0.000000 0.029241 0.000000
# 6 0.000000 0.000000 0.000000 0.012072 0.000000 0.042737
#
#
# Mechanical properties :
#
#
# Convention : Reuss Voigt Hill
#
# Bulk Modulus (GPa) = 67.27787 68.67052 67.97420
# Shear Modulus (GPa) = 29.09706 31.96196 30.52951
#
# Velocity S-wave (km/s) = 3.63751 3.81238 3.72597
# Velocity P-wave (km/s) = 6.94519 7.11379 7.03000
#
# Compressibility (1/GPa) = 0.01486373
#
# Stress axis : x y z
#
# Youngs Moduli (GPa) = 98.79130 92.21393 93.98833
#
# Poissons Ratio (x) = 0.12881 0.33179
# Poissons Ratio (y) = 0.13800 0.32372
# Poissons Ratio (z) = 0.34874 0.31761
#
# Static dielectric constant tensor:
#      x y z
#    x 2.002470 0.000000 0.070630 
#    y 0.000000 1.778260 0.000000 
#    z 0.070630 0.000000 1.843490 
# 
# From -- ./inp_files/44725.got.cif
#   From: 2010.05.17/outbox.cif.g08.bks.cpg/sg15_23_cif.got.tgz:44725.got - 2010.06.03 18:47:42.
