data_PCOD9264275
_publ_section_title
;
Structure prediction by ZEFSAII (Michael W. Deem and Ramdas Pophale) SiO2 
 PCOD9264275
Probable space group: C 2/C
;
_chemical_formula_sum "Si O2"
_cell_formula_units_Z 48
_cell_length_a 17.352323
_cell_length_b 7.273270
_cell_length_c 16.912715
_cell_angle_alpha 90.000000
_cell_angle_beta 111.264910
_cell_angle_gamma 90.000000
_cell_volume 1989.190042
_symmetry_space_group_name_H-M "C 2/C"
_symmetry_group_IT_number 15
_symmetry_cell_setting 'monoclinic'
loop_
_space_group_symop_operation_xyz
x,y,z
-x,y,1/2-z
-x,-y,-z
x,-y,1/2+z
1/2+x,1/2+y,z
1/2-x,1/2+y,1/2-z
1/2-x,1/2-y,-z
1/2+x,1/2-y,1/2+z
loop_
_atom_site_type_symbol
_atom_site_label
_atom_site_fract_x
_atom_site_fract_y
_atom_site_fract_z
Si Si1 0.843685 0.700548 0.559367
Si Si2 0.653739 0.363705 0.768579
Si Si3 0.376517 0.432517 0.030719
Si Si4 0.331887 0.024447 0.293241
Si Si5 0.710062 0.834406 0.896644
Si Si6 0.964512 0.800854 0.324917
O O1 0.750000 0.750000 0.500000
O O2 0.869494 0.774374 0.655812
O O3 0.839556 0.481179 0.565279
O O4 0.890275 0.849278 0.522865
O O5 0.748831 0.430265 0.809101
O O6 0.594249 0.524278 0.716053
O O7 0.652438 0.190203 0.709033
O O8 0.322647 0.363030 0.088218
O O9 0.464136 0.352557 0.087136
O O10 0.308625 0.362703 0.942673
O O11 0.312815 0.105638 0.198896
O O12 0.412056 0.138608 0.344996
O O13 0.000000 0.747562 0.250000
#
# Coordination Sequence:
#
# PCOD9264275 Si02
#       6
#     8   8   8   8   8   8
#     4   9  18  33  56  84 110 146 196 236 282 347
#     4  11  22  37  60  85 120 157 194 241 303 354
#     4  10  19  35  57  86 116 146 192 251 288 336
#     4  11  22  38  60  87 119 160 195 239 302 362
#     4   9  19  34  57  85 114 155 191 233 297 357
#     4  12  22  37  61  92 119 148 204 256 287 345
#
# _framework density 24.130424000000001
#
# number of rings (size 3 to 8) (size 9 to 14) (size 15 to 20)
#    0.000    1.667    5.000    0.000    0.000    2.000 
#    0.000    0.833    0.000    1.000    0.000    0.000 
#    0.000    0.000    0.000    0.000    0.000    0.000 
#
# Total GULP energy -133881.502623 kJ/mol
# GULP energy per Si atom -5578.395943 kJ/mol
# Density = 2.407550 g / cm^3
# Si number density = 24.130424 Si / 1000 Ang^3
#
#
#
# Elastic Constant Matrix: (Units=GPa)
#
#
# Indices 1 2 3 4 5 6 
#
# 1 80.8240 38.8988 18.7483 0.0000 27.4146 0.0000
# 2 38.8988 127.6141 11.2909 0.0000 8.5439 0.0000
# 3 18.7483 11.2909 50.6834 0.0000 22.6235 0.0000
# 4 0.0000 0.0000 0.0000 18.2769 0.0000 8.2387
# 5 27.4146 8.5439 22.6235 0.0000 41.3519 0.0000
# 6 0.0000 0.0000 0.0000 8.2387 0.0000 34.5328
#
#
#
# Elastic Compliance Matrix: (Units=1/GPa)
#
#
# Indices 1 2 3 4 5 6 
#
# 1 0.018599 -0.004860 -0.000981 0.000000 -0.010789 0.000000
# 2 -0.004860 0.009289 -0.001129 0.000000 0.001920 0.000000
# 3 -0.000981 -0.001129 0.026397 0.000000 -0.013558 0.000000
# 4 0.000000 0.000000 0.000000 0.061307 0.000000 -0.014626
# 5 -0.010789 0.001920 -0.013558 0.000000 0.038356 0.000000
# 6 0.000000 0.000000 0.000000 -0.014626 0.000000 0.032447
#
#
# Mechanical properties :
#
#
# Convention : Reuss Voigt Hill
#
# Bulk Modulus (GPa) = 24.78667 44.11085 34.44876
# Shear Modulus (GPa) = 23.38824 31.51121 27.44973
#
# Velocity S-wave (km/s) = 3.11664 3.61760 3.37643
# Velocity P-wave (km/s) = 4.82136 5.98074 5.43207
#
# Compressibility (1/GPa) = 0.04034426
#
# Stress axis : x y z
#
# Youngs Moduli (GPa) = 53.76695 107.65610 37.88377
#
# Poissons Ratio (x) = 0.52321 0.03717
# Poissons Ratio (y) = 0.26131 0.04276
# Poissons Ratio (z) = 0.05276 0.12151
#
# Static dielectric constant tensor:
#      x y z
#    x 1.959970 0.000000 -0.042790 
#    y 0.000000 1.985820 0.000000 
#    z -0.042790 0.000000 1.959430 
# 
# From -- ./inp_files/246837.got.cif
#   From: 2010.05.17/outbox.cif.g08.bks.cpg/sg15_124_cif.got.tgz:246837.got - 2010.06.03 18:47:42.
