data_PCOD9264633
_publ_section_title
;
Structure prediction by ZEFSAII (Michael W. Deem and Ramdas Pophale) SiO2 
 PCOD9264633
Probable space group: C 2/C
;
_chemical_formula_sum "Si O2"
_cell_formula_units_Z 56
_cell_length_a 26.996787
_cell_length_b 16.275086
_cell_length_c 18.001194
_cell_angle_alpha 90.000000
_cell_angle_beta 159.565288
_cell_angle_gamma 90.000000
_cell_volume 2761.442944
_symmetry_space_group_name_H-M "C 2/C"
_symmetry_group_IT_number 15
_symmetry_cell_setting 'monoclinic'
loop_
_space_group_symop_operation_xyz
x,y,z
-x,y,1/2-z
-x,-y,-z
x,-y,1/2+z
1/2+x,1/2+y,z
1/2-x,1/2+y,1/2-z
1/2-x,1/2-y,-z
1/2+x,1/2-y,1/2+z
loop_
_atom_site_type_symbol
_atom_site_label
_atom_site_fract_x
_atom_site_fract_y
_atom_site_fract_z
Si Si1 0.524407 0.641283 0.560872
Si Si2 0.789223 0.084644 0.987093
Si Si3 0.606618 0.414045 0.330525
Si Si4 0.828435 0.268661 0.338953
Si Si5 0.987481 0.598320 0.975712
Si Si6 0.559340 0.368536 0.945455
Si Si7 0.741204 0.790078 0.862335
O O1 0.532073 0.588690 0.646088
O O2 0.383117 0.697008 0.362148
O O3 0.548161 0.600411 0.514331
O O4 0.647353 0.709869 0.744008
O O5 0.856582 0.078553 0.998245
O O6 0.901584 0.139496 0.190513
O O7 0.794307 0.994183 0.028454
O O8 0.629585 0.115375 0.752641
O O9 0.500000 0.422295 0.250000
O O10 0.694064 0.332835 0.474953
O O11 0.916936 0.351502 0.445755
O O12 0.853458 0.237243 0.457645
O O13 0.662451 0.289481 0.095845
O O14 0.000000 0.500000 0.000000
O O15 0.139493 0.640865 0.181682
#
# Coordination Sequence:
#
# PCOD9264633 Si02
#       7
#     8   8   8   8   8   8   8
#     4  10  21  35  57  87 114 154 191 238 297 350
#     4  10  20  37  56  87 111 155 199 236 300 347
#     4  12  20  33  58  86 116 152 194 243 291 360
#     4   9  19  35  55  85 116 150 194 239 297 341
#     4  10  19  35  61  83 114 159 202 238 293 365
#     4   9  19  37  55  80 120 143 191 242 281 348
#     4  10  20  37  56  88 120 148 195 245 295 349
#
# _framework density 20.279253000000001
#
# number of rings (size 3 to 8) (size 9 to 14) (size 15 to 20)
#    0.000    2.000    4.286    0.429    0.000    0.571 
#    0.000   19.286    0.000    0.000    0.000    0.000 
#    0.000    0.000    0.000    0.000    0.000    0.000 
#
# Total GULP energy -155903.771951 kJ/mol
# GULP energy per Si atom -5567.991855 kJ/mol
# Density = 2.023310 g / cm^3
# Si number density = 20.279253 Si / 1000 Ang^3
#
#
#
# Elastic Constant Matrix: (Units=GPa)
#
#
# Indices 1 2 3 4 5 6 
#
# 1 82.0275 27.0901 30.1538 0.0000 -25.5156 0.0000
# 2 27.0901 69.0862 19.4641 0.0000 -14.8037 0.0000
# 3 30.1538 19.4641 87.9167 0.0000 -16.0833 0.0000
# 4 0.0000 0.0000 0.0000 26.3252 0.0000 -2.8454
# 5 -25.5156 -14.8037 -16.0833 0.0000 28.8200 0.0000
# 6 0.0000 0.0000 0.0000 -2.8454 0.0000 9.6715
#
#
#
# Elastic Compliance Matrix: (Units=1/GPa)
#
#
# Indices 1 2 3 4 5 6 
#
# 1 0.018541 -0.003630 -0.003223 0.000000 0.012752 0.000000
# 2 -0.003630 0.017407 -0.001739 0.000000 0.004758 0.000000
# 3 -0.003223 -0.001739 0.013564 0.000000 0.003823 0.000000
# 4 0.000000 0.000000 0.000000 0.039234 0.000000 0.011543
# 5 0.012752 0.004758 0.003823 0.000000 0.050566 0.000000
# 6 0.000000 0.000000 0.000000 0.011543 0.000000 0.106793
#
#
# Mechanical properties :
#
#
# Convention : Reuss Voigt Hill
#
# Bulk Modulus (GPa) = 30.93077 43.60515 37.26796
# Shear Modulus (GPa) = 18.24387 23.78481 21.01434
#
# Velocity S-wave (km/s) = 3.00264 3.42843 3.22257
# Velocity P-wave (km/s) = 5.22558 6.10092 5.68013
#
# Compressibility (1/GPa) = 0.03233027
#
# Stress axis : x y z
#
# Youngs Moduli (GPa) = 53.93350 57.44728 73.72409
#
# Poissons Ratio (x) = 0.20853 0.23760
# Poissons Ratio (y) = 0.19577 0.12817
# Poissons Ratio (z) = 0.17382 0.09987
#
# Static dielectric constant tensor:
#      x y z
#    x 1.758400 0.000000 0.025740 
#    y 0.000000 1.743030 0.000000 
#    z 0.025740 0.000000 1.771540 
# 
# From -- ./inp_files/225718.got.cif
#   From: 2010.05.17/outbox.cif.g08.bks.cpg/sg15_113_cif.got.tgz:225718.got - 2010.06.03 18:47:42.
