data_PCOD9264972
_publ_section_title
;
Structure prediction by ZEFSAII (Michael W. Deem and Ramdas Pophale) SiO2 
 PCOD9264972
Probable space group: C 2/C
;
_chemical_formula_sum "Si O2"
_cell_formula_units_Z 32
_cell_length_a 13.935784
_cell_length_b 4.936729
_cell_length_c 17.327142
_cell_angle_alpha 90.000000
_cell_angle_beta 103.593339
_cell_angle_gamma 90.000000
_cell_volume 1158.667110
_symmetry_space_group_name_H-M "C 2/C"
_symmetry_group_IT_number 15
_symmetry_cell_setting 'monoclinic'
loop_
_space_group_symop_operation_xyz
x,y,z
-x,y,1/2-z
-x,-y,-z
x,-y,1/2+z
1/2+x,1/2+y,z
1/2-x,1/2+y,1/2-z
1/2-x,1/2-y,-z
1/2+x,1/2-y,1/2+z
loop_
_atom_site_type_symbol
_atom_site_label
_atom_site_fract_x
_atom_site_fract_y
_atom_site_fract_z
Si Si1 0.164314 0.475724 0.983222
Si Si2 0.621224 0.350333 0.712675
Si Si3 0.945603 0.008254 0.075444
Si Si4 0.299095 0.857944 0.841982
O O1 0.154432 0.530200 0.071722
O O2 0.250000 0.250000 0.000000
O O3 0.146938 0.780433 0.948704
O O4 0.082396 0.304626 0.922927
O O5 0.512433 0.409105 0.661250
O O6 0.639823 0.030386 0.709171
O O7 0.685461 0.427498 0.800284
O O8 0.681405 0.538848 0.661476
O O9 0.000000 0.000000 0.000000
#
# Coordination Sequence:
#
# PCOD9264972 Si02
#       4
#     8   8   8   8
#     4  12  24  38  59  89 129 159 195 253 324 368
#     4  10  20  33  61  85 114 149 206 258 290 352
#     4  12  21  38  62  91 115 158 216 253 291 366
#     4  10  19  36  55  88 117 152 194 253 312 353
#
# _framework density 27.617940999999998
#
# number of rings (size 3 to 8) (size 9 to 14) (size 15 to 20)
#    0.000    1.000    5.000    3.000    0.000    0.000 
#    0.000    1.250    0.000    3.000    0.000    0.000 
#    0.000    0.000    0.000    0.000    0.000    0.000 
#
# Total GULP energy -89150.566438 kJ/mol
# GULP energy per Si atom -5571.910402 kJ/mol
# Density = 2.755508 g / cm^3
# Si number density = 27.617941 Si / 1000 Ang^3
#
#
#
# Elastic Constant Matrix: (Units=GPa)
#
#
# Indices 1 2 3 4 5 6 
#
# 1 69.9881 22.6136 2.7614 0.0000 35.0192 0.0000
# 2 22.6136 174.2539 33.5653 0.0000 10.0468 0.0000
# 3 2.7614 33.5653 103.2322 0.0000 44.3858 0.0000
# 4 0.0000 0.0000 0.0000 43.8713 0.0000 21.0118
# 5 35.0192 10.0468 44.3858 0.0000 47.1224 0.0000
# 6 0.0000 0.0000 0.0000 21.0118 0.0000 47.2752
#
#
#
# Elastic Compliance Matrix: (Units=1/GPa)
#
#
# Indices 1 2 3 4 5 6 
#
# 1 0.040638 -0.006748 0.022644 0.000000 -0.050091 0.000000
# 2 -0.006748 0.007268 -0.006172 0.000000 0.009279 0.000000
# 3 0.022644 -0.006172 0.029844 0.000000 -0.043623 0.000000
# 4 0.000000 0.000000 0.000000 0.028958 0.000000 -0.012871
# 5 -0.050091 0.009279 -0.043623 0.000000 0.097558 0.000000
# 6 0.000000 0.000000 0.000000 -0.012871 0.000000 0.026873
#
#
# Mechanical properties :
#
#
# Convention : Reuss Voigt Hill
#
# Bulk Modulus (GPa) = 10.28810 51.70609 30.99710
# Shear Modulus (GPa) = 20.48409 46.88938 33.68673
#
# Velocity S-wave (km/s) = 2.72636 4.12489 3.49627
# Velocity P-wave (km/s) = 3.69378 6.43808 5.24847
#
# Compressibility (1/GPa) = 0.09719963
#
# Stress axis : x y z
#
# Youngs Moduli (GPa) = 24.60727 137.58293 33.50731
#
# Poissons Ratio (x) = 0.92834 -0.75874
# Poissons Ratio (y) = 0.16604 0.20681
# Poissons Ratio (z) = -0.55721 0.84918
#
# Static dielectric constant tensor:
#      x y z
#    x 2.417100 0.000000 -0.030480 
#    y 0.000000 2.088260 0.000000 
#    z -0.030480 0.000000 2.147800 
# 
# From -- ./inp_files/201717.got.cif
#   From: 2010.05.17/outbox.cif.g08.bks.cpg/sg15_101_cif.got.tgz:201717.got - 2010.06.03 18:47:42.
