data_PCOD9264266
_publ_section_title
;
Structure prediction by ZEFSAII (Michael W. Deem and Ramdas Pophale) SiO2 
 PCOD9264266
Probable space group: C 2/C
;
_chemical_formula_sum "Si O2"
_cell_formula_units_Z 64
_cell_length_a 19.919581
_cell_length_b 12.025737
_cell_length_c 18.902171
_cell_angle_alpha 90.000000
_cell_angle_beta 135.111257
_cell_angle_gamma 90.000000
_cell_volume 3195.535433
_symmetry_space_group_name_H-M "C 2/C"
_symmetry_group_IT_number 15
_symmetry_cell_setting 'monoclinic'
loop_
_space_group_symop_operation_xyz
x,y,z
-x,y,1/2-z
-x,-y,-z
x,-y,1/2+z
1/2+x,1/2+y,z
1/2-x,1/2+y,1/2-z
1/2-x,1/2-y,-z
1/2+x,1/2-y,1/2+z
loop_
_atom_site_type_symbol
_atom_site_label
_atom_site_fract_x
_atom_site_fract_y
_atom_site_fract_z
Si Si1 0.841936 0.804102 0.533959
Si Si2 0.556455 0.873246 0.482641
Si Si3 0.852947 0.161519 0.501449
Si Si4 0.111530 0.987153 0.342007
Si Si5 0.055481 0.788620 0.113666
Si Si6 0.647188 0.956971 0.152036
Si Si7 0.827451 0.037924 0.884657
Si Si8 0.719352 0.318498 0.332273
O O1 0.750000 0.750000 0.500000
O O2 0.907172 0.702422 0.554575
O O3 0.819872 0.877723 0.446500
O O4 0.881923 0.886582 0.624711
O O5 0.539687 0.789949 0.535350
O O6 0.457488 0.936460 0.394520
O O7 0.631697 0.958673 0.574372
O O8 0.842949 0.082665 0.560553
O O9 0.766128 0.245008 0.427832
O O10 0.958014 0.212075 0.583739
O O11 0.859071 0.080194 0.438189
O O12 0.168587 0.933948 0.318654
O O13 0.000000 0.961891 0.250000
O O14 0.096473 0.904593 0.111530
O O15 0.140636 0.752465 0.228949
O O16 0.727702 0.982446 0.270056
O O17 0.691069 0.846323 0.150198
#
# Coordination Sequence:
#
# PCOD9264266 Si02
#       8
#     8   8   8   8   8   8   8   8
#     4  10  22  40  60  83 120 159 196 244 302 363
#     4  10  20  37  58  87 117 153 193 248 298 354
#     4  11  20  37  56  81 119 151 196 244 295 349
#     4  11  23  39  57  85 118 157 203 245 292 364
#     4  10  19  35  57  85 116 147 198 244 297 355
#     4  10  20  36  58  86 116 147 197 242 297 353
#     4   9  21  35  56  85 115 151 191 247 293 354
#     4  11  21  36  60  86 116 157 194 242 300 355
#
# _framework density 20.027941999999999
#
# number of rings (size 3 to 8) (size 9 to 14) (size 15 to 20)
#    0.000    1.750    2.500    2.250    0.000    1.000 
#    0.000    0.000    0.000    0.000    0.000    0.000 
#    0.000    0.000    0.000    0.000    0.000    0.000 
#
# Total GULP energy -178267.003004 kJ/mol
# GULP energy per Si atom -5570.843844 kJ/mol
# Density = 1.998236 g / cm^3
# Si number density = 20.027942 Si / 1000 Ang^3
#
#
#
# Elastic Constant Matrix: (Units=GPa)
#
#
# Indices 1 2 3 4 5 6 
#
# 1 47.2024 2.2505 -0.4761 0.0000 4.9278 0.0000
# 2 2.2505 47.9456 10.5028 0.0000 8.3271 0.0000
# 3 -0.4761 10.5028 79.3960 0.0000 11.7259 0.0000
# 4 0.0000 0.0000 0.0000 25.0486 0.0000 2.7775
# 5 4.9278 8.3271 11.7259 0.0000 25.5269 0.0000
# 6 0.0000 0.0000 0.0000 2.7775 0.0000 10.5869
#
#
#
# Elastic Compliance Matrix: (Units=1/GPa)
#
#
# Indices 1 2 3 4 5 6 
#
# 1 0.021677 -0.000432 0.000841 0.000000 -0.004430 0.000000
# 2 -0.000432 0.022417 -0.002039 0.000000 -0.006293 0.000000
# 3 0.000841 -0.002039 0.013727 0.000000 -0.005803 0.000000
# 4 0.000000 0.000000 0.000000 0.041119 0.000000 -0.010788
# 5 -0.004430 -0.006293 -0.005803 0.000000 0.044748 0.000000
# 6 0.000000 0.000000 0.000000 -0.010788 0.000000 0.097286
#
#
# Mechanical properties :
#
#
# Convention : Reuss Voigt Hill
#
# Bulk Modulus (GPa) = 18.32795 22.12204 20.22499
# Shear Modulus (GPa) = 19.05344 23.05026 21.05185
#
# Velocity S-wave (km/s) = 3.08773 3.39618 3.24562
# Velocity P-wave (km/s) = 4.67794 5.14279 4.91586
#
# Compressibility (1/GPa) = 0.05456147
#
# Stress axis : x y z
#
# Youngs Moduli (GPa) = 46.13193 44.60949 72.85000
#
# Poissons Ratio (x) = 0.01929 -0.06130
# Poissons Ratio (y) = 0.01995 0.14851
# Poissons Ratio (z) = -0.03882 0.09094
#
# Static dielectric constant tensor:
#      x y z
#    x 1.708420 0.000000 -0.015690 
#    y 0.000000 1.760770 0.000000 
#    z -0.015690 0.000000 1.723570 
# 
# From -- ./inp_files/252554.got.cif
#   From: 2010.05.17/outbox.cif.g08.bks.cpg/sg15_127_cif.got.tgz:252554.got - 2010.06.03 18:47:42.
