data_PCOD9264746
_publ_section_title
;
Structure prediction by ZEFSAII (Michael W. Deem and Ramdas Pophale) SiO2 
 PCOD9264746
Probable space group: C 2/C
;
_chemical_formula_sum "Si O2"
_cell_formula_units_Z 56
_cell_length_a 8.201873
_cell_length_b 20.156475
_cell_length_c 16.304057
_cell_angle_alpha 90.000000
_cell_angle_beta 91.974509
_cell_angle_gamma 90.000000
_cell_volume 2693.800150
_symmetry_space_group_name_H-M "C 2/C"
_symmetry_group_IT_number 15
_symmetry_cell_setting 'monoclinic'
loop_
_space_group_symop_operation_xyz
x,y,z
-x,y,1/2-z
-x,-y,-z
x,-y,1/2+z
1/2+x,1/2+y,z
1/2-x,1/2+y,1/2-z
1/2-x,1/2-y,-z
1/2+x,1/2-y,1/2+z
loop_
_atom_site_type_symbol
_atom_site_label
_atom_site_fract_x
_atom_site_fract_y
_atom_site_fract_z
Si Si1 0.321223 0.236101 0.728359
Si Si2 0.500000 0.124127 0.250000
Si Si3 0.898749 0.069798 0.076636
Si Si4 0.806825 0.874707 0.828338
Si Si5 0.500000 0.647906 0.750000
Si Si6 0.344303 0.187517 0.403758
Si Si7 0.165016 0.320663 0.995091
Si Si8 0.113621 0.918690 0.415150
O O1 0.500000 0.205658 0.750000
O O2 0.327833 0.304974 0.781074
O O3 0.165018 0.192143 0.749748
O O4 0.280686 0.257370 0.633178
O O5 0.335421 0.086479 0.222671
O O6 0.452183 0.170848 0.325070
O O7 0.756902 0.122695 0.077968
O O8 0.027075 0.087598 0.150879
O O9 0.835670 0.995477 0.087303
O O10 0.991925 0.080908 0.991745
O O11 0.732620 0.857731 0.915631
O O12 0.481704 0.604769 0.667262
O O13 0.475030 0.196356 0.477954
O O14 0.250000 0.250000 0.000000
O O15 0.234535 0.368607 0.067011
#
# Coordination Sequence:
#
# PCOD9264746 Si02
#       8
#     8   4   8   8   4   8   8   8
#     4  11  20  36  63  94 131 166 211 266 316 394
#     4   8  17  28  54  88 120 148 193 254 306 360
#     4  10  21  41  66  90 120 166 221 267 313 389
#     4   9  17  33  55  87 118 154 204 254 311 361
#     4  12  25  44  62  90 136 174 199 272 354 390
#     4  10  19  35  62  94 120 162 212 262 311 373
#     4  10  19  36  59  86 119 164 205 250 320 389
#     4  10  24  43  63  87 126 172 209 268 338 386
#
# _framework density 20.788477
#
# number of rings (size 3 to 8) (size 9 to 14) (size 15 to 20)
#    0.000    2.000    1.429    4.286    0.000    2.857 
#    5.143    2.143    3.143    0.000    0.000    0.000 
#    0.000    0.000    0.000    0.000    0.000    0.000 
#
# Total GULP energy -156088.372523 kJ/mol
# GULP energy per Si atom -5574.584733 kJ/mol
# Density = 2.074116 g / cm^3
# Si number density = 20.788477 Si / 1000 Ang^3
#
#
#
# Elastic Constant Matrix: (Units=GPa)
#
#
# Indices 1 2 3 4 5 6 
#
# 1 132.6749 48.1206 41.6579 0.0000 44.1441 0.0000
# 2 48.1206 84.6326 36.4370 0.0000 19.7045 0.0000
# 3 41.6579 36.4370 95.5359 0.0000 28.1788 0.0000
# 4 0.0000 0.0000 0.0000 20.4755 0.0000 -0.9057
# 5 44.1441 19.7045 28.1788 0.0000 46.9940 0.0000
# 6 0.0000 0.0000 0.0000 -0.9057 0.0000 23.9422
#
#
#
# Elastic Compliance Matrix: (Units=1/GPa)
#
#
# Indices 1 2 3 4 5 6 
#
# 1 0.012614 -0.004566 -0.001007 0.000000 -0.009331 0.000000
# 2 -0.004566 0.016217 -0.004196 0.000000 0.000005 0.000000
# 3 -0.001007 -0.004196 0.014224 0.000000 -0.005825 0.000000
# 4 0.000000 0.000000 0.000000 0.048921 0.000000 0.001851
# 5 -0.009331 0.000005 -0.005825 0.000000 0.033535 0.000000
# 6 0.000000 0.000000 0.000000 0.001851 0.000000 0.041837
#
#
# Mechanical properties :
#
#
# Convention : Reuss Voigt Hill
#
# Bulk Modulus (GPa) = 42.51945 62.80827 52.66386
# Shear Modulus (GPa) = 25.67727 30.72419 28.20073
#
# Velocity S-wave (km/s) = 3.51831 3.84857 3.68714
# Velocity P-wave (km/s) = 6.08296 7.07300 6.59658
#
# Compressibility (1/GPa) = 0.02351865
#
# Stress axis : x y z
#
# Youngs Moduli (GPa) = 79.27673 61.66279 70.30197
#
# Poissons Ratio (x) = 0.28157 0.07076
# Poissons Ratio (y) = 0.36200 0.29496
# Poissons Ratio (z) = 0.07979 0.25872
#
# Static dielectric constant tensor:
#      x y z
#    x 1.807370 0.000000 0.019320 
#    y 0.000000 1.725530 0.000000 
#    z 0.019320 0.000000 1.811410 
# 
# From -- ./inp_files/191699.got.cif
#   From: 2010.05.17/outbox.cif.g08.bks.cpg/sg15_96_cif.got.tgz:191699.got - 2010.06.03 18:47:42.
