data_PCOD9264463
_publ_section_title
;
Structure prediction by ZEFSAII (Michael W. Deem and Ramdas Pophale) SiO2 
 PCOD9264463
Probable space group: C 2/C
;
_chemical_formula_sum "Si O2"
_cell_formula_units_Z 52
_cell_length_a 9.167523
_cell_length_b 21.878382
_cell_length_c 13.421261
_cell_angle_alpha 90.000000
_cell_angle_beta 55.278506
_cell_angle_gamma 90.000000
_cell_volume 2212.562702
_symmetry_space_group_name_H-M "C 2/C"
_symmetry_group_IT_number 15
_symmetry_cell_setting 'monoclinic'
loop_
_space_group_symop_operation_xyz
x,y,z
-x,y,1/2-z
-x,-y,-z
x,-y,1/2+z
1/2+x,1/2+y,z
1/2-x,1/2+y,1/2-z
1/2-x,1/2-y,-z
1/2+x,1/2-y,1/2+z
loop_
_atom_site_type_symbol
_atom_site_label
_atom_site_fract_x
_atom_site_fract_y
_atom_site_fract_z
Si Si1 0.000000 0.091378 0.250000
Si Si2 0.770543 0.618567 0.494126
Si Si3 0.011733 0.293427 0.460503
Si Si4 0.750520 0.642022 0.913148
Si Si5 0.167199 0.983448 0.506036
Si Si6 0.647688 0.670027 0.348557
Si Si7 0.570404 0.298401 0.327256
O O1 0.146577 0.136402 0.243297
O O2 0.089824 0.047080 0.135484
O O3 0.765004 0.546134 0.492506
O O4 0.783837 0.642920 0.375231
O O5 0.583721 0.649024 0.599978
O O6 0.903728 0.647906 0.520332
O O7 0.872329 0.314972 0.433002
O O8 0.945209 0.254628 0.582929
O O9 0.144415 0.243356 0.357337
O O10 0.739007 0.662996 0.802973
O O11 0.783913 0.570083 0.910617
O O12 0.551947 0.651676 0.036356
O O13 0.000000 0.000000 0.500000
O O14 0.500000 0.272997 0.250000
#
# Coordination Sequence:
#
# PCOD9264463 Si02
#       7
#     4   8   8   8   8   8   8
#     4  10  20  32  64  84 100 148 200 240 268 322
#     4  10  20  36  57  81 113 153 181 232 286 332
#     4  10  20  39  53  84 123 145 179 233 299 346
#     4   9  19  36  57  80 111 151 182 227 284 334
#     4  11  19  38  58  82 111 146 204 233 267 338
#     4   9  17  36  57  82 104 147 187 227 273 337
#     4  10  19  35  59  85 107 150 194 236 273 336
#
# _framework density 23.502158000000001
#
# number of rings (size 3 to 8) (size 9 to 14) (size 15 to 20)
#    0.000    2.462    4.615    3.692    1.077    0.615 
#   16.615    0.000    0.000    0.000    0.000    0.000 
#    0.000    0.000    0.000    0.000    0.000    0.000 
#
# Total GULP energy -145044.094778 kJ/mol
# GULP energy per Si atom -5578.619030 kJ/mol
# Density = 2.344867 g / cm^3
# Si number density = 23.502158 Si / 1000 Ang^3
#
#
#
# Elastic Constant Matrix: (Units=GPa)
#
#
# Indices 1 2 3 4 5 6 
#
# 1 97.6105 35.8062 30.6222 0.0000 34.8762 0.0000
# 2 35.8062 192.8760 31.1444 0.0000 18.2039 0.0000
# 3 30.6222 31.1444 67.4159 0.0000 30.7344 0.0000
# 4 0.0000 0.0000 0.0000 35.7612 0.0000 17.2922
# 5 34.8762 18.2039 30.7344 0.0000 34.8994 0.0000
# 6 0.0000 0.0000 0.0000 17.2922 0.0000 45.2167
#
#
#
# Elastic Compliance Matrix: (Units=1/GPa)
#
#
# Indices 1 2 3 4 5 6 
#
# 1 0.016392 -0.001628 0.000647 0.000000 -0.016102 0.000000
# 2 -0.001628 0.005788 -0.002172 0.000000 0.000520 0.000000
# 3 0.000647 -0.002172 0.025598 0.000000 -0.022057 0.000000
# 4 0.000000 0.000000 0.000000 0.034307 0.000000 -0.013120
# 5 -0.016102 0.000520 -0.022057 0.000000 0.063899 0.000000
# 6 0.000000 0.000000 0.000000 -0.013120 0.000000 0.027133
#
#
# Mechanical properties :
#
#
# Convention : Reuss Voigt Hill
#
# Bulk Modulus (GPa) = 24.11159 61.44977 42.78068
# Shear Modulus (GPa) = 25.87343 40.53076 33.20209
#
# Velocity S-wave (km/s) = 3.32157 4.15728 3.76270
# Velocity P-wave (km/s) = 4.99921 7.01763 6.09259
#
# Compressibility (1/GPa) = 0.04147384
#
# Stress axis : x y z
#
# Youngs Moduli (GPa) = 61.00470 172.75670 39.06484
#
# Poissons Ratio (x) = 0.28122 -0.02528
# Poissons Ratio (y) = 0.09931 0.08484
# Poissons Ratio (z) = -0.03947 0.37519
#
# Static dielectric constant tensor:
#      x y z
#    x 1.950300 0.000000 -0.129200 
#    y 0.000000 1.977620 0.000000 
#    z -0.129200 0.000000 2.392510 
# 
# From -- ./inp_files/135988.got.cif
#   From: 2010.05.17/outbox.cif.g08.bks.cpg/sg15_68_cif.got.tgz:135988.got - 2010.06.03 18:47:42.
