data_PCOD9264249
_publ_section_title
;
Structure prediction by ZEFSAII (Michael W. Deem and Ramdas Pophale) SiO2 
 PCOD9264249
Probable space group: C 2/C
;
_chemical_formula_sum "Si O2"
_cell_formula_units_Z 60
_cell_length_a 19.395056
_cell_length_b 14.192437
_cell_length_c 8.613708
_cell_angle_alpha 90.000000
_cell_angle_beta 73.764337
_cell_angle_gamma 90.000000
_cell_volume 2276.478771
_symmetry_space_group_name_H-M "C 2/C"
_symmetry_group_IT_number 15
_symmetry_cell_setting 'monoclinic'
loop_
_space_group_symop_operation_xyz
x,y,z
-x,y,1/2-z
-x,-y,-z
x,-y,1/2+z
1/2+x,1/2+y,z
1/2-x,1/2+y,1/2-z
1/2-x,1/2-y,-z
1/2+x,1/2-y,1/2+z
loop_
_atom_site_type_symbol
_atom_site_label
_atom_site_fract_x
_atom_site_fract_y
_atom_site_fract_z
Si Si1 0.955654 0.131696 0.486195
Si Si2 0.841710 0.403465 0.788171
Si Si3 0.805510 0.311658 0.142354
Si Si4 0.909104 0.973506 0.302784
Si Si5 0.000000 0.590560 0.250000
Si Si6 0.187286 0.767679 0.415025
Si Si7 0.689102 0.586095 0.365883
Si Si8 0.962058 0.317198 0.113318
O O1 0.957527 0.034127 0.392443
O O2 0.882160 0.180931 0.476655
O O3 0.018722 0.205761 0.417317
O O4 0.942670 0.108205 0.674647
O O5 0.843890 0.325181 0.650409
O O6 0.768566 0.459299 0.797611
O O7 0.919694 0.450230 0.764934
O O8 0.820359 0.350450 0.961768
O O9 0.728895 0.333727 0.265455
O O10 0.803186 0.198072 0.150917
O O11 0.877929 0.337416 0.187021
O O12 0.867429 0.044469 0.217371
O O13 0.847088 0.931997 0.448358
O O14 0.985572 0.641787 0.428086
O O15 0.250000 0.750000 0.500000
O O16 0.000000 0.349048 0.250000
#
# Coordination Sequence:
#
# PCOD9264249 Si02
#       8
#     8   8   8   8   4   8   8   8
#     4  11  21  39  55  80 120 157 198 243 284 348
#     4  10  19  35  57  83 111 142 187 242 306 361
#     4  10  21  34  56  84 110 151 188 241 308 346
#     4  10  22  35  55  80 110 161 205 229 280 342
#     4  10  22  36  62  90 112 158 182 242 324 364
#     4  11  19  32  59  87 109 144 189 248 308 344
#     4  10  19  36  54  79 112 144 197 244 279 350
#     4  11  22  38  56  83 124 153 192 242 295 356
#
# _framework density 26.356494999999999
#
# number of rings (size 3 to 8) (size 9 to 14) (size 15 to 20)
#    0.000    1.600    1.333    6.400    1.867    0.000 
#    0.000    7.333    0.000    0.800    0.000    0.000 
#    0.000    0.000    0.000    0.000    0.000    0.000 
#
# Total GULP energy -167799.025134 kJ/mol
# GULP energy per Si atom -5593.300838 kJ/mol
# Density = 2.629651 g / cm^3
# Si number density = 26.356495 Si / 1000 Ang^3
#
#
#
# Elastic Constant Matrix: (Units=GPa)
#
#
# Indices 1 2 3 4 5 6 
#
# 1 176.7068 17.3000 32.1109 0.0000 16.9622 0.0000
# 2 17.3000 54.1230 12.3228 0.0000 4.9359 0.0000
# 3 32.1109 12.3228 117.5161 0.0000 3.5339 0.0000
# 4 0.0000 0.0000 0.0000 -2.7754 0.0000 2.3490
# 5 16.9622 4.9359 3.5339 0.0000 56.9857 0.0000
# 6 0.0000 0.0000 0.0000 2.3490 0.0000 22.9873
#
#
#
# Elastic Compliance Matrix: (Units=1/GPa)
#
#
# Indices 1 2 3 4 5 6 
#
# 1 0.006235 -0.001503 -0.001497 0.000000 -0.001633 0.000000
# 2 -0.001503 0.019423 -0.001592 0.000000 -0.001136 0.000000
# 3 -0.001497 -0.001592 0.009085 0.000000 0.000020 0.000000
# 4 0.000000 0.000000 0.000000 -0.331632 0.000000 0.033888
# 5 -0.001633 -0.001136 0.000020 0.000000 0.018131 0.000000
# 6 0.000000 0.000000 0.000000 0.033888 0.000000 0.040039
#
#
# Mechanical properties :
#
#
# Convention : Reuss Voigt Hill
#
# Bulk Modulus (GPa) = 39.12537 52.42369 45.77453
# Shear Modulus (GPa) = -22.62295 34.54700 5.96203
#
# Velocity S-wave (km/s) = -2.93293 3.62437 1.50565
# Velocity P-wave (km/s) = 1.84593 6.11949 4.51971
#
# Compressibility (1/GPa) = 0.02555886
#
# Stress axis : x y z
#
# Youngs Moduli (GPa) = 160.38413 51.48542 110.07362
#
# Poissons Ratio (x) = 0.07739 0.16478
# Poissons Ratio (y) = 0.24110 0.17521
# Poissons Ratio (z) = 0.24009 0.08195
#
# Static dielectric constant tensor:
#      x y z
#    x 2.128960 0.000000 -0.017740 
#    y 0.000000 2.077170 0.000000 
#    z -0.017740 0.000000 2.151490 
# 
# From -- ./inp_files/56593.got.cif
#   From: 2010.05.17/outbox.cif.g08.bks.cpg/sg15_29_cif.got.tgz:56593.got - 2010.06.03 18:47:42.
