data_PCOD9264305
_publ_section_title
;
Structure prediction by ZEFSAII (Michael W. Deem and Ramdas Pophale) SiO2 
 PCOD9264305
Probable space group: C 2/C
;
_chemical_formula_sum "Si O2"
_cell_formula_units_Z 64
_cell_length_a 15.128357
_cell_length_b 33.695085
_cell_length_c 19.526421
_cell_angle_alpha 90.000000
_cell_angle_beta 160.480468
_cell_angle_gamma 90.000000
_cell_volume 3325.784309
_symmetry_space_group_name_H-M "C 2/C"
_symmetry_group_IT_number 15
_symmetry_cell_setting 'monoclinic'
loop_
_space_group_symop_operation_xyz
x,y,z
-x,y,1/2-z
-x,-y,-z
x,-y,1/2+z
1/2+x,1/2+y,z
1/2-x,1/2+y,1/2-z
1/2-x,1/2-y,-z
1/2+x,1/2-y,1/2+z
loop_
_atom_site_type_symbol
_atom_site_label
_atom_site_fract_x
_atom_site_fract_y
_atom_site_fract_z
Si Si1 0.877350 0.857805 0.371757
Si Si2 0.660014 0.390338 0.298466
Si Si3 0.096511 0.288061 0.219400
Si Si4 0.435046 0.300615 0.603414
Si Si5 0.921293 0.430566 0.300951
Si Si6 0.087193 0.053476 0.420818
Si Si7 0.731330 0.373404 0.765145
Si Si8 0.268201 0.475989 0.207239
O O1 0.971321 0.872733 0.366475
O O2 0.762076 0.813278 0.285686
O O3 0.627740 0.885825 0.209919
O O4 0.088108 0.866537 0.586415
O O5 0.500000 0.381663 0.250000
O O6 0.689852 0.437792 0.309782
O O7 0.956186 0.372986 0.516638
O O8 0.248472 0.300484 0.399664
O O9 0.095595 0.240493 0.216564
O O10 0.784595 0.299139 0.996915
O O11 0.616730 0.338790 0.729571
O O12 0.771145 0.458211 0.245649
O O13 0.226680 0.440364 0.509373
O O14 0.769318 0.436094 0.118944
O O15 0.850787 0.084920 0.259257
O O16 0.994125 0.008421 0.360527
O O17 0.000000 0.500000 0.000000
#
# Coordination Sequence:
#
# PCOD9264305 Si02
#       8
#     8   8   8   8   8   8   8   8
#     4   9  20  39  59  82 116 151 191 233 282 344
#     4  11  25  41  58  84 109 149 200 247 291 337
#     4   9  17  32  53  89 125 152 182 225 279 347
#     4   9  18  30  54  89 124 154 181 223 283 345
#     4   9  20  35  54  82 106 147 187 228 277 343
#     4  10  19  35  58  77 110 146 187 230 280 344
#     4  10  20  38  59  83 114 154 188 234 286 341
#     4  11  22  36  52  78 112 140 185 236 289 335
#
# _framework density 19.243582
#
# number of rings (size 3 to 8) (size 9 to 14) (size 15 to 20)
#    0.000    2.250    1.250    1.125    3.500    3.500 
#    0.000    1.250    0.000    0.750    0.000    0.000 
#    0.000    0.000    0.000    0.000    0.000    0.000 
#
# Total GULP energy -178551.177085 kJ/mol
# GULP energy per Si atom -5579.724284 kJ/mol
# Density = 1.919978 g / cm^3
# Si number density = 19.243582 Si / 1000 Ang^3
#
#
#
# Elastic Constant Matrix: (Units=GPa)
#
#
# Indices 1 2 3 4 5 6 
#
# 1 83.0260 21.9263 16.7675 -0.0227 5.1285 -0.0104
# 2 21.9263 92.9588 12.0325 -0.0340 2.9769 -0.0164
# 3 16.7675 12.0325 48.1742 -0.0521 7.3479 -0.0386
# 4 -0.0227 -0.0340 -0.0521 -4.7668 -0.0349 -17.8427
# 5 5.1285 2.9769 7.3479 -0.0349 20.7808 -0.0186
# 6 -0.0104 -0.0164 -0.0386 -17.8427 -0.0186 10.5339
#
#
#
# Elastic Compliance Matrix: (Units=1/GPa)
#
#
# Indices 1 2 3 4 5 6 
#
# 1 0.013622 -0.002665 -0.003827 0.000005 -0.001627 0.000001
# 2 -0.002665 0.011647 -0.001931 -0.000010 -0.000328 -0.000010
# 3 -0.003827 -0.001931 0.023662 -0.000058 -0.007146 -0.000031
# 4 0.000005 -0.000010 -0.000058 -0.028580 -0.000071 -0.048410
# 5 -0.001627 -0.000328 -0.007146 -0.000071 0.051096 -0.000058
# 6 0.000001 -0.000010 -0.000031 -0.048410 -0.000058 0.012933
#
#
# Mechanical properties :
#
#
# Convention : Reuss Voigt Hill
#
# Bulk Modulus (GPa) = 31.16955 36.17906 33.67431
# Shear Modulus (GPa) = 44.67358 16.87175 30.77267
#
# Velocity S-wave (km/s) = 4.82340 2.96420 4.00323
# Velocity P-wave (km/s) = 6.87407 5.52781 6.23737
#
# Compressibility (1/GPa) = 0.03208259
#
# Stress axis : x y z
#
# Youngs Moduli (GPa) = 73.41189 85.86171 42.26119
#
# Poissons Ratio (x) = 0.22886 0.16175
# Poissons Ratio (y) = 0.19568 0.08162
# Poissons Ratio (z) = 0.28097 0.16582
#
# Static dielectric constant tensor:
#      x y z
#    x 1.407780 0.000150 0.037760 
#    y 0.000150 1.701090 -0.000050 
#    z 0.037760 -0.000050 1.679170 
# 
# From -- ./inp_files/246014.got.cif
#   From: 2010.05.17/outbox.cif.g08.bks.cpg/sg15_124_cif.got.tgz:246014.got - 2010.06.03 18:47:42.
