data_PCOD9264829
_publ_section_title
;
Structure prediction by ZEFSAII (Michael W. Deem and Ramdas Pophale) SiO2 
 PCOD9264829
Probable space group: C 2/C
;
_chemical_formula_sum "Si O2"
_cell_formula_units_Z 52
_cell_length_a 5.335657
_cell_length_b 22.827792
_cell_length_c 16.759559
_cell_angle_alpha 90.000000
_cell_angle_beta 82.088287
_cell_angle_gamma 90.000000
_cell_volume 2021.904771
_symmetry_space_group_name_H-M "C 2/C"
_symmetry_group_IT_number 15
_symmetry_cell_setting 'monoclinic'
loop_
_space_group_symop_operation_xyz
x,y,z
-x,y,1/2-z
-x,-y,-z
x,-y,1/2+z
1/2+x,1/2+y,z
1/2-x,1/2+y,1/2-z
1/2-x,1/2-y,-z
1/2+x,1/2-y,1/2+z
loop_
_atom_site_type_symbol
_atom_site_label
_atom_site_fract_x
_atom_site_fract_y
_atom_site_fract_z
Si Si1 0.199632 0.549106 0.468570
Si Si2 0.345648 0.235063 0.111131
Si Si3 0.361847 0.523311 0.834368
Si Si4 0.000000 0.539057 0.250000
Si Si5 0.000000 0.136700 0.750000
Si Si6 0.639143 0.129216 0.128732
Si Si7 0.904208 0.157922 0.510711
Si Si8 0.000000 0.714674 0.750000
O O1 0.413135 0.511463 0.412966
O O2 0.274555 0.595374 0.533115
O O3 0.000000 0.500000 0.500000
O O4 0.077599 0.592178 0.407784
O O5 0.527718 0.193062 0.153388
O O6 0.284924 0.197268 0.034913
O O7 0.088260 0.247259 0.170457
O O8 0.465421 0.297044 0.078917
O O9 0.500000 0.499108 0.750000
O O10 0.079883 0.506261 0.816885
O O11 0.248656 0.675056 0.752134
O O12 0.810387 0.587438 0.298383
O O13 0.068063 0.091174 0.674886
O O14 0.863267 0.140204 0.056271
#
# Coordination Sequence:
#
# PCOD9264829 Si02
#       8
#     8   8   8   4   4   8   8   4
#     4  10  22  38  61  95 126 169 220 271 342 418
#     4  10  25  41  64  91 133 170 235 279 343 405
#     4   9  20  38  59  88 128 170 211 280 334 406
#     4  10  19  35  64  92 128 167 229 278 342 406
#     4  10  26  43  69  96 145 173 232 284 352 406
#     4  10  22  39  64  94 123 178 220 282 341 402
#     4  10  22  43  62  91 131 175 219 286 341 407
#     4  12  27  46  69 106 125 194 229 288 346 412
#
# _framework density 25.718323999999999
#
# number of rings (size 3 to 8) (size 9 to 14) (size 15 to 20)
#    0.462    1.538    0.000    1.846    6.462    1.846 
#    2.769    0.000    0.000    0.000    0.000    0.000 
#    0.000    0.000    0.000    0.000    0.000    0.000 
#
# Total GULP energy -144990.714207 kJ/mol
# GULP energy per Si atom -5576.565931 kJ/mol
# Density = 2.565979 g / cm^3
# Si number density = 25.718324 Si / 1000 Ang^3
#
#
#
# Elastic Constant Matrix: (Units=GPa)
#
#
# Indices 1 2 3 4 5 6 
#
# 1 66.9541 53.5370 4.9443 0.0000 -11.0209 0.0000
# 2 53.5370 200.9420 43.0524 0.0000 -5.2254 0.0000
# 3 4.9443 43.0524 68.0955 0.0000 -10.9129 0.0000
# 4 0.0000 0.0000 0.0000 44.7183 0.0000 -16.9170
# 5 -11.0209 -5.2254 -10.9129 0.0000 44.0946 0.0000
# 6 0.0000 0.0000 0.0000 -16.9170 0.0000 43.2096
#
#
#
# Elastic Compliance Matrix: (Units=1/GPa)
#
#
# Indices 1 2 3 4 5 6 
#
# 1 0.020303 -0.005941 0.003105 0.000000 0.005139 0.000000
# 2 -0.005941 0.007497 -0.004586 0.000000 -0.001731 0.000000
# 3 0.003105 -0.004586 0.018115 0.000000 0.004716 0.000000
# 4 0.000000 0.000000 0.000000 0.026250 0.000000 0.010277
# 5 0.005139 -0.001731 0.004716 0.000000 0.024925 0.000000
# 6 0.000000 0.000000 0.000000 0.010277 0.000000 0.027167
#
#
# Mechanical properties :
#
#
# Convention : Reuss Voigt Hill
#
# Bulk Modulus (GPa) = 32.18364 59.89544 46.03954
# Shear Modulus (GPa) = 33.45464 42.03501 37.74482
#
# Velocity S-wave (km/s) = 3.61059 4.04720 3.83511
# Velocity P-wave (km/s) = 5.47018 6.72156 6.12790
#
# Compressibility (1/GPa) = 0.03107168
#
# Stress axis : x y z
#
# Youngs Moduli (GPa) = 49.25476 133.38789 55.20311
#
# Poissons Ratio (x) = 0.79245 -0.17143
# Poissons Ratio (y) = 0.29262 0.25316
# Poissons Ratio (z) = -0.15296 0.61171
#
# Static dielectric constant tensor:
#      x y z
#    x 2.585530 0.000000 -0.022000 
#    y 0.000000 2.022010 0.000000 
#    z -0.022000 0.000000 2.134440 
# 
# From -- ./inp_files/227513.got.cif
#   From: 2010.05.17/outbox.cif.g08.bks.cpg/sg15_114_cif.got.tgz:227513.got - 2010.06.03 18:47:42.
