data_PCOD9264938
_publ_section_title
;
Structure prediction by ZEFSAII (Michael W. Deem and Ramdas Pophale) SiO2 
 PCOD9264938
Probable space group: C 2/C
;
_chemical_formula_sum "Si O2"
_cell_formula_units_Z 32
_cell_length_a 17.349268
_cell_length_b 10.787420
_cell_length_c 8.411961
_cell_angle_alpha 90.000000
_cell_angle_beta 127.611698
_cell_angle_gamma 90.000000
_cell_volume 1247.129850
_symmetry_space_group_name_H-M "C 2/C"
_symmetry_group_IT_number 15
_symmetry_cell_setting 'monoclinic'
loop_
_space_group_symop_operation_xyz
x,y,z
-x,y,1/2-z
-x,-y,-z
x,-y,1/2+z
1/2+x,1/2+y,z
1/2-x,1/2+y,1/2-z
1/2-x,1/2-y,-z
1/2+x,1/2-y,1/2+z
loop_
_atom_site_type_symbol
_atom_site_label
_atom_site_fract_x
_atom_site_fract_y
_atom_site_fract_z
Si Si1 0.130142 0.228122 0.997413
Si Si2 0.280174 0.111933 0.389352
Si Si3 0.558154 0.779126 0.565720
Si Si4 0.160275 0.944582 0.044268
O O1 0.234034 0.215151 0.212232
O O2 0.113005 0.079179 0.945242
O O3 0.111151 0.292732 0.805314
O O4 0.054296 0.281878 0.029257
O O5 0.394233 0.128938 0.503986
O O6 0.217192 0.115969 0.469026
O O7 0.245120 0.981827 0.274127
O O8 0.581206 0.644862 0.520035
#
# Coordination Sequence:
#
# PCOD9264938 Si02
#       4
#     8   8   8   8
#     4   9  20  34  56  81 112 140 185 227 277 317
#     4  10  21  34  58  83 114 146 183 230 276 329
#     4  11  19  35  58  85 111 146 185 230 279 324
#     4  10  19  36  54  86 113 142 186 230 275 324
#
# _framework density 25.658915
#
# number of rings (size 3 to 8) (size 9 to 14) (size 15 to 20)
#    1.500    0.500    2.500    2.250    0.000    1.000 
#    0.000    0.000    0.000   13.500    0.000    0.000 
#    0.000    0.000    0.000    0.000    0.000    0.000 
#
# Total GULP energy -89265.867493 kJ/mol
# GULP energy per Si atom -5579.116718 kJ/mol
# Density = 2.560051 g / cm^3
# Si number density = 25.658915 Si / 1000 Ang^3
#
#
#
# Elastic Constant Matrix: (Units=GPa)
#
#
# Indices 1 2 3 4 5 6 
#
# 1 205.7463 -15.8642 13.1558 0.0000 -3.8460 0.0000
# 2 -15.8642 34.9169 -8.2558 0.0000 0.7896 0.0000
# 3 13.1558 -8.2558 36.8204 0.0000 -4.6800 0.0000
# 4 0.0000 0.0000 0.0000 18.2757 0.0000 -7.3027
# 5 -3.8460 0.7896 -4.6800 0.0000 23.8505 0.0000
# 6 0.0000 0.0000 0.0000 -7.3027 0.0000 22.1328
#
#
#
# Elastic Compliance Matrix: (Units=1/GPa)
#
#
# Indices 1 2 3 4 5 6 
#
# 1 0.005108 0.001999 -0.001313 0.000000 0.000500 0.000000
# 2 0.001999 0.031028 0.006311 0.000000 0.000533 0.000000
# 3 -0.001313 0.006311 0.029731 0.000000 0.005413 0.000000
# 4 0.000000 0.000000 0.000000 0.063027 0.000000 0.020796
# 5 0.000500 0.000533 0.005413 0.000000 0.043053 0.000000
# 6 0.000000 0.000000 0.000000 0.020796 0.000000 0.052043
#
#
# Mechanical properties :
#
#
# Convention : Reuss Voigt Hill
#
# Bulk Modulus (GPa) = 12.52209 28.39500 20.45855
# Shear Modulus (GPa) = 21.13115 32.08166 26.60640
#
# Velocity S-wave (km/s) = 2.87285 3.53981 3.22363
# Velocity P-wave (km/s) = 3.98688 5.27232 4.67400
#
# Compressibility (1/GPa) = 0.07985885
#
# Stress axis : x y z
#
# Youngs Moduli (GPa) = 195.77916 32.22931 33.63484
#
# Poissons Ratio (x) = -0.06442 0.04417
# Poissons Ratio (y) = -0.39134 -0.21226
# Poissons Ratio (z) = 0.25711 -0.20339
#
# Static dielectric constant tensor:
#      x y z
#    x 1.970220 0.000000 -0.004820 
#    y 0.000000 2.098910 0.000000 
#    z -0.004820 0.000000 2.085220 
# 
# From -- ./inp_files/36734.got.cif
#   From: 2010.05.17/outbox.cif.g08.bks.cpg/sg15_19_cif.got.tgz:36734.got - 2010.06.03 18:47:42.
