data_PCOD9264772
_publ_section_title
;
Structure prediction by ZEFSAII (Michael W. Deem and Ramdas Pophale) SiO2 
 PCOD9264772
Probable space group: C 2/C
;
_chemical_formula_sum "Si O2"
_cell_formula_units_Z 56
_cell_length_a 9.394980
_cell_length_b 18.131230
_cell_length_c 15.025998
_cell_angle_alpha 90.000000
_cell_angle_beta 68.275958
_cell_angle_gamma 90.000000
_cell_volume 2377.779476
_symmetry_space_group_name_H-M "C 2/C"
_symmetry_group_IT_number 15
_symmetry_cell_setting 'monoclinic'
loop_
_space_group_symop_operation_xyz
x,y,z
-x,y,1/2-z
-x,-y,-z
x,-y,1/2+z
1/2+x,1/2+y,z
1/2-x,1/2+y,1/2-z
1/2-x,1/2-y,-z
1/2+x,1/2-y,1/2+z
loop_
_atom_site_type_symbol
_atom_site_label
_atom_site_fract_x
_atom_site_fract_y
_atom_site_fract_z
Si Si1 0.984997 0.621199 0.147062
Si Si2 0.459947 0.428649 0.859062
Si Si3 0.422022 0.730183 0.436194
Si Si4 0.165577 0.504570 0.914950
Si Si5 0.898976 0.635012 0.696470
Si Si6 0.352134 0.741845 0.731909
Si Si7 0.809759 0.146849 0.087970
O O1 0.159305 0.621291 0.069288
O O2 0.000000 0.612084 0.250000
O O3 0.861801 0.562781 0.146451
O O4 0.915823 0.701415 0.145411
O O5 0.500000 0.451912 0.750000
O O6 0.415340 0.341127 0.871297
O O7 0.322180 0.479963 0.926312
O O8 0.387675 0.423962 0.616040
O O9 0.250000 0.750000 0.500000
O O10 0.497840 0.803145 0.376494
O O11 0.543494 0.693846 0.479888
O O12 0.169647 0.579380 0.858974
O O13 0.000000 0.500000 0.000000
O O14 0.760458 0.679448 0.773498
O O15 0.000000 0.597661 0.750000
O O16 0.500000 0.711886 0.750000
O O17 0.259328 0.794897 0.823197
#
# Coordination Sequence:
#
# PCOD9264772 Si02
#       7
#     8   8   8   8   8   8   8
#     4   9  17  36  65  87 116 164 214 253 312 391
#     4  10  19  35  63  86 110 169 222 242 302 402
#     4   9  18  34  62  89 118 151 204 262 316 372
#     4  12  26  39  58  91 136 169 204 270 341 378
#     4  11  23  38  60  94 128 157 217 272 308 375
#     4   8  16  34  63  92 119 151 206 271 306 369
#     4   7  16  30  59  87 106 151 214 240 293 381
#
# _framework density 23.551383999999999
#
# number of rings (size 3 to 8) (size 9 to 14) (size 15 to 20)
#    0.857    2.000    0.000    3.429    2.000    0.571 
#    0.000    0.714    6.286    7.714    0.000    0.000 
#    0.000    0.000    0.000    0.000    0.000    0.000 
#
# Total GULP energy -155960.165633 kJ/mol
# GULP energy per Si atom -5570.005915 kJ/mol
# Density = 2.349778 g / cm^3
# Si number density = 23.551384 Si / 1000 Ang^3
#
#
#
# Elastic Constant Matrix: (Units=GPa)
#
#
# Indices 1 2 3 4 5 6 
#
# 1 118.4180 29.1792 18.1305 0.0000 -36.6341 0.0000
# 2 29.1792 63.0538 11.6459 0.0000 -9.4400 0.0000
# 3 18.1305 11.6459 38.2407 0.0000 -26.5118 0.0000
# 4 0.0000 0.0000 0.0000 16.8734 0.0000 -10.9487
# 5 -36.6341 -9.4400 -26.5118 0.0000 40.1902 0.0000
# 6 0.0000 0.0000 0.0000 -10.9487 0.0000 36.7368
#
#
#
# Elastic Compliance Matrix: (Units=1/GPa)
#
#
# Indices 1 2 3 4 5 6 
#
# 1 0.013331 -0.004969 0.005175 0.000000 0.014398 0.000000
# 2 -0.004969 0.018681 -0.006323 0.000000 -0.004313 0.000000
# 3 0.005175 -0.006323 0.051344 0.000000 0.037102 0.000000
# 4 0.000000 0.000000 0.000000 0.073474 0.000000 0.021897
# 5 0.014398 -0.004313 0.037102 0.000000 0.061467 0.000000
# 6 0.000000 0.000000 0.000000 0.021897 0.000000 0.033747
#
#
# Mechanical properties :
#
#
# Convention : Reuss Voigt Hill
#
# Bulk Modulus (GPa) = 14.06053 37.51372 25.78713
# Shear Modulus (GPa) = 17.36190 29.47720 23.41955
#
# Velocity S-wave (km/s) = 2.71807 3.54165 3.15684
# Velocity P-wave (km/s) = 3.97916 5.71729 4.92550
#
# Compressibility (1/GPa) = 0.07112107
#
# Stress axis : x y z
#
# Youngs Moduli (GPa) = 75.01289 53.52938 19.47634
#
# Poissons Ratio (x) = 0.26601 -0.10079
# Poissons Ratio (y) = 0.37277 0.12315
# Poissons Ratio (z) = -0.38818 0.33848
#
# Static dielectric constant tensor:
#      x y z
#    x 1.925650 0.000000 -0.006060 
#    y 0.000000 1.932550 0.000000 
#    z -0.006060 0.000000 1.991720 
# 
# From -- ./inp_files/239513.got.cif
#   From: 2010.05.17/outbox.cif.g08.bks.cpg/sg15_120_cif.got.tgz:239513.got - 2010.06.03 18:47:42.
