data_PCOD9264704
_publ_section_title
;
Structure prediction by ZEFSAII (Michael W. Deem and Ramdas Pophale) SiO2 
 PCOD9264704
Probable space group: C 2/C
;
_chemical_formula_sum "Si O2"
_cell_formula_units_Z 44
_cell_length_a 24.532098
_cell_length_b 10.639441
_cell_length_c 13.438033
_cell_angle_alpha 90.000000
_cell_angle_beta 37.863957
_cell_angle_gamma 90.000000
_cell_volume 2152.821820
_symmetry_space_group_name_H-M "C 2/C"
_symmetry_group_IT_number 15
_symmetry_cell_setting 'monoclinic'
loop_
_space_group_symop_operation_xyz
x,y,z
-x,y,1/2-z
-x,-y,-z
x,-y,1/2+z
1/2+x,1/2+y,z
1/2-x,1/2+y,1/2-z
1/2-x,1/2-y,-z
1/2+x,1/2-y,1/2+z
loop_
_atom_site_type_symbol
_atom_site_label
_atom_site_fract_x
_atom_site_fract_y
_atom_site_fract_z
Si Si1 0.313062 0.499557 0.221959
Si Si2 0.000000 0.427497 0.750000
Si Si3 0.916441 0.066262 0.759582
Si Si4 0.687947 0.640102 0.982858
Si Si5 0.662288 0.081257 0.576756
Si Si6 0.102133 0.802920 0.022740
O O1 0.386749 0.441350 0.188937
O O2 0.306106 0.416072 0.134725
O O3 0.225961 0.498275 0.415025
O O4 0.331073 0.643275 0.156424
O O5 0.067799 0.513046 0.715512
O O6 0.058752 0.334487 0.594562
O O7 0.867793 0.162318 0.907508
O O8 0.018180 0.105293 0.621513
O O9 0.887917 0.933509 0.846125
O O10 0.780980 0.609380 0.905198
O O11 0.659699 0.783648 0.028266
#
# Coordination Sequence:
#
# PCOD9264704 Si02
#       6
#     8   4   8   8   8   8
#     4  10  19  35  62  86 110 158 207 240 287 350
#     4  10  22  40  58  84 124 154 184 240 320 338
#     4   8  16  34  59  84 111 152 193 245 287 341
#     4   9  20  39  59  82 115 154 207 234 295 348
#     4  10  22  39  59  81 122 159 187 255 290 356
#     4   9  19  36  58  88 124 149 192 252 289 355
#
# _framework density 20.438292000000001
#
# number of rings (size 3 to 8) (size 9 to 14) (size 15 to 20)
#    0.000    2.909    0.000    0.545    2.545    2.909 
#    6.545   10.909    0.000    0.000    0.000    0.000 
#    0.000    0.000    0.000    0.000    0.000    0.000 
#
# Total GULP energy -122514.632812 kJ/mol
# GULP energy per Si atom -5568.846946 kJ/mol
# Density = 2.039177 g / cm^3
# Si number density = 20.438292 Si / 1000 Ang^3
#
#
#
# Elastic Constant Matrix: (Units=GPa)
#
#
# Indices 1 2 3 4 5 6 
#
# 1 100.5334 56.7482 26.9589 0.0000 18.5414 0.0000
# 2 56.7482 97.0607 10.2203 0.0000 -10.2334 0.0000
# 3 26.9589 10.2203 32.9817 0.0000 4.6625 0.0000
# 4 0.0000 0.0000 0.0000 23.9981 0.0000 -9.5212
# 5 18.5414 -10.2334 4.6625 0.0000 32.3501 0.0000
# 6 0.0000 0.0000 0.0000 -9.5212 0.0000 23.0188
#
#
#
# Elastic Compliance Matrix: (Units=1/GPa)
#
#
# Indices 1 2 3 4 5 6 
#
# 1 0.025435 -0.015280 -0.013588 0.000000 -0.017453 0.000000
# 2 -0.015280 0.020342 0.004123 0.000000 0.014598 0.000000
# 3 -0.013588 0.004123 0.039672 0.000000 0.003374 0.000000
# 4 0.000000 0.000000 0.000000 0.049851 0.000000 0.020620
# 5 -0.017453 0.014598 0.003374 0.000000 0.045047 0.000000
# 6 0.000000 0.000000 0.000000 0.020620 0.000000 0.051972
#
#
# Mechanical properties :
#
#
# Convention : Reuss Voigt Hill
#
# Bulk Modulus (GPa) = 27.81047 46.49228 37.15137
# Shear Modulus (GPa) = 17.01871 24.98327 21.00099
#
# Velocity S-wave (km/s) = 2.88876 3.50004 3.20899
# Velocity P-wave (km/s) = 4.97626 6.25546 5.65216
#
# Compressibility (1/GPa) = 0.03595769
#
# Stress axis : x y z
#
# Youngs Moduli (GPa) = 39.31615 49.15996 25.20681
#
# Poissons Ratio (x) = 0.75118 0.34251
# Poissons Ratio (y) = 0.60076 -0.10392
# Poissons Ratio (z) = 0.53422 -0.20268
#
# Static dielectric constant tensor:
#      x y z
#    x 1.750710 0.000000 -0.015590 
#    y 0.000000 1.755410 0.000000 
#    z -0.015590 0.000000 1.771690 
# 
# From -- ./inp_files/176433.got.cif
#   From: 2010.05.17/outbox.cif.g08.bks.cpg/sg15_89_cif.got.tgz:176433.got - 2010.06.03 18:47:42.
