data_PCOD9264001
_publ_section_title
;
Structure prediction by ZEFSAII (Michael W. Deem and Ramdas Pophale) SiO2 
 PCOD9264001
Probable space group: C 2/C
;
_chemical_formula_sum "Si O2"
_cell_formula_units_Z 56
_cell_length_a 5.317399
_cell_length_b 25.356139
_cell_length_c 20.691380
_cell_angle_alpha 90.000000
_cell_angle_beta 79.621157
_cell_angle_gamma 90.000000
_cell_volume 2744.145632
_symmetry_space_group_name_H-M "C 2/C"
_symmetry_group_IT_number 15
_symmetry_cell_setting 'monoclinic'
loop_
_space_group_symop_operation_xyz
x,y,z
-x,y,1/2-z
-x,-y,-z
x,-y,1/2+z
1/2+x,1/2+y,z
1/2-x,1/2+y,1/2-z
1/2-x,1/2-y,-z
1/2+x,1/2-y,1/2+z
loop_
_atom_site_type_symbol
_atom_site_label
_atom_site_fract_x
_atom_site_fract_y
_atom_site_fract_z
Si Si1 0.717546 0.046047 0.099980
Si Si2 0.383145 0.350481 0.400883
Si Si3 0.033659 0.252948 0.955512
Si Si4 0.842548 0.972824 0.817255
Si Si5 0.011072 0.635071 0.030013
Si Si6 0.146002 0.411053 0.310674
Si Si7 0.745210 0.433202 0.444887
O O1 0.446985 0.044921 0.152047
O O2 0.705419 0.100683 0.062724
O O3 0.961699 0.036538 0.133532
O O4 0.735785 0.996133 0.050582
O O5 0.547758 0.298053 0.407938
O O6 0.134388 0.344274 0.457408
O O7 0.316787 0.363164 0.330058
O O8 0.502528 0.404093 0.425190
O O9 0.066430 0.312586 0.927642
O O10 0.750000 0.250000 0.000000
O O11 0.250000 0.250000 0.000000
O O12 0.000000 0.948442 0.750000
O O13 0.801411 0.034506 0.802740
O O14 0.805030 0.594612 0.010251
O O15 0.000000 0.402792 0.250000
O O16 0.947744 0.420833 0.378315
#
# Coordination Sequence:
#
# PCOD9264001 Si02
#       7
#     8   8   8   8   8   8   8
#     4  11  23  35  57  86 118 153 190 236 297 352
#     4  10  20  35  57  84 119 151 197 245 296 349
#     4  10  20  36  58  80 113 154 194 236 283 348
#     4  11  22  39  57  83 112 152 197 240 283 349
#     4  10  22  35  55  85 119 156 193 233 293 355
#     4  10  21  35  56  84 115 152 194 243 295 349
#     4  10  19  35  52  85 119 152 184 238 292 350
#
# _framework density 20.407079
#
# number of rings (size 3 to 8) (size 9 to 14) (size 15 to 20)
#    0.000    1.714    2.857    2.571    2.000    0.571 
#    0.000    0.000    0.000    0.857    3.714    0.000 
#    0.000    0.000    0.000    0.000    0.000    0.000 
#
# Total GULP energy -155957.274504 kJ/mol
# GULP energy per Si atom -5569.902661 kJ/mol
# Density = 2.036063 g / cm^3
# Si number density = 20.407079 Si / 1000 Ang^3
#
#
#
# Elastic Constant Matrix: (Units=GPa)
#
#
# Indices 1 2 3 4 5 6 
#
# 1 102.8993 10.3249 36.9226 0.0000 12.1268 0.0000
# 2 10.3249 121.1575 32.5606 0.0000 30.0528 0.0000
# 3 36.9226 32.5606 72.1570 0.0000 17.2154 0.0000
# 4 0.0000 0.0000 0.0000 14.3854 0.0000 6.2775
# 5 12.1268 30.0528 17.2154 0.0000 54.2710 0.0000
# 6 0.0000 0.0000 0.0000 6.2775 0.0000 12.8993
#
#
#
# Elastic Compliance Matrix: (Units=1/GPa)
#
#
# Indices 1 2 3 4 5 6 
#
# 1 0.012026 0.000973 -0.006300 0.000000 -0.001227 0.000000
# 2 0.000973 0.010434 -0.004085 0.000000 -0.004700 0.000000
# 3 -0.006300 -0.004085 0.019528 0.000000 -0.002525 0.000000
# 4 0.000000 0.000000 0.000000 0.088258 0.000000 -0.042951
# 5 -0.001227 -0.004700 -0.002525 0.000000 0.022104 0.000000
# 6 0.000000 0.000000 0.000000 -0.042951 0.000000 0.098426
#
#
# Mechanical properties :
#
#
# Convention : Reuss Voigt Hill
#
# Bulk Modulus (GPa) = 43.17010 50.64777 46.90893
# Shear Modulus (GPa) = 18.02965 30.73818 24.38392
#
# Velocity S-wave (km/s) = 2.97560 3.88526 3.46045
# Velocity P-wave (km/s) = 5.74508 6.70817 6.24522
#
# Compressibility (1/GPa) = 0.02316418
#
# Stress axis : x y z
#
# Youngs Moduli (GPa) = 83.15501 95.83709 51.20900
#
# Poissons Ratio (x) = -0.09321 0.32260
# Poissons Ratio (y) = -0.08088 0.20918
# Poissons Ratio (z) = 0.52384 0.39149
#
# Static dielectric constant tensor:
#      x y z
#    x 1.829050 0.000000 -0.038920 
#    y 0.000000 1.825650 0.000000 
#    z -0.038920 0.000000 1.758270 
# 
# From -- ./inp_files/228352.got.cif
#   From: 2010.05.17/outbox.cif.g08.bks.cpg/sg15_115_cif.got.tgz:228352.got - 2010.06.03 18:47:42.
