data_PCOD9264469
_publ_section_title
;
Structure prediction by ZEFSAII (Michael W. Deem and Ramdas Pophale) SiO2 
 PCOD9264469
Probable space group: C 2/C
;
_chemical_formula_sum "Si O2"
_cell_formula_units_Z 52
_cell_length_a 18.019719
_cell_length_b 16.902216
_cell_length_c 10.020278
_cell_angle_alpha 90.000000
_cell_angle_beta 50.263745
_cell_angle_gamma 90.000000
_cell_volume 2346.902600
_symmetry_space_group_name_H-M "C 2/C"
_symmetry_group_IT_number 15
_symmetry_cell_setting 'monoclinic'
loop_
_space_group_symop_operation_xyz
x,y,z
-x,y,1/2-z
-x,-y,-z
x,-y,1/2+z
1/2+x,1/2+y,z
1/2-x,1/2+y,1/2-z
1/2-x,1/2-y,-z
1/2+x,1/2-y,1/2+z
loop_
_atom_site_type_symbol
_atom_site_label
_atom_site_fract_x
_atom_site_fract_y
_atom_site_fract_z
Si Si1 0.215247 0.095479 0.129150
Si Si2 0.788333 0.494055 0.805317
Si Si3 0.047935 0.205810 0.412358
Si Si4 0.335007 0.162038 0.357610
Si Si5 0.340841 0.767081 0.573373
Si Si6 0.500000 0.715675 0.750000
Si Si7 0.695168 0.844196 0.316427
O O1 0.228854 0.047466 0.253874
O O2 0.115475 0.145320 0.253916
O O3 0.303683 0.161245 0.024059
O O4 0.226847 0.031836 0.997431
O O5 0.858184 0.426909 0.785422
O O6 0.840089 0.569116 0.681000
O O7 0.113979 0.280674 0.375219
O O8 0.952647 0.243904 0.454599
O O9 0.021355 0.169589 0.588857
O O10 0.297659 0.201208 0.265102
O O11 0.416693 0.223058 0.305190
O O12 0.274847 0.153407 0.561904
O O13 0.285893 0.684242 0.624900
#
# Coordination Sequence:
#
# PCOD9264469 Si02
#       7
#     8   8   8   8   8   4   8
#     4  10  22  40  63  89 123 162 198 250 304 364
#     4  11  21  38  57  89 124 160 197 239 316 363
#     4   9  19  37  61  90 117 154 209 250 293 353
#     4   9  17  34  57  83 117 150 198 239 301 354
#     4   9  19  36  62  88 113 157 205 249 295 353
#     4   8  16  34  58  90 110 150 204 250 286 348
#     4  10  19  35  59  85 115 158 198 253 290 354
#
# _framework density 22.156863000000001
#
# number of rings (size 3 to 8) (size 9 to 14) (size 15 to 20)
#    0.000    2.462    1.538    0.462    0.000    6.154 
#    2.769    6.154    3.385    0.000    0.000    0.000 
#    0.000    0.000    0.000    0.000    0.000    0.000 
#
# Total GULP energy -144765.407464 kJ/mol
# GULP energy per Si atom -5567.900287 kJ/mol
# Density = 2.210643 g / cm^3
# Si number density = 22.156863 Si / 1000 Ang^3
#
#
#
# Elastic Constant Matrix: (Units=GPa)
#
#
# Indices 1 2 3 4 5 6 
#
# 1 88.6512 10.3455 34.2326 0.0000 6.9359 0.0000
# 2 10.3455 -58.3063 -62.0412 0.0000 21.3019 0.0000
# 3 34.2326 -62.0412 40.1448 0.0000 27.7414 0.0000
# 4 0.0000 0.0000 0.0000 26.4486 0.0000 16.9688
# 5 6.9359 21.3019 27.7414 0.0000 42.2120 0.0000
# 6 0.0000 0.0000 0.0000 16.9688 0.0000 1.5178
#
#
#
# Elastic Compliance Matrix: (Units=1/GPa)
#
#
# Indices 1 2 3 4 5 6 
#
# 1 0.011969 0.003948 -0.002508 0.000000 -0.002311 0.000000
# 2 0.003948 -0.001701 -0.011250 0.000000 0.007604 0.000000
# 3 -0.002508 -0.011250 0.009991 0.000000 -0.000477 0.000000
# 4 0.000000 0.000000 0.000000 -0.006125 0.000000 0.068479
# 5 -0.002311 0.007604 -0.000477 0.000000 0.020546 0.000000
# 6 0.000000 0.000000 0.000000 0.068479 0.000000 -0.106735
#
#
# Mechanical properties :
#
#
# Convention : Reuss Voigt Hill
#
# Bulk Modulus (GPa) = 1567.59209 3.95151 785.77180
# Shear Modulus (GPa) = -95.74390 19.89919 -37.92235
#
# Velocity S-wave (km/s) = -6.58070 3.00009 -4.14156
# Velocity P-wave (km/s) = 25.52043 3.71322 18.23568
#
# Compressibility (1/GPa) = 0.00063792
#
# Stress axis : x y z
#
# Youngs Moduli (GPa) = 83.55162 -587.73539 100.08828
#
# Poissons Ratio (x) = 2.32036 0.25101
# Poissons Ratio (y) = -0.32986 1.12602
# Poissons Ratio (z) = 0.20954 -6.61220
#
# Static dielectric constant tensor:
#      x y z
#    x 1.894190 0.000000 0.088680 
#    y 0.000000 1.839010 0.000000 
#    z 0.088680 0.000000 1.921260 
# 
# From -- ./inp_files/113610.got.cif
#   From: 2010.05.17/outbox.cif.g08.bks.cpg/sg15_57_cif.got.tgz:113610.got - 2010.06.03 18:47:42.
