data_PCOD9264681
_publ_section_title
;
Structure prediction by ZEFSAII (Michael W. Deem and Ramdas Pophale) SiO2 
 PCOD9264681
Probable space group: C 2/C
;
_chemical_formula_sum "Si O2"
_cell_formula_units_Z 52
_cell_length_a 17.713677
_cell_length_b 10.926830
_cell_length_c 13.609316
_cell_angle_alpha 90.000000
_cell_angle_beta 125.910466
_cell_angle_gamma 90.000000
_cell_volume 2133.482640
_symmetry_space_group_name_H-M "C 2/C"
_symmetry_group_IT_number 15
_symmetry_cell_setting 'monoclinic'
loop_
_space_group_symop_operation_xyz
x,y,z
-x,y,1/2-z
-x,-y,-z
x,-y,1/2+z
1/2+x,1/2+y,z
1/2-x,1/2+y,1/2-z
1/2-x,1/2-y,-z
1/2+x,1/2-y,1/2+z
loop_
_atom_site_type_symbol
_atom_site_label
_atom_site_fract_x
_atom_site_fract_y
_atom_site_fract_z
Si Si1 0.299113 0.075716 0.528390
Si Si2 0.095545 0.965736 0.943892
Si Si3 0.672013 0.820856 0.230820
Si Si4 0.715872 0.547013 0.208399
Si Si5 0.826385 0.328363 0.617085
Si Si6 0.000000 0.833378 0.250000
Si Si7 0.527500 0.197931 0.883587
O O1 0.187762 0.049255 0.442723
O O2 0.307126 0.144558 0.639708
O O3 0.368094 0.151976 0.510966
O O4 0.349990 0.944861 0.568795
O O5 0.037020 0.843408 0.893373
O O6 0.036328 0.079407 0.862872
O O7 0.130555 0.994325 0.079793
O O8 0.688629 0.673971 0.240482
O O9 0.562776 0.841764 0.124285
O O10 0.733227 0.921350 0.215995
O O11 0.783904 0.606625 0.179185
O O12 0.750000 0.250000 0.500000
O O13 0.913594 0.249220 0.712903
O O14 0.500000 0.162143 0.750000
#
# Coordination Sequence:
#
# PCOD9264681 Si02
#       7
#     8   8   8   8   8   4   8
#     4   9  20  38  62  87 125 159 204 262 311 366
#     4  10  20  36  60  92 122 156 203 257 319 368
#     4   9  21  39  63  87 124 172 209 250 313 368
#     4  10  22  43  59  89 129 169 207 253 318 374
#     4  10  20  37  62  91 126 161 206 262 314 368
#     4  12  20  34  62  98 124 158 202 258 318 370
#     4  10  19  35  61  92 118 158 211 257 307 375
#
# _framework density 24.373294000000001
#
# number of rings (size 3 to 8) (size 9 to 14) (size 15 to 20)
#    0.000    2.462    3.846    0.462    5.385    1.846 
#    0.000    3.077    0.000   10.154    0.000    0.000 
#    0.000    0.000    0.000    0.000    0.000    0.000 
#
# Total GULP energy -145056.571269 kJ/mol
# GULP energy per Si atom -5579.098895 kJ/mol
# Density = 2.431782 g / cm^3
# Si number density = 24.373294 Si / 1000 Ang^3
#
#
#
# Elastic Constant Matrix: (Units=GPa)
#
#
# Indices 1 2 3 4 5 6 
#
# 1 48.3101 35.0283 36.4198 0.0000 20.1817 0.0000
# 2 35.0283 106.0337 23.4465 0.0000 10.6584 0.0000
# 3 36.4198 23.4465 86.8649 0.0000 28.6543 0.0000
# 4 0.0000 0.0000 0.0000 -25.2223 0.0000 69.4720
# 5 20.1817 10.6584 28.6543 0.0000 30.5802 0.0000
# 6 0.0000 0.0000 0.0000 69.4720 0.0000 2.2899
#
#
#
# Elastic Compliance Matrix: (Units=1/GPa)
#
#
# Indices 1 2 3 4 5 6 
#
# 1 0.041581 -0.010078 -0.009871 0.000000 -0.014680 0.000000
# 2 -0.010078 0.012513 0.000134 0.000000 0.002164 0.000000
# 3 -0.009871 0.000134 0.019512 0.000000 -0.011816 0.000000
# 4 0.000000 0.000000 0.000000 -0.000469 0.000000 0.014224
# 5 -0.014680 0.002164 -0.011816 0.000000 0.052706 0.000000
# 6 0.000000 0.000000 0.000000 0.014224 0.000000 0.005164
#
#
# Mechanical properties :
#
#
# Convention : Reuss Voigt Hill
#
# Bulk Modulus (GPa) = 29.43225 47.88867 38.66046
# Shear Modulus (GPa) = 27.47816 11.28384 19.38100
#
# Velocity S-wave (km/s) = 3.36130 2.15398 2.82294
# Velocity P-wave (km/s) = 5.21213 5.08693 5.14991
#
# Compressibility (1/GPa) = 0.03397634
#
# Stress axis : x y z
#
# Youngs Moduli (GPa) = 24.04957 79.91656 51.25010
#
# Poissons Ratio (x) = 0.80539 0.50588
# Poissons Ratio (y) = 0.24237 -0.00686
# Poissons Ratio (z) = 0.23739 -0.01070
#
# Static dielectric constant tensor:
#      x y z
#    x 2.158940 0.000000 -0.083980 
#    y 0.000000 1.982650 0.000000 
#    z -0.083980 0.000000 2.015950 
# 
# From -- ./inp_files/215092.got.cif
#   From: 2010.05.17/outbox.cif.g08.bks.cpg/sg15_108_cif.got.tgz:215092.got - 2010.06.03 18:47:42.
