data_PCOD9264257
_publ_section_title
;
Structure prediction by ZEFSAII (Michael W. Deem and Ramdas Pophale) SiO2 
 PCOD9264257
Probable space group: C 2/C
;
_chemical_formula_sum "Si O2"
_cell_formula_units_Z 56
_cell_length_a 14.847335
_cell_length_b 12.750809
_cell_length_c 16.573152
_cell_angle_alpha 90.000000
_cell_angle_beta 108.900795
_cell_angle_gamma 90.000000
_cell_volume 2968.380841
_symmetry_space_group_name_H-M "C 2/C"
_symmetry_group_IT_number 15
_symmetry_cell_setting 'monoclinic'
loop_
_space_group_symop_operation_xyz
x,y,z
-x,y,1/2-z
-x,-y,-z
x,-y,1/2+z
1/2+x,1/2+y,z
1/2-x,1/2+y,1/2-z
1/2-x,1/2-y,-z
1/2+x,1/2-y,1/2+z
loop_
_atom_site_type_symbol
_atom_site_label
_atom_site_fract_x
_atom_site_fract_y
_atom_site_fract_z
Si Si1 0.100437 0.955394 0.408955
Si Si2 0.654145 0.868276 0.772609
Si Si3 0.000000 0.196085 0.750000
Si Si4 0.556075 0.415586 0.682756
Si Si5 0.266363 0.487267 0.199811
Si Si6 0.000000 0.460887 0.250000
Si Si7 0.687736 0.299264 0.552322
Si Si8 0.107722 0.318776 0.159447
O O1 0.134295 0.897923 0.498810
O O2 0.044696 0.872378 0.335054
O O3 0.190061 0.987646 0.377683
O O4 0.025629 0.048899 0.402573
O O5 0.583868 0.770720 0.741725
O O6 0.697629 0.916068 0.703123
O O7 0.738263 0.835313 0.857361
O O8 0.589665 0.962403 0.790890
O O9 0.500000 0.422538 0.750000
O O10 0.643652 0.495815 0.715073
O O11 0.595061 0.298122 0.690098
O O12 0.206172 0.382722 0.200243
O O13 0.028523 0.389316 0.181184
O O14 0.750000 0.250000 0.500000
O O15 0.615200 0.212141 0.567025
#
# Coordination Sequence:
#
# PCOD9264257 Si02
#       8
#     8   8   4   8   8   4   8   8
#     4  11  22  36  56  87 118 146 193 242 291 342
#     4  10  21  36  58  83 114 154 198 234 286 341
#     4  11  18  35  56  80 114 147 198 243 268 348
#     4  10  20  34  56  85 109 145 190 242 274 332
#     4  10  19  35  57  84 109 154 197 233 277 347
#     4   9  22  39  60  86 112 159 200 239 272 354
#     4  12  22  36  59  89 119 153 183 247 303 340
#     4  11  20  37  60  84 118 151 196 237 291 339
#
# _framework density 18.865504000000001
#
# number of rings (size 3 to 8) (size 9 to 14) (size 15 to 20)
#    0.000    1.429    7.143    0.000    0.000    0.571 
#    0.000    2.143    0.000    0.857    0.000    0.000 
#    0.000    0.000    0.000    0.000    0.000    0.000 
#
# Total GULP energy -155889.252318 kJ/mol
# GULP energy per Si atom -5567.473297 kJ/mol
# Density = 1.882256 g / cm^3
# Si number density = 18.865504 Si / 1000 Ang^3
#
#
#
# Elastic Constant Matrix: (Units=GPa)
#
#
# Indices 1 2 3 4 5 6 
#
# 1 105.7761 37.6722 14.3421 0.0000 -14.7452 0.0000
# 2 37.6722 92.2583 14.2002 0.0000 -0.4974 0.0000
# 3 14.3421 14.2002 31.0020 0.0000 -5.7796 0.0000
# 4 0.0000 0.0000 0.0000 18.4231 0.0000 -5.4649
# 5 -14.7452 -0.4974 -5.7796 0.0000 27.8628 0.0000
# 6 0.0000 0.0000 0.0000 -5.4649 0.0000 30.5154
#
#
#
# Elastic Compliance Matrix: (Units=1/GPa)
#
#
# Indices 1 2 3 4 5 6 
#
# 1 0.012243 -0.004588 -0.002465 0.000000 0.005886 0.000000
# 2 -0.004588 0.013404 -0.004603 0.000000 -0.003144 0.000000
# 3 -0.002465 -0.004603 0.036664 0.000000 0.006219 0.000000
# 4 0.000000 0.000000 0.000000 0.057325 0.000000 0.010266
# 5 0.005886 -0.003144 0.006219 0.000000 0.040239 0.000000
# 6 0.000000 0.000000 0.000000 0.010266 0.000000 0.034609
#
#
# Mechanical properties :
#
#
# Convention : Reuss Voigt Hill
#
# Bulk Modulus (GPa) = 25.64193 40.16282 32.90237
# Shear Modulus (GPa) = 21.66424 26.21505 23.93964
#
# Velocity S-wave (km/s) = 3.39241 3.73175 3.56612
# Velocity P-wave (km/s) = 5.38201 6.31689 5.86810
#
# Compressibility (1/GPa) = 0.03899862
#
# Stress axis : x y z
#
# Youngs Moduli (GPa) = 81.68188 74.60395 27.27465
#
# Poissons Ratio (x) = 0.34228 0.06723
# Poissons Ratio (y) = 0.37475 0.12555
# Poissons Ratio (z) = 0.20134 0.34342
#
# Static dielectric constant tensor:
#      x y z
#    x 1.731390 0.000000 -0.021960 
#    y 0.000000 1.700120 0.000000 
#    z -0.021960 0.000000 1.654440 
# 
# From -- ./inp_files/204143.got.cif
#   From: 2010.05.17/outbox.cif.g08.bks.cpg/sg15_103_cif.got.tgz:204143.got - 2010.06.03 18:47:42.
