data_PCOD9264489
_publ_section_title
;
Structure prediction by ZEFSAII (Michael W. Deem and Ramdas Pophale) SiO2 
 PCOD9264489
Probable space group: C 2/C
;
_chemical_formula_sum "Si O2"
_cell_formula_units_Z 64
_cell_length_a 24.216521
_cell_length_b 13.079797
_cell_length_c 10.050545
_cell_angle_alpha 90.000000
_cell_angle_beta 86.108574
_cell_angle_gamma 90.000000
_cell_volume 3176.142084
_symmetry_space_group_name_H-M "C 2/C"
_symmetry_group_IT_number 15
_symmetry_cell_setting 'monoclinic'
loop_
_space_group_symop_operation_xyz
x,y,z
-x,y,1/2-z
-x,-y,-z
x,-y,1/2+z
1/2+x,1/2+y,z
1/2-x,1/2+y,1/2-z
1/2-x,1/2-y,-z
1/2+x,1/2-y,1/2+z
loop_
_atom_site_type_symbol
_atom_site_label
_atom_site_fract_x
_atom_site_fract_y
_atom_site_fract_z
Si Si1 0.218490 0.684931 0.704336
Si Si2 0.892862 0.126315 0.097088
Si Si3 0.712773 0.388292 0.551464
Si Si4 0.409771 0.184896 0.765503
Si Si5 0.615483 0.612868 0.880985
Si Si6 0.996468 0.181108 0.902804
Si Si7 0.000106 0.382639 0.039622
Si Si8 0.687318 0.375384 0.117607
O O1 0.242514 0.619912 0.574941
O O2 0.224685 0.804161 0.661119
O O3 0.154403 0.654244 0.728181
O O4 0.256500 0.667903 0.827597
O O5 0.906436 0.195876 0.221873
O O6 0.883188 0.009241 0.132576
O O7 0.839187 0.160136 0.018403
O O8 0.946159 0.133967 0.992424
O O9 0.658035 0.350486 0.484831
O O10 0.700188 0.502813 0.601882
O O11 0.444441 0.153335 0.890330
O O12 0.447550 0.135911 0.643707
O O13 0.555963 0.645109 0.941768
O O14 0.639468 0.649130 0.735067
O O15 0.000000 0.149132 0.750000
O O16 0.992946 0.303148 0.920427
O O17 0.000000 0.500000 0.000000
#
# Coordination Sequence:
#
# PCOD9264489 Si02
#       8
#     8   8   8   8   8   8   8   8
#     4  10  20  37  59  84 115 152 203 241 291 355
#     4  10  21  38  58  89 126 153 195 243 301 366
#     4   9  20  36  57  83 116 159 191 242 294 347
#     4  10  22  41  61  87 111 155 199 244 304 350
#     4  10  19  35  59  86 124 158 190 239 298 366
#     4  11  21  36  59  92 118 153 200 239 291 362
#     4  10  24  43  63  84 117 157 199 253 300 347
#     4  10  20  36  57  87 121 156 194 240 303 350
#
# _framework density 20.150231999999999
#
# number of rings (size 3 to 8) (size 9 to 14) (size 15 to 20)
#    0.000    2.000    1.250    1.875    1.750    2.500 
#    4.500    2.500    0.000    0.000    0.000    0.000 
#    0.000    0.000    0.000    0.000    0.000    0.000 
#
# Total GULP energy -178450.649855 kJ/mol
# GULP energy per Si atom -5576.582808 kJ/mol
# Density = 2.010437 g / cm^3
# Si number density = 20.150232 Si / 1000 Ang^3
#
#
#
# Elastic Constant Matrix: (Units=GPa)
#
#
# Indices 1 2 3 4 5 6 
#
# 1 146.6885 0.9252 25.9563 0.0000 -8.7842 0.0000
# 2 0.9252 40.0380 4.1861 0.0000 12.3670 0.0000
# 3 25.9563 4.1861 44.3543 0.0000 1.1815 0.0000
# 4 0.0000 0.0000 0.0000 19.7473 0.0000 7.1823
# 5 -8.7842 12.3670 1.1815 0.0000 24.3648 0.0000
# 6 0.0000 0.0000 0.0000 7.1823 0.0000 27.4402
#
#
#
# Elastic Compliance Matrix: (Units=1/GPa)
#
#
# Indices 1 2 3 4 5 6 
#
# 1 0.007844 -0.000761 -0.004610 0.000000 0.003438 0.000000
# 2 -0.000761 0.029951 -0.001972 0.000000 -0.015381 0.000000
# 3 -0.004610 -0.001972 0.025480 0.000000 -0.001897 0.000000
# 4 0.000000 0.000000 0.000000 0.055968 0.000000 -0.014649
# 5 0.003438 -0.015381 -0.001897 0.000000 0.050181 0.000000
# 6 0.000000 0.000000 0.000000 -0.014649 0.000000 0.040277
#
#
# Mechanical properties :
#
#
# Convention : Reuss Voigt Hill
#
# Bulk Modulus (GPa) = 20.58061 32.57955 26.58008
# Shear Modulus (GPa) = 20.78290 27.64467 24.21378
#
# Velocity S-wave (km/s) = 3.21502 3.70797 3.47026
# Velocity P-wave (km/s) = 4.90077 5.87669 5.41078
#
# Compressibility (1/GPa) = 0.04858942
#
# Stress axis : x y z
#
# Youngs Moduli (GPa) = 127.49379 33.38792 39.24645
#
# Poissons Ratio (x) = 0.02541 0.18092
# Poissons Ratio (y) = 0.09704 0.07738
# Poissons Ratio (z) = 0.58772 0.06583
#
# Static dielectric constant tensor:
#      x y z
#    x 1.793720 0.000000 0.016820 
#    y 0.000000 1.693150 0.000000 
#    z 0.016820 0.000000 1.768200 
# 
# From -- ./inp_files/117549.got.cif
#   From: 2010.05.17/outbox.cif.g08.bks.cpg/sg15_59_cif.got.tgz:117549.got - 2010.06.03 18:47:42.
