data_PCOD9264210
_publ_section_title
;
Structure prediction by ZEFSAII (Michael W. Deem and Ramdas Pophale) SiO2 
 PCOD9264210
Probable space group: C 2/C
;
_chemical_formula_sum "Si O2"
_cell_formula_units_Z 52
_cell_length_a 14.694907
_cell_length_b 5.656434
_cell_length_c 29.434188
_cell_angle_alpha 90.000000
_cell_angle_beta 54.440605
_cell_angle_gamma 90.000000
_cell_volume 1990.334987
_symmetry_space_group_name_H-M "C 2/C"
_symmetry_group_IT_number 15
_symmetry_cell_setting 'monoclinic'
loop_
_space_group_symop_operation_xyz
x,y,z
-x,y,1/2-z
-x,-y,-z
x,-y,1/2+z
1/2+x,1/2+y,z
1/2-x,1/2+y,1/2-z
1/2-x,1/2-y,-z
1/2+x,1/2-y,1/2+z
loop_
_atom_site_type_symbol
_atom_site_label
_atom_site_fract_x
_atom_site_fract_y
_atom_site_fract_z
Si Si1 0.423505 0.432379 0.178714
Si Si2 0.618034 0.191592 0.394411
Si Si3 0.770098 0.316063 0.201739
Si Si4 0.664213 0.042125 0.670432
Si Si5 0.000000 0.068418 0.250000
Si Si6 0.179121 0.503774 0.569985
Si Si7 0.318341 0.001846 0.531626
O O1 0.461856 0.306971 0.121260
O O2 0.297693 0.357319 0.232137
O O3 0.389806 0.698107 0.176425
O O4 0.494697 0.434437 0.203556
O O5 0.705126 0.405064 0.378765
O O6 0.605461 0.060731 0.446489
O O7 0.692250 0.017529 0.342963
O O8 0.677284 0.174354 0.199993
O O9 0.610311 0.004774 0.636811
O O10 0.602844 0.251516 0.714131
O O11 0.235702 0.770565 0.553990
O O12 0.127007 0.494934 0.534482
O O13 0.256286 0.260802 0.552276
#
# Coordination Sequence:
#
# PCOD9264210 Si02
#       7
#     8   8   8   8   4   8   8
#     4  11  22  34  54  77 112 148 199 240 293 357
#     4  10  19  35  57  78 107 148 194 246 287 351
#     4  11  18  36  54  75 103 151 188 239 287 342
#     4  10  21  34  53  79 117 149 190 238 294 358
#     4  12  24  38  48  84 120 158 194 240 304 366
#     4   9  17  31  54  85 117 144 186 253 303 344
#     4   9  17  31  55  87 111 142 195 249 303 345
#
# _framework density 26.126253999999999
#
# number of rings (size 3 to 8) (size 9 to 14) (size 15 to 20)
#    0.000    1.846    4.615    0.923    0.000    0.615 
#    0.000    0.000    0.000    0.923    0.000    1.077 
#    0.000    0.000    0.000    0.000    0.000    0.615 
#
# Total GULP energy -144754.065066 kJ/mol
# GULP energy per Si atom -5567.464041 kJ/mol
# Density = 2.606679 g / cm^3
# Si number density = 26.126254 Si / 1000 Ang^3
#
#
#
# Elastic Constant Matrix: (Units=GPa)
#
#
# Indices 1 2 3 4 5 6 
#
# 1 79.8489 26.5490 29.1870 0.0113 48.5491 -0.0071
# 2 26.5490 103.2925 36.0339 0.0040 10.9615 -0.0361
# 3 29.1870 36.0339 150.4331 0.0448 49.6647 -0.0291
# 4 0.0113 0.0040 0.0448 46.4606 0.0059 9.8197
# 5 48.5491 10.9615 49.6647 0.0059 54.5293 -0.0037
# 6 -0.0071 -0.0361 -0.0291 9.8197 -0.0037 15.3237
#
#
#
# Elastic Compliance Matrix: (Units=1/GPa)
#
#
# Indices 1 2 3 4 5 6 
#
# 1 0.033299 -0.007217 0.006545 -0.000011 -0.034158 0.000010
# 2 -0.007217 0.012131 -0.004035 -0.000001 0.007662 0.000020
# 3 0.006545 -0.004035 0.011440 -0.000015 -0.015436 0.000021
# 4 -0.000011 -0.000001 -0.000015 0.024896 0.000020 -0.015954
# 5 -0.034158 0.007662 -0.015436 0.000020 0.061269 -0.000025
# 6 0.000010 0.000020 0.000021 -0.015954 -0.000025 0.075482
#
#
# Mechanical properties :
#
#
# Convention : Reuss Voigt Hill
#
# Bulk Modulus (GPa) = 21.07234 57.45713 39.26473
# Shear Modulus (GPa) = 20.51286 39.38302 29.94794
#
# Velocity S-wave (km/s) = 2.80508 3.88675 3.38935
# Velocity P-wave (km/s) = 4.30980 6.49479 5.51166
#
# Compressibility (1/GPa) = 0.04745558
#
# Stress axis : x y z
#
# Youngs Moduli (GPa) = 30.03078 82.43473 87.41107
#
# Poissons Ratio (x) = 0.59495 -0.57211
# Poissons Ratio (y) = 0.21674 0.35272
# Poissons Ratio (z) = -0.19655 0.33264
#
# Static dielectric constant tensor:
#      x y z
#    x 2.176870 -0.000010 0.054700 
#    y -0.000010 2.202860 -0.000010 
#    z 0.054700 -0.000010 2.012330 
# 
# From -- ./inp_files/312405.got.cif
#   From: 2010.05.17/outbox.cif.g08.bks.cpg/sg15_157_cif.got.tgz:312405.got - 2010.06.03 18:47:42.
