data_PCOD9264350
_publ_section_title
;
Structure prediction by ZEFSAII (Michael W. Deem and Ramdas Pophale) SiO2 
 PCOD9264350
Probable space group: C 2/C
;
_chemical_formula_sum "Si O2"
_cell_formula_units_Z 40
_cell_length_a 16.841397
_cell_length_b 11.839292
_cell_length_c 7.914665
_cell_angle_alpha 90.000000
_cell_angle_beta 86.969385
_cell_angle_gamma 90.000000
_cell_volume 1575.899673
_symmetry_space_group_name_H-M "C 2/C"
_symmetry_group_IT_number 15
_symmetry_cell_setting 'monoclinic'
loop_
_space_group_symop_operation_xyz
x,y,z
-x,y,1/2-z
-x,-y,-z
x,-y,1/2+z
1/2+x,1/2+y,z
1/2-x,1/2+y,1/2-z
1/2-x,1/2-y,-z
1/2+x,1/2-y,1/2+z
loop_
_atom_site_type_symbol
_atom_site_label
_atom_site_fract_x
_atom_site_fract_y
_atom_site_fract_z
Si Si1 0.305417 0.147347 0.060902
Si Si2 0.067357 0.079416 0.571775
Si Si3 0.593675 0.838935 0.263325
Si Si4 0.926105 0.330732 0.853347
Si Si5 0.656948 0.413052 0.762664
O O1 0.362676 0.182853 0.209631
O O2 0.239953 0.071832 0.162927
O O3 0.250000 0.250000 0.000000
O O4 0.354944 0.103411 0.892490
O O5 0.040141 0.207266 0.595942
O O6 0.151417 0.091113 0.462872
O O7 0.098087 0.014901 0.730002
O O8 0.000000 0.000000 0.500000
O O9 0.500000 0.852855 0.250000
O O10 0.607647 0.870901 0.459621
O O11 0.615200 0.706828 0.224633
O O12 0.000000 0.392321 0.750000
#
# Coordination Sequence:
#
# PCOD9264350 Si02
#       5
#     8   8   8   8   8
#     4  10  23  37  55  86 126 156 205 251 294 360
#     4  11  22  35  59  89 124 164 193 236 307 381
#     4  10  19  35  58  83 117 153 199 247 294 354
#     4  11  21  36  63  88 122 160 202 242 306 366
#     4  10  22  35  52  85 125 150 199 239 302 355
#
# _framework density 25.382328000000001
#
# number of rings (size 3 to 8) (size 9 to 14) (size 15 to 20)
#    0.000    1.600    2.000    4.200    8.400    7.200 
#    0.000    0.000    0.000    0.000    0.000    4.200 
#    0.000    0.000    0.000    0.000    0.000    0.000 
#
# Total GULP energy -111458.203915 kJ/mol
# GULP energy per Si atom -5572.910196 kJ/mol
# Density = 2.532456 g / cm^3
# Si number density = 25.382328 Si / 1000 Ang^3
#
#
#
# Elastic Constant Matrix: (Units=GPa)
#
#
# Indices 1 2 3 4 5 6 
#
# 1 148.5850 9.6457 96.3288 0.0000 -34.9156 0.0000
# 2 9.6457 74.6495 11.6581 0.0000 1.6109 0.0000
# 3 96.3288 11.6581 211.9347 0.0000 -54.4195 0.0000
# 4 0.0000 0.0000 0.0000 19.3484 0.0000 8.1476
# 5 -34.9156 1.6109 -54.4195 0.0000 83.1852 0.0000
# 6 0.0000 0.0000 0.0000 8.1476 0.0000 20.2105
#
#
#
# Elastic Compliance Matrix: (Units=1/GPa)
#
#
# Indices 1 2 3 4 5 6 
#
# 1 0.009712 -0.000662 -0.004000 0.000000 0.001473 0.000000
# 2 -0.000662 0.013613 -0.000705 0.000000 -0.001003 0.000000
# 3 -0.004000 -0.000705 0.007389 0.000000 0.003169 0.000000
# 4 0.000000 0.000000 0.000000 0.062252 0.000000 -0.025096
# 5 0.001473 -0.001003 0.003169 0.000000 0.014732 0.000000
# 6 0.000000 0.000000 0.000000 -0.025096 0.000000 0.059596
#
#
# Mechanical properties :
#
#
# Convention : Reuss Voigt Hill
#
# Bulk Modulus (GPa) = 50.05091 74.49271 62.27181
# Shear Modulus (GPa) = 27.07250 45.71793 36.39522
#
# Velocity S-wave (km/s) = 3.26941 4.24863 3.79077
# Velocity P-wave (km/s) = 5.83212 7.31298 6.61413
#
# Compressibility (1/GPa) = 0.01997966
#
# Stress axis : x y z
#
# Youngs Moduli (GPa) = 102.96144 73.45755 135.33833
#
# Poissons Ratio (x) = 0.04864 0.54134
# Poissons Ratio (y) = 0.06817 0.09548
# Poissons Ratio (z) = 0.41184 0.05182
#
# Static dielectric constant tensor:
#      x y z
#    x 1.982500 0.000000 -0.036880 
#    y 0.000000 2.063250 0.000000 
#    z -0.036880 0.000000 2.110710 
# 
# From -- ./inp_files/37961.got.cif
#   From: 2010.05.17/outbox.cif.g08.bks.cpg/sg15_19_cif.got.tgz:37961.got - 2010.06.03 18:47:42.
