data_PCOD9264128
_publ_section_title
;
Structure prediction by ZEFSAII (Michael W. Deem and Ramdas Pophale) SiO2 
 PCOD9264128
Probable space group: C 2/C
;
_chemical_formula_sum "Si O2"
_cell_formula_units_Z 64
_cell_length_a 25.862973
_cell_length_b 21.252065
_cell_length_c 11.956803
_cell_angle_alpha 90.000000
_cell_angle_beta 34.299927
_cell_angle_gamma 90.000000
_cell_volume 3703.461556
_symmetry_space_group_name_H-M "C 2/C"
_symmetry_group_IT_number 15
_symmetry_cell_setting 'monoclinic'
loop_
_space_group_symop_operation_xyz
x,y,z
-x,y,1/2-z
-x,-y,-z
x,-y,1/2+z
1/2+x,1/2+y,z
1/2-x,1/2+y,1/2-z
1/2-x,1/2-y,-z
1/2+x,1/2-y,1/2+z
loop_
_atom_site_type_symbol
_atom_site_label
_atom_site_fract_x
_atom_site_fract_y
_atom_site_fract_z
Si Si1 0.608981 0.199486 0.563651
Si Si2 0.509564 0.576882 0.105311
Si Si3 0.763834 0.892347 0.854058
Si Si4 0.668660 0.616964 0.515946
Si Si5 0.969460 0.233152 0.683136
Si Si6 0.321862 0.794421 0.807055
Si Si7 0.354851 0.492334 0.276474
Si Si8 0.898873 0.193262 0.242080
O O1 0.500000 0.188299 0.750000
O O2 0.665896 0.137663 0.498663
O O3 0.648391 0.222304 0.372930
O O4 0.624816 0.253142 0.627626
O O5 0.500000 0.556503 0.250000
O O6 0.435500 0.542126 0.159089
O O7 0.479581 0.649215 0.149051
O O8 0.608002 0.556471 0.882753
O O9 0.822716 0.887546 0.633326
O O10 0.811939 0.848257 0.861098
O O11 0.771715 0.964021 0.883454
O O12 0.591346 0.668691 0.689825
O O13 0.765602 0.641584 0.391784
O O14 0.653843 0.549483 0.597449
O O15 0.910663 0.285991 0.724596
O O16 0.000000 0.254092 0.750000
O O17 0.056648 0.219514 0.450512
O O18 0.250000 0.750000 0.000000
#
# Coordination Sequence:
#
# PCOD9264128 Si02
#       8
#     8   8   8   8   8   8   8   8
#     4  11  21  37  60  80 118 151 190 240 285 342
#     4  10  20  29  48  80 111 142 175 224 283 343
#     4  10  22  36  53  82 112 153 190 231 284 340
#     4  10  19  35  56  74 110 150 189 228 274 339
#     4  11  19  32  56  82 113 147 176 223 284 347
#     4   9  21  36  54  83 108 150 192 224 281 340
#     4  10  20  34  51  75 109 145 193 229 275 336
#     4  11  20  33  54  87 117 145 181 228 292 346
#
# _framework density 17.281129
#
# number of rings (size 3 to 8) (size 9 to 14) (size 15 to 20)
#    0.000    1.750    3.750    1.500    0.000    0.500 
#    0.000    0.000    0.000    3.750    0.000    0.000 
#    0.000    0.000    0.000    0.000    0.000    0.000 
#
# Total GULP energy -178267.372126 kJ/mol
# GULP energy per Si atom -5570.855379 kJ/mol
# Density = 1.724180 g / cm^3
# Si number density = 17.281129 Si / 1000 Ang^3
#
#
#
# Elastic Constant Matrix: (Units=GPa)
#
#
# Indices 1 2 3 4 5 6 
#
# 1 82.9240 24.2086 17.9945 0.0000 9.2170 0.0000
# 2 24.2086 50.4673 13.7787 0.0000 2.8572 0.0000
# 3 17.9945 13.7787 66.9052 0.0000 13.5044 0.0000
# 4 0.0000 0.0000 0.0000 10.2252 0.0000 -0.7607
# 5 9.2170 2.8572 13.5044 0.0000 23.7468 0.0000
# 6 0.0000 0.0000 0.0000 -0.7607 0.0000 26.9692
#
#
#
# Elastic Compliance Matrix: (Units=1/GPa)
#
#
# Indices 1 2 3 4 5 6 
#
# 1 0.014751 -0.006344 -0.001875 0.000000 -0.003896 0.000000
# 2 -0.006344 0.023723 -0.003502 0.000000 0.001599 0.000000
# 3 -0.001875 -0.003502 0.018007 0.000000 -0.009091 0.000000
# 4 0.000000 0.000000 0.000000 0.098004 0.000000 0.002764
# 5 -0.003896 0.001599 -0.009091 0.000000 0.048601 0.000000
# 6 0.000000 0.000000 0.000000 0.002764 0.000000 0.037157
#
#
# Mechanical properties :
#
#
# Convention : Reuss Voigt Hill
#
# Bulk Modulus (GPa) = 30.26594 34.69557 32.48076
# Shear Modulus (GPa) = 18.20185 21.80923 20.00554
#
# Velocity S-wave (km/s) = 3.24895 3.55635 3.40612
# Velocity P-wave (km/s) = 5.62371 6.08147 5.85706
#
# Compressibility (1/GPa) = 0.03304044
#
# Stress axis : x y z
#
# Youngs Moduli (GPa) = 67.79223 42.15248 55.53390
#
# Poissons Ratio (x) = 0.26739 0.10410
# Poissons Ratio (y) = 0.43004 0.19450
# Poissons Ratio (z) = 0.12708 0.14764
#
# Static dielectric constant tensor:
#      x y z
#    x 1.600860 0.000000 -0.012490 
#    y 0.000000 1.600360 0.000000 
#    z -0.012490 0.000000 1.612430 
# 
# From -- ./inp_files/124258.got.cif
#   From: 2010.05.17/outbox.cif.g08.bks.cpg/sg15_63_cif.got.tgz:124258.got - 2010.06.03 18:47:42.
