data_PCOD9264683
_publ_section_title
;
Structure prediction by ZEFSAII (Michael W. Deem and Ramdas Pophale) SiO2 
 PCOD9264683
Probable space group: C 2/C
;
_chemical_formula_sum "Si O2"
_cell_formula_units_Z 48
_cell_length_a 8.874572
_cell_length_b 17.456949
_cell_length_c 14.292011
_cell_angle_alpha 90.000000
_cell_angle_beta 86.205167
_cell_angle_gamma 90.000000
_cell_volume 2209.305839
_symmetry_space_group_name_H-M "C 2/C"
_symmetry_group_IT_number 15
_symmetry_cell_setting 'monoclinic'
loop_
_space_group_symop_operation_xyz
x,y,z
-x,y,1/2-z
-x,-y,-z
x,-y,1/2+z
1/2+x,1/2+y,z
1/2-x,1/2+y,1/2-z
1/2-x,1/2-y,-z
1/2+x,1/2-y,1/2+z
loop_
_atom_site_type_symbol
_atom_site_label
_atom_site_fract_x
_atom_site_fract_y
_atom_site_fract_z
Si Si1 0.298595 0.959564 0.970247
Si Si2 0.922998 0.485964 0.161621
Si Si3 0.493415 0.765921 0.526061
Si Si4 0.209870 0.869047 0.497475
Si Si5 0.842550 0.101593 0.290061
Si Si6 0.779607 0.808520 0.619125
O O1 0.447768 0.967379 0.899863
O O2 0.202212 0.890243 0.934726
O O3 0.222077 0.043155 0.965601
O O4 0.342563 0.943979 0.077089
O O5 0.796589 0.543165 0.207337
O O6 0.000000 0.447428 0.250000
O O7 0.376184 0.832034 0.502017
O O8 0.393496 0.690956 0.552976
O O9 0.607310 0.785576 0.604834
O O10 0.605591 0.749036 0.434831
O O11 0.144566 0.871515 0.604685
O O12 0.810594 0.173595 0.224920
O O13 0.000000 0.065824 0.250000
#
# Coordination Sequence:
#
# PCOD9264683 Si02
#       6
#     8   8   8   8   8   8
#     4  10  21  37  68  96 115 163 211 263 307 373
#     4  10  19  35  61  92 120 156 207 259 303 368
#     4  10  22  38  62  90 123 164 194 259 306 377
#     4  10  22  41  65  89 128 160 208 253 316 367
#     4  11  21  37  62  95 118 167 215 256 292 391
#     4  11  21  39  66  92 123 159 214 251 312 365
#
# _framework density 21.726279999999999
#
# number of rings (size 3 to 8) (size 9 to 14) (size 15 to 20)
#    0.000    1.667    3.333    3.000    0.000    0.667 
#    0.000    0.000   36.667    0.000    0.000    0.000 
#    0.000    0.000    0.000    0.000    0.000    0.000 
#
# Total GULP energy -134035.560684 kJ/mol
# GULP energy per Si atom -5584.815028 kJ/mol
# Density = 2.167683 g / cm^3
# Si number density = 21.726280 Si / 1000 Ang^3
#
#
#
# Elastic Constant Matrix: (Units=GPa)
#
#
# Indices 1 2 3 4 5 6 
#
# 1 77.7104 22.3691 37.1796 0.0000 1.9500 0.0000
# 2 22.3691 88.1426 18.4268 0.0000 3.2827 0.0000
# 3 37.1796 18.4268 66.8460 0.0000 -6.4162 0.0000
# 4 0.0000 0.0000 0.0000 -10.7737 0.0000 4.6257
# 5 1.9500 3.2827 -6.4162 0.0000 29.2097 0.0000
# 6 0.0000 0.0000 0.0000 4.6257 0.0000 40.5272
#
#
#
# Elastic Compliance Matrix: (Units=1/GPa)
#
#
# Indices 1 2 3 4 5 6 
#
# 1 0.018364 -0.002491 -0.009825 0.000000 -0.003104 0.000000
# 2 -0.002491 0.012508 -0.002228 0.000000 -0.001729 0.000000
# 3 -0.009825 -0.002228 0.021581 0.000000 0.005647 0.000000
# 4 0.000000 0.000000 0.000000 -0.088483 0.000000 0.010099
# 5 -0.003104 -0.001729 0.005647 0.000000 0.035877 0.000000
# 6 0.000000 0.000000 0.000000 0.010099 0.000000 0.023522
#
#
# Mechanical properties :
#
#
# Convention : Reuss Voigt Hill
#
# Bulk Modulus (GPa) = 42.80210 43.18335 42.99273
# Shear Modulus (GPa) = 82.99315 22.10755 52.55035
#
# Velocity S-wave (km/s) = 6.18727 3.19336 4.92341
# Velocity P-wave (km/s) = 8.41347 5.78930 7.22158
#
# Compressibility (1/GPa) = 0.02336334
#
# Stress axis : x y z
#
# Youngs Moduli (GPa) = 54.45432 79.95117 46.33720
#
# Poissons Ratio (x) = 0.19914 0.45528
# Poissons Ratio (y) = 0.13563 0.10326
# Poissons Ratio (z) = 0.53503 0.17817
#
# Static dielectric constant tensor:
#      x y z
#    x 1.834160 0.000000 0.030700 
#    y 0.000000 1.804410 0.000000 
#    z 0.030700 0.000000 1.796400 
# 
# From -- ./inp_files/135503.got.cif
#   From: 2010.05.17/outbox.cif.g08.bks.cpg/sg15_68_cif.got.tgz:135503.got - 2010.06.03 18:47:42.
