data_PCOD9264217
_publ_section_title
;
Structure prediction by ZEFSAII (Michael W. Deem and Ramdas Pophale) SiO2 
 PCOD9264217
Probable space group: C 2/C
;
_chemical_formula_sum "Si O2"
_cell_formula_units_Z 48
_cell_length_a 7.300118
_cell_length_b 28.530973
_cell_length_c 10.194682
_cell_angle_alpha 90.000000
_cell_angle_beta 97.025398
_cell_angle_gamma 90.000000
_cell_volume 2107.400968
_symmetry_space_group_name_H-M "C 2/C"
_symmetry_group_IT_number 15
_symmetry_cell_setting 'monoclinic'
loop_
_space_group_symop_operation_xyz
x,y,z
-x,y,1/2-z
-x,-y,-z
x,-y,1/2+z
1/2+x,1/2+y,z
1/2-x,1/2+y,1/2-z
1/2-x,1/2-y,-z
1/2+x,1/2-y,1/2+z
loop_
_atom_site_type_symbol
_atom_site_label
_atom_site_fract_x
_atom_site_fract_y
_atom_site_fract_z
Si Si1 0.725289 0.211557 0.282638
Si Si2 0.287446 0.683127 0.772484
Si Si3 0.269998 0.038373 0.377661
Si Si4 0.309472 0.856573 0.499129
Si Si5 0.757305 0.642480 0.441997
Si Si6 0.278304 0.958389 0.578668
O O1 0.500000 0.213167 0.250000
O O2 0.786490 0.264415 0.259216
O O3 0.769547 0.188073 0.427550
O O4 0.803792 0.177198 0.178290
O O5 0.500000 0.683296 0.750000
O O6 0.194253 0.650033 0.656585
O O7 0.275524 0.664669 0.918722
O O8 0.196944 0.088911 0.418444
O O9 0.495811 0.040096 0.402448
O O10 0.219585 0.030874 0.221736
O O11 0.213410 0.996569 0.468391
O O12 0.522044 0.859348 0.557478
O O13 0.222870 0.905600 0.535001
#
# Coordination Sequence:
#
# PCOD9264217 Si02
#       6
#     8   8   8   8   8   8
#     4   9  18  35  56  77 105 139 179 223 266 309
#     4  11  23  35  50  77 111 145 179 219 260 307
#     4   9  17  29  50  82 111 130 160 214 271 315
#     4  10  19  35  57  80 106 139 177 218 264 316
#     4  10  19  35  57  80 106 139 177 218 264 316
#     4   9  17  29  50  82 111 130 160 214 271 315
#
# _framework density 22.776872000000001
#
# number of rings (size 3 to 8) (size 9 to 14) (size 15 to 20)
#    0.000    2.333    1.667    1.500    2.333    0.000 
#    0.000    2.500    0.000    1.000    0.000    0.000 
#    0.000    0.000    0.000    0.000    0.000    0.000 
#
# Total GULP energy -134172.548435 kJ/mol
# GULP energy per Si atom -5590.522851 kJ/mol
# Density = 2.272503 g / cm^3
# Si number density = 22.776872 Si / 1000 Ang^3
#
#
#
# Elastic Constant Matrix: (Units=GPa)
#
#
# Indices 1 2 3 4 5 6 
#
# 1 59.9840 9.6779 0.9453 0.0000 -8.6866 0.0000
# 2 9.6779 155.8151 90.4194 0.0000 -17.4395 0.0000
# 3 0.9453 90.4194 172.7940 0.0000 -21.6254 0.0000
# 4 0.0000 0.0000 0.0000 50.2279 0.0000 -4.3049
# 5 -8.6866 -17.4395 -21.6254 0.0000 25.4305 0.0000
# 6 0.0000 0.0000 0.0000 -4.3049 0.0000 -4.5640
#
#
#
# Elastic Compliance Matrix: (Units=1/GPa)
#
#
# Indices 1 2 3 4 5 6 
#
# 1 0.017760 -0.001143 0.001300 0.000000 0.006389 0.000000
# 2 -0.001143 0.009432 -0.004665 0.000000 0.002111 0.000000
# 3 0.001300 -0.004665 0.008815 0.000000 0.004741 0.000000
# 4 0.000000 0.000000 0.000000 0.018420 0.000000 -0.017375
# 5 0.006389 0.002111 0.004741 0.000000 0.046984 0.000000
# 6 0.000000 0.000000 0.000000 -0.017375 0.000000 -0.202718
#
#
# Mechanical properties :
#
#
# Convention : Reuss Voigt Hill
#
# Bulk Modulus (GPa) = 37.04812 65.63094 51.33953
# Shear Modulus (GPa) = -60.02865 33.38891 -13.31987
#
# Velocity S-wave (km/s) = -5.13929 3.83288 -2.42088
# Velocity P-wave (km/s) = 4.34919 6.96170 3.84381
#
# Compressibility (1/GPa) = 0.02699192
#
# Stress axis : x y z
#
# Youngs Moduli (GPa) = 56.30580 106.01768 113.44710
#
# Poissons Ratio (x) = 0.12114 -0.14752
# Poissons Ratio (y) = 0.06434 0.52927
# Poissons Ratio (z) = -0.07321 0.49461
#
# Static dielectric constant tensor:
#      x y z
#    x 1.735080 0.000000 -0.181720 
#    y 0.000000 1.823810 0.000000 
#    z -0.181720 0.000000 1.601340 
# 
# From -- ./inp_files/26080.got.cif
#   From: 2010.05.17/outbox.cif.g08.bks.cpg/sg15_14_cif.got.tgz:26080.got - 2010.06.03 18:47:42.
