data_PCOD9264437
_publ_section_title
;
Structure prediction by ZEFSAII (Michael W. Deem and Ramdas Pophale) SiO2 
 PCOD9264437
Probable space group: C 2/C
;
_chemical_formula_sum "Si O2"
_cell_formula_units_Z 60
_cell_length_a 10.113117
_cell_length_b 28.892633
_cell_length_c 8.579284
_cell_angle_alpha 90.000000
_cell_angle_beta 92.429007
_cell_angle_gamma 90.000000
_cell_volume 2504.567894
_symmetry_space_group_name_H-M "C 2/C"
_symmetry_group_IT_number 15
_symmetry_cell_setting 'monoclinic'
loop_
_space_group_symop_operation_xyz
x,y,z
-x,y,1/2-z
-x,-y,-z
x,-y,1/2+z
1/2+x,1/2+y,z
1/2-x,1/2+y,1/2-z
1/2-x,1/2-y,-z
1/2+x,1/2-y,1/2+z
loop_
_atom_site_type_symbol
_atom_site_label
_atom_site_fract_x
_atom_site_fract_y
_atom_site_fract_z
Si Si1 0.225743 0.803888 0.543964
Si Si2 0.251673 0.996465 0.514224
Si Si3 0.643333 0.067586 0.202107
Si Si4 0.222100 0.163561 0.374621
Si Si5 0.854468 0.065683 0.766790
Si Si6 0.000000 0.277925 0.250000
Si Si7 0.493203 0.219811 0.416080
Si Si8 0.230549 0.838290 0.219902
O O1 0.250000 0.750000 0.500000
O O2 0.164344 0.816772 0.708407
O O3 0.383518 0.816212 0.571945
O O4 0.167978 0.826814 0.385908
O O5 0.359714 0.030230 0.438928
O O6 0.149152 0.032273 0.585542
O O7 0.301431 0.962061 0.650125
O O8 0.185232 0.965736 0.379535
O O9 0.500000 0.084555 0.250000
O O10 0.736644 0.110496 0.158278
O O11 0.356179 0.193138 0.401296
O O12 0.162890 0.169303 0.546685
O O13 0.749503 0.106753 0.777612
O O14 0.000000 0.086005 0.750000
O O15 0.003752 0.253798 0.418991
O O16 0.132485 0.309353 0.265029
O O17 0.500000 0.245440 0.250000
#
# Coordination Sequence:
#
# PCOD9264437 Si02
#       8
#     8   8   8   8   8   4   8   8
#     4  10  20  34  55  84 116 147 192 241 293 357
#     4  10  23  37  56  89 118 159 205 245 301 348
#     4  11  20  36  58  91 130 154 187 246 310 372
#     4  10  19  35  59  82 116 153 196 229 295 375
#     4  11  22  41  60  81 117 162 216 251 284 342
#     4   8  16  30  54  84 110 138 184 232 288 364
#     4   8  15  29  49  77 102 142 177 216 277 346
#     4  10  20  37  60  88 114 153 195 244 306 362
#
# _framework density 23.956227999999999
#
# number of rings (size 3 to 8) (size 9 to 14) (size 15 to 20)
#    0.000    2.133    1.333    2.800    0.000    2.667 
#    4.800    2.000    0.000    4.800    0.000    0.000 
#    0.000    0.000    0.000    0.000    0.000    0.000 
#
# Total GULP energy -167229.134313 kJ/mol
# GULP energy per Si atom -5574.304477 kJ/mol
# Density = 2.390170 g / cm^3
# Si number density = 23.956228 Si / 1000 Ang^3
#
#
#
# Elastic Constant Matrix: (Units=GPa)
#
#
# Indices 1 2 3 4 5 6 
#
# 1 42.6651 8.0070 15.1018 0.0000 -7.6911 0.0000
# 2 8.0070 104.5141 80.4935 0.0000 16.6941 0.0000
# 3 15.1018 80.4935 275.1444 0.0000 -24.6419 0.0000
# 4 0.0000 0.0000 0.0000 35.6623 0.0000 7.4792
# 5 -7.6911 16.6941 -24.6419 0.0000 14.9038 0.0000
# 6 0.0000 0.0000 0.0000 7.4792 0.0000 12.9082
#
#
#
# Elastic Compliance Matrix: (Units=1/GPa)
#
#
# Indices 1 2 3 4 5 6 
#
# 1 0.031276 -0.013498 0.005906 0.000000 0.041025 0.000000
# 2 -0.013498 0.033629 -0.015371 0.000000 -0.070049 0.000000
# 3 0.005906 -0.015371 0.011295 0.000000 0.038940 0.000000
# 4 0.000000 0.000000 0.000000 0.031920 0.000000 -0.018495
# 5 0.041025 -0.070049 0.038940 0.000000 0.231114 0.000000
# 6 0.000000 0.000000 0.000000 -0.018495 0.000000 0.088186
#
#
# Mechanical properties :
#
#
# Convention : Reuss Voigt Hill
#
# Bulk Modulus (GPa) = 33.03052 69.94757 51.48904
# Shear Modulus (GPa) = 10.34261 33.94295 22.14278
#
# Velocity S-wave (km/s) = 2.08006 3.76822 3.04353
# Velocity P-wave (km/s) = 4.42568 6.94220 5.82155
#
# Compressibility (1/GPa) = 0.03027503
#
# Stress axis : x y z
#
# Youngs Moduli (GPa) = 31.97293 29.73584 88.53863
#
# Poissons Ratio (x) = 0.40138 -0.52295
# Poissons Ratio (y) = 0.43157 1.36093
# Poissons Ratio (z) = -0.18885 0.45707
#
# Static dielectric constant tensor:
#      x y z
#    x 2.065100 0.000000 -0.023780 
#    y 0.000000 1.874130 0.000000 
#    z -0.023780 0.000000 2.001730 
# 
# From -- ./inp_files/35276.got.cif
#   From: 2010.05.17/outbox.cif.g08.bks.cpg/sg15_18_cif.got.tgz:35276.got - 2010.06.03 18:47:42.
