data_PCOD9264080
_publ_section_title
;
Structure prediction by ZEFSAII (Michael W. Deem and Ramdas Pophale) SiO2 
 PCOD9264080
Probable space group: C 2/C
;
_chemical_formula_sum "Si O2"
_cell_formula_units_Z 44
_cell_length_a 7.731939
_cell_length_b 33.673955
_cell_length_c 11.012453
_cell_angle_alpha 90.000000
_cell_angle_beta 139.688185
_cell_angle_gamma 90.000000
_cell_volume 1854.963386
_symmetry_space_group_name_H-M "C 2/C"
_symmetry_group_IT_number 15
_symmetry_cell_setting 'monoclinic'
loop_
_space_group_symop_operation_xyz
x,y,z
-x,y,1/2-z
-x,-y,-z
x,-y,1/2+z
1/2+x,1/2+y,z
1/2-x,1/2+y,1/2-z
1/2-x,1/2-y,-z
1/2+x,1/2-y,1/2+z
loop_
_atom_site_type_symbol
_atom_site_label
_atom_site_fract_x
_atom_site_fract_y
_atom_site_fract_z
Si Si1 0.749821 0.796602 0.473272
Si Si2 0.629094 0.062757 0.011923
Si Si3 0.500000 0.497380 0.250000
Si Si4 0.527351 0.148222 0.505283
Si Si5 0.433996 0.559584 0.917256
Si Si6 0.944609 0.851976 0.035849
O O1 0.500000 0.802586 0.250000
O O2 0.750000 0.750000 0.500000
O O3 0.672431 0.818815 0.554352
O O4 0.985055 0.820944 0.532067
O O5 0.629952 0.106387 0.072019
O O6 0.796812 0.059117 0.976224
O O7 0.322270 0.059291 0.810267
O O8 0.756500 0.027198 0.156663
O O9 0.409840 0.473581 0.078481
O O10 0.785338 0.146732 0.735383
O O11 0.677020 0.159322 0.462836
O O12 0.589172 0.601096 0.006076
#
# Coordination Sequence:
#
# PCOD9264080 Si02
#       6
#     8   8   4   8   8   8
#     4  10  20  36  58  86 111 141 183 231 280 342
#     4  10  20  35  54  78 113 152 190 239 285 329
#     4  12  22  32  52  88 116 148 196 248 288 326
#     4   9  17  34  57  81 110 147 187 226 276 341
#     4  10  19  35  55  77 109 152 197 233 278 338
#     4   9  17  33  60  81 104 148 194 227 267 335
#
# _framework density 23.720143
#
# number of rings (size 3 to 8) (size 9 to 14) (size 15 to 20)
#    0.000    2.182    1.818    3.273    0.000    0.727 
#    1.636    0.000    0.000    2.182    0.000    0.000 
#    0.000    0.000    0.000    0.000    0.000    0.000 
#
# Total GULP energy -122633.794473 kJ/mol
# GULP energy per Si atom -5574.263385 kJ/mol
# Density = 2.366615 g / cm^3
# Si number density = 23.720143 Si / 1000 Ang^3
#
#
#
# Elastic Constant Matrix: (Units=GPa)
#
#
# Indices 1 2 3 4 5 6 
#
# 1 171.7663 110.1861 11.7830 0.0000 18.2110 0.0000
# 2 110.1861 202.1199 9.6623 0.0000 14.7196 0.0000
# 3 11.7830 9.6623 60.8696 0.0000 -12.2318 0.0000
# 4 0.0000 0.0000 0.0000 9.6000 0.0000 -8.0012
# 5 18.2110 14.7196 -12.2318 0.0000 20.2510 0.0000
# 6 0.0000 0.0000 0.0000 -8.0012 0.0000 23.6767
#
#
#
# Elastic Compliance Matrix: (Units=1/GPa)
#
#
# Indices 1 2 3 4 5 6 
#
# 1 0.009726 -0.004682 -0.002519 0.000000 -0.006865 0.000000
# 2 -0.004682 0.007659 -0.000663 0.000000 -0.001758 0.000000
# 3 -0.002519 -0.000663 0.020001 0.000000 0.014828 0.000000
# 4 0.000000 0.000000 0.000000 0.145009 0.000000 0.049004
# 5 -0.006865 -0.001758 0.014828 0.000000 0.065787 0.000000
# 6 0.000000 0.000000 0.000000 0.049004 0.000000 0.058796
#
#
# Mechanical properties :
#
#
# Convention : Reuss Voigt Hill
#
# Bulk Modulus (GPa) = 46.16932 77.55765 61.86349
# Shear Modulus (GPa) = 15.15499 30.91385 23.03442
#
# Velocity S-wave (km/s) = 2.53041 3.61401 3.11961
# Velocity P-wave (km/s) = 5.29563 7.08397 6.25405
#
# Compressibility (1/GPa) = 0.02165940
#
# Stress axis : x y z
#
# Youngs Moduli (GPa) = 102.82069 130.55771 49.99741
#
# Poissons Ratio (x) = 0.61122 0.12594
# Poissons Ratio (y) = 0.48137 0.03314
# Poissons Ratio (z) = 0.25900 0.08653
#
# Static dielectric constant tensor:
#      x y z
#    x 1.976810 0.000000 -0.142230 
#    y 0.000000 1.957970 0.000000 
#    z -0.142230 0.000000 2.178470 
# 
# From -- ./inp_files/138801.got.cif
#   From: 2010.05.17/outbox.cif.g08.bks.cpg/sg15_70_cif.got.tgz:138801.got - 2010.06.03 18:47:42.
