data_PCOD9264451
_publ_section_title
;
Structure prediction by ZEFSAII (Michael W. Deem and Ramdas Pophale) SiO2 
 PCOD9264451
Probable space group: C 2/C
;
_chemical_formula_sum "Si O2"
_cell_formula_units_Z 40
_cell_length_a 13.907442
_cell_length_b 9.377707
_cell_length_c 27.438130
_cell_angle_alpha 90.000000
_cell_angle_beta 32.895727
_cell_angle_gamma 90.000000
_cell_volume 1943.514074
_symmetry_space_group_name_H-M "C 2/C"
_symmetry_group_IT_number 15
_symmetry_cell_setting 'monoclinic'
loop_
_space_group_symop_operation_xyz
x,y,z
-x,y,1/2-z
-x,-y,-z
x,-y,1/2+z
1/2+x,1/2+y,z
1/2-x,1/2+y,1/2-z
1/2-x,1/2-y,-z
1/2+x,1/2-y,1/2+z
loop_
_atom_site_type_symbol
_atom_site_label
_atom_site_fract_x
_atom_site_fract_y
_atom_site_fract_z
Si Si1 0.004774 0.042731 0.170104
Si Si2 0.016761 0.253940 0.988406
Si Si3 0.340846 0.824135 0.414730
Si Si4 0.695832 0.399166 0.999791
Si Si5 0.705418 0.019347 0.868191
O O1 0.062385 0.975561 0.094410
O O2 0.159942 0.000125 0.142873
O O3 0.823725 0.986943 0.269888
O O4 0.004866 0.215438 0.166032
O O5 0.901667 0.141191 0.008468
O O6 0.192808 0.187257 0.935744
O O7 0.075042 0.384486 0.928299
O O8 0.903071 0.335728 0.078069
O O9 0.250000 0.750000 0.500000
O O10 0.355889 0.989848 0.421655
O O11 0.750000 0.250000 0.000000
#
# Coordination Sequence:
#
# PCOD9264451 Si02
#       5
#     8   8   8   8   8
#     4   9  18  37  57  82 113 147 190 235 278 334
#     4  10  19  35  59  84 112 150 188 232 281 338
#     4   9  20  36  59  80 111 152 186 232 283 334
#     4  11  20  35  57  87 114 147 189 231 282 335
#     4   9  18  34  61  80 110 151 190 229 283 331
#
# _framework density 20.581277
#
# number of rings (size 3 to 8) (size 9 to 14) (size 15 to 20)
#    0.000    2.400    2.000    0.600    2.800    0.000 
#    7.200    0.000   17.600    0.000    0.000    0.000 
#    0.000    0.000    0.000    0.000    0.000    0.000 
#
# Total GULP energy -111590.183999 kJ/mol
# GULP energy per Si atom -5579.509200 kJ/mol
# Density = 2.053443 g / cm^3
# Si number density = 20.581277 Si / 1000 Ang^3
#
#
#
# Elastic Constant Matrix: (Units=GPa)
#
#
# Indices 1 2 3 4 5 6 
#
# 1 34.7981 20.0970 -10.7384 0.0000 4.1322 0.0000
# 2 20.0970 135.9927 37.4571 0.0000 5.6728 0.0000
# 3 -10.7384 37.4571 95.2410 0.0001 8.6066 0.0000
# 4 0.0000 0.0000 0.0001 15.4419 0.0000 0.4666
# 5 4.1322 5.6728 8.6066 0.0000 15.6206 0.0000
# 6 0.0000 0.0000 0.0000 0.4666 0.0000 29.8384
#
#
#
# Elastic Compliance Matrix: (Units=1/GPa)
#
#
# Indices 1 2 3 4 5 6 
#
# 1 0.036694 -0.007142 0.007987 0.000000 -0.011513 0.000000
# 2 -0.007142 0.009661 -0.004692 0.000000 0.000966 0.000000
# 3 0.007987 -0.004692 0.013978 0.000000 -0.008111 0.000000
# 4 0.000000 0.000000 0.000000 0.064789 0.000000 -0.001013
# 5 -0.011513 0.000966 -0.008111 0.000000 0.071182 0.000000
# 6 0.000000 0.000000 0.000000 -0.001013 0.000000 0.033530
#
#
# Mechanical properties :
#
#
# Convention : Reuss Voigt Hill
#
# Bulk Modulus (GPa) = 18.99777 39.96260 29.48018
# Shear Modulus (GPa) = 19.60208 26.79459 23.19834
#
# Velocity S-wave (km/s) = 3.08948 3.61209 3.36096
# Velocity P-wave (km/s) = 4.68798 6.07086 5.42368
#
# Compressibility (1/GPa) = 0.05263776
#
# Stress axis : x y z
#
# Youngs Moduli (GPa) = 27.25260 103.51052 71.53889
#
# Poissons Ratio (x) = 0.73928 -0.57135
# Poissons Ratio (y) = 0.19464 0.33567
# Poissons Ratio (z) = -0.21765 0.48568
#
# Static dielectric constant tensor:
#      x y z
#    x 1.780150 0.000000 -0.001600 
#    y 0.000000 1.779040 0.000000 
#    z -0.001600 0.000000 1.720330 
# 
# From -- ./inp_files/181282.got.cif
#   From: 2010.05.17/outbox.cif.g08.bks.cpg/sg15_91_cif.got.tgz:181282.got - 2010.06.03 18:47:42.
