data_PCOD9264912
_publ_section_title
;
Structure prediction by ZEFSAII (Michael W. Deem and Ramdas Pophale) SiO2 
 PCOD9264912
Probable space group: C 2/C
;
_chemical_formula_sum "Si O2"
_cell_formula_units_Z 64
_cell_length_a 16.025256
_cell_length_b 18.023247
_cell_length_c 23.898626
_cell_angle_alpha 90.000000
_cell_angle_beta 148.499012
_cell_angle_gamma 90.000000
_cell_volume 3606.685433
_symmetry_space_group_name_H-M "C 2/C"
_symmetry_group_IT_number 15
_symmetry_cell_setting 'monoclinic'
loop_
_space_group_symop_operation_xyz
x,y,z
-x,y,1/2-z
-x,-y,-z
x,-y,1/2+z
1/2+x,1/2+y,z
1/2-x,1/2+y,1/2-z
1/2-x,1/2-y,-z
1/2+x,1/2-y,1/2+z
loop_
_atom_site_type_symbol
_atom_site_label
_atom_site_fract_x
_atom_site_fract_y
_atom_site_fract_z
Si Si1 0.601104 0.884198 0.721924
Si Si2 0.225154 0.243807 0.241264
Si Si3 0.227570 0.572996 0.416379
Si Si4 0.178112 0.035141 0.231626
Si Si5 0.645331 0.751975 0.496585
Si Si6 0.125924 0.083894 0.517581
Si Si7 0.171304 0.143721 0.319611
Si Si8 0.917488 0.890935 0.377130
O O1 0.668213 0.804236 0.741051
O O2 0.414571 0.897007 0.626287
O O3 0.682946 0.906582 0.827199
O O4 0.663257 0.938403 0.709032
O O5 0.193699 0.194401 0.277948
O O6 0.323322 0.315253 0.316355
O O7 0.045895 0.259392 0.117728
O O8 0.257416 0.483514 0.434312
O O9 0.394011 0.612139 0.525917
O O10 0.180589 0.062596 0.296831
O O11 0.154346 0.949045 0.207732
O O12 0.031119 0.072515 0.111552
O O13 0.750000 0.750000 0.500000
O O14 0.678042 0.669492 0.540444
O O15 0.704660 0.822595 0.565754
O O16 0.096182 0.076634 0.567243
O O17 0.000000 0.152757 0.250000
#
# Coordination Sequence:
#
# PCOD9264912 Si02
#       8
#     8   8   8   8   8   8   8   8
#     4  10  19  36  52  87 122 153 192 242 312 343
#     4  11  23  36  59  87 122 159 193 248 298 363
#     4  10  20  34  61  84 115 157 196 253 292 348
#     4  10  19  37  59  84 118 155 194 249 306 355
#     4  12  22  37  58  94 126 151 198 247 309 373
#     4  11  18  35  59  90 119 147 193 254 311 347
#     4  11  21  38  60  85 117 163 192 242 315 363
#     4  11  20  36  61  89 116 157 205 244 302 355
#
# _framework density 17.744824999999999
#
# number of rings (size 3 to 8) (size 9 to 14) (size 15 to 20)
#    0.000    1.250    7.500    0.750    0.000    1.500 
#    2.250    0.625    2.750    1.500    0.000    0.000 
#    0.000    0.000    0.000    0.000    0.000    0.000 
#
# Total GULP energy -178311.929201 kJ/mol
# GULP energy per Si atom -5572.247788 kJ/mol
# Density = 1.770444 g / cm^3
# Si number density = 17.744825 Si / 1000 Ang^3
#
#
#
# Elastic Constant Matrix: (Units=GPa)
#
#
# Indices 1 2 3 4 5 6 
#
# 1 96.0917 43.3468 52.0973 0.0001 18.6726 -0.0001
# 2 43.3468 68.3972 29.1276 0.0003 12.7916 0.0000
# 3 52.0973 29.1276 73.5851 -0.0002 21.0081 -0.0002
# 4 0.0001 0.0003 -0.0002 28.6190 -0.0001 -7.0323
# 5 18.6726 12.7916 21.0081 -0.0001 31.4378 -0.0001
# 6 -0.0001 0.0000 -0.0002 -7.0323 -0.0001 13.8412
#
#
#
# Elastic Compliance Matrix: (Units=1/GPa)
#
#
# Indices 1 2 3 4 5 6 
#
# 1 0.020014 -0.007872 -0.010596 0.000000 -0.001604 0.000000
# 2 -0.007872 0.020928 -0.001995 0.000000 -0.002506 0.000000
# 3 -0.010596 -0.001995 0.024533 0.000000 -0.009289 0.000000
# 4 0.000000 0.000000 0.000000 0.039926 0.000000 0.020285
# 5 -0.001604 -0.002506 -0.009289 0.000000 0.039988 0.000000
# 6 0.000000 0.000000 0.000000 0.020285 0.000000 0.082555
#
#
# Mechanical properties :
#
#
# Convention : Reuss Voigt Hill
#
# Bulk Modulus (GPa) = 40.73468 54.13528 47.43498
# Shear Modulus (GPa) = 18.04713 22.34642 20.19677
#
# Velocity S-wave (km/s) = 3.19256 3.55254 3.37735
# Velocity P-wave (km/s) = 6.04943 6.88486 6.48062
#
# Compressibility (1/GPa) = 0.02454911
#
# Stress axis : x y z
#
# Youngs Moduli (GPa) = 49.96531 47.78383 40.76124
#
# Poissons Ratio (x) = 0.37613 0.43190
# Poissons Ratio (y) = 0.39330 0.08133
# Poissons Ratio (z) = 0.52942 0.09535
#
# Static dielectric constant tensor:
#      x y z
#    x 1.607850 0.000000 -0.004860 
#    y 0.000000 1.628990 0.000000 
#    z -0.004860 0.000000 1.619160 
# 
# From -- ./inp_files/274838.got.cif
#   From: 2010.05.17/outbox.cif.g08.bks.cpg/sg15_138_cif.got.tgz:274838.got - 2010.06.03 18:47:42.
