data_PCOD9264718
_publ_section_title
;
Structure prediction by ZEFSAII (Michael W. Deem and Ramdas Pophale) SiO2 
 PCOD9264718
Probable space group: C 2/C
;
_chemical_formula_sum "Si O2"
_cell_formula_units_Z 60
_cell_length_a 19.966955
_cell_length_b 17.457352
_cell_length_c 9.914679
_cell_angle_alpha 90.000000
_cell_angle_beta 118.644623
_cell_angle_gamma 90.000000
_cell_volume 3032.985802
_symmetry_space_group_name_H-M "C 2/C"
_symmetry_group_IT_number 15
_symmetry_cell_setting 'monoclinic'
loop_
_space_group_symop_operation_xyz
x,y,z
-x,y,1/2-z
-x,-y,-z
x,-y,1/2+z
1/2+x,1/2+y,z
1/2-x,1/2+y,1/2-z
1/2-x,1/2-y,-z
1/2+x,1/2-y,1/2+z
loop_
_atom_site_type_symbol
_atom_site_label
_atom_site_fract_x
_atom_site_fract_y
_atom_site_fract_z
Si Si1 0.082425 0.924246 0.396164
Si Si2 0.732829 0.211076 0.343626
Si Si3 0.163550 0.123217 0.226213
Si Si4 0.591820 0.308285 0.175557
Si Si5 0.000000 0.689813 0.250000
Si Si6 0.784655 0.485618 0.278694
Si Si7 0.853577 0.909436 0.495868
Si Si8 0.644439 0.074976 0.378195
O O1 0.092677 0.899922 0.561742
O O2 0.114808 0.857463 0.331065
O O3 0.000000 0.933988 0.250000
O O4 0.122836 0.005841 0.431259
O O5 0.750000 0.250000 0.500000
O O6 0.801124 0.198445 0.307964
O O7 0.662273 0.253651 0.207085
O O8 0.707376 0.128913 0.372122
O O9 0.149189 0.136635 0.368345
O O10 0.226181 0.053751 0.271827
O O11 0.523339 0.250823 0.153599
O O12 0.588084 0.370413 0.052845
O O13 0.071604 0.631126 0.328178
O O14 0.849554 0.508764 0.230521
O O15 0.827082 0.456046 0.452187
O O16 0.727183 0.423170 0.157310
#
# Coordination Sequence:
#
# PCOD9264718 Si02
#       8
#     8   8   8   8   4   8   8   8
#     4  11  22  39  61  85 119 166 204 244 306 377
#     4  10  19  35  62  88 117 170 205 242 311 376
#     4  10  21  36  60  94 125 150 209 260 314 369
#     4  11  22  40  62  86 126 164 212 251 297 390
#     4  10  24  44  62  90 122 186 216 230 304 412
#     4  10  19  38  63 100 124 155 204 280 314 355
#     4  11  23  36  62  95 126 155 203 275 323 344
#     4  10  21  37  67  91 127 160 215 260 312 369
#
# _framework density 19.782487
#
# number of rings (size 3 to 8) (size 9 to 14) (size 15 to 20)
#    0.000    1.600    3.333    2.400    1.867    3.200 
#    0.000    0.000    0.000    1.600    0.000    0.000 
#    0.000    0.000    0.000    0.000    0.000    0.000 
#
# Total GULP energy -167009.079031 kJ/mol
# GULP energy per Si atom -5566.969301 kJ/mol
# Density = 1.973746 g / cm^3
# Si number density = 19.782487 Si / 1000 Ang^3
#
#
#
# Elastic Constant Matrix: (Units=GPa)
#
#
# Indices 1 2 3 4 5 6 
#
# 1 83.9118 37.1242 46.8064 0.0000 -13.0625 0.0000
# 2 37.1242 60.9707 38.5535 0.0000 -7.9721 0.0000
# 3 46.8064 38.5535 109.6786 0.0000 -23.0386 0.0000
# 4 0.0000 0.0000 0.0000 11.4967 0.0000 -14.2074
# 5 -13.0625 -7.9721 -23.0386 0.0000 18.6151 0.0000
# 6 0.0000 0.0000 0.0000 -14.2074 0.0000 -46.5061
#
#
#
# Elastic Compliance Matrix: (Units=1/GPa)
#
#
# Indices 1 2 3 4 5 6 
#
# 1 0.018470 -0.008063 -0.004123 0.000000 0.004405 0.000000
# 2 -0.008063 0.024609 -0.005654 0.000000 -0.002116 0.000000
# 3 -0.004123 -0.005654 0.015875 0.000000 0.014333 0.000000
# 4 0.000000 0.000000 0.000000 0.063144 0.000000 -0.019290
# 5 0.004405 -0.002116 0.014333 0.000000 0.073644 0.000000
# 6 0.000000 0.000000 0.000000 -0.019290 0.000000 -0.015610
#
#
# Mechanical properties :
#
#
# Convention : Reuss Voigt Hill
#
# Bulk Modulus (GPa) = 42.96491 55.50326 49.23408
# Shear Modulus (GPa) = 22.36433 5.52627 13.94530
#
# Velocity S-wave (km/s) = 3.36596 1.67319 2.65793
# Velocity P-wave (km/s) = 6.07223 5.64362 5.86185
#
# Compressibility (1/GPa) = 0.02327481
#
# Stress axis : x y z
#
# Youngs Moduli (GPa) = 54.14191 40.63482 62.99161
#
# Poissons Ratio (x) = 0.32765 0.25968
# Poissons Ratio (y) = 0.43656 0.35616
# Poissons Ratio (z) = 0.22320 0.22975
#
# Static dielectric constant tensor:
#      x y z
#    x 1.716040 0.000000 0.056550 
#    y 0.000000 2.562860 0.000000 
#    z 0.056550 0.000000 1.653430 
# 
# From -- ./inp_files/56559.got.cif
#   From: 2010.05.17/outbox.cif.g08.bks.cpg/sg15_29_cif.got.tgz:56559.got - 2010.06.03 18:47:42.
