data_PCOD9264820
_publ_section_title
;
Structure prediction by ZEFSAII (Michael W. Deem and Ramdas Pophale) SiO2 
 PCOD9264820
Probable space group: C 2/C
;
_chemical_formula_sum "Si O2"
_cell_formula_units_Z 56
_cell_length_a 24.061774
_cell_length_b 15.789088
_cell_length_c 17.608333
_cell_angle_alpha 90.000000
_cell_angle_beta 21.941722
_cell_angle_gamma 90.000000
_cell_volume 2499.674162
_symmetry_space_group_name_H-M "C 2/C"
_symmetry_group_IT_number 15
_symmetry_cell_setting 'monoclinic'
loop_
_space_group_symop_operation_xyz
x,y,z
-x,y,1/2-z
-x,-y,-z
x,-y,1/2+z
1/2+x,1/2+y,z
1/2-x,1/2+y,1/2-z
1/2-x,1/2-y,-z
1/2+x,1/2-y,1/2+z
loop_
_atom_site_type_symbol
_atom_site_label
_atom_site_fract_x
_atom_site_fract_y
_atom_site_fract_z
Si Si1 0.954092 0.547218 0.680999
Si Si2 0.500000 0.337160 0.750000
Si Si3 0.495788 0.381840 0.545090
Si Si4 0.092392 0.728326 0.504770
Si Si5 0.204981 0.467487 0.275106
Si Si6 0.844823 0.152293 0.088333
Si Si7 0.671645 0.478753 0.627138
Si Si8 0.500000 0.622393 0.750000
O O1 0.859893 0.564008 0.722696
O O2 0.033675 0.635327 0.597727
O O3 0.074597 0.477478 0.502127
O O4 0.843975 0.519938 0.887420
O O5 0.606982 0.278363 0.564661
O O6 0.598528 0.399385 0.675529
O O7 0.478581 0.288437 0.602986
O O8 0.654378 0.415363 0.373549
O O9 0.475916 0.368324 0.481441
O O10 0.375514 0.451155 0.727927
O O11 0.235312 0.716127 0.270144
O O12 0.259161 0.562998 0.188228
O O13 0.901177 0.175753 0.933717
O O14 0.594865 0.560024 0.685053
#
# Coordination Sequence:
#
# PCOD9264820 Si02
#       8
#     8   4   8   8   8   8   8   4
#     4  10  20  35  60  88 127 162 199 251 304 368
#     4   9  20  36  56  92 137 158 194 238 313 396
#     4  11  23  38  65  90 128 160 207 255 310 373
#     4  10  24  36  58  95 128 166 196 249 318 372
#     4  10  20  38  58  88 123 160 212 248 297 364
#     4  11  23  40  62  90 118 163 213 257 301 368
#     4  10  19  35  64  90 119 164 197 250 311 374
#     4  11  20  40  64  86 113 162 222 250 303 360
#
# _framework density 22.402920999999999
#
# number of rings (size 3 to 8) (size 9 to 14) (size 15 to 20)
#    0.000    1.714    2.857    2.143    6.000    1.143 
#    0.000    0.714    0.000    0.000    0.000    0.000 
#    0.000    0.000    0.000    0.000    0.000    0.000 
#
# Total GULP energy -156448.527136 kJ/mol
# GULP energy per Si atom -5587.447398 kJ/mol
# Density = 2.235193 g / cm^3
# Si number density = 22.402921 Si / 1000 Ang^3
#
#
#
# Elastic Constant Matrix: (Units=GPa)
#
#
# Indices 1 2 3 4 5 6 
#
# 1 52.1183 -4.8980 15.6119 -0.0001 13.9400 0.0001
# 2 -4.8980 34.2965 8.9786 -0.0002 7.7934 0.0001
# 3 15.6119 8.9786 138.1482 -0.0002 15.3534 -0.0001
# 4 -0.0001 -0.0002 -0.0002 31.3874 -0.0001 9.1091
# 5 13.9400 7.7934 15.3534 -0.0001 33.1001 0.0001
# 6 0.0001 0.0001 -0.0001 9.1091 0.0001 12.8204
#
#
#
# Elastic Compliance Matrix: (Units=1/GPa)
#
#
# Indices 1 2 3 4 5 6 
#
# 1 0.023074 0.006122 -0.001861 0.000000 -0.010296 0.000000
# 2 0.006122 0.032640 -0.001763 0.000000 -0.009445 -0.000001
# 3 -0.001861 -0.001763 0.007834 0.000000 -0.002435 0.000000
# 4 0.000000 0.000000 0.000000 0.040136 0.000000 -0.028517
# 5 -0.010296 -0.009445 -0.002435 0.000000 0.037901 0.000000
# 6 0.000000 -0.000001 0.000000 -0.028517 0.000000 0.098262
#
#
# Mechanical properties :
#
#
# Convention : Reuss Voigt Hill
#
# Bulk Modulus (GPa) = 14.58953 29.32755 21.95854
# Shear Modulus (GPa) = 19.40246 29.11962 24.26104
#
# Velocity S-wave (km/s) = 2.94610 3.60920 3.29438
# Velocity P-wave (km/s) = 4.25431 5.52158 4.92884
#
# Compressibility (1/GPa) = 0.06854231
#
# Stress axis : x y z
#
# Youngs Moduli (GPa) = 43.33938 30.63751 127.64647
#
# Poissons Ratio (x) = -0.18756 0.23757
# Poissons Ratio (y) = -0.26532 0.22510
# Poissons Ratio (z) = 0.08066 0.05403
#
# Static dielectric constant tensor:
#      x y z
#    x 1.847620 0.000000 0.018840 
#    y 0.000000 1.800940 0.000000 
#    z 0.018840 0.000000 1.923100 
# 
# From -- ./inp_files/222954.got.cif
#   From: 2010.05.17/outbox.cif.g08.bks.cpg/sg15_112_cif.got.tgz:222954.got - 2010.06.03 18:47:42.
