data_PCOD9264517
_publ_section_title
;
Structure prediction by ZEFSAII (Michael W. Deem and Ramdas Pophale) SiO2 
 PCOD9264517
Probable space group: C 2/C
;
_chemical_formula_sum "Si O2"
_cell_formula_units_Z 60
_cell_length_a 22.803161
_cell_length_b 9.611546
_cell_length_c 21.765067
_cell_angle_alpha 90.000000
_cell_angle_beta 37.995683
_cell_angle_gamma 90.000000
_cell_volume 2936.624404
_symmetry_space_group_name_H-M "C 2/C"
_symmetry_group_IT_number 15
_symmetry_cell_setting 'monoclinic'
loop_
_space_group_symop_operation_xyz
x,y,z
-x,y,1/2-z
-x,-y,-z
x,-y,1/2+z
1/2+x,1/2+y,z
1/2-x,1/2+y,1/2-z
1/2-x,1/2-y,-z
1/2+x,1/2-y,1/2+z
loop_
_atom_site_type_symbol
_atom_site_label
_atom_site_fract_x
_atom_site_fract_y
_atom_site_fract_z
Si Si1 0.328157 0.154137 0.338517
Si Si2 0.000000 0.499974 0.250000
Si Si3 0.255406 0.368418 0.083966
Si Si4 0.396165 0.878834 0.645499
Si Si5 0.767737 0.575359 0.602413
Si Si6 0.198440 0.840320 0.736606
Si Si7 0.626740 0.152033 0.568544
Si Si8 0.921142 0.318316 0.074491
O O1 0.409186 0.097504 0.316604
O O2 0.378575 0.159944 0.230299
O O3 0.284016 0.301914 0.390859
O O4 0.248587 0.032583 0.401783
O O5 0.022506 0.399814 0.173704
O O6 0.215367 0.287102 0.175805
O O7 0.183739 0.338753 0.086096
O O8 0.354471 0.295785 0.982494
O O9 0.296253 0.855878 0.693948
O O10 0.479630 0.796111 0.541978
O O11 0.426176 0.040259 0.611097
O O12 0.692653 0.481569 0.702305
O O13 0.824601 0.466819 0.513238
O O14 0.840612 0.646905 0.589984
O O15 0.114616 0.804035 0.852280
#
# Coordination Sequence:
#
# PCOD9264517 Si02
#       8
#     8   4   8   8   8   8   8   8
#     4  11  20  37  60  86 117 160 195 248 297 359
#     4  10  22  34  62  86 118 146 212 254 286 366
#     4   9  19  35  62  80 114 149 200 240 295 354
#     4  10  20  33  61  88 118 153 201 240 302 349
#     4  10  21  35  63  83 125 161 197 242 304 361
#     4  10  19  37  58  89 120 158 197 252 296 352
#     4   9  19  39  58  87 108 156 201 250 294 345
#     4  10  19  35  59  90 117 156 200 245 288 364
#
# _framework density 20.431622999999998
#
# number of rings (size 3 to 8) (size 9 to 14) (size 15 to 20)
#    0.000    2.133    2.667    0.800    0.000    3.200 
#    0.000    0.667    5.867    7.200    0.000    0.000 
#    0.000    0.000    0.000    0.000    0.000    0.000 
#
# Total GULP energy -167425.101082 kJ/mol
# GULP energy per Si atom -5580.836703 kJ/mol
# Density = 2.038512 g / cm^3
# Si number density = 20.431623 Si / 1000 Ang^3
#
#
#
# Elastic Constant Matrix: (Units=GPa)
#
#
# Indices 1 2 3 4 5 6 
#
# 1 20.7700 -1.0754 -7.2353 0.0000 9.0657 0.0000
# 2 -1.0754 93.3922 45.4423 -0.0002 -10.8640 0.0003
# 3 -7.2353 45.4423 107.8611 0.0000 7.0935 0.0000
# 4 0.0000 -0.0002 0.0000 29.7007 0.0000 1.8542
# 5 9.0657 -10.8640 7.0935 0.0000 22.6540 -0.0001
# 6 0.0000 0.0003 0.0000 1.8542 -0.0001 23.4042
#
#
#
# Elastic Compliance Matrix: (Units=1/GPa)
#
#
# Indices 1 2 3 4 5 6 
#
# 1 0.065691 -0.007941 0.009936 0.000000 -0.033208 0.000000
# 2 -0.007941 0.016204 -0.008250 0.000000 0.013532 0.000000
# 3 0.009936 -0.008250 0.014228 0.000000 -0.012387 0.000000
# 4 0.000000 0.000000 0.000000 0.033837 0.000000 -0.002681
# 5 -0.033208 0.013532 -0.012387 0.000000 0.067800 0.000000
# 6 0.000000 0.000000 0.000000 -0.002681 0.000000 0.042940
#
#
# Mechanical properties :
#
#
# Convention : Reuss Voigt Hill
#
# Bulk Modulus (GPa) = 11.95972 32.92073 22.44022
# Shear Modulus (GPa) = 17.78855 27.47791 22.63323
#
# Velocity S-wave (km/s) = 2.95386 3.67123 3.33191
# Velocity P-wave (km/s) = 4.18329 5.84108 5.08026
#
# Compressibility (1/GPa) = 0.08361401
#
# Stress axis : x y z
#
# Youngs Moduli (GPa) = 15.22276 61.71232 70.28448
#
# Poissons Ratio (x) = 0.49007 -0.69835
# Poissons Ratio (y) = 0.12089 0.57981
# Poissons Ratio (z) = -0.15125 0.50910
#
# Static dielectric constant tensor:
#      x y z
#    x 1.756090 0.000000 -0.000380 
#    y 0.000000 1.737230 0.000000 
#    z -0.000380 0.000000 1.753530 
# 
# From -- ./inp_files/304194.got.cif
#   From: 2010.05.17/outbox.cif.g08.bks.cpg/sg15_153_cif.got.tgz:304194.got - 2010.06.03 18:47:42.
