data_PCOD9264646
_publ_section_title
;
Structure prediction by ZEFSAII (Michael W. Deem and Ramdas Pophale) SiO2 
 PCOD9264646
Probable space group: C 2/C
;
_chemical_formula_sum "Si O2"
_cell_formula_units_Z 44
_cell_length_a 15.788250
_cell_length_b 9.261289
_cell_length_c 12.835597
_cell_angle_alpha 90.000000
_cell_angle_beta 74.178779
_cell_angle_gamma 90.000000
_cell_volume 1805.715930
_symmetry_space_group_name_H-M "C 2/C"
_symmetry_group_IT_number 15
_symmetry_cell_setting 'monoclinic'
loop_
_space_group_symop_operation_xyz
x,y,z
-x,y,1/2-z
-x,-y,-z
x,-y,1/2+z
1/2+x,1/2+y,z
1/2-x,1/2+y,1/2-z
1/2-x,1/2-y,-z
1/2+x,1/2-y,1/2+z
loop_
_atom_site_type_symbol
_atom_site_label
_atom_site_fract_x
_atom_site_fract_y
_atom_site_fract_z
Si Si1 0.615012 0.850803 0.029737
Si Si2 0.653158 0.687779 0.528073
Si Si3 0.624133 0.455848 0.257952
Si Si4 0.518022 0.826324 0.861744
Si Si5 0.500000 0.280782 0.750000
Si Si6 0.716811 0.428365 0.410018
O O1 0.540199 0.809642 0.139541
O O2 0.689743 0.941203 0.065528
O O3 0.578500 0.901533 0.929038
O O4 0.666551 0.703601 0.980612
O O5 0.750000 0.750000 0.500000
O O6 0.638942 0.594347 0.635981
O O7 0.575530 0.801485 0.552450
O O8 0.654247 0.567965 0.439219
O O9 0.559423 0.334123 0.329303
O O10 0.577254 0.610857 0.264030
O O11 0.716918 0.422241 0.285334
O O12 0.500000 0.883308 0.750000
#
# Coordination Sequence:
#
# PCOD9264646 Si02
#       6
#     8   8   8   8   4   8
#     4  10  21  35  63  86 121 150 193 253 307 350
#     4  11  21  37  59  88 117 157 200 247 294 354
#     4  10  19  35  61  86 118 151 203 244 296 350
#     4   9  18  38  58  85 114 154 203 241 293 356
#     4  12  18  34  64  92 116 162 208 250 288 368
#     4  10  21  38  54  92 121 150 191 250 303 354
#
# _framework density 24.367066000000001
#
# number of rings (size 3 to 8) (size 9 to 14) (size 15 to 20)
#    0.000    1.818    4.545    1.091    0.000    5.818 
#    6.545    0.909    6.000    0.000    0.000    0.000 
#    0.000    0.000    0.000    0.000    0.000    0.000 
#
# Total GULP energy -122726.975681 kJ/mol
# GULP energy per Si atom -5578.498895 kJ/mol
# Density = 2.431161 g / cm^3
# Si number density = 24.367066 Si / 1000 Ang^3
#
#
#
# Elastic Constant Matrix: (Units=GPa)
#
#
# Indices 1 2 3 4 5 6 
#
# 1 136.5371 18.8885 61.9689 0.0000 35.0885 0.0000
# 2 18.8885 47.1727 10.0604 0.0000 4.8668 0.0000
# 3 61.9689 10.0604 85.0323 0.0000 31.4771 0.0000
# 4 0.0000 0.0000 0.0000 9.5822 0.0000 -2.5222
# 5 35.0885 4.8668 31.4771 0.0000 57.2932 0.0000
# 6 0.0000 0.0000 0.0000 -2.5222 0.0000 18.7053
#
#
#
# Elastic Compliance Matrix: (Units=1/GPa)
#
#
# Indices 1 2 3 4 5 6 
#
# 1 0.011711 -0.002868 -0.007068 0.000000 -0.003046 0.000000
# 2 -0.002868 0.022463 -0.000642 0.000000 0.000201 0.000000
# 3 -0.007068 -0.000642 0.019287 0.000000 -0.006213 0.000000
# 4 0.000000 0.000000 0.000000 0.108200 0.000000 0.014590
# 5 -0.003046 0.000201 -0.006213 0.000000 0.022716 0.000000
# 6 0.000000 0.000000 0.000000 0.014590 0.000000 0.055428
#
#
# Mechanical properties :
#
#
# Convention : Reuss Voigt Hill
#
# Bulk Modulus (GPa) = 30.95434 50.06420 40.50927
# Shear Modulus (GPa) = 18.40060 28.97111 23.68585
#
# Velocity S-wave (km/s) = 2.75097 3.45185 3.12114
# Velocity P-wave (km/s) = 4.77717 6.03966 5.44513
#
# Compressibility (1/GPa) = 0.03230564
#
# Stress axis : x y z
#
# Youngs Moduli (GPa) = 85.38684 44.51729 51.84768
#
# Poissons Ratio (x) = 0.12766 0.36647
# Poissons Ratio (y) = 0.24487 0.03329
# Poissons Ratio (z) = 0.60353 0.02859
#
# Static dielectric constant tensor:
#      x y z
#    x 1.814140 0.000000 0.223860 
#    y 0.000000 1.984480 0.000000 
#    z 0.223860 0.000000 1.679250 
# 
# From -- ./inp_files/103617.got.cif
#   From: 2010.05.17/outbox.cif.g08.bks.cpg/sg15_52_cif.got.tgz:103617.got - 2010.06.03 18:47:42.
