data_PCOD9264967
_publ_section_title
;
Structure prediction by ZEFSAII (Michael W. Deem and Ramdas Pophale) SiO2 
 PCOD9264967
Probable space group: C 2/C
;
_chemical_formula_sum "Si O2"
_cell_formula_units_Z 48
_cell_length_a 31.541121
_cell_length_b 9.568697
_cell_length_c 8.564476
_cell_angle_alpha 90.000000
_cell_angle_beta 75.232827
_cell_angle_gamma 90.000000
_cell_volume 2499.444730
_symmetry_space_group_name_H-M "C 2/C"
_symmetry_group_IT_number 15
_symmetry_cell_setting 'monoclinic'
loop_
_space_group_symop_operation_xyz
x,y,z
-x,y,1/2-z
-x,-y,-z
x,-y,1/2+z
1/2+x,1/2+y,z
1/2-x,1/2+y,1/2-z
1/2-x,1/2-y,-z
1/2+x,1/2-y,1/2+z
loop_
_atom_site_type_symbol
_atom_site_label
_atom_site_fract_x
_atom_site_fract_y
_atom_site_fract_z
Si Si1 0.670401 0.305788 0.500662
Si Si2 0.835873 0.363318 0.017343
Si Si3 0.684269 0.418167 0.828838
Si Si4 0.032280 0.564337 0.341763
Si Si5 0.592122 0.900183 0.054849
Si Si6 0.214749 0.581393 0.252687
O O1 0.684828 0.377658 0.647089
O O2 0.665474 0.429368 0.380158
O O3 0.625874 0.219602 0.570846
O O4 0.704265 0.192612 0.399123
O O5 0.841584 0.203142 0.056404
O O6 0.799978 0.430850 0.168449
O O7 0.878601 0.459690 0.996867
O O8 0.816246 0.381057 0.863331
O O9 0.734663 0.417045 0.839484
O O10 0.057210 0.444418 0.219037
O O11 0.068796 0.638900 0.413363
O O12 0.000000 0.641698 0.250000
O O13 0.000000 0.500000 0.500000
#
# Coordination Sequence:
#
# PCOD9264967 Si02
#       6
#     8   8   8   8   8   8
#     4  11  23  35  53  77 111 151 187 237 282 316
#     4  11  21  34  56  78 109 151 186 234 280 315
#     4  12  22  36  51  77 109 153 200 231 271 325
#     4   9  18  33  59  89 109 130 163 215 272 332
#     4  10  19  36  55  85 114 133 173 223 276 335
#     4  11  21  36  52  76 108 150 199 244 274 307
#
# _framework density 19.204266000000001
#
# number of rings (size 3 to 8) (size 9 to 14) (size 15 to 20)
#    0.000    1.333    0.000    9.000    0.000    0.000 
#    0.000    0.000    0.000    0.000    0.000   73.500 
#    0.000    0.000    0.000    0.000    0.000    0.000 
#
# Total GULP energy -134049.866861 kJ/mol
# GULP energy per Si atom -5585.411119 kJ/mol
# Density = 1.916056 g / cm^3
# Si number density = 19.204266 Si / 1000 Ang^3
#
#
#
# Elastic Constant Matrix: (Units=GPa)
#
#
# Indices 1 2 3 4 5 6 
#
# 1 83.7531 15.4486 18.2087 0.0000 -1.3350 0.0000
# 2 15.4486 74.4839 -4.9084 0.0000 -17.9874 0.0000
# 3 18.2087 -4.9084 65.4070 0.0000 3.4758 0.0000
# 4 0.0000 0.0000 0.0000 26.8102 0.0000 1.2080
# 5 -1.3350 -17.9874 3.4758 0.0000 30.4905 0.0000
# 6 0.0000 0.0000 0.0000 1.2080 0.0000 4.7621
#
#
#
# Elastic Compliance Matrix: (Units=1/GPa)
#
#
# Indices 1 2 3 4 5 6 
#
# 1 0.013377 -0.003246 -0.003921 0.000000 -0.000882 0.000000
# 2 -0.003246 0.016475 0.001641 0.000000 0.009390 0.000000
# 3 -0.003921 0.001641 0.016562 0.000000 -0.001092 0.000000
# 4 0.000000 0.000000 0.000000 0.037731 0.000000 -0.009571
# 5 -0.000882 0.009390 -0.001092 0.000000 0.038422 0.000000
# 6 0.000000 0.000000 0.000000 -0.009571 0.000000 0.212417
#
#
# Mechanical properties :
#
#
# Convention : Reuss Voigt Hill
#
# Bulk Modulus (GPa) = 28.27908 31.23797 29.75852
# Shear Modulus (GPa) = 13.97344 25.40557 19.68951
#
# Velocity S-wave (km/s) = 2.70037 3.64113 3.20545
# Velocity P-wave (km/s) = 4.94773 5.82912 5.40642
#
# Compressibility (1/GPa) = 0.03536183
#
# Stress axis : x y z
#
# Youngs Moduli (GPa) = 74.75570 60.69925 60.38089
#
# Poissons Ratio (x) = 0.19702 0.23674
# Poissons Ratio (y) = 0.24265 -0.09908
# Poissons Ratio (z) = 0.29310 -0.09961
#
# Static dielectric constant tensor:
#      x y z
#    x 1.690810 0.000000 0.023950 
#    y 0.000000 1.636790 0.000000 
#    z 0.023950 0.000000 1.721890 
# 
# From -- ./inp_files/68592.got.cif
#   From: 2010.05.17/outbox.cif.g08.bks.cpg/sg15_35_cif.got.tgz:68592.got - 2010.06.03 18:47:42.
