data_PCOD9264476
_publ_section_title
;
Structure prediction by ZEFSAII (Michael W. Deem and Ramdas Pophale) SiO2 
 PCOD9264476
Probable space group: C 2/C
;
_chemical_formula_sum "Si O2"
_cell_formula_units_Z 56
_cell_length_a 9.235603
_cell_length_b 21.733381
_cell_length_c 13.905933
_cell_angle_alpha 90.000000
_cell_angle_beta 105.767339
_cell_angle_gamma 90.000000
_cell_volume 2686.186327
_symmetry_space_group_name_H-M "C 2/C"
_symmetry_group_IT_number 15
_symmetry_cell_setting 'monoclinic'
loop_
_space_group_symop_operation_xyz
x,y,z
-x,y,1/2-z
-x,-y,-z
x,-y,1/2+z
1/2+x,1/2+y,z
1/2-x,1/2+y,1/2-z
1/2-x,1/2-y,-z
1/2+x,1/2-y,1/2+z
loop_
_atom_site_type_symbol
_atom_site_label
_atom_site_fract_x
_atom_site_fract_y
_atom_site_fract_z
Si Si1 0.319060 0.287484 0.862177
Si Si2 0.824152 0.090401 0.707695
Si Si3 0.818204 0.660279 0.981405
Si Si4 0.380307 0.090335 0.502512
Si Si5 0.364878 0.716358 0.800417
Si Si6 0.931248 0.496708 0.834197
Si Si7 0.863597 0.192652 0.011774
O O1 0.303361 0.223394 0.918910
O O2 0.246453 0.272147 0.745587
O O3 0.227034 0.333000 0.915588
O O4 0.493710 0.305417 0.892362
O O5 0.785119 0.109943 0.591263
O O6 0.786782 0.151279 0.762945
O O7 0.713592 0.037125 0.718281
O O8 0.000000 0.077103 0.750000
O O9 0.987905 0.639157 0.994958
O O10 0.445996 0.043479 0.595239
O O11 0.231630 0.129555 0.500005
O O12 0.375318 0.050394 0.404676
O O13 0.500000 0.723077 0.750000
O O14 0.429479 0.706824 0.917468
O O15 0.000000 0.468607 0.750000
O O16 0.750000 0.250000 0.000000
#
# Coordination Sequence:
#
# PCOD9264476 Si02
#       7
#     8   8   8   8   8   8   8
#     4  10  19  35  59  85 123 160 205 234 303 370
#     4   9  17  33  61  90 113 147 210 258 295 350
#     4   9  17  34  57  85 119 159 192 247 294 370
#     4  10  22  40  61  90 122 158 207 255 314 364
#     4  10  21  36  62  92 119 166 211 247 299 372
#     4  10  21  40  64  86 116 163 211 258 309 367
#     4  12  23  38  59  90 131 160 195 260 309 366
#
# _framework density 20.847398999999999
#
# number of rings (size 3 to 8) (size 9 to 14) (size 15 to 20)
#    0.000    2.000    1.429    4.286    0.000    0.571 
#    2.571    1.429    0.000   10.286    0.000    0.000 
#    0.000    0.000    0.000    0.000    0.000    0.000 
#
# Total GULP energy -156241.920377 kJ/mol
# GULP energy per Si atom -5580.068585 kJ/mol
# Density = 2.079995 g / cm^3
# Si number density = 20.847399 Si / 1000 Ang^3
#
#
#
# Elastic Constant Matrix: (Units=GPa)
#
#
# Indices 1 2 3 4 5 6 
#
# 1 93.0354 18.2607 34.4827 0.0000 7.5675 0.0000
# 2 18.2607 31.5152 14.9646 0.0000 -1.6959 0.0000
# 3 34.4827 14.9646 51.1369 0.0000 6.4633 0.0000
# 4 0.0000 0.0000 0.0000 13.4140 0.0000 -8.2701
# 5 7.5675 -1.6959 6.4633 0.0000 31.3326 0.0000
# 6 0.0000 0.0000 0.0000 -8.2701 0.0000 16.7857
#
#
#
# Elastic Compliance Matrix: (Units=1/GPa)
#
#
# Indices 1 2 3 4 5 6 
#
# 1 0.014990 -0.004796 -0.008434 0.000000 -0.002140 0.000000
# 2 -0.004796 0.038968 -0.008812 0.000000 0.005085 0.000000
# 3 -0.008434 -0.008812 0.028364 0.000000 -0.004291 0.000000
# 4 0.000000 0.000000 0.000000 0.107073 0.000000 0.052754
# 5 -0.002140 0.005085 -0.004291 0.000000 0.033593 0.000000
# 6 0.000000 0.000000 0.000000 0.052754 0.000000 0.085566
#
#
# Mechanical properties :
#
#
# Convention : Reuss Voigt Hill
#
# Bulk Modulus (GPa) = 26.15269 34.56707 30.35988
# Shear Modulus (GPa) = 13.68427 19.50509 16.59468
#
# Velocity S-wave (km/s) = 2.56481 3.06210 2.82442
# Velocity P-wave (km/s) = 4.61986 5.39619 5.02305
#
# Compressibility (1/GPa) = 0.03823698
#
# Stress axis : x y z
#
# Youngs Moduli (GPa) = 66.71095 25.66230 35.25625
#
# Poissons Ratio (x) = 0.12307 0.29736
# Poissons Ratio (y) = 0.31994 0.31068
# Poissons Ratio (z) = 0.56265 0.22614
#
# Static dielectric constant tensor:
#      x y z
#    x 1.767810 0.000000 -0.010690 
#    y 0.000000 1.781890 0.000000 
#    z -0.010690 0.000000 1.834740 
# 
# From -- ./inp_files/137471.got.cif
#   From: 2010.05.17/outbox.cif.g08.bks.cpg/sg15_69_cif.got.tgz:137471.got - 2010.06.03 18:47:42.
