data_PCOD9264665
_publ_section_title
;
Structure prediction by ZEFSAII (Michael W. Deem and Ramdas Pophale) SiO2 
 PCOD9264665
Probable space group: C 2/C
;
_chemical_formula_sum "Si O2"
_cell_formula_units_Z 52
_cell_length_a 13.294733
_cell_length_b 13.166003
_cell_length_c 21.233251
_cell_angle_alpha 90.000000
_cell_angle_beta 141.214344
_cell_angle_gamma 90.000000
_cell_volume 2328.133249
_symmetry_space_group_name_H-M "C 2/C"
_symmetry_group_IT_number 15
_symmetry_cell_setting 'monoclinic'
loop_
_space_group_symop_operation_xyz
x,y,z
-x,y,1/2-z
-x,-y,-z
x,-y,1/2+z
1/2+x,1/2+y,z
1/2-x,1/2+y,1/2-z
1/2-x,1/2-y,-z
1/2+x,1/2-y,1/2+z
loop_
_atom_site_type_symbol
_atom_site_label
_atom_site_fract_x
_atom_site_fract_y
_atom_site_fract_z
Si Si1 0.339433 0.181491 0.752156
Si Si2 0.309724 0.875611 0.092524
Si Si3 0.047567 0.178129 0.102356
Si Si4 0.000000 0.043982 0.750000
Si Si5 0.065075 0.031269 0.646157
Si Si6 0.214893 0.693993 0.581085
Si Si7 0.281035 0.108704 0.049002
O O1 0.525074 0.158245 0.858028
O O2 0.312845 0.169098 0.664862
O O3 0.332340 0.289825 0.782342
O O4 0.219354 0.101399 0.723404
O O5 0.322056 0.998148 0.095339
O O6 0.143801 0.837397 0.981435
O O7 0.086093 0.259700 0.066613
O O8 0.092009 0.060252 0.110528
O O9 0.983132 0.987535 0.808390
O O10 0.842802 0.114664 0.670115
O O11 0.913085 0.100762 0.553873
O O12 0.312472 0.794715 0.607549
O O13 0.149885 0.638880 0.486049
#
# Coordination Sequence:
#
# PCOD9264665 Si02
#       7
#     8   8   8   4   8   8   8
#     4  11  22  40  63  94 122 171 223 257 308 398
#     4  10  23  41  61  89 135 168 213 261 319 385
#     4  11  22  40  65  90 129 174 207 265 327 375
#     4  10  20  36  58  88 130 156 210 270 308 384
#     4  10  21  39  61  88 126 165 213 259 328 376
#     4  10  19  35  61  90 119 161 210 265 321 375
#     4   9  20  38  61  89 124 164 207 270 331 370
#
# _framework density 22.335491000000001
#
# number of rings (size 3 to 8) (size 9 to 14) (size 15 to 20)
#    0.000    1.846    1.538    2.308    0.000    6.154 
#    5.538    2.308    0.000    0.000    0.000    0.000 
#    0.000    0.000    0.000    0.000    0.000    0.000 
#
# Total GULP energy -144911.996195 kJ/mol
# GULP energy per Si atom -5573.538315 kJ/mol
# Density = 2.228465 g / cm^3
# Si number density = 22.335491 Si / 1000 Ang^3
#
#
#
# Elastic Constant Matrix: (Units=GPa)
#
#
# Indices 1 2 3 4 5 6 
#
# 1 76.9451 11.9144 5.5486 0.0000 -6.6654 0.0000
# 2 11.9144 75.9515 21.6839 0.0000 -3.1180 0.0000
# 3 5.5486 21.6839 54.1004 0.0000 -3.0626 0.0000
# 4 0.0000 0.0000 0.0000 23.6693 0.0000 -0.4934
# 5 -6.6654 -3.1180 -3.0626 0.0000 29.5832 0.0000
# 6 0.0000 0.0000 0.0000 -0.4934 0.0000 26.2742
#
#
#
# Elastic Compliance Matrix: (Units=1/GPa)
#
#
# Indices 1 2 3 4 5 6 
#
# 1 0.013565 -0.001875 -0.000481 0.000000 0.002809 0.000000
# 2 -0.001875 0.015154 -0.005849 0.000000 0.000569 0.000000
# 3 -0.000481 -0.005849 0.020960 0.000000 0.001445 0.000000
# 4 0.000000 0.000000 0.000000 0.042265 0.000000 0.000794
# 5 0.002809 0.000569 0.001445 0.000000 0.034645 0.000000
# 6 0.000000 0.000000 0.000000 0.000794 0.000000 0.038075
#
#
# Mechanical properties :
#
#
# Convention : Reuss Voigt Hill
#
# Bulk Modulus (GPa) = 30.05904 31.69896 30.87900
# Shear Modulus (GPa) = 26.01952 27.09535 26.55743
#
# Velocity S-wave (km/s) = 3.41683 3.48675 3.45196
# Velocity P-wave (km/s) = 5.39013 5.51660 5.45373
#
# Compressibility (1/GPa) = 0.03326786
#
# Stress axis : x y z
#
# Youngs Moduli (GPa) = 73.72109 65.99020 47.71072
#
# Poissons Ratio (x) = 0.12376 0.02293
# Poissons Ratio (y) = 0.13825 0.27907
# Poissons Ratio (z) = 0.03543 0.38599
#
# Static dielectric constant tensor:
#      x y z
#    x 1.911550 0.000000 -0.065480 
#    y 0.000000 1.801660 0.000000 
#    z -0.065480 0.000000 1.819190 
# 
# From -- ./inp_files/273882.got.cif
#   From: 2010.05.17/outbox.cif.g08.bks.cpg/sg15_137_cif.got.tgz:273882.got - 2010.06.03 18:47:42.
