data_PCOD9264803
_publ_section_title
;
Structure prediction by ZEFSAII (Michael W. Deem and Ramdas Pophale) SiO2 
 PCOD9264803
Probable space group: C 2/C
;
_chemical_formula_sum "Si O2"
_cell_formula_units_Z 40
_cell_length_a 14.773034
_cell_length_b 12.915522
_cell_length_c 17.453019
_cell_angle_alpha 90.000000
_cell_angle_beta 38.369609
_cell_angle_gamma 90.000000
_cell_volume 2067.075596
_symmetry_space_group_name_H-M "C 2/C"
_symmetry_group_IT_number 15
_symmetry_cell_setting 'monoclinic'
loop_
_space_group_symop_operation_xyz
x,y,z
-x,y,1/2-z
-x,-y,-z
x,-y,1/2+z
1/2+x,1/2+y,z
1/2-x,1/2+y,1/2-z
1/2-x,1/2-y,-z
1/2+x,1/2-y,1/2+z
loop_
_atom_site_type_symbol
_atom_site_label
_atom_site_fract_x
_atom_site_fract_y
_atom_site_fract_z
Si Si1 0.472806 0.580886 0.086469
Si Si2 0.352051 0.558832 0.803537
Si Si3 0.286569 0.822637 0.380023
Si Si4 0.844068 0.609478 0.998636
Si Si5 0.142879 0.692662 0.844589
O O1 0.400149 0.520514 0.204698
O O2 0.382025 0.684723 0.127795
O O3 0.500000 0.500000 0.000000
O O4 0.630728 0.625959 0.002064
O O5 0.500000 0.587744 0.750000
O O6 0.235179 0.498078 0.933552
O O7 0.265257 0.650957 0.820264
O O8 0.271249 0.700224 0.405056
O O9 0.384269 0.870524 0.382930
O O10 0.312175 0.832451 0.272870
O O11 0.986891 0.633370 0.955090
#
# Coordination Sequence:
#
# PCOD9264803 Si02
#       5
#     8   8   8   8   8
#     4  11  22  40  65  87 125 171 212 260 322 379
#     4  12  23  40  64  93 131 175 211 261 324 389
#     4  10  19  35  63  96 119 159 215 271 317 369
#     4  10  21  35  61  97 126 154 216 278 315 365
#     4  11  23  38  64  94 127 164 217 267 319 384
#
# _framework density 19.351009999999999
#
# number of rings (size 3 to 8) (size 9 to 14) (size 15 to 20)
#    0.000    1.200    6.000    1.200    0.000    0.000 
#    0.000    1.000    4.400    0.000    0.000    0.000 
#    0.000    0.000    0.000    0.000    0.000    0.000 
#
# Total GULP energy -111570.995729 kJ/mol
# GULP energy per Si atom -5578.549786 kJ/mol
# Density = 1.930697 g / cm^3
# Si number density = 19.351010 Si / 1000 Ang^3
#
#
#
# Elastic Constant Matrix: (Units=GPa)
#
#
# Indices 1 2 3 4 5 6 
#
# 1 161.7507 79.7921 28.8232 0.0000 -1.1256 0.0000
# 2 79.7921 88.8788 23.8428 0.0000 -2.4353 0.0000
# 3 28.8232 23.8428 68.6727 0.0000 10.3290 0.0000
# 4 0.0000 0.0000 0.0000 26.9493 0.0000 -2.3647
# 5 -1.1256 -2.4353 10.3290 0.0000 24.9328 0.0000
# 6 0.0000 0.0000 0.0000 -2.3647 0.0000 27.3471
#
#
#
# Elastic Compliance Matrix: (Units=1/GPa)
#
#
# Indices 1 2 3 4 5 6 
#
# 1 0.011207 -0.009694 -0.001356 0.000000 0.000121 0.000000
# 2 -0.009694 0.021036 -0.003709 0.000000 0.003154 0.000000
# 3 -0.001356 -0.003709 0.017578 0.000000 -0.007706 0.000000
# 4 0.000000 0.000000 0.000000 0.037390 0.000000 0.003233
# 5 0.000121 0.003154 -0.007706 0.000000 0.043614 0.000000
# 6 0.000000 0.000000 0.000000 0.003233 0.000000 0.036846
#
#
# Mechanical properties :
#
#
# Convention : Reuss Voigt Hill
#
# Bulk Modulus (GPa) = 49.25674 64.91316 57.08495
# Shear Modulus (GPa) = 24.51500 28.30211 26.40855
#
# Velocity S-wave (km/s) = 3.56316 3.82850 3.69821
# Velocity P-wave (km/s) = 6.51442 7.29117 6.91371
#
# Compressibility (1/GPa) = 0.02030179
#
# Stress axis : x y z
#
# Youngs Moduli (GPa) = 89.23003 47.53833 56.88994
#
# Poissons Ratio (x) = 0.46084 0.07716
# Poissons Ratio (y) = 0.86500 0.21101
# Poissons Ratio (z) = 0.12102 0.17632
#
# Static dielectric constant tensor:
#      x y z
#    x 1.714180 0.000000 -0.008790 
#    y 0.000000 1.694500 0.000000 
#    z -0.008790 0.000000 1.722170 
# 
# From -- ./inp_files/142818.got.cif
#   From: 2010.05.17/outbox.cif.g08.bks.cpg/sg15_72_cif.got.tgz:142818.got - 2010.06.03 18:47:42.
