data_PCOD9264205
_publ_section_title
;
Structure prediction by ZEFSAII (Michael W. Deem and Ramdas Pophale) SiO2 
 PCOD9264205
Probable space group: C 2/C
;
_chemical_formula_sum "Si O2"
_cell_formula_units_Z 52
_cell_length_a 29.575095
_cell_length_b 9.146031
_cell_length_c 13.472439
_cell_angle_alpha 90.000000
_cell_angle_beta 132.592960
_cell_angle_gamma 90.000000
_cell_volume 2682.805608
_symmetry_space_group_name_H-M "C 2/C"
_symmetry_group_IT_number 15
_symmetry_cell_setting 'monoclinic'
loop_
_space_group_symop_operation_xyz
x,y,z
-x,y,1/2-z
-x,-y,-z
x,-y,1/2+z
1/2+x,1/2+y,z
1/2-x,1/2+y,1/2-z
1/2-x,1/2-y,-z
1/2+x,1/2-y,1/2+z
loop_
_atom_site_type_symbol
_atom_site_label
_atom_site_fract_x
_atom_site_fract_y
_atom_site_fract_z
Si Si1 0.661550 0.429515 0.950789
Si Si2 0.090065 0.299316 0.236496
Si Si3 0.813955 0.314469 0.856055
Si Si4 0.196519 0.247333 0.053620
Si Si5 0.000000 0.538040 0.750000
Si Si6 0.214609 0.540236 0.983867
Si Si7 0.601073 0.081240 0.542354
O O1 0.609866 0.362627 0.801292
O O2 0.662159 0.331846 0.052463
O O3 0.660771 0.601220 0.969955
O O4 0.727656 0.412734 0.995114
O O5 0.037634 0.361764 0.229453
O O6 0.152502 0.390006 0.350756
O O7 0.076129 0.337971 0.102490
O O8 0.763190 0.286663 0.698105
O O9 0.868245 0.419911 0.897637
O O10 0.780151 0.401172 0.895742
O O11 0.155970 0.323314 0.078621
O O12 0.205452 0.367024 0.980866
O O13 0.951600 0.442092 0.616998
#
# Coordination Sequence:
#
# PCOD9264205 Si02
#       7
#     8   8   8   8   4   8   8
#     4  11  20  34  59  91 133 157 197 266 314 370
#     4  11  22  40  65  90 118 166 215 261 306 362
#     4  10  19  35  57  89 126 160 205 253 306 368
#     4  11  20  34  58  94 132 162 196 257 317 375
#     4  12  22  46  66  86 120 164 226 252 292 382
#     4  10  19  35  56  93 129 163 202 249 317 373
#     4  11  23  41  65  90 120 168 212 254 313 368
#
# _framework density 19.382691999999999
#
# number of rings (size 3 to 8) (size 9 to 14) (size 15 to 20)
#    0.000    1.231    4.615    7.385    0.000    0.000 
#    0.000    0.769    0.000    1.846    0.000    0.000 
#    0.000    0.000    0.000    0.000    0.000    0.000 
#
# Total GULP energy -145172.162030 kJ/mol
# GULP energy per Si atom -5583.544693 kJ/mol
# Density = 1.933858 g / cm^3
# Si number density = 19.382692 Si / 1000 Ang^3
#
#
#
# Elastic Constant Matrix: (Units=GPa)
#
#
# Indices 1 2 3 4 5 6 
#
# 1 61.8598 -12.4022 4.0075 0.0000 -10.5320 0.0000
# 2 -12.4022 102.0687 17.9675 0.0000 -15.5865 0.0000
# 3 4.0075 17.9675 79.3166 0.0000 -5.3794 0.0000
# 4 0.0000 0.0000 0.0000 13.5117 0.0000 -8.1843
# 5 -10.5320 -15.5865 -5.3794 0.0000 17.8184 0.0000
# 6 0.0000 0.0000 0.0000 -8.1843 0.0000 -0.0036
#
#
#
# Elastic Compliance Matrix: (Units=1/GPa)
#
#
# Indices 1 2 3 4 5 6 
#
# 1 0.019947 0.005036 -0.001072 0.000000 0.015872 0.000000
# 2 0.005036 0.012876 -0.002252 0.000000 0.013560 0.000000
# 3 -0.001072 -0.002252 0.013267 0.000000 0.001402 0.000000
# 4 0.000000 0.000000 0.000000 0.000053 0.000000 -0.122097
# 5 0.015872 0.013560 0.001402 0.000000 0.077788 0.000000
# 6 0.000000 0.000000 0.000000 -0.122097 0.000000 -0.201574
#
#
# Mechanical properties :
#
#
# Convention : Reuss Voigt Hill
#
# Bulk Modulus (GPa) = 20.19586 29.15453 24.67520
# Shear Modulus (GPa) = -77.44505 21.84347 -27.80079
#
# Velocity S-wave (km/s) = -6.32792 3.36066 -3.79134
# Velocity P-wave (km/s) = 6.55346 5.48934 2.53130
#
# Compressibility (1/GPa) = 0.04951510
#
# Stress axis : x y z
#
# Youngs Moduli (GPa) = 50.13280 77.66154 75.37492
#
# Poissons Ratio (x) = -0.39112 0.08082
# Poissons Ratio (y) = -0.25248 0.16972
# Poissons Ratio (z) = 0.05375 0.17487
#
# Static dielectric constant tensor:
#      x y z
#    x 1.699200 0.000000 -0.053250 
#    y 0.000000 1.728470 0.000000 
#    z -0.053250 0.000000 1.693320 
# 
# From -- ./inp_files/181208.got.cif
#   From: 2010.05.17/outbox.cif.g08.bks.cpg/sg15_91_cif.got.tgz:181208.got - 2010.06.03 18:47:42.
