data_PCOD9264608
_publ_section_title
;
Structure prediction by ZEFSAII (Michael W. Deem and Ramdas Pophale) SiO2 
 PCOD9264608
Probable space group: C 2/C
;
_chemical_formula_sum "Si O2"
_cell_formula_units_Z 48
_cell_length_a 21.108211
_cell_length_b 20.297945
_cell_length_c 9.330733
_cell_angle_alpha 90.000000
_cell_angle_beta 141.154159
_cell_angle_gamma 90.000000
_cell_volume 2507.518251
_symmetry_space_group_name_H-M "C 2/C"
_symmetry_group_IT_number 15
_symmetry_cell_setting 'monoclinic'
loop_
_space_group_symop_operation_xyz
x,y,z
-x,y,1/2-z
-x,-y,-z
x,-y,1/2+z
1/2+x,1/2+y,z
1/2-x,1/2+y,1/2-z
1/2-x,1/2-y,-z
1/2+x,1/2-y,1/2+z
loop_
_atom_site_type_symbol
_atom_site_label
_atom_site_fract_x
_atom_site_fract_y
_atom_site_fract_z
Si Si1 0.489161 0.399744 0.902481
Si Si2 0.295748 0.848803 0.130740
Si Si3 0.592142 0.725892 0.299242
Si Si4 0.262452 0.047554 0.338117
Si Si5 0.570008 0.032451 0.502094
Si Si6 0.347546 0.472655 0.143442
O O1 0.500000 0.394041 0.750000
O O2 0.452978 0.328632 0.887357
O O3 0.411448 0.460063 0.776342
O O4 0.588067 0.418102 0.163403
O O5 0.370723 0.790779 0.215423
O O6 0.353903 0.908327 0.315266
O O7 0.196748 0.814103 0.030320
O O8 0.262697 0.884542 0.924031
O O9 0.500000 0.740250 0.250000
O O10 0.365436 0.029272 0.442494
O O11 0.249136 0.989514 0.431925
O O12 0.177415 0.041366 0.064854
O O13 0.500000 0.000000 0.500000
O O14 0.500000 0.057732 0.250000
#
# Coordination Sequence:
#
# PCOD9264608 Si02
#       6
#     8   8   8   8   8   8
#     4  10  19  35  60  91 130 164 204 252 324 383
#     4  11  24  43  67  95 131 175 221 269 324 394
#     4  10  23  43  67  90 132 182 219 258 326 400
#     4  12  21  39  61  95 130 159 212 272 331 377
#     4  12  24  41  66  97 130 167 218 279 326 381
#     4  11  21  34  62  98 128 160 206 269 322 381
#
# _framework density 19.142433
#
# number of rings (size 3 to 8) (size 9 to 14) (size 15 to 20)
#    0.000    1.000    6.667    0.000    4.667    0.000 
#    0.000    3.333    0.000    5.000    0.000    0.000 
#    0.000    0.000    0.000    0.000    0.000    0.000 
#
# Total GULP energy -133615.840329 kJ/mol
# GULP energy per Si atom -5567.326680 kJ/mol
# Density = 1.909886 g / cm^3
# Si number density = 19.142433 Si / 1000 Ang^3
#
#
#
# Elastic Constant Matrix: (Units=GPa)
#
#
# Indices 1 2 3 4 5 6 
#
# 1 110.5500 29.9197 28.3634 0.0000 14.1128 0.0000
# 2 29.9197 92.7646 31.4766 0.0000 3.2963 0.0000
# 3 28.3634 31.4766 90.5217 0.0000 -15.7033 0.0000
# 4 0.0000 0.0000 0.0000 26.4590 0.0000 15.0700
# 5 14.1128 3.2963 -15.7033 0.0000 33.9600 0.0000
# 6 0.0000 0.0000 0.0000 15.0700 0.0000 27.2608
#
#
#
# Elastic Compliance Matrix: (Units=1/GPa)
#
#
# Indices 1 2 3 4 5 6 
#
# 1 0.011450 -0.002124 -0.003956 0.000000 -0.006382 0.000000
# 2 -0.002124 0.012994 -0.004260 0.000000 -0.002349 0.000000
# 3 -0.003956 -0.004260 0.015357 0.000000 0.009159 0.000000
# 4 0.000000 0.000000 0.000000 0.055163 0.000000 -0.030494
# 5 -0.006382 -0.002349 0.009159 0.000000 0.036561 0.000000
# 6 0.000000 0.000000 0.000000 -0.030494 0.000000 0.053540
#
#
# Mechanical properties :
#
#
# Convention : Reuss Voigt Hill
#
# Bulk Modulus (GPa) = 52.30036 52.59506 52.44771
# Shear Modulus (GPa) = 23.57159 31.14107 27.35633
#
# Velocity S-wave (km/s) = 3.51291 4.03775 3.78444
# Velocity P-wave (km/s) = 6.62080 7.01948 6.82306
#
# Compressibility (1/GPa) = 0.01912033
#
# Stress axis : x y z
#
# Youngs Moduli (GPa) = 87.33451 76.95841 65.11730
#
# Poissons Ratio (x) = 0.16345 0.25762
# Poissons Ratio (y) = 0.18549 0.27742
# Poissons Ratio (z) = 0.34552 0.32786
#
# Static dielectric constant tensor:
#      x y z
#    x 1.779200 0.000000 0.054240 
#    y 0.000000 1.663190 0.000000 
#    z 0.054240 0.000000 1.706850 
# 
# From -- ./inp_files/57992.got.cif
#   From: 2010.05.17/outbox.cif.g08.bks.cpg/sg15_29_cif.got.tgz:57992.got - 2010.06.03 18:47:42.
