data_PCOD9264382
_publ_section_title
;
Structure prediction by ZEFSAII (Michael W. Deem and Ramdas Pophale) SiO2 
 PCOD9264382
Probable space group: C 2/C
;
_chemical_formula_sum "Si O2"
_cell_formula_units_Z 24
_cell_length_a 7.692191
_cell_length_b 13.150551
_cell_length_c 8.691017
_cell_angle_alpha 90.000000
_cell_angle_beta 95.829212
_cell_angle_gamma 90.000000
_cell_volume 874.607244
_symmetry_space_group_name_H-M "C 2/C"
_symmetry_group_IT_number 15
_symmetry_cell_setting 'monoclinic'
loop_
_space_group_symop_operation_xyz
x,y,z
-x,y,1/2-z
-x,-y,-z
x,-y,1/2+z
1/2+x,1/2+y,z
1/2-x,1/2+y,1/2-z
1/2-x,1/2-y,-z
1/2+x,1/2-y,1/2+z
loop_
_atom_site_type_symbol
_atom_site_label
_atom_site_fract_x
_atom_site_fract_y
_atom_site_fract_z
Si Si1 0.860425 0.416027 0.926791
Si Si2 0.309855 0.543958 0.800883
Si Si3 0.400906 0.775747 0.388736
O O1 0.693880 0.437305 0.019374
O O2 0.943985 0.310461 0.981447
O O3 0.794848 0.440178 0.751149
O O4 0.000000 0.500000 0.000000
O O5 0.500000 0.547721 0.750000
O O6 0.191148 0.631194 0.712474
O O7 0.500000 0.721020 0.250000
O O8 0.250000 0.750000 0.500000
#
# Coordination Sequence:
#
# PCOD9264382 Si02
#       3
#     8   8   8
#     4   9  18  35  58  82 114 152 194 246 292 342
#     4  10  19  35  58  87 116 149 198 250 292 345
#     4   9  19  38  59  85 121 157 194 242 299 355
#
# _framework density 27.440888999999999
#
# number of rings (size 3 to 8) (size 9 to 14) (size 15 to 20)
#    0.000    2.667    0.000    4.000    0.000    0.000 
#    0.000   30.000    0.000    0.000    0.000    7.000 
#    0.000    0.000    0.000    0.000    0.000    0.000 
#
# Total GULP energy -67002.635466 kJ/mol
# GULP energy per Si atom -5583.552955 kJ/mol
# Density = 2.737843 g / cm^3
# Si number density = 27.440889 Si / 1000 Ang^3
#
#
#
# Elastic Constant Matrix: (Units=GPa)
#
#
# Indices 1 2 3 4 5 6 
#
# 1 165.0135 23.7792 42.5934 0.0000 -49.0503 0.0000
# 2 23.7792 32.0822 35.5767 0.0000 -6.7318 0.0000
# 3 42.5934 35.5767 161.8538 0.0000 -41.1578 0.0000
# 4 0.0000 0.0000 0.0000 20.5837 0.0000 -4.0855
# 5 -49.0503 -6.7318 -41.1578 0.0000 61.9008 0.0000
# 6 0.0000 0.0000 0.0000 -4.0855 0.0000 39.7741
#
#
#
# Elastic Compliance Matrix: (Units=1/GPa)
#
#
# Indices 1 2 3 4 5 6 
#
# 1 0.008724 -0.005827 0.000700 0.000000 0.006745 0.000000
# 2 -0.005827 0.045287 -0.010040 0.000000 -0.006368 0.000000
# 3 0.000700 -0.010040 0.009705 0.000000 0.005916 0.000000
# 4 0.000000 0.000000 0.000000 0.049593 0.000000 0.005094
# 5 0.006745 -0.006368 0.005916 0.000000 0.024740 0.000000
# 6 0.000000 0.000000 0.000000 0.005094 0.000000 0.025665
#
#
# Mechanical properties :
#
#
# Convention : Reuss Voigt Hill
#
# Bulk Modulus (GPa) = 29.95688 62.53869 46.24779
# Shear Modulus (GPa) = 24.36920 41.58508 32.97714
#
# Velocity S-wave (km/s) = 2.98327 3.89709 3.47039
# Velocity P-wave (km/s) = 4.77568 6.56426 5.74006
#
# Compressibility (1/GPa) = 0.03338131
#
# Stress axis : x y z
#
# Youngs Moduli (GPa) = 114.62625 22.08153 103.03470
#
# Poissons Ratio (x) = 0.12868 -0.07215
# Poissons Ratio (y) = 0.66798 1.03449
# Poissons Ratio (z) = -0.08026 0.22170
#
# Static dielectric constant tensor:
#      x y z
#    x 2.110460 0.000000 -0.051760 
#    y 0.000000 2.259760 0.000000 
#    z -0.051760 0.000000 2.196890 
# 
# From -- ./inp_files/21031.got.cif
#   From: 2010.05.17/outbox.cif.g08.bks.cpg/sg15_11_cif.got.tgz:21031.got - 2010.06.03 18:47:42.
