data_PCOD9264057
_publ_section_title
;
Structure prediction by ZEFSAII (Michael W. Deem and Ramdas Pophale) SiO2 
 PCOD9264057
Probable space group: C 2/C
;
_chemical_formula_sum "Si O2"
_cell_formula_units_Z 56
_cell_length_a 24.394654
_cell_length_b 5.645309
_cell_length_c 21.665690
_cell_angle_alpha 90.000000
_cell_angle_beta 102.028605
_cell_angle_gamma 90.000000
_cell_volume 2918.187255
_symmetry_space_group_name_H-M "C 2/C"
_symmetry_group_IT_number 15
_symmetry_cell_setting 'monoclinic'
loop_
_space_group_symop_operation_xyz
x,y,z
-x,y,1/2-z
-x,-y,-z
x,-y,1/2+z
1/2+x,1/2+y,z
1/2-x,1/2+y,1/2-z
1/2-x,1/2-y,-z
1/2+x,1/2-y,1/2+z
loop_
_atom_site_type_symbol
_atom_site_label
_atom_site_fract_x
_atom_site_fract_y
_atom_site_fract_z
Si Si1 0.573744 0.867992 0.385669
Si Si2 0.033845 0.307950 0.969374
Si Si3 0.939801 0.695755 0.230872
Si Si4 0.881405 0.361194 0.303794
Si Si5 0.740088 0.030109 0.710147
Si Si6 0.465631 0.424483 0.905515
Si Si7 0.849083 0.078211 0.172925
O O1 0.522892 0.709729 0.399154
O O2 0.628742 0.719620 0.381204
O O3 0.580723 0.071760 0.438491
O O4 0.552854 0.986420 0.317177
O O5 0.052550 0.130505 0.027815
O O6 0.988012 0.190621 0.913496
O O7 0.000000 0.500000 0.000000
O O8 0.918566 0.581195 0.289458
O O9 0.891459 0.861460 0.193028
O O10 0.000000 0.821458 0.250000
O O11 0.824725 0.442303 0.324108
O O12 0.917698 0.170993 0.349678
O O13 0.860036 0.243930 0.235149
O O14 0.756102 0.281591 0.748831
O O15 0.785036 0.999887 0.665747
#
# Coordination Sequence:
#
# PCOD9264057 Si02
#       7
#     8   8   8   8   8   8   8
#     4  10  20  33  50  79 110 150 183 231 293 353
#     4   9  20  35  53  75 113 149 190 235 290 356
#     4  11  20  31  51  80 115 144 176 229 287 350
#     4  10  21  34  54  82 112 150 193 236 286 350
#     4  10  20  40  56  79 119 160 203 237 289 358
#     4  10  19  35  54  81 109 148 191 239 296 343
#     4  10  22  31  53  79 116 154 187 233 290 357
#
# _framework density 19.189995
#
# number of rings (size 3 to 8) (size 9 to 14) (size 15 to 20)
#    0.000    2.000    2.857    0.857    4.000    0.000 
#    0.000    0.000    0.000    0.857    0.000   14.000 
#    0.000    0.000    0.000    0.000    0.000    0.000 
#
# Total GULP energy -155973.077524 kJ/mol
# GULP energy per Si atom -5570.467054 kJ/mol
# Density = 1.914632 g / cm^3
# Si number density = 19.189995 Si / 1000 Ang^3
#
#
#
# Elastic Constant Matrix: (Units=GPa)
#
#
# Indices 1 2 3 4 5 6 
#
# 1 135.2179 32.5231 31.6899 0.0000 -34.8595 0.0000
# 2 32.5231 78.1520 21.0028 0.0000 -14.4390 0.0000
# 3 31.6899 21.0028 48.9503 0.0000 -20.4165 0.0000
# 4 0.0000 0.0000 0.0000 16.8898 0.0000 0.2142
# 5 -34.8595 -14.4390 -20.4165 0.0000 17.4242 0.0000
# 6 0.0000 0.0000 0.0000 0.2142 0.0000 22.6999
#
#
#
# Elastic Compliance Matrix: (Units=1/GPa)
#
#
# Indices 1 2 3 4 5 6 
#
# 1 0.016201 -0.001268 0.006134 0.000000 0.038548 0.000000
# 2 -0.001268 0.015362 -0.002971 0.000000 0.006711 0.000000
# 3 0.006134 -0.002971 0.042685 0.000000 0.059825 0.000000
# 4 0.000000 0.000000 0.000000 0.059214 0.000000 -0.000559
# 5 0.038548 0.006711 0.059825 0.000000 0.210174 0.000000
# 6 0.000000 0.000000 0.000000 -0.000559 0.000000 0.044058
#
#
# Mechanical properties :
#
#
# Convention : Reuss Voigt Hill
#
# Bulk Modulus (GPa) = 12.81446 48.08355 30.44900
# Shear Modulus (GPa) = 12.19760 23.20973 17.70366
#
# Velocity S-wave (km/s) = 2.52389 3.48152 3.04064
# Velocity P-wave (km/s) = 3.89686 6.42435 5.31309
#
# Compressibility (1/GPa) = 0.07803687
#
# Stress axis : x y z
#
# Youngs Moduli (GPa) = 61.72536 65.09667 23.42747
#
# Poissons Ratio (x) = 0.08257 -0.14370
# Poissons Ratio (y) = 0.07830 0.06960
# Poissons Ratio (z) = -0.37862 0.19339
#
# Static dielectric constant tensor:
#      x y z
#    x 1.682500 0.000000 -0.025380 
#    y 0.000000 1.805890 0.000000 
#    z -0.025380 0.000000 1.695600 
# 
# From -- ./inp_files/280834.got.cif
#   From: 2010.05.17/outbox.cif.g08.bks.cpg/sg15_141_cif.got.tgz:280834.got - 2010.06.03 18:47:42.
