data_PCOD9264724
_publ_section_title
;
Structure prediction by ZEFSAII (Michael W. Deem and Ramdas Pophale) SiO2 
 PCOD9264724
Probable space group: C 2/C
;
_chemical_formula_sum "Si O2"
_cell_formula_units_Z 48
_cell_length_a 13.962063
_cell_length_b 19.964921
_cell_length_c 8.707682
_cell_angle_alpha 90.000000
_cell_angle_beta 71.626853
_cell_angle_gamma 90.000000
_cell_volume 2303.545918
_symmetry_space_group_name_H-M "C 2/C"
_symmetry_group_IT_number 15
_symmetry_cell_setting 'monoclinic'
loop_
_space_group_symop_operation_xyz
x,y,z
-x,y,1/2-z
-x,-y,-z
x,-y,1/2+z
1/2+x,1/2+y,z
1/2-x,1/2+y,1/2-z
1/2-x,1/2-y,-z
1/2+x,1/2-y,1/2+z
loop_
_atom_site_type_symbol
_atom_site_label
_atom_site_fract_x
_atom_site_fract_y
_atom_site_fract_z
Si Si1 0.282597 0.063865 0.398053
Si Si2 0.945528 0.855284 0.008026
Si Si3 0.080286 0.265741 0.491936
Si Si4 0.500000 0.877202 0.750000
Si Si5 0.327365 0.454376 0.857595
Si Si6 0.283982 0.317613 0.338285
Si Si7 0.000000 0.057491 0.750000
O O1 0.400524 0.077000 0.306722
O O2 0.228739 0.072545 0.262319
O O3 0.245945 0.121078 0.535027
O O4 0.249209 0.992174 0.486625
O O5 0.849267 0.838662 0.161601
O O6 0.014572 0.899432 0.089137
O O7 0.009134 0.788527 0.948274
O O8 0.899319 0.898845 0.896259
O O9 0.175946 0.288013 0.343174
O O10 0.142196 0.232326 0.604367
O O11 0.015434 0.326548 0.596969
O O12 0.403921 0.512320 0.766726
#
# Coordination Sequence:
#
# PCOD9264724 Si02
#       7
#     8   8   8   4   8   8   4
#     4  11  23  41  62  94 120 166 200 261 305 369
#     4  12  20  38  64  91 121 164 203 257 300 369
#     4  10  19  35  62  89 114 159 209 245 297 360
#     4  10  21  40  68  86 120 161 218 246 300 368
#     4  12  25  38  60  93 131 157 206 250 319 361
#     4  10  19  35  64  87 119 157 209 246 300 359
#     4  12  21  36  56  92 126 161 196 248 308 370
#
# _framework density 20.837440999999998
#
# number of rings (size 3 to 8) (size 9 to 14) (size 15 to 20)
#    0.000    1.000    6.667    0.500    2.333    0.667 
#    0.000    0.833    3.667    0.000    0.000    0.000 
#    0.000    0.000    0.000    0.000    0.000    0.000 
#
# Total GULP energy -134086.379833 kJ/mol
# GULP energy per Si atom -5586.932493 kJ/mol
# Density = 2.079001 g / cm^3
# Si number density = 20.837441 Si / 1000 Ang^3
#
#
#
# Elastic Constant Matrix: (Units=GPa)
#
#
# Indices 1 2 3 4 5 6 
#
# 1 138.4002 66.9297 53.8299 0.0000 -22.0862 0.0000
# 2 66.9297 75.2565 26.8528 0.0000 -5.1658 0.0000
# 3 53.8299 26.8528 55.5679 0.0000 -9.4451 0.0000
# 4 0.0000 0.0000 0.0000 0.9584 0.0000 -13.6519
# 5 -22.0862 -5.1658 -9.4451 0.0000 40.4958 0.0000
# 6 0.0000 0.0000 0.0000 -13.6519 0.0000 15.4641
#
#
#
# Elastic Compliance Matrix: (Units=1/GPa)
#
#
# Indices 1 2 3 4 5 6 
#
# 1 0.018074 -0.011818 -0.010807 0.000000 0.005829 0.000000
# 2 -0.011818 0.023786 -0.000652 0.000000 -0.003563 0.000000
# 3 -0.010807 -0.000652 0.028910 0.000000 0.000766 0.000000
# 4 0.000000 0.000000 0.000000 -0.090141 0.000000 -0.079578
# 5 0.005829 -0.003563 0.000766 0.000000 0.027597 0.000000
# 6 0.000000 0.000000 0.000000 -0.079578 0.000000 -0.005587
#
#
# Mechanical properties :
#
#
# Convention : Reuss Voigt Hill
#
# Bulk Modulus (GPa) = 41.29357 62.71659 52.00508
# Shear Modulus (GPa) = 87.31110 19.49115 53.40112
#
# Velocity S-wave (km/s) = 6.48013 3.06173 5.06785
# Velocity P-wave (km/s) = 8.70916 6.53164 7.69778
#
# Compressibility (1/GPa) = 0.02421684
#
# Stress axis : x y z
#
# Youngs Moduli (GPa) = 55.32755 42.04092 34.59000
#
# Poissons Ratio (x) = 0.49684 0.37381
# Poissons Ratio (y) = 0.65387 0.02255
# Poissons Ratio (z) = 0.59792 0.02740
#
# Static dielectric constant tensor:
#      x y z
#    x 1.724810 0.000000 -0.033310 
#    y 0.000000 1.805420 0.000000 
#    z -0.033310 0.000000 1.789590 
# 
# From -- ./inp_files/40727.got.cif
#   From: 2010.05.17/outbox.cif.g08.bks.cpg/sg15_21_cif.got.tgz:40727.got - 2010.06.03 18:47:42.
