data_PCOD9264864
_publ_section_title
;
Structure prediction by ZEFSAII (Michael W. Deem and Ramdas Pophale) SiO2 
 PCOD9264864
Probable space group: C 2/C
;
_chemical_formula_sum "Si O2"
_cell_formula_units_Z 64
_cell_length_a 12.812534
_cell_length_b 9.869383
_cell_length_c 28.005058
_cell_angle_alpha 90.000000
_cell_angle_beta 131.089037
_cell_angle_gamma 90.000000
_cell_volume 2669.031995
_symmetry_space_group_name_H-M "C 2/C"
_symmetry_group_IT_number 15
_symmetry_cell_setting 'monoclinic'
loop_
_space_group_symop_operation_xyz
x,y,z
-x,y,1/2-z
-x,-y,-z
x,-y,1/2+z
1/2+x,1/2+y,z
1/2-x,1/2+y,1/2-z
1/2-x,1/2-y,-z
1/2+x,1/2-y,1/2+z
loop_
_atom_site_type_symbol
_atom_site_label
_atom_site_fract_x
_atom_site_fract_y
_atom_site_fract_z
Si Si1 0.403691 0.925739 0.524047
Si Si2 0.272234 0.468810 0.202380
Si Si3 0.730457 0.212470 0.432250
Si Si4 0.373858 0.237199 0.499792
Si Si5 0.167717 0.189356 0.130029
Si Si6 0.318676 0.785087 0.874905
Si Si7 0.954674 0.168035 0.828189
Si Si8 0.887520 0.552639 0.256946
O O1 0.295782 0.892505 0.533702
O O2 0.367895 0.802287 0.478199
O O3 0.551753 0.889189 0.588907
O O4 0.398457 0.074973 0.503281
O O5 0.228288 0.341753 0.156235
O O6 0.292931 0.608238 0.179111
O O7 0.409008 0.437161 0.274660
O O8 0.151666 0.466475 0.207790
O O9 0.750587 0.130883 0.390666
O O10 0.609602 0.325451 0.394768
O O11 0.250000 0.250000 0.500000
O O12 0.506343 0.306170 0.566723
O O13 0.323602 0.273508 0.430226
O O14 0.236179 0.103362 0.192668
O O15 0.352639 0.678488 0.843228
O O16 0.948248 0.309888 0.797756
O O17 0.000000 0.506086 0.250000
#
# Coordination Sequence:
#
# PCOD9264864 Si02
#       8
#     8   8   8   8   8   8   8   8
#     4  10  20  37  64  91 117 159 208 252 314 373
#     4  10  21  37  63  88 125 161 208 256 312 376
#     4  10  19  35  66  92 116 150 215 265 301 366
#     4  12  25  41  60  93 134 172 207 258 325 391
#     4  11  21  38  61  89 123 161 208 264 311 367
#     4  10  19  40  64  87 123 167 210 249 311 391
#     4   9  20  36  58  96 119 152 204 266 310 362
#     4  10  20  37  60  89 119 163 207 254 311 377
#
# _framework density 23.978732000000001
#
# number of rings (size 3 to 8) (size 9 to 14) (size 15 to 20)
#    0.000    1.750    3.750    1.125    0.000    1.000 
#    4.500    1.875    0.000    0.000    0.000    0.000 
#    0.000    0.000    0.000    0.000    0.000    0.000 
#
# Total GULP energy -178266.887545 kJ/mol
# GULP energy per Si atom -5570.840236 kJ/mol
# Density = 2.392416 g / cm^3
# Si number density = 23.978732 Si / 1000 Ang^3
#
#
#
# Elastic Constant Matrix: (Units=GPa)
#
#
# Indices 1 2 3 4 5 6 
#
# 1 89.0713 4.1181 35.8995 0.0000 -19.2352 0.0000
# 2 4.1181 27.9959 4.6524 0.0000 0.2733 0.0000
# 3 35.8995 4.6524 128.8273 0.0000 -12.4208 0.0000
# 4 0.0000 0.0000 0.0000 20.5864 0.0000 -9.3784
# 5 -19.2352 0.2733 -12.4208 0.0000 36.4504 0.0000
# 6 0.0000 0.0000 0.0000 -9.3784 0.0000 22.8537
#
#
#
# Elastic Compliance Matrix: (Units=1/GPa)
#
#
# Indices 1 2 3 4 5 6 
#
# 1 0.013956 -0.001578 -0.003227 0.000000 0.006277 0.000000
# 2 -0.001578 0.036133 -0.001005 0.000000 -0.001446 0.000000
# 3 -0.003227 -0.001005 0.008824 0.000000 0.001312 0.000000
# 4 0.000000 0.000000 0.000000 0.059745 0.000000 0.024517
# 5 0.006277 -0.001446 0.001312 0.000000 0.031205 0.000000
# 6 0.000000 0.000000 0.000000 0.024517 0.000000 0.053818
#
#
# Mechanical properties :
#
#
# Convention : Reuss Voigt Hill
#
# Bulk Modulus (GPa) = 21.14423 37.24828 29.19625
# Shear Modulus (GPa) = 21.63904 29.39306 25.51605
#
# Velocity S-wave (km/s) = 3.00730 3.50494 3.26561
# Velocity P-wave (km/s) = 4.57116 5.65217 5.14016
#
# Compressibility (1/GPa) = 0.04729423
#
# Stress axis : x y z
#
# Youngs Moduli (GPa) = 71.65377 27.67577 113.32375
#
# Poissons Ratio (x) = 0.04367 0.36568
# Poissons Ratio (y) = 0.11307 0.11384
# Poissons Ratio (z) = 0.23122 0.02780
#
# Static dielectric constant tensor:
#      x y z
#    x 1.992770 0.000000 -0.014600 
#    y 0.000000 1.893420 0.000000 
#    z -0.014600 0.000000 2.061230 
# 
# From -- ./inp_files/313625.got.cif
#   From: 2010.05.17/outbox.cif.g08.bks.cpg/sg15_157_cif.got.tgz:313625.got - 2010.06.03 18:47:42.
