data_PCOD9264722
_publ_section_title
;
Structure prediction by ZEFSAII (Michael W. Deem and Ramdas Pophale) SiO2 
 PCOD9264722
Probable space group: C 2/C
;
_chemical_formula_sum "Si O2"
_cell_formula_units_Z 56
_cell_length_a 8.839924
_cell_length_b 24.992273
_cell_length_c 12.441369
_cell_angle_alpha 90.000000
_cell_angle_beta 127.085430
_cell_angle_gamma 90.000000
_cell_volume 2192.715845
_symmetry_space_group_name_H-M "C 2/C"
_symmetry_group_IT_number 15
_symmetry_cell_setting 'monoclinic'
loop_
_space_group_symop_operation_xyz
x,y,z
-x,y,1/2-z
-x,-y,-z
x,-y,1/2+z
1/2+x,1/2+y,z
1/2-x,1/2+y,1/2-z
1/2-x,1/2-y,-z
1/2+x,1/2-y,1/2+z
loop_
_atom_site_type_symbol
_atom_site_label
_atom_site_fract_x
_atom_site_fract_y
_atom_site_fract_z
Si Si1 0.981095 0.382445 0.569353
Si Si2 0.846835 0.068272 0.259604
Si Si3 0.037399 0.232396 0.118692
Si Si4 0.029058 0.733052 0.145777
Si Si5 0.356518 0.438056 0.420661
Si Si6 0.686711 0.159640 0.948446
Si Si7 0.306616 0.477707 0.060170
O O1 0.821382 0.425892 0.485020
O O2 0.153638 0.405286 0.712404
O O3 0.929212 0.324840 0.594597
O O4 0.084557 0.372785 0.499131
O O5 0.792051 0.019060 0.154442
O O6 0.000000 0.097964 0.250000
O O7 0.972497 0.063843 0.419445
O O8 0.243028 0.224384 0.258354
O O9 0.948412 0.288581 0.120673
O O10 0.041798 0.236717 0.990022
O O11 0.883740 0.186484 0.069282
O O12 0.000000 0.758970 0.250000
O O13 0.239941 0.382769 0.376936
O O14 0.478768 0.454794 0.369563
O O15 0.241887 0.486612 0.427918
#
# Coordination Sequence:
#
# PCOD9264722 Si02
#       7
#     8   8   8   8   8   8   8
#     4  11  22  36  67 104 128 176 235 279 340 418
#     4  10  19  35  62  88 138 174 219 274 339 393
#     4  10  24  43  74 102 141 178 240 293 358 423
#     4  11  25  44  73 104 139 182 229 301 361 420
#     4  10  21  39  65  92 139 185 227 272 352 417
#     4  10  21  40  70 101 134 185 232 292 343 422
#     4  10  22  37  62  98 142 173 228 288 333 409
#
# _framework density 25.539103000000001
#
# number of rings (size 3 to 8) (size 9 to 14) (size 15 to 20)
#    0.000    1.714    2.857    1.714    4.000    4.571 
#    0.000    0.000   37.714    0.000    0.000    0.000 
#    0.000    0.000    0.000    0.000    0.000    0.000 
#
# Total GULP energy -156344.159506 kJ/mol
# GULP energy per Si atom -5583.719982 kJ/mol
# Density = 2.548097 g / cm^3
# Si number density = 25.539103 Si / 1000 Ang^3
#
#
#
# Elastic Constant Matrix: (Units=GPa)
#
#
# Indices 1 2 3 4 5 6 
#
# 1 90.3220 54.1883 22.1085 0.0000 -1.1675 0.0000
# 2 54.1883 148.3255 20.2424 0.0000 9.4934 0.0000
# 3 22.1085 20.2424 79.5197 0.0000 -11.6594 0.0000
# 4 0.0000 0.0000 0.0000 30.8586 0.0000 5.8219
# 5 -1.1675 9.4934 -11.6594 0.0000 39.5547 0.0000
# 6 0.0000 0.0000 0.0000 5.8219 0.0000 46.5727
#
#
#
# Elastic Compliance Matrix: (Units=1/GPa)
#
#
# Indices 1 2 3 4 5 6 
#
# 1 0.014798 -0.005094 -0.002690 0.000000 0.000866 0.000000
# 2 -0.005094 0.008944 -0.001251 0.000000 -0.002666 0.000000
# 3 -0.002690 -0.001251 0.014292 0.000000 0.004434 0.000000
# 4 0.000000 0.000000 0.000000 0.033189 0.000000 -0.004149
# 5 0.000866 -0.002666 0.004434 0.000000 0.027254 0.000000
# 6 0.000000 0.000000 0.000000 -0.004149 0.000000 0.021990
#
#
# Mechanical properties :
#
#
# Convention : Reuss Voigt Hill
#
# Bulk Modulus (GPa) = 50.09495 56.80508 53.45001
# Shear Modulus (GPa) = 34.43693 38.17242 36.30468
#
# Velocity S-wave (km/s) = 3.67604 3.87028 3.77441
# Velocity P-wave (km/s) = 6.13802 6.50099 6.32211
#
# Compressibility (1/GPa) = 0.01996209
#
# Stress axis : x y z
#
# Youngs Moduli (GPa) = 67.57883 111.80076 69.96865
#
# Poissons Ratio (x) = 0.56955 0.18823
# Poissons Ratio (y) = 0.34427 0.08756
# Poissons Ratio (z) = 0.18180 0.13991
#
# Static dielectric constant tensor:
#      x y z
#    x 2.099030 0.000000 -0.045480 
#    y 0.000000 2.100240 0.000000 
#    z -0.045480 0.000000 2.072470 
# 
# From -- ./inp_files/138702.got.cif
#   From: 2010.05.17/outbox.cif.g08.bks.cpg/sg15_70_cif.got.tgz:138702.got - 2010.06.03 18:47:42.
