data_PCOD9264631
_publ_section_title
;
Structure prediction by ZEFSAII (Michael W. Deem and Ramdas Pophale) SiO2 
 PCOD9264631
Probable space group: C 2/C
;
_chemical_formula_sum "Si O2"
_cell_formula_units_Z 60
_cell_length_a 8.000804
_cell_length_b 12.011586
_cell_length_c 29.156630
_cell_angle_alpha 90.000000
_cell_angle_beta 85.227801
_cell_angle_gamma 90.000000
_cell_volume 2792.306883
_symmetry_space_group_name_H-M "C 2/C"
_symmetry_group_IT_number 15
_symmetry_cell_setting 'monoclinic'
loop_
_space_group_symop_operation_xyz
x,y,z
-x,y,1/2-z
-x,-y,-z
x,-y,1/2+z
1/2+x,1/2+y,z
1/2-x,1/2+y,1/2-z
1/2-x,1/2-y,-z
1/2+x,1/2-y,1/2+z
loop_
_atom_site_type_symbol
_atom_site_label
_atom_site_fract_x
_atom_site_fract_y
_atom_site_fract_z
Si Si1 0.754999 0.127150 0.438340
Si Si2 0.190651 0.373911 0.448349
Si Si3 0.021134 0.212140 0.986879
Si Si4 0.500000 0.529669 0.250000
Si Si5 0.871145 0.065798 0.342495
Si Si6 0.685775 0.313960 0.149180
Si Si7 0.808487 0.356500 0.243382
Si Si8 0.587699 0.169376 0.296312
O O1 0.626262 0.229776 0.443958
O O2 0.867947 0.130617 0.390059
O O3 0.863261 0.140477 0.482064
O O4 0.668551 0.005221 0.439732
O O5 0.047949 0.315701 0.481417
O O6 0.364811 0.356335 0.471625
O O7 0.216492 0.306151 0.400506
O O8 0.490915 0.596451 0.297524
O O9 0.665773 0.452987 0.249791
O O10 0.686291 0.079901 0.324249
O O11 0.902640 0.935818 0.351875
O O12 0.803586 0.319462 0.190664
O O13 0.547913 0.224607 0.167003
O O14 0.726069 0.260534 0.277007
O O15 0.000000 0.383740 0.250000
O O16 0.500000 0.136201 0.250000
#
# Coordination Sequence:
#
# PCOD9264631 Si02
#       8
#     8   8   8   4   8   8   8   8
#     4  10  21  38  59  86 118 151 200 243 294 363
#     4  10  20  37  63  82 120 155 184 246 309 342
#     4  10  21  37  60  89 113 151 199 244 294 365
#     4  10  20  42  56  84 126 156 200 256 292 354
#     4  10  20  34  60  81 115 161 194 241 305 347
#     4   9  19  38  56  82 120 157 194 249 300 351
#     4  10  19  35  61  81 119 166 197 242 306 345
#     4  10  19  36  56  84 118 159 205 247 292 357
#
# _framework density 21.487611000000001
#
# number of rings (size 3 to 8) (size 9 to 14) (size 15 to 20)
#    0.000    2.133    3.333    1.600    0.933    3.200 
#    2.400    0.000   20.533    0.000    0.000    0.000 
#    0.000    0.000    0.000    0.000    0.000    0.000 
#
# Total GULP energy -167387.465885 kJ/mol
# GULP energy per Si atom -5579.582196 kJ/mol
# Density = 2.143870 g / cm^3
# Si number density = 21.487611 Si / 1000 Ang^3
#
#
#
# Elastic Constant Matrix: (Units=GPa)
#
#
# Indices 1 2 3 4 5 6 
#
# 1 77.6302 8.9851 0.2422 0.0000 7.3164 0.0000
# 2 8.9851 54.6348 4.7445 0.0000 -3.1167 0.0000
# 3 0.2422 4.7445 84.2312 0.0000 -21.4138 0.0000
# 4 0.0000 0.0000 0.0000 2.7253 0.0000 -0.7551
# 5 7.3164 -3.1167 -21.4138 0.0000 22.7151 0.0000
# 6 0.0000 0.0000 0.0000 -0.7551 0.0000 27.4209
#
#
#
# Elastic Compliance Matrix: (Units=1/GPa)
#
#
# Indices 1 2 3 4 5 6 
#
# 1 0.013753 -0.002486 -0.001463 0.000000 -0.006150 0.000000
# 2 -0.002486 0.018914 -0.000256 0.000000 0.003154 0.000000
# 3 -0.001463 -0.000256 0.015785 0.000000 0.015316 0.000000
# 4 0.000000 0.000000 0.000000 0.369751 0.000000 0.010182
# 5 -0.006150 0.003154 0.015316 0.000000 0.060876 0.000000
# 6 0.000000 0.000000 0.000000 0.010182 0.000000 0.036749
#
#
# Mechanical properties :
#
#
# Convention : Reuss Voigt Hill
#
# Bulk Modulus (GPa) = 24.97371 27.15998 26.06685
# Shear Modulus (GPa) = 9.30084 24.07389 16.68737
#
# Velocity S-wave (km/s) = 2.08275 3.35081 2.78979
# Velocity P-wave (km/s) = 4.17510 5.25717 4.74707
#
# Compressibility (1/GPa) = 0.04004210
#
# Stress axis : x y z
#
# Youngs Moduli (GPa) = 72.70887 52.87000 63.35307
#
# Poissons Ratio (x) = 0.13142 0.09269
# Poissons Ratio (y) = 0.18073 0.01624
# Poissons Ratio (z) = 0.10638 0.01356
#
# Static dielectric constant tensor:
#      x y z
#    x 1.777380 0.000000 -0.018920 
#    y 0.000000 1.834250 0.000000 
#    z -0.018920 0.000000 1.808480 
# 
# From -- ./inp_files/307153.got.cif
#   From: 2010.05.17/outbox.cif.g08.bks.cpg/sg15_154_cif.got.tgz:307153.got - 2010.06.03 18:47:42.
