data_PCOD9264669
_publ_section_title
;
Structure prediction by ZEFSAII (Michael W. Deem and Ramdas Pophale) SiO2 
 PCOD9264669
Probable space group: C 2/C
;
_chemical_formula_sum "Si O2"
_cell_formula_units_Z 48
_cell_length_a 10.495142
_cell_length_b 27.427484
_cell_length_c 9.917475
_cell_angle_alpha 90.000000
_cell_angle_beta 60.432214
_cell_angle_gamma 90.000000
_cell_volume 2483.024925
_symmetry_space_group_name_H-M "C 2/C"
_symmetry_group_IT_number 15
_symmetry_cell_setting 'monoclinic'
loop_
_space_group_symop_operation_xyz
x,y,z
-x,y,1/2-z
-x,-y,-z
x,-y,1/2+z
1/2+x,1/2+y,z
1/2-x,1/2+y,1/2-z
1/2-x,1/2-y,-z
1/2+x,1/2-y,1/2+z
loop_
_atom_site_type_symbol
_atom_site_label
_atom_site_fract_x
_atom_site_fract_y
_atom_site_fract_z
Si Si1 0.320890 0.150520 0.485720
Si Si2 0.645059 0.346433 0.580885
Si Si3 0.361520 0.809913 0.682205
Si Si4 0.385081 0.557998 0.933150
Si Si5 0.397426 0.550470 0.432473
Si Si6 0.117498 0.196010 0.798219
O O1 0.496714 0.155040 0.399659
O O2 0.279606 0.175706 0.364110
O O3 0.241706 0.097883 0.522196
O O4 0.265354 0.181251 0.643186
O O5 0.500000 0.346979 0.750000
O O6 0.762788 0.315958 0.602648
O O7 0.700926 0.402222 0.538219
O O8 0.613019 0.326723 0.448646
O O9 0.404972 0.753633 0.673873
O O10 0.500000 0.560011 0.750000
O O11 0.325978 0.502608 0.985823
O O12 0.490655 0.564732 0.006680
O O13 0.500000 0.544835 0.250000
O O14 0.000000 0.177145 0.750000
#
# Coordination Sequence:
#
# PCOD9264669 Si02
#       6
#     8   8   8   8   8   8
#     4  11  22  39  62  83 123 157 201 246 301 355
#     4  11  23  39  63  89 120 156 200 249 302 360
#     4  11  25  40  56  87 121 160 199 249 302 357
#     4  10  19  35  61  91 113 152 196 246 296 349
#     4   9  18  34  58  88 119 145 196 247 291 348
#     4  12  23  40  62  86 116 160 204 246 295 359
#
# _framework density 19.331258999999999
#
# number of rings (size 3 to 8) (size 9 to 14) (size 15 to 20)
#    0.000    1.333    1.667    6.500    2.333    0.667 
#    0.000    0.833    0.000    2.000    0.000    0.000 
#    0.000    0.000    0.000    0.000    0.000    0.000 
#
# Total GULP energy -133819.645641 kJ/mol
# GULP energy per Si atom -5575.818568 kJ/mol
# Density = 1.928726 g / cm^3
# Si number density = 19.331259 Si / 1000 Ang^3
#
#
#
# Elastic Constant Matrix: (Units=GPa)
#
#
# Indices 1 2 3 4 5 6 
#
# 1 72.7817 36.8299 42.0190 0.0000 17.8978 0.0000
# 2 36.8299 132.4594 27.8913 0.0000 2.0125 0.0000
# 3 42.0190 27.8913 127.6267 0.0000 24.9399 0.0000
# 4 0.0000 0.0000 0.0000 16.1891 0.0000 16.1235
# 5 17.8978 2.0125 24.9399 0.0000 33.3327 0.0000
# 6 0.0000 0.0000 0.0000 16.1235 0.0000 0.3779
#
#
#
# Elastic Compliance Matrix: (Units=1/GPa)
#
#
# Indices 1 2 3 4 5 6 
#
# 1 0.020384 -0.004664 -0.004226 0.000000 -0.007502 0.000000
# 2 -0.004664 0.009007 -0.000956 0.000000 0.002676 0.000000
# 3 -0.004226 -0.000956 0.010519 0.000000 -0.005543 0.000000
# 4 0.000000 0.000000 0.000000 -0.001489 0.000000 0.063516
# 5 -0.007502 0.002676 -0.005543 0.000000 0.038015 0.000000
# 6 0.000000 0.000000 0.000000 0.063516 0.000000 -0.063774
#
#
# Mechanical properties :
#
#
# Convention : Reuss Voigt Hill
#
# Bulk Modulus (GPa) = 49.45902 60.70536 55.08219
# Shear Modulus (GPa) = 127.90087 25.05510 76.47799
#
# Velocity S-wave (km/s) = 8.14287 3.60403 6.29664
# Velocity P-wave (km/s) = 10.67937 6.98496 9.02327
#
# Compressibility (1/GPa) = 0.02021876
#
# Stress axis : x y z
#
# Youngs Moduli (GPa) = 49.05707 111.02642 95.06772
#
# Poissons Ratio (x) = 0.51783 0.40176
# Poissons Ratio (y) = 0.22880 0.09085
# Poissons Ratio (z) = 0.20732 0.10610
#
# Static dielectric constant tensor:
#      x y z
#    x 1.679420 0.000000 -0.016140 
#    y 0.000000 1.743220 0.000000 
#    z -0.016140 0.000000 1.685550 
# 
# From -- ./inp_files/33384.got.cif
#   From: 2010.05.17/outbox.cif.g08.bks.cpg/sg15_17_cif.got.tgz:33384.got - 2010.06.03 18:47:42.
