data_PCOD9264220
_publ_section_title
;
Structure prediction by ZEFSAII (Michael W. Deem and Ramdas Pophale) SiO2 
 PCOD9264220
Probable space group: C 2/C
;
_chemical_formula_sum "Si O2"
_cell_formula_units_Z 48
_cell_length_a 32.163131
_cell_length_b 10.058048
_cell_length_c 16.961362
_cell_angle_alpha 90.000000
_cell_angle_beta 153.381817
_cell_angle_gamma 90.000000
_cell_volume 2458.398467
_symmetry_space_group_name_H-M "C 2/C"
_symmetry_group_IT_number 15
_symmetry_cell_setting 'monoclinic'
loop_
_space_group_symop_operation_xyz
x,y,z
-x,y,1/2-z
-x,-y,-z
x,-y,1/2+z
1/2+x,1/2+y,z
1/2-x,1/2+y,1/2-z
1/2-x,1/2-y,-z
1/2+x,1/2-y,1/2+z
loop_
_atom_site_type_symbol
_atom_site_label
_atom_site_fract_x
_atom_site_fract_y
_atom_site_fract_z
Si Si1 0.970143 0.098337 0.519020
Si Si2 0.176327 0.997982 0.604153
Si Si3 0.098214 0.217078 0.374584
Si Si4 0.308719 0.002865 0.472323
Si Si5 0.331001 0.348861 0.665985
Si Si6 0.407099 0.278284 0.146297
O O1 0.911407 0.022308 0.486258
O O2 0.896197 0.195602 0.349312
O O3 0.054669 0.170866 0.705068
O O4 0.000000 0.000000 0.500000
O O5 0.264575 0.987775 0.810132
O O6 0.141829 0.636481 0.431763
O O7 0.171296 0.140892 0.554104
O O8 0.123452 0.370687 0.404932
O O9 0.105310 0.141481 0.303167
O O10 0.000000 0.203382 0.250000
O O11 0.225406 0.026607 0.393982
O O12 0.160357 0.115165 0.010926
O O13 0.250000 0.250000 0.500000
O O14 0.500000 0.266772 0.250000
#
# Coordination Sequence:
#
# PCOD9264220 Si02
#       6
#     8   8   8   8   8   8
#     4  10  19  35  57  80 110 148 189 229 272 330
#     4  10  20  35  57  81 110 146 183 226 281 334
#     4  11  20  36  58  81 106 143 189 228 272 336
#     4  10  21  37  56  82 113 144 182 233 282 331
#     4   9  20  37  54  76 112 149 178 222 286 335
#     4  10  20  36  57  84 112 146 188 234 278 326
#
# _framework density 19.524906999999999
#
# number of rings (size 3 to 8) (size 9 to 14) (size 15 to 20)
#    0.000    2.000    0.000    5.000    0.000    1.333 
#    0.000   14.167    0.000    0.000    0.000    0.000 
#    0.000    0.000    0.000    0.000    0.000    0.000 
#
# Total GULP energy -133842.918865 kJ/mol
# GULP energy per Si atom -5576.788286 kJ/mol
# Density = 1.948047 g / cm^3
# Si number density = 19.524907 Si / 1000 Ang^3
#
#
#
# Elastic Constant Matrix: (Units=GPa)
#
#
# Indices 1 2 3 4 5 6 
#
# 1 96.6889 31.6152 37.4154 0.0000 -13.4383 0.0000
# 2 31.6152 118.3944 59.4079 0.0000 -16.1054 0.0000
# 3 37.4154 59.4079 125.3679 0.0000 -26.8381 0.0000
# 4 0.0000 0.0000 0.0000 34.0279 0.0000 4.0571
# 5 -13.4383 -16.1054 -26.8381 0.0000 29.7272 0.0000
# 6 0.0000 0.0000 0.0000 4.0571 0.0000 19.3952
#
#
#
# Elastic Compliance Matrix: (Units=1/GPa)
#
#
# Indices 1 2 3 4 5 6 
#
# 1 0.012139 -0.001774 -0.002248 0.000000 0.002497 0.000000
# 2 -0.001774 0.011400 -0.004614 0.000000 0.001209 0.000000
# 3 -0.002248 -0.004614 0.012496 0.000000 0.007766 0.000000
# 4 0.000000 0.000000 0.000000 0.030139 0.000000 -0.006305
# 5 0.002497 0.001209 0.007766 0.000000 0.042434 0.000000
# 6 0.000000 0.000000 0.000000 -0.006305 0.000000 0.052878
#
#
# Mechanical properties :
#
#
# Convention : Reuss Voigt Hill
#
# Bulk Modulus (GPa) = 53.29285 66.36980 59.83132
# Shear Modulus (GPa) = 27.02525 30.76423 28.89474
#
# Velocity S-wave (km/s) = 3.72444 3.97374 3.85111
# Velocity P-wave (km/s) = 6.77122 7.42431 7.10527
#
# Compressibility (1/GPa) = 0.01876424
#
# Stress axis : x y z
#
# Youngs Moduli (GPa) = 82.37642 87.72278 80.02498
#
# Poissons Ratio (x) = 0.15563 0.17987
# Poissons Ratio (y) = 0.14614 0.36921
# Poissons Ratio (z) = 0.18515 0.40472
#
# Static dielectric constant tensor:
#      x y z
#    x 1.708930 0.000000 0.010930 
#    y 0.000000 1.669080 0.000000 
#    z 0.010930 0.000000 1.730060 
# 
# From -- ./inp_files/182042.got.cif
#   From: 2010.05.17/outbox.cif.g08.bks.cpg/sg15_92_cif.got.tgz:182042.got - 2010.06.03 18:47:42.
