data_PCOD9264819
_publ_section_title
;
Structure prediction by ZEFSAII (Michael W. Deem and Ramdas Pophale) SiO2 
 PCOD9264819
Probable space group: C 2/C
;
_chemical_formula_sum "Si O2"
_cell_formula_units_Z 40
_cell_length_a 8.545207
_cell_length_b 13.773003
_cell_length_c 15.836124
_cell_angle_alpha 90.000000
_cell_angle_beta 55.981974
_cell_angle_gamma 90.000000
_cell_volume 1544.835157
_symmetry_space_group_name_H-M "C 2/C"
_symmetry_group_IT_number 15
_symmetry_cell_setting 'monoclinic'
loop_
_space_group_symop_operation_xyz
x,y,z
-x,y,1/2-z
-x,-y,-z
x,-y,1/2+z
1/2+x,1/2+y,z
1/2-x,1/2+y,1/2-z
1/2-x,1/2-y,-z
1/2+x,1/2-y,1/2+z
loop_
_atom_site_type_symbol
_atom_site_label
_atom_site_fract_x
_atom_site_fract_y
_atom_site_fract_z
Si Si1 0.304744 0.871718 0.694529
Si Si2 0.767560 0.885242 0.982830
Si Si3 0.444700 0.528018 0.667388
Si Si4 0.442678 0.778640 0.139541
Si Si5 0.888870 0.225436 0.884385
O O1 0.309218 0.884648 0.591508
O O2 0.243417 0.963311 0.770583
O O3 0.146874 0.788498 0.760915
O O4 0.498944 0.823968 0.663241
O O5 0.897651 0.980194 0.940986
O O6 0.920725 0.799024 0.949303
O O7 0.590279 0.868296 0.098721
O O8 0.500000 0.516162 0.750000
O O9 0.461115 0.640783 0.642086
O O10 0.256617 0.808522 0.143865
O O11 0.750000 0.250000 0.000000
#
# Coordination Sequence:
#
# PCOD9264819 Si02
#       5
#     8   8   8   8   8
#     4  10  20  40  63  88 128 167 211 259 309 375
#     4   9  19  38  62  91 125 165 211 256 312 374
#     4   9  20  39  63  89 122 165 212 253 306 385
#     4  10  19  35  64  88 125 165 202 258 314 360
#     4  12  23  39  62  96 127 161 212 264 311 367
#
# _framework density 25.892731000000001
#
# number of rings (size 3 to 8) (size 9 to 14) (size 15 to 20)
#    0.000    2.000    2.000    3.600    0.000    0.800 
#    3.600    4.000    0.000   24.000    0.000    0.000 
#    0.000    0.000    0.000    0.000    0.000    0.000 
#
# Total GULP energy -111558.348491 kJ/mol
# GULP energy per Si atom -5577.917425 kJ/mol
# Density = 2.583380 g / cm^3
# Si number density = 25.892731 Si / 1000 Ang^3
#
#
#
# Elastic Constant Matrix: (Units=GPa)
#
#
# Indices 1 2 3 4 5 6 
#
# 1 65.3537 23.9415 24.7783 0.0000 -25.3819 0.0000
# 2 23.9415 102.6692 31.4785 0.0000 -14.4783 0.0000
# 3 24.7783 31.4785 112.8262 0.0000 -19.4058 0.0000
# 4 0.0000 0.0000 0.0000 35.4428 0.0000 -8.0151
# 5 -25.3819 -14.4783 -19.4058 0.0000 36.2875 0.0000
# 6 0.0000 0.0000 0.0000 -8.0151 0.0000 22.7421
#
#
#
# Elastic Compliance Matrix: (Units=1/GPa)
#
#
# Indices 1 2 3 4 5 6 
#
# 1 0.022224 -0.002728 -0.001799 0.000000 0.013494 0.000000
# 2 -0.002728 0.011277 -0.002314 0.000000 0.001354 0.000000
# 3 -0.001799 -0.002314 0.010494 0.000000 0.003431 0.000000
# 4 0.000000 0.000000 0.000000 0.030658 0.000000 0.010805
# 5 0.013494 0.001354 0.003431 0.000000 0.039371 0.000000
# 6 0.000000 0.000000 0.000000 0.010805 0.000000 0.047779
#
#
# Mechanical properties :
#
#
# Convention : Reuss Voigt Hill
#
# Bulk Modulus (GPa) = 32.98962 49.02729 41.00846
# Shear Modulus (GPa) = 26.94140 32.27120 29.60630
#
# Velocity S-wave (km/s) = 3.22918 3.53419 3.38512
# Velocity P-wave (km/s) = 5.16449 5.96907 5.58130
#
# Compressibility (1/GPa) = 0.03031256
#
# Stress axis : x y z
#
# Youngs Moduli (GPa) = 44.99739 88.67940 95.29349
#
# Poissons Ratio (x) = 0.24191 0.17139
# Poissons Ratio (y) = 0.12275 0.22054
# Poissons Ratio (z) = 0.08093 0.20523
#
# Static dielectric constant tensor:
#      x y z
#    x 2.082780 0.000000 0.048710 
#    y 0.000000 2.105340 0.000000 
#    z 0.048710 0.000000 2.078560 
# 
# From -- ./inp_files/230961.got.cif
#   From: 2010.05.17/outbox.cif.g08.bks.cpg/sg15_116_cif.got.tgz:230961.got - 2010.06.03 18:47:42.
