data_PCOD9264015
_publ_section_title
;
Structure prediction by ZEFSAII (Michael W. Deem and Ramdas Pophale) SiO2 
 PCOD9264015
Probable space group: C 2/C
;
_chemical_formula_sum "Si O2"
_cell_formula_units_Z 48
_cell_length_a 18.246322
_cell_length_b 20.983275
_cell_length_c 14.050141
_cell_angle_alpha 90.000000
_cell_angle_beta 28.799520
_cell_angle_gamma 90.000000
_cell_volume 2591.479079
_symmetry_space_group_name_H-M "C 2/C"
_symmetry_group_IT_number 15
_symmetry_cell_setting 'monoclinic'
loop_
_space_group_symop_operation_xyz
x,y,z
-x,y,1/2-z
-x,-y,-z
x,-y,1/2+z
1/2+x,1/2+y,z
1/2-x,1/2+y,1/2-z
1/2-x,1/2-y,-z
1/2+x,1/2-y,1/2+z
loop_
_atom_site_type_symbol
_atom_site_label
_atom_site_fract_x
_atom_site_fract_y
_atom_site_fract_z
Si Si1 0.042981 0.572550 0.930268
Si Si2 0.986581 0.796489 0.651163
Si Si3 0.856004 0.911479 0.130055
Si Si4 0.158774 0.334459 0.944805
Si Si5 0.961106 0.020760 0.689153
Si Si6 0.155729 0.551973 0.594325
O O1 0.175171 0.590647 0.852849
O O2 0.140223 0.570733 0.721341
O O3 0.000000 0.500000 0.000000
O O4 0.898817 0.619234 0.076769
O O5 0.825587 0.805619 0.779158
O O6 0.000000 0.810994 0.750000
O O7 0.094143 0.846906 0.476687
O O8 0.043827 0.724396 0.576088
O O9 0.937393 0.925273 0.137719
O O10 0.918635 0.970304 0.992698
O O11 0.145989 0.383407 0.046083
O O12 0.000000 0.044620 0.750000
O O13 0.804202 0.982608 0.886845
O O14 0.000000 0.513826 0.750000
#
# Coordination Sequence:
#
# PCOD9264015 Si02
#       6
#     8   8   8   8   8   8
#     4  11  22  36  56  84 120 155 201 243 289 351
#     4  12  22  37  58  86 125 160 196 242 294 360
#     4  11  22  35  58  86 117 154 203 237 294 352
#     4  11  23  37  56  85 120 163 194 238 305 354
#     4  11  21  37  58  86 119 155 194 246 297 346
#     4  10  19  35  53  79 119 154 188 236 291 348
#
# _framework density 18.522241000000001
#
# number of rings (size 3 to 8) (size 9 to 14) (size 15 to 20)
#    0.000    1.000    3.333    6.500    2.333    0.000 
#    0.000    0.000    0.000    0.000    0.000   14.000 
#    0.000    0.000    0.000    0.000    0.000    0.000 
#
# Total GULP energy -133642.445218 kJ/mol
# GULP energy per Si atom -5568.435217 kJ/mol
# Density = 1.848008 g / cm^3
# Si number density = 18.522241 Si / 1000 Ang^3
#
#
#
# Elastic Constant Matrix: (Units=GPa)
#
#
# Indices 1 2 3 4 5 6 
#
# 1 102.2459 46.8963 21.8092 -0.0001 -12.6769 -0.0009
# 2 46.8963 108.7793 28.0580 -0.0014 -7.5633 -0.0010
# 3 21.8092 28.0580 50.6579 -0.0014 -33.4778 -0.0011
# 4 -0.0001 -0.0014 -0.0014 22.2287 0.0005 -3.5282
# 5 -12.6769 -7.5633 -33.4778 0.0005 42.5958 0.0009
# 6 -0.0009 -0.0010 -0.0011 -3.5282 0.0009 22.3020
#
#
#
# Elastic Compliance Matrix: (Units=1/GPa)
#
#
# Indices 1 2 3 4 5 6 
#
# 1 0.012568 -0.004876 -0.001687 0.000000 0.001549 0.000000
# 2 -0.004876 0.013340 -0.009744 0.000000 -0.006741 0.000000
# 3 -0.001687 -0.009744 0.050745 0.000002 0.037651 0.000001
# 4 0.000000 0.000000 0.000002 0.046146 0.000001 0.007300
# 5 0.001549 -0.006741 0.037651 0.000001 0.052332 0.000000
# 6 0.000000 0.000000 0.000001 0.007300 0.000000 0.045994
#
#
# Mechanical properties :
#
#
# Convention : Reuss Voigt Hill
#
# Bulk Modulus (GPa) = 22.70644 50.57890 36.64267
# Shear Modulus (GPa) = 18.62771 28.41995 23.52383
#
# Velocity S-wave (km/s) = 3.17471 3.92135 3.56762
# Velocity P-wave (km/s) = 5.07188 6.91875 6.06601
#
# Compressibility (1/GPa) = 0.04404037
#
# Stress axis : x y z
#
# Youngs Moduli (GPa) = 79.56421 74.96509 19.70632
#
# Poissons Ratio (x) = 0.36550 0.03324
# Poissons Ratio (y) = 0.38793 0.19202
# Poissons Ratio (z) = 0.13420 0.73046
#
# Static dielectric constant tensor:
#      x y z
#    x 1.794820 0.000010 -0.115900 
#    y 0.000010 1.600360 -0.000010 
#    z -0.115900 -0.000010 1.753360 
# 
# From -- ./inp_files/100074.got.cif
#   From: 2010.05.17/outbox.cif.g08.bks.cpg/sg15_51_cif.got.tgz:100074.got - 2010.06.03 18:47:42.
