data_PCOD9264394
_publ_section_title
;
Structure prediction by ZEFSAII (Michael W. Deem and Ramdas Pophale) SiO2 
 PCOD9264394
Probable space group: C 2/C
;
_chemical_formula_sum "Si O2"
_cell_formula_units_Z 44
_cell_length_a 5.322579
_cell_length_b 14.859865
_cell_length_c 28.382471
_cell_angle_alpha 90.000000
_cell_angle_beta 121.536744
_cell_angle_gamma 90.000000
_cell_volume 1913.296040
_symmetry_space_group_name_H-M "C 2/C"
_symmetry_group_IT_number 15
_symmetry_cell_setting 'monoclinic'
loop_
_space_group_symop_operation_xyz
x,y,z
-x,y,1/2-z
-x,-y,-z
x,-y,1/2+z
1/2+x,1/2+y,z
1/2-x,1/2+y,1/2-z
1/2-x,1/2-y,-z
1/2+x,1/2-y,1/2+z
loop_
_atom_site_type_symbol
_atom_site_label
_atom_site_fract_x
_atom_site_fract_y
_atom_site_fract_z
Si Si1 0.835367 0.251543 0.781543
Si Si2 0.257322 0.065794 0.918218
Si Si3 0.601727 0.971135 0.362589
Si Si4 0.500000 0.925287 0.250000
Si Si5 0.127107 0.641565 0.037168
Si Si6 0.207896 0.324211 0.904381
O O1 0.500000 0.291197 0.750000
O O2 0.770974 0.144822 0.774048
O O3 0.000000 0.279301 0.750000
O O4 0.027685 0.274348 0.845885
O O5 0.373804 0.073457 0.876354
O O6 0.911769 0.081489 0.892097
O O7 0.310533 0.961316 0.938717
O O8 0.449925 0.126633 0.971737
O O9 0.503031 0.978381 0.298841
O O10 0.662763 0.070317 0.387805
O O11 0.441937 0.688609 0.062167
O O12 0.935325 0.688803 0.058640
#
# Coordination Sequence:
#
# PCOD9264394 Si02
#       6
#     8   8   8   4   8   8
#     4  10  23  39  57  79 111 161 188 230 284 341
#     4   9  18  33  54  87 116 144 177 234 289 338
#     4  10  21  34  58  85 114 145 192 233 277 331
#     4  10  26  40  58  80 116 162 186 236 288 338
#     4   9  17  32  57  85 117 141 179 232 293 331
#     4  10  19  35  58  89 109 145 190 238 272 336
#
# _framework density 22.996962
#
# number of rings (size 3 to 8) (size 9 to 14) (size 15 to 20)
#    0.545    1.818    0.000    2.182    3.818    4.364 
#    0.000    0.000    0.000    6.545    0.000    0.000 
#    0.000    0.000    0.000    0.000    0.000    0.000 
#
# Total GULP energy -123003.343444 kJ/mol
# GULP energy per Si atom -5591.061066 kJ/mol
# Density = 2.294462 g / cm^3
# Si number density = 22.996962 Si / 1000 Ang^3
#
#
#
# Elastic Constant Matrix: (Units=GPa)
#
#
# Indices 1 2 3 4 5 6 
#
# 1 172.0005 45.4191 32.3604 0.0000 -1.3279 0.0000
# 2 45.4191 42.8886 28.7181 0.0000 3.0495 0.0000
# 3 32.3604 28.7181 66.1524 0.0000 -0.2620 0.0000
# 4 0.0000 0.0000 0.0000 -232.0450 0.0001 27.9780
# 5 -1.3279 3.0495 -0.2620 0.0001 41.4045 0.0000
# 6 0.0000 0.0000 0.0000 27.9780 0.0000 -2.6163
#
#
#
# Elastic Compliance Matrix: (Units=1/GPa)
#
#
# Indices 1 2 3 4 5 6 
#
# 1 0.008108 -0.008452 -0.000293 0.000000 0.000881 0.000000
# 2 -0.008452 0.041946 -0.014089 0.000000 -0.003450 -0.000001
# 3 -0.000293 -0.014089 0.021381 0.000000 0.001164 0.000001
# 4 0.000000 0.000000 0.000000 0.014893 0.000000 0.159266
# 5 0.000881 -0.003450 0.001164 0.000000 0.024442 0.000000
# 6 0.000000 -0.000001 0.000001 0.159266 0.000000 1.320926
#
#
# Mechanical properties :
#
#
# Convention : Reuss Voigt Hill
#
# Bulk Modulus (GPa) = 38.81049 54.89296 46.85172
# Shear Modulus (GPa) = 3.36484 -27.01511 -11.82514
#
# Velocity S-wave (km/s) = 1.21093 -3.43114 -2.27007
# Velocity P-wave (km/s) = 4.34374 2.86783 3.68053
#
# Compressibility (1/GPa) = 0.02576623
#
# Stress axis : x y z
#
# Youngs Moduli (GPa) = 123.33609 23.83998 46.77078
#
# Poissons Ratio (x) = 0.20151 0.01372
# Poissons Ratio (y) = 1.04250 0.65894
# Poissons Ratio (z) = 0.03618 0.33587
#
# Static dielectric constant tensor:
#      x y z
#    x 1.821790 0.000000 0.015780 
#    y 0.000000 1.877290 0.000000 
#    z 0.015780 0.000000 1.824300 
# 
# From -- ./inp_files/286182.got.cif
#   From: 2010.05.17/outbox.cif.g08.bks.cpg/sg15_144_cif.got.tgz:286182.got - 2010.06.03 18:47:42.
