data_PCOD9264059
_publ_section_title
;
Structure prediction by ZEFSAII (Michael W. Deem and Ramdas Pophale) SiO2 
 PCOD9264059
Probable space group: C 2/C
;
_chemical_formula_sum "Si O2"
_cell_formula_units_Z 60
_cell_length_a 23.572977
_cell_length_b 19.753119
_cell_length_c 8.208802
_cell_angle_alpha 90.000000
_cell_angle_beta 51.392098
_cell_angle_gamma 90.000000
_cell_volume 2986.912022
_symmetry_space_group_name_H-M "C 2/C"
_symmetry_group_IT_number 15
_symmetry_cell_setting 'monoclinic'
loop_
_space_group_symop_operation_xyz
x,y,z
-x,y,1/2-z
-x,-y,-z
x,-y,1/2+z
1/2+x,1/2+y,z
1/2-x,1/2+y,1/2-z
1/2-x,1/2-y,-z
1/2+x,1/2-y,1/2+z
loop_
_atom_site_type_symbol
_atom_site_label
_atom_site_fract_x
_atom_site_fract_y
_atom_site_fract_z
Si Si1 0.275595 0.953024 0.221615
Si Si2 0.000000 0.469050 0.750000
Si Si3 0.908283 0.933932 0.267400
Si Si4 0.182249 0.313833 0.951871
Si Si5 0.411699 0.076774 0.706566
Si Si6 0.438443 0.415975 0.595100
Si Si7 0.815440 0.164207 0.465292
Si Si8 0.253798 0.090751 0.414952
O O1 0.340902 0.943243 0.230017
O O2 0.213482 0.900372 0.384461
O O3 0.251630 0.030499 0.284658
O O4 0.294232 0.934629 0.003766
O O5 0.938851 0.520808 0.788199
O O6 0.027530 0.424863 0.546493
O O7 0.925216 0.923972 0.426750
O O8 0.829949 0.900968 0.383797
O O9 0.910987 0.014061 0.224701
O O10 0.975224 0.906610 0.039769
O O11 0.252073 0.324297 0.944991
O O12 0.205587 0.347359 0.740295
O O13 0.114300 0.355310 0.152171
O O14 0.173145 0.233527 0.958091
O O15 0.390127 0.355820 0.747085
#
# Coordination Sequence:
#
# PCOD9264059 Si02
#       8
#     8   4   8   8   8   8   8   8
#     4  11  22  34  62  89 120 146 202 242 306 338
#     4  10  20  38  66  84 124 138 202 242 304 354
#     4  10  20  31  54  85 113 155 193 245 287 348
#     4  10  22  37  61  81 120 150 207 233 308 345
#     4  10  21  38  59  93 110 158 184 251 298 360
#     4  10  19  35  54  81 120 151 201 238 303 345
#     4  10  20  39  57  82 114 165 188 253 287 361
#     4  12  20  34  56  93 119 153 196 258 286 358
#
# _framework density 20.087634999999999
#
# number of rings (size 3 to 8) (size 9 to 14) (size 15 to 20)
#    0.000    1.600    2.667    4.000    0.000    1.600 
#    0.000    1.333    2.933    0.000    0.000    0.000 
#    0.000    0.000    0.000    0.000    0.000    0.000 
#
# Total GULP energy -167407.183175 kJ/mol
# GULP energy per Si atom -5580.239439 kJ/mol
# Density = 2.004191 g / cm^3
# Si number density = 20.087635 Si / 1000 Ang^3
#
#
#
# Elastic Constant Matrix: (Units=GPa)
#
#
# Indices 1 2 3 4 5 6 
#
# 1 65.1386 19.6312 26.0872 0.0000 0.4119 0.0000
# 2 19.6312 87.9843 56.6223 0.0000 -13.5563 0.0000
# 3 26.0872 56.6223 96.8742 0.0000 -4.1671 0.0000
# 4 0.0000 0.0000 0.0000 172.0691 0.0000 -27.0774
# 5 0.4119 -13.5563 -4.1671 0.0000 31.2350 0.0000
# 6 0.0000 0.0000 0.0000 -27.0774 0.0000 18.6642
#
#
#
# Elastic Compliance Matrix: (Units=1/GPa)
#
#
# Indices 1 2 3 4 5 6 
#
# 1 0.017373 -0.001683 -0.003757 0.000000 -0.001461 0.000000
# 2 -0.001683 0.019807 -0.010815 0.000000 0.007176 0.000000
# 3 -0.003757 -0.010815 0.017557 0.000000 -0.002302 0.000000
# 4 0.000000 0.000000 0.000000 0.007531 0.000000 0.010926
# 5 -0.001461 0.007176 -0.002302 0.000000 0.034842 0.000000
# 6 0.000000 0.000000 0.000000 0.010926 0.000000 0.069429
#
#
# Mechanical properties :
#
#
# Convention : Reuss Voigt Hill
#
# Bulk Modulus (GPa) = 44.99363 50.51984 47.75673
# Shear Modulus (GPa) = 24.21794 54.23742 39.22768
#
# Velocity S-wave (km/s) = 3.47596 5.20183 4.42387
# Velocity P-wave (km/s) = 6.20943 7.82835 7.06541
#
# Compressibility (1/GPa) = 0.02222537
#
# Stress axis : x y z
#
# Youngs Moduli (GPa) = 57.55983 50.48756 56.95824
#
# Poissons Ratio (x) = 0.08499 0.21401
# Poissons Ratio (y) = 0.09690 0.61600
# Poissons Ratio (z) = 0.21627 0.54602
#
# Static dielectric constant tensor:
#      x y z
#    x 1.740750 0.000000 -0.028570 
#    y 0.000000 1.682080 0.000000 
#    z -0.028570 0.000000 1.762720 
# 
# From -- ./inp_files/67019.got.cif
#   From: 2010.05.17/outbox.cif.g08.bks.cpg/sg15_34_cif.got.tgz:67019.got - 2010.06.03 18:47:42.
