data_PCOD9264728
_publ_section_title
;
Structure prediction by ZEFSAII (Michael W. Deem and Ramdas Pophale) SiO2 
 PCOD9264728
Probable space group: C 2/C
;
_chemical_formula_sum "Si O2"
_cell_formula_units_Z 52
_cell_length_a 8.471109
_cell_length_b 20.864530
_cell_length_c 14.330315
_cell_angle_alpha 90.000000
_cell_angle_beta 76.206271
_cell_angle_gamma 90.000000
_cell_volume 2459.776058
_symmetry_space_group_name_H-M "C 2/C"
_symmetry_group_IT_number 15
_symmetry_cell_setting 'monoclinic'
loop_
_space_group_symop_operation_xyz
x,y,z
-x,y,1/2-z
-x,-y,-z
x,-y,1/2+z
1/2+x,1/2+y,z
1/2-x,1/2+y,1/2-z
1/2-x,1/2-y,-z
1/2+x,1/2-y,1/2+z
loop_
_atom_site_type_symbol
_atom_site_label
_atom_site_fract_x
_atom_site_fract_y
_atom_site_fract_z
Si Si1 0.589205 0.005300 0.371930
Si Si2 0.363451 0.521776 0.193439
Si Si3 0.776816 0.831217 0.704243
Si Si4 0.756433 0.546187 0.965285
Si Si5 0.000000 0.274496 0.250000
Si Si6 0.001053 0.650604 0.104666
Si Si7 0.671205 0.815818 0.047360
O O1 0.692487 0.001842 0.264542
O O2 0.718755 0.010457 0.439105
O O3 0.496444 0.073597 0.388424
O O4 0.445859 0.954877 0.403839
O O5 0.500000 0.503665 0.250000
O O6 0.360725 0.599082 0.185982
O O7 0.357928 0.488440 0.093391
O O8 0.898878 0.773412 0.698495
O O9 0.658934 0.831768 0.811979
O O10 0.658258 0.823262 0.633532
O O11 0.716431 0.621097 0.983580
O O12 0.116428 0.311990 0.162566
O O13 0.977388 0.672444 0.003020
O O14 0.750000 0.750000 0.000000
#
# Coordination Sequence:
#
# PCOD9264728 Si02
#       7
#     8   8   8   8   4   8   8
#     4   9  19  36  62  89 115 151 203 248 303 355
#     4  11  21  35  59  94 126 150 187 261 316 357
#     4  10  19  35  62  90 116 159 211 246 304 366
#     4  10  21  38  63  88 116 158 203 250 298 361
#     4  12  24  38  62  90 120 172 206 242 302 364
#     4   9  18  38  62  85 119 158 203 260 295 352
#     4  11  24  42  62  88 127 165 205 253 291 360
#
# _framework density 21.140135999999998
#
# number of rings (size 3 to 8) (size 9 to 14) (size 15 to 20)
#    0.000    1.846    3.846    0.462    2.154    1.231 
#    0.000    1.538    0.000    0.000    0.000    0.000 
#    0.000    0.000    0.000    0.000    0.000    0.000 
#
# Total GULP energy -145158.392853 kJ/mol
# GULP energy per Si atom -5583.015110 kJ/mol
# Density = 2.109202 g / cm^3
# Si number density = 21.140136 Si / 1000 Ang^3
#
#
#
# Elastic Constant Matrix: (Units=GPa)
#
#
# Indices 1 2 3 4 5 6 
#
# 1 52.1139 21.3628 18.6791 0.0000 24.3136 0.0000
# 2 21.3628 56.8416 15.9102 0.0000 9.2512 0.0000
# 3 18.6791 15.9102 108.6719 0.0000 21.9395 0.0000
# 4 0.0000 0.0000 0.0000 26.2734 0.0000 5.3042
# 5 24.3136 9.2512 21.9395 0.0000 44.9223 0.0000
# 6 0.0000 0.0000 0.0000 5.3042 0.0000 19.1091
#
#
#
# Elastic Compliance Matrix: (Units=1/GPa)
#
#
# Indices 1 2 3 4 5 6 
#
# 1 0.029444 -0.008548 -0.001051 0.000000 -0.013662 0.000000
# 2 -0.008548 0.021134 -0.001864 0.000000 0.001184 0.000000
# 3 -0.001051 -0.001864 0.010498 0.000000 -0.004174 0.000000
# 4 0.000000 0.000000 0.000000 0.040321 0.000000 -0.011192
# 5 -0.013662 0.001184 -0.004174 0.000000 0.031450 0.000000
# 6 0.000000 0.000000 0.000000 -0.011192 0.000000 0.055438
#
#
# Mechanical properties :
#
#
# Convention : Reuss Voigt Hill
#
# Bulk Modulus (GPa) = 26.21248 36.61463 31.41356
# Shear Modulus (GPa) = 22.32861 28.83929 25.58395
#
# Velocity S-wave (km/s) = 3.25348 3.69751 3.48258
# Velocity P-wave (km/s) = 5.15168 5.96543 5.57342
#
# Compressibility (1/GPa) = 0.03814977
#
# Stress axis : x y z
#
# Youngs Moduli (GPa) = 33.96323 47.31644 95.25280
#
# Poissons Ratio (x) = 0.40446 0.10013
# Poissons Ratio (y) = 0.29032 0.17755
# Poissons Ratio (z) = 0.03570 0.08820
#
# Static dielectric constant tensor:
#      x y z
#    x 1.785800 0.000000 -0.013800 
#    y 0.000000 1.777850 0.000000 
#    z -0.013800 0.000000 1.795980 
# 
# From -- ./inp_files/136074.got.cif
#   From: 2010.05.17/outbox.cif.g08.bks.cpg/sg15_69_cif.got.tgz:136074.got - 2010.06.03 18:47:42.
