data_PCOD9264243
_publ_section_title
;
Structure prediction by ZEFSAII (Michael W. Deem and Ramdas Pophale) SiO2 
 PCOD9264243
Probable space group: C 2/C
;
_chemical_formula_sum "Si O2"
_cell_formula_units_Z 52
_cell_length_a 5.745687
_cell_length_b 23.668212
_cell_length_c 19.264300
_cell_angle_alpha 90.000000
_cell_angle_beta 53.533722
_cell_angle_gamma 90.000000
_cell_volume 2106.824664
_symmetry_space_group_name_H-M "C 2/C"
_symmetry_group_IT_number 15
_symmetry_cell_setting 'monoclinic'
loop_
_space_group_symop_operation_xyz
x,y,z
-x,y,1/2-z
-x,-y,-z
x,-y,1/2+z
1/2+x,1/2+y,z
1/2-x,1/2+y,1/2-z
1/2-x,1/2-y,-z
1/2+x,1/2-y,1/2+z
loop_
_atom_site_type_symbol
_atom_site_label
_atom_site_fract_x
_atom_site_fract_y
_atom_site_fract_z
Si Si1 0.620671 0.862045 0.373601
Si Si2 0.044974 0.971320 0.158029
Si Si3 0.000000 0.592355 0.750000
Si Si4 0.536108 0.252534 0.135778
Si Si5 0.490281 0.595599 0.142224
Si Si6 0.567233 0.136453 0.333160
Si Si7 0.605417 0.703467 0.977643
O O1 0.631884 0.872173 0.289172
O O2 0.797391 0.804545 0.358759
O O3 0.290389 0.852412 0.455046
O O4 0.740289 0.918462 0.387639
O O5 0.748566 0.948219 0.177837
O O6 0.000000 0.977693 0.250000
O O7 0.104943 0.031893 0.115028
O O8 0.381541 0.201494 0.202225
O O9 0.341964 0.280539 0.111595
O O10 0.768776 0.212469 0.052915
O O11 0.263137 0.598429 0.247275
O O12 0.769536 0.631017 0.121042
O O13 0.264466 0.615893 0.122258
O O14 0.750000 0.750000 0.000000
#
# Coordination Sequence:
#
# PCOD9264243 Si02
#       7
#     8   8   4   8   8   8   8
#     4  10  21  36  57  92 118 158 195 254 304 366
#     4  10  19  35  57  82 118 161 204 240 299 359
#     4  10  20  34  56  88 124 156 190 250 304 366
#     4  10  21  39  60  89 118 160 202 253 306 364
#     4  10  21  39  57  89 119 167 201 245 304 364
#     4  10  21  37  60  86 121 160 203 243 299 371
#     4   9  20  39  61  82 116 159 205 248 308 364
#
# _framework density 24.681694
#
# number of rings (size 3 to 8) (size 9 to 14) (size 15 to 20)
#    0.000    2.154    1.538    1.846    6.462    0.000 
#   13.846    0.000    0.000    1.846    0.000    0.000 
#    0.000    0.000    0.000    0.000    0.000    0.000 
#
# Total GULP energy -144975.440293 kJ/mol
# GULP energy per Si atom -5575.978473 kJ/mol
# Density = 2.462552 g / cm^3
# Si number density = 24.681694 Si / 1000 Ang^3
#
#
#
# Elastic Constant Matrix: (Units=GPa)
#
#
# Indices 1 2 3 4 5 6 
#
# 1 183.1497 73.0506 9.9591 0.0000 10.3174 0.0000
# 2 73.0506 172.2347 3.9958 0.0000 11.8863 0.0000
# 3 9.9591 3.9958 15.9057 0.0000 1.8060 0.0000
# 4 0.0000 0.0000 0.0000 25.0272 0.0000 -7.7581
# 5 10.3174 11.8863 1.8060 0.0000 29.3184 0.0000
# 6 0.0000 0.0000 0.0000 -7.7581 0.0000 41.5858
#
#
#
# Elastic Compliance Matrix: (Units=1/GPa)
#
#
# Indices 1 2 3 4 5 6 
#
# 1 0.006796 -0.002728 -0.003448 0.000000 -0.001073 0.000000
# 2 -0.002728 0.007093 0.000145 0.000000 -0.001924 0.000000
# 3 -0.003448 0.000145 0.065319 0.000000 -0.002869 0.000000
# 4 0.000000 0.000000 0.000000 0.042409 0.000000 0.007912
# 5 -0.001073 -0.001924 -0.002869 0.000000 0.035443 0.000000
# 6 0.000000 0.000000 0.000000 0.007912 0.000000 0.025523
#
#
# Mechanical properties :
#
#
# Convention : Reuss Voigt Hill
#
# Bulk Modulus (GPa) = 14.89321 60.58900 37.74111
# Shear Modulus (GPa) = 23.03866 38.13860 30.58863
#
# Velocity S-wave (km/s) = 3.05852 3.93519 3.52422
# Velocity P-wave (km/s) = 4.30348 6.72674 5.64664
#
# Compressibility (1/GPa) = 0.06714470
#
# Stress axis : x y z
#
# Youngs Moduli (GPa) = 147.14056 140.99006 15.30955
#
# Poissons Ratio (x) = 0.38469 0.05279
# Poissons Ratio (y) = 0.40147 -0.00222
# Poissons Ratio (z) = 0.50735 -0.02045
#
# Static dielectric constant tensor:
#      x y z
#    x 2.020180 0.000000 -0.030490 
#    y 0.000000 1.986120 0.000000 
#    z -0.030490 0.000000 2.119550 
# 
# From -- ./inp_files/261108.got.cif
#   From: 2010.05.17/outbox.cif.g08.bks.cpg/sg15_131_cif.got.tgz:261108.got - 2010.06.03 18:47:42.
