data_PCOD9264821
_publ_section_title
;
Structure prediction by ZEFSAII (Michael W. Deem and Ramdas Pophale) SiO2 
 PCOD9264821
Probable space group: C 2/C
;
_chemical_formula_sum "Si O2"
_cell_formula_units_Z 48
_cell_length_a 23.431271
_cell_length_b 16.047253
_cell_length_c 17.010519
_cell_angle_alpha 90.000000
_cell_angle_beta 162.008967
_cell_angle_gamma 90.000000
_cell_volume 1975.546395
_symmetry_space_group_name_H-M "C 2/C"
_symmetry_group_IT_number 15
_symmetry_cell_setting 'monoclinic'
loop_
_space_group_symop_operation_xyz
x,y,z
-x,y,1/2-z
-x,-y,-z
x,-y,1/2+z
1/2+x,1/2+y,z
1/2-x,1/2+y,1/2-z
1/2-x,1/2-y,-z
1/2+x,1/2-y,1/2+z
loop_
_atom_site_type_symbol
_atom_site_label
_atom_site_fract_x
_atom_site_fract_y
_atom_site_fract_z
Si Si1 0.943114 0.927525 0.510693
Si Si2 0.351148 0.259362 0.488151
Si Si3 0.669198 0.458877 0.409725
Si Si4 0.299568 0.656817 0.685334
Si Si5 0.055752 0.687632 0.040178
Si Si6 0.050859 0.556683 0.474230
O O1 0.903524 0.846341 0.512838
O O2 0.956532 0.894071 0.439997
O O3 0.111309 0.975478 0.767514
O O4 0.751313 0.980310 0.258438
O O5 0.500000 0.241701 0.750000
O O6 0.144148 0.274636 0.245468
O O7 0.342358 0.189596 0.408991
O O8 0.500000 0.456715 0.250000
O O9 0.691593 0.371373 0.392719
O O10 0.132876 0.486678 0.797348
O O11 0.117996 0.622424 0.493661
O O12 0.337058 0.751373 0.758753
O O13 0.015918 0.605279 0.036050
#
# Coordination Sequence:
#
# PCOD9264821 Si02
#       6
#     8   8   8   8   8   8
#     4   8  20  41  61  84 125 164 201 252 305 355
#     4  10  19  35  64  90 123 159 201 257 310 370
#     4  12  23  35  64  91 118 164 217 244 299 373
#     4   9  21  41  61  83 127 164 197 256 310 357
#     4  10  19  38  61  87 125 162 199 257 317 355
#     4   9  22  40  62  88 124 165 195 258 308 363
#
# _framework density 24.297075
#
# number of rings (size 3 to 8) (size 9 to 14) (size 15 to 20)
#    1.000    1.333    1.667    2.000    2.333    1.333 
#    0.000    0.000    7.333    0.000    0.000    0.000 
#    0.000    0.000    0.000    0.000    0.000    0.000 
#
# Total GULP energy -133919.115906 kJ/mol
# GULP energy per Si atom -5579.963163 kJ/mol
# Density = 2.424177 g / cm^3
# Si number density = 24.297075 Si / 1000 Ang^3
#
#
#
# Elastic Constant Matrix: (Units=GPa)
#
#
# Indices 1 2 3 4 5 6 
#
# 1 67.8923 8.5199 4.8908 0.0001 -7.2554 0.0000
# 2 8.5199 20.7403 28.8122 -0.0001 -3.6883 -0.0001
# 3 4.8908 28.8122 143.8412 0.0000 -5.6092 -0.0002
# 4 0.0001 -0.0001 0.0000 21.1692 -0.0001 10.1353
# 5 -7.2554 -3.6883 -5.6092 -0.0001 31.9285 -0.0001
# 6 0.0000 -0.0001 -0.0002 10.1353 -0.0001 16.0376
#
#
#
# Elastic Compliance Matrix: (Units=1/GPa)
#
#
# Indices 1 2 3 4 5 6 
#
# 1 0.015908 -0.007510 0.001078 0.000000 0.002937 0.000000
# 2 -0.007510 0.071289 -0.013865 0.000000 0.004093 0.000000
# 3 0.001078 -0.013865 0.009706 0.000000 0.000349 0.000000
# 4 0.000000 0.000000 0.000000 0.067732 0.000000 -0.042805
# 5 0.002937 0.004093 0.000349 0.000000 0.032521 0.000000
# 6 0.000000 0.000000 0.000000 -0.042805 0.000000 0.089404
#
#
# Mechanical properties :
#
#
# Convention : Reuss Voigt Hill
#
# Bulk Modulus (GPa) = 17.75898 35.21326 26.48612
# Shear Modulus (GPa) = 14.45405 26.51045 20.48225
#
# Velocity S-wave (km/s) = 2.44168 3.30676 2.90658
# Velocity P-wave (km/s) = 3.90820 5.39479 4.71051
#
# Compressibility (1/GPa) = 0.05630955
#
# Stress axis : x y z
#
# Youngs Moduli (GPa) = 62.86206 14.02747 103.02695
#
# Poissons Ratio (x) = 0.10535 -0.11106
# Poissons Ratio (y) = 0.47209 1.42842
# Poissons Ratio (z) = -0.06776 0.19448
#
# Static dielectric constant tensor:
#      x y z
#    x 1.927660 0.000000 -0.004290 
#    y 0.000000 2.052960 0.000000 
#    z -0.004290 0.000000 1.910790 
# 
# From -- ./inp_files/219978.got.cif
#   From: 2010.05.17/outbox.cif.g08.bks.cpg/sg15_110_cif.got.tgz:219978.got - 2010.06.03 18:47:42.
