data_PCOD9264635
_publ_section_title
;
Structure prediction by ZEFSAII (Michael W. Deem and Ramdas Pophale) SiO2 
 PCOD9264635
Probable space group: C 2/C
;
_chemical_formula_sum "Si O2"
_cell_formula_units_Z 60
_cell_length_a 28.469868
_cell_length_b 19.360413
_cell_length_c 8.924805
_cell_angle_alpha 90.000000
_cell_angle_beta 36.573361
_cell_angle_gamma 90.000000
_cell_volume 2931.142148
_symmetry_space_group_name_H-M "C 2/C"
_symmetry_group_IT_number 15
_symmetry_cell_setting 'monoclinic'
loop_
_space_group_symop_operation_xyz
x,y,z
-x,y,1/2-z
-x,-y,-z
x,-y,1/2+z
1/2+x,1/2+y,z
1/2-x,1/2+y,1/2-z
1/2-x,1/2-y,-z
1/2+x,1/2-y,1/2+z
loop_
_atom_site_type_symbol
_atom_site_label
_atom_site_fract_x
_atom_site_fract_y
_atom_site_fract_z
Si Si1 0.372838 0.011095 0.193766
Si Si2 0.173772 0.157165 0.787923
Si Si3 0.771933 0.307766 0.742992
Si Si4 0.000000 0.842327 0.750000
Si Si5 0.985138 0.264718 0.027999
Si Si6 0.865685 0.733054 0.566781
Si Si7 0.795679 0.414068 0.172757
Si Si8 0.419276 0.900939 0.297900
O O1 0.341824 0.057258 0.409223
O O2 0.303018 0.972260 0.281111
O O3 0.423774 0.951804 0.144401
O O4 0.417510 0.055425 0.954869
O O5 0.182332 0.238578 0.815356
O O6 0.225394 0.158510 0.502910
O O7 0.213495 0.111737 0.816272
O O8 0.085846 0.127750 0.990548
O O9 0.834482 0.361846 0.519576
O O10 0.707795 0.281851 0.786031
O O11 0.980561 0.794431 0.659749
O O12 0.980572 0.339382 0.117671
O O13 0.911760 0.256886 0.103024
O O14 0.067125 0.257859 0.730972
O O15 0.836879 0.654586 0.629009
#
# Coordination Sequence:
#
# PCOD9264635 Si02
#       8
#     8   8   8   4   8   8   8   8
#     4  10  22  36  59  85 112 154 209 237 276 342
#     4  10  20  34  59  90 114 148 187 249 298 354
#     4  10  19  35  61  84 115 151 193 243 303 345
#     4  12  22  36  60  90 116 152 192 234 308 366
#     4  11  23  36  55  84 125 158 183 240 297 348
#     4  10  22  39  56  84 124 154 192 242 302 353
#     4  10  20  39  59  83 114 150 202 244 281 343
#     4  11  21  39  57  85 113 157 198 243 286 338
#
# _framework density 20.469836999999998
#
# number of rings (size 3 to 8) (size 9 to 14) (size 15 to 20)
#    0.000    1.600    5.333    0.000    1.867    1.600 
#    0.000    4.000    0.000    0.800    0.000    0.000 
#    0.000    0.000    0.000    0.000    0.000    0.000 
#
# Total GULP energy -167615.077095 kJ/mol
# GULP energy per Si atom -5587.169237 kJ/mol
# Density = 2.042325 g / cm^3
# Si number density = 20.469837 Si / 1000 Ang^3
#
#
#
# Elastic Constant Matrix: (Units=GPa)
#
#
# Indices 1 2 3 4 5 6 
#
# 1 72.6110 20.8988 31.4575 0.0000 -3.4981 0.0000
# 2 20.8988 46.0234 4.9256 0.0000 0.1991 0.0000
# 3 31.4575 4.9256 67.6483 0.0000 -7.5587 0.0000
# 4 0.0000 0.0000 0.0000 -10.9963 0.0000 11.2207
# 5 -3.4981 0.1991 -7.5587 0.0000 39.9854 0.0000
# 6 0.0000 0.0000 0.0000 11.2207 0.0000 28.3726
#
#
#
# Elastic Compliance Matrix: (Units=1/GPa)
#
#
# Indices 1 2 3 4 5 6 
#
# 1 0.019842 -0.008088 -0.008622 0.000000 0.000146 0.000000
# 2 -0.008088 0.025202 0.001872 0.000000 -0.000479 0.000000
# 3 -0.008622 0.001872 0.018971 0.000000 0.002823 0.000000
# 4 0.000000 0.000000 0.000000 -0.064793 0.000000 0.025624
# 5 0.000146 -0.000479 0.002823 0.000000 0.025558 0.000000
# 6 0.000000 0.000000 0.000000 0.025624 0.000000 0.025112
#
#
# Mechanical properties :
#
#
# Convention : Reuss Voigt Hill
#
# Bulk Modulus (GPa) = 29.11992 33.42739 31.27365
# Shear Modulus (GPa) = 54.93716 20.07240 37.50478
#
# Velocity S-wave (km/s) = 5.18617 3.13483 4.28506
# Velocity P-wave (km/s) = 7.07944 5.42848 6.30820
#
# Compressibility (1/GPa) = 0.03434076
#
# Stress axis : x y z
#
# Youngs Moduli (GPa) = 50.39781 39.67871 52.71325
#
# Poissons Ratio (x) = 0.32092 0.45447
# Poissons Ratio (y) = 0.40762 -0.09870
# Poissons Ratio (z) = 0.43451 -0.07430
#
# Static dielectric constant tensor:
#      x y z
#    x 1.774110 0.000000 -0.021470 
#    y 0.000000 1.718490 0.000000 
#    z -0.021470 0.000000 1.766660 
# 
# From -- ./inp_files/67514.got.cif
#   From: 2010.05.17/outbox.cif.g08.bks.cpg/sg15_34_cif.got.tgz:67514.got - 2010.06.03 18:47:42.
