data_PCOD9264412
_publ_section_title
;
Structure prediction by ZEFSAII (Michael W. Deem and Ramdas Pophale) SiO2 
 PCOD9264412
Probable space group: C 2/C
;
_chemical_formula_sum "Si O2"
_cell_formula_units_Z 60
_cell_length_a 27.818334
_cell_length_b 12.972361
_cell_length_c 18.566442
_cell_angle_alpha 90.000000
_cell_angle_beta 25.201159
_cell_angle_gamma 90.000000
_cell_volume 2852.870328
_symmetry_space_group_name_H-M "C 2/C"
_symmetry_group_IT_number 15
_symmetry_cell_setting 'monoclinic'
loop_
_space_group_symop_operation_xyz
x,y,z
-x,y,1/2-z
-x,-y,-z
x,-y,1/2+z
1/2+x,1/2+y,z
1/2-x,1/2+y,1/2-z
1/2-x,1/2-y,-z
1/2+x,1/2-y,1/2+z
loop_
_atom_site_type_symbol
_atom_site_label
_atom_site_fract_x
_atom_site_fract_y
_atom_site_fract_z
Si Si1 0.008007 0.845902 0.451891
Si Si2 0.500000 0.950557 0.750000
Si Si3 0.655998 0.976812 0.846374
Si Si4 0.181723 0.007864 0.241931
Si Si5 0.292346 0.062076 0.954453
Si Si6 0.762730 0.132035 0.067687
Si Si7 0.572855 0.147843 0.852108
Si Si8 0.560640 0.766479 0.750901
O O1 0.919482 0.935790 0.581844
O O2 0.975634 0.754053 0.550517
O O3 0.991669 0.809727 0.392957
O O4 0.133793 0.894208 0.288857
O O5 0.485643 0.864850 0.831945
O O6 0.398019 0.015952 0.856889
O O7 0.716614 0.994008 0.839727
O O8 0.728931 0.902938 0.693780
O O9 0.634182 0.082725 0.832266
O O10 0.535354 0.922183 0.021826
O O11 0.206455 0.075067 0.136729
O O12 0.343371 0.146916 0.830729
O O13 0.236333 0.973799 0.980226
O O14 0.656702 0.190898 0.175268
O O15 0.871090 0.203629 0.903376
#
# Coordination Sequence:
#
# PCOD9264412 Si02
#       8
#     8   4   8   8   8   8   8   8
#     4  11  24  42  59  90 126 174 206 260 309 381
#     4  10  22  30  62  94 120 148 204 264 316 368
#     4  10  21  38  62  94 120 161 205 268 311 380
#     4  11  25  40  61  88 130 167 216 256 316 366
#     4  10  20  39  57  87 120 162 202 259 309 376
#     4   9  18  35  58  85 119 152 191 255 322 362
#     4  10  22  40  65  88 127 159 212 255 326 371
#     4  10  19  35  58  92 121 153 198 260 319 375
#
# _framework density 21.031451000000001
#
# number of rings (size 3 to 8) (size 9 to 14) (size 15 to 20)
#    0.000    1.867    2.667    0.800    5.600    1.600 
#    0.000    0.000    0.000    3.200    0.000    0.000 
#    0.000    0.000    0.000    0.000    0.000    0.000 
#
# Total GULP energy -167214.430835 kJ/mol
# GULP energy per Si atom -5573.814361 kJ/mol
# Density = 2.098358 g / cm^3
# Si number density = 21.031451 Si / 1000 Ang^3
#
#
#
# Elastic Constant Matrix: (Units=GPa)
#
#
# Indices 1 2 3 4 5 6 
#
# 1 80.5786 17.2122 20.8387 0.0000 12.8057 0.0000
# 2 17.2122 47.1380 4.9805 0.0000 4.2814 0.0000
# 3 20.8387 4.9805 66.4019 0.0000 24.4847 0.0000
# 4 0.0000 0.0000 0.0000 35.2029 0.0000 7.7384
# 5 12.8057 4.2814 24.4847 0.0000 30.2815 0.0000
# 6 0.0000 0.0000 0.0000 7.7384 0.0000 24.2141
#
#
#
# Elastic Compliance Matrix: (Units=1/GPa)
#
#
# Indices 1 2 3 4 5 6 
#
# 1 0.014722 -0.004770 -0.003157 0.000000 -0.002999 0.000000
# 2 -0.004770 0.023058 0.000322 0.000000 -0.001503 0.000000
# 3 -0.003157 0.000322 0.022157 0.000000 -0.016626 0.000000
# 4 0.000000 0.000000 0.000000 0.030553 0.000000 -0.009764
# 5 -0.002999 -0.001503 -0.016626 0.000000 0.047947 0.000000
# 6 0.000000 0.000000 0.000000 -0.009764 0.000000 0.044419
#
#
# Mechanical properties :
#
#
# Convention : Reuss Voigt Hill
#
# Bulk Modulus (GPa) = 22.35736 31.13126 26.74431
# Shear Modulus (GPa) = 23.47689 28.01220 25.74454
#
# Velocity S-wave (km/s) = 3.34470 3.65351 3.50251
# Velocity P-wave (km/s) = 5.05663 5.71243 5.39450
#
# Compressibility (1/GPa) = 0.04472800
#
# Stress axis : x y z
#
# Youngs Moduli (GPa) = 67.92533 43.36797 45.13278
#
# Poissons Ratio (x) = 0.20685 0.14246
# Poissons Ratio (y) = 0.32399 -0.01451
# Poissons Ratio (z) = 0.21441 -0.01395
#
# Static dielectric constant tensor:
#      x y z
#    x 1.798630 0.000000 0.021030 
#    y 0.000000 1.752860 0.000000 
#    z 0.021030 0.000000 1.841610 
# 
# From -- ./inp_files/222702.got.cif
#   From: 2010.05.17/outbox.cif.g08.bks.cpg/sg15_112_cif.got.tgz:222702.got - 2010.06.03 18:47:42.
