data_PCOD9264519
_publ_section_title
;
Structure prediction by ZEFSAII (Michael W. Deem and Ramdas Pophale) SiO2 
 PCOD9264519
Probable space group: C 2/C
;
_chemical_formula_sum "Si O2"
_cell_formula_units_Z 56
_cell_length_a 19.740675
_cell_length_b 14.673472
_cell_length_c 18.093214
_cell_angle_alpha 90.000000
_cell_angle_beta 150.210471
_cell_angle_gamma 90.000000
_cell_volume 2603.788026
_symmetry_space_group_name_H-M "C 2/C"
_symmetry_group_IT_number 15
_symmetry_cell_setting 'monoclinic'
loop_
_space_group_symop_operation_xyz
x,y,z
-x,y,1/2-z
-x,-y,-z
x,-y,1/2+z
1/2+x,1/2+y,z
1/2-x,1/2+y,1/2-z
1/2-x,1/2-y,-z
1/2+x,1/2-y,1/2+z
loop_
_atom_site_type_symbol
_atom_site_label
_atom_site_fract_x
_atom_site_fract_y
_atom_site_fract_z
Si Si1 0.738313 0.251490 0.868041
Si Si2 0.675057 0.405886 0.152435
Si Si3 0.384860 0.860096 0.473236
Si Si4 0.812501 0.418809 0.723851
Si Si5 0.406022 0.681099 0.397477
Si Si6 0.157297 0.386719 0.420468
Si Si7 0.663219 0.905939 0.915394
O O1 0.806919 0.192139 0.869508
O O2 0.604776 0.289282 0.698690
O O3 0.716657 0.179360 0.913496
O O4 0.817541 0.335876 0.978485
O O5 0.768878 0.406495 0.313708
O O6 0.741566 0.482752 0.163793
O O7 0.514420 0.399124 0.014506
O O8 0.524015 0.919436 0.610919
O O9 0.427630 0.767228 0.471957
O O10 0.321462 0.849021 0.495124
O O11 0.740603 0.359122 0.718110
O O12 0.782170 0.378556 0.613436
O O13 0.211436 0.489839 0.474320
O O14 0.000000 0.393460 0.250000
O O15 0.500000 0.907710 0.750000
#
# Coordination Sequence:
#
# PCOD9264519 Si02
#       7
#     8   8   8   8   8   8   8
#     4  10  21  36  60  88 125 165 199 249 320 378
#     4  11  22  40  61  93 128 163 206 259 308 378
#     4  10  22  40  65  91 118 165 218 256 303 371
#     4  11  22  41  63  90 122 167 206 264 310 371
#     4  11  24  40  61  92 132 165 203 259 322 371
#     4  10  19  35  59  90 121 159 205 256 304 373
#     4   9  20  38  62  90 120 155 213 261 302 358
#
# _framework density 21.507127000000001
#
# number of rings (size 3 to 8) (size 9 to 14) (size 15 to 20)
#    0.000    1.714    1.429    3.429    2.000    1.714 
#    0.000    2.143    0.000    0.000    0.000    0.000 
#    0.000    0.000    0.000    0.000    0.000    0.000 
#
# Total GULP energy -156094.869405 kJ/mol
# GULP energy per Si atom -5574.816764 kJ/mol
# Density = 2.145818 g / cm^3
# Si number density = 21.507127 Si / 1000 Ang^3
#
#
#
# Elastic Constant Matrix: (Units=GPa)
#
#
# Indices 1 2 3 4 5 6 
#
# 1 59.4702 10.3493 42.0703 0.0005 -27.5657 -0.0002
# 2 10.3493 75.8628 18.5499 0.0003 -14.9305 -0.0002
# 3 42.0703 18.5499 88.9827 0.0005 -18.9448 -0.0001
# 4 0.0005 0.0003 0.0005 27.0537 0.0005 -6.9140
# 5 -27.5657 -14.9305 -18.9448 0.0005 31.5649 -0.0001
# 6 -0.0002 -0.0002 -0.0001 -6.9140 -0.0001 32.1769
#
#
#
# Elastic Compliance Matrix: (Units=1/GPa)
#
#
# Indices 1 2 3 4 5 6 
#
# 1 0.037740 0.003261 -0.012815 -0.000001 0.026810 0.000000
# 2 0.003261 0.015071 -0.002935 0.000000 0.008216 0.000000
# 3 -0.012815 -0.002935 0.017462 0.000000 -0.002099 0.000000
# 4 -0.000001 0.000000 0.000000 0.039111 -0.000002 0.008404
# 5 0.026810 0.008216 -0.002099 -0.000002 0.057720 0.000000
# 6 0.000000 0.000000 0.000000 0.008404 0.000000 0.032884
#
#
# Mechanical properties :
#
#
# Convention : Reuss Voigt Hill
#
# Bulk Modulus (GPa) = 22.07683 40.69495 31.38589
# Shear Modulus (GPa) = 20.82777 28.38218 24.60498
#
# Velocity S-wave (km/s) = 3.11531 3.63666 3.38603
# Velocity P-wave (km/s) = 4.81948 6.04950 5.46918
#
# Compressibility (1/GPa) = 0.04529636
#
# Stress axis : x y z
#
# Youngs Moduli (GPa) = 26.49701 66.35142 57.26758
#
# Poissons Ratio (x) = -0.21640 0.73390
# Poissons Ratio (y) = -0.08642 0.16806
# Poissons Ratio (z) = 0.33956 0.19472
#
# Static dielectric constant tensor:
#      x y z
#    x 1.813740 0.000000 0.025250 
#    y 0.000000 1.805330 0.000000 
#    z 0.025250 0.000000 1.827390 
# 
# From -- ./inp_files/215757.got.cif
#   From: 2010.05.17/outbox.cif.g08.bks.cpg/sg15_108_cif.got.tgz:215757.got - 2010.06.03 18:47:42.
