data_PCOD9264007
_publ_section_title
;
Structure prediction by ZEFSAII (Michael W. Deem and Ramdas Pophale) SiO2 
 PCOD9264007
Probable space group: C 2/C
;
_chemical_formula_sum "Si O2"
_cell_formula_units_Z 52
_cell_length_a 31.386504
_cell_length_b 11.227533
_cell_length_c 8.861584
_cell_angle_alpha 90.000000
_cell_angle_beta 39.828608
_cell_angle_gamma 90.000000
_cell_volume 2000.106791
_symmetry_space_group_name_H-M "C 2/C"
_symmetry_group_IT_number 15
_symmetry_cell_setting 'monoclinic'
loop_
_space_group_symop_operation_xyz
x,y,z
-x,y,1/2-z
-x,-y,-z
x,-y,1/2+z
1/2+x,1/2+y,z
1/2-x,1/2+y,1/2-z
1/2-x,1/2-y,-z
1/2+x,1/2-y,1/2+z
loop_
_atom_site_type_symbol
_atom_site_label
_atom_site_fract_x
_atom_site_fract_y
_atom_site_fract_z
Si Si1 0.915091 0.573669 0.240136
Si Si2 0.095864 0.361940 0.061332
Si Si3 0.239762 0.644434 0.824051
Si Si4 0.750470 0.408036 0.865525
Si Si5 0.580303 0.388538 0.529066
Si Si6 0.948982 0.904580 0.203650
Si Si7 0.500000 0.802569 0.750000
O O1 0.928486 0.431853 0.223346
O O2 0.938319 0.619016 0.011142
O O3 0.838459 0.613335 0.453095
O O4 0.944360 0.616113 0.322887
O O5 0.169340 0.415033 0.841301
O O6 0.104865 0.221254 0.060480
O O7 0.270131 0.539358 0.636376
O O8 0.241508 0.787161 0.789685
O O9 0.271200 0.621618 0.904628
O O10 0.500000 0.368692 0.750000
O O11 0.599169 0.372715 0.302533
O O12 0.589454 0.522645 0.562737
O O13 0.994909 0.796841 0.130702
O O14 0.000000 0.000000 0.000000
#
# Coordination Sequence:
#
# PCOD9264007 Si02
#       7
#     8   8   8   8   8   8   4
#     4  10  23  36  58  77 118 144 189 222 278 323
#     4  10  21  39  54  84 108 150 181 233 269 334
#     4   9  19  40  59  87 111 150 180 240 278 338
#     4   9  19  38  63  81 117 142 188 229 291 328
#     4  10  20  35  54  74 108 142 183 227 274 318
#     4  10  19  35  53  73 104 145 179 231 270 312
#     4  12  20  34  54  78 108 152 182 224 266 330
#
# _framework density 25.998612000000001
#
# number of rings (size 3 to 8) (size 9 to 14) (size 15 to 20)
#    0.000    2.154    3.846    0.000    1.077    3.692 
#    2.769    0.000    0.000    0.000    0.000    0.000 
#    0.000    0.000    0.000    0.000    0.000    0.000 
#
# Total GULP energy -144849.279997 kJ/mol
# GULP energy per Si atom -5571.126154 kJ/mol
# Density = 2.593944 g / cm^3
# Si number density = 25.998612 Si / 1000 Ang^3
#
#
#
# Elastic Constant Matrix: (Units=GPa)
#
#
# Indices 1 2 3 4 5 6 
#
# 1 129.5647 38.3531 14.0150 0.0000 6.5540 0.0000
# 2 38.3531 177.1432 21.0069 0.0000 29.6203 0.0000
# 3 14.0150 21.0069 51.4062 0.0000 19.0082 0.0000
# 4 0.0000 0.0000 0.0000 38.2416 0.0000 10.3843
# 5 6.5540 29.6203 19.0082 0.0000 30.3793 0.0000
# 6 0.0000 0.0000 0.0000 10.3843 0.0000 49.6756
#
#
#
# Elastic Compliance Matrix: (Units=1/GPa)
#
#
# Indices 1 2 3 4 5 6 
#
# 1 0.008401 -0.001778 -0.001997 0.000000 0.001170 0.000000
# 2 -0.001778 0.007128 0.000000 0.000000 -0.006566 0.000000
# 3 -0.001997 0.000000 0.025809 0.000000 -0.015718 0.000000
# 4 0.000000 0.000000 0.000000 0.027723 0.000000 -0.005795
# 5 0.001170 -0.006566 -0.015718 0.000000 0.048902 0.000000
# 6 0.000000 0.000000 0.000000 -0.005795 0.000000 0.021342
#
#
# Mechanical properties :
#
#
# Convention : Reuss Voigt Hill
#
# Bulk Modulus (GPa) = 29.59526 56.09603 42.84564
# Shear Modulus (GPa) = 31.62202 42.64191 37.13197
#
# Velocity S-wave (km/s) = 3.49133 4.05428 3.78329
# Velocity P-wave (km/s) = 5.25933 6.59846 5.96659
#
# Compressibility (1/GPa) = 0.03378919
#
# Stress axis : x y z
#
# Youngs Moduli (GPa) = 119.03063 140.29081 38.74582
#
# Poissons Ratio (x) = 0.24941 0.07736
# Poissons Ratio (y) = 0.21162 0.00001
# Poissons Ratio (z) = 0.23766 0.00002
#
# Static dielectric constant tensor:
#      x y z
#    x 2.163390 0.000000 0.047240 
#    y 0.000000 2.172170 0.000000 
#    z 0.047240 0.000000 2.251470 
# 
# From -- ./inp_files/65167.got.cif
#   From: 2010.05.17/outbox.cif.g08.bks.cpg/sg15_33_cif.got.tgz:65167.got - 2010.06.03 18:47:42.
