data_PCOD9264751
_publ_section_title
;
Structure prediction by ZEFSAII (Michael W. Deem and Ramdas Pophale) SiO2 
 PCOD9264751
Probable space group: C 2/C
;
_chemical_formula_sum "Si O2"
_cell_formula_units_Z 60
_cell_length_a 14.620709
_cell_length_b 15.372869
_cell_length_c 15.177557
_cell_angle_alpha 90.000000
_cell_angle_beta 116.849998
_cell_angle_gamma 90.000000
_cell_volume 3043.571939
_symmetry_space_group_name_H-M "C 2/C"
_symmetry_group_IT_number 15
_symmetry_cell_setting 'monoclinic'
loop_
_space_group_symop_operation_xyz
x,y,z
-x,y,1/2-z
-x,-y,-z
x,-y,1/2+z
1/2+x,1/2+y,z
1/2-x,1/2+y,1/2-z
1/2-x,1/2-y,-z
1/2+x,1/2-y,1/2+z
loop_
_atom_site_type_symbol
_atom_site_label
_atom_site_fract_x
_atom_site_fract_y
_atom_site_fract_z
Si Si1 0.271659 0.793753 0.916312
Si Si2 0.900052 0.693360 0.764956
Si Si3 0.820369 0.123839 0.555152
Si Si4 0.338111 0.017747 0.489454
Si Si5 0.638697 0.770266 0.051023
Si Si6 0.065302 0.488403 0.157223
Si Si7 0.000000 0.834952 0.250000
Si Si8 0.448639 0.812158 0.860087
O O1 0.190442 0.750104 0.815655
O O2 0.379981 0.785166 0.913588
O O3 0.250000 0.750000 0.000000
O O4 0.275124 0.895912 0.938461
O O5 0.903979 0.718566 0.869828
O O6 0.888748 0.587764 0.762303
O O7 0.000000 0.712037 0.750000
O O8 0.750436 0.189247 0.583669
O O9 0.853976 0.172045 0.480818
O O10 0.921044 0.109175 0.657984
O O11 0.744312 0.045405 0.503425
O O12 0.443914 0.031566 0.589283
O O13 0.379315 0.980939 0.413679
O O14 0.563473 0.816713 0.948138
O O15 0.077257 0.590805 0.186686
O O16 0.942655 0.766027 0.288811
#
# Coordination Sequence:
#
# PCOD9264751 Si02
#       8
#     8   8   8   8   8   8   4   8
#     4  11  24  41  58  83 121 169 202 250 311 371
#     4  12  23  38  59  87 124 162 204 253 307 377
#     4  10  19  36  62  89 125 160 194 253 305 372
#     4  10  19  39  64  87 122 156 200 257 311 358
#     4  10  19  36  63  90 120 158 200 248 314 361
#     4  10  19  35  62  95 118 151 205 259 307 353
#     4  10  22  34  58  98 130 160 196 242 310 376
#     4  10  20  37  62  92 126 152 200 259 306 369
#
# _framework density 19.713678000000002
#
# number of rings (size 3 to 8) (size 9 to 14) (size 15 to 20)
#    0.000    1.600    2.667    4.000    0.933    0.000 
#    1.200    1.333    0.000    2.400    0.000    0.000 
#    0.000    0.000    0.000    0.000    0.000    0.000 
#
# Total GULP energy -167273.943765 kJ/mol
# GULP energy per Si atom -5575.798126 kJ/mol
# Density = 1.966881 g / cm^3
# Si number density = 19.713678 Si / 1000 Ang^3
#
#
#
# Elastic Constant Matrix: (Units=GPa)
#
#
# Indices 1 2 3 4 5 6 
#
# 1 78.9984 38.5801 18.5193 0.0000 -7.6616 0.0000
# 2 38.5801 87.9956 25.3517 0.0000 3.2871 0.0000
# 3 18.5193 25.3517 44.3014 0.0000 -9.2155 0.0000
# 4 0.0000 0.0000 0.0000 15.5683 0.0000 8.7802
# 5 -7.6616 3.2871 -9.2155 0.0000 42.2834 0.0000
# 6 0.0000 0.0000 0.0000 8.7802 0.0000 22.4245
#
#
#
# Elastic Compliance Matrix: (Units=1/GPa)
#
#
# Indices 1 2 3 4 5 6 
#
# 1 0.016854 -0.006770 -0.002542 0.000000 0.003026 0.000000
# 2 -0.006770 0.016672 -0.007579 0.000000 -0.004175 0.000000
# 3 -0.002542 -0.007579 0.029329 0.000000 0.006521 0.000000
# 4 0.000000 0.000000 0.000000 0.082437 0.000000 -0.032278
# 5 0.003026 -0.004175 0.006521 0.000000 0.025944 0.000000
# 6 0.000000 0.000000 0.000000 -0.032278 0.000000 0.057232
#
#
# Mechanical properties :
#
#
# Convention : Reuss Voigt Hill
#
# Bulk Modulus (GPa) = 34.39602 41.79974 38.09788
# Shear Modulus (GPa) = 18.38639 24.64486 21.51562
#
# Velocity S-wave (km/s) = 3.05728 3.53957 3.30723
# Velocity P-wave (km/s) = 5.47250 6.16070 5.82677
#
# Compressibility (1/GPa) = 0.02907313
#
# Stress axis : x y z
#
# Youngs Moduli (GPa) = 59.33262 59.98128 34.09640
#
# Poissons Ratio (x) = 0.40608 0.08667
# Poissons Ratio (y) = 0.40169 0.25841
# Poissons Ratio (z) = 0.15081 0.45459
#
# Static dielectric constant tensor:
#      x y z
#    x 1.708870 0.000000 0.005880 
#    y 0.000000 1.767890 0.000000 
#    z 0.005880 0.000000 1.762430 
# 
# From -- ./inp_files/154039.got.cif
#   From: 2010.05.17/outbox.cif.g08.bks.cpg/sg15_78_cif.got.tgz:154039.got - 2010.06.03 18:47:42.
