data_PCOD9264046
_publ_section_title
;
Structure prediction by ZEFSAII (Michael W. Deem and Ramdas Pophale) SiO2 
 PCOD9264046
Probable space group: C 2/C
;
_chemical_formula_sum "Si O2"
_cell_formula_units_Z 48
_cell_length_a 11.679732
_cell_length_b 24.367542
_cell_length_c 9.199482
_cell_angle_alpha 90.000000
_cell_angle_beta 100.771171
_cell_angle_gamma 90.000000
_cell_volume 2572.101545
_symmetry_space_group_name_H-M "C 2/C"
_symmetry_group_IT_number 15
_symmetry_cell_setting 'monoclinic'
loop_
_space_group_symop_operation_xyz
x,y,z
-x,y,1/2-z
-x,-y,-z
x,-y,1/2+z
1/2+x,1/2+y,z
1/2-x,1/2+y,1/2-z
1/2-x,1/2-y,-z
1/2+x,1/2-y,1/2+z
loop_
_atom_site_type_symbol
_atom_site_label
_atom_site_fract_x
_atom_site_fract_y
_atom_site_fract_z
Si Si1 0.495000 0.766718 0.544934
Si Si2 0.390517 0.345463 0.997038
Si Si3 0.000000 0.993415 0.750000
Si Si4 0.754524 0.847401 0.263851
Si Si5 0.086728 0.927633 0.019109
Si Si6 0.500000 0.826506 0.250000
Si Si7 0.704981 0.779936 0.789868
O O1 0.487081 0.701135 0.561438
O O2 0.515010 0.786657 0.389714
O O3 0.598131 0.794899 0.659405
O O4 0.365196 0.779511 0.573155
O O5 0.312945 0.318997 0.849871
O O6 0.315746 0.359480 0.122958
O O7 0.462965 0.397418 0.969016
O O8 0.905334 0.959597 0.631340
O O9 0.931923 0.030662 0.851391
O O10 0.820399 0.882103 0.404697
O O11 0.617453 0.860041 0.245703
O O12 0.760352 0.780164 0.263154
#
# Coordination Sequence:
#
# PCOD9264046 Si02
#       7
#     8   8   4   8   8   4   8
#     4  10  20  32  50  78 120 161 196 228 265 348
#     4  11  18  37  60  82 115 166 195 235 294 360
#     4  10  24  41  64  98 106 144 199 274 306 336
#     4  11  20  36  57  83 118 162 190 235 294 356
#     4  11  22  41  67  89 118 146 201 251 314 335
#     4  12  22  33  50  84 124 154 189 234 282 340
#     4  10  19  35  54  77 117 169 203 213 277 371
#
# _framework density 18.661781000000001
#
# number of rings (size 3 to 8) (size 9 to 14) (size 15 to 20)
#    0.000    1.333    6.667    1.000    0.000    2.667 
#    0.000    0.000    0.000    1.000    0.000    0.000 
#    0.000    0.000    0.000    0.000    0.000    0.000 
#
# Total GULP energy -133619.394070 kJ/mol
# GULP energy per Si atom -5567.474753 kJ/mol
# Density = 1.861931 g / cm^3
# Si number density = 18.661781 Si / 1000 Ang^3
#
#
#
# Elastic Constant Matrix: (Units=GPa)
#
#
# Indices 1 2 3 4 5 6 
#
# 1 88.6362 30.5921 32.8605 0.0000 20.3603 0.0000
# 2 30.5921 61.0740 37.7212 0.0000 10.0586 0.0000
# 3 32.8605 37.7212 109.4425 0.0000 11.6153 0.0000
# 4 0.0000 0.0000 0.0000 33.4764 0.0000 13.0851
# 5 20.3603 10.0586 11.6153 0.0000 22.6582 0.0000
# 6 0.0000 0.0000 0.0000 13.0851 0.0000 10.5540
#
#
#
# Elastic Compliance Matrix: (Units=1/GPa)
#
#
# Indices 1 2 3 4 5 6 
#
# 1 0.016407 -0.005131 -0.001941 0.000000 -0.011471 0.000000
# 2 -0.005131 0.023174 -0.006181 0.000000 -0.002509 0.000000
# 3 -0.001941 -0.006181 0.012028 0.000000 -0.001679 0.000000
# 4 0.000000 0.000000 0.000000 0.057960 0.000000 -0.071860
# 5 -0.011471 -0.002509 -0.001679 0.000000 0.056416 0.000000
# 6 0.000000 0.000000 0.000000 -0.071860 0.000000 0.183844
#
#
# Mechanical properties :
#
#
# Convention : Reuss Voigt Hill
#
# Bulk Modulus (GPa) = 39.83112 51.27782 45.55447
# Shear Modulus (GPa) = 12.99706 23.86965 18.43335
#
# Velocity S-wave (km/s) = 2.64190 3.58028 3.14627
# Velocity P-wave (km/s) = 5.54042 6.68044 6.13696
#
# Compressibility (1/GPa) = 0.02510600
#
# Stress axis : x y z
#
# Youngs Moduli (GPa) = 60.94867 43.15164 83.13756
#
# Poissons Ratio (x) = 0.22140 0.16133
# Poissons Ratio (y) = 0.31271 0.51384
# Poissons Ratio (z) = 0.11827 0.26670
#
# Static dielectric constant tensor:
#      x y z
#    x 1.688690 0.000000 0.019980 
#    y 0.000000 1.670450 0.000000 
#    z 0.019980 0.000000 1.703640 
# 
# From -- ./inp_files/31974.got.cif
#   From: 2010.05.17/outbox.cif.g08.bks.cpg/sg15_16_cif.got.tgz:31974.got - 2010.06.03 18:47:42.
