data_PCOD9264690
_publ_section_title
;
Structure prediction by ZEFSAII (Michael W. Deem and Ramdas Pophale) SiO2 
 PCOD9264690
Probable space group: C 2/C
;
_chemical_formula_sum "Si O2"
_cell_formula_units_Z 60
_cell_length_a 9.402951
_cell_length_b 23.073006
_cell_length_c 21.079401
_cell_angle_alpha 90.000000
_cell_angle_beta 44.722369
_cell_angle_gamma 90.000000
_cell_volume 3218.081088
_symmetry_space_group_name_H-M "C 2/C"
_symmetry_group_IT_number 15
_symmetry_cell_setting 'monoclinic'
loop_
_space_group_symop_operation_xyz
x,y,z
-x,y,1/2-z
-x,-y,-z
x,-y,1/2+z
1/2+x,1/2+y,z
1/2-x,1/2+y,1/2-z
1/2-x,1/2-y,-z
1/2+x,1/2-y,1/2+z
loop_
_atom_site_type_symbol
_atom_site_label
_atom_site_fract_x
_atom_site_fract_y
_atom_site_fract_z
Si Si1 0.943482 0.054888 0.954584
Si Si2 0.351489 0.986407 0.376529
Si Si3 0.172299 0.268079 0.454784
Si Si4 0.593278 0.355743 0.914601
Si Si5 0.000000 0.413097 0.750000
Si Si6 0.475233 0.632585 0.827380
Si Si7 0.061714 0.635704 0.801270
Si Si8 0.819081 0.686234 0.996755
O O1 0.169794 0.028561 0.884278
O O2 0.897027 0.088677 0.905321
O O3 0.939335 0.100589 0.015075
O O4 0.780320 0.005064 0.020868
O O5 0.495131 0.931227 0.332347
O O6 0.474213 0.042795 0.316701
O O7 0.250000 0.250000 0.500000
O O8 0.138972 0.207910 0.428308
O O9 0.339157 0.310134 0.371027
O O10 0.963186 0.304970 0.512459
O O11 0.793559 0.376731 0.814568
O O12 0.386236 0.351843 0.939462
O O13 0.500000 0.606070 0.750000
O O14 0.702559 0.647374 0.773371
O O15 0.000000 0.653405 0.750000
O O16 0.954301 0.666168 0.894307
O O17 0.750000 0.750000 0.000000
#
# Coordination Sequence:
#
# PCOD9264690 Si02
#       8
#     8   8   8   8   4   8   8   8
#     4  10  19  36  61  90 121 163 203 255 315 367
#     4  10  19  35  61  94 118 156 213 260 304 370
#     4  11  23  39  59  86 121 165 205 249 313 378
#     4  10  20  37  61  86 123 158 205 255 309 365
#     4  10  20  32  60  96 118 158 204 262 300 368
#     4  12  23  37  59  91 125 158 205 255 311 368
#     4  12  21  37  61  91 127 156 210 261 303 362
#     4  10  22  38  59  87 119 163 201 247 314 371
#
# _framework density 18.644652000000001
#
# number of rings (size 3 to 8) (size 9 to 14) (size 15 to 20)
#    0.000    1.333    6.000    0.000    2.800    0.000 
#    0.000    0.667    0.000    0.000    0.000    0.933 
#    0.000    0.000    0.000    0.000    0.000    0.000 
#
# Total GULP energy -167160.052966 kJ/mol
# GULP energy per Si atom -5572.001766 kJ/mol
# Density = 1.860222 g / cm^3
# Si number density = 18.644652 Si / 1000 Ang^3
#
#
#
# Elastic Constant Matrix: (Units=GPa)
#
#
# Indices 1 2 3 4 5 6 
#
# 1 113.6340 12.2975 35.7711 0.0000 -2.6112 0.0000
# 2 12.2975 46.5108 21.6325 -0.0001 7.8364 0.0000
# 3 35.7711 21.6325 70.3936 0.0002 -4.8479 -0.0001
# 4 0.0000 -0.0001 0.0002 48.8091 -0.0001 -5.7947
# 5 -2.6112 7.8364 -4.8479 -0.0001 28.0276 0.0000
# 6 0.0000 0.0000 -0.0001 -5.7947 0.0000 20.0007
#
#
#
# Elastic Compliance Matrix: (Units=1/GPa)
#
#
# Indices 1 2 3 4 5 6 
#
# 1 0.010482 -0.000387 -0.005195 0.000000 0.000186 0.000000
# 2 -0.000387 0.027246 -0.008808 0.000000 -0.009177 0.000000
# 3 -0.005195 -0.008808 0.019926 0.000000 0.005425 0.000000
# 4 0.000000 0.000000 0.000000 0.021218 0.000000 0.006147
# 5 0.000186 -0.009177 0.005425 0.000000 0.039201 0.000000
# 6 0.000000 0.000000 0.000000 0.006147 0.000000 0.051779
#
#
# Mechanical properties :
#
#
# Convention : Reuss Voigt Hill
#
# Bulk Modulus (GPa) = 34.63325 41.10451 37.86888
# Shear Modulus (GPa) = 24.00900 30.08996 27.04948
#
# Velocity S-wave (km/s) = 3.59237 4.02165 3.81306
# Velocity P-wave (km/s) = 5.98520 6.60750 6.30403
#
# Compressibility (1/GPa) = 0.02887399
#
# Stress axis : x y z
#
# Youngs Moduli (GPa) = 95.40590 36.70306 50.18552
#
# Poissons Ratio (x) = 0.01419 0.26070
# Poissons Ratio (y) = 0.03688 0.44205
# Poissons Ratio (z) = 0.49560 0.32329
#
# Static dielectric constant tensor:
#      x y z
#    x 1.642780 0.000000 -0.026770 
#    y 0.000000 1.673000 0.000000 
#    z -0.026770 0.000000 1.655000 
# 
# From -- ./inp_files/193724.got.cif
#   From: 2010.05.17/outbox.cif.g08.bks.cpg/sg15_97_cif.got.tgz:193724.got - 2010.06.03 18:47:42.
