data_PCOD9264622
_publ_section_title
;
Structure prediction by ZEFSAII (Michael W. Deem and Ramdas Pophale) SiO2 
 PCOD9264622
Probable space group: C 2/C
;
_chemical_formula_sum "Si O2"
_cell_formula_units_Z 32
_cell_length_a 11.614904
_cell_length_b 12.949424
_cell_length_c 15.810789
_cell_angle_alpha 90.000000
_cell_angle_beta 151.489722
_cell_angle_gamma 90.000000
_cell_volume 1135.078700
_symmetry_space_group_name_H-M "C 2/C"
_symmetry_group_IT_number 15
_symmetry_cell_setting 'monoclinic'
loop_
_space_group_symop_operation_xyz
x,y,z
-x,y,1/2-z
-x,-y,-z
x,-y,1/2+z
1/2+x,1/2+y,z
1/2-x,1/2+y,1/2-z
1/2-x,1/2-y,-z
1/2+x,1/2-y,1/2+z
loop_
_atom_site_type_symbol
_atom_site_label
_atom_site_fract_x
_atom_site_fract_y
_atom_site_fract_z
Si Si1 0.925600 0.875946 0.299215
Si Si2 0.000914 0.415591 0.378340
Si Si3 0.596581 0.403632 0.973286
Si Si4 0.427950 0.151156 0.303374
O O1 0.000000 0.883988 0.250000
O O2 0.636803 0.878844 0.127732
O O3 0.013183 0.764316 0.387938
O O4 0.027710 0.975844 0.413741
O O5 0.022951 0.539343 0.393312
O O6 0.260944 0.371604 0.520408
O O7 0.801592 0.393107 0.176869
O O8 0.349972 0.352462 0.843511
O O9 0.500000 0.149923 0.250000
#
# Coordination Sequence:
#
# PCOD9264622 Si02
#       4
#     8   8   8   8
#     4  10  22  37  59  94 123 151 198 251 306 344
#     4  10  21  40  65  87 117 167 197 246 294 357
#     4  10  21  41  66  84 123 158 208 238 295 368
#     4  10  19  35  60  95 112 154 202 243 299 342
#
# _framework density 28.191877000000002
#
# number of rings (size 3 to 8) (size 9 to 14) (size 15 to 20)
#    0.000    2.000    2.500    3.000    0.000    3.000 
#    4.500    0.000   22.000    0.000    0.000    0.000 
#    0.000    0.000    0.000    0.000    0.000    0.000 
#
# Total GULP energy -89554.696732 kJ/mol
# GULP energy per Si atom -5597.168546 kJ/mol
# Density = 2.812771 g / cm^3
# Si number density = 28.191877 Si / 1000 Ang^3
#
#
#
# Elastic Constant Matrix: (Units=GPa)
#
#
# Indices 1 2 3 4 5 6 
#
# 1 242.8594 35.0585 71.4491 0.0020 80.1751 -0.0011
# 2 35.0585 172.9442 22.8335 -0.0116 4.6875 0.0001
# 3 71.4491 22.8335 110.3088 -0.0025 56.9078 0.0042
# 4 0.0020 -0.0116 -0.0025 9.6994 0.0071 -5.8003
# 5 80.1751 4.6875 56.9078 0.0071 74.8909 0.0012
# 6 -0.0011 0.0001 0.0042 -5.8003 0.0012 24.6341
#
#
#
# Elastic Compliance Matrix: (Units=1/GPa)
#
#
# Indices 1 2 3 4 5 6 
#
# 1 0.006622 -0.001071 -0.000732 0.000003 -0.006466 0.000001
# 2 -0.001071 0.006157 -0.001601 0.000007 0.001977 0.000002
# 3 -0.000732 -0.001601 0.015486 0.000010 -0.010884 0.000000
# 4 0.000003 0.000007 0.000010 0.119995 -0.000023 0.028254
# 5 -0.006466 0.001977 -0.010884 -0.000023 0.028422 -0.000005
# 6 0.000001 0.000002 0.000000 0.028254 -0.000005 0.047247
#
#
# Mechanical properties :
#
#
# Convention : Reuss Voigt Hill
#
# Bulk Modulus (GPa) = 46.60285 87.19939 66.90112
# Shear Modulus (GPa) = 21.01824 48.29629 34.65727
#
# Velocity S-wave (km/s) = 2.73342 4.14349 3.50999
# Velocity P-wave (km/s) = 5.15060 7.34092 6.34105
#
# Compressibility (1/GPa) = 0.02145791
#
# Stress axis : x y z
#
# Youngs Moduli (GPa) = 151.00790 162.41579 64.57585
#
# Poissons Ratio (x) = 0.17387 0.04725
# Poissons Ratio (y) = 0.16166 0.10340
# Poissons Ratio (z) = 0.11050 0.26006
#
# Static dielectric constant tensor:
#      x y z
#    x 2.295050 0.000000 -0.013740 
#    y 0.000000 2.076870 0.000000 
#    z -0.013740 0.000000 2.311680 
# 
# From -- ./inp_files/198477.got.cif
#   From: 2010.05.17/outbox.cif.g08.bks.cpg/sg15_100_cif.got.tgz:198477.got - 2010.06.03 18:47:42.
