data_PCOD9264693
_publ_section_title
;
Structure prediction by ZEFSAII (Michael W. Deem and Ramdas Pophale) SiO2 
 PCOD9264693
Probable space group: C 2/C
;
_chemical_formula_sum "Si O2"
_cell_formula_units_Z 52
_cell_length_a 11.725335
_cell_length_b 20.636341
_cell_length_c 11.416294
_cell_angle_alpha 90.000000
_cell_angle_beta 121.188070
_cell_angle_gamma 90.000000
_cell_volume 2363.137283
_symmetry_space_group_name_H-M "C 2/C"
_symmetry_group_IT_number 15
_symmetry_cell_setting 'monoclinic'
loop_
_space_group_symop_operation_xyz
x,y,z
-x,y,1/2-z
-x,-y,-z
x,-y,1/2+z
1/2+x,1/2+y,z
1/2-x,1/2+y,1/2-z
1/2-x,1/2-y,-z
1/2+x,1/2-y,1/2+z
loop_
_atom_site_type_symbol
_atom_site_label
_atom_site_fract_x
_atom_site_fract_y
_atom_site_fract_z
Si Si1 0.336965 0.242537 0.166431
Si Si2 0.350271 0.420638 0.542839
Si Si3 0.198009 0.119650 0.731274
Si Si4 0.549146 0.924730 0.026505
Si Si5 0.722639 0.124056 0.200685
Si Si6 0.000000 0.022780 0.750000
Si Si7 0.152984 0.470985 0.860601
O O1 0.500000 0.231224 0.250000
O O2 0.317309 0.310464 0.221539
O O3 0.275043 0.185487 0.213691
O O4 0.250000 0.250000 0.000000
O O5 0.362824 0.380507 0.431558
O O6 0.326982 0.381651 0.650502
O O7 0.460966 0.474666 0.624701
O O8 0.223381 0.466880 0.450696
O O9 0.351940 0.095825 0.818024
O O10 0.116688 0.068004 0.765336
O O11 0.421234 0.880349 0.939709
O O12 0.638515 0.918241 0.956234
O O13 0.500000 0.000000 0.000000
O O14 0.724442 0.060956 0.287080
O O15 0.000000 0.485024 0.750000
#
# Coordination Sequence:
#
# PCOD9264693 Si02
#       7
#     8   8   8   8   8   4   8
#     4  12  27  50  73  99 137 194 249 293 340 432
#     4  12  25  39  66 101 136 179 219 294 362 409
#     4  12  25  42  69  99 139 187 236 281 352 429
#     4  11  19  40  66 106 135 171 226 298 353 407
#     4  11  24  41  68 100 141 176 234 290 354 406
#     4  12  24  46  62 100 144 184 232 278 350 436
#     4  10  19  35  61  95 130 165 213 276 349 403
#
# _framework density 22.004646000000001
#
# number of rings (size 3 to 8) (size 9 to 14) (size 15 to 20)
#    0.000    0.615    3.846    6.462    0.000    1.846 
#    0.000    0.000    0.000    1.846    0.000    0.000 
#    0.000    0.000    0.000    0.000    0.000    0.000 
#
# Total GULP energy -145287.065256 kJ/mol
# GULP energy per Si atom -5587.964048 kJ/mol
# Density = 2.195456 g / cm^3
# Si number density = 22.004646 Si / 1000 Ang^3
#
#
#
# Elastic Constant Matrix: (Units=GPa)
#
#
# Indices 1 2 3 4 5 6 
#
# 1 64.7156 32.8013 33.8747 0.0000 -3.3799 0.0000
# 2 32.8013 119.7003 53.2091 0.0000 -4.8213 0.0000
# 3 33.8747 53.2091 110.1060 0.0000 -1.7845 0.0000
# 4 0.0000 0.0000 0.0000 41.7467 0.0000 -14.2615
# 5 -3.3799 -4.8213 -1.7845 0.0000 25.4485 0.0000
# 6 0.0000 0.0000 0.0000 -14.2615 0.0000 30.3107
#
#
#
# Elastic Compliance Matrix: (Units=1/GPa)
#
#
# Indices 1 2 3 4 5 6 
#
# 1 0.019516 -0.003342 -0.004362 0.000000 0.001653 0.000000
# 2 -0.003342 0.011282 -0.004402 0.000000 0.001385 0.000000
# 3 -0.004362 -0.004402 0.012543 0.000000 -0.000534 0.000000
# 4 0.000000 0.000000 0.000000 0.028542 0.000000 0.013429
# 5 0.001653 0.001385 -0.000534 0.000000 0.039740 0.000000
# 6 0.000000 0.000000 0.000000 0.013429 0.000000 0.039310
#
#
# Mechanical properties :
#
#
# Convention : Reuss Voigt Hill
#
# Bulk Modulus (GPa) = 52.27688 59.36577 55.82133
# Shear Modulus (GPa) = 27.54506 31.14364 29.34435
#
# Velocity S-wave (km/s) = 3.54189 3.76616 3.65575
# Velocity P-wave (km/s) = 6.36675 6.77859 6.57589
#
# Compressibility (1/GPa) = 0.01912892
#
# Stress axis : x y z
#
# Youngs Moduli (GPa) = 51.24014 88.63334 79.72795
#
# Poissons Ratio (x) = 0.29623 0.34779
# Poissons Ratio (y) = 0.17126 0.35093
# Poissons Ratio (z) = 0.22352 0.39013
#
# Static dielectric constant tensor:
#      x y z
#    x 1.870810 0.000000 -0.021760 
#    y 0.000000 1.767630 0.000000 
#    z -0.021760 0.000000 1.904970 
# 
# From -- ./inp_files/89703.got.cif
#   From: 2010.05.17/outbox.cif.g08.bks.cpg/sg15_45_cif.got.tgz:89703.got - 2010.06.03 18:47:42.
