data_PCOD9264358
_publ_section_title
;
Structure prediction by ZEFSAII (Michael W. Deem and Ramdas Pophale) SiO2 
 PCOD9264358
Probable space group: C 2/C
;
_chemical_formula_sum "Si O2"
_cell_formula_units_Z 56
_cell_length_a 7.932947
_cell_length_b 16.955418
_cell_length_c 18.454424
_cell_angle_alpha 90.000000
_cell_angle_beta 65.846681
_cell_angle_gamma 90.000000
_cell_volume 2264.928147
_symmetry_space_group_name_H-M "C 2/C"
_symmetry_group_IT_number 15
_symmetry_cell_setting 'monoclinic'
loop_
_space_group_symop_operation_xyz
x,y,z
-x,y,1/2-z
-x,-y,-z
x,-y,1/2+z
1/2+x,1/2+y,z
1/2-x,1/2+y,1/2-z
1/2-x,1/2-y,-z
1/2+x,1/2-y,1/2+z
loop_
_atom_site_type_symbol
_atom_site_label
_atom_site_fract_x
_atom_site_fract_y
_atom_site_fract_z
Si Si1 0.547253 0.551087 0.126998
Si Si2 0.557789 0.315454 0.311847
Si Si3 0.033935 0.660660 0.121544
Si Si4 0.685020 0.278032 0.588587
Si Si5 0.300862 0.602902 0.950424
Si Si6 0.197299 0.476040 0.775980
Si Si7 0.393906 0.148617 0.669683
O O1 0.562548 0.642601 0.104218
O O2 0.652725 0.490148 0.055044
O O3 0.666794 0.537501 0.178991
O O4 0.335283 0.531115 0.183568
O O5 0.500000 0.366460 0.250000
O O6 0.431539 0.237191 0.335768
O O7 0.499725 0.359846 0.394491
O O8 0.764726 0.304384 0.250278
O O9 0.861615 0.695031 0.104604
O O10 0.956282 0.589870 0.182556
O O11 0.196869 0.634941 0.039078
O O12 0.750000 0.250000 0.500000
O O13 0.571254 0.202892 0.635125
O O14 0.179793 0.630574 0.900694
O O15 0.102956 0.560663 0.799466
#
# Coordination Sequence:
#
# PCOD9264358 Si02
#       7
#     8   8   8   8   8   8   8
#     4   9  18  33  55  83 116 151 202 239 284 346
#     4  10  21  38  61  82 106 150 201 247 284 339
#     4  11  22  35  59  87 119 150 195 243 296 353
#     4  11  22  34  55  89 124 152 183 243 308 353
#     4  10  19  35  59  86 112 152 198 246 284 348
#     4   9  18  33  57  84 111 154 197 242 286 347
#     4  10  19  35  58  84 116 149 194 238 297 350
#
# _framework density 24.724847
#
# number of rings (size 3 to 8) (size 9 to 14) (size 15 to 20)
#    0.000    2.000    2.857    1.286    2.000    3.429 
#    0.000    0.000    3.143    0.857    0.000    0.000 
#    0.000    0.000    0.000    0.000    0.000    0.000 
#
# Total GULP energy -156311.776979 kJ/mol
# GULP energy per Si atom -5582.563464 kJ/mol
# Density = 2.466857 g / cm^3
# Si number density = 24.724847 Si / 1000 Ang^3
#
#
#
# Elastic Constant Matrix: (Units=GPa)
#
#
# Indices 1 2 3 4 5 6 
#
# 1 72.1832 27.4246 50.0250 0.0000 -0.5178 0.0000
# 2 27.4246 187.8177 77.5109 0.0000 -4.3087 0.0000
# 3 50.0250 77.5109 168.3588 0.0000 -8.4698 0.0000
# 4 0.0000 0.0000 0.0000 50.4701 0.0000 -10.7515
# 5 -0.5178 -4.3087 -8.4698 0.0000 24.4255 0.0000
# 6 0.0000 0.0000 0.0000 -10.7515 0.0000 25.1545
#
#
#
# Elastic Compliance Matrix: (Units=1/GPa)
#
#
# Indices 1 2 3 4 5 6 
#
# 1 0.017537 -0.000510 -0.005050 0.000000 -0.001469 0.000000
# 2 -0.000510 0.006588 -0.002874 0.000000 0.000155 0.000000
# 3 -0.005050 -0.002874 0.008887 0.000000 0.002468 0.000000
# 4 0.000000 0.000000 0.000000 0.021799 0.000000 0.009317
# 5 -0.001469 0.000155 0.002468 0.000000 0.041793 0.000000
# 6 0.000000 0.000000 0.000000 0.009317 0.000000 0.043737
#
#
# Mechanical properties :
#
#
# Convention : Reuss Voigt Hill
#
# Bulk Modulus (GPa) = 61.94008 82.03117 71.98563
# Shear Modulus (GPa) = 30.75233 38.23662 34.49448
#
# Velocity S-wave (km/s) = 3.53056 3.93680 3.73920
# Velocity P-wave (km/s) = 6.45956 7.34263 6.91521
#
# Compressibility (1/GPa) = 0.01614464
#
# Stress axis : x y z
#
# Youngs Moduli (GPa) = 57.02374 151.78236 112.51983
#
# Poissons Ratio (x) = 0.07747 0.56818
# Poissons Ratio (y) = 0.02910 0.32336
# Poissons Ratio (z) = 0.28795 0.43619
#
# Static dielectric constant tensor:
#      x y z
#    x 2.236360 0.000000 -0.000540 
#    y 0.000000 2.004460 0.000000 
#    z -0.000540 0.000000 1.909370 
# 
# From -- ./inp_files/292837.got.cif
#   From: 2010.05.17/outbox.cif.g08.bks.cpg/sg15_147_cif.got.tgz:292837.got - 2010.06.03 18:47:42.
