data_PCOD9264854
_publ_section_title
;
Structure prediction by ZEFSAII (Michael W. Deem and Ramdas Pophale) SiO2 
 PCOD9264854
Probable space group: C 2/C
;
_chemical_formula_sum "Si O2"
_cell_formula_units_Z 56
_cell_length_a 11.381511
_cell_length_b 11.535952
_cell_length_c 24.992879
_cell_angle_alpha 90.000000
_cell_angle_beta 50.661323
_cell_angle_gamma 90.000000
_cell_volume 2537.936914
_symmetry_space_group_name_H-M "C 2/C"
_symmetry_group_IT_number 15
_symmetry_cell_setting 'monoclinic'
loop_
_space_group_symop_operation_xyz
x,y,z
-x,y,1/2-z
-x,-y,-z
x,-y,1/2+z
1/2+x,1/2+y,z
1/2-x,1/2+y,1/2-z
1/2-x,1/2-y,-z
1/2+x,1/2-y,1/2+z
loop_
_atom_site_type_symbol
_atom_site_label
_atom_site_fract_x
_atom_site_fract_y
_atom_site_fract_z
Si Si1 0.173103 0.753318 0.113678
Si Si2 0.674051 0.071821 0.202036
Si Si3 0.158930 0.657209 0.321728
Si Si4 0.384358 0.959157 0.079221
Si Si5 0.243555 0.667319 0.633456
Si Si6 0.085522 0.264007 0.075614
Si Si7 0.029508 0.133082 0.483468
O O1 0.175098 0.695664 0.172105
O O2 0.239857 0.884100 0.098748
O O3 0.307113 0.680490 0.046018
O O4 0.008062 0.716587 0.139423
O O5 0.500000 0.031736 0.250000
O O6 0.712698 0.093497 0.252415
O O7 0.748903 0.968357 0.146729
O O8 0.158597 0.565220 0.370168
O O9 0.264646 0.762066 0.309623
O O10 0.488059 0.872239 0.083693
O O11 0.500000 0.000000 0.000000
O O12 0.117493 0.712567 0.628324
O O13 0.401617 0.694764 0.556658
O O14 0.996605 0.159531 0.072262
O O15 0.250000 0.250000 0.000000
O O16 0.000000 0.000000 0.500000
#
# Coordination Sequence:
#
# PCOD9264854 Si02
#       7
#     8   8   8   8   8   8   8
#     4  10  22  43  64  97 128 175 220 266 343 394
#     4  10  22  42  68  86 124 178 224 272 323 397
#     4  11  25  42  66  94 134 178 220 274 333 411
#     4  11  23  40  66  97 130 168 217 277 337 392
#     4  11  22  42  63  98 125 172 223 267 340 394
#     4   9  19  35  60  91 130 158 206 264 315 391
#     4  10  19  35  65  95 126 160 212 271 331 391
#
# _framework density 22.065168
#
# number of rings (size 3 to 8) (size 9 to 14) (size 15 to 20)
#    0.000    1.714    1.429    4.286    4.000    2.286 
#    2.571    0.000    0.000    0.000    0.000    0.000 
#    0.000    0.000    0.000    0.000    0.000    0.000 
#
# Total GULP energy -156097.241857 kJ/mol
# GULP energy per Si atom -5574.901495 kJ/mol
# Density = 2.201495 g / cm^3
# Si number density = 22.065168 Si / 1000 Ang^3
#
#
#
# Elastic Constant Matrix: (Units=GPa)
#
#
# Indices 1 2 3 4 5 6 
#
# 1 91.2748 35.4963 16.1354 0.0000 14.3725 0.0000
# 2 35.4963 111.7236 19.3145 0.0000 21.1229 0.0000
# 3 16.1354 19.3145 74.8270 0.0000 14.7318 0.0000
# 4 0.0000 0.0000 0.0000 23.9313 0.0000 -4.9739
# 5 14.3725 21.1229 14.7318 0.0000 38.5980 0.0000
# 6 0.0000 0.0000 0.0000 -4.9739 0.0000 21.6580
#
#
#
# Elastic Compliance Matrix: (Units=1/GPa)
#
#
# Indices 1 2 3 4 5 6 
#
# 1 0.012909 -0.003400 -0.001434 0.000000 -0.002399 0.000000
# 2 -0.003400 0.011065 -0.001276 0.000000 -0.004302 0.000000
# 3 -0.001434 -0.001276 0.014878 0.000000 -0.004446 0.000000
# 4 0.000000 0.000000 0.000000 0.043881 0.000000 0.010078
# 5 -0.002399 -0.004302 -0.004446 0.000000 0.030853 0.000000
# 6 0.000000 0.000000 0.000000 0.010078 0.000000 0.048487
#
#
# Mechanical properties :
#
#
# Convention : Reuss Voigt Hill
#
# Bulk Modulus (GPa) = 37.54754 46.63531 42.09143
# Shear Modulus (GPa) = 27.29705 30.62941 28.96323
#
# Velocity S-wave (km/s) = 3.52107 3.72981 3.62694
# Velocity P-wave (km/s) = 5.79519 6.30316 6.05450
#
# Compressibility (1/GPa) = 0.02663290
#
# Stress axis : x y z
#
# Youngs Moduli (GPa) = 77.46275 90.37593 67.21301
#
# Poissons Ratio (x) = 0.30728 0.09637
# Poissons Ratio (y) = 0.26338 0.08576
# Poissons Ratio (z) = 0.11106 0.11531
#
# Static dielectric constant tensor:
#      x y z
#    x 1.793970 0.000000 -0.126850 
#    y 0.000000 1.703870 0.000000 
#    z -0.126850 0.000000 2.146720 
# 
# From -- ./inp_files/291965.got.cif
#   From: 2010.05.17/outbox.cif.g08.bks.cpg/sg15_146_cif.got.tgz:291965.got - 2010.06.03 18:47:42.
