data_PCOD9264994
_publ_section_title
;
Structure prediction by ZEFSAII (Michael W. Deem and Ramdas Pophale) SiO2 
 PCOD9264994
Probable space group: C 2/C
;
_chemical_formula_sum "Si O2"
_cell_formula_units_Z 48
_cell_length_a 10.042334
_cell_length_b 17.221209
_cell_length_c 24.226187
_cell_angle_alpha 90.000000
_cell_angle_beta 143.270312
_cell_angle_gamma 90.000000
_cell_volume 2505.612846
_symmetry_space_group_name_H-M "C 2/C"
_symmetry_group_IT_number 15
_symmetry_cell_setting 'monoclinic'
loop_
_space_group_symop_operation_xyz
x,y,z
-x,y,1/2-z
-x,-y,-z
x,-y,1/2+z
1/2+x,1/2+y,z
1/2-x,1/2+y,1/2-z
1/2-x,1/2-y,-z
1/2+x,1/2-y,1/2+z
loop_
_atom_site_type_symbol
_atom_site_label
_atom_site_fract_x
_atom_site_fract_y
_atom_site_fract_z
Si Si1 0.015236 0.295615 0.369991
Si Si2 0.050252 0.164134 0.669844
Si Si3 0.647403 0.511852 0.853968
Si Si4 0.292213 0.205977 0.153888
Si Si5 0.036003 0.767547 0.044344
Si Si6 0.081776 0.387679 0.500463
O O1 0.810200 0.337527 0.272056
O O2 0.884057 0.225277 0.356556
O O3 0.212755 0.278762 0.393946
O O4 0.118112 0.341722 0.455934
O O5 0.017373 0.206974 0.600910
O O6 0.966893 0.076276 0.645450
O O7 0.916748 0.216472 0.670536
O O8 0.500000 0.502334 0.750000
O O9 0.708015 0.432662 0.905096
O O10 0.887049 0.551288 0.921219
O O11 0.500000 0.160221 0.250000
O O12 0.138774 0.183346 0.051010
O O13 0.999018 0.676198 0.017863
#
# Coordination Sequence:
#
# PCOD9264994 Si02
#       6
#     8   8   8   8   8   8
#     4  10  19  36  56  81 117 151 185 234 297 339
#     4  11  19  34  57  85 113 153 189 231 290 349
#     4  11  20  37  59  82 112 153 195 231 277 346
#     4   9  17  31  52  74 111 153 188 221 275 344
#     4  11  21  33  57  90 118 142 185 248 293 333
#     4  10  21  35  59  84 111 148 197 236 277 331
#
# _framework density 19.156991000000001
#
# number of rings (size 3 to 8) (size 9 to 14) (size 15 to 20)
#    0.000    1.667    5.000    3.500    0.000    1.333 
#    0.000    0.833    0.000    0.000    0.000    2.333 
#    0.000    0.000    0.000    0.000    0.000    0.000 
#
# Total GULP energy -133671.311173 kJ/mol
# GULP energy per Si atom -5569.637966 kJ/mol
# Density = 1.911339 g / cm^3
# Si number density = 19.156991 Si / 1000 Ang^3
#
#
#
# Elastic Constant Matrix: (Units=GPa)
#
#
# Indices 1 2 3 4 5 6 
#
# 1 76.5297 -0.9762 36.4516 0.0000 -1.1707 0.0000
# 2 -0.9762 24.2203 29.3877 0.0000 -4.0764 0.0000
# 3 36.4516 29.3877 137.5725 0.0001 0.3985 0.0001
# 4 0.0000 0.0000 0.0001 30.8733 0.0001 3.4830
# 5 -1.1707 -4.0764 0.3985 0.0001 38.6435 0.0000
# 6 0.0000 0.0000 0.0001 3.4830 0.0000 12.6590
#
#
#
# Elastic Compliance Matrix: (Units=1/GPa)
#
#
# Indices 1 2 3 4 5 6 
#
# 1 0.016051 0.008166 -0.006001 0.000000 0.001410 0.000000
# 2 0.008166 0.061315 -0.015281 0.000000 0.006873 0.000000
# 3 -0.006001 -0.015281 0.012129 0.000000 -0.001919 0.000000
# 4 0.000000 0.000000 0.000000 0.033428 0.000000 -0.009197
# 5 0.001410 0.006873 -0.001919 0.000000 0.026665 0.000000
# 6 0.000000 0.000000 0.000000 -0.009197 0.000000 0.081526
#
#
# Mechanical properties :
#
#
# Convention : Reuss Voigt Hill
#
# Bulk Modulus (GPa) = 15.80743 40.89429 28.35086
# Shear Modulus (GPa) = 17.95751 27.99913 22.97832
#
# Velocity S-wave (km/s) = 3.06500 3.82719 3.46710
# Velocity P-wave (km/s) = 4.56016 6.39711 5.55509
#
# Compressibility (1/GPa) = 0.06326139
#
# Stress axis : x y z
#
# Youngs Moduli (GPa) = 62.30129 16.30915 82.44728
#
# Poissons Ratio (x) = -0.13318 0.49480
# Poissons Ratio (y) = -0.50875 1.25992
# Poissons Ratio (z) = 0.37389 0.24923
#
# Static dielectric constant tensor:
#      x y z
#    x 1.656000 0.000000 0.031030 
#    y 0.000000 1.677550 0.000000 
#    z 0.031030 0.000000 1.747550 
# 
# From -- ./inp_files/182953.got.cif
#   From: 2010.05.17/outbox.cif.g08.bks.cpg/sg15_92_cif.got.tgz:182953.got - 2010.06.03 18:47:42.
