data_PCOD9264430
_publ_section_title
;
Structure prediction by ZEFSAII (Michael W. Deem and Ramdas Pophale) SiO2 
 PCOD9264430
Probable space group: C 2/C
;
_chemical_formula_sum "Si O2"
_cell_formula_units_Z 64
_cell_length_a 21.296803
_cell_length_b 9.770286
_cell_length_c 27.510125
_cell_angle_alpha 90.000000
_cell_angle_beta 30.022498
_cell_angle_gamma 90.000000
_cell_volume 2864.042739
_symmetry_space_group_name_H-M "C 2/C"
_symmetry_group_IT_number 15
_symmetry_cell_setting 'monoclinic'
loop_
_space_group_symop_operation_xyz
x,y,z
-x,y,1/2-z
-x,-y,-z
x,-y,1/2+z
1/2+x,1/2+y,z
1/2-x,1/2+y,1/2-z
1/2-x,1/2-y,-z
1/2+x,1/2-y,1/2+z
loop_
_atom_site_type_symbol
_atom_site_label
_atom_site_fract_x
_atom_site_fract_y
_atom_site_fract_z
Si Si1 0.382379 0.327220 0.748133
Si Si2 0.482866 0.302335 0.430580
Si Si3 0.500044 0.415654 0.573324
Si Si4 0.420307 0.888534 0.710583
Si Si5 0.216212 0.289313 0.944163
Si Si6 0.599102 0.874106 0.121513
Si Si7 0.168522 0.760587 0.884530
Si Si8 0.231914 0.604745 0.745364
O O1 0.419690 0.421022 0.677588
O O2 0.291213 0.371745 0.852554
O O3 0.511499 0.261648 0.680331
O O4 0.314540 0.202628 0.766616
O O5 0.414871 0.449344 0.480165
O O6 0.493317 0.224509 0.373271
O O7 0.418590 0.208849 0.513882
O O8 0.620671 0.357610 0.352914
O O9 0.587466 0.281417 0.513913
O O10 0.407077 0.386280 0.590735
O O11 0.303860 0.810438 0.813282
O O12 0.506646 0.995548 0.681915
O O13 0.343564 0.966968 0.718241
O O14 0.305401 0.161034 0.899584
O O15 0.178915 0.371934 0.017746
O O16 0.187595 0.654639 0.827981
#
# Coordination Sequence:
#
# PCOD9264430 Si02
#       8
#     8   8   8   8   8   8   8   8
#     4   9  18  33  55  81 109 139 182 232 282 321
#     4  11  21  34  52  79 114 156 190 222 281 343
#     4  10  20  33  53  86 112 145 188 229 275 340
#     4  10  21  37  52  79 116 146 190 238 271 337
#     4  10  19  35  59  82 107 140 186 235 289 327
#     4   9  20  36  55  84 108 139 186 239 279 328
#     4  10  20  34  55  79 112 154 190 223 285 334
#     4   9  19  34  51  77 110 145 185 236 267 328
#
# _framework density 22.346034
#
# number of rings (size 3 to 8) (size 9 to 14) (size 15 to 20)
#    0.000    2.250    1.250    2.250    3.500    0.500 
#    4.500    0.625    0.000    0.000    0.000    0.000 
#    0.000    0.000    0.000    0.000    0.000    0.000 
#
# Total GULP energy -178270.864931 kJ/mol
# GULP energy per Si atom -5570.964529 kJ/mol
# Density = 2.229517 g / cm^3
# Si number density = 22.346034 Si / 1000 Ang^3
#
#
#
# Elastic Constant Matrix: (Units=GPa)
#
#
# Indices 1 2 3 4 5 6 
#
# 1 41.9391 0.6697 24.4822 0.0000 -7.7478 0.0001
# 2 0.6697 13.5354 -7.2803 0.0002 -6.5089 0.0001
# 3 24.4822 -7.2803 127.1020 0.0002 24.3244 -0.0001
# 4 0.0000 0.0002 0.0002 15.7315 -0.0001 -11.2913
# 5 -7.7478 -6.5089 24.3244 -0.0001 36.9300 0.0000
# 6 0.0001 0.0001 -0.0001 -11.2913 0.0000 13.5349
#
#
#
# Elastic Compliance Matrix: (Units=1/GPa)
#
#
# Indices 1 2 3 4 5 6 
#
# 1 0.030833 -0.000254 -0.008219 0.000000 0.011837 0.000000
# 2 -0.000254 0.081253 0.002257 -0.000004 0.012781 -0.000004
# 3 -0.008219 0.002257 0.011252 -0.000001 -0.008738 0.000000
# 4 0.000000 -0.000004 -0.000001 0.158433 0.000000 0.132171
# 5 0.011837 0.012781 -0.008738 0.000000 0.037570 0.000000
# 6 0.000000 -0.000004 0.000000 0.132171 0.000000 0.184146
#
#
# Mechanical properties :
#
#
# Convention : Reuss Voigt Hill
#
# Bulk Modulus (GPa) = 9.01662 24.25774 16.63718
# Shear Modulus (GPa) = 9.04345 24.21961 16.63153
#
# Velocity S-wave (km/s) = 2.01390 3.29575 2.73109
# Velocity P-wave (km/s) = 3.07433 5.03604 4.17212
#
# Compressibility (1/GPa) = 0.11090625
#
# Stress axis : x y z
#
# Youngs Moduli (GPa) = 32.43293 12.30730 88.87037
#
# Poissons Ratio (x) = 0.00312 0.73042
# Poissons Ratio (y) = 0.00823 -0.20058
# Poissons Ratio (z) = 0.26656 -0.02778
#
# Static dielectric constant tensor:
#      x y z
#    x 1.830290 0.000000 -0.020840 
#    y 0.000000 1.932280 0.000000 
#    z -0.020840 0.000000 1.930490 
# 
# From -- ./inp_files/300846.got.cif
#   From: 2010.05.17/outbox.cif.g08.bks.cpg/sg15_151_cif.got.tgz:300846.got - 2010.06.03 18:47:42.
