data_PCOD9264769
_publ_section_title
;
Structure prediction by ZEFSAII (Michael W. Deem and Ramdas Pophale) SiO2 
 PCOD9264769
Probable space group: C 2/C
;
_chemical_formula_sum "Si O2"
_cell_formula_units_Z 52
_cell_length_a 11.032271
_cell_length_b 14.308703
_cell_length_c 19.387336
_cell_angle_alpha 90.000000
_cell_angle_beta 108.442259
_cell_angle_gamma 90.000000
_cell_volume 2903.261190
_symmetry_space_group_name_H-M "C 2/C"
_symmetry_group_IT_number 15
_symmetry_cell_setting 'monoclinic'
loop_
_space_group_symop_operation_xyz
x,y,z
-x,y,1/2-z
-x,-y,-z
x,-y,1/2+z
1/2+x,1/2+y,z
1/2-x,1/2+y,1/2-z
1/2-x,1/2-y,-z
1/2+x,1/2-y,1/2+z
loop_
_atom_site_type_symbol
_atom_site_label
_atom_site_fract_x
_atom_site_fract_y
_atom_site_fract_z
Si Si1 0.144455 0.905820 0.758818
Si Si2 0.703537 0.318339 0.902616
Si Si3 0.428381 0.222441 0.834089
Si Si4 0.167299 0.800778 0.544035
Si Si5 0.757347 0.481564 0.642918
Si Si6 0.500000 0.938327 0.250000
Si Si7 0.619923 0.351821 0.037959
O O1 0.216816 0.891971 0.843546
O O2 0.137076 0.803051 0.723037
O O3 0.201180 0.967800 0.709309
O O4 0.000000 0.934809 0.750000
O O5 0.577036 0.254698 0.866071
O O6 0.821180 0.248028 0.929452
O O7 0.671710 0.366477 0.969390
O O8 0.370961 0.229442 0.900498
O O9 0.423048 0.128690 0.789072
O O10 0.250000 0.750000 0.500000
O O11 0.237171 0.888316 0.593790
O O12 0.032918 0.842250 0.491215
O O13 0.904445 0.504657 0.684248
O O14 0.679841 0.566180 0.594100
#
# Coordination Sequence:
#
# PCOD9264769 Si02
#       7
#     8   8   8   8   8   4   8
#     4   9  17  34  56  79 115 147 190 227 285 341
#     4   9  16  32  63  87 102 149 202 232 277 338
#     4   9  16  35  61  78 108 154 189 232 273 340
#     4  10  23  40  56  82 124 156 181 228 299 352
#     4  11  23  37  58  87 114 151 188 246 281 326
#     4  12  20  38  60  86 114 138 204 244 274 332
#     4  10  19  35  63  84 113 147 196 240 279 335
#
# _framework density 17.910893000000002
#
# number of rings (size 3 to 8) (size 9 to 14) (size 15 to 20)
#    0.000    2.154    3.846    1.385    0.000    1.231 
#    5.538    0.769    0.000    0.000    0.000    0.000 
#    0.000    0.000    0.000    0.000    0.000    0.000 
#
# Total GULP energy -144912.260741 kJ/mol
# GULP energy per Si atom -5573.548490 kJ/mol
# Density = 1.787013 g / cm^3
# Si number density = 17.910893 Si / 1000 Ang^3
#
#
#
# Elastic Constant Matrix: (Units=GPa)
#
#
# Indices 1 2 3 4 5 6 
#
# 1 63.7067 47.9011 42.0943 0.0000 -2.5966 0.0000
# 2 47.9011 61.5758 51.3295 0.0000 3.5393 0.0000
# 3 42.0943 51.3295 118.1893 0.0000 2.1200 0.0000
# 4 0.0000 0.0000 0.0000 35.2116 0.0000 -3.3405
# 5 -2.5966 3.5393 2.1200 0.0000 31.5427 0.0000
# 6 0.0000 0.0000 0.0000 -3.3405 0.0000 12.3525
#
#
#
# Elastic Compliance Matrix: (Units=1/GPa)
#
#
# Indices 1 2 3 4 5 6 
#
# 1 0.039253 -0.030041 -0.001053 0.000000 0.006673 0.000000
# 2 -0.030041 0.048589 -0.010273 0.000000 -0.007235 0.000000
# 3 -0.001053 -0.010273 0.013295 0.000000 0.000172 0.000000
# 4 0.000000 0.000000 0.000000 0.029148 0.000000 0.007882
# 5 0.006673 -0.007235 0.000172 0.000000 0.033053 0.000000
# 6 0.000000 0.000000 0.000000 0.007882 0.000000 0.083087
#
#
# Mechanical properties :
#
#
# Convention : Reuss Voigt Hill
#
# Bulk Modulus (GPa) = 54.34224 58.45795 56.40010
# Shear Modulus (GPa) = 14.91237 22.63116 18.77176
#
# Velocity S-wave (km/s) = 2.88859 3.55849 3.24089
# Velocity P-wave (km/s) = 6.44449 7.04222 6.74997
#
# Compressibility (1/GPa) = 0.01840189
#
# Stress axis : x y z
#
# Youngs Moduli (GPa) = 25.47593 20.58067 75.21887
#
# Poissons Ratio (x) = 0.61827 0.07921
# Poissons Ratio (y) = 0.76533 0.77273
# Poissons Ratio (z) = 0.02683 0.21143
#
# Static dielectric constant tensor:
#      x y z
#    x 1.630670 0.000000 0.012260 
#    y 0.000000 1.608490 0.000000 
#    z 0.012260 0.000000 1.649650 
# 
# From -- ./inp_files/237176.got.cif
#   From: 2010.05.17/outbox.cif.g08.bks.cpg/sg15_119_cif.got.tgz:237176.got - 2010.06.03 18:47:42.
