data_PCOD9264241
_publ_section_title
;
Structure prediction by ZEFSAII (Michael W. Deem and Ramdas Pophale) SiO2 
 PCOD9264241
Probable space group: C 2/C
;
_chemical_formula_sum "Si O2"
_cell_formula_units_Z 56
_cell_length_a 21.495122
_cell_length_b 8.798426
_cell_length_c 23.517016
_cell_angle_alpha 90.000000
_cell_angle_beta 43.344066
_cell_angle_gamma 90.000000
_cell_volume 3052.744042
_symmetry_space_group_name_H-M "C 2/C"
_symmetry_group_IT_number 15
_symmetry_cell_setting 'monoclinic'
loop_
_space_group_symop_operation_xyz
x,y,z
-x,y,1/2-z
-x,-y,-z
x,-y,1/2+z
1/2+x,1/2+y,z
1/2-x,1/2+y,1/2-z
1/2-x,1/2-y,-z
1/2+x,1/2-y,1/2+z
loop_
_atom_site_type_symbol
_atom_site_label
_atom_site_fract_x
_atom_site_fract_y
_atom_site_fract_z
Si Si1 0.106053 0.172366 0.948529
Si Si2 0.871366 0.453195 0.642267
Si Si3 0.561975 0.261281 0.876377
Si Si4 0.765712 0.090752 0.860824
Si Si5 0.744745 0.180538 0.441359
Si Si6 0.227675 0.108856 0.329772
Si Si7 0.918904 0.874266 0.759931
O O1 0.097352 0.290733 0.902104
O O2 0.159356 0.254295 0.964617
O O3 0.168810 0.032118 0.889887
O O4 0.007248 0.141764 0.039725
O O5 0.946242 0.584179 0.600679
O O6 0.799187 0.512736 0.643235
O O7 0.818006 0.438716 0.736893
O O8 0.664105 0.307675 0.825279
O O9 0.549374 0.294847 0.818710
O O10 0.749868 0.268466 0.863857
O O11 0.742793 0.003707 0.935050
O O12 0.867895 0.033761 0.779769
O O13 0.750000 0.250000 0.500000
O O14 0.836578 0.217804 0.344761
O O15 0.000000 0.893999 0.750000
#
# Coordination Sequence:
#
# PCOD9264241 Si02
#       7
#     8   8   8   8   8   8   8
#     4  11  21  33  56  88 115 148 191 245 298 355
#     4  10  19  35  57  82 117 151 190 238 295 358
#     4  11  21  34  55  88 116 149 192 243 298 348
#     4   8  19  33  55  82 107 148 198 236 293 342
#     4   9  18  36  56  77 109 153 194 239 289 349
#     4  11  19  36  56  82 117 152 193 239 297 362
#     4  10  19  35  59  81 109 156 203 238 288 356
#
# _framework density 18.344152000000001
#
# number of rings (size 3 to 8) (size 9 to 14) (size 15 to 20)
#    0.857    1.143    1.429    4.286    0.000    0.000 
#    0.000    0.714    0.000    3.429    0.000    0.000 
#    0.000    0.000    0.000    0.000    0.000    0.000 
#
# Total GULP energy -155901.279156 kJ/mol
# GULP energy per Si atom -5567.902827 kJ/mol
# Density = 1.830240 g / cm^3
# Si number density = 18.344152 Si / 1000 Ang^3
#
#
#
# Elastic Constant Matrix: (Units=GPa)
#
#
# Indices 1 2 3 4 5 6 
#
# 1 66.3191 23.0613 11.8073 -0.0001 7.1473 0.0001
# 2 23.0613 89.0548 30.5451 -0.0002 23.6215 0.0002
# 3 11.8073 30.5451 90.5815 0.0000 15.7067 0.0000
# 4 -0.0001 -0.0002 0.0000 23.9892 0.0000 -6.8090
# 5 7.1473 23.6215 15.7067 0.0000 25.0898 0.0000
# 6 0.0001 0.0002 0.0000 -6.8090 0.0000 12.3990
#
#
#
# Elastic Compliance Matrix: (Units=1/GPa)
#
#
# Indices 1 2 3 4 5 6 
#
# 1 0.016630 -0.003888 -0.000752 0.000000 -0.000607 0.000000
# 2 -0.003888 0.016597 -0.002886 0.000000 -0.012712 0.000000
# 3 -0.000752 -0.002886 0.013015 0.000000 -0.005217 0.000000
# 4 0.000000 0.000000 0.000000 0.049383 0.000000 0.027119
# 5 -0.000607 -0.012712 -0.005217 0.000000 0.055264 0.000000
# 6 0.000000 0.000000 0.000000 0.027119 0.000000 0.095545
#
#
# Mechanical properties :
#
#
# Convention : Reuss Voigt Hill
#
# Bulk Modulus (GPa) = 32.05899 41.86475 36.96187
# Shear Modulus (GPa) = 18.39038 24.33170 21.36104
#
# Velocity S-wave (km/s) = 3.16969 3.64593 3.41612
# Velocity P-wave (km/s) = 5.55970 6.37143 5.97936
#
# Compressibility (1/GPa) = 0.03119250
#
# Stress axis : x y z
#
# Youngs Moduli (GPa) = 60.13348 60.25027 76.83156
#
# Poissons Ratio (x) = 0.23423 0.05774
# Poissons Ratio (y) = 0.23378 0.22172
# Poissons Ratio (z) = 0.04519 0.17387
#
# Static dielectric constant tensor:
#      x y z
#    x 1.609550 0.000000 -0.016710 
#    y 0.000000 1.683640 0.000000 
#    z -0.016710 0.000000 1.643430 
# 
# From -- ./inp_files/281461.got.cif
#   From: 2010.05.17/outbox.cif.g08.bks.cpg/sg15_141_cif.got.tgz:281461.got - 2010.06.03 18:47:42.
