data_PCOD9264091
_publ_section_title
;
Structure prediction by ZEFSAII (Michael W. Deem and Ramdas Pophale) SiO2 
 PCOD9264091
Probable space group: C 2/C
;
_chemical_formula_sum "Si O2"
_cell_formula_units_Z 56
_cell_length_a 18.241433
_cell_length_b 8.944624
_cell_length_c 25.363215
_cell_angle_alpha 90.000000
_cell_angle_beta 44.605101
_cell_angle_gamma 90.000000
_cell_volume 2906.004873
_symmetry_space_group_name_H-M "C 2/C"
_symmetry_group_IT_number 15
_symmetry_cell_setting 'monoclinic'
loop_
_space_group_symop_operation_xyz
x,y,z
-x,y,1/2-z
-x,-y,-z
x,-y,1/2+z
1/2+x,1/2+y,z
1/2-x,1/2+y,1/2-z
1/2-x,1/2-y,-z
1/2+x,1/2-y,1/2+z
loop_
_atom_site_type_symbol
_atom_site_label
_atom_site_fract_x
_atom_site_fract_y
_atom_site_fract_z
Si Si1 0.253334 0.855060 0.776364
Si Si2 0.023314 0.548335 0.298742
Si Si3 0.686364 0.037372 0.848425
Si Si4 0.531918 0.534981 0.423671
Si Si5 0.969645 0.363441 0.422398
Si Si6 0.094743 0.190288 0.578969
Si Si7 0.219374 0.433023 0.453199
O O1 0.357843 0.902580 0.752864
O O2 0.228257 0.681611 0.795806
O O3 0.154573 0.939382 0.852130
O O4 0.272722 0.897345 0.705537
O O5 0.000000 0.523870 0.250000
O O6 0.999897 0.404180 0.346955
O O7 0.953001 0.683253 0.358449
O O8 0.559973 0.049012 0.909706
O O9 0.726509 0.051951 0.886985
O O10 0.500000 0.500000 0.500000
O O11 0.478994 0.691281 0.432890
O O12 0.492712 0.403733 0.405831
O O13 0.856380 0.432862 0.490349
O O14 0.160283 0.280465 0.501077
O O15 0.171341 0.081970 0.572518
#
# Coordination Sequence:
#
# PCOD9264091 Si02
#       7
#     8   8   8   8   8   8   8
#     4  10  21  35  55  81 111 147 195 236 282 346
#     4  10  20  38  61  84 115 154 192 239 293 346
#     4  10  19  35  55  80 111 147 189 236 282 336
#     4  11  23  39  57  83 118 152 193 246 292 341
#     4   9  21  36  56  84 115 153 194 229 284 357
#     4  10  21  36  59  88 113 147 196 238 285 357
#     4  10  20  37  59  84 116 149 187 238 292 343
#
# _framework density 19.270444000000001
#
# number of rings (size 3 to 8) (size 9 to 14) (size 15 to 20)
#    0.000    2.000    0.000    3.857    0.000    6.286 
#    0.000    5.000    0.000    0.000    0.000    0.000 
#    0.000    0.000    0.000    0.000    0.000    0.000 
#
# Total GULP energy -156373.425782 kJ/mol
# GULP energy per Si atom -5584.765206 kJ/mol
# Density = 1.922658 g / cm^3
# Si number density = 19.270444 Si / 1000 Ang^3
#
#
#
# Elastic Constant Matrix: (Units=GPa)
#
#
# Indices 1 2 3 4 5 6 
#
# 1 97.2885 27.0822 50.0525 0.0000 18.0760 0.0000
# 2 27.0822 55.0832 30.5920 0.0000 9.5355 0.0002
# 3 50.0525 30.5920 75.6138 0.0000 16.9036 0.0000
# 4 0.0000 0.0000 0.0000 21.3414 0.0000 -3.3397
# 5 18.0760 9.5355 16.9036 0.0000 34.6173 0.0000
# 6 0.0000 0.0002 0.0000 -3.3397 0.0000 26.3309
#
#
#
# Elastic Compliance Matrix: (Units=1/GPa)
#
#
# Indices 1 2 3 4 5 6 
#
# 1 0.016206 -0.002377 -0.009003 0.000000 -0.003411 0.000000
# 2 -0.002377 0.023894 -0.007745 0.000000 -0.001559 0.000000
# 3 -0.009003 -0.007745 0.023338 0.000000 -0.004561 0.000000
# 4 0.000000 0.000000 0.000000 0.047806 0.000000 0.006064
# 5 -0.003411 -0.001559 -0.004561 0.000000 0.033325 0.000000
# 6 0.000000 0.000000 0.000000 0.006064 0.000000 0.038747
#
#
# Mechanical properties :
#
#
# Convention : Reuss Voigt Hill
#
# Bulk Modulus (GPa) = 39.70268 49.27100 44.48684
# Shear Modulus (GPa) = 21.74246 24.47518 23.10882
#
# Velocity S-wave (km/s) = 3.36263 3.56770 3.46668
# Velocity P-wave (km/s) = 5.97696 6.52648 6.25775
#
# Compressibility (1/GPa) = 0.02518722
#
# Stress axis : x y z
#
# Youngs Moduli (GPa) = 61.70457 41.85070 42.84828
#
# Poissons Ratio (x) = 0.09949 0.38578
# Poissons Ratio (y) = 0.14668 0.33187
# Poissons Ratio (z) = 0.55555 0.32415
#
# Static dielectric constant tensor:
#      x y z
#    x 1.675170 0.000000 -0.022200 
#    y 0.000000 1.663100 0.000000 
#    z -0.022200 0.000000 1.674900 
# 
# From -- ./inp_files/276516.got.cif
#   From: 2010.05.17/outbox.cif.g08.bks.cpg/sg15_139_cif.got.tgz:276516.got - 2010.06.03 18:47:42.
