data_PCOD9264144
_publ_section_title
;
Structure prediction by ZEFSAII (Michael W. Deem and Ramdas Pophale) SiO2 
 PCOD9264144
Probable space group: C 2/C
;
_chemical_formula_sum "Si O2"
_cell_formula_units_Z 36
_cell_length_a 23.856173
_cell_length_b 14.605547
_cell_length_c 14.494833
_cell_angle_alpha 90.000000
_cell_angle_beta 21.272224
_cell_angle_gamma 90.000000
_cell_volume 1832.308187
_symmetry_space_group_name_H-M "C 2/C"
_symmetry_group_IT_number 15
_symmetry_cell_setting 'monoclinic'
loop_
_space_group_symop_operation_xyz
x,y,z
-x,y,1/2-z
-x,-y,-z
x,-y,1/2+z
1/2+x,1/2+y,z
1/2-x,1/2+y,1/2-z
1/2-x,1/2-y,-z
1/2+x,1/2-y,1/2+z
loop_
_atom_site_type_symbol
_atom_site_label
_atom_site_fract_x
_atom_site_fract_y
_atom_site_fract_z
Si Si1 0.636855 0.525186 0.416385
Si Si2 0.376756 0.919340 0.174357
Si Si3 0.409259 0.851885 0.798979
Si Si4 0.000000 0.180430 0.750000
Si Si5 0.794054 0.972145 0.895356
O O1 0.744151 0.459372 0.311718
O O2 0.596829 0.615764 0.534775
O O3 0.473383 0.475917 0.647859
O O4 0.713429 0.548928 0.201174
O O5 0.300013 0.905771 0.391989
O O6 0.473946 0.846193 0.966861
O O7 0.500000 0.000000 0.000000
O O8 0.500000 0.892790 0.750000
O O9 0.383971 0.748934 0.873509
O O10 0.274200 0.924331 0.987242
#
# Coordination Sequence:
#
# PCOD9264144 Si02
#       5
#     8   8   8   4   8
#     4  11  19  34  53  87 108 137 189 225 264 324
#     4  10  19  35  56  79 106 147 184 221 262 328
#     4   9  19  36  53  78 111 142 175 222 274 315
#     4  10  20  34  54  82 116 140 176 228 274 324
#     4  10  20  33  59  80 107 145 183 228 261 323
#
# _framework density 19.647349999999999
#
# number of rings (size 3 to 8) (size 9 to 14) (size 15 to 20)
#    0.667    1.333    4.444    0.000    0.000    0.889 
#    0.000    1.111    0.000    0.000   34.667    0.000 
#    0.000    0.000    0.000    0.000    0.000    0.000 
#
# Total GULP energy -100274.162046 kJ/mol
# GULP energy per Si atom -5570.786780 kJ/mol
# Density = 1.960263 g / cm^3
# Si number density = 19.647350 Si / 1000 Ang^3
#
#
#
# Elastic Constant Matrix: (Units=GPa)
#
#
# Indices 1 2 3 4 5 6 
#
# 1 74.7714 12.0774 38.4711 0.0000 39.6608 0.0000
# 2 12.0774 46.3791 6.6368 0.0000 17.4411 0.0000
# 3 38.4711 6.6368 81.6107 0.0000 37.4481 -0.0001
# 4 0.0000 0.0000 0.0000 11.9375 0.0000 11.1446
# 5 39.6608 17.4411 37.4481 0.0000 60.5844 0.0000
# 6 0.0000 0.0000 -0.0001 11.1446 0.0000 28.4924
#
#
#
# Elastic Compliance Matrix: (Units=1/GPa)
#
#
# Indices 1 2 3 4 5 6 
#
# 1 0.022022 -0.000884 -0.005320 0.000000 -0.010873 0.000000
# 2 -0.000884 0.024388 0.001940 0.000000 -0.007641 0.000000
# 3 -0.005320 0.001940 0.018512 0.000000 -0.008519 0.000000
# 4 0.000000 0.000000 0.000000 0.131955 0.000000 -0.051613
# 5 -0.010873 -0.007641 -0.008519 0.000000 0.031089 0.000000
# 6 0.000000 0.000000 0.000000 -0.051613 0.000000 0.055285
#
#
# Mechanical properties :
#
#
# Convention : Reuss Voigt Hill
#
# Bulk Modulus (GPa) = 17.73279 35.23687 26.48483
# Shear Modulus (GPa) = 16.09910 29.90790 23.00350
#
# Velocity S-wave (km/s) = 2.86563 3.90582 3.42544
# Velocity P-wave (km/s) = 4.47149 6.18984 5.39946
#
# Compressibility (1/GPa) = 0.05639272
#
# Stress axis : x y z
#
# Youngs Moduli (GPa) = 45.41015 41.00458 54.01889
#
# Poissons Ratio (x) = 0.03626 0.28736
# Poissons Ratio (y) = 0.04016 -0.10478
# Poissons Ratio (z) = 0.24156 -0.07953
#
# Static dielectric constant tensor:
#      x y z
#    x 1.761700 0.000000 0.000340 
#    y 0.000000 1.665790 0.000000 
#    z 0.000340 0.000000 1.728130 
# 
# From -- ./inp_files/86470.got.cif
#   From: 2010.05.17/outbox.cif.g08.bks.cpg/sg15_44_cif.got.tgz:86470.got - 2010.06.03 18:47:42.
