data_PCOD9264378
_publ_section_title
;
Structure prediction by ZEFSAII (Michael W. Deem and Ramdas Pophale) SiO2 
 PCOD9264378
Probable space group: C 2/C
;
_chemical_formula_sum "Si O2"
_cell_formula_units_Z 36
_cell_length_a 15.654764
_cell_length_b 20.314792
_cell_length_c 5.315693
_cell_angle_alpha 90.000000
_cell_angle_beta 70.787953
_cell_angle_gamma 90.000000
_cell_volume 1596.364634
_symmetry_space_group_name_H-M "C 2/C"
_symmetry_group_IT_number 15
_symmetry_cell_setting 'monoclinic'
loop_
_space_group_symop_operation_xyz
x,y,z
-x,y,1/2-z
-x,-y,-z
x,-y,1/2+z
1/2+x,1/2+y,z
1/2-x,1/2+y,1/2-z
1/2-x,1/2-y,-z
1/2+x,1/2-y,1/2+z
loop_
_atom_site_type_symbol
_atom_site_label
_atom_site_fract_x
_atom_site_fract_y
_atom_site_fract_z
Si Si1 0.600350 0.041456 0.663158
Si Si2 0.322941 0.748701 0.146881
Si Si3 0.052177 0.894506 0.447436
Si Si4 0.000000 0.765558 0.250000
Si Si5 0.730896 0.367733 0.511249
O O1 0.500000 0.073894 0.750000
O O2 0.688768 0.083142 0.505142
O O3 0.603462 0.984522 0.447190
O O4 0.330136 0.671645 0.223606
O O5 0.286782 0.804181 0.365816
O O6 0.250000 0.750000 0.000000
O O7 0.419355 0.772380 0.954054
O O8 0.159344 0.902523 0.392505
O O9 0.000000 0.914751 0.750000
O O10 0.043455 0.815448 0.411608
O O11 0.000000 0.921865 0.250000
#
# Coordination Sequence:
#
# PCOD9264378 Si02
#       5
#     8   8   8   4   8
#     4  10  25  48  72  98 131 175 231 285 336 388
#     4  11  22  36  58 100 135 173 222 268 340 417
#     4  10  19  35  58  86 125 171 205 255 324 389
#     4  10  20  34  54  84 140 170 202 254 330 392
#     4  11  23  39  66  94 134 177 225 276 337 406
#
# _framework density 22.551238999999999
#
# number of rings (size 3 to 8) (size 9 to 14) (size 15 to 20)
#    0.667    0.889    4.444    0.000    3.111    1.778 
#    2.000    0.000    0.000    4.000    0.000    0.000 
#    0.000    0.000    0.000    0.000    0.000    0.000 
#
# Total GULP energy -100217.502263 kJ/mol
# GULP energy per Si atom -5567.639015 kJ/mol
# Density = 2.249991 g / cm^3
# Si number density = 22.551239 Si / 1000 Ang^3
#
#
#
# Elastic Constant Matrix: (Units=GPa)
#
#
# Indices 1 2 3 4 5 6 
#
# 1 165.6209 34.3284 24.2031 0.0000 -21.5990 0.0000
# 2 34.3284 28.4960 0.0252 0.0000 -2.7663 0.0000
# 3 24.2031 0.0252 80.1149 0.0000 -7.2882 0.0000
# 4 0.0000 0.0000 0.0000 -1.0330 0.0000 -3.7773
# 5 -21.5990 -2.7663 -7.2882 0.0000 45.4333 0.0000
# 6 0.0000 0.0000 0.0000 -3.7773 0.0000 28.8802
#
#
#
# Elastic Compliance Matrix: (Units=1/GPa)
#
#
# Indices 1 2 3 4 5 6 
#
# 1 0.008995 -0.010519 -0.002419 0.000000 0.003248 0.000000
# 2 -0.010519 0.047604 0.003016 0.000000 -0.001618 0.000000
# 3 -0.002419 0.003016 0.013318 0.000000 0.001170 0.000000
# 4 0.000000 0.000000 0.000000 -0.654872 0.000000 -0.085652
# 5 0.003248 -0.001618 0.001170 0.000000 0.023643 0.000000
# 6 0.000000 0.000000 0.000000 -0.085652 0.000000 0.023423
#
#
# Mechanical properties :
#
#
# Convention : Reuss Voigt Hill
#
# Bulk Modulus (GPa) = 19.97041 43.48280 31.72660
# Shear Modulus (GPa) = -9.97303 29.03444 9.53071
#
# Velocity S-wave (km/s) = -2.10523 3.59205 2.05801
# Velocity P-wave (km/s) = 1.72206 6.04379 4.44370
#
# Compressibility (1/GPa) = 0.05007408
#
# Stress axis : x y z
#
# Youngs Moduli (GPa) = 111.17122 21.00643 75.08477
#
# Poissons Ratio (x) = 0.22096 0.18161
# Poissons Ratio (y) = 1.16938 -0.22642
# Poissons Ratio (z) = 0.26889 -0.06335
#
# Static dielectric constant tensor:
#      x y z
#    x 1.857180 0.000000 -0.039370 
#    y 0.000000 1.825500 0.000000 
#    z -0.039370 0.000000 2.036350 
# 
# From -- ./inp_files/7806.got.cif
#   From: 2010.05.17/outbox.cif.g08.bks.cpg/sg15_4_cif.got.tgz:7806.got - 2010.06.03 18:47:42.
