data_PCOD9264260
_publ_section_title
;
Structure prediction by ZEFSAII (Michael W. Deem and Ramdas Pophale) SiO2 
 PCOD9264260
Probable space group: C 2/C
;
_chemical_formula_sum "Si O2"
_cell_formula_units_Z 32
_cell_length_a 4.872102
_cell_length_b 12.917407
_cell_length_c 20.144920
_cell_angle_alpha 90.000000
_cell_angle_beta 79.400710
_cell_angle_gamma 90.000000
_cell_volume 1246.187020
_symmetry_space_group_name_H-M "C 2/C"
_symmetry_group_IT_number 15
_symmetry_cell_setting 'monoclinic'
loop_
_space_group_symop_operation_xyz
x,y,z
-x,y,1/2-z
-x,-y,-z
x,-y,1/2+z
1/2+x,1/2+y,z
1/2-x,1/2+y,1/2-z
1/2-x,1/2-y,-z
1/2+x,1/2-y,1/2+z
loop_
_atom_site_type_symbol
_atom_site_label
_atom_site_fract_x
_atom_site_fract_y
_atom_site_fract_z
Si Si1 0.807035 0.663887 0.033984
Si Si2 0.410594 0.415415 0.472173
Si Si3 0.015914 0.219954 0.321506
Si Si4 0.980181 0.860296 0.178221
O O1 0.668030 0.546153 0.012847
O O2 0.635243 0.665946 0.110833
O O3 0.619471 0.700799 0.973264
O O4 0.129050 0.630475 0.016508
O O5 0.416216 0.416633 0.391853
O O6 0.000000 0.167298 0.250000
O O7 0.163744 0.325297 0.180348
O O8 0.327707 0.256429 0.324749
O O9 0.000000 0.910780 0.250000
#
# Coordination Sequence:
#
# PCOD9264260 Si02
#       4
#     8   8   8   8
#     4  12  21  38  64  87 120 157 210 257 307 362
#     4  12  24  38  58  92 125 162 202 253 312 374
#     4  10  20  34  59  90 115 148 203 261 306 352
#     4  10  19  35  57  84 116 154 201 250 304 374
#
# _framework density 25.678329999999999
#
# number of rings (size 3 to 8) (size 9 to 14) (size 15 to 20)
#    0.000    1.000    5.000    3.000    0.000    0.000 
#    0.000    1.250    0.000    3.000    0.000    0.000 
#    0.000    0.000    0.000    0.000    0.000    0.000 
#
# Total GULP energy -89363.413668 kJ/mol
# GULP energy per Si atom -5585.213354 kJ/mol
# Density = 2.561989 g / cm^3
# Si number density = 25.678330 Si / 1000 Ang^3
#
#
#
# Elastic Constant Matrix: (Units=GPa)
#
#
# Indices 1 2 3 4 5 6 
#
# 1 115.1163 25.8335 62.6536 0.0000 -5.4527 0.0000
# 2 25.8335 173.7274 60.9861 0.0000 13.0080 0.0000
# 3 62.6536 60.9861 255.2562 0.0000 7.9673 0.0000
# 4 0.0000 0.0000 0.0000 21.0582 0.0000 1.4002
# 5 -5.4527 13.0080 7.9673 0.0000 46.3469 0.0000
# 6 0.0000 0.0000 0.0000 1.4002 0.0000 38.2846
#
#
#
# Elastic Compliance Matrix: (Units=1/GPa)
#
#
# Indices 1 2 3 4 5 6 
#
# 1 0.010254 -0.000829 -0.002376 0.000000 0.001848 0.000000
# 2 -0.000829 0.006458 -0.001287 0.000000 -0.001689 0.000000
# 3 -0.002376 -0.001287 0.004832 0.000000 -0.000749 0.000000
# 4 0.000000 0.000000 0.000000 0.047603 0.000000 -0.001741
# 5 0.001848 -0.001689 -0.000749 0.000000 0.022397 0.000000
# 6 0.000000 0.000000 0.000000 -0.001741 0.000000 0.026184
#
#
# Mechanical properties :
#
#
# Convention : Reuss Voigt Hill
#
# Bulk Modulus (GPa) = 79.62370 93.67180 86.64775
# Shear Modulus (GPa) = 38.19797 47.44640 42.82218
#
# Velocity S-wave (km/s) = 3.86107 4.30318 4.08810
# Velocity P-wave (km/s) = 7.13811 7.82610 7.49001
#
# Compressibility (1/GPa) = 0.01255907
#
# Stress axis : x y z
#
# Youngs Moduli (GPa) = 97.52476 154.85819 206.96465
#
# Poissons Ratio (x) = 0.12835 0.49185
# Poissons Ratio (y) = 0.08083 0.26630
# Poissons Ratio (z) = 0.23177 0.19925
#
# Static dielectric constant tensor:
#      x y z
#    x 1.977380 0.000000 0.046160 
#    y 0.000000 2.343210 0.000000 
#    z 0.046160 0.000000 1.909760 
# 
# From -- ./inp_files/260047.got.cif
#   From: 2010.05.17/outbox.cif.g08.bks.cpg/sg15_131_cif.got.tgz:260047.got - 2010.06.03 18:47:42.
