data_PCOD9264641
_publ_section_title
;
Structure prediction by ZEFSAII (Michael W. Deem and Ramdas Pophale) SiO2 
 PCOD9264641
Probable space group: C 2/C
;
_chemical_formula_sum "Si O2"
_cell_formula_units_Z 44
_cell_length_a 5.401500
_cell_length_b 25.800888
_cell_length_c 15.665832
_cell_angle_alpha 90.000000
_cell_angle_beta 80.144024
_cell_angle_gamma 90.000000
_cell_volume 2151.022913
_symmetry_space_group_name_H-M "C 2/C"
_symmetry_group_IT_number 15
_symmetry_cell_setting 'monoclinic'
loop_
_space_group_symop_operation_xyz
x,y,z
-x,y,1/2-z
-x,-y,-z
x,-y,1/2+z
1/2+x,1/2+y,z
1/2-x,1/2+y,1/2-z
1/2-x,1/2-y,-z
1/2+x,1/2-y,1/2+z
loop_
_atom_site_type_symbol
_atom_site_label
_atom_site_fract_x
_atom_site_fract_y
_atom_site_fract_z
Si Si1 0.023202 0.784904 0.050142
Si Si2 0.500000 0.375462 0.750000
Si Si3 0.184403 0.684202 0.407653
Si Si4 0.099998 0.485702 0.400172
Si Si5 0.268481 0.113389 0.525429
Si Si6 0.868873 0.044498 0.125695
O O1 0.899299 0.741722 0.117058
O O2 0.250000 0.750000 0.000000
O O3 0.117253 0.839797 0.077645
O O4 0.851952 0.802277 0.980493
O O5 0.665393 0.342347 0.676235
O O6 0.663271 0.412429 0.800486
O O7 0.975200 0.643701 0.455128
O O8 0.130836 0.424224 0.406821
O O9 0.368124 0.514447 0.373893
O O10 0.000000 0.500000 0.500000
O O11 0.870944 0.506789 0.357502
O O12 0.122977 0.075826 0.465919
#
# Coordination Sequence:
#
# PCOD9264641 Si02
#       6
#     8   4   8   8   8   8
#     4   9  19  37  55  89 119 153 210 261 299 364
#     4  12  22  38  60  90 130 164 192 260 344 372
#     4  10  21  35  58  91 124 153 204 259 313 378
#     4  10  21  35  56  88 123 153 206 248 298 363
#     4  10  19  35  61  85 121 157 204 259 307 351
#     4  11  23  35  54  93 123 160 197 249 307 383
#
# _framework density 20.455383999999999
#
# number of rings (size 3 to 8) (size 9 to 14) (size 15 to 20)
#    0.000    1.818    1.818    4.364    2.545    2.909 
#    0.000    0.000    0.000    0.000   14.182    0.000 
#    0.000    0.000    0.000    0.000    0.000    0.000 
#
# Total GULP energy -122606.074252 kJ/mol
# GULP energy per Si atom -5573.003375 kJ/mol
# Density = 2.040883 g / cm^3
# Si number density = 20.455384 Si / 1000 Ang^3
#
#
#
# Elastic Constant Matrix: (Units=GPa)
#
#
# Indices 1 2 3 4 5 6 
#
# 1 107.4649 67.1186 21.1931 0.0000 -9.1961 0.0000
# 2 67.1186 193.6091 39.2398 0.0000 -10.9897 0.0000
# 3 21.1931 39.2398 49.9227 0.0000 -10.5166 0.0000
# 4 0.0000 0.0000 0.0000 22.0407 0.0000 -0.3233
# 5 -9.1961 -10.9897 -10.5166 0.0000 16.8493 0.0000
# 6 0.0000 0.0000 0.0000 -0.3233 0.0000 41.3671
#
#
#
# Elastic Compliance Matrix: (Units=1/GPa)
#
#
# Indices 1 2 3 4 5 6 
#
# 1 0.012227 -0.003736 -0.001568 0.000000 0.003258 0.000000
# 2 -0.003736 0.007305 -0.004124 0.000000 0.000152 0.000000
# 3 -0.001568 -0.004124 0.026702 0.000000 0.013121 0.000000
# 4 0.000000 0.000000 0.000000 0.045376 0.000000 0.000355
# 5 0.003258 0.000152 0.013121 0.000000 0.069416 0.000000
# 6 0.000000 0.000000 0.000000 0.000355 0.000000 0.024177
#
#
# Mechanical properties :
#
#
# Convention : Reuss Voigt Hill
#
# Bulk Modulus (GPa) = 36.52495 67.34443 51.93469
# Shear Modulus (GPa) = 23.45414 30.94775 27.20095
#
# Velocity S-wave (km/s) = 3.38982 3.89387 3.65056
# Velocity P-wave (km/s) = 5.76332 7.29454 6.57367
#
# Compressibility (1/GPa) = 0.02737855
#
# Stress axis : x y z
#
# Youngs Moduli (GPa) = 81.78843 136.90104 37.45095
#
# Poissons Ratio (x) = 0.51146 0.05871
# Poissons Ratio (y) = 0.30556 0.15443
# Poissons Ratio (z) = 0.12821 0.56452
#
# Static dielectric constant tensor:
#      x y z
#    x 1.917200 0.000000 -0.033590 
#    y 0.000000 1.827370 0.000000 
#    z -0.033590 0.000000 1.768540 
# 
# From -- ./inp_files/129778.got.cif
#   From: 2010.05.17/outbox.cif.g08.bks.cpg/sg15_65_cif.got.tgz:129778.got - 2010.06.03 18:47:42.
