data_PCOD9264987
_publ_section_title
;
Structure prediction by ZEFSAII (Michael W. Deem and Ramdas Pophale) SiO2 
 PCOD9264987
Probable space group: C 2/C
;
_chemical_formula_sum "Si O2"
_cell_formula_units_Z 56
_cell_length_a 10.717121
_cell_length_b 28.538857
_cell_length_c 8.916289
_cell_angle_alpha 90.000000
_cell_angle_beta 98.231450
_cell_angle_gamma 90.000000
_cell_volume 2698.991069
_symmetry_space_group_name_H-M "C 2/C"
_symmetry_group_IT_number 15
_symmetry_cell_setting 'monoclinic'
loop_
_space_group_symop_operation_xyz
x,y,z
-x,y,1/2-z
-x,-y,-z
x,-y,1/2+z
1/2+x,1/2+y,z
1/2-x,1/2+y,1/2-z
1/2-x,1/2-y,-z
1/2+x,1/2-y,1/2+z
loop_
_atom_site_type_symbol
_atom_site_label
_atom_site_fract_x
_atom_site_fract_y
_atom_site_fract_z
Si Si1 0.732073 0.313353 0.343820
Si Si2 0.928440 0.102181 0.535807
Si Si3 0.773077 0.884073 0.398678
Si Si4 0.365617 0.791162 0.656733
Si Si5 0.738332 0.623447 0.253474
Si Si6 0.255358 0.036009 0.829343
Si Si7 0.367137 0.038765 0.160291
O O1 0.642748 0.353471 0.400936
O O2 0.760674 0.334859 0.186047
O O3 0.662452 0.263721 0.328287
O O4 0.847445 0.305350 0.479022
O O5 0.887312 0.106447 0.354829
O O6 0.868280 0.056222 0.605338
O O7 0.076236 0.106636 0.584189
O O8 0.746166 0.886330 0.569290
O O9 0.709834 0.924192 0.286098
O O10 0.500000 0.802231 0.750000
O O11 0.261438 0.822052 0.725240
O O12 0.844571 0.593619 0.184723
O O13 0.258197 0.988602 0.734544
O O14 0.351971 0.030013 0.982492
O O15 0.500000 0.023980 0.250000
#
# Coordination Sequence:
#
# PCOD9264987 Si02
#       7
#     8   8   8   8   8   8   8
#     4   9  19  34  58  82 107 145 188 220 272 331
#     4   9  19  38  58  80 109 145 177 223 276 325
#     4  11  20  37  56  81 114 142 176 228 273 320
#     4  10  19  36  56  80 111 148 185 227 268 319
#     4  10  22  35  55  83 111 142 185 220 268 329
#     4  10  21  36  58  81 102 137 187 217 263 330
#     4  11  22  40  57  77 109 145 178 224 274 323
#
# _framework density 20.748494000000001
#
# number of rings (size 3 to 8) (size 9 to 14) (size 15 to 20)
#    0.000    2.000    0.000    5.571    0.000    0.571 
#    0.000   15.000    0.000    0.000    0.000    0.000 
#    0.000    0.000    0.000    0.000    0.000    0.000 
#
# Total GULP energy -156159.992722 kJ/mol
# GULP energy per Si atom -5577.142597 kJ/mol
# Density = 2.070127 g / cm^3
# Si number density = 20.748494 Si / 1000 Ang^3
#
#
#
# Elastic Constant Matrix: (Units=GPa)
#
#
# Indices 1 2 3 4 5 6 
#
# 1 27.9210 9.4851 16.0678 0.0000 19.9927 0.0000
# 2 9.4851 84.5923 22.9448 0.0000 5.0241 0.0000
# 3 16.0678 22.9448 181.9376 0.0000 15.7450 0.0000
# 4 0.0000 0.0000 0.0000 33.0989 0.0000 0.4711
# 5 19.9927 5.0241 15.7450 0.0000 30.9819 0.0000
# 6 0.0000 0.0000 0.0000 0.4711 0.0000 7.8977
#
#
#
# Elastic Compliance Matrix: (Units=1/GPa)
#
#
# Indices 1 2 3 4 5 6 
#
# 1 0.069250 -0.004723 -0.001798 0.000000 -0.043007 0.000000
# 2 -0.004723 0.012609 -0.001318 0.000000 0.001673 0.000000
# 3 -0.001798 -0.001318 0.005965 0.000000 -0.001657 0.000000
# 4 0.000000 0.000000 0.000000 0.030238 0.000000 -0.001804
# 5 -0.043007 0.001673 -0.001657 0.000000 0.060600 0.000000
# 6 0.000000 0.000000 0.000000 -0.001804 0.000000 0.126727
#
#
# Mechanical properties :
#
#
# Convention : Reuss Voigt Hill
#
# Bulk Modulus (GPa) = 13.86084 43.49404 28.67744
# Shear Modulus (GPa) = 14.48790 30.79258 22.64024
#
# Velocity S-wave (km/s) = 2.64533 3.85656 3.30688
# Velocity P-wave (km/s) = 4.00316 6.39052 5.33217
#
# Compressibility (1/GPa) = 0.07214570
#
# Stress axis : x y z
#
# Youngs Moduli (GPa) = 14.44053 79.30802 167.64977
#
# Poissons Ratio (x) = 0.37455 0.30148
# Poissons Ratio (y) = 0.06820 0.22093
# Poissons Ratio (z) = 0.02597 0.10451
#
# Static dielectric constant tensor:
#      x y z
#    x 1.745030 0.000000 0.010240 
#    y 0.000000 1.747250 0.000000 
#    z 0.010240 0.000000 1.779690 
# 
# From -- ./inp_files/35303.got.cif
#   From: 2010.05.17/outbox.cif.g08.bks.cpg/sg15_18_cif.got.tgz:35303.got - 2010.06.03 18:47:42.
