data_PCOD9264675
_publ_section_title
;
Structure prediction by ZEFSAII (Michael W. Deem and Ramdas Pophale) SiO2 
 PCOD9264675
Probable space group: C 2/C
;
_chemical_formula_sum "Si O2"
_cell_formula_units_Z 64
_cell_length_a 19.905534
_cell_length_b 14.038008
_cell_length_c 16.781799
_cell_angle_alpha 90.000000
_cell_angle_beta 36.612089
_cell_angle_gamma 90.000000
_cell_volume 2796.734768
_symmetry_space_group_name_H-M "C 2/C"
_symmetry_group_IT_number 15
_symmetry_cell_setting 'monoclinic'
loop_
_space_group_symop_operation_xyz
x,y,z
-x,y,1/2-z
-x,-y,-z
x,-y,1/2+z
1/2+x,1/2+y,z
1/2-x,1/2+y,1/2-z
1/2-x,1/2-y,-z
1/2+x,1/2-y,1/2+z
loop_
_atom_site_type_symbol
_atom_site_label
_atom_site_fract_x
_atom_site_fract_y
_atom_site_fract_z
Si Si1 0.544918 0.884226 0.877478
Si Si2 0.035173 0.694864 0.631905
Si Si3 0.862784 0.355685 0.925721
Si Si4 0.135198 0.410754 0.313554
Si Si5 0.761788 0.442149 0.512514
Si Si6 0.151413 0.213566 0.707163
Si Si7 0.862683 0.878964 0.029579
Si Si8 0.548890 0.511134 0.793703
O O1 0.477343 0.888384 0.858396
O O2 0.620146 0.790389 0.802889
O O3 0.621039 0.976304 0.816713
O O4 0.446875 0.884557 0.035976
O O5 0.133803 0.618612 0.554535
O O6 0.079126 0.776848 0.532422
O O7 0.000000 0.739855 0.750000
O O8 0.927034 0.641549 0.700268
O O9 0.870598 0.269464 0.855822
O O10 0.801676 0.450755 0.951332
O O11 0.779848 0.317919 0.074527
O O12 0.266874 0.386474 0.187902
O O13 0.704564 0.394664 0.490164
O O14 0.667337 0.455652 0.670988
O O15 0.075479 0.120207 0.788622
O O16 0.959835 0.959033 0.935207
O O17 0.500000 0.510811 0.750000
#
# Coordination Sequence:
#
# PCOD9264675 Si02
#       8
#     8   8   8   8   8   8   8   8
#     4  11  23  42  61  87 127 161 207 257 302 375
#     4  12  23  38  64  90 120 161 212 262 303 355
#     4  10  20  37  65  97 125 156 195 256 311 380
#     4  11  26  41  60  89 118 172 213 249 311 361
#     4  10  19  35  61  91 122 156 196 259 306 360
#     4  10  21  35  66  98 124 156 200 243 327 372
#     4  11  23  38  61  88 129 156 208 258 308 360
#     4   9  19  35  57  95 127 153 191 254 314 370
#
# _framework density 22.88383
#
# number of rings (size 3 to 8) (size 9 to 14) (size 15 to 20)
#    0.000    1.500    2.500    3.375    1.750    4.000 
#    0.000    1.250    0.000    2.250    0.000    0.000 
#    0.000    0.000    0.000    0.000    0.000    0.000 
#
# Total GULP energy -178984.384637 kJ/mol
# GULP energy per Si atom -5593.262020 kJ/mol
# Density = 2.283175 g / cm^3
# Si number density = 22.883830 Si / 1000 Ang^3
#
#
#
# Elastic Constant Matrix: (Units=GPa)
#
#
# Indices 1 2 3 4 5 6 
#
# 1 24.9275 8.8397 3.2900 0.0000 -6.9013 0.0000
# 2 8.8397 136.2929 69.3634 0.0000 -14.2428 0.0000
# 3 3.2900 69.3634 153.5063 0.0000 -15.8039 0.0000
# 4 0.0000 0.0000 0.0000 29.4428 0.0000 -5.3384
# 5 -6.9013 -14.2428 -15.8039 0.0000 34.0709 0.0000
# 6 0.0000 0.0000 0.0000 -5.3384 0.0000 16.9164
#
#
#
# Elastic Compliance Matrix: (Units=1/GPa)
#
#
# Indices 1 2 3 4 5 6 
#
# 1 0.043120 -0.002467 0.001033 0.000000 0.008182 0.000000
# 2 -0.002467 0.009813 -0.004211 0.000000 0.001649 0.000000
# 3 0.001033 -0.004211 0.008649 0.000000 0.002460 0.000000
# 4 0.000000 0.000000 0.000000 0.036026 0.000000 0.011369
# 5 0.008182 0.001649 0.002460 0.000000 0.032838 0.000000
# 6 0.000000 0.000000 0.000000 0.011369 0.000000 0.062702
#
#
# Mechanical properties :
#
#
# Convention : Reuss Voigt Hill
#
# Bulk Modulus (GPa) = 19.88463 53.07922 36.48192
# Shear Modulus (GPa) = 22.60377 31.63492 27.11935
#
# Velocity S-wave (km/s) = 3.14628 3.72212 3.44625
# Velocity P-wave (km/s) = 4.68049 6.45892 5.64024
#
# Compressibility (1/GPa) = 0.05029010
#
# Stress axis : x y z
#
# Youngs Moduli (GPa) = 23.19099 101.90803 115.62695
#
# Poissons Ratio (x) = 0.25145 -0.11946
# Poissons Ratio (y) = 0.05722 0.48695
# Poissons Ratio (z) = -0.02396 0.42917
#
# Static dielectric constant tensor:
#      x y z
#    x 1.856270 0.000000 0.043600 
#    y 0.000000 1.805310 0.000000 
#    z 0.043600 0.000000 1.928880 
# 
# From -- ./inp_files/219724.got.cif
#   From: 2010.05.17/outbox.cif.g08.bks.cpg/sg15_110_cif.got.tgz:219724.got - 2010.06.03 18:47:42.
