data_PCOD9264522
_publ_section_title
;
Structure prediction by ZEFSAII (Michael W. Deem and Ramdas Pophale) SiO2 
 PCOD9264522
Probable space group: C 2/C
;
_chemical_formula_sum "Si O2"
_cell_formula_units_Z 48
_cell_length_a 17.059079
_cell_length_b 7.738318
_cell_length_c 18.237883
_cell_angle_alpha 90.000000
_cell_angle_beta 119.940626
_cell_angle_gamma 90.000000
_cell_volume 2086.251847
_symmetry_space_group_name_H-M "C 2/C"
_symmetry_group_IT_number 15
_symmetry_cell_setting 'monoclinic'
loop_
_space_group_symop_operation_xyz
x,y,z
-x,y,1/2-z
-x,-y,-z
x,-y,1/2+z
1/2+x,1/2+y,z
1/2-x,1/2+y,1/2-z
1/2-x,1/2-y,-z
1/2+x,1/2-y,1/2+z
loop_
_atom_site_type_symbol
_atom_site_label
_atom_site_fract_x
_atom_site_fract_y
_atom_site_fract_z
Si Si1 0.896360 0.445654 0.210060
Si Si2 0.661627 0.387293 0.736876
Si Si3 0.872281 0.350149 0.553091
Si Si4 0.718867 0.174885 0.636565
Si Si5 0.484215 0.422900 0.413201
Si Si6 0.563590 0.933659 0.618811
O O1 0.839756 0.282978 0.213084
O O2 0.856894 0.552391 0.122804
O O3 0.914272 0.577006 0.284751
O O4 0.000000 0.377866 0.250000
O O5 0.704583 0.545302 0.800750
O O6 0.563034 0.443976 0.662885
O O7 0.716012 0.344342 0.686530
O O8 0.793249 0.324329 0.456750
O O9 0.927216 0.167858 0.581107
O O10 0.956552 0.467088 0.560190
O O11 0.625085 0.082915 0.617231
O O12 0.500000 0.500000 0.500000
O O13 0.418606 0.259263 0.399523
#
# Coordination Sequence:
#
# PCOD9264522 Si02
#       6
#     8   8   8   8   8   8
#     4   9  19  39  58  87 119 167 206 250 305 366
#     4  11  22  36  60  94 124 162 204 255 315 363
#     4   9  19  35  63  84 126 162 207 252 309 361
#     4  11  20  36  59  89 126 158 205 259 304 368
#     4  10  19  35  59  91 117 152 216 253 298 359
#     4   8  18  34  60  83 118 159 207 246 302 353
#
# _framework density 23.007770000000001
#
# number of rings (size 3 to 8) (size 9 to 14) (size 15 to 20)
#    1.000    1.333    1.667    1.500    0.000    2.000 
#    3.000    0.000    0.000    9.000    0.000    0.000 
#    0.000    0.000    0.000    0.000    0.000    0.000 
#
# Total GULP energy -133758.613398 kJ/mol
# GULP energy per Si atom -5573.275558 kJ/mol
# Density = 2.295540 g / cm^3
# Si number density = 23.007770 Si / 1000 Ang^3
#
#
#
# Elastic Constant Matrix: (Units=GPa)
#
#
# Indices 1 2 3 4 5 6 
#
# 1 35.1033 11.1357 39.9927 0.0000 -9.4833 0.0000
# 2 11.1357 91.3252 57.4422 0.0000 -0.5063 0.0000
# 3 39.9927 57.4422 180.9241 0.0000 -12.3437 0.0000
# 4 0.0000 0.0000 0.0000 38.9493 0.0000 2.7355
# 5 -9.4833 -0.5063 -12.3437 0.0000 28.2326 0.0000
# 6 0.0000 0.0000 0.0000 2.7355 0.0000 35.5058
#
#
#
# Elastic Compliance Matrix: (Units=1/GPa)
#
#
# Indices 1 2 3 4 5 6 
#
# 1 0.040667 0.000403 -0.008436 0.000000 0.009979 0.000000
# 2 0.000403 0.013766 -0.004570 0.000000 -0.001616 0.000000
# 3 -0.008436 -0.004570 0.008910 0.000000 0.000980 0.000000
# 4 0.000000 0.000000 0.000000 0.025814 0.000000 -0.001989
# 5 0.009979 -0.001616 0.000980 0.000000 0.039171 0.000000
# 6 0.000000 0.000000 0.000000 -0.001989 0.000000 0.028318
#
#
# Mechanical properties :
#
#
# Convention : Reuss Voigt Hill
#
# Bulk Modulus (GPa) = 26.22190 58.27706 42.24948
# Shear Modulus (GPa) = 25.69839 33.78969 29.74404
#
# Velocity S-wave (km/s) = 3.34570 3.83642 3.59943
# Velocity P-wave (km/s) = 5.13290 6.70883 5.97307
#
# Compressibility (1/GPa) = 0.03813607
#
# Stress axis : x y z
#
# Youngs Moduli (GPa) = 24.59006 72.64142 112.23569
#
# Poissons Ratio (x) = -0.02928 0.94687
# Poissons Ratio (y) = -0.00991 0.51292
# Poissons Ratio (z) = 0.20745 0.33197
#
# Static dielectric constant tensor:
#      x y z
#    x 1.987600 0.000000 -0.004250 
#    y 0.000000 1.886520 0.000000 
#    z -0.004250 0.000000 1.931640 
# 
# From -- ./inp_files/214094.got.cif
#   From: 2010.05.17/outbox.cif.g08.bks.cpg/sg15_108_cif.got.tgz:214094.got - 2010.06.03 18:47:42.
