data_PCOD9264387
_publ_section_title
;
Structure prediction by ZEFSAII (Michael W. Deem and Ramdas Pophale) SiO2 
 PCOD9264387
Probable space group: C 2/C
;
_chemical_formula_sum "Si O2"
_cell_formula_units_Z 56
_cell_length_a 15.222176
_cell_length_b 20.964215
_cell_length_c 11.095612
_cell_angle_alpha 90.000000
_cell_angle_beta 122.153627
_cell_angle_gamma 90.000000
_cell_volume 2997.762846
_symmetry_space_group_name_H-M "C 2/C"
_symmetry_group_IT_number 15
_symmetry_cell_setting 'monoclinic'
loop_
_space_group_symop_operation_xyz
x,y,z
-x,y,1/2-z
-x,-y,-z
x,-y,1/2+z
1/2+x,1/2+y,z
1/2-x,1/2+y,1/2-z
1/2-x,1/2-y,-z
1/2+x,1/2-y,1/2+z
loop_
_atom_site_type_symbol
_atom_site_label
_atom_site_fract_x
_atom_site_fract_y
_atom_site_fract_z
Si Si1 0.886488 0.276136 0.229322
Si Si2 0.353237 0.632639 0.291312
Si Si3 0.500000 0.083335 0.250000
Si Si4 0.660799 0.121246 0.986723
Si Si5 0.436836 0.881551 0.449283
Si Si6 0.604820 0.531515 0.018880
Si Si7 0.330590 0.982704 0.219344
Si Si8 0.500000 0.460812 0.750000
O O1 0.864785 0.206049 0.264056
O O2 0.822860 0.312690 0.076862
O O3 0.882172 0.322878 0.341637
O O4 0.000000 0.273744 0.250000
O O5 0.374863 0.606659 0.442262
O O6 0.438033 0.588564 0.287753
O O7 0.243403 0.614255 0.152894
O O8 0.546504 0.122400 0.396184
O O9 0.408621 0.039306 0.239307
O O10 0.548134 0.117195 0.964149
O O11 0.666549 0.066783 0.890215
O O12 0.376456 0.945944 0.368411
O O13 0.710638 0.501158 0.146729
O O14 0.500000 0.500000 0.000000
O O15 0.586249 0.507273 0.870477
#
# Coordination Sequence:
#
# PCOD9264387 Si02
#       8
#     8   8   4   8   8   8   8   4
#     4   9  19  36  57  81 114 149 196 241 280 339
#     4  11  19  34  57  80 110 149 190 235 289 333
#     4  12  22  32  60  84 122 154 176 236 300 354
#     4  10  19  35  58  88 116 144 188 245 285 347
#     4  10  22  37  54  89 118 145 193 234 290 347
#     4  10  23  35  54  81 118 149 192 239 280 347
#     4  11  20  35  57  84 118 153 184 235 295 348
#     4  10  20  36  50  78 110 148 192 224 288 334
#
# _framework density 18.680596999999999
#
# number of rings (size 3 to 8) (size 9 to 14) (size 15 to 20)
#    0.000    1.714    3.571    2.571    2.000    0.000 
#    0.000    0.714    0.000    3.429    0.000    0.000 
#    0.000    0.000    0.000    0.000    0.000    0.000 
#
# Total GULP energy -155873.009889 kJ/mol
# GULP energy per Si atom -5566.893210 kJ/mol
# Density = 1.863808 g / cm^3
# Si number density = 18.680597 Si / 1000 Ang^3
#
#
#
# Elastic Constant Matrix: (Units=GPa)
#
#
# Indices 1 2 3 4 5 6 
#
# 1 38.7248 7.9393 20.8596 0.0000 8.7642 0.0000
# 2 7.9393 85.1805 50.2470 0.0000 -6.0669 0.0000
# 3 20.8596 50.2470 101.1177 0.0000 1.7836 0.0000
# 4 0.0000 0.0000 0.0000 20.7427 0.0000 3.6380
# 5 8.7642 -6.0669 1.7836 0.0000 27.7578 0.0000
# 6 0.0000 0.0000 0.0000 3.6380 0.0000 10.7376
#
#
#
# Elastic Compliance Matrix: (Units=1/GPa)
#
#
# Indices 1 2 3 4 5 6 
#
# 1 0.031370 0.000172 -0.006390 0.000000 -0.009457 0.000000
# 2 0.000172 0.017104 -0.008610 0.000000 0.004237 0.000000
# 3 -0.006390 -0.008610 0.015501 0.000000 -0.000860 0.000000
# 4 0.000000 0.000000 0.000000 0.051255 0.000000 -0.017366
# 5 -0.009457 0.004237 -0.000860 0.000000 0.039993 0.000000
# 6 0.000000 0.000000 0.000000 -0.017366 0.000000 0.099014
#
#
# Mechanical properties :
#
#
# Convention : Reuss Voigt Hill
#
# Bulk Modulus (GPa) = 29.13725 42.56831 35.85278
# Shear Modulus (GPa) = 16.92998 21.57942 19.25470
#
# Velocity S-wave (km/s) = 3.01373 3.40248 3.21399
# Velocity P-wave (km/s) = 5.26702 6.18650 5.74518
#
# Compressibility (1/GPa) = 0.03432033
#
# Stress axis : x y z
#
# Youngs Moduli (GPa) = 31.87729 58.46500 64.51152
#
# Poissons Ratio (x) = -0.01006 0.41223
# Poissons Ratio (y) = -0.00548 0.55542
# Poissons Ratio (z) = 0.20370 0.50336
#
# Static dielectric constant tensor:
#      x y z
#    x 4.827990 0.000000 -2.349390 
#    y 0.000000 1.670410 0.000000 
#    z -2.349390 0.000000 3.400310 
# 
# From -- ./inp_files/107283.got.cif
#   From: 2010.05.17/outbox.cif.g08.bks.cpg/sg15_54_cif.got.tgz:107283.got - 2010.06.03 18:47:42.
