data_PCOD9264287
_publ_section_title
;
Structure prediction by ZEFSAII (Michael W. Deem and Ramdas Pophale) SiO2 
 PCOD9264287
Probable space group: C 2/C
;
_chemical_formula_sum "Si O2"
_cell_formula_units_Z 52
_cell_length_a 8.217902
_cell_length_b 17.151998
_cell_length_c 22.795916
_cell_angle_alpha 90.000000
_cell_angle_beta 137.912173
_cell_angle_gamma 90.000000
_cell_volume 2153.683268
_symmetry_space_group_name_H-M "C 2/C"
_symmetry_group_IT_number 15
_symmetry_cell_setting 'monoclinic'
loop_
_space_group_symop_operation_xyz
x,y,z
-x,y,1/2-z
-x,-y,-z
x,-y,1/2+z
1/2+x,1/2+y,z
1/2-x,1/2+y,1/2-z
1/2-x,1/2-y,-z
1/2+x,1/2-y,1/2+z
loop_
_atom_site_type_symbol
_atom_site_label
_atom_site_fract_x
_atom_site_fract_y
_atom_site_fract_z
Si Si1 0.500000 0.186225 0.750000
Si Si2 0.996217 0.104388 0.077555
Si Si3 0.253213 0.979665 0.312267
Si Si4 0.688640 0.786183 0.753088
Si Si5 0.037427 0.591495 0.526160
Si Si6 0.135322 0.382498 0.922835
Si Si7 0.240827 0.043335 0.678977
O O1 0.381435 0.234186 0.770369
O O2 0.303047 0.126379 0.668785
O O3 0.163947 0.149249 0.169665
O O4 0.109834 0.117727 0.043662
O O5 0.719409 0.123488 0.018918
O O6 0.037156 0.011709 0.099507
O O7 0.287970 0.915925 0.371775
O O8 0.213196 0.940183 0.239712
O O9 0.000000 0.027829 0.250000
O O10 0.488606 0.035279 0.375604
O O11 0.500000 0.750839 0.750000
O O12 0.530293 0.823269 0.658249
O O13 0.132601 0.631586 0.492151
O O14 0.000000 0.500000 0.500000
O O15 0.500000 0.997515 0.750000
#
# Coordination Sequence:
#
# PCOD9264287 Si02
#       7
#     4   8   8   8   8   8   8
#     4  10  22  34  58  96 130 156 214 252 310 362
#     4  11  19  39  63  87 126 159 213 256 301 367
#     4  11  21  37  57  88 127 159 203 262 313 370
#     4  10  20  35  64  90 121 167 214 257 296 368
#     4  10  23  32  53  94 125 157 201 264 312 358
#     4  10  19  35  57  87 120 156 205 253 305 348
#     4  10  19  37  57  86 125 165 196 248 316 361
#
# _framework density 24.144683000000001
#
# number of rings (size 3 to 8) (size 9 to 14) (size 15 to 20)
#    0.462    1.231    3.077    3.231    1.077    3.077 
#    2.769    0.000    0.000    3.692    0.000   33.385 
#    0.000    0.000    0.000    0.000    0.000    0.000 
#
# Total GULP energy -145100.212448 kJ/mol
# GULP energy per Si atom -5580.777402 kJ/mol
# Density = 2.408973 g / cm^3
# Si number density = 24.144683 Si / 1000 Ang^3
#
#
#
# Elastic Constant Matrix: (Units=GPa)
#
#
# Indices 1 2 3 4 5 6 
#
# 1 208.1820 37.0062 49.5481 -0.0001 1.0665 -0.0001
# 2 37.0062 57.0486 -3.2347 -0.0001 -1.7226 -0.0001
# 3 49.5481 -3.2347 53.8096 -0.0003 5.5866 -0.0002
# 4 -0.0001 -0.0001 -0.0003 4.8587 -0.0001 7.9925
# 5 1.0665 -1.7226 5.5866 -0.0001 30.1923 -0.0001
# 6 -0.0001 -0.0001 -0.0002 7.9925 -0.0001 19.3211
#
#
#
# Elastic Compliance Matrix: (Units=1/GPa)
#
#
# Indices 1 2 3 4 5 6 
#
# 1 0.007456 -0.005225 -0.007261 -0.000001 0.000782 0.000000
# 2 -0.005225 0.021270 0.006061 0.000001 0.000277 0.000000
# 3 -0.007261 0.006061 0.026073 0.000003 -0.004222 -0.000001
# 4 -0.000001 0.000001 0.000003 0.644161 0.000001 -0.266468
# 5 0.000782 0.000277 -0.004222 0.000001 0.033890 0.000000
# 6 0.000000 0.000000 -0.000001 -0.266468 0.000000 0.161986
#
#
# Mechanical properties :
#
#
# Convention : Reuss Voigt Hill
#
# Bulk Modulus (GPa) = 23.83823 53.96437 38.90130
# Shear Modulus (GPa) = 5.42493 26.58913 16.00703
#
# Velocity S-wave (km/s) = 1.50057 3.32210 2.57760
# Velocity P-wave (km/s) = 3.59121 6.09213 5.00054
#
# Compressibility (1/GPa) = 0.04194942
#
# Stress axis : x y z
#
# Youngs Moduli (GPa) = 134.11179 47.01402 38.35398
#
# Poissons Ratio (x) = 0.24565 0.27850
# Poissons Ratio (y) = 0.70073 -0.23247
# Poissons Ratio (z) = 0.97382 -0.28496
#
# Static dielectric constant tensor:
#      x y z
#    x 2.089270 0.000000 0.020000 
#    y 0.000000 1.937510 0.000000 
#    z 0.020000 0.000000 1.975500 
# 
# From -- ./inp_files/266178.got.cif
#   From: 2010.05.17/outbox.cif.g08.bks.cpg/sg15_134_cif.got.tgz:266178.got - 2010.06.03 18:47:42.
