data_PCOD9264051
_publ_section_title
;
Structure prediction by ZEFSAII (Michael W. Deem and Ramdas Pophale) SiO2 
 PCOD9264051
Probable space group: C 2/C
;
_chemical_formula_sum "Si O2"
_cell_formula_units_Z 64
_cell_length_a 11.167498
_cell_length_b 16.981598
_cell_length_c 17.367870
_cell_angle_alpha 90.000000
_cell_angle_beta 84.822346
_cell_angle_gamma 90.000000
_cell_volume 3280.237651
_symmetry_space_group_name_H-M "C 2/C"
_symmetry_group_IT_number 15
_symmetry_cell_setting 'monoclinic'
loop_
_space_group_symop_operation_xyz
x,y,z
-x,y,1/2-z
-x,-y,-z
x,-y,1/2+z
1/2+x,1/2+y,z
1/2-x,1/2+y,1/2-z
1/2-x,1/2-y,-z
1/2+x,1/2-y,1/2+z
loop_
_atom_site_type_symbol
_atom_site_label
_atom_site_fract_x
_atom_site_fract_y
_atom_site_fract_z
Si Si1 0.725649 0.087013 0.879975
Si Si2 0.457057 0.694945 0.517159
Si Si3 0.584963 0.711764 0.675633
Si Si4 0.755475 0.090185 0.578077
Si Si5 0.349973 0.571231 0.029830
Si Si6 0.383772 0.115069 0.366687
Si Si7 0.366045 0.043011 0.769422
Si Si8 0.016976 0.625130 0.513763
O O1 0.791444 0.163975 0.841136
O O2 0.698199 0.032805 0.808522
O O3 0.599006 0.104014 0.928637
O O4 0.814301 0.058458 0.942399
O O5 0.517409 0.702303 0.597981
O O6 0.323894 0.663943 0.539333
O O7 0.534521 0.626855 0.470540
O O8 0.462838 0.780920 0.479568
O O9 0.500000 0.683604 0.750000
O O10 0.606788 0.804888 0.681296
O O11 0.711992 0.096527 0.668326
O O12 0.633263 0.078004 0.536383
O O13 0.845056 0.015363 0.567029
O O14 0.239532 0.616705 0.076873
O O15 0.486532 0.108944 0.426152
O O16 0.381749 0.039355 0.312848
O O17 0.500000 0.076600 0.750000
#
# Coordination Sequence:
#
# PCOD9264051 Si02
#       8
#     8   8   8   8   8   8   8   8
#     4  10  20  35  56  79 107 141 178 222 274 322
#     4  10  20  36  55  79 108 147 183 221 272 329
#     4  10  19  35  54  79 108 142 180 222 263 327
#     4  11  21  34  54  82 110 143 182 227 270 327
#     4   9  20  35  57  80 108 139 185 227 273 323
#     4   9  20  34  56  81 106 137 179 226 273 315
#     4  11  21  33  52  78 110 138 173 218 277 322
#     4  10  20  35  56  81 110 140 183 230 273 322
#
# _framework density 19.510781999999999
#
# number of rings (size 3 to 8) (size 9 to 14) (size 15 to 20)
#    0.000    2.000    1.250    2.625    1.750    4.500 
#    0.000    0.000    0.000    0.000    0.000    0.000 
#    0.000    0.000    0.000    0.000    0.000    0.000 
#
# Total GULP energy -178572.354815 kJ/mol
# GULP energy per Si atom -5580.386088 kJ/mol
# Density = 1.946637 g / cm^3
# Si number density = 19.510782 Si / 1000 Ang^3
#
#
#
# Elastic Constant Matrix: (Units=GPa)
#
#
# Indices 1 2 3 4 5 6 
#
# 1 52.2814 16.7581 11.5720 0.0000 -8.5724 0.0000
# 2 16.7581 52.3603 18.0021 0.0000 -6.9969 0.0000
# 3 11.5720 18.0021 72.7889 0.0000 -10.0396 0.0000
# 4 0.0000 0.0000 0.0000 17.4449 0.0000 -7.3496
# 5 -8.5724 -6.9969 -10.0396 0.0000 21.8598 0.0000
# 6 0.0000 0.0000 0.0000 -7.3496 0.0000 19.3866
#
#
#
# Elastic Compliance Matrix: (Units=1/GPa)
#
#
# Indices 1 2 3 4 5 6 
#
# 1 0.022317 -0.005879 -0.001224 0.000000 0.006308 0.000000
# 2 -0.005879 0.022865 -0.004301 0.000000 0.003038 0.000000
# 3 -0.001224 -0.004301 0.015738 0.000000 0.005371 0.000000
# 4 0.000000 0.000000 0.000000 0.068219 0.000000 0.025863
# 5 0.006308 0.003038 0.005371 0.000000 0.051659 0.000000
# 6 0.000000 0.000000 0.000000 0.025863 0.000000 0.061387
#
#
# Mechanical properties :
#
#
# Convention : Reuss Voigt Hill
#
# Bulk Modulus (GPa) = 26.23922 30.01056 28.12489
# Shear Modulus (GPa) = 18.00531 20.47816 19.24174
#
# Velocity S-wave (km/s) = 3.04112 3.24324 3.14381
# Velocity P-wave (km/s) = 5.08026 5.42584 5.25589
#
# Compressibility (1/GPa) = 0.03811088
#
# Stress axis : x y z
#
# Youngs Moduli (GPa) = 44.80929 43.73552 63.54219
#
# Poissons Ratio (x) = 0.25711 0.07777
# Poissons Ratio (y) = 0.26343 0.27331
# Poissons Ratio (z) = 0.05485 0.18812
#
# Static dielectric constant tensor:
#      x y z
#    x 1.700080 0.000000 -0.008080 
#    y 0.000000 1.699070 0.000000 
#    z -0.008080 0.000000 1.685670 
# 
# From -- ./inp_files/199192.got.cif
#   From: 2010.05.17/outbox.cif.g08.bks.cpg/sg15_100_cif.got.tgz:199192.got - 2010.06.03 18:47:42.
