data_PCOD9264179
_publ_section_title
;
Structure prediction by ZEFSAII (Michael W. Deem and Ramdas Pophale) SiO2 
 PCOD9264179
Probable space group: C 2/C
;
_chemical_formula_sum "Si O2"
_cell_formula_units_Z 48
_cell_length_a 17.093800
_cell_length_b 7.979582
_cell_length_c 16.959053
_cell_angle_alpha 90.000000
_cell_angle_beta 121.775969
_cell_angle_gamma 90.000000
_cell_volume 1966.515343
_symmetry_space_group_name_H-M "C 2/C"
_symmetry_group_IT_number 15
_symmetry_cell_setting 'monoclinic'
loop_
_space_group_symop_operation_xyz
x,y,z
-x,y,1/2-z
-x,-y,-z
x,-y,1/2+z
1/2+x,1/2+y,z
1/2-x,1/2+y,1/2-z
1/2-x,1/2-y,-z
1/2+x,1/2-y,1/2+z
loop_
_atom_site_type_symbol
_atom_site_label
_atom_site_fract_x
_atom_site_fract_y
_atom_site_fract_z
Si Si1 0.737062 0.567572 0.843913
Si Si2 0.591063 0.496451 0.493006
Si Si3 0.080782 0.358176 0.963625
Si Si4 0.778214 0.547879 0.188328
Si Si5 0.504575 0.190387 0.912603
Si Si6 0.394370 0.265508 0.720790
O O1 0.820232 0.583086 0.950833
O O2 0.773501 0.498352 0.778572
O O3 0.698142 0.755816 0.810188
O O4 0.664483 0.427299 0.831162
O O5 0.500000 0.500000 0.500000
O O6 0.587954 0.331194 0.436215
O O7 0.679927 0.479789 0.594402
O O8 0.585969 0.675392 0.447998
O O9 0.017590 0.334869 0.007759
O O10 0.032419 0.509818 0.893060
O O11 0.843471 0.410544 0.181614
O O12 0.413494 0.265975 0.825521
O O13 0.500000 0.269975 0.750000
#
# Coordination Sequence:
#
# PCOD9264179 Si02
#       6
#     8   8   8   8   8   8
#     4  11  20  38  64  90 119 161 209 261 309 367
#     4   9  18  32  56  91 117 147 199 260 307 357
#     4   9  18  33  59  91 113 148 208 257 303 355
#     4  11  21  37  66  93 122 162 213 261 309 374
#     4  10  19  35  56  84 120 158 196 252 311 363
#     4  12  26  41  58  92 132 169 207 255 320 378
#
# _framework density 24.408657999999999
#
# number of rings (size 3 to 8) (size 9 to 14) (size 15 to 20)
#    0.000    1.667    3.333    3.000    0.000    3.333 
#    0.000    3.333    0.000    4.000    0.000    0.000 
#    0.000    0.000    0.000    0.000    0.000    0.000 
#
# Total GULP energy -134068.635986 kJ/mol
# GULP energy per Si atom -5586.193166 kJ/mol
# Density = 2.435310 g / cm^3
# Si number density = 24.408658 Si / 1000 Ang^3
#
#
#
# Elastic Constant Matrix: (Units=GPa)
#
#
# Indices 1 2 3 4 5 6 
#
# 1 113.1763 61.1450 6.0198 0.0000 19.3189 0.0000
# 2 61.1450 203.0039 31.0968 0.0000 35.3882 0.0000
# 3 6.0198 31.0968 36.2421 0.0000 16.8145 0.0000
# 4 0.0000 0.0000 0.0000 36.4752 0.0000 19.3005
# 5 19.3189 35.3882 16.8145 0.0000 24.8062 0.0000
# 6 0.0000 0.0000 0.0000 19.3005 0.0000 29.6464
#
#
#
# Elastic Compliance Matrix: (Units=1/GPa)
#
#
# Indices 1 2 3 4 5 6 
#
# 1 0.011404 -0.002699 0.004020 0.000000 -0.007756 0.000000
# 2 -0.002699 0.007284 -0.002853 0.000000 -0.006356 0.000000
# 3 0.004020 -0.002853 0.042211 0.000000 -0.027673 0.000000
# 4 0.000000 0.000000 0.000000 0.041823 0.000000 -0.027228
# 5 -0.007756 -0.006356 -0.027673 0.000000 0.074178 0.000000
# 6 0.000000 0.000000 0.000000 -0.027228 0.000000 0.051457
#
#
# Mechanical properties :
#
#
# Convention : Reuss Voigt Hill
#
# Bulk Modulus (GPa) = 17.29027 60.99397 39.14212
# Shear Modulus (GPa) = 19.94427 35.12960 27.53693
#
# Velocity S-wave (km/s) = 2.86159 3.79783 3.36246
# Velocity P-wave (km/s) = 4.24468 6.65389 5.58084
#
# Compressibility (1/GPa) = 0.05783600
#
# Stress axis : x y z
#
# Youngs Moduli (GPa) = 87.68963 137.29239 23.69028
#
# Poissons Ratio (x) = 0.37049 -0.09523
# Poissons Ratio (y) = 0.23663 0.06758
# Poissons Ratio (z) = -0.35249 0.39166
#
# Static dielectric constant tensor:
#      x y z
#    x 2.057180 0.000000 -0.121330 
#    y 0.000000 2.041750 0.000000 
#    z -0.121330 0.000000 1.987930 
# 
# From -- ./inp_files/247634.got.cif
#   From: 2010.05.17/outbox.cif.g08.bks.cpg/sg15_124_cif.got.tgz:247634.got - 2010.06.03 18:47:42.
