data_PCOD9264600
_publ_section_title
;
Structure prediction by ZEFSAII (Michael W. Deem and Ramdas Pophale) SiO2 
 PCOD9264600
Probable space group: C 2/C
;
_chemical_formula_sum "Si O2"
_cell_formula_units_Z 52
_cell_length_a 14.869601
_cell_length_b 18.856378
_cell_length_c 13.002312
_cell_angle_alpha 90.000000
_cell_angle_beta 46.191696
_cell_angle_gamma 90.000000
_cell_volume 2630.938835
_symmetry_space_group_name_H-M "C 2/C"
_symmetry_group_IT_number 15
_symmetry_cell_setting 'monoclinic'
loop_
_space_group_symop_operation_xyz
x,y,z
-x,y,1/2-z
-x,-y,-z
x,-y,1/2+z
1/2+x,1/2+y,z
1/2-x,1/2+y,1/2-z
1/2-x,1/2-y,-z
1/2+x,1/2-y,1/2+z
loop_
_atom_site_type_symbol
_atom_site_label
_atom_site_fract_x
_atom_site_fract_y
_atom_site_fract_z
Si Si1 0.653567 0.264756 0.928571
Si Si2 0.833664 0.528570 0.525824
Si Si3 0.353406 0.844887 0.878077
Si Si4 0.500000 0.065889 0.750000
Si Si5 0.966929 0.111069 0.562630
Si Si6 0.423909 0.527543 0.213338
Si Si7 0.173440 0.368001 0.277415
O O1 0.778161 0.312945 0.841534
O O2 0.649891 0.212188 0.834668
O O3 0.654318 0.212550 0.025296
O O4 0.535572 0.316037 0.032584
O O5 0.789568 0.584188 0.472601
O O6 0.721856 0.477941 0.648426
O O7 0.867443 0.577729 0.597489
O O8 0.938932 0.483130 0.386624
O O9 0.500000 0.859709 0.750000
O O10 0.397541 0.111784 0.770337
O O11 0.966333 0.052928 0.653415
O O12 0.822142 0.121892 0.649552
O O13 0.042390 0.075119 0.410303
O O14 0.500000 0.554242 0.250000
#
# Coordination Sequence:
#
# PCOD9264600 Si02
#       7
#     8   8   8   4   8   8   8
#     4  10  21  37  58  89 121 159 199 247 300 369
#     4  10  21  37  61  93 118 154 204 257 305 362
#     4  10  19  35  60  90 120 153 195 253 314 353
#     4  12  22  42  62  86 126 164 198 258 304 360
#     4  10  21  40  61  86 123 157 197 255 296 353
#     4  10  20  37  61  91 115 154 202 244 304 359
#     4  10  23  40  59  90 122 160 208 247 304 366
#
# _framework density 19.764807999999999
#
# number of rings (size 3 to 8) (size 9 to 14) (size 15 to 20)
#    0.000    1.846    0.769    3.231    0.000    5.538 
#    9.692    0.769    0.000    0.000    0.000    0.000 
#    0.000    0.000    0.000    0.000    0.000    0.000 
#
# Total GULP energy -145098.515983 kJ/mol
# GULP energy per Si atom -5580.712153 kJ/mol
# Density = 1.971982 g / cm^3
# Si number density = 19.764808 Si / 1000 Ang^3
#
#
#
# Elastic Constant Matrix: (Units=GPa)
#
#
# Indices 1 2 3 4 5 6 
#
# 1 66.7186 11.6063 1.4671 0.0000 -10.7637 0.0000
# 2 11.6063 55.8969 7.8722 0.0000 -9.1872 0.0000
# 3 1.4671 7.8722 86.0088 0.0000 -8.6402 0.0001
# 4 0.0000 0.0000 0.0000 8.9782 0.0000 -15.2032
# 5 -10.7637 -9.1872 -8.6402 0.0000 15.6690 0.0000
# 6 0.0000 0.0000 0.0001 -15.2032 0.0000 -2.5402
#
#
#
# Elastic Compliance Matrix: (Units=1/GPa)
#
#
# Indices 1 2 3 4 5 6 
#
# 1 0.017097 -0.001848 0.001004 0.000000 0.011215 0.000000
# 2 -0.001848 0.020036 -0.000794 0.000000 0.010040 0.000000
# 3 0.001004 -0.000794 0.012391 0.000000 0.007057 0.000000
# 4 0.000000 0.000000 0.000000 0.010003 0.000000 -0.059868
# 5 0.011215 0.010040 0.007057 0.000000 0.081303 0.000000
# 6 0.000000 0.000000 0.000000 -0.059868 0.000000 -0.035355
#
#
# Mechanical properties :
#
#
# Convention : Reuss Voigt Hill
#
# Bulk Modulus (GPa) = 21.62229 27.83506 24.72867
# Shear Modulus (GPa) = 40.26869 16.93333 28.60101
#
# Velocity S-wave (km/s) = 4.51865 2.93019 3.80816
# Velocity P-wave (km/s) = 6.17962 5.05586 5.64577
#
# Compressibility (1/GPa) = 0.04624858
#
# Stress axis : x y z
#
# Youngs Moduli (GPa) = 58.48977 49.91060 80.70257
#
# Poissons Ratio (x) = 0.09224 -0.08104
# Poissons Ratio (y) = 0.10810 0.06405
# Poissons Ratio (z) = -0.05873 0.03961
#
# Static dielectric constant tensor:
#      x y z
#    x 1.689090 0.000000 -0.022110 
#    y 0.000000 1.698280 0.000000 
#    z -0.022110 0.000000 1.705200 
# 
# From -- ./inp_files/99866.got.cif
#   From: 2010.05.17/outbox.cif.g08.bks.cpg/sg15_50_cif.got.tgz:99866.got - 2010.06.03 18:47:42.
