data_PCOD9264747
_publ_section_title
;
Structure prediction by ZEFSAII (Michael W. Deem and Ramdas Pophale) SiO2 
 PCOD9264747
Probable space group: C 2/C
;
_chemical_formula_sum "Si O2"
_cell_formula_units_Z 56
_cell_length_a 8.744001
_cell_length_b 18.218974
_cell_length_c 16.044297
_cell_angle_alpha 90.000000
_cell_angle_beta 108.244526
_cell_angle_gamma 90.000000
_cell_volume 2427.473657
_symmetry_space_group_name_H-M "C 2/C"
_symmetry_group_IT_number 15
_symmetry_cell_setting 'monoclinic'
loop_
_space_group_symop_operation_xyz
x,y,z
-x,y,1/2-z
-x,-y,-z
x,-y,1/2+z
1/2+x,1/2+y,z
1/2-x,1/2+y,1/2-z
1/2-x,1/2-y,-z
1/2+x,1/2-y,1/2+z
loop_
_atom_site_type_symbol
_atom_site_label
_atom_site_fract_x
_atom_site_fract_y
_atom_site_fract_z
Si Si1 0.309146 0.877223 0.341155
Si Si2 0.000000 0.786095 0.250000
Si Si3 0.851310 0.093631 0.949926
Si Si4 0.054309 0.946436 0.629242
Si Si5 0.737753 0.041678 0.191753
Si Si6 0.000000 0.270812 0.250000
Si Si7 0.439274 0.112070 0.483445
Si Si8 0.819919 0.254714 0.875002
O O1 0.419897 0.822832 0.305887
O O2 0.386784 0.889813 0.445335
O O3 0.136809 0.838629 0.311801
O O4 0.300506 0.956764 0.297820
O O5 0.927291 0.737869 0.311265
O O6 0.823671 0.168654 0.896357
O O7 0.899013 0.025285 0.901303
O O8 0.686497 0.077513 0.972180
O O9 0.993971 0.102831 0.042287
O O10 0.201938 0.921467 0.712472
O O11 0.895688 0.956952 0.659169
O O12 0.595161 0.075696 0.111961
O O13 0.861495 0.224647 0.181332
O O14 0.384223 0.196018 0.460304
#
# Coordination Sequence:
#
# PCOD9264747 Si02
#       8
#     8   4   8   8   8   4   8   8
#     4  11  21  40  63  91 116 164 205 265 302 374
#     4  10  24  42  68  82 118 166 218 248 314 376
#     4  10  19  35  62  94 122 161 204 260 300 364
#     4   9  19  36  61  92 126 162 214 246 309 361
#     4  10  20  37  59  89 126 167 201 256 303 369
#     4  10  22  36  66  94 120 158 208 248 316 360
#     4  11  24  37  61  92 130 159 206 253 319 362
#     4  11  22  42  62  93 125 165 203 257 304 381
#
# _framework density 23.069248999999999
#
# number of rings (size 3 to 8) (size 9 to 14) (size 15 to 20)
#    0.000    1.714    1.429    4.286    0.000    2.857 
#    2.571    0.714    6.286    0.000    0.000    0.000 
#    0.000    0.000    0.000    0.000    0.000    0.000 
#
# Total GULP energy -156628.195361 kJ/mol
# GULP energy per Si atom -5593.864120 kJ/mol
# Density = 2.301674 g / cm^3
# Si number density = 23.069249 Si / 1000 Ang^3
#
#
#
# Elastic Constant Matrix: (Units=GPa)
#
#
# Indices 1 2 3 4 5 6 
#
# 1 67.9908 10.9827 43.3822 0.0000 22.5967 0.0000
# 2 10.9827 49.5534 6.1165 0.0000 6.9256 0.0000
# 3 43.3822 6.1165 147.2524 0.0000 33.7729 0.0000
# 4 0.0000 0.0000 0.0000 35.8649 0.0000 4.3783
# 5 22.5967 6.9256 33.7729 0.0000 37.5521 0.0000
# 6 0.0000 0.0000 0.0000 4.3783 0.0000 9.2990
#
#
#
# Elastic Compliance Matrix: (Units=1/GPa)
#
#
# Indices 1 2 3 4 5 6 
#
# 1 0.020460 -0.002898 -0.004039 0.000000 -0.008144 0.000000
# 2 -0.002898 0.021125 0.000592 0.000000 -0.002685 0.000000
# 3 -0.004039 0.000592 0.009353 0.000000 -0.006091 0.000000
# 4 0.000000 0.000000 0.000000 0.029583 0.000000 -0.013929
# 5 -0.008144 -0.002685 -0.006091 0.000000 0.037503 0.000000
# 6 0.000000 0.000000 0.000000 -0.013929 0.000000 0.114097
#
#
# Mechanical properties :
#
#
# Convention : Reuss Voigt Hill
#
# Bulk Modulus (GPa) = 26.14536 42.86215 34.50376
# Shear Modulus (GPa) = 19.41285 30.16420 24.78852
#
# Velocity S-wave (km/s) = 2.90401 3.61993 3.28155
# Velocity P-wave (km/s) = 4.75420 6.00766 5.41731
#
# Compressibility (1/GPa) = 0.03824770
#
# Stress axis : x y z
#
# Youngs Moduli (GPa) = 48.87544 47.33814 106.91240
#
# Poissons Ratio (x) = 0.13718 0.43187
# Poissons Ratio (y) = 0.14163 -0.06329
# Poissons Ratio (z) = 0.19743 -0.02802
#
# Static dielectric constant tensor:
#      x y z
#    x 1.855520 0.000000 0.011770 
#    y 0.000000 1.841940 0.000000 
#    z 0.011770 0.000000 1.890710 
# 
# From -- ./inp_files/191086.got.cif
#   From: 2010.05.17/outbox.cif.g08.bks.cpg/sg15_96_cif.got.tgz:191086.got - 2010.06.03 18:47:42.
