data_PCOD9264445
_publ_section_title
;
Structure prediction by ZEFSAII (Michael W. Deem and Ramdas Pophale) SiO2 
 PCOD9264445
Probable space group: C 2/C
;
_chemical_formula_sum "Si O2"
_cell_formula_units_Z 40
_cell_length_a 13.705469
_cell_length_b 9.392162
_cell_length_c 18.506300
_cell_angle_alpha 90.000000
_cell_angle_beta 47.534547
_cell_angle_gamma 90.000000
_cell_volume 1757.315606
_symmetry_space_group_name_H-M "C 2/C"
_symmetry_group_IT_number 15
_symmetry_cell_setting 'monoclinic'
loop_
_space_group_symop_operation_xyz
x,y,z
-x,y,1/2-z
-x,-y,-z
x,-y,1/2+z
1/2+x,1/2+y,z
1/2-x,1/2+y,1/2-z
1/2-x,1/2-y,-z
1/2+x,1/2-y,1/2+z
loop_
_atom_site_type_symbol
_atom_site_label
_atom_site_fract_x
_atom_site_fract_y
_atom_site_fract_z
Si Si1 0.351102 0.057114 0.067995
Si Si2 0.021169 0.197292 0.063985
Si Si3 0.766978 0.270998 0.749395
Si Si4 0.484348 0.379306 0.417116
Si Si5 0.142371 0.811537 0.151670
O O1 0.305889 0.117760 0.168277
O O2 0.252316 0.932214 0.097591
O O3 0.365269 0.186123 0.003549
O O4 0.500000 0.000000 0.000000
O O5 0.890007 0.251677 0.170416
O O6 0.974376 0.163314 0.005099
O O7 0.059377 0.041583 0.073547
O O8 0.814511 0.301396 0.808393
O O9 0.860564 0.137717 0.680644
O O10 0.398118 0.274711 0.409881
O O11 0.000000 0.870582 0.250000
#
# Coordination Sequence:
#
# PCOD9264445 Si02
#       5
#     8   8   8   8   8
#     4  11  22  38  59  91 119 160 201 246 297 366
#     4  10  20  37  61  84 119 162 193 245 303 360
#     4  10  19  35  59  83 116 158 198 241 298 351
#     4   9  21  37  55  88 117 155 202 242 301 354
#     4  10  20  38  59  89 119 157 196 252 295 353
#
# _framework density 22.761990000000001
#
# number of rings (size 3 to 8) (size 9 to 14) (size 15 to 20)
#    0.000    2.000    2.000    2.400    0.000    1.600 
#    7.200    0.000    0.000    0.000    0.000    0.000 
#    0.000    0.000    0.000    0.000    0.000    0.000 
#
# Total GULP energy -111553.177518 kJ/mol
# GULP energy per Si atom -5577.658876 kJ/mol
# Density = 2.271018 g / cm^3
# Si number density = 22.761990 Si / 1000 Ang^3
#
#
#
# Elastic Constant Matrix: (Units=GPa)
#
#
# Indices 1 2 3 4 5 6 
#
# 1 64.0947 -4.8463 31.2713 0.0000 4.0597 0.0000
# 2 -4.8463 49.6973 27.3472 0.0000 -5.1192 0.0000
# 3 31.2713 27.3472 128.8579 0.0000 -13.1372 0.0000
# 4 0.0000 0.0000 0.0000 43.0149 0.0000 -3.9433
# 5 4.0597 -5.1192 -13.1372 0.0000 36.6576 0.0000
# 6 0.0000 0.0000 0.0000 -3.9433 0.0000 21.0205
#
#
#
# Elastic Compliance Matrix: (Units=1/GPa)
#
#
# Indices 1 2 3 4 5 6 
#
# 1 0.019139 0.004815 -0.006035 0.000000 -0.003610 0.000000
# 2 0.004815 0.024074 -0.006216 0.000000 0.000601 0.000000
# 3 -0.006035 -0.006216 0.010923 0.000000 0.003715 0.000000
# 4 0.000000 0.000000 0.000000 0.023655 0.000000 0.004437
# 5 -0.003610 0.000601 0.003715 0.000000 0.029094 0.000000
# 6 0.000000 0.000000 0.000000 0.004437 0.000000 0.048405
#
#
# Mechanical properties :
#
#
# Convention : Reuss Voigt Hill
#
# Bulk Modulus (GPa) = 25.46849 38.91048 32.18948
# Shear Modulus (GPa) = 27.28520 32.73045 30.00782
#
# Velocity S-wave (km/s) = 3.46601 3.79614 3.63482
# Velocity P-wave (km/s) = 5.21833 6.02875 5.63812
#
# Compressibility (1/GPa) = 0.03926420
#
# Stress axis : x y z
#
# Youngs Moduli (GPa) = 52.24976 41.53849 91.54998
#
# Poissons Ratio (x) = -0.20002 0.55246
# Poissons Ratio (y) = -0.25159 0.56912
# Poissons Ratio (z) = 0.31530 0.25822
#
# Static dielectric constant tensor:
#      x y z
#    x 1.873870 0.000000 0.053030 
#    y 0.000000 1.931210 0.000000 
#    z 0.053030 0.000000 1.911240 
# 
# From -- ./inp_files/151025.got.cif
#   From: 2010.05.17/outbox.cif.g08.bks.cpg/sg15_76_cif.got.tgz:151025.got - 2010.06.03 18:47:42.
