data_PCOD9264153
_publ_section_title
;
Structure prediction by ZEFSAII (Michael W. Deem and Ramdas Pophale) SiO2 
 PCOD9264153
Probable space group: C 2/C
;
_chemical_formula_sum "Si O2"
_cell_formula_units_Z 48
_cell_length_a 15.340880
_cell_length_b 20.288120
_cell_length_c 9.253057
_cell_angle_alpha 90.000000
_cell_angle_beta 109.968265
_cell_angle_gamma 90.000000
_cell_volume 2706.765350
_symmetry_space_group_name_H-M "C 2/C"
_symmetry_group_IT_number 15
_symmetry_cell_setting 'monoclinic'
loop_
_space_group_symop_operation_xyz
x,y,z
-x,y,1/2-z
-x,-y,-z
x,-y,1/2+z
1/2+x,1/2+y,z
1/2-x,1/2+y,1/2-z
1/2-x,1/2-y,-z
1/2+x,1/2-y,1/2+z
loop_
_atom_site_type_symbol
_atom_site_label
_atom_site_fract_x
_atom_site_fract_y
_atom_site_fract_z
Si Si1 0.543343 0.939809 0.111469
Si Si2 0.073807 0.830390 0.921451
Si Si3 0.557215 0.180683 0.931700
Si Si4 0.951000 0.055516 0.874967
Si Si5 0.259347 0.905975 0.931968
Si Si6 0.256670 0.987476 0.209803
O O1 0.500000 0.943731 0.250000
O O2 0.511194 0.870169 0.024780
O O3 0.653230 0.948996 0.180936
O O4 0.500000 0.000000 0.000000
O O5 0.081063 0.755604 0.983698
O O6 0.168930 0.862013 0.913327
O O7 0.000000 0.833452 0.750000
O O8 0.042228 0.877081 0.033172
O O9 0.500000 0.188517 0.750000
O O10 0.652174 0.139042 0.980674
O O11 0.000000 0.058121 0.750000
O O12 0.842887 0.038194 0.794464
O O13 0.000000 0.000000 0.000000
O O14 0.264287 0.938029 0.775055
O O15 0.257565 0.968967 0.040069
#
# Coordination Sequence:
#
# PCOD9264153 Si02
#       6
#     8   8   8   8   8   8
#     4  11  19  34  55  81 113 146 184 236 284 337
#     4  10  22  37  57  82 111 152 195 236 281 339
#     4  10  19  35  56  80 113 151 189 230 280 340
#     4  11  22  38  60  83 115 147 190 241 288 332
#     4  11  20  34  57  85 114 146 191 235 287 338
#     4  11  20  33  57  86 112 142 189 233 290 332
#
# _framework density 17.733342
#
# number of rings (size 3 to 8) (size 9 to 14) (size 15 to 20)
#    0.000    1.333    5.000    4.000    0.000    0.000 
#    0.000    0.833    0.000    1.000    0.000    0.000 
#    0.000    0.000    0.000    0.000    0.000    0.000 
#
# Total GULP energy -133669.602678 kJ/mol
# GULP energy per Si atom -5569.566778 kJ/mol
# Density = 1.769298 g / cm^3
# Si number density = 17.733342 Si / 1000 Ang^3
#
#
#
# Elastic Constant Matrix: (Units=GPa)
#
#
# Indices 1 2 3 4 5 6 
#
# 1 131.0258 47.3697 46.0357 0.0000 17.5740 0.0000
# 2 47.3697 163.7208 53.9859 0.0000 -1.9107 0.0000
# 3 46.0357 53.9859 68.7226 0.0000 9.3491 0.0000
# 4 0.0000 0.0000 0.0000 29.9388 0.0000 2.8444
# 5 17.5740 -1.9107 9.3491 0.0000 25.0023 0.0000
# 6 0.0000 0.0000 0.0000 2.8444 0.0000 18.9025
#
#
#
# Elastic Compliance Matrix: (Units=1/GPa)
#
#
# Indices 1 2 3 4 5 6 
#
# 1 0.010785 -0.001431 -0.005325 0.000000 -0.005699 0.000000
# 2 -0.001431 0.008686 -0.006418 0.000000 0.004070 0.000000
# 3 -0.005325 -0.006418 0.023936 0.000000 -0.005698 0.000000
# 4 0.000000 0.000000 0.000000 0.033886 0.000000 -0.005099
# 5 -0.005699 0.004070 -0.005698 0.000000 0.046443 0.000000
# 6 0.000000 0.000000 0.000000 -0.005099 0.000000 0.053670
#
#
# Mechanical properties :
#
#
# Convention : Reuss Voigt Hill
#
# Bulk Modulus (GPa) = 58.62572 73.13908 65.88240
# Shear Modulus (GPa) = 23.87311 29.17391 26.52351
#
# Velocity S-wave (km/s) = 3.67308 4.06044 3.87161
# Velocity P-wave (km/s) = 7.14983 7.95715 7.56427
#
# Compressibility (1/GPa) = 0.01705736
#
# Stress axis : x y z
#
# Youngs Moduli (GPa) = 92.72384 115.12906 41.77878
#
# Poissons Ratio (x) = 0.16475 0.22247
# Poissons Ratio (y) = 0.13268 0.26815
# Poissons Ratio (z) = 0.49376 0.73894
#
# Static dielectric constant tensor:
#      x y z
#    x 1.614330 0.000000 0.008660 
#    y 0.000000 1.638960 0.000000 
#    z 0.008660 0.000000 1.640900 
# 
# From -- ./inp_files/40959.got.cif
#   From: 2010.05.17/outbox.cif.g08.bks.cpg/sg15_21_cif.got.tgz:40959.got - 2010.06.03 18:47:42.
