data_PCOD9264484
_publ_section_title
;
Structure prediction by ZEFSAII (Michael W. Deem and Ramdas Pophale) SiO2 
 PCOD9264484
Probable space group: C 2/C
;
_chemical_formula_sum "Si O2"
_cell_formula_units_Z 64
_cell_length_a 16.286427
_cell_length_b 12.312907
_cell_length_c 28.138967
_cell_angle_alpha 90.000000
_cell_angle_beta 145.828369
_cell_angle_gamma 90.000000
_cell_volume 3169.412222
_symmetry_space_group_name_H-M "C 2/C"
_symmetry_group_IT_number 15
_symmetry_cell_setting 'monoclinic'
loop_
_space_group_symop_operation_xyz
x,y,z
-x,y,1/2-z
-x,-y,-z
x,-y,1/2+z
1/2+x,1/2+y,z
1/2-x,1/2+y,1/2-z
1/2-x,1/2-y,-z
1/2+x,1/2-y,1/2+z
loop_
_atom_site_type_symbol
_atom_site_label
_atom_site_fract_x
_atom_site_fract_y
_atom_site_fract_z
Si Si1 0.349355 0.358365 0.431687
Si Si2 0.831247 0.848631 0.681807
Si Si3 0.634677 0.015310 0.284398
Si Si4 0.168942 0.799081 0.606058
Si Si5 0.975412 0.556467 0.863599
Si Si6 0.786271 0.878156 0.510134
Si Si7 0.850773 0.451505 0.407077
Si Si8 0.415334 0.305654 0.822833
O O1 0.275370 0.239911 0.392527
O O2 0.272213 0.434823 0.356276
O O3 0.523562 0.348573 0.512250
O O4 0.310143 0.399779 0.465701
O O5 0.814752 0.837168 0.730862
O O6 0.000000 0.826782 0.750000
O O7 0.779333 0.967637 0.642134
O O8 0.500000 0.968841 0.250000
O O9 0.688969 0.127763 0.333165
O O10 0.579034 0.021662 0.204012
O O11 0.177327 0.674167 0.594690
O O12 0.141148 0.807323 0.650017
O O13 0.879139 0.546636 0.864106
O O14 0.957873 0.679379 0.835026
O O15 0.147231 0.551761 0.959201
O O16 0.750000 0.750000 0.500000
O O17 0.942800 0.884364 0.610451
O O18 0.000000 0.500000 0.500000
#
# Coordination Sequence:
#
# PCOD9264484 Si02
#       8
#     8   8   8   8   8   8   8   8
#     4  11  20  37  59  93 114 150 197 251 307 345
#     4  12  22  34  60  91 118 145 202 257 295 345
#     4  12  22  37  63  90 123 155 195 250 302 363
#     4  10  23  41  59  82 122 161 200 236 300 368
#     4  10  19  35  59  86 119 153 197 242 300 355
#     4   9  17  30  55  85 121 145 184 248 303 344
#     4  11  24  40  59  83 117 168 198 240 301 358
#     4   9  19  34  56  86 116 150 194 251 299 341
#
# _framework density 20.193017999999999
#
# number of rings (size 3 to 8) (size 9 to 14) (size 15 to 20)
#    0.000    1.500    3.750    3.750    1.750    0.500 
#    0.000    0.000    0.000    0.750    0.000    0.000 
#    0.000    0.000    0.000    0.000    0.000    0.000 
#
# Total GULP energy -178606.681075 kJ/mol
# GULP energy per Si atom -5581.458784 kJ/mol
# Density = 2.014706 g / cm^3
# Si number density = 20.193018 Si / 1000 Ang^3
#
#
#
# Elastic Constant Matrix: (Units=GPa)
#
#
# Indices 1 2 3 4 5 6 
#
# 1 19.3489 -4.7138 8.4127 0.0000 -2.6135 0.0000
# 2 -4.7138 78.3921 25.8740 0.0000 6.4729 0.0000
# 3 8.4127 25.8740 76.7506 0.0000 -0.0029 0.0000
# 4 0.0000 0.0000 0.0000 32.1586 0.0000 4.0476
# 5 -2.6135 6.4729 -0.0029 0.0000 24.9141 0.0000
# 6 0.0000 0.0000 0.0000 4.0476 0.0000 16.4986
#
#
#
# Elastic Compliance Matrix: (Units=1/GPa)
#
#
# Indices 1 2 3 4 5 6 
#
# 1 0.057279 0.005789 -0.008230 0.000000 0.004504 0.000000
# 2 0.005789 0.015294 -0.005790 0.000000 -0.003367 0.000000
# 3 -0.008230 -0.005790 0.015883 0.000000 0.000643 0.000000
# 4 0.000000 0.000000 0.000000 0.032087 0.000000 -0.007872
# 5 0.004504 -0.003367 0.000643 0.000000 0.041485 0.000000
# 6 0.000000 0.000000 0.000000 -0.007872 0.000000 0.062542
#
#
# Mechanical properties :
#
#
# Convention : Reuss Voigt Hill
#
# Bulk Modulus (GPa) = 13.89015 25.95972 19.92493
# Shear Modulus (GPa) = 18.86569 24.37551 21.62060
#
# Velocity S-wave (km/s) = 3.05990 3.47814 3.27570
# Velocity P-wave (km/s) = 4.40200 5.38643 4.91890
#
# Compressibility (1/GPa) = 0.07199346
#
# Stress axis : x y z
#
# Youngs Moduli (GPa) = 17.45828 65.38661 62.95893
#
# Poissons Ratio (x) = -0.37850 0.51814
# Poissons Ratio (y) = -0.10106 0.36456
# Poissons Ratio (z) = 0.14368 0.37861
#
# Static dielectric constant tensor:
#      x y z
#    x 1.721170 0.000000 0.002280 
#    y 0.000000 1.726450 0.000000 
#    z 0.002280 0.000000 1.734000 
# 
# From -- ./inp_files/316246.got.cif
#   From: 2010.05.17/outbox.cif.g08.bks.cpg/sg15_159_cif.got.tgz:316246.got - 2010.06.03 18:47:42.
