data_PCOD9264145
_publ_section_title
;
Structure prediction by ZEFSAII (Michael W. Deem and Ramdas Pophale) SiO2 
 PCOD9264145
Probable space group: C 2/C
;
_chemical_formula_sum "Si O2"
_cell_formula_units_Z 48
_cell_length_a 26.696884
_cell_length_b 4.977437
_cell_length_c 18.278360
_cell_angle_alpha 90.000000
_cell_angle_beta 93.743294
_cell_angle_gamma 90.000000
_cell_volume 2423.684285
_symmetry_space_group_name_H-M "C 2/C"
_symmetry_group_IT_number 15
_symmetry_cell_setting 'monoclinic'
loop_
_space_group_symop_operation_xyz
x,y,z
-x,y,1/2-z
-x,-y,-z
x,-y,1/2+z
1/2+x,1/2+y,z
1/2-x,1/2+y,1/2-z
1/2-x,1/2-y,-z
1/2+x,1/2-y,1/2+z
loop_
_atom_site_type_symbol
_atom_site_label
_atom_site_fract_x
_atom_site_fract_y
_atom_site_fract_z
Si Si1 0.529723 0.355298 0.677243
Si Si2 0.692173 0.178628 0.487145
Si Si3 0.097081 0.356181 0.689544
Si Si4 0.139869 0.822499 0.045543
Si Si5 0.881056 0.771500 0.144731
Si Si6 0.065525 0.271411 0.414702
O O1 0.500000 0.299694 0.750000
O O2 0.548735 0.659519 0.680317
O O3 0.491873 0.293538 0.607509
O O4 0.577143 0.157665 0.678830
O O5 0.750000 0.250000 0.500000
O O6 0.659305 0.377449 0.535083
O O7 0.670549 0.231714 0.403927
O O8 0.678686 0.876554 0.508754
O O9 0.132931 0.266489 0.627609
O O10 0.120562 0.305758 0.771131
O O11 0.087084 0.782236 0.997482
O O12 0.920440 0.571390 0.108533
O O13 0.901866 0.070205 0.133591
#
# Coordination Sequence:
#
# PCOD9264145 Si02
#       6
#     8   8   8   8   8   8
#     4  12  21  33  56  81 111 151 197 210 250 320
#     4  10  21  41  63  79 103 143 182 219 274 351
#     4  12  22  35  55  83 115 144 177 236 266 300
#     4  10  23  38  56  84 114 136 177 231 284 308
#     4  10  19  35  56  79 107 144 182 218 273 318
#     4  10  20  35  53  77 110 152 186 215 252 324
#
# _framework density 19.804558
#
# number of rings (size 3 to 8) (size 9 to 14) (size 15 to 20)
#    0.000    1.333    3.333    3.000    0.000    1.333 
#    0.000    1.667    0.000    0.000    0.000    0.000 
#    0.000    0.000    0.000    0.000    0.000    0.000 
#
# Total GULP energy -134170.576312 kJ/mol
# GULP energy per Si atom -5590.440680 kJ/mol
# Density = 1.975948 g / cm^3
# Si number density = 19.804558 Si / 1000 Ang^3
#
#
#
# Elastic Constant Matrix: (Units=GPa)
#
#
# Indices 1 2 3 4 5 6 
#
# 1 54.1876 -9.8605 30.3501 0.0000 24.5546 0.0000
# 2 -9.8605 56.2613 -16.4849 0.0000 2.5309 0.0000
# 3 30.3501 -16.4849 80.9070 0.0000 10.2457 0.0000
# 4 0.0000 0.0000 0.0000 16.6281 0.0000 0.5833
# 5 24.5546 2.5309 10.2457 0.0000 27.4604 0.0000
# 6 0.0000 0.0000 0.0000 0.5833 0.0000 16.8637
#
#
#
# Elastic Compliance Matrix: (Units=1/GPa)
#
#
# Indices 1 2 3 4 5 6 
#
# 1 0.039409 0.005548 -0.009578 0.000000 -0.032177 0.000000
# 2 0.005548 0.019980 0.002993 0.000000 -0.007919 0.000000
# 3 -0.009578 0.002993 0.016282 0.000000 0.002214 0.000000
# 4 0.000000 0.000000 0.000000 0.060212 0.000000 -0.002083
# 5 -0.032177 -0.007919 0.002214 0.000000 0.065092 0.000000
# 6 0.000000 0.000000 0.000000 -0.002083 0.000000 0.059371
#
#
# Mechanical properties :
#
#
# Convention : Reuss Voigt Hill
#
# Bulk Modulus (GPa) = 13.58781 22.15172 17.86977
# Shear Modulus (GPa) = 17.42446 24.68053 21.05249
#
# Velocity S-wave (km/s) = 2.96939 3.53399 3.26392
# Velocity P-wave (km/s) = 4.31651 5.27841 4.82151
#
# Compressibility (1/GPa) = 0.07359536
#
# Stress axis : x y z
#
# Youngs Moduli (GPa) = 25.37483 50.05112 61.41656
#
# Poissons Ratio (x) = -0.27768 0.58826
# Poissons Ratio (y) = -0.14078 -0.18379
# Poissons Ratio (z) = 0.24305 -0.14978
#
# Static dielectric constant tensor:
#      x y z
#    x 1.664990 0.000000 0.013690 
#    y 0.000000 1.676130 0.000000 
#    z 0.013690 0.000000 1.702480 
# 
# From -- ./inp_files/217577.got.cif
#   From: 2010.05.17/outbox.cif.g08.bks.cpg/sg15_109_cif.got.tgz:217577.got - 2010.06.03 18:47:42.
