data_PCOD9264093
_publ_section_title
;
Structure prediction by ZEFSAII (Michael W. Deem and Ramdas Pophale) SiO2 
 PCOD9264093
Probable space group: C 2/C
;
_chemical_formula_sum "Si O2"
_cell_formula_units_Z 48
_cell_length_a 13.300290
_cell_length_b 22.833248
_cell_length_c 10.170199
_cell_angle_alpha 90.000000
_cell_angle_beta 68.065166
_cell_angle_gamma 90.000000
_cell_volume 2864.991630
_symmetry_space_group_name_H-M "C 2/C"
_symmetry_group_IT_number 15
_symmetry_cell_setting 'monoclinic'
loop_
_space_group_symop_operation_xyz
x,y,z
-x,y,1/2-z
-x,-y,-z
x,-y,1/2+z
1/2+x,1/2+y,z
1/2-x,1/2+y,1/2-z
1/2-x,1/2-y,-z
1/2+x,1/2-y,1/2+z
loop_
_atom_site_type_symbol
_atom_site_label
_atom_site_fract_x
_atom_site_fract_y
_atom_site_fract_z
Si Si1 0.234384 0.331785 0.884264
Si Si2 0.256089 0.674733 0.847240
Si Si3 0.357377 0.700056 0.071223
Si Si4 0.389580 0.715942 0.531929
Si Si5 0.867757 0.549953 0.961015
Si Si6 0.626763 0.943093 0.348191
O O1 0.285769 0.333243 0.714774
O O2 0.135327 0.285211 0.938325
O O3 0.326957 0.304813 0.932750
O O4 0.196798 0.393877 0.956054
O O5 0.180691 0.732164 0.900295
O O6 0.331410 0.685525 0.684145
O O7 0.185212 0.617038 0.859173
O O8 0.328324 0.674459 0.943085
O O9 0.484976 0.700042 0.034944
O O10 0.845748 0.540870 0.816679
O O11 0.996217 0.562959 0.914628
O O12 0.843235 0.493843 0.063268
#
# Coordination Sequence:
#
# PCOD9264093 Si02
#       6
#     8   8   8   8   8   8
#     4  10  20  34  56  83 109 139 180 222 268 318
#     4  10  20  36  54  81 112 144 176 220 272 317
#     4  10  21  33  55  83 112 143 177 217 268 326
#     4  10  19  35  55  81 110 144 178 218 268 320
#     4  10  21  37  57  82 107 140 179 224 271 320
#     4  10  21  37  58  80 108 141 179 223 272 318
#
# _framework density 16.753975000000001
#
# number of rings (size 3 to 8) (size 9 to 14) (size 15 to 20)
#    0.000    2.000    1.667    2.000    2.333    0.000 
#    0.000    1.667    0.000    6.000    0.000    0.000 
#    0.000    0.000    0.000    0.000    0.000    0.000 
#
# Total GULP energy -133921.173319 kJ/mol
# GULP energy per Si atom -5580.048888 kJ/mol
# Density = 1.671584 g / cm^3
# Si number density = 16.753975 Si / 1000 Ang^3
#
#
#
# Elastic Constant Matrix: (Units=GPa)
#
#
# Indices 1 2 3 4 5 6 
#
# 1 44.4795 21.0955 6.1224 0.0000 4.1370 0.0000
# 2 21.0955 83.1920 32.2965 0.0000 -2.3929 0.0000
# 3 6.1224 32.2965 45.1450 0.0000 17.2273 0.0000
# 4 0.0000 0.0000 0.0000 21.1139 0.0000 1.1500
# 5 4.1370 -2.3929 17.2273 0.0000 21.0741 0.0000
# 6 0.0000 0.0000 0.0000 1.1500 0.0000 18.5584
#
#
#
# Elastic Compliance Matrix: (Units=1/GPa)
#
#
# Indices 1 2 3 4 5 6 
#
# 1 0.027925 -0.011469 0.010183 0.000000 -0.015109 0.000000
# 2 -0.011469 0.026859 -0.028606 0.000000 0.028685 0.000000
# 3 0.010183 -0.028606 0.062839 0.000000 -0.056615 0.000000
# 4 0.000000 0.000000 0.000000 0.047523 0.000000 -0.002945
# 5 -0.015109 0.028685 -0.056615 0.000000 0.099956 0.000000
# 6 0.000000 0.000000 0.000000 -0.002945 0.000000 0.054066
#
#
# Mechanical properties :
#
#
# Convention : Reuss Voigt Hill
#
# Bulk Modulus (GPa) = 17.28910 32.42726 24.85818
# Shear Modulus (GPa) = 12.55555 19.70276 16.12915
#
# Velocity S-wave (km/s) = 2.74050 3.43301 3.10612
# Velocity P-wave (km/s) = 4.51172 5.92546 5.26625
#
# Compressibility (1/GPa) = 0.05783992
#
# Stress axis : x y z
#
# Youngs Moduli (GPa) = 35.80977 37.23153 15.91379
#
# Poissons Ratio (x) = 0.42701 -0.16205
# Poissons Ratio (y) = 0.41071 0.45522
# Poissons Ratio (z) = -0.36466 1.06503
#
# Static dielectric constant tensor:
#      x y z
#    x 1.541790 0.000000 0.014830 
#    y 0.000000 1.536840 0.000000 
#    z 0.014830 0.000000 1.563250 
# 
# From -- ./inp_files/31886.got.cif
#   From: 2010.05.17/outbox.cif.g08.bks.cpg/sg15_16_cif.got.tgz:31886.got - 2010.06.03 18:47:42.
