data_PCOD9264846
_publ_section_title
;
Structure prediction by ZEFSAII (Michael W. Deem and Ramdas Pophale) SiO2 
 PCOD9264846
Probable space group: C 2/C
;
_chemical_formula_sum "Si O2"
_cell_formula_units_Z 56
_cell_length_a 17.968201
_cell_length_b 17.747960
_cell_length_c 10.272876
_cell_angle_alpha 90.000000
_cell_angle_beta 135.753516
_cell_angle_gamma 90.000000
_cell_volume 2285.823811
_symmetry_space_group_name_H-M "C 2/C"
_symmetry_group_IT_number 15
_symmetry_cell_setting 'monoclinic'
loop_
_space_group_symop_operation_xyz
x,y,z
-x,y,1/2-z
-x,-y,-z
x,-y,1/2+z
1/2+x,1/2+y,z
1/2-x,1/2+y,1/2-z
1/2-x,1/2-y,-z
1/2+x,1/2-y,1/2+z
loop_
_atom_site_type_symbol
_atom_site_label
_atom_site_fract_x
_atom_site_fract_y
_atom_site_fract_z
Si Si1 0.352303 0.154341 0.050113
Si Si2 0.619103 0.670017 0.359072
Si Si3 0.609752 0.496151 0.308105
Si Si4 0.071206 0.506328 0.959535
Si Si5 0.267592 0.905610 0.682419
Si Si6 0.630968 0.359043 0.162962
Si Si7 0.597411 0.712666 0.067672
O O1 0.226623 0.169063 0.871752
O O2 0.407977 0.218839 0.038468
O O3 0.356724 0.138900 0.209163
O O4 0.386123 0.075669 0.027314
O O5 0.500000 0.693890 0.250000
O O6 0.612682 0.585447 0.291421
O O7 0.668903 0.656098 0.563226
O O8 0.648509 0.724386 0.276721
O O9 0.500000 0.479924 0.250000
O O10 0.711090 0.469126 0.521291
O O11 0.612828 0.446394 0.180575
O O12 0.000000 0.534809 0.750000
O O13 0.171776 0.558082 0.120594
O O14 0.000000 0.500000 0.000000
O O15 0.173638 0.849646 0.601074
O O16 0.521400 0.317842 0.058311
#
# Coordination Sequence:
#
# PCOD9264846 Si02
#       7
#     8   8   8   8   8   8   8
#     4  11  26  46  73 107 149 195 260 319 377 463
#     4   9  21  34  60  97 147 187 240 297 378 454
#     4  10  19  35  65 107 146 199 238 310 377 455
#     4  12  27  53  78 111 150 207 263 323 374 449
#     4  11  24  43  74 110 147 198 268 309 379 457
#     4  10  22  42  65 105 152 189 250 308 387 451
#     4  11  24  43  70 110 152 202 243 317 394 456
#
# _framework density 24.498826999999999
#
# number of rings (size 3 to 8) (size 9 to 14) (size 15 to 20)
#    0.000    1.429    2.857    1.286    6.000    4.571 
#    5.143    2.143    0.000    0.000    0.000    0.000 
#    0.000    0.000    0.000    0.000    0.000    0.000 
#
# Total GULP energy -156684.176426 kJ/mol
# GULP energy per Si atom -5595.863444 kJ/mol
# Density = 2.444307 g / cm^3
# Si number density = 24.498827 Si / 1000 Ang^3
#
#
#
# Elastic Constant Matrix: (Units=GPa)
#
#
# Indices 1 2 3 4 5 6 
#
# 1 140.2542 49.9662 34.7693 0.0000 -9.8115 0.0000
# 2 49.9662 88.3718 31.9279 0.0000 -3.2100 0.0000
# 3 34.7693 31.9279 129.6485 0.0000 -10.6409 0.0000
# 4 0.0000 0.0000 0.0000 5.4590 0.0000 -2.2938
# 5 -9.8115 -3.2100 -10.6409 0.0000 42.0993 0.0000
# 6 0.0000 0.0000 0.0000 -2.2938 0.0000 38.4244
#
#
#
# Elastic Compliance Matrix: (Units=1/GPa)
#
#
# Indices 1 2 3 4 5 6 
#
# 1 0.009211 -0.004726 -0.001184 0.000000 0.001487 0.000000
# 2 -0.004726 0.014847 -0.002437 0.000000 -0.000585 0.000000
# 3 -0.001184 -0.002437 0.008775 0.000000 0.001756 0.000000
# 4 0.000000 0.000000 0.000000 0.187897 0.000000 0.011217
# 5 0.001487 -0.000585 0.001756 0.000000 0.024499 0.000000
# 6 0.000000 0.000000 0.000000 0.011217 0.000000 0.026695
#
#
# Mechanical properties :
#
#
# Convention : Reuss Voigt Hill
#
# Bulk Modulus (GPa) = 61.96324 65.73348 63.84836
# Shear Modulus (GPa) = 17.00688 33.30395 25.15541
#
# Velocity S-wave (km/s) = 2.63761 3.69102 3.20785
# Velocity P-wave (km/s) = 5.88415 6.71225 6.31180
#
# Compressibility (1/GPa) = 0.01613860
#
# Stress axis : x y z
#
# Youngs Moduli (GPa) = 108.56253 67.35254 113.95956
#
# Poissons Ratio (x) = 0.31832 0.13497
# Poissons Ratio (y) = 0.51309 0.27771
# Poissons Ratio (z) = 0.12858 0.16413
#
# Static dielectric constant tensor:
#      x y z
#    x 1.992180 0.000000 -0.036530 
#    y 0.000000 1.937030 0.000000 
#    z -0.036530 0.000000 2.055980 
# 
# From -- ./inp_files/106727.got.cif
#   From: 2010.05.17/outbox.cif.g08.bks.cpg/sg15_54_cif.got.tgz:106727.got - 2010.06.03 18:47:42.
