data_PCOD9264419
_publ_section_title
;
Structure prediction by ZEFSAII (Michael W. Deem and Ramdas Pophale) SiO2 
 PCOD9264419
Probable space group: C 2/C
;
_chemical_formula_sum "Si O2"
_cell_formula_units_Z 60
_cell_length_a 16.746645
_cell_length_b 31.157108
_cell_length_c 11.557697
_cell_angle_alpha 90.000000
_cell_angle_beta 26.784539
_cell_angle_gamma 90.000000
_cell_volume 2717.582779
_symmetry_space_group_name_H-M "C 2/C"
_symmetry_group_IT_number 15
_symmetry_cell_setting 'monoclinic'
loop_
_space_group_symop_operation_xyz
x,y,z
-x,y,1/2-z
-x,-y,-z
x,-y,1/2+z
1/2+x,1/2+y,z
1/2-x,1/2+y,1/2-z
1/2-x,1/2-y,-z
1/2+x,1/2-y,1/2+z
loop_
_atom_site_type_symbol
_atom_site_label
_atom_site_fract_x
_atom_site_fract_y
_atom_site_fract_z
Si Si1 0.000000 0.844504 0.750000
Si Si2 0.297089 0.517257 0.261993
Si Si3 0.371076 0.808614 0.526706
Si Si4 0.290289 0.216283 0.773523
Si Si5 0.327274 0.385093 0.396539
Si Si6 0.205554 0.706138 0.994833
Si Si7 0.105885 0.114141 0.348009
Si Si8 0.719045 0.476645 0.974623
O O1 0.163086 0.813242 0.513294
O O2 0.059123 0.873864 0.778679
O O3 0.299326 0.568715 0.262534
O O4 0.225303 0.500924 0.479338
O O5 0.500000 0.500000 0.000000
O O6 0.223615 0.506673 0.227203
O O7 0.500000 0.817746 0.250000
O O8 0.508561 0.796013 0.451857
O O9 0.252787 0.766434 0.652490
O O10 0.235980 0.847834 0.724982
O O11 0.229819 0.206229 0.720706
O O12 0.500000 0.382963 0.250000
O O13 0.247833 0.338118 0.502476
O O14 0.225437 0.426994 0.572809
O O15 0.415481 0.391246 0.156922
O O16 0.000000 0.707399 0.250000
O O17 0.250000 0.750000 0.000000
O O18 0.500000 0.476869 0.250000
#
# Coordination Sequence:
#
# PCOD9264419 Si02
#       8
#     4   8   8   8   8   8   8   8
#     4  12  24  42  66 104 128 176 218 280 330 392
#     4  10  19  35  59 100 129 169 212 272 327 392
#     4  12  25  42  64  93 132 178 214 273 334 393
#     4  12  25  44  65  92 135 176 227 270 337 392
#     4  11  22  40  62  92 128 173 215 266 326 387
#     4  12  28  43  62  94 128 173 223 275 325 392
#     4  12  24  38  66  98 135 166 224 273 325 401
#     4   9  18  34  60  91 132 163 212 265 326 390
#
# _framework density 22.078444999999999
#
# number of rings (size 3 to 8) (size 9 to 14) (size 15 to 20)
#    0.000    0.800    7.333    2.400    8.400    0.000 
#    0.000    0.000    0.000    0.800    0.000    3.733 
#    0.000    0.000    0.000    0.000    0.000    0.000 
#
# Total GULP energy -167481.899934 kJ/mol
# GULP energy per Si atom -5582.729998 kJ/mol
# Density = 2.202819 g / cm^3
# Si number density = 22.078445 Si / 1000 Ang^3
#
#
#
# Elastic Constant Matrix: (Units=GPa)
#
#
# Indices 1 2 3 4 5 6 
#
# 1 119.1278 36.5377 33.6850 -0.0046 39.5409 0.0022
# 2 36.5377 91.0568 15.6355 -0.0028 17.6078 0.0016
# 3 33.6850 15.6355 27.0538 -0.0047 9.1027 0.0017
# 4 -0.0046 -0.0028 -0.0047 38.5375 0.0037 7.4826
# 5 39.5409 17.6078 9.1027 0.0037 36.7179 -0.0013
# 6 0.0022 0.0016 0.0017 7.4826 -0.0013 43.7305
#
#
#
# Elastic Compliance Matrix: (Units=1/GPa)
#
#
# Indices 1 2 3 4 5 6 
#
# 1 0.018881 -0.001638 -0.017441 0.000002 -0.015224 -0.000001
# 2 -0.001638 0.013047 -0.004352 0.000001 -0.003414 0.000000
# 3 -0.017441 -0.004352 0.059103 0.000005 0.006217 -0.000002
# 4 0.000002 0.000001 0.000005 0.026840 -0.000006 -0.004593
# 5 -0.015224 -0.003414 0.006217 -0.000006 0.043725 0.000003
# 6 -0.000001 0.000000 -0.000002 -0.004593 0.000003 0.023653
#
#
# Mechanical properties :
#
#
# Convention : Reuss Voigt Hill
#
# Bulk Modulus (GPa) = 22.64015 45.43944 34.03979
# Shear Modulus (GPa) = 20.25652 33.88920 27.07286
#
# Velocity S-wave (km/s) = 3.03228 3.92209 3.50553
# Velocity P-wave (km/s) = 4.74724 6.41373 5.64235
#
# Compressibility (1/GPa) = 0.04416931
#
# Stress axis : x y z
#
# Youngs Moduli (GPa) = 52.96230 76.64700 16.91973
#
# Poissons Ratio (x) = 0.12553 0.29509
# Poissons Ratio (y) = 0.08674 0.07364
# Poissons Ratio (z) = 0.92369 0.33360
#
# Static dielectric constant tensor:
#      x y z
#    x 1.590510 0.000000 -0.187910 
#    y 0.000000 1.756780 0.000000 
#    z -0.187910 0.000000 1.585330 
# 
# From -- ./inp_files/108391.got.cif
#   From: 2010.05.17/outbox.cif.g08.bks.cpg/sg15_55_cif.got.tgz:108391.got - 2010.06.03 18:47:42.
