data_PCOD9264535
_publ_section_title
;
Structure prediction by ZEFSAII (Michael W. Deem and Ramdas Pophale) SiO2 
 PCOD9264535
Probable space group: C 2/C
;
_chemical_formula_sum "Si O2"
_cell_formula_units_Z 40
_cell_length_a 12.585750
_cell_length_b 16.139034
_cell_length_c 18.410623
_cell_angle_alpha 90.000000
_cell_angle_beta 156.443142
_cell_angle_gamma 90.000000
_cell_volume 1494.564419
_symmetry_space_group_name_H-M "C 2/C"
_symmetry_group_IT_number 15
_symmetry_cell_setting 'monoclinic'
loop_
_space_group_symop_operation_xyz
x,y,z
-x,y,1/2-z
-x,-y,-z
x,-y,1/2+z
1/2+x,1/2+y,z
1/2-x,1/2+y,1/2-z
1/2-x,1/2-y,-z
1/2+x,1/2-y,1/2+z
loop_
_atom_site_type_symbol
_atom_site_label
_atom_site_fract_x
_atom_site_fract_y
_atom_site_fract_z
Si Si1 0.150205 0.167039 0.997972
Si Si2 0.184198 0.060493 0.159138
Si Si3 0.353906 0.192553 0.909913
Si Si4 0.786884 0.191371 0.954391
Si Si5 0.216538 0.462857 0.045555
O O1 0.849456 0.187863 0.784049
O O2 0.213309 0.094978 0.979798
O O3 0.247456 0.127976 0.136042
O O4 0.237366 0.261371 0.072037
O O5 0.429357 0.004448 0.340395
O O6 0.000197 0.116403 0.097420
O O7 0.000000 0.000000 0.000000
O O8 0.387375 0.099266 0.956824
O O9 0.601683 0.245309 0.036933
O O10 0.500000 0.157557 0.750000
O O11 0.750000 0.250000 0.000000
O O12 0.500000 0.500194 0.250000
#
# Coordination Sequence:
#
# PCOD9264535 Si02
#       5
#     8   8   8   8   8
#     4  10  20  35  61  92 123 159 203 263 334 393
#     4  11  24  42  63  91 127 169 216 268 326 402
#     4  10  19  35  59  94 127 157 206 270 323 380
#     4  11  22  38  62  94 129 170 219 268 320 384
#     4  10  21  38  63  93 122 157 204 267 334 391
#
# _framework density 26.763649999999998
#
# number of rings (size 3 to 8) (size 9 to 14) (size 15 to 20)
#    0.000    1.600    0.000    7.200    0.000    8.000 
#    0.000    4.000    0.000   13.200    0.000    0.000 
#    0.000    0.000    0.000    0.000    0.000    0.000 
#
# Total GULP energy -111386.450665 kJ/mol
# GULP energy per Si atom -5569.322533 kJ/mol
# Density = 2.670273 g / cm^3
# Si number density = 26.763650 Si / 1000 Ang^3
#
#
#
# Elastic Constant Matrix: (Units=GPa)
#
#
# Indices 1 2 3 4 5 6 
#
# 1 98.2262 -0.4174 14.5184 -0.0218 -5.0606 -0.0195
# 2 -0.4174 37.3244 3.5228 -0.0025 3.1437 -0.0157
# 3 14.5184 3.5228 229.1832 0.0063 3.9764 -0.0386
# 4 -0.0218 -0.0025 0.0063 28.9321 -0.0088 -17.5184
# 5 -5.0606 3.1437 3.9764 -0.0088 39.1249 -0.0235
# 6 -0.0195 -0.0157 -0.0386 -17.5184 -0.0235 25.6232
#
#
#
# Elastic Compliance Matrix: (Units=1/GPa)
#
#
# Indices 1 2 3 4 5 6 
#
# 1 0.010354 0.000062 -0.000681 0.000023 0.001404 0.000024
# 2 0.000062 0.027008 -0.000382 0.000018 -0.002123 0.000026
# 3 -0.000681 -0.000382 0.004421 0.000003 -0.000507 0.000007
# 4 0.000023 0.000018 0.000003 0.058980 0.000039 0.040325
# 5 0.001404 -0.002123 -0.000507 0.000039 0.025963 0.000049
# 6 0.000024 0.000026 0.000007 0.040325 0.000049 0.066597
#
#
# Mechanical properties :
#
#
# Convention : Reuss Voigt Hill
#
# Bulk Modulus (GPa) = 25.13849 44.44237 34.79043
# Shear Modulus (GPa) = 23.97096 41.87670 32.92383
#
# Velocity S-wave (km/s) = 2.99599 3.95990 3.51118
# Velocity P-wave (km/s) = 4.62397 6.12775 5.42819
#
# Compressibility (1/GPa) = 0.03977964
#
# Stress axis : x y z
#
# Youngs Moduli (GPa) = 96.58240 37.02647 226.18583
#
# Poissons Ratio (x) = -0.00229 0.15408
# Poissons Ratio (y) = -0.00598 0.08645
# Poissons Ratio (z) = 0.06579 0.01415
#
# Static dielectric constant tensor:
#      x y z
#    x 2.269740 0.000020 -0.013280 
#    y 0.000020 2.362800 -0.000030 
#    z -0.013280 -0.000030 2.174000 
# 
# From -- ./inp_files/245489.got.cif
#   From: 2010.05.17/outbox.cif.g08.bks.cpg/sg15_123_cif.got.tgz:245489.got - 2010.06.03 18:47:42.
