data_PCOD9264884
_publ_section_title
;
Structure prediction by ZEFSAII (Michael W. Deem and Ramdas Pophale) SiO2 
 PCOD9264884
Probable space group: C 2/C
;
_chemical_formula_sum "Si O2"
_cell_formula_units_Z 40
_cell_length_a 24.330853
_cell_length_b 8.417466
_cell_length_c 9.903925
_cell_angle_alpha 90.000000
_cell_angle_beta 132.551781
_cell_angle_gamma 90.000000
_cell_volume 1494.228284
_symmetry_space_group_name_H-M "C 2/C"
_symmetry_group_IT_number 15
_symmetry_cell_setting 'monoclinic'
loop_
_space_group_symop_operation_xyz
x,y,z
-x,y,1/2-z
-x,-y,-z
x,-y,1/2+z
1/2+x,1/2+y,z
1/2-x,1/2+y,1/2-z
1/2-x,1/2-y,-z
1/2+x,1/2-y,1/2+z
loop_
_atom_site_type_symbol
_atom_site_label
_atom_site_fract_x
_atom_site_fract_y
_atom_site_fract_z
Si Si1 0.417251 0.507168 0.633842
Si Si2 0.928664 0.684885 0.799537
Si Si3 0.803462 0.845956 0.285880
Si Si4 0.762446 0.046838 0.444665
Si Si5 0.066692 0.503738 0.440682
O O1 0.500000 0.566359 0.750000
O O2 0.421197 0.368336 0.753848
O O3 0.385636 0.415158 0.448955
O O4 0.346941 0.617322 0.553547
O O5 0.892887 0.587376 0.614168
O O6 0.015736 0.630167 0.932695
O O7 0.899949 0.619671 0.893414
O O8 0.795335 0.669225 0.216411
O O9 0.766008 0.883415 0.368581
O O10 0.762265 0.951792 0.104275
O O11 0.000000 0.594036 0.250000
#
# Coordination Sequence:
#
# PCOD9264884 Si02
#       5
#     8   8   8   8   8
#     4  10  19  35  68  96 135 171 217 279 345 388
#     4   8  13  26  47  79 119 166 208 262 315 377
#     4   9  21  42  71  99 128 181 225 276 329 408
#     4   9  21  42  71  95 137 175 230 268 338 405
#     4   7  12  22  47  68 123 165 207 244 319 378
#
# _framework density 26.769673999999998
#
# number of rings (size 3 to 8) (size 9 to 14) (size 15 to 20)
#    2.400    0.800    2.000    0.000    0.000    1.600 
#    0.000    4.000    8.800    1.200    0.000    2.800 
#    0.000    0.000    0.000    0.000    0.000    0.000 
#
# Total GULP energy -111441.357098 kJ/mol
# GULP energy per Si atom -5572.067855 kJ/mol
# Density = 2.670874 g / cm^3
# Si number density = 26.769674 Si / 1000 Ang^3
#
#
#
# Elastic Constant Matrix: (Units=GPa)
#
#
# Indices 1 2 3 4 5 6 
#
# 1 33.9699 14.0839 16.3527 0.0000 12.6366 0.0000
# 2 14.0839 81.6166 9.5930 0.0000 -13.1599 0.0000
# 3 16.3527 9.5930 61.5733 0.0000 4.2878 0.0000
# 4 0.0000 0.0000 0.0000 11.5812 0.0000 1.0456
# 5 12.6366 -13.1599 4.2878 0.0000 63.7489 0.0000
# 6 0.0000 0.0000 0.0000 1.0456 0.0000 30.4952
#
#
#
# Elastic Compliance Matrix: (Units=1/GPa)
#
#
# Indices 1 2 3 4 5 6 
#
# 1 0.040022 -0.007288 -0.008878 0.000000 -0.008841 0.000000
# 2 -0.007288 0.014296 -0.000601 0.000000 0.004436 0.000000
# 3 -0.008878 -0.000601 0.018666 0.000000 0.000380 0.000000
# 4 0.000000 0.000000 0.000000 0.086615 0.000000 -0.002970
# 5 -0.008841 0.004436 0.000380 0.000000 0.018329 0.000000
# 6 0.000000 0.000000 0.000000 -0.002970 0.000000 0.032894
#
#
# Mechanical properties :
#
#
# Convention : Reuss Voigt Hill
#
# Bulk Modulus (GPa) = 25.34849 28.57989 26.96419
# Shear Modulus (GPa) = 19.41710 30.30709 24.86209
#
# Velocity S-wave (km/s) = 2.69613 3.36838 3.05083
# Velocity P-wave (km/s) = 4.37971 5.08207 4.74390
#
# Compressibility (1/GPa) = 0.03945007
#
# Stress axis : x y z
#
# Youngs Moduli (GPa) = 24.98631 69.94978 53.57421
#
# Poissons Ratio (x) = 0.50981 0.47563
# Poissons Ratio (y) = 0.18211 0.03218
# Poissons Ratio (z) = 0.22183 0.04201
#
# Static dielectric constant tensor:
#      x y z
#    x 2.154940 0.000000 0.035540 
#    y 0.000000 2.044960 0.000000 
#    z 0.035540 0.000000 2.193950 
# 
# From -- ./inp_files/125742.got.cif
#   From: 2010.05.17/outbox.cif.g08.bks.cpg/sg15_63_cif.got.tgz:125742.got - 2010.06.03 18:47:42.
