data_PCOD9264929
_publ_section_title
;
Structure prediction by ZEFSAII (Michael W. Deem and Ramdas Pophale) SiO2 
 PCOD9264929
Probable space group: C 2/C
;
_chemical_formula_sum "Si O2"
_cell_formula_units_Z 56
_cell_length_a 25.568282
_cell_length_b 15.136138
_cell_length_c 14.099669
_cell_angle_alpha 90.000000
_cell_angle_beta 154.026672
_cell_angle_gamma 90.000000
_cell_volume 2389.751538
_symmetry_space_group_name_H-M "C 2/C"
_symmetry_group_IT_number 15
_symmetry_cell_setting 'monoclinic'
loop_
_space_group_symop_operation_xyz
x,y,z
-x,y,1/2-z
-x,-y,-z
x,-y,1/2+z
1/2+x,1/2+y,z
1/2-x,1/2+y,1/2-z
1/2-x,1/2-y,-z
1/2+x,1/2-y,1/2+z
loop_
_atom_site_type_symbol
_atom_site_label
_atom_site_fract_x
_atom_site_fract_y
_atom_site_fract_z
Si Si1 0.863339 0.457012 0.996703
Si Si2 0.191246 0.137194 0.502400
Si Si3 0.320232 0.325479 0.718044
Si Si4 0.380645 0.710242 0.520199
Si Si5 0.295573 0.650295 0.569253
Si Si6 0.196064 0.870334 0.215768
Si Si7 0.365413 0.969426 0.789524
O O1 0.000000 0.469796 0.250000
O O2 0.794992 0.388008 0.952214
O O3 0.787104 0.546899 0.866184
O O4 0.859086 0.421615 0.881413
O O5 0.275521 0.224379 0.638888
O O6 0.124536 0.145445 0.292698
O O7 0.130234 0.131735 0.506854
O O8 0.276693 0.052236 0.640269
O O9 0.391838 0.330642 0.933777
O O10 0.500000 0.758774 0.750000
O O11 0.360227 0.641165 0.573040
O O12 0.274316 0.780611 0.343001
O O13 0.250000 0.750000 0.500000
O O14 0.362803 0.627531 0.775957
O O15 0.176494 0.592491 0.363725
O O16 0.500000 0.000000 0.000000
#
# Coordination Sequence:
#
# PCOD9264929 Si02
#       7
#     8   8   8   8   8   8   8
#     4  11  20  33  58  91 124 152 190 249 311 372
#     4   9  20  34  57  79 118 162 192 237 300 371
#     4  10  19  36  54  82 116 156 204 240 291 364
#     4  10  20  36  58  83 114 157 204 247 301 365
#     4  10  20  35  56  88 123 156 193 253 307 368
#     4   9  19  34  57  87 116 152 189 246 312 368
#     4  11  21  36  60  96 127 154 199 254 326 374
#
# _framework density 23.433398
#
# number of rings (size 3 to 8) (size 9 to 14) (size 15 to 20)
#    0.000    2.000    1.429    3.000    0.000    5.714 
#    0.000    0.000    0.000    4.286    0.000    0.000 
#    0.000    0.000    0.000    0.000    0.000    0.000 
#
# Total GULP energy -156175.602682 kJ/mol
# GULP energy per Si atom -5577.700096 kJ/mol
# Density = 2.338006 g / cm^3
# Si number density = 23.433398 Si / 1000 Ang^3
#
#
#
# Elastic Constant Matrix: (Units=GPa)
#
#
# Indices 1 2 3 4 5 6 
#
# 1 132.5964 17.1293 63.4078 0.0000 -61.8626 0.0000
# 2 17.1293 88.1994 25.5951 0.0000 -4.2219 0.0000
# 3 63.4078 25.5951 118.5905 0.0000 -45.9424 0.0000
# 4 0.0000 0.0000 0.0000 14.7516 0.0000 -15.3066
# 5 -61.8626 -4.2219 -45.9424 0.0000 52.0164 0.0000
# 6 0.0000 0.0000 0.0000 -15.3066 0.0000 17.8767
#
#
#
# Elastic Compliance Matrix: (Units=1/GPa)
#
#
# Indices 1 2 3 4 5 6 
#
# 1 0.017575 -0.002075 -0.001394 0.000000 0.019502 0.000000
# 2 -0.002075 0.012481 -0.003265 0.000000 -0.004339 0.000000
# 3 -0.001394 -0.003265 0.013890 0.000000 0.010346 0.000000
# 4 0.000000 0.000000 0.000000 0.607680 0.000000 0.520315
# 5 0.019502 -0.004339 0.010346 0.000000 0.051204 0.000000
# 6 0.000000 0.000000 0.000000 0.520315 0.000000 0.501450
#
#
# Mechanical properties :
#
#
# Convention : Reuss Voigt Hill
#
# Bulk Modulus (GPa) = 32.81056 61.29451 47.05254
# Shear Modulus (GPa) = 4.07197 32.47922 18.27559
#
# Velocity S-wave (km/s) = 1.31964 3.72697 2.79569
# Velocity P-wave (km/s) = 4.04400 6.68836 5.52667
#
# Compressibility (1/GPa) = 0.03047799
#
# Stress axis : x y z
#
# Youngs Moduli (GPa) = 56.89867 80.12328 71.99311
#
# Poissons Ratio (x) = 0.16628 0.10035
# Poissons Ratio (y) = 0.11808 0.23505
# Poissons Ratio (z) = 0.07931 0.26160
#
# Static dielectric constant tensor:
#      x y z
#    x 2.030860 0.000000 -0.052690 
#    y 0.000000 1.858710 0.000000 
#    z -0.052690 0.000000 1.882040 
# 
# From -- ./inp_files/182146.got.cif
#   From: 2010.05.17/outbox.cif.g08.bks.cpg/sg15_92_cif.got.tgz:182146.got - 2010.06.03 18:47:42.
