data_PCOD9264016
_publ_section_title
;
Structure prediction by ZEFSAII (Michael W. Deem and Ramdas Pophale) SiO2 
 PCOD9264016
Probable space group: C 2/C
;
_chemical_formula_sum "Si O2"
_cell_formula_units_Z 40
_cell_length_a 11.970838
_cell_length_b 25.363459
_cell_length_c 9.418039
_cell_angle_alpha 90.000000
_cell_angle_beta 53.594369
_cell_angle_gamma 90.000000
_cell_volume 2301.445149
_symmetry_space_group_name_H-M "C 2/C"
_symmetry_group_IT_number 15
_symmetry_cell_setting 'monoclinic'
loop_
_space_group_symop_operation_xyz
x,y,z
-x,y,1/2-z
-x,-y,-z
x,-y,1/2+z
1/2+x,1/2+y,z
1/2-x,1/2+y,1/2-z
1/2-x,1/2-y,-z
1/2+x,1/2-y,1/2+z
loop_
_atom_site_type_symbol
_atom_site_label
_atom_site_fract_x
_atom_site_fract_y
_atom_site_fract_z
Si Si1 0.149610 0.734736 0.706033
Si Si2 0.622394 0.542734 0.773279
Si Si3 0.920480 0.071398 0.173142
Si Si4 0.877265 0.172013 0.045288
Si Si5 0.699028 0.343927 0.206424
O O1 0.250000 0.750000 0.500000
O O2 0.143155 0.781741 0.826767
O O3 0.204049 0.684825 0.754173
O O4 0.000000 0.725982 0.750000
O O5 0.500000 0.549486 0.750000
O O6 0.666299 0.481715 0.728548
O O7 0.721157 0.592891 0.680435
O O8 0.547826 0.551451 0.979789
O O9 0.841346 0.116811 0.149396
O O10 0.000000 0.093749 0.250000
O O11 0.796313 0.178111 0.957909
O O12 0.040433 0.166040 0.880322
#
# Coordination Sequence:
#
# PCOD9264016 Si02
#       5
#     8   8   8   8   8
#     4  12  24  38  55  80 109 142 186 229 272 318
#     4   9  15  28  46  77 111 138 167 220 276 321
#     4   9  16  24  47  78 113 134 170 218 278 313
#     4  10  19  35  53  80 111 143 177 224 272 326
#     4  10  19  35  54  75 112 146 178 217 274 325
#
# _framework density 17.380383999999999
#
# number of rings (size 3 to 8) (size 9 to 14) (size 15 to 20)
#    0.000    2.000    6.000    1.200    2.800    0.000 
#    0.000    0.000    0.000    0.000    0.000    5.600 
#    0.000    0.000    0.000    0.000    0.000    0.000 
#
# Total GULP energy -111360.244893 kJ/mol
# GULP energy per Si atom -5568.012245 kJ/mol
# Density = 1.734083 g / cm^3
# Si number density = 17.380384 Si / 1000 Ang^3
#
#
#
# Elastic Constant Matrix: (Units=GPa)
#
#
# Indices 1 2 3 4 5 6 
#
# 1 102.1685 51.2903 40.8665 0.0000 24.3823 0.0000
# 2 51.2903 125.1968 21.9441 0.0000 17.2791 0.0000
# 3 40.8665 21.9441 67.2341 0.0000 27.8560 0.0000
# 4 0.0000 0.0000 0.0000 24.5462 0.0000 13.0108
# 5 24.3823 17.2791 27.8560 0.0000 28.3650 0.0000
# 6 0.0000 0.0000 0.0000 13.0108 0.0000 18.8885
#
#
#
# Elastic Compliance Matrix: (Units=1/GPa)
#
#
# Indices 1 2 3 4 5 6 
#
# 1 0.015699 -0.004725 -0.006072 0.000000 -0.004653 0.000000
# 2 -0.004725 0.010190 0.000734 0.000000 -0.002866 0.000000
# 3 -0.006072 0.000734 0.027562 0.000000 -0.022294 0.000000
# 4 0.000000 0.000000 0.000000 0.064168 0.000000 -0.044200
# 5 -0.004653 -0.002866 -0.022294 0.000000 0.062895 0.000000
# 6 0.000000 0.000000 0.000000 -0.044200 0.000000 0.083388
#
#
# Mechanical properties :
#
#
# Convention : Reuss Voigt Hill
#
# Bulk Modulus (GPa) = 30.00860 58.08904 44.04882
# Shear Modulus (GPa) = 16.94127 26.39319 21.66723
#
# Velocity S-wave (km/s) = 3.12546 3.90110 3.53462
# Velocity P-wave (km/s) = 5.50708 7.33391 6.48514
#
# Compressibility (1/GPa) = 0.03332378
#
# Stress axis : x y z
#
# Youngs Moduli (GPa) = 63.69780 98.13369 36.28226
#
# Poissons Ratio (x) = 0.46369 0.22032
# Poissons Ratio (y) = 0.30097 -0.02662
# Poissons Ratio (z) = 0.38679 -0.07200
#
# Static dielectric constant tensor:
#      x y z
#    x 1.592040 0.000000 0.038230 
#    y 0.000000 1.674610 0.000000 
#    z 0.038230 0.000000 1.621260 
# 
# From -- ./inp_files/31327.got.cif
#   From: 2010.05.17/outbox.cif.g08.bks.cpg/sg15_16_cif.got.tgz:31327.got - 2010.06.03 18:47:42.
