data_PCOD9264685
_publ_section_title
;
Structure prediction by ZEFSAII (Michael W. Deem and Ramdas Pophale) SiO2 
 PCOD9264685
Probable space group: C 2/C
;
_chemical_formula_sum "Si O2"
_cell_formula_units_Z 64
_cell_length_a 32.700634
_cell_length_b 14.690937
_cell_length_c 9.508128
_cell_angle_alpha 90.000000
_cell_angle_beta 138.387006
_cell_angle_gamma 90.000000
_cell_volume 3033.412095
_symmetry_space_group_name_H-M "C 2/C"
_symmetry_group_IT_number 15
_symmetry_cell_setting 'monoclinic'
loop_
_space_group_symop_operation_xyz
x,y,z
-x,y,1/2-z
-x,-y,-z
x,-y,1/2+z
1/2+x,1/2+y,z
1/2-x,1/2+y,1/2-z
1/2-x,1/2-y,-z
1/2+x,1/2-y,1/2+z
loop_
_atom_site_type_symbol
_atom_site_label
_atom_site_fract_x
_atom_site_fract_y
_atom_site_fract_z
Si Si1 0.101974 0.195230 0.299885
Si Si2 0.857373 0.654853 0.370151
Si Si3 0.684787 0.423769 0.856423
Si Si4 0.534109 0.068471 0.983009
Si Si5 0.071096 0.048791 0.455380
Si Si6 0.985413 0.270261 0.859494
Si Si7 0.235621 0.070439 0.189769
Si Si8 0.377348 0.309927 0.200652
O O1 0.110319 0.283941 0.422437
O O2 0.160825 0.172258 0.354735
O O3 0.091684 0.105095 0.369600
O O4 0.042524 0.208398 0.049676
O O5 0.895524 0.574154 0.389903
O O6 0.797463 0.611265 0.284153
O O7 0.850455 0.730184 0.229914
O O8 0.622917 0.475837 0.636567
O O9 0.732200 0.428449 0.849137
O O10 0.717330 0.475374 0.070042
O O11 0.500000 0.063006 0.750000
O O12 0.524270 0.163856 0.034658
O O13 0.500000 0.000000 0.000000
O O14 0.076704 0.126666 0.589537
O O15 0.000000 0.017895 0.250000
O O16 0.919710 0.221910 0.681422
O O17 0.000000 0.318050 0.750000
O O18 0.179584 0.133798 0.998076
#
# Coordination Sequence:
#
# PCOD9264685 Si02
#       8
#     8   8   8   8   8   8   8   8
#     4  11  21  40  65  96 128 172 220 269 327 383
#     4  10  23  41  70  91 124 173 216 275 329 388
#     4  11  24  39  62  91 134 174 217 270 317 389
#     4  11  23  43  69  98 126 162 211 273 340 390
#     4  10  19  35  61  92 129 174 211 258 321 378
#     4  11  21  37  64  99 132 164 211 269 321 389
#     4  11  23  43  60  93 130 171 220 265 326 385
#     4   9  20  36  63  91 124 172 216 259 317 393
#
# _framework density 21.098352999999999
#
# number of rings (size 3 to 8) (size 9 to 14) (size 15 to 20)
#    0.000    1.500    3.750    1.500    0.000    3.500 
#    0.000    0.000    0.000    0.000    0.000    0.000 
#    0.000    0.000    0.000    0.000    0.000    0.000 
#
# Total GULP energy -178395.787369 kJ/mol
# GULP energy per Si atom -5574.868355 kJ/mol
# Density = 2.105033 g / cm^3
# Si number density = 21.098353 Si / 1000 Ang^3
#
#
#
# Elastic Constant Matrix: (Units=GPa)
#
#
# Indices 1 2 3 4 5 6 
#
# 1 152.4276 34.9720 32.3304 0.0000 -13.3165 0.0000
# 2 34.9720 31.3361 -0.8596 0.0000 9.3320 0.0000
# 3 32.3304 -0.8596 30.5238 0.0000 -7.6407 0.0000
# 4 0.0000 0.0000 0.0000 3.1463 0.0000 7.5980
# 5 -13.3165 9.3320 -7.6407 0.0000 31.5500 0.0000
# 6 0.0000 0.0000 0.0000 7.5980 0.0000 30.0970
#
#
#
# Elastic Compliance Matrix: (Units=1/GPa)
#
#
# Indices 1 2 3 4 5 6 
#
# 1 0.014714 -0.019350 -0.013991 0.000000 0.008546 0.000000
# 2 -0.019350 0.060525 0.016686 0.000000 -0.022029 0.000000
# 3 -0.013991 0.016686 0.048262 0.000000 0.000847 0.000000
# 4 0.000000 0.000000 0.000000 0.814185 0.000000 -0.205541
# 5 0.008546 -0.022029 0.000847 0.000000 0.042024 0.000000
# 6 0.000000 0.000000 0.000000 -0.205541 0.000000 0.085115
#
#
# Mechanical properties :
#
#
# Convention : Reuss Voigt Hill
#
# Bulk Modulus (GPa) = 11.08752 38.57479 24.83115
# Shear Modulus (GPa) = 4.43184 22.81499 13.62341
#
# Velocity S-wave (km/s) = 1.45090 3.29198 2.54384
# Velocity P-wave (km/s) = 2.84137 5.72473 4.51917
#
# Compressibility (1/GPa) = 0.09019153
#
# Stress axis : x y z
#
# Youngs Moduli (GPa) = 67.96169 16.52196 20.72008
#
# Poissons Ratio (x) = 0.31970 0.28989
# Poissons Ratio (y) = 1.31507 -0.34573
# Poissons Ratio (z) = 0.95084 -0.27568
#
# Static dielectric constant tensor:
#      x y z
#    x 1.780420 0.000000 -0.041330 
#    y 0.000000 1.831190 0.000000 
#    z -0.041330 0.000000 1.735630 
# 
# From -- ./inp_files/70144.got.cif
#   From: 2010.05.17/outbox.cif.g08.bks.cpg/sg15_36_cif.got.tgz:70144.got - 2010.06.03 18:47:42.
