data_PCOD9264971
_publ_section_title
;
Structure prediction by ZEFSAII (Michael W. Deem and Ramdas Pophale) SiO2 
 PCOD9264971
Probable space group: C 2/C
;
_chemical_formula_sum "Si O2"
_cell_formula_units_Z 44
_cell_length_a 13.615321
_cell_length_b 20.686260
_cell_length_c 8.028481
_cell_angle_alpha 90.000000
_cell_angle_beta 78.499365
_cell_angle_gamma 90.000000
_cell_volume 2215.822536
_symmetry_space_group_name_H-M "C 2/C"
_symmetry_group_IT_number 15
_symmetry_cell_setting 'monoclinic'
loop_
_space_group_symop_operation_xyz
x,y,z
-x,y,1/2-z
-x,-y,-z
x,-y,1/2+z
1/2+x,1/2+y,z
1/2-x,1/2+y,1/2-z
1/2-x,1/2-y,-z
1/2+x,1/2-y,1/2+z
loop_
_atom_site_type_symbol
_atom_site_label
_atom_site_fract_x
_atom_site_fract_y
_atom_site_fract_z
Si Si1 0.298913 0.260160 0.228080
Si Si2 0.589181 0.768638 0.496883
Si Si3 0.710901 0.643110 0.072054
Si Si4 0.069164 0.418065 0.479411
Si Si5 0.640464 0.041395 0.590068
Si Si6 0.000000 0.183686 0.250000
O O1 0.386166 0.261992 0.333781
O O2 0.193220 0.267440 0.358573
O O3 0.288188 0.189844 0.145391
O O4 0.304834 0.316925 0.092893
O O5 0.566375 0.843614 0.526409
O O6 0.511745 0.730434 0.406761
O O7 0.602746 0.643501 0.198167
O O8 0.760743 0.574453 0.016870
O O9 0.129754 0.463874 0.586107
O O10 0.119857 0.430606 0.281012
O O11 0.953954 0.438266 0.492313
#
# Coordination Sequence:
#
# PCOD9264971 Si02
#       6
#     8   8   8   8   8   4
#     4   9  20  33  57  83 113 154 186 234 307 335
#     4  10  19  36  55  88 117 145 190 239 289 359
#     4  10  20  38  54  83 118 158 193 240 288 346
#     4  10  21  35  56  84 113 153 183 239 280 351
#     4  10  21  37  55  81 119 148 194 227 289 343
#     4  10  22  36  60  84 122 154 190 248 292 336
#
# _framework density 19.857187
#
# number of rings (size 3 to 8) (size 9 to 14) (size 15 to 20)
#    0.000    2.182    1.818    1.091    7.636    0.727 
#    0.000    0.000    0.000    1.091    0.000    0.000 
#    0.000    0.000    0.000    0.000    0.000    0.000 
#
# Total GULP energy -122835.893691 kJ/mol
# GULP energy per Si atom -5583.449713 kJ/mol
# Density = 1.981199 g / cm^3
# Si number density = 19.857187 Si / 1000 Ang^3
#
#
#
# Elastic Constant Matrix: (Units=GPa)
#
#
# Indices 1 2 3 4 5 6 
#
# 1 76.7858 29.2703 24.5380 0.0000 -4.1570 0.0000
# 2 29.2703 43.9707 9.4220 0.0000 -11.0530 0.0000
# 3 24.5380 9.4220 64.0759 0.0000 9.9153 0.0000
# 4 0.0000 0.0000 0.0000 15.1667 0.0000 -7.5793
# 5 -4.1570 -11.0530 9.9153 0.0000 34.4444 0.0000
# 6 0.0000 0.0000 0.0000 -7.5793 0.0000 21.1600
#
#
#
# Elastic Compliance Matrix: (Units=1/GPa)
#
#
# Indices 1 2 3 4 5 6 
#
# 1 0.019261 -0.011526 -0.005723 0.000000 0.000273 0.000000
# 2 -0.011526 0.033333 -0.002017 0.000000 0.009886 0.000000
# 3 -0.005723 -0.002017 0.019155 0.000000 -0.006852 0.000000
# 4 0.000000 0.000000 0.000000 0.080309 0.000000 0.028766
# 5 0.000273 0.009886 -0.006852 0.000000 0.034210 0.000000
# 6 0.000000 0.000000 0.000000 0.028766 0.000000 0.057563
#
#
# Mechanical properties :
#
#
# Convention : Reuss Voigt Hill
#
# Bulk Modulus (GPa) = 30.10700 34.58811 32.34756
# Shear Modulus (GPa) = 17.03949 22.26101 19.65025
#
# Velocity S-wave (km/s) = 2.93252 3.35185 3.14917
# Velocity P-wave (km/s) = 5.16342 5.69527 5.43585
#
# Compressibility (1/GPa) = 0.03321486
#
# Stress axis : x y z
#
# Youngs Moduli (GPa) = 51.91882 30.00074 52.20517
#
# Poissons Ratio (x) = 0.34580 0.29879
# Poissons Ratio (y) = 0.59844 0.10530
# Poissons Ratio (z) = 0.29715 0.06051
#
# Static dielectric constant tensor:
#      x y z
#    x 1.718260 0.000000 -0.019940 
#    y 0.000000 1.716170 0.000000 
#    z -0.019940 0.000000 1.758240 
# 
# From -- ./inp_files/30870.got.cif
#   From: 2010.05.17/outbox.cif.g08.bks.cpg/sg15_16_cif.got.tgz:30870.got - 2010.06.03 18:47:42.
