data_PCOD9264541
_publ_section_title
;
Structure prediction by ZEFSAII (Michael W. Deem and Ramdas Pophale) SiO2 
 PCOD9264541
Probable space group: C 2/C
;
_chemical_formula_sum "Si O2"
_cell_formula_units_Z 56
_cell_length_a 19.809879
_cell_length_b 11.073224
_cell_length_c 24.499892
_cell_angle_alpha 90.000000
_cell_angle_beta 155.904973
_cell_angle_gamma 90.000000
_cell_volume 2194.055348
_symmetry_space_group_name_H-M "C 2/C"
_symmetry_group_IT_number 15
_symmetry_cell_setting 'monoclinic'
loop_
_space_group_symop_operation_xyz
x,y,z
-x,y,1/2-z
-x,-y,-z
x,-y,1/2+z
1/2+x,1/2+y,z
1/2-x,1/2+y,1/2-z
1/2-x,1/2-y,-z
1/2+x,1/2-y,1/2+z
loop_
_atom_site_type_symbol
_atom_site_label
_atom_site_fract_x
_atom_site_fract_y
_atom_site_fract_z
Si Si1 0.804905 0.163680 0.093213
Si Si2 0.923162 0.768424 0.265788
Si Si3 0.350222 0.129718 0.860884
Si Si4 0.488500 0.986586 0.613180
Si Si5 0.920943 0.811343 0.415185
Si Si6 0.685352 0.624786 0.017046
Si Si7 0.755431 0.394303 0.120998
O O1 0.758326 0.257151 0.106570
O O2 0.000000 0.140899 0.250000
O O3 0.750000 0.250000 0.000000
O O4 0.694575 0.043115 0.020003
O O5 0.787905 0.860656 0.192942
O O6 0.836119 0.705990 0.149982
O O7 0.974123 0.651456 0.341693
O O8 0.093975 0.841076 0.394294
O O9 0.419692 0.018656 0.876402
O O10 0.253970 0.207907 0.743667
O O11 0.501950 0.196885 0.999394
O O12 0.579487 0.063513 0.727424
O O13 0.884771 0.905440 0.436593
O O14 0.050673 0.856607 0.466068
O O15 0.730706 0.485064 0.052920
#
# Coordination Sequence:
#
# PCOD9264541 Si02
#       7
#     8   8   8   8   8   8   8
#     4  12  24  41  62  85 111 149 204 250 293 335
#     4   9  19  35  55  84 122 155 188 227 282 358
#     4   9  17  30  50  79 114 150 184 218 275 346
#     4  10  20  38  59  82 121 157 184 242 296 334
#     4   9  16  29  51  80 111 152 185 217 273 344
#     4   9  18  34  54  84 117 154 187 222 282 352
#     4  10  19  35  60  80 112 151 191 239 288 345
#
# _framework density 25.523513000000001
#
# number of rings (size 3 to 8) (size 9 to 14) (size 15 to 20)
#    0.000    2.286    2.857    0.429    0.000    3.429 
#    2.571    6.429    0.000    1.714    0.000    0.000 
#    0.000    0.000    0.000    0.000    0.000    0.000 
#
# Total GULP energy -156197.981926 kJ/mol
# GULP energy per Si atom -5578.499354 kJ/mol
# Density = 2.546542 g / cm^3
# Si number density = 25.523513 Si / 1000 Ang^3
#
#
#
# Elastic Constant Matrix: (Units=GPa)
#
#
# Indices 1 2 3 4 5 6 
#
# 1 75.5710 50.7600 36.9589 0.0007 20.6946 0.0001
# 2 50.7600 73.2091 61.0822 0.0006 2.0895 -0.0001
# 3 36.9589 61.0822 146.9385 0.0149 15.2582 -0.0028
# 4 0.0007 0.0006 0.0149 25.5268 -0.0022 -9.6388
# 5 20.6946 2.0895 15.2582 -0.0022 26.7071 -0.0003
# 6 0.0001 -0.0001 -0.0028 -9.6388 -0.0003 35.9368
#
#
#
# Elastic Compliance Matrix: (Units=1/GPa)
#
#
# Indices 1 2 3 4 5 6 
#
# 1 0.041842 -0.033982 0.007115 -0.000008 -0.033828 -0.000002
# 2 -0.033982 0.048831 -0.014978 0.000012 0.031068 0.000003
# 3 0.007115 -0.014978 0.012431 -0.000009 -0.011443 -0.000002
# 4 -0.000008 0.000012 -0.000009 0.043589 0.000014 0.011691
# 5 -0.033828 0.031068 -0.011443 0.000014 0.067762 0.000004
# 6 -0.000002 0.000003 -0.000002 0.011691 0.000004 0.030962
#
#
# Mechanical properties :
#
#
# Convention : Reuss Voigt Hill
#
# Bulk Modulus (GPa) = 51.51103 65.92453 58.71778
# Shear Modulus (GPa) = 14.89965 27.42865 21.16415
#
# Velocity S-wave (km/s) = 2.41874 3.28173 2.88271
# Velocity P-wave (km/s) = 5.29396 6.34387 5.84255
#
# Compressibility (1/GPa) = 0.01941332
#
# Stress axis : x y z
#
# Youngs Moduli (GPa) = 23.89955 20.47877 80.44691
#
# Poissons Ratio (x) = 0.69591 -0.57235
# Poissons Ratio (y) = 0.81215 1.20492
# Poissons Ratio (z) = -0.17004 0.30673
#
# Static dielectric constant tensor:
#      x y z
#    x 2.121640 0.000000 0.019220 
#    y 0.000000 1.978800 0.000000 
#    z 0.019220 0.000000 2.040260 
# 
# From -- ./inp_files/318802.got.cif
#   From: 2010.05.17/outbox.cif.g08.bks.cpg/sg15_160_cif.got.tgz:318802.got - 2010.06.03 18:47:42.
