data_PCOD9264882
_publ_section_title
;
Structure prediction by ZEFSAII (Michael W. Deem and Ramdas Pophale) SiO2 
 PCOD9264882
Probable space group: C 2/C
;
_chemical_formula_sum "Si O2"
_cell_formula_units_Z 52
_cell_length_a 10.828478
_cell_length_b 17.354076
_cell_length_c 22.590636
_cell_angle_alpha 90.000000
_cell_angle_beta 39.995906
_cell_angle_gamma 90.000000
_cell_volume 2728.524659
_symmetry_space_group_name_H-M "C 2/C"
_symmetry_group_IT_number 15
_symmetry_cell_setting 'monoclinic'
loop_
_space_group_symop_operation_xyz
x,y,z
-x,y,1/2-z
-x,-y,-z
x,-y,1/2+z
1/2+x,1/2+y,z
1/2-x,1/2+y,1/2-z
1/2-x,1/2-y,-z
1/2+x,1/2-y,1/2+z
loop_
_atom_site_type_symbol
_atom_site_label
_atom_site_fract_x
_atom_site_fract_y
_atom_site_fract_z
Si Si1 0.291037 0.834103 0.223401
Si Si2 0.000000 0.069985 0.750000
Si Si3 0.257562 0.659403 0.213508
Si Si4 0.671937 0.065182 0.581080
Si Si5 0.552190 0.387848 0.417135
Si Si6 0.342121 0.885449 0.884784
Si Si7 0.437054 0.532368 0.381805
O O1 0.327301 0.746766 0.191436
O O2 0.483582 0.883869 0.157563
O O3 0.177811 0.836444 0.327260
O O4 0.153174 0.876486 0.226910
O O5 0.097436 0.015232 0.665140
O O6 0.219631 0.634692 0.159438
O O7 0.412371 0.600790 0.183241
O O8 0.048560 0.651989 0.320706
O O9 0.839981 0.099223 0.560736
O O10 0.750447 0.061874 0.485221
O O11 0.635462 0.977612 0.615778
O O12 0.334838 0.360891 0.508614
O O13 0.533759 0.470824 0.391555
#
# Coordination Sequence:
#
# PCOD9264882 Si02
#       7
#     8   4   8   8   8   8   8
#     4  11  25  37  59  85 132 156 192 234 315 350
#     4  10  22  42  54  84 122 168 188 244 282 372
#     4  11  21  37  57  93 117 158 187 253 297 348
#     4  11  20  39  67  92 107 161 204 254 281 345
#     4  10  19  39  63  95 110 153 207 256 276 348
#     4  10  19  35  68  85 113 149 213 244 289 336
#     4  10  20  39  65  87 122 148 210 240 291 348
#
# _framework density 19.057918999999998
#
# number of rings (size 3 to 8) (size 9 to 14) (size 15 to 20)
#    0.000    1.538    3.077    4.154    2.154    1.846 
#    2.769    3.077    0.000    0.000    0.000    0.000 
#    0.000    0.000    0.000    0.000    0.000    0.000 
#
# Total GULP energy -145200.963953 kJ/mol
# GULP energy per Si atom -5584.652460 kJ/mol
# Density = 1.901454 g / cm^3
# Si number density = 19.057919 Si / 1000 Ang^3
#
#
#
# Elastic Constant Matrix: (Units=GPa)
#
#
# Indices 1 2 3 4 5 6 
#
# 1 17.9865 0.5926 11.1670 -0.0008 7.3024 0.0000
# 2 0.5926 48.8240 8.8506 -0.0009 2.3836 0.0000
# 3 11.1670 8.8506 80.7538 -0.0012 -1.1957 -0.0020
# 4 -0.0008 -0.0009 -0.0012 -28.7413 -0.0010 7.4360
# 5 7.3024 2.3836 -1.1957 -0.0010 24.5820 0.0009
# 6 0.0000 0.0000 -0.0020 7.4360 0.0009 15.9527
#
#
#
# Elastic Compliance Matrix: (Units=1/GPa)
#
#
# Indices 1 2 3 4 5 6 
#
# 1 0.070766 0.002075 -0.010335 -0.000001 -0.021726 0.000000
# 2 0.002075 0.021071 -0.002638 0.000000 -0.002788 0.000000
# 3 -0.010335 -0.002638 0.014161 0.000000 0.004015 0.000002
# 4 -0.000001 0.000000 0.000000 -0.031049 -0.000001 0.014473
# 5 -0.021726 -0.002788 0.004015 -0.000001 0.047600 -0.000001
# 6 0.000000 0.000000 0.000002 0.014473 -0.000001 0.055939
#
#
# Mechanical properties :
#
#
# Convention : Reuss Voigt Hill
#
# Bulk Modulus (GPa) = 11.87603 20.97608 16.42605
# Shear Modulus (GPa) = 21.89616 10.82230 16.35923
#
# Velocity S-wave (km/s) = 3.39326 2.38557 2.93302
# Velocity P-wave (km/s) = 4.64730 4.31490 4.48418
#
# Compressibility (1/GPa) = 0.08420320
#
# Stress axis : x y z
#
# Youngs Moduli (GPa) = 14.13105 47.45905 70.61633
#
# Poissons Ratio (x) = -0.09849 0.72982
# Poissons Ratio (y) = -0.02933 0.18626
# Poissons Ratio (z) = 0.14605 0.12518
#
# Static dielectric constant tensor:
#      x y z
#    x 1.639290 0.000000 0.004140 
#    y 0.000000 1.634710 0.000000 
#    z 0.004140 0.000000 1.698410 
# 
# From -- ./inp_files/269914.got.cif
#   From: 2010.05.17/outbox.cif.g08.bks.cpg/sg15_135_cif.got.tgz:269914.got - 2010.06.03 18:47:42.
