data_PCOD9264998
_publ_section_title
;
Structure prediction by ZEFSAII (Michael W. Deem and Ramdas Pophale) SiO2 
 PCOD9264998
Probable space group: C 2/C
;
_chemical_formula_sum "Si O2"
_cell_formula_units_Z 52
_cell_length_a 13.140245
_cell_length_b 20.838966
_cell_length_c 15.220954
_cell_angle_alpha 90.000000
_cell_angle_beta 44.388359
_cell_angle_gamma 90.000000
_cell_volume 2915.550031
_symmetry_space_group_name_H-M "C 2/C"
_symmetry_group_IT_number 15
_symmetry_cell_setting 'monoclinic'
loop_
_space_group_symop_operation_xyz
x,y,z
-x,y,1/2-z
-x,-y,-z
x,-y,1/2+z
1/2+x,1/2+y,z
1/2-x,1/2+y,1/2-z
1/2-x,1/2-y,-z
1/2+x,1/2-y,1/2+z
loop_
_atom_site_type_symbol
_atom_site_label
_atom_site_fract_x
_atom_site_fract_y
_atom_site_fract_z
Si Si1 0.082665 0.441549 0.863537
Si Si2 0.587465 0.195553 0.288825
Si Si3 0.266695 0.525578 0.623423
Si Si4 0.000000 0.959486 0.250000
Si Si5 0.977625 0.095017 0.949643
Si Si6 0.841598 0.764177 0.532201
Si Si7 0.189909 0.483326 0.979881
O O1 0.130269 0.376381 0.788099
O O2 0.159939 0.501573 0.766454
O O3 0.124070 0.442630 0.940420
O O4 0.910145 0.452660 0.958435
O O5 0.500000 0.192710 0.250000
O O6 0.726192 0.240608 0.182791
O O7 0.482607 0.220402 0.430734
O O8 0.377961 0.581184 0.583038
O O9 0.365774 0.462362 0.542693
O O10 0.187864 0.541969 0.580634
O O11 0.020908 0.916491 0.322296
O O12 0.143743 0.001585 0.146821
O O13 0.901443 0.163383 0.002056
O O14 0.750000 0.750000 0.500000
#
# Coordination Sequence:
#
# PCOD9264998 Si02
#       7
#     8   8   8   4   8   8   8
#     4  11  20  37  54  84 118 153 189 244 301 359
#     4  10  21  35  54  76 112 151 191 237 295 352
#     4  10  19  36  56  82 112 150 189 241 294 358
#     4  10  20  32  50  84 110 140 178 232 280 358
#     4  10  20  33  56  79 114 145 186 237 295 348
#     4  10  22  35  52  82 110 156 191 236 293 353
#     4  10  22  32  55  85 114 148 192 235 302 354
#
# _framework density 17.8354
#
# number of rings (size 3 to 8) (size 9 to 14) (size 15 to 20)
#    0.000    1.846    3.077    1.385    9.692    0.000 
#    0.000    0.000    0.000    0.923    0.000    0.000 
#    0.000    0.000    0.000    0.000    0.000    0.000 
#
# Total GULP energy -144858.238969 kJ/mol
# GULP energy per Si atom -5571.470730 kJ/mol
# Density = 1.779481 g / cm^3
# Si number density = 17.835400 Si / 1000 Ang^3
#
#
#
# Elastic Constant Matrix: (Units=GPa)
#
#
# Indices 1 2 3 4 5 6 
#
# 1 99.5369 23.3739 26.1765 -0.0001 10.9897 0.0000
# 2 23.3739 41.1162 14.1862 -0.0001 -5.1100 0.0001
# 3 26.1765 14.1862 83.4661 -0.0004 -3.8816 0.0002
# 4 -0.0001 -0.0001 -0.0004 28.5619 0.0002 -3.8747
# 5 10.9897 -5.1100 -3.8816 0.0002 27.5378 -0.0001
# 6 0.0000 0.0001 0.0002 -3.8747 -0.0001 18.4614
#
#
#
# Elastic Compliance Matrix: (Units=1/GPa)
#
#
# Indices 1 2 3 4 5 6 
#
# 1 0.013447 -0.007403 -0.003294 0.000000 -0.007204 0.000000
# 2 -0.007403 0.030405 -0.002462 0.000000 0.008249 0.000000
# 3 -0.003294 -0.002462 0.013561 0.000000 0.002769 0.000000
# 4 0.000000 0.000000 0.000000 0.036038 0.000000 0.007564
# 5 -0.007204 0.008249 0.002769 0.000000 0.041110 0.000000
# 6 0.000000 0.000000 0.000000 0.007564 0.000000 0.055755
#
#
# Mechanical properties :
#
#
# Convention : Reuss Voigt Hill
#
# Bulk Modulus (GPa) = 32.16059 39.06580 35.61320
# Shear Modulus (GPa) = 22.02663 25.60439 23.81551
#
# Velocity S-wave (km/s) = 3.51806 3.79303 3.65813
# Velocity P-wave (km/s) = 5.87991 6.41357 6.15253
#
# Compressibility (1/GPa) = 0.03109395
#
# Stress axis : x y z
#
# Youngs Moduli (GPa) = 74.36818 32.88970 73.73966
#
# Poissons Ratio (x) = 0.24348 0.24289
# Poissons Ratio (y) = 0.55055 0.18157
# Poissons Ratio (z) = 0.24496 0.08099
#
# Static dielectric constant tensor:
#      x y z
#    x 1.623370 0.000000 -0.025950 
#    y 0.000000 1.619830 0.000000 
#    z -0.025950 0.000000 1.679170 
# 
# From -- ./inp_files/127160.got.cif
#   From: 2010.05.17/outbox.cif.g08.bks.cpg/sg15_64_cif.got.tgz:127160.got - 2010.06.03 18:47:42.
