data_PCOD9264041
_publ_section_title
;
Structure prediction by ZEFSAII (Michael W. Deem and Ramdas Pophale) SiO2 
 PCOD9264041
Probable space group: C 2/C
;
_chemical_formula_sum "Si O2"
_cell_formula_units_Z 64
_cell_length_a 17.613078
_cell_length_b 17.912714
_cell_length_c 23.306436
_cell_angle_alpha 90.000000
_cell_angle_beta 149.950415
_cell_angle_gamma 90.000000
_cell_volume 3682.076937
_symmetry_space_group_name_H-M "C 2/C"
_symmetry_group_IT_number 15
_symmetry_cell_setting 'monoclinic'
loop_
_space_group_symop_operation_xyz
x,y,z
-x,y,1/2-z
-x,-y,-z
x,-y,1/2+z
1/2+x,1/2+y,z
1/2-x,1/2+y,1/2-z
1/2-x,1/2-y,-z
1/2+x,1/2-y,1/2+z
loop_
_atom_site_type_symbol
_atom_site_label
_atom_site_fract_x
_atom_site_fract_y
_atom_site_fract_z
Si Si1 0.853675 0.511699 0.233966
Si Si2 0.477020 0.490843 0.842153
Si Si3 0.358891 0.390272 0.345331
Si Si4 0.157214 0.867090 0.821800
Si Si5 0.838296 0.249540 0.276000
Si Si6 0.350081 0.177022 0.552931
Si Si7 0.684180 0.976460 0.423470
Si Si8 0.898025 0.117644 0.395086
O O1 0.770526 0.442962 0.211158
O O2 0.819449 0.505738 0.143823
O O3 0.768884 0.584704 0.202085
O O4 0.034786 0.506602 0.357912
O O5 0.410260 0.568539 0.820771
O O6 0.381237 0.447039 0.731567
O O7 0.469967 0.435612 0.893078
O O8 0.654309 0.495921 0.943077
O O9 0.293531 0.307588 0.296368
O O10 0.498843 0.389317 0.481332
O O11 0.198603 0.809949 0.798135
O O12 0.000000 0.842758 0.750000
O O13 0.285112 0.862515 0.953405
O O14 0.889232 0.200118 0.363532
O O15 0.980580 0.296383 0.345950
O O16 0.250000 0.250000 0.500000
O O17 0.332692 0.113610 0.589474
#
# Coordination Sequence:
#
# PCOD9264041 Si02
#       8
#     8   8   8   8   8   8   8   8
#     4  10  20  31  55  83 106 136 182 233 255 314
#     4  10  19  35  54  77 106 147 181 217 267 321
#     4  11  19  35  56  77 106 146 183 216 265 332
#     4  11  21  33  51  78 113 147 169 218 271 326
#     4  11  23  33  53  79 112 144 179 219 270 331
#     4  12  22  32  50  81 120 145 169 214 281 335
#     4  11  19  31  53  86 104 133 183 225 271 306
#     4  10  19  37  53  75 111 146 181 218 272 319
#
# _framework density 17.381494
#
# number of rings (size 3 to 8) (size 9 to 14) (size 15 to 20)
#    0.000    1.250    6.250    2.250    1.750    0.000 
#    0.000    0.625    2.750    0.750    3.250    0.000 
#    0.000    0.000    0.000    0.000    0.000    0.000 
#
# Total GULP energy -178602.539550 kJ/mol
# GULP energy per Si atom -5581.329361 kJ/mol
# Density = 1.734193 g / cm^3
# Si number density = 17.381494 Si / 1000 Ang^3
#
#
#
# Elastic Constant Matrix: (Units=GPa)
#
#
# Indices 1 2 3 4 5 6 
#
# 1 55.1119 26.2665 15.9302 0.0011 12.1924 0.0017
# 2 26.2665 60.9521 4.3850 0.0102 5.7034 0.0040
# 3 15.9302 4.3850 42.5137 0.0081 3.8430 0.0042
# 4 0.0011 0.0102 0.0081 21.3587 0.0007 4.0016
# 5 12.1924 5.7034 3.8430 0.0007 32.5549 0.0011
# 6 0.0017 0.0040 0.0042 4.0016 0.0011 32.3025
#
#
#
# Elastic Compliance Matrix: (Units=1/GPa)
#
#
# Indices 1 2 3 4 5 6 
#
# 1 0.027177 -0.010416 -0.008444 0.000007 -0.007357 0.000000
# 2 -0.010416 0.020763 0.001756 -0.000010 0.000056 -0.000001
# 3 -0.008444 0.001756 0.026530 -0.000010 -0.000277 -0.000002
# 4 0.000007 -0.000010 -0.000010 0.047932 -0.000001 -0.005938
# 5 -0.007357 0.000056 -0.000277 -0.000001 0.033495 -0.000001
# 6 0.000000 -0.000001 -0.000002 -0.005938 -0.000001 0.031693
#
#
# Mechanical properties :
#
#
# Convention : Reuss Voigt Hill
#
# Bulk Modulus (GPa) = 24.83678 27.97123 26.40400
# Shear Modulus (GPa) = 21.25672 24.70961 22.98317
#
# Velocity S-wave (km/s) = 3.50087 3.77451 3.64026
# Velocity P-wave (km/s) = 5.53730 5.92650 5.73520
#
# Compressibility (1/GPa) = 0.04026288
#
# Stress axis : x y z
#
# Youngs Moduli (GPa) = 36.79515 48.16182 37.69341
#
# Poissons Ratio (x) = 0.50165 0.31829
# Poissons Ratio (y) = 0.38325 -0.06620
# Poissons Ratio (z) = 0.31071 -0.08458
#
# Static dielectric constant tensor:
#      x y z
#    x 1.592500 0.000000 0.003690 
#    y 0.000000 1.591320 0.000000 
#    z 0.003690 0.000000 1.614320 
# 
# From -- ./inp_files/106438.got.cif
#   From: 2010.05.17/outbox.cif.g08.bks.cpg/sg15_54_cif.got.tgz:106438.got - 2010.06.03 18:47:42.
