data_PCOD9264180
_publ_section_title
;
Structure prediction by ZEFSAII (Michael W. Deem and Ramdas Pophale) SiO2 
 PCOD9264180
Probable space group: C 2/C
;
_chemical_formula_sum "Si O2"
_cell_formula_units_Z 44
_cell_length_a 13.524487
_cell_length_b 29.199398
_cell_length_c 5.624207
_cell_angle_alpha 90.000000
_cell_angle_beta 103.614856
_cell_angle_gamma 90.000000
_cell_volume 2158.626860
_symmetry_space_group_name_H-M "C 2/C"
_symmetry_group_IT_number 15
_symmetry_cell_setting 'monoclinic'
loop_
_space_group_symop_operation_xyz
x,y,z
-x,y,1/2-z
-x,-y,-z
x,-y,1/2+z
1/2+x,1/2+y,z
1/2-x,1/2+y,1/2-z
1/2-x,1/2-y,-z
1/2+x,1/2-y,1/2+z
loop_
_atom_site_type_symbol
_atom_site_label
_atom_site_fract_x
_atom_site_fract_y
_atom_site_fract_z
Si Si1 0.340112 0.900243 0.986400
Si Si2 0.387454 0.269752 0.577562
Si Si3 0.000000 0.472210 0.250000
Si Si4 0.677615 0.649870 0.145763
Si Si5 0.000000 0.650578 0.250000
Si Si6 0.333987 0.816483 0.340300
Si Si7 0.500000 0.314487 0.250000
O O1 0.396616 0.942035 0.152436
O O2 0.329882 0.861790 0.180550
O O3 0.233314 0.896114 0.776999
O O4 0.421788 0.881848 0.842222
O O5 0.500000 0.266666 0.750000
O O6 0.339494 0.316745 0.642691
O O7 0.329221 0.227539 0.667378
O O8 0.416536 0.280391 0.322130
O O9 0.000000 0.500000 0.500000
O O10 0.755064 0.675669 0.009718
O O11 0.567567 0.652139 0.955728
O O12 0.056342 0.681922 0.471846
#
# Coordination Sequence:
#
# PCOD9264180 Si02
#       7
#     8   8   4   8   4   8   4
#     4  11  22  39  61  93 123 168 210 258 334 402
#     4  10  21  36  53  85 121 173 223 273 320 365
#     4  12  27  46  73 104 142 170 208 275 346 425
#     4  10  23  36  59  83 127 164 230 265 324 383
#     4  10  19  35  56  84 126 170 210 266 314 397
#     4  11  21  34  58  85 124 170 219 271 320 396
#     4  10  22  41  53  80 126 172 224 281 316 364
#
# _framework density 20.383327999999999
#
# number of rings (size 3 to 8) (size 9 to 14) (size 15 to 20)
#    0.000    1.455    1.818    3.273    2.545   12.364 
#    0.000    1.818    0.000    0.000    0.000    1.273 
#    0.000    0.000    0.000    0.000    0.000    0.000 
#
# Total GULP energy -122556.615516 kJ/mol
# GULP energy per Si atom -5570.755251 kJ/mol
# Density = 2.033693 g / cm^3
# Si number density = 20.383328 Si / 1000 Ang^3
#
#
#
# Elastic Constant Matrix: (Units=GPa)
#
#
# Indices 1 2 3 4 5 6 
#
# 1 56.8760 24.6023 35.1992 0.0000 2.5087 0.0000
# 2 24.6023 78.0524 45.5689 0.0000 10.4766 0.0000
# 3 35.1992 45.5689 105.0405 0.0000 15.5871 0.0000
# 4 0.0000 0.0000 0.0000 -208.6020 0.0000 -180.4323
# 5 2.5087 10.4766 15.5871 0.0000 71.2122 0.0000
# 6 0.0000 0.0000 0.0000 -180.4323 0.0000 -116.4183
#
#
#
# Elastic Compliance Matrix: (Units=1/GPa)
#
#
# Indices 1 2 3 4 5 6 
#
# 1 0.023027 -0.003758 -0.006251 0.000000 0.001110 0.000000
# 2 -0.003758 0.017830 -0.006311 0.000000 -0.001109 0.000000
# 3 -0.006251 -0.006311 0.014658 0.000000 -0.002060 0.000000
# 4 0.000000 0.000000 0.000000 0.014076 0.000000 -0.021816
# 5 0.001110 -0.001109 -0.002060 0.000000 0.014617 0.000000
# 6 0.000000 0.000000 0.000000 -0.021816 0.000000 0.025222
#
#
# Mechanical properties :
#
#
# Convention : Reuss Voigt Hill
#
# Bulk Modulus (GPa) = 43.71439 50.07887 46.89663
# Shear Modulus (GPa) = 33.40114 -41.78837 -4.19362
#
# Velocity S-wave (km/s) = 4.05242 -4.53274 -1.43591
# Velocity P-wave (km/s) = 6.58702 1.66507 4.50646
#
# Compressibility (1/GPa) = 0.02287576
#
# Stress axis : x y z
#
# Youngs Moduli (GPa) = 43.42702 56.08562 68.22029
#
# Poissons Ratio (x) = 0.21076 0.42644
# Poissons Ratio (y) = 0.16319 0.43055
# Poissons Ratio (z) = 0.27146 0.35397
#
# Static dielectric constant tensor:
#      x y z
#    x 2.024120 0.000000 -0.386610 
#    y 0.000000 1.702800 0.000000 
#    z -0.386610 0.000000 2.719330 
# 
# From -- ./inp_files/8094.got.cif
#   From: 2010.05.17/outbox.cif.g08.bks.cpg/sg15_5_cif.got.tgz:8094.got - 2010.06.03 18:47:42.
