data_PCOD9264359
_publ_section_title
;
Structure prediction by ZEFSAII (Michael W. Deem and Ramdas Pophale) SiO2 
 PCOD9264359
Probable space group: C 2/C
;
_chemical_formula_sum "Si O2"
_cell_formula_units_Z 64
_cell_length_a 16.676148
_cell_length_b 20.932000
_cell_length_c 19.336681
_cell_angle_alpha 90.000000
_cell_angle_beta 153.385180
_cell_angle_gamma 90.000000
_cell_volume 3023.827841
_symmetry_space_group_name_H-M "C 2/C"
_symmetry_group_IT_number 15
_symmetry_cell_setting 'monoclinic'
loop_
_space_group_symop_operation_xyz
x,y,z
-x,y,1/2-z
-x,-y,-z
x,-y,1/2+z
1/2+x,1/2+y,z
1/2-x,1/2+y,1/2-z
1/2-x,1/2-y,-z
1/2+x,1/2-y,1/2+z
loop_
_atom_site_type_symbol
_atom_site_label
_atom_site_fract_x
_atom_site_fract_y
_atom_site_fract_z
Si Si1 0.135932 0.044796 0.918727
Si Si2 0.632183 0.313593 0.417512
Si Si3 0.669597 0.198300 0.801860
Si Si4 0.627704 0.470818 0.157308
Si Si5 0.205490 0.091724 0.499527
Si Si6 0.200212 0.324596 0.555680
Si Si7 0.964758 0.839313 0.437466
Si Si8 0.815843 0.102724 0.272319
O O1 0.222899 0.115346 0.982060
O O2 0.000000 0.033784 0.750000
O O3 0.000300 0.045982 0.878060
O O4 0.255345 0.982564 0.026099
O O5 0.500000 0.313233 0.250000
O O6 0.750000 0.250000 0.500000
O O7 0.531624 0.314724 0.414812
O O8 0.676700 0.262209 0.851984
O O9 0.495064 0.193963 0.621396
O O10 0.847445 0.208276 0.892115
O O11 0.687555 0.136064 0.864205
O O12 0.677685 0.399371 0.175117
O O13 0.755545 0.530247 0.271991
O O14 0.500000 0.500000 0.000000
O O15 0.221575 0.124416 0.437949
O O16 0.004870 0.093888 0.376754
O O17 0.199370 0.355301 0.631289
O O18 0.129043 0.864067 0.612584
#
# Coordination Sequence:
#
# PCOD9264359 Si02
#       8
#     8   8   8   8   8   8   8   8
#     4   9  17  32  58  87 111 143 185 229 281 343
#     4  10  22  40  64  90 112 143 188 238 294 349
#     4  11  24  37  54  81 116 160 196 233 283 333
#     4   8  14  29  56  83 106 139 182 224 274 339
#     4  10  19  35  58  84 116 153 193 234 275 332
#     4  12  23  36  52  81 120 158 197 234 275 334
#     4   9  19  38  60  83 112 145 189 237 282 341
#     4   9  18  33  58  85 111 149 190 231 281 333
#
# _framework density 21.165226000000001
#
# number of rings (size 3 to 8) (size 9 to 14) (size 15 to 20)
#    0.000    2.250    0.000    4.875    0.000    3.000 
#    0.000    1.875    0.000    1.500    0.000    0.000 
#    0.000    0.000    0.000    0.000    0.000    0.000 
#
# Total GULP energy -178285.136470 kJ/mol
# GULP energy per Si atom -5571.410515 kJ/mol
# Density = 2.111705 g / cm^3
# Si number density = 21.165226 Si / 1000 Ang^3
#
#
#
# Elastic Constant Matrix: (Units=GPa)
#
#
# Indices 1 2 3 4 5 6 
#
# 1 81.4276 25.0223 12.9729 -0.0031 -34.4761 -0.0035
# 2 25.0223 172.2249 52.0491 0.0243 -12.8005 0.0120
# 3 12.9729 52.0491 89.0172 -0.0021 -28.8489 -0.0059
# 4 -0.0031 0.0243 -0.0021 30.4357 0.0015 -11.1288
# 5 -34.4761 -12.8005 -28.8489 0.0015 27.7987 0.0012
# 6 -0.0035 0.0120 -0.0059 -11.1288 0.0012 16.3455
#
#
#
# Elastic Compliance Matrix: (Units=1/GPa)
#
#
# Indices 1 2 3 4 5 6 
#
# 1 0.038849 -0.006648 0.019359 0.000018 0.065211 0.000028
# 2 -0.006648 0.008235 -0.007970 -0.000014 -0.012724 -0.000019
# 3 0.019359 -0.007970 0.029629 0.000019 0.051088 0.000030
# 4 0.000018 -0.000014 0.000019 0.043747 0.000031 0.029785
# 5 0.065211 -0.012724 0.051088 0.000031 0.164007 0.000052
# 6 0.000028 -0.000019 0.000030 0.029785 0.000052 0.081458
#
#
# Mechanical properties :
#
#
# Convention : Reuss Voigt Hill
#
# Bulk Modulus (GPa) = 11.60150 58.08427 34.84289
# Shear Modulus (GPa) = 12.98106 31.75766 22.36936
#
# Velocity S-wave (km/s) = 2.47922 3.87778 3.25451
# Velocity P-wave (km/s) = 3.69982 6.89583 5.53358
#
# Compressibility (1/GPa) = 0.08619573
#
# Stress axis : x y z
#
# Youngs Moduli (GPa) = 25.74043 121.42944 33.75021
#
# Poissons Ratio (x) = 0.80730 -0.65338
# Poissons Ratio (y) = 0.17113 0.26899
# Poissons Ratio (z) = -0.49831 0.96780
#
# Static dielectric constant tensor:
#      x y z
#    x 1.759950 -0.000010 0.004650 
#    y -0.000010 1.872480 -0.000010 
#    z 0.004650 -0.000010 1.758090 
# 
# From -- ./inp_files/211994.got.cif
#   From: 2010.05.17/outbox.cif.g08.bks.cpg/sg15_106_cif.got.tgz:211994.got - 2010.06.03 18:47:42.
