data_PCOD9264184
_publ_section_title
;
Structure prediction by ZEFSAII (Michael W. Deem and Ramdas Pophale) SiO2 
 PCOD9264184
Probable space group: C 2/C
;
_chemical_formula_sum "Si O2"
_cell_formula_units_Z 48
_cell_length_a 14.873445
_cell_length_b 22.787057
_cell_length_c 9.859160
_cell_angle_alpha 90.000000
_cell_angle_beta 40.967339
_cell_angle_gamma 90.000000
_cell_volume 2190.774543
_symmetry_space_group_name_H-M "C 2/C"
_symmetry_group_IT_number 15
_symmetry_cell_setting 'monoclinic'
loop_
_space_group_symop_operation_xyz
x,y,z
-x,y,1/2-z
-x,-y,-z
x,-y,1/2+z
1/2+x,1/2+y,z
1/2-x,1/2+y,1/2-z
1/2-x,1/2-y,-z
1/2+x,1/2-y,1/2+z
loop_
_atom_site_type_symbol
_atom_site_label
_atom_site_fract_x
_atom_site_fract_y
_atom_site_fract_z
Si Si1 0.838273 0.012022 0.956989
Si Si2 0.950767 0.894379 0.945837
Si Si3 0.244123 0.054057 0.180333
Si Si4 0.309803 0.233429 0.712495
Si Si5 0.428910 0.706204 0.686206
Si Si6 0.657344 0.169647 0.565421
O O1 0.749383 0.048055 0.166226
O O2 0.851203 0.946765 0.011380
O O3 0.754613 0.004472 0.912808
O O4 0.000000 0.030247 0.750000
O O5 0.000000 0.862326 0.750000
O O6 0.085919 0.928612 0.839390
O O7 0.925044 0.852120 0.099289
O O8 0.332125 0.105277 0.011479
O O9 0.466434 0.247520 0.501312
O O10 0.224507 0.228461 0.670602
O O11 0.293505 0.178626 0.834871
O O12 0.247391 0.287826 0.868484
O O13 0.500000 0.694618 0.750000
O O14 0.500000 0.189096 0.750000
#
# Coordination Sequence:
#
# PCOD9264184 Si02
#       6
#     8   8   8   8   8   8
#     4   9  18  33  57  86 123 152 195 254 306 357
#     4   9  18  33  56  87 117 157 201 242 297 365
#     4  10  19  35  56  86 116 155 200 253 303 360
#     4  11  23  41  62  91 125 164 206 255 299 370
#     4  12  24  38  61  94 133 159 197 251 317 365
#     4  11  22  39  67  87 114 164 219 252 295 363
#
# _framework density 21.910059
#
# number of rings (size 3 to 8) (size 9 to 14) (size 15 to 20)
#    0.000    2.000    3.333    4.500    2.333    2.000 
#    0.000    0.833    0.000    0.000    0.000    0.000 
#    0.000    0.000    0.000    0.000    0.000    0.000 
#
# Total GULP energy -133700.014023 kJ/mol
# GULP energy per Si atom -5570.833918 kJ/mol
# Density = 2.186019 g / cm^3
# Si number density = 21.910059 Si / 1000 Ang^3
#
#
#
# Elastic Constant Matrix: (Units=GPa)
#
#
# Indices 1 2 3 4 5 6 
#
# 1 95.2047 2.0146 18.4450 0.0000 28.3003 0.0000
# 2 2.0146 27.8655 19.2826 0.0000 10.2392 0.0000
# 3 18.4450 19.2826 49.5208 0.0000 29.9156 0.0000
# 4 0.0000 0.0000 0.0000 21.5948 0.0000 10.0655
# 5 28.3003 10.2392 29.9156 0.0000 43.6936 0.0000
# 6 0.0000 0.0000 0.0000 10.0655 0.0000 12.6829
#
#
#
# Elastic Compliance Matrix: (Units=1/GPa)
#
#
# Indices 1 2 3 4 5 6 
#
# 1 0.013164 0.002742 -0.000737 0.000000 -0.008664 0.000000
# 2 0.002742 0.049881 -0.020993 0.000000 0.000908 0.000000
# 3 -0.000737 -0.020993 0.043285 0.000000 -0.024239 0.000000
# 4 0.000000 0.000000 0.000000 0.073494 0.000000 -0.058327
# 5 -0.008664 0.000908 -0.024239 0.000000 0.044882 0.000000
# 6 0.000000 0.000000 0.000000 -0.058327 0.000000 0.125136
#
#
# Mechanical properties :
#
#
# Convention : Reuss Voigt Hill
#
# Bulk Modulus (GPa) = 14.62939 28.00836 21.31887
# Shear Modulus (GPa) = 12.17723 24.45087 18.31405
#
# Velocity S-wave (km/s) = 2.36006 3.34423 2.89429
# Velocity P-wave (km/s) = 3.75740 5.26526 4.57389
#
# Compressibility (1/GPa) = 0.06835556
#
# Stress axis : x y z
#
# Youngs Moduli (GPa) = 75.96507 20.04751 23.10261
#
# Poissons Ratio (x) = -0.05497 0.01702
# Poissons Ratio (y) = -0.20828 0.48499
# Poissons Ratio (z) = 0.05595 0.42085
#
# Static dielectric constant tensor:
#      x y z
#    x 1.899120 0.000000 0.080430 
#    y 0.000000 1.878020 0.000000 
#    z 0.080430 0.000000 1.931310 
# 
# From -- ./inp_files/43824.got.cif
#   From: 2010.05.17/outbox.cif.g08.bks.cpg/sg15_22_cif.got.tgz:43824.got - 2010.06.03 18:47:42.
