data_PCOD9264487
_publ_section_title
;
Structure prediction by ZEFSAII (Michael W. Deem and Ramdas Pophale) SiO2 
 PCOD9264487
Probable space group: C 2/C
;
_chemical_formula_sum "Si O2"
_cell_formula_units_Z 48
_cell_length_a 9.483945
_cell_length_b 9.976121
_cell_length_c 22.301637
_cell_angle_alpha 90.000000
_cell_angle_beta 108.135603
_cell_angle_gamma 90.000000
_cell_volume 2005.203656
_symmetry_space_group_name_H-M "C 2/C"
_symmetry_group_IT_number 15
_symmetry_cell_setting 'monoclinic'
loop_
_space_group_symop_operation_xyz
x,y,z
-x,y,1/2-z
-x,-y,-z
x,-y,1/2+z
1/2+x,1/2+y,z
1/2-x,1/2+y,1/2-z
1/2-x,1/2-y,-z
1/2+x,1/2-y,1/2+z
loop_
_atom_site_type_symbol
_atom_site_label
_atom_site_fract_x
_atom_site_fract_y
_atom_site_fract_z
Si Si1 0.285660 0.040469 0.444046
Si Si2 0.229103 0.901156 0.316645
Si Si3 0.332565 0.140314 0.253688
Si Si4 0.428070 0.202783 0.015217
Si Si5 0.952196 0.848376 0.356795
Si Si6 0.542108 0.577254 0.066349
O O1 0.327451 0.929343 0.499803
O O2 0.314938 0.967084 0.384254
O O3 0.402325 0.157138 0.469590
O O4 0.119000 0.094984 0.424215
O O5 0.259440 0.001804 0.265311
O O6 0.254246 0.745478 0.301182
O O7 0.060244 0.899573 0.318674
O O8 0.500000 0.116880 0.250000
O O9 0.352967 0.232602 0.315941
O O10 0.437605 0.283510 0.078602
O O11 0.389170 0.289995 0.951636
O O12 0.873704 0.972007 0.380130
O O13 0.500000 0.500000 0.000000
#
# Coordination Sequence:
#
# PCOD9264487 Si02
#       6
#     8   8   8   8   8   8
#     4  10  20  35  58  86 117 156 192 235 289 348
#     4  10  21  38  63  82 113 155 195 246 293 343
#     4  10  21  41  60  82 112 152 198 247 293 340
#     4  10  19  35  59  86 121 152 190 233 287 355
#     4   9  19  37  61  83 118 152 188 238 294 343
#     4   9  19  32  52  86 118 153 186 230 281 348
#
# _framework density 23.937716999999999
#
# number of rings (size 3 to 8) (size 9 to 14) (size 15 to 20)
#    0.000    2.333    1.667    0.500    0.000    7.333 
#    0.000   10.833    0.000    0.000    0.000    0.000 
#    0.000    0.000    0.000    0.000    0.000    0.000 
#
# Total GULP energy -133905.676227 kJ/mol
# GULP energy per Si atom -5579.403176 kJ/mol
# Density = 2.388323 g / cm^3
# Si number density = 23.937717 Si / 1000 Ang^3
#
#
#
# Elastic Constant Matrix: (Units=GPa)
#
#
# Indices 1 2 3 4 5 6 
#
# 1 53.3351 30.7634 1.2803 0.0000 -11.3576 0.0000
# 2 30.7634 112.7612 29.3308 0.0000 -22.8922 0.0000
# 3 1.2803 29.3308 114.5371 0.0000 -13.6582 0.0000
# 4 0.0000 0.0000 0.0000 49.6211 0.0000 -2.4635
# 5 -11.3576 -22.8922 -13.6582 0.0000 23.6249 0.0000
# 6 0.0000 0.0000 0.0000 -2.4635 0.0000 26.5921
#
#
#
# Elastic Compliance Matrix: (Units=1/GPa)
#
#
# Indices 1 2 3 4 5 6 
#
# 1 0.023354 -0.005446 0.001980 0.000000 0.007095 0.000000
# 2 -0.005446 0.012614 -0.002174 0.000000 0.008348 0.000000
# 3 0.001980 -0.002174 0.009804 0.000000 0.004513 0.000000
# 4 0.000000 0.000000 0.000000 0.020246 0.000000 0.001876
# 5 0.007095 0.008348 0.004513 0.000000 0.056437 0.000000
# 6 0.000000 0.000000 0.000000 0.001876 0.000000 0.037779
#
#
# Mechanical properties :
#
#
# Convention : Reuss Voigt Hill
#
# Bulk Modulus (GPa) = 28.99301 44.82027 36.90664
# Shear Modulus (GPa) = 27.32072 34.58488 30.95280
#
# Velocity S-wave (km/s) = 3.38202 3.80516 3.59981
# Velocity P-wave (km/s) = 5.23344 6.17009 5.72096
#
# Compressibility (1/GPa) = 0.03449108
#
# Stress axis : x y z
#
# Youngs Moduli (GPa) = 42.81951 79.27499 102.00419
#
# Poissons Ratio (x) = 0.43173 -0.20192
# Poissons Ratio (y) = 0.23319 0.22175
# Poissons Ratio (z) = -0.08476 0.17234
#
# Static dielectric constant tensor:
#      x y z
#    x 1.906490 0.000000 0.005170 
#    y 0.000000 1.972580 0.000000 
#    z 0.005170 0.000000 1.990590 
# 
# From -- ./inp_files/267786.got.cif
#   From: 2010.05.17/outbox.cif.g08.bks.cpg/sg15_134_cif.got.tgz:267786.got - 2010.06.03 18:47:42.
