data_PCOD9264370
_publ_section_title
;
Structure prediction by ZEFSAII (Michael W. Deem and Ramdas Pophale) SiO2 
 PCOD9264370
Probable space group: C 2/C
;
_chemical_formula_sum "Si O2"
_cell_formula_units_Z 48
_cell_length_a 11.672166
_cell_length_b 13.965552
_cell_length_c 29.427148
_cell_angle_alpha 90.000000
_cell_angle_beta 156.833141
_cell_angle_gamma 90.000000
_cell_volume 1887.136647
_symmetry_space_group_name_H-M "C 2/C"
_symmetry_group_IT_number 15
_symmetry_cell_setting 'monoclinic'
loop_
_space_group_symop_operation_xyz
x,y,z
-x,y,1/2-z
-x,-y,-z
x,-y,1/2+z
1/2+x,1/2+y,z
1/2-x,1/2+y,1/2-z
1/2-x,1/2-y,-z
1/2+x,1/2-y,1/2+z
loop_
_atom_site_type_symbol
_atom_site_label
_atom_site_fract_x
_atom_site_fract_y
_atom_site_fract_z
Si Si1 0.934008 0.234816 0.408437
Si Si2 0.183380 0.882463 0.183335
Si Si3 0.174707 0.321943 0.654185
Si Si4 0.003823 0.385687 0.497701
Si Si5 0.633528 0.593708 0.193475
Si Si6 0.653852 0.400284 0.064626
O O1 0.250000 0.250000 0.500000
O O2 0.825104 0.335445 0.391266
O O3 0.985638 0.174882 0.472960
O O4 0.772021 0.163533 0.313587
O O5 0.109575 0.770630 0.161654
O O6 0.161223 0.883637 0.120774
O O7 0.505114 0.893336 0.322392
O O8 0.057803 0.985584 0.151337
O O9 0.500000 0.311610 0.750000
O O10 0.970392 0.344537 0.536651
O O11 0.164426 0.405439 0.688155
O O12 0.334504 0.363626 0.603773
O O13 0.000000 0.500000 0.500000
O O14 0.500000 0.500000 0.000000
#
# Coordination Sequence:
#
# PCOD9264370 Si02
#       6
#     8   8   8   8   8   8
#     4  10  19  35  58  86 111 154 204 231 281 368
#     4  11  20  37  61  86 116 155 198 245 297 350
#     4  10  19  38  59  81 112 164 197 231 294 368
#     4  10  21  38  59  84 116 157 196 244 299 354
#     4  10  22  35  59  87 116 149 203 244 291 353
#     4  11  20  35  61  88 117 152 194 246 296 350
#
# _framework density 25.435361
#
# number of rings (size 3 to 8) (size 9 to 14) (size 15 to 20)
#    0.000    1.667    5.000    2.000    0.000    4.000 
#    0.000    2.500    0.000    0.000    0.000    0.000 
#    0.000    0.000    0.000    0.000    0.000    0.000 
#
# Total GULP energy -133755.203341 kJ/mol
# GULP energy per Si atom -5573.133473 kJ/mol
# Density = 2.537747 g / cm^3
# Si number density = 25.435361 Si / 1000 Ang^3
#
#
#
# Elastic Constant Matrix: (Units=GPa)
#
#
# Indices 1 2 3 4 5 6 
#
# 1 78.4032 53.2632 45.3006 0.0016 -30.2786 0.0005
# 2 53.2632 159.3616 27.4400 -0.0006 -29.6266 0.0010
# 3 45.3006 27.4400 75.6814 -0.0062 -24.9814 0.0012
# 4 0.0016 -0.0006 -0.0062 30.9469 -0.0005 -12.4008
# 5 -30.2786 -29.6266 -24.9814 -0.0005 32.9933 0.0016
# 6 0.0005 0.0010 0.0012 -12.4008 0.0016 44.3623
#
#
#
# Elastic Compliance Matrix: (Units=1/GPa)
#
#
# Indices 1 2 3 4 5 6 
#
# 1 0.026733 -0.004869 -0.010107 -0.000004 0.012508 -0.000001
# 2 -0.004869 0.008445 0.001174 0.000001 0.004003 0.000000
# 3 -0.010107 0.001174 0.021496 0.000005 0.008055 0.000001
# 4 -0.000004 0.000001 0.000005 0.036390 0.000001 0.010172
# 5 0.012508 0.004003 0.008055 0.000001 0.051482 -0.000002
# 6 -0.000001 0.000000 0.000001 0.010172 -0.000002 0.025385
#
#
# Mechanical properties :
#
#
# Convention : Reuss Voigt Hill
#
# Bulk Modulus (GPa) = 34.40066 62.82820 48.61443
# Shear Modulus (GPa) = 24.12842 34.15667 29.14254
#
# Velocity S-wave (km/s) = 3.08330 3.66851 3.38856
# Velocity P-wave (km/s) = 5.12150 6.53442 5.87063
#
# Compressibility (1/GPa) = 0.02906921
#
# Stress axis : x y z
#
# Youngs Moduli (GPa) = 37.40712 118.41990 46.51958
#
# Poissons Ratio (x) = 0.57661 0.47019
# Poissons Ratio (y) = 0.18214 -0.05463
# Poissons Ratio (z) = 0.37809 -0.13906
#
# Static dielectric constant tensor:
#      x y z
#    x 1.323540 0.000000 -1.129530 
#    y 0.000000 2.147960 0.000010 
#    z -1.129530 0.000010 0.202000 
# 
# From -- ./inp_files/151951.got.cif
#   From: 2010.05.17/outbox.cif.g08.bks.cpg/sg15_76_cif.got.tgz:151951.got - 2010.06.03 18:47:42.
