data_PCOD9264649
_publ_section_title
;
Structure prediction by ZEFSAII (Michael W. Deem and Ramdas Pophale) SiO2 
 PCOD9264649
Probable space group: C 2/C
;
_chemical_formula_sum "Si O2"
_cell_formula_units_Z 40
_cell_length_a 20.987385
_cell_length_b 17.243967
_cell_length_c 10.734525
_cell_angle_alpha 90.000000
_cell_angle_beta 32.245576
_cell_angle_gamma 90.000000
_cell_volume 2072.778178
_symmetry_space_group_name_H-M "C 2/C"
_symmetry_group_IT_number 15
_symmetry_cell_setting 'monoclinic'
loop_
_space_group_symop_operation_xyz
x,y,z
-x,y,1/2-z
-x,-y,-z
x,-y,1/2+z
1/2+x,1/2+y,z
1/2-x,1/2+y,1/2-z
1/2-x,1/2-y,-z
1/2+x,1/2-y,1/2+z
loop_
_atom_site_type_symbol
_atom_site_label
_atom_site_fract_x
_atom_site_fract_y
_atom_site_fract_z
Si Si1 0.461531 0.663188 0.942162
Si Si2 0.000000 0.117928 0.250000
Si Si3 0.373640 0.489560 0.320576
Si Si4 0.000000 0.389279 0.250000
Si Si5 0.249123 0.952835 0.724439
Si Si6 0.613233 0.254183 0.692209
O O1 0.500000 0.704455 0.750000
O O2 0.552764 0.590305 0.798972
O O3 0.328391 0.626953 0.150410
O O4 0.460777 0.712894 0.068111
O O5 0.896324 0.182325 0.404185
O O6 0.969796 0.058276 0.188276
O O7 0.290620 0.492220 0.580716
O O8 0.298582 0.503363 0.320144
O O9 0.061772 0.329286 0.243175
O O10 0.889851 0.438135 0.485617
O O11 0.750000 0.250000 0.500000
#
# Coordination Sequence:
#
# PCOD9264649 Si02
#       6
#     8   4   8   4   8   8
#     4  10  19  35  61  87 113 145 194 253 286 335
#     4  11  18  30  62  88 104 149 196 244 286 339
#     4  11  20  36  64  92 117 143 204 247 306 333
#     4  11  24  38  58  80 122 165 194 228 302 353
#     4  11  21  37  59  88 121 153 189 250 292 357
#     4  11  21  36  58  82 116 158 201 230 285 363
#
# _framework density 19.297771999999998
#
# number of rings (size 3 to 8) (size 9 to 14) (size 15 to 20)
#    0.000    1.200    7.000    1.800    0.000    0.800 
#    0.000    4.000    8.800    0.000    0.000    0.000 
#    0.000    0.000    0.000    0.000    0.000    0.000 
#
# Total GULP energy -111423.388939 kJ/mol
# GULP energy per Si atom -5571.169447 kJ/mol
# Density = 1.925385 g / cm^3
# Si number density = 19.297772 Si / 1000 Ang^3
#
#
#
# Elastic Constant Matrix: (Units=GPa)
#
#
# Indices 1 2 3 4 5 6 
#
# 1 111.0093 26.0989 75.3443 0.0000 6.3499 0.0000
# 2 26.0989 43.9215 32.9973 0.0000 0.4158 0.0000
# 3 75.3443 32.9973 142.8861 0.0000 -0.2789 0.0000
# 4 0.0000 0.0000 0.0000 19.7360 0.0000 4.7426
# 5 6.3499 0.4158 -0.2789 0.0000 46.1550 0.0000
# 6 0.0000 0.0000 0.0000 4.7426 0.0000 14.9073
#
#
#
# Elastic Compliance Matrix: (Units=1/GPa)
#
#
# Indices 1 2 3 4 5 6 
#
# 1 0.014639 -0.003481 -0.006919 0.000000 -0.002024 0.000000
# 2 -0.003481 0.028379 -0.004718 0.000000 0.000195 0.000000
# 3 -0.006919 -0.004718 0.011739 0.000000 0.001065 0.000000
# 4 0.000000 0.000000 0.000000 0.054863 0.000000 -0.017454
# 5 -0.002024 0.000195 0.001065 0.000000 0.021949 0.000000
# 6 0.000000 0.000000 0.000000 -0.017454 0.000000 0.072634
#
#
# Mechanical properties :
#
#
# Convention : Reuss Voigt Hill
#
# Bulk Modulus (GPa) = 40.78250 62.96644 51.87447
# Shear Modulus (GPa) = 20.60910 27.05142 23.83026
#
# Velocity S-wave (km/s) = 3.27150 3.74811 3.51789
# Velocity P-wave (km/s) = 5.95394 7.17153 6.59091
#
# Compressibility (1/GPa) = 0.02452032
#
# Stress axis : x y z
#
# Youngs Moduli (GPa) = 68.31280 35.23748 85.18968
#
# Poissons Ratio (x) = 0.12267 0.58942
# Poissons Ratio (y) = 0.23781 0.40189
# Poissons Ratio (z) = 0.47265 0.16624
#
# Static dielectric constant tensor:
#      x y z
#    x 1.753630 0.000000 0.040110 
#    y 0.000000 1.692980 0.000000 
#    z 0.040110 0.000000 1.692320 
# 
# From -- ./inp_files/77891.got.cif
#   From: 2010.05.17/outbox.cif.g08.bks.cpg/sg15_39_cif.got.tgz:77891.got - 2010.06.03 18:47:42.
