data_PCOD9264373
_publ_section_title
;
Structure prediction by ZEFSAII (Michael W. Deem and Ramdas Pophale) SiO2 
 PCOD9264373
Probable space group: C 2/C
;
_chemical_formula_sum "Si O2"
_cell_formula_units_Z 56
_cell_length_a 21.248995
_cell_length_b 14.198346
_cell_length_c 8.516842
_cell_angle_alpha 90.000000
_cell_angle_beta 102.061226
_cell_angle_gamma 90.000000
_cell_volume 2512.813350
_symmetry_space_group_name_H-M "C 2/C"
_symmetry_group_IT_number 15
_symmetry_cell_setting 'monoclinic'
loop_
_space_group_symop_operation_xyz
x,y,z
-x,y,1/2-z
-x,-y,-z
x,-y,1/2+z
1/2+x,1/2+y,z
1/2-x,1/2+y,1/2-z
1/2-x,1/2-y,-z
1/2+x,1/2-y,1/2+z
loop_
_atom_site_type_symbol
_atom_site_label
_atom_site_fract_x
_atom_site_fract_y
_atom_site_fract_z
Si Si1 0.618496 0.412457 0.254164
Si Si2 0.000000 0.952642 0.750000
Si Si3 0.701060 0.446787 0.580023
Si Si4 0.000000 0.558860 0.250000
Si Si5 0.861130 0.626851 0.623687
Si Si6 0.090212 0.449160 0.050776
Si Si7 0.595334 0.687207 0.455232
Si Si8 0.266151 0.383011 0.593019
O O1 0.555470 0.476956 0.224277
O O2 0.648231 0.398014 0.441580
O O3 0.666345 0.477458 0.175500
O O4 0.607457 0.319176 0.147343
O O5 0.963538 0.882115 0.612978
O O6 0.740021 0.383095 0.721960
O O7 0.741374 0.511548 0.483824
O O8 0.041621 0.493515 0.154656
O O9 0.049764 0.607670 0.397016
O O10 0.878984 0.536259 0.527877
O O11 0.861162 0.605398 0.809154
O O12 0.912582 0.708332 0.612914
O O13 0.792698 0.666052 0.526000
O O14 0.660173 0.646205 0.405373
#
# Coordination Sequence:
#
# PCOD9264373 Si02
#       8
#     8   4   8   4   8   8   8   8
#     4  10  19  35  58  86 121 155 193 245 306 368
#     4  12  20  37  63  88 126 158 200 246 311 373
#     4   9  17  34  59  85 113 159 205 230 308 370
#     4   8  16  35  61  82 106 142 190 234 301 341
#     4  11  22  39  59  90 119 157 211 248 299 366
#     4   9  19  36  63  84 114 156 195 252 306 349
#     4  11  24  36  58  88 120 159 201 253 307 356
#     4  10  19  36  57  85 120 158 199 251 297 363
#
# _framework density 22.285777
#
# number of rings (size 3 to 8) (size 9 to 14) (size 15 to 20)
#    0.000    2.000    4.286    1.714    0.000    3.429 
#    0.000    4.286    0.000    0.000    0.000    0.000 
#    0.000    0.000    0.000    0.000    0.000    0.000 
#
# Total GULP energy -155981.040211 kJ/mol
# GULP energy per Si atom -5570.751436 kJ/mol
# Density = 2.223505 g / cm^3
# Si number density = 22.285777 Si / 1000 Ang^3
#
#
#
# Elastic Constant Matrix: (Units=GPa)
#
#
# Indices 1 2 3 4 5 6 
#
# 1 49.9976 -1.4388 26.0968 0.0000 12.8578 0.0000
# 2 -1.4388 43.7997 35.6996 0.0000 9.3605 0.0000
# 3 26.0968 35.6996 203.8606 0.0000 21.3623 0.0000
# 4 0.0000 0.0000 0.0000 -1.4138 0.0000 -11.1265
# 5 12.8578 9.3605 21.3623 0.0000 20.6416 0.0000
# 6 0.0000 0.0000 0.0000 -11.1265 0.0000 8.0969
#
#
#
# Elastic Compliance Matrix: (Units=1/GPa)
#
#
# Indices 1 2 3 4 5 6 
#
# 1 0.025788 0.006549 -0.002752 0.000000 -0.016186 0.000000
# 2 0.006549 0.029571 -0.004693 0.000000 -0.012633 0.000000
# 3 -0.002752 -0.004693 0.006367 0.000000 -0.002747 0.000000
# 4 0.000000 0.000000 0.000000 -0.059868 0.000000 -0.082269
# 5 -0.016186 -0.012633 -0.002747 0.000000 0.067100 0.000000
# 6 0.000000 0.000000 0.000000 -0.082269 0.000000 0.010453
#
#
# Mechanical properties :
#
#
# Convention : Reuss Voigt Hill
#
# Bulk Modulus (GPa) = 16.68469 46.48589 31.58529
# Shear Modulus (GPa) = 49.41600 21.28497 35.35049
#
# Velocity S-wave (km/s) = 4.71401 3.09381 3.98708
# Velocity P-wave (km/s) = 6.09362 5.80228 5.94973
#
# Compressibility (1/GPa) = 0.05993518
#
# Stress axis : x y z
#
# Youngs Moduli (GPa) = 38.77723 33.81664 157.05187
#
# Poissons Ratio (x) = -0.22148 0.43222
# Poissons Ratio (y) = -0.25396 0.73706
# Poissons Ratio (z) = 0.10672 0.15870
#
# Static dielectric constant tensor:
#      x y z
#    x 1.889300 0.000000 0.073860 
#    y 0.000000 1.833840 0.000000 
#    z 0.073860 0.000000 1.906420 
# 
# From -- ./inp_files/61645.got.cif
#   From: 2010.05.17/outbox.cif.g08.bks.cpg/sg15_31_cif.got.tgz:61645.got - 2010.06.03 18:47:42.
