data_PCOD9264588
_publ_section_title
;
Structure prediction by ZEFSAII (Michael W. Deem and Ramdas Pophale) SiO2 
 PCOD9264588
Probable space group: C 2/C
;
_chemical_formula_sum "Si O2"
_cell_formula_units_Z 52
_cell_length_a 8.446752
_cell_length_b 12.975595
_cell_length_c 19.996171
_cell_angle_alpha 90.000000
_cell_angle_beta 107.665895
_cell_angle_gamma 90.000000
_cell_volume 2088.261538
_symmetry_space_group_name_H-M "C 2/C"
_symmetry_group_IT_number 15
_symmetry_cell_setting 'monoclinic'
loop_
_space_group_symop_operation_xyz
x,y,z
-x,y,1/2-z
-x,-y,-z
x,-y,1/2+z
1/2+x,1/2+y,z
1/2-x,1/2+y,1/2-z
1/2-x,1/2-y,-z
1/2+x,1/2-y,1/2+z
loop_
_atom_site_type_symbol
_atom_site_label
_atom_site_fract_x
_atom_site_fract_y
_atom_site_fract_z
Si Si1 0.245642 0.565956 0.448502
Si Si2 0.869701 0.391882 0.289656
Si Si3 0.947696 0.362526 0.061116
Si Si4 0.202253 0.300711 0.580224
Si Si5 0.068008 0.999989 0.407217
Si Si6 0.475848 0.133361 0.320480
Si Si7 0.000000 0.080861 0.750000
O O1 0.102712 0.481390 0.446183
O O2 0.392478 0.519341 0.420877
O O3 0.333154 0.581367 0.532145
O O4 0.146324 0.639081 0.384938
O O5 0.910164 0.515167 0.301736
O O6 0.678123 0.373799 0.251081
O O7 0.000000 0.354333 0.250000
O O8 0.909351 0.345610 0.367461
O O9 0.789748 0.304193 0.072645
O O10 0.957409 0.317178 0.988373
O O11 0.326292 0.393983 0.576891
O O12 0.156604 0.310522 0.650607
O O13 0.049212 0.974468 0.326767
O O14 0.500000 0.175746 0.250000
#
# Coordination Sequence:
#
# PCOD9264588 Si02
#       7
#     8   8   8   8   8   8   4
#     4   9  20  36  60  81 122 157 202 253 311 356
#     4  10  21  37  58  89 123 160 199 261 305 359
#     4   9  20  38  61  87 121 158 196 249 317 370
#     4  10  20  36  64  88 117 157 201 249 312 379
#     4  10  20  34  57  89 113 158 206 256 296 363
#     4  10  19  35  60  88 120 155 204 259 304 361
#     4  12  20  32  62  92 116 156 216 256 292 366
#
# _framework density 24.901094000000001
#
# number of rings (size 3 to 8) (size 9 to 14) (size 15 to 20)
#    0.000    2.154    1.538    2.769    2.154    1.846 
#    1.385    0.000   13.538    3.692    2.000    0.000 
#    0.000    0.000    0.000    0.000    0.000    0.000 
#
# Total GULP energy -145210.704646 kJ/mol
# GULP energy per Si atom -5585.027102 kJ/mol
# Density = 2.484442 g / cm^3
# Si number density = 24.901094 Si / 1000 Ang^3
#
#
#
# Elastic Constant Matrix: (Units=GPa)
#
#
# Indices 1 2 3 4 5 6 
#
# 1 113.3226 21.4826 49.5341 0.0000 -1.3320 0.0000
# 2 21.4826 37.6649 38.8006 0.0000 -4.1613 0.0000
# 3 49.5341 38.8006 177.8589 0.0000 -17.9416 0.0000
# 4 0.0000 0.0000 0.0000 11.3197 0.0000 -9.8833
# 5 -1.3320 -4.1613 -17.9416 0.0000 53.9452 0.0000
# 6 0.0000 0.0000 0.0000 -9.8833 0.0000 21.7430
#
#
#
# Elastic Compliance Matrix: (Units=1/GPa)
#
#
# Indices 1 2 3 4 5 6 
#
# 1 0.010487 -0.003841 -0.002159 0.000000 -0.000755 0.000000
# 2 -0.003841 0.035654 -0.006664 0.000000 0.000439 0.000000
# 3 -0.002159 -0.006664 0.007885 0.000000 0.002055 0.000000
# 4 0.000000 0.000000 0.000000 0.146473 0.000000 0.066580
# 5 -0.000755 0.000439 0.002055 0.000000 0.019236 0.000000
# 6 0.000000 0.000000 0.000000 0.066580 0.000000 0.076256
#
#
# Mechanical properties :
#
#
# Convention : Reuss Voigt Hill
#
# Bulk Modulus (GPa) = 34.84532 60.94234 47.89383
# Shear Modulus (GPa) = 15.11099 32.00352 23.55726
#
# Velocity S-wave (km/s) = 2.46609 3.58889 3.07910
# Velocity P-wave (km/s) = 4.70453 6.45759 5.64947
#
# Compressibility (1/GPa) = 0.02869826
#
# Stress axis : x y z
#
# Youngs Moduli (GPa) = 95.35308 28.04723 126.82582
#
# Poissons Ratio (x) = 0.10773 0.27382
# Poissons Ratio (y) = 0.36624 0.84518
# Poissons Ratio (z) = 0.20587 0.18691
#
# Static dielectric constant tensor:
#      x y z
#    x 1.946370 0.000000 0.021950 
#    y 0.000000 1.969080 0.000000 
#    z 0.021950 0.000000 2.004610 
# 
# From -- ./inp_files/190552.got.cif
#   From: 2010.05.17/outbox.cif.g08.bks.cpg/sg15_96_cif.got.tgz:190552.got - 2010.06.03 18:47:42.
