data_PCOD9264156
_publ_section_title
;
Structure prediction by ZEFSAII (Michael W. Deem and Ramdas Pophale) SiO2 
 PCOD9264156
Probable space group: C 2/C
;
_chemical_formula_sum "Si O2"
_cell_formula_units_Z 52
_cell_length_a 13.587366
_cell_length_b 10.050046
_cell_length_c 20.673441
_cell_angle_alpha 90.000000
_cell_angle_beta 111.671896
_cell_angle_gamma 90.000000
_cell_volume 2623.484422
_symmetry_space_group_name_H-M "C 2/C"
_symmetry_group_IT_number 15
_symmetry_cell_setting 'monoclinic'
loop_
_space_group_symop_operation_xyz
x,y,z
-x,y,1/2-z
-x,-y,-z
x,-y,1/2+z
1/2+x,1/2+y,z
1/2-x,1/2+y,1/2-z
1/2-x,1/2-y,-z
1/2+x,1/2-y,1/2+z
loop_
_atom_site_type_symbol
_atom_site_label
_atom_site_fract_x
_atom_site_fract_y
_atom_site_fract_z
Si Si1 0.283562 0.282237 0.825574
Si Si2 0.000000 0.077787 0.250000
Si Si3 0.569324 0.006898 0.452178
Si Si4 0.842898 0.759593 0.075988
Si Si5 0.479127 0.265956 0.614202
Si Si6 0.228853 0.987314 0.791667
Si Si7 0.204298 0.947301 0.933295
O O1 0.205225 0.284460 0.867116
O O2 0.403442 0.308297 0.880300
O O3 0.250747 0.382739 0.760630
O O4 0.283599 0.130185 0.799464
O O5 0.974684 0.175841 0.185049
O O6 0.898173 0.991861 0.242212
O O7 0.530159 0.891436 0.395428
O O8 0.691073 0.972305 0.499580
O O9 0.500000 0.000000 0.500000
O O10 0.568252 0.155454 0.423522
O O11 0.865272 0.916454 0.085366
O O12 0.750000 0.750000 0.000000
O O13 0.374210 0.334475 0.559042
O O14 0.245242 0.930924 0.868713
#
# Coordination Sequence:
#
# PCOD9264156 Si02
#       7
#     8   4   8   8   8   8   8
#     4  10  20  36  58  81 111 144 181 225 275 329
#     4   8  18  34  54  74 106 142 178 222 270 326
#     4  11  21  36  56  80 109 143 184 231 272 318
#     4   9  19  36  54  77 108 144 181 223 269 321
#     4  10  19  35  56  81 108 141 179 224 275 323
#     4   9  18  35  55  79 107 142 179 223 271 323
#     4   9  19  37  56  78 112 146 180 220 271 330
#
# _framework density 19.820969000000002
#
# number of rings (size 3 to 8) (size 9 to 14) (size 15 to 20)
#    0.000    2.462    0.000    3.231    0.000    3.692 
#    0.000   20.769    0.000    0.923    0.000    0.000 
#    0.000    0.000    0.000    0.000    0.000    0.000 
#
# Total GULP energy -144838.560284 kJ/mol
# GULP energy per Si atom -5570.713857 kJ/mol
# Density = 1.977586 g / cm^3
# Si number density = 19.820969 Si / 1000 Ang^3
#
#
#
# Elastic Constant Matrix: (Units=GPa)
#
#
# Indices 1 2 3 4 5 6 
#
# 1 59.5135 35.6586 1.6986 0.0000 -3.9729 0.0000
# 2 35.6586 95.7737 20.0459 0.0000 -18.9212 0.0000
# 3 1.6986 20.0459 39.2812 0.0000 1.8471 0.0000
# 4 0.0000 0.0000 0.0000 31.2748 0.0000 0.7165
# 5 -3.9729 -18.9212 1.8471 0.0000 24.3943 0.0000
# 6 0.0000 0.0000 0.0000 0.7165 0.0000 24.9972
#
#
#
# Elastic Compliance Matrix: (Units=1/GPa)
#
#
# Indices 1 2 3 4 5 6 
#
# 1 0.022489 -0.010214 0.004456 0.000000 -0.004597 0.000000
# 2 -0.010214 0.019067 -0.009941 0.000000 0.013878 0.000000
# 3 0.004456 -0.009941 0.030776 0.000000 -0.009315 0.000000
# 4 0.000000 0.000000 0.000000 0.031996 0.000000 -0.000917
# 5 -0.004597 0.013878 -0.009315 0.000000 0.051714 0.000000
# 6 0.000000 0.000000 0.000000 -0.000917 0.000000 0.040031
#
#
# Mechanical properties :
#
#
# Convention : Reuss Voigt Hill
#
# Bulk Modulus (GPa) = 24.42984 34.37498 29.40241
# Shear Modulus (GPa) = 20.73708 25.27759 23.00734
#
# Velocity S-wave (km/s) = 3.23804 3.57500 3.41069
# Velocity P-wave (km/s) = 5.13146 5.86696 5.51149
#
# Compressibility (1/GPa) = 0.04093354
#
# Stress axis : x y z
#
# Youngs Moduli (GPa) = 44.46677 52.44775 32.49300
#
# Poissons Ratio (x) = 0.53570 -0.14479
# Poissons Ratio (y) = 0.45418 0.32301
# Poissons Ratio (z) = -0.19815 0.52138
#
# Static dielectric constant tensor:
#      x y z
#    x 1.743230 0.000000 0.040460 
#    y 0.000000 1.708900 0.000000 
#    z 0.040460 0.000000 1.715250 
# 
# From -- ./inp_files/242427.got.cif
#   From: 2010.05.17/outbox.cif.g08.bks.cpg/sg15_122_cif.got.tgz:242427.got - 2010.06.03 18:47:42.
