data_PCOD9264418
_publ_section_title
;
Structure prediction by ZEFSAII (Michael W. Deem and Ramdas Pophale) SiO2 
 PCOD9264418
Probable space group: C 2/C
;
_chemical_formula_sum "Si O2"
_cell_formula_units_Z 48
_cell_length_a 16.550239
_cell_length_b 12.330467
_cell_length_c 11.646526
_cell_angle_alpha 90.000000
_cell_angle_beta 122.564801
_cell_angle_gamma 90.000000
_cell_volume 2003.069779
_symmetry_space_group_name_H-M "C 2/C"
_symmetry_group_IT_number 15
_symmetry_cell_setting 'monoclinic'
loop_
_space_group_symop_operation_xyz
x,y,z
-x,y,1/2-z
-x,-y,-z
x,-y,1/2+z
1/2+x,1/2+y,z
1/2-x,1/2+y,1/2-z
1/2-x,1/2-y,-z
1/2+x,1/2-y,1/2+z
loop_
_atom_site_type_symbol
_atom_site_label
_atom_site_fract_x
_atom_site_fract_y
_atom_site_fract_z
Si Si1 0.188195 0.420756 0.285655
Si Si2 0.000000 0.078051 0.250000
Si Si3 0.330106 0.303627 0.251020
Si Si4 0.018126 0.807678 0.525861
Si Si5 0.663879 0.422980 0.473377
Si Si6 0.500000 0.949119 0.250000
Si Si7 0.931514 0.595578 0.384135
O O1 0.244750 0.321092 0.275323
O O2 0.260172 0.498742 0.408912
O O3 0.144261 0.499258 0.152206
O O4 0.993399 0.468447 0.637336
O O5 0.027515 0.147984 0.160107
O O6 0.085265 0.002481 0.358186
O O7 0.424840 0.356430 0.385594
O O8 0.301533 0.354447 0.109088
O O9 0.132545 0.318145 0.736405
O O10 0.109144 0.842770 0.520104
O O11 0.988785 0.679799 0.507646
O O12 0.399840 0.890705 0.197649
#
# Coordination Sequence:
#
# PCOD9264418 Si02
#       7
#     8   4   8   8   8   4   8
#     4  10  21  36  62  94 126 180 224 269 333 391
#     4  12  18  31  58  96 137 164 208 283 332 408
#     4  10  19  35  58  95 128 166 215 276 334 391
#     4  10  20  34  58  95 134 166 210 280 339 384
#     4  12  19  32  60  95 128 165 216 274 341 383
#     4   8  18  39  62  88 133 174 218 287 302 394
#     4   8  18  38  56  87 133 161 221 277 316 384
#
# _framework density 23.96322
#
# number of rings (size 3 to 8) (size 9 to 14) (size 15 to 20)
#    2.000    0.000    3.333    2.500    0.000    0.667 
#    0.000    0.833    0.000    9.000    8.667    0.000 
#    0.000    0.000    0.000    0.000    0.000    0.000 
#
# Total GULP energy -133862.717249 kJ/mol
# GULP energy per Si atom -5577.613219 kJ/mol
# Density = 2.390868 g / cm^3
# Si number density = 23.963220 Si / 1000 Ang^3
#
#
#
# Elastic Constant Matrix: (Units=GPa)
#
#
# Indices 1 2 3 4 5 6 
#
# 1 144.0384 18.7305 28.4679 0.0000 7.5854 0.0000
# 2 18.7305 68.8955 40.1055 0.0000 5.9805 0.0000
# 3 28.4679 40.1055 124.4634 0.0000 7.2357 0.0000
# 4 0.0000 0.0000 0.0000 64.4069 0.0000 13.4603
# 5 7.5854 5.9805 7.2357 0.0000 23.9672 0.0000
# 6 0.0000 0.0000 0.0000 13.4603 0.0000 1.2759
#
#
#
# Elastic Compliance Matrix: (Units=1/GPa)
#
#
# Indices 1 2 3 4 5 6 
#
# 1 0.007425 -0.001158 -0.001227 0.000000 -0.001691 0.000000
# 2 -0.001158 0.018229 -0.005462 0.000000 -0.002533 0.000000
# 3 -0.001227 -0.005462 0.010151 0.000000 -0.001314 0.000000
# 4 0.000000 0.000000 0.000000 -0.012887 0.000000 0.135957
# 5 -0.001691 -0.002533 -0.001314 0.000000 0.043287 0.000000
# 6 0.000000 0.000000 0.000000 0.135957 0.000000 -0.650548
#
#
# Mechanical properties :
#
#
# Convention : Reuss Voigt Hill
#
# Bulk Modulus (GPa) = 49.72074 56.88944 53.30509
# Shear Modulus (GPa) = -8.89764 34.60290 12.85263
#
# Velocity S-wave (km/s) = -1.92902 3.80412 2.31843
# Velocity P-wave (km/s) = 3.97899 6.56407 5.42768
#
# Compressibility (1/GPa) = 0.02011233
#
# Stress axis : x y z
#
# Youngs Moduli (GPa) = 134.68663 54.85835 98.50853
#
# Poissons Ratio (x) = 0.06350 0.12086
# Poissons Ratio (y) = 0.15591 0.53803
# Poissons Ratio (z) = 0.16525 0.29962
#
# Static dielectric constant tensor:
#      x y z
#    x 1.900140 0.000000 -0.012940 
#    y 0.000000 1.933430 0.000000 
#    z -0.012940 0.000000 2.061400 
# 
# From -- ./inp_files/113009.got.cif
#   From: 2010.05.17/outbox.cif.g08.bks.cpg/sg15_57_cif.got.tgz:113009.got - 2010.06.03 18:47:42.
