data_PCOD9264447
_publ_section_title
;
Structure prediction by ZEFSAII (Michael W. Deem and Ramdas Pophale) SiO2 
 PCOD9264447
Probable space group: C 2/C
;
_chemical_formula_sum "Si O2"
_cell_formula_units_Z 40
_cell_length_a 25.502826
_cell_length_b 12.816051
_cell_length_c 14.394305
_cell_angle_alpha 90.000000
_cell_angle_beta 159.535620
_cell_angle_gamma 90.000000
_cell_volume 1644.885649
_symmetry_space_group_name_H-M "C 2/C"
_symmetry_group_IT_number 15
_symmetry_cell_setting 'monoclinic'
loop_
_space_group_symop_operation_xyz
x,y,z
-x,y,1/2-z
-x,-y,-z
x,-y,1/2+z
1/2+x,1/2+y,z
1/2-x,1/2+y,1/2-z
1/2-x,1/2-y,-z
1/2+x,1/2-y,1/2+z
loop_
_atom_site_type_symbol
_atom_site_label
_atom_site_fract_x
_atom_site_fract_y
_atom_site_fract_z
Si Si1 0.720535 0.314027 0.353451
Si Si2 0.037103 0.634662 0.012695
Si Si3 0.228105 0.179421 0.554936
Si Si4 0.000000 0.333543 0.250000
Si Si5 0.341934 0.544105 0.606514
Si Si6 0.000000 0.205418 0.750000
O O1 0.750000 0.250000 0.500000
O O2 0.578333 0.257114 0.075556
O O3 0.690392 0.429796 0.339151
O O4 0.859118 0.282830 0.519569
O O5 0.187177 0.578060 0.296677
O O6 0.897282 0.635137 0.850914
O O7 0.999571 0.602139 0.845275
O O8 0.250000 0.250000 0.500000
O O9 0.144847 0.257205 0.486064
O O10 0.132932 0.075395 0.375998
O O11 0.472270 0.622751 0.787712
#
# Coordination Sequence:
#
# PCOD9264447 Si02
#       6
#     8   8   8   4   8   4
#     4   8  17  32  54  84 108 134 179 230 275 315
#     4   9  19  35  55  78 108 144 181 228 274 320
#     4  10  21  38  54  76 115 151 179 223 269 324
#     4  10  21  36  51  74 110 148 183 222 277 324
#     4  10  19  35  59  84 106 145 187 221 274 327
#     4   8  15  30  55  86 110 130 171 234 277 314
#
# _framework density 24.317799999999998
#
# number of rings (size 3 to 8) (size 9 to 14) (size 15 to 20)
#    0.000    3.200    0.000    1.200    0.000    9.600 
#    0.000   12.000    0.000    0.000    0.000    0.000 
#    0.000    1.600    0.000    0.000    0.000    0.000 
#
# Total GULP energy -111366.269066 kJ/mol
# GULP energy per Si atom -5568.313453 kJ/mol
# Density = 2.426245 g / cm^3
# Si number density = 24.317800 Si / 1000 Ang^3
#
#
#
# Elastic Constant Matrix: (Units=GPa)
#
#
# Indices 1 2 3 4 5 6 
#
# 1 81.8244 11.9268 30.0309 0.0000 22.6004 0.0000
# 2 11.9268 62.4124 -6.4360 0.0000 1.1482 0.0000
# 3 30.0309 -6.4360 51.2688 0.0000 12.3572 0.0000
# 4 0.0000 0.0000 0.0000 16.3417 0.0000 5.1532
# 5 22.6004 1.1482 12.3572 0.0000 40.6054 0.0000
# 6 0.0000 0.0000 0.0000 5.1532 0.0000 0.9201
#
#
#
# Elastic Compliance Matrix: (Units=1/GPa)
#
#
# Indices 1 2 3 4 5 6 
#
# 1 0.018351 -0.004361 -0.009566 0.000000 -0.007179 0.000000
# 2 -0.004361 0.017320 0.004599 0.000000 0.000538 0.000000
# 3 -0.009566 0.004599 0.026368 0.000000 -0.002830 0.000000
# 4 0.000000 0.000000 0.000000 -0.079873 0.000000 0.447345
# 5 -0.007179 0.000538 -0.002830 0.000000 0.029469 0.000000
# 6 0.000000 0.000000 0.000000 0.447345 0.000000 -1.418608
#
#
# Mechanical properties :
#
#
# Convention : Reuss Voigt Hill
#
# Bulk Modulus (GPa) = 23.05063 29.61656 26.33360
# Shear Modulus (GPa) = -3.63939 22.23903 9.29982
#
# Velocity S-wave (km/s) = -1.22468 3.02738 1.95770
# Velocity P-wave (km/s) = 2.73856 4.94221 3.99532
#
# Compressibility (1/GPa) = 0.04338275
#
# Stress axis : x y z
#
# Youngs Moduli (GPa) = 54.49313 57.73593 37.92479
#
# Poissons Ratio (x) = 0.25180 0.36280
# Poissons Ratio (y) = 0.23766 -0.17442
# Poissons Ratio (z) = 0.52129 -0.26554
#
# Static dielectric constant tensor:
#      x y z
#    x 2.068540 0.000000 -0.063080 
#    y 0.000000 2.023840 0.000000 
#    z -0.063080 0.000000 2.100880 
# 
# From -- ./inp_files/178504.got.cif
#   From: 2010.05.17/outbox.cif.g08.bks.cpg/sg15_90_cif.got.tgz:178504.got - 2010.06.03 18:47:42.
