data_PCOD9264553
_publ_section_title
;
Structure prediction by ZEFSAII (Michael W. Deem and Ramdas Pophale) SiO2 
 PCOD9264553
Probable space group: C 2/C
;
_chemical_formula_sum "Si O2"
_cell_formula_units_Z 64
_cell_length_a 11.192427
_cell_length_b 26.519832
_cell_length_c 11.923306
_cell_angle_alpha 90.000000
_cell_angle_beta 72.509195
_cell_angle_gamma 90.000000
_cell_volume 3375.461817
_symmetry_space_group_name_H-M "C 2/C"
_symmetry_group_IT_number 15
_symmetry_cell_setting 'monoclinic'
loop_
_space_group_symop_operation_xyz
x,y,z
-x,y,1/2-z
-x,-y,-z
x,-y,1/2+z
1/2+x,1/2+y,z
1/2-x,1/2+y,1/2-z
1/2-x,1/2-y,-z
1/2+x,1/2-y,1/2+z
loop_
_atom_site_type_symbol
_atom_site_label
_atom_site_fract_x
_atom_site_fract_y
_atom_site_fract_z
Si Si1 0.452029 0.314609 0.884671
Si Si2 0.350969 0.322753 0.487353
Si Si3 0.501425 0.196566 0.591306
Si Si4 0.746483 0.860484 0.301182
Si Si5 0.357188 0.027140 0.662957
Si Si6 0.841018 0.520322 0.924390
Si Si7 0.581185 0.210635 0.117142
Si Si8 0.762534 0.634620 0.936506
O O1 0.500000 0.329384 0.750000
O O2 0.461226 0.253695 0.891206
O O3 0.546860 0.336553 0.950325
O O4 0.314579 0.335068 0.949478
O O5 0.336246 0.356793 0.381981
O O6 0.386430 0.267383 0.430445
O O7 0.213797 0.318003 0.583259
O O8 0.356867 0.184120 0.659193
O O9 0.503595 0.188140 0.457686
O O10 0.599913 0.158668 0.616581
O O11 0.675680 0.913686 0.322943
O O12 0.806990 0.856350 0.162416
O O13 0.312095 0.005139 0.799550
O O14 0.507581 0.021993 0.618563
O O15 0.309588 0.007502 0.553018
O O16 0.781493 0.575903 0.953321
O O17 0.500000 0.210624 0.250000
#
# Coordination Sequence:
#
# PCOD9264553 Si02
#       8
#     8   8   8   8   8   8   8   8
#     4  11  24  37  50  76 117 158 194 230 272 323
#     4   9  21  36  50  78 104 144 193 231 272 328
#     4  10  20  34  53  84 111 148 192 232 278 329
#     4  10  19  35  60  83 111 142 190 235 276 337
#     4   9  17  34  58  87 118 141 171 237 293 343
#     4   9  18  34  57  88 116 140 182 226 294 352
#     4   9  19  33  54  72 107 147 185 240 280 315
#     4  11  21  34  58  84 110 153 187 228 278 341
#
# _framework density 18.960369
#
# number of rings (size 3 to 8) (size 9 to 14) (size 15 to 20)
#    0.000    2.250    1.250    2.250    5.250    0.000 
#    2.250    0.000    0.000    0.750    0.000    0.000 
#    0.000    0.000    0.000    0.000    0.000    0.000 
#
# Total GULP energy -178181.767506 kJ/mol
# GULP energy per Si atom -5568.180235 kJ/mol
# Density = 1.891721 g / cm^3
# Si number density = 18.960369 Si / 1000 Ang^3
#
#
#
# Elastic Constant Matrix: (Units=GPa)
#
#
# Indices 1 2 3 4 5 6 
#
# 1 47.6690 3.3763 21.8398 0.0000 12.4942 0.0000
# 2 3.3763 40.4371 27.6053 0.0000 0.4952 0.0000
# 3 21.8398 27.6053 119.3472 0.0000 7.9427 0.0000
# 4 0.0000 0.0000 0.0000 13.2446 0.0000 11.4316
# 5 12.4942 0.4952 7.9427 0.0000 21.1480 0.0000
# 6 0.0000 0.0000 0.0000 11.4316 0.0000 10.3557
#
#
#
# Elastic Compliance Matrix: (Units=1/GPa)
#
#
# Indices 1 2 3 4 5 6 
#
# 1 0.026502 0.000747 -0.004081 0.000000 -0.014142 0.000000
# 2 0.000747 0.029464 -0.007053 0.000000 0.001518 0.000000
# 3 -0.004081 -0.007053 0.010857 0.000000 -0.001501 0.000000
# 4 0.000000 0.000000 0.000000 1.599259 0.000000 -1.765409
# 5 -0.014142 0.001518 -0.001501 0.000000 0.056169 0.000000
# 6 0.000000 0.000000 0.000000 -1.765409 0.000000 2.045385
#
#
# Mechanical properties :
#
#
# Convention : Reuss Voigt Hill
#
# Bulk Modulus (GPa) = 21.71670 34.78845 28.25257
# Shear Modulus (GPa) = 1.31449 19.25846 10.28648
#
# Velocity S-wave (km/s) = 0.83354 3.19050 2.33174
# Velocity P-wave (km/s) = 3.52207 5.65333 4.70984
#
# Compressibility (1/GPa) = 0.04604752
#
# Stress axis : x y z
#
# Youngs Moduli (GPa) = 37.73370 33.94028 92.10693
#
# Poissons Ratio (x) = -0.02534 0.37590
# Poissons Ratio (y) = -0.02817 0.64960
# Poissons Ratio (z) = 0.15400 0.23937
#
# Static dielectric constant tensor:
#      x y z
#    x 1.667590 0.000000 0.052460 
#    y 0.000000 1.642800 0.000000 
#    z 0.052460 0.000000 1.735000 
# 
# From -- ./inp_files/92447.got.cif
#   From: 2010.05.17/outbox.cif.g08.bks.cpg/sg15_47_cif.got.tgz:92447.got - 2010.06.03 18:47:42.
