data_PCOD9264857
_publ_section_title
;
Structure prediction by ZEFSAII (Michael W. Deem and Ramdas Pophale) SiO2 
 PCOD9264857
Probable space group: C 2/C
;
_chemical_formula_sum "Si O2"
_cell_formula_units_Z 52
_cell_length_a 5.908111
_cell_length_b 26.703099
_cell_length_c 17.313383
_cell_angle_alpha 90.000000
_cell_angle_beta 59.311399
_cell_angle_gamma 90.000000
_cell_volume 2348.915437
_symmetry_space_group_name_H-M "C 2/C"
_symmetry_group_IT_number 15
_symmetry_cell_setting 'monoclinic'
loop_
_space_group_symop_operation_xyz
x,y,z
-x,y,1/2-z
-x,-y,-z
x,-y,1/2+z
1/2+x,1/2+y,z
1/2-x,1/2+y,1/2-z
1/2-x,1/2-y,-z
1/2+x,1/2-y,1/2+z
loop_
_atom_site_type_symbol
_atom_site_label
_atom_site_fract_x
_atom_site_fract_y
_atom_site_fract_z
Si Si1 0.198518 0.118259 0.092937
Si Si2 0.404884 0.733988 0.394519
Si Si3 0.099167 0.769426 0.104739
Si Si4 0.349285 0.946942 0.703156
Si Si5 0.500000 0.460578 0.250000
Si Si6 0.727671 0.614594 0.584226
Si Si7 0.627013 0.448556 0.959280
O O1 0.095915 0.174293 0.110441
O O2 0.236981 0.098466 0.172772
O O3 0.000640 0.078492 0.090979
O O4 0.465714 0.117635 0.994633
O O5 0.250000 0.750000 0.500000
O O6 0.709818 0.750022 0.358329
O O7 0.207487 0.753844 0.359815
O O8 0.119607 0.829305 0.111285
O O9 0.250000 0.750000 0.000000
O O10 0.500000 0.926338 0.750000
O O11 0.571452 0.963524 0.604121
O O12 0.193388 0.997374 0.753784
O O13 0.340302 0.423638 0.334618
O O14 0.590161 0.590331 0.534212
O O15 0.500000 0.500000 0.000000
#
# Coordination Sequence:
#
# PCOD9264857 Si02
#       7
#     8   8   8   8   4   8   8
#     4  11  22  38  69 100 127 178 230 282 345 417
#     4  10  19  35  66 102 137 165 220 281 341 400
#     4  10  19  37  64 102 135 169 219 281 340 405
#     4  11  24  42  62  91 133 175 220 283 347 408
#     4  12  26  46  62  92 138 182 226 282 352 418
#     4  11  23  38  67  96 131 184 228 280 350 411
#     4  11  22  38  64  94 128 168 233 284 335 411
#
# _framework density 22.137875999999999
#
# number of rings (size 3 to 8) (size 9 to 14) (size 15 to 20)
#    0.000    1.231    3.077    5.538    2.154    2.462 
#    0.000    0.000    1.692    0.000    0.000    0.000 
#    0.000    0.000    0.000    0.000    0.000    0.000 
#
# Total GULP energy -144903.291044 kJ/mol
# GULP energy per Si atom -5573.203502 kJ/mol
# Density = 2.208749 g / cm^3
# Si number density = 22.137876 Si / 1000 Ang^3
#
#
#
# Elastic Constant Matrix: (Units=GPa)
#
#
# Indices 1 2 3 4 5 6 
#
# 1 151.4528 74.0509 31.4377 0.0000 0.4948 0.0000
# 2 74.0509 206.4784 38.8750 0.0000 -1.2244 0.0000
# 3 31.4377 38.8750 55.2195 0.0000 -1.9546 0.0000
# 4 0.0000 0.0000 0.0000 28.6203 0.0000 11.6475
# 5 0.4948 -1.2244 -1.9546 0.0000 25.1224 0.0000
# 6 0.0000 0.0000 0.0000 11.6475 0.0000 55.6431
#
#
#
# Elastic Compliance Matrix: (Units=1/GPa)
#
#
# Indices 1 2 3 4 5 6 
#
# 1 0.008445 -0.002448 -0.003104 0.000000 -0.000527 0.000000
# 2 -0.002448 0.006293 -0.003032 0.000000 0.000119 0.000000
# 3 -0.003104 -0.003032 0.022069 0.000000 0.001630 0.000000
# 4 0.000000 0.000000 0.000000 0.038194 0.000000 -0.007995
# 5 -0.000527 0.000119 0.001630 0.000000 0.039948 0.000000
# 6 0.000000 0.000000 0.000000 -0.007995 0.000000 0.019645
#
#
# Mechanical properties :
#
#
# Convention : Reuss Voigt Hill
#
# Bulk Modulus (GPa) = 50.91707 77.98643 64.45175
# Shear Modulus (GPa) = 31.58398 39.79630 35.69014
#
# Velocity S-wave (km/s) = 3.78126 4.24448 4.01955
# Velocity P-wave (km/s) = 6.48951 7.70226 7.12175
#
# Compressibility (1/GPa) = 0.01963978
#
# Stress axis : x y z
#
# Youngs Moduli (GPa) = 118.40741 158.91809 45.31233
#
# Poissons Ratio (x) = 0.38897 0.14063
# Poissons Ratio (y) = 0.28982 0.13740
# Poissons Ratio (z) = 0.36750 0.48189
#
# Static dielectric constant tensor:
#      x y z
#    x 1.873720 0.000000 -0.063270 
#    y 0.000000 1.727780 0.000000 
#    z -0.063270 0.000000 1.841740 
# 
# From -- ./inp_files/186068.got.cif
#   From: 2010.05.17/outbox.cif.g08.bks.cpg/sg15_94_cif.got.tgz:186068.got - 2010.06.03 18:47:42.
