data_PCOD9264616
_publ_section_title
;
Structure prediction by ZEFSAII (Michael W. Deem and Ramdas Pophale) SiO2 
 PCOD9264616
Probable space group: C 2/C
;
_chemical_formula_sum "Si O2"
_cell_formula_units_Z 52
_cell_length_a 16.829244
_cell_length_b 20.042772
_cell_length_c 13.802866
_cell_angle_alpha 90.000000
_cell_angle_beta 34.580229
_cell_angle_gamma 90.000000
_cell_volume 2642.428193
_symmetry_space_group_name_H-M "C 2/C"
_symmetry_group_IT_number 15
_symmetry_cell_setting 'monoclinic'
loop_
_space_group_symop_operation_xyz
x,y,z
-x,y,1/2-z
-x,-y,-z
x,-y,1/2+z
1/2+x,1/2+y,z
1/2-x,1/2+y,1/2-z
1/2-x,1/2-y,-z
1/2+x,1/2-y,1/2+z
loop_
_atom_site_type_symbol
_atom_site_label
_atom_site_fract_x
_atom_site_fract_y
_atom_site_fract_z
Si Si1 0.500000 0.905905 0.750000
Si Si2 0.877453 0.692967 0.213322
Si Si3 0.200208 0.456277 0.240923
Si Si4 0.748246 0.489405 0.524468
Si Si5 0.385144 0.087206 0.051052
Si Si6 0.438643 0.444944 0.134104
Si Si7 0.936618 0.187664 0.921600
O O1 0.541264 0.859300 0.798504
O O2 0.629999 0.954195 0.596614
O O3 0.854507 0.656252 0.134469
O O4 0.971331 0.758454 0.113568
O O5 0.726204 0.706239 0.412369
O O6 0.164739 0.527105 0.327610
O O7 0.301339 0.418629 0.214066
O O8 0.051768 0.421404 0.372132
O O9 0.272778 0.469468 0.065213
O O10 0.807169 0.428249 0.529234
O O11 0.618255 0.520490 0.711751
O O12 0.542598 0.385575 0.054518
O O13 0.500000 0.500000 0.000000
O O14 0.000000 0.187054 0.750000
#
# Coordination Sequence:
#
# PCOD9264616 Si02
#       7
#     4   8   8   8   8   8   8
#     4  12  20  36  64  92 128 162 206 256 306 376
#     4  12  25  40  61  89 129 165 209 258 314 384
#     4  10  19  36  60  93 121 162 204 255 313 366
#     4  11  20  36  66  95 125 165 210 253 320 375
#     4  10  19  35  60  93 125 156 206 260 307 369
#     4  11  26  38  59  91 131 163 208 262 316 372
#     4  12  27  42  62  91 125 173 211 253 324 388
#
# _framework density 19.67887
#
# number of rings (size 3 to 8) (size 9 to 14) (size 15 to 20)
#    0.000    0.923    3.846    5.077    6.462    0.000 
#    0.000    0.000    0.000    0.923    4.000    0.000 
#    0.000    0.000    0.000    0.000    0.000    0.000 
#
# Total GULP energy -145460.723322 kJ/mol
# GULP energy per Si atom -5594.643205 kJ/mol
# Density = 1.963408 g / cm^3
# Si number density = 19.678870 Si / 1000 Ang^3
#
#
#
# Elastic Constant Matrix: (Units=GPa)
#
#
# Indices 1 2 3 4 5 6 
#
# 1 76.0682 -3.8199 8.0625 -0.0003 10.3100 -0.0004
# 2 -3.8199 49.7035 8.2826 -0.0010 2.5770 0.0001
# 3 8.0625 8.2826 73.7969 -0.0016 10.8312 0.0006
# 4 -0.0003 -0.0010 -0.0016 22.4743 0.0007 -3.7040
# 5 10.3100 2.5770 10.8312 0.0007 37.0874 -0.0001
# 6 -0.0004 0.0001 0.0006 -3.7040 -0.0001 24.0239
#
#
#
# Elastic Compliance Matrix: (Units=1/GPa)
#
#
# Indices 1 2 3 4 5 6 
#
# 1 0.013829 0.001440 -0.001143 0.000000 -0.003611 0.000000
# 2 0.001440 0.020675 -0.002307 0.000001 -0.001163 0.000000
# 3 -0.001143 -0.002307 0.014485 0.000001 -0.003752 0.000000
# 4 0.000000 0.000001 0.000001 0.045655 -0.000001 0.007039
# 5 -0.003611 -0.001163 -0.003752 -0.000001 0.029144 0.000000
# 6 0.000000 0.000000 0.000000 0.007039 0.000000 0.042711
#
#
# Mechanical properties :
#
#
# Convention : Reuss Voigt Hill
#
# Bulk Modulus (GPa) = 22.23679 24.95765 23.59722
# Shear Modulus (GPa) = 26.95313 29.18668 28.06990
#
# Velocity S-wave (km/s) = 3.70489 3.85534 3.78087
# Velocity P-wave (km/s) = 5.44298 5.70335 5.57468
#
# Compressibility (1/GPa) = 0.04497051
#
# Stress axis : x y z
#
# Youngs Moduli (GPa) = 72.31222 48.36809 69.03591
#
# Poissons Ratio (x) = -0.06967 0.07888
# Poissons Ratio (y) = -0.10416 0.15927
# Poissons Ratio (z) = 0.08262 0.11159
#
# Static dielectric constant tensor:
#      x y z
#    x 1.722710 0.000000 -0.026580 
#    y 0.000000 1.672360 0.000000 
#    z -0.026580 0.000000 1.722300 
# 
# From -- ./inp_files/163607.got.cif
#   From: 2010.05.17/outbox.cif.g08.bks.cpg/sg15_82_cif.got.tgz:163607.got - 2010.06.03 18:47:42.
