data_PCOD9264949
_publ_section_title
;
Structure prediction by ZEFSAII (Michael W. Deem and Ramdas Pophale) SiO2 
 PCOD9264949
Probable space group: C 2/C
;
_chemical_formula_sum "Si O2"
_cell_formula_units_Z 56
_cell_length_a 13.459315
_cell_length_b 6.264388
_cell_length_c 28.370716
_cell_angle_alpha 90.000000
_cell_angle_beta 112.940815
_cell_angle_gamma 90.000000
_cell_volume 2202.866293
_symmetry_space_group_name_H-M "C 2/C"
_symmetry_group_IT_number 15
_symmetry_cell_setting 'monoclinic'
loop_
_space_group_symop_operation_xyz
x,y,z
-x,y,1/2-z
-x,-y,-z
x,-y,1/2+z
1/2+x,1/2+y,z
1/2-x,1/2+y,1/2-z
1/2-x,1/2-y,-z
1/2+x,1/2-y,1/2+z
loop_
_atom_site_type_symbol
_atom_site_label
_atom_site_fract_x
_atom_site_fract_y
_atom_site_fract_z
Si Si1 0.766486 0.733303 0.654296
Si Si2 0.000000 0.703856 0.250000
Si Si3 0.250000 0.750000 0.000000
Si Si4 0.510098 0.838913 0.328928
Si Si5 0.880071 0.055880 0.802581
Si Si6 0.960693 0.305979 0.596449
Si Si7 0.882224 0.529560 0.439382
Si Si8 0.224645 0.123069 0.067114
O O1 0.888810 0.802347 0.668595
O O2 0.732391 0.647177 0.698981
O O3 0.743579 0.533190 0.615166
O O4 0.690673 0.917864 0.620514
O O5 0.978473 0.539467 0.203820
O O6 0.908716 0.851278 0.256577
O O7 0.280800 0.524809 0.979302
O O8 0.324286 0.875667 0.974145
O O9 0.404406 0.695442 0.307397
O O10 0.530452 0.947951 0.382781
O O11 0.964433 0.153226 0.857481
O O12 0.009844 0.339807 0.553751
O O13 0.836839 0.246024 0.580999
O O14 0.875632 0.275791 0.442210
#
# Coordination Sequence:
#
# PCOD9264949 Si02
#       8
#     8   4   4   8   8   8   8   8
#     4   9  20  35  58  84  98 140 194 216 274 335
#     4  10  22  36  48  80 110 138 178 210 276 338
#     4  10  22  34  50  80 116 140 186 216 278 342
#     4  10  19  37  56  78 109 140 177 233 272 326
#     4  10  19  37  56  78 109 140 177 233 272 326
#     4   9  20  34  58  81 100 138 194 221 272 336
#     4  10  19  36  55  78 109 143 177 232 272 325
#     4  10  19  36  55  78 109 143 177 232 272 325
#
# _framework density 25.421424999999999
#
# number of rings (size 3 to 8) (size 9 to 14) (size 15 to 20)
#    0.000    2.286    0.000    2.571    0.000    0.571 
#    5.143    1.429    0.000    0.000    0.000    0.000 
#    0.000    0.000    0.000    0.000    0.000    0.000 
#
# Total GULP energy -155914.289439 kJ/mol
# GULP energy per Si atom -5568.367480 kJ/mol
# Density = 2.536357 g / cm^3
# Si number density = 25.421425 Si / 1000 Ang^3
#
#
#
# Elastic Constant Matrix: (Units=GPa)
#
#
# Indices 1 2 3 4 5 6 
#
# 1 60.2568 12.8634 26.6445 0.0000 -26.5053 0.0000
# 2 12.8634 52.9041 44.3237 0.0000 -7.6279 0.0000
# 3 26.6445 44.3237 82.1328 0.0000 -40.8301 0.0000
# 4 0.0000 0.0000 0.0000 42.9584 0.0000 -17.7384
# 5 -26.5053 -7.6279 -40.8301 0.0000 56.3391 0.0000
# 6 0.0000 0.0000 0.0000 -17.7384 0.0000 13.7011
#
#
#
# Elastic Compliance Matrix: (Units=1/GPa)
#
#
# Indices 1 2 3 4 5 6 
#
# 1 0.021683 -0.003533 -0.000460 0.000000 0.009390 0.000000
# 2 -0.003533 0.043631 -0.031716 0.000000 -0.018740 0.000000
# 3 -0.000460 -0.031716 0.042515 0.000000 0.026301 0.000000
# 4 0.000000 0.000000 0.000000 0.050017 0.000000 0.064756
# 5 0.009390 -0.018740 0.026301 0.000000 0.038691 0.000000
# 6 0.000000 0.000000 0.000000 0.064756 0.000000 0.156824
#
#
# Mechanical properties :
#
#
# Convention : Reuss Voigt Hill
#
# Bulk Modulus (GPa) = 27.46328 40.32853 33.89590
# Shear Modulus (GPa) = 11.44382 30.03054 20.73718
#
# Velocity S-wave (km/s) = 2.12401 3.44075 2.85921
# Velocity P-wave (km/s) = 4.10389 5.62880 4.92571
#
# Compressibility (1/GPa) = 0.03641226
#
# Stress axis : x y z
#
# Youngs Moduli (GPa) = 46.11822 22.91946 23.52095
#
# Poissons Ratio (x) = 0.08098 0.01081
# Poissons Ratio (y) = 0.16295 0.74599
# Poissons Ratio (z) = 0.02120 0.72691
#
# Static dielectric constant tensor:
#      x y z
#    x 2.065680 0.000000 0.028760 
#    y 0.000000 1.985630 0.000000 
#    z 0.028760 0.000000 2.063310 
# 
# From -- ./inp_files/305433.got.cif
#   From: 2010.05.17/outbox.cif.g08.bks.cpg/sg15_153_cif.got.tgz:305433.got - 2010.06.03 18:47:42.
