data_PCOD9264035
_publ_section_title
;
Structure prediction by ZEFSAII (Michael W. Deem and Ramdas Pophale) SiO2 
 PCOD9264035
Probable space group: C 2/C
;
_chemical_formula_sum "Si O2"
_cell_formula_units_Z 56
_cell_length_a 9.274973
_cell_length_b 27.714394
_cell_length_c 15.404036
_cell_angle_alpha 90.000000
_cell_angle_beta 127.650053
_cell_angle_gamma 90.000000
_cell_volume 3135.047367
_symmetry_space_group_name_H-M "C 2/C"
_symmetry_group_IT_number 15
_symmetry_cell_setting 'monoclinic'
loop_
_space_group_symop_operation_xyz
x,y,z
-x,y,1/2-z
-x,-y,-z
x,-y,1/2+z
1/2+x,1/2+y,z
1/2-x,1/2+y,1/2-z
1/2-x,1/2-y,-z
1/2+x,1/2-y,1/2+z
loop_
_atom_site_type_symbol
_atom_site_label
_atom_site_fract_x
_atom_site_fract_y
_atom_site_fract_z
Si Si1 0.304655 0.827475 0.221361
Si Si2 0.454691 0.488725 0.882519
Si Si3 0.183453 0.082002 0.774479
Si Si4 0.298043 0.732864 0.650189
Si Si5 0.102306 0.179413 0.987948
Si Si6 0.805110 0.585907 0.139972
Si Si7 0.672253 0.976348 0.021414
O O1 0.500000 0.819869 0.250000
O O2 0.288842 0.881286 0.253478
O O3 0.283818 0.792495 0.295930
O O4 0.118049 0.822103 0.096781
O O5 0.365737 0.534534 0.800496
O O6 0.322751 0.442587 0.837629
O O7 0.655437 0.487072 0.914118
O O8 0.500000 0.500000 0.000000
O O9 0.288032 0.066880 0.898382
O O10 0.000000 0.103730 0.750000
O O11 0.500000 0.750720 0.750000
O O12 0.174617 0.776880 0.573482
O O13 0.326835 0.694666 0.582137
O O14 0.190125 0.129497 0.054508
O O15 0.000000 0.601862 0.250000
O O16 0.848539 0.546162 0.081404
O O17 0.500000 0.000000 0.000000
#
# Coordination Sequence:
#
# PCOD9264035 Si02
#       7
#     8   8   8   8   8   8   8
#     4  11  22  34  56  86 111 138 175 225 282 330
#     4   9  19  33  50  74 107 140 178 226 270 315
#     4  10  19  35  54  73 103 143 187 222 259 324
#     4   9  19  38  61  82 103 138 184 225 271 328
#     4  10  20  37  59  79 107 143 183 227 269 330
#     4  11  21  34  53  80 110 143 184 228 278 327
#     4  10  20  33  52  75 105 145 184 227 271 319
#
# _framework density 17.862568
#
# number of rings (size 3 to 8) (size 9 to 14) (size 15 to 20)
#    0.000    2.000    0.000    6.000    0.000    4.571 
#    0.000    0.000    0.000    4.286    0.000    0.000 
#    0.000    0.000    0.000    0.000    0.000    0.000 
#
# Total GULP energy -156061.129005 kJ/mol
# GULP energy per Si atom -5573.611750 kJ/mol
# Density = 1.782191 g / cm^3
# Si number density = 17.862568 Si / 1000 Ang^3
#
#
#
# Elastic Constant Matrix: (Units=GPa)
#
#
# Indices 1 2 3 4 5 6 
#
# 1 146.3726 62.0424 56.6409 0.0000 26.7140 0.0000
# 2 62.0424 63.1428 25.9726 0.0000 10.6733 0.0000
# 3 56.6409 25.9726 85.2538 0.0000 12.5740 0.0000
# 4 0.0000 0.0000 0.0000 20.5591 0.0000 -9.4929
# 5 26.7140 10.6733 12.5740 0.0000 26.5019 0.0000
# 6 0.0000 0.0000 0.0000 -9.4929 0.0000 16.1224
#
#
#
# Elastic Compliance Matrix: (Units=1/GPa)
#
#
# Indices 1 2 3 4 5 6 
#
# 1 0.015261 -0.011357 -0.005467 0.000000 -0.008215 0.000000
# 2 -0.011357 0.027203 -0.000876 0.000000 0.000908 0.000000
# 3 -0.005467 -0.000876 0.015875 0.000000 -0.001668 0.000000
# 4 0.000000 0.000000 0.000000 0.066802 0.000000 0.039333
# 5 -0.008215 0.000908 -0.001668 0.000000 0.046440 0.000000
# 6 0.000000 0.000000 0.000000 0.039333 0.000000 0.085185
#
#
# Mechanical properties :
#
#
# Convention : Reuss Voigt Hill
#
# Bulk Modulus (GPa) = 43.59575 64.89790 54.24683
# Shear Modulus (GPa) = 16.67705 22.64421 19.66063
#
# Velocity S-wave (km/s) = 3.05885 3.56433 3.32122
# Velocity P-wave (km/s) = 6.07739 7.30410 6.71880
#
# Compressibility (1/GPa) = 0.02293801
#
# Stress axis : x y z
#
# Youngs Moduli (GPa) = 65.52709 36.76013 62.99244
#
# Poissons Ratio (x) = 0.41750 0.34440
# Poissons Ratio (y) = 0.74422 0.05517
# Poissons Ratio (z) = 0.35826 0.03219
#
# Static dielectric constant tensor:
#      x y z
#    x 1.586800 0.000000 -0.005390 
#    y 0.000000 1.540030 0.000000 
#    z -0.005390 0.000000 1.629440 
# 
# From -- ./inp_files/139569.got.cif
#   From: 2010.05.17/outbox.cif.g08.bks.cpg/sg15_70_cif.got.tgz:139569.got - 2010.06.03 18:47:42.
