data_PCOD9264605
_publ_section_title
;
Structure prediction by ZEFSAII (Michael W. Deem and Ramdas Pophale) SiO2 
 PCOD9264605
Probable space group: C 2/C
;
_chemical_formula_sum "Si O2"
_cell_formula_units_Z 36
_cell_length_a 13.297283
_cell_length_b 19.254219
_cell_length_c 5.567209
_cell_angle_alpha 90.000000
_cell_angle_beta 101.470726
_cell_angle_gamma 90.000000
_cell_volume 1396.896203
_symmetry_space_group_name_H-M "C 2/C"
_symmetry_group_IT_number 15
_symmetry_cell_setting 'monoclinic'
loop_
_space_group_symop_operation_xyz
x,y,z
-x,y,1/2-z
-x,-y,-z
x,-y,1/2+z
1/2+x,1/2+y,z
1/2-x,1/2+y,1/2-z
1/2-x,1/2-y,-z
1/2+x,1/2-y,1/2+z
loop_
_atom_site_type_symbol
_atom_site_label
_atom_site_fract_x
_atom_site_fract_y
_atom_site_fract_z
Si Si1 0.500000 0.266794 0.250000
Si Si2 0.813242 0.826551 0.900948
Si Si3 0.862995 0.979648 0.802728
Si Si4 0.381044 0.187745 0.855935
Si Si5 0.367278 0.966850 0.273251
O O1 0.398983 0.313245 0.153501
O O2 0.511018 0.214465 0.481433
O O3 0.700162 0.826905 0.960924
O O4 0.838966 0.898010 0.787357
O O5 0.832146 0.759870 0.739599
O O6 0.911392 0.002501 0.579107
O O7 0.754792 0.021010 0.765258
O O8 0.385744 0.114266 0.732372
O O9 0.403099 0.990032 0.556895
#
# Coordination Sequence:
#
# PCOD9264605 Si02
#       5
#     4   8   8   8   8
#     4   8  18  32  60  82 122 152 212 230 304 350
#     4   9  17  34  59  84 118 160 197 247 293 360
#     4  10  19  35  60  91 118 153 203 246 303 359
#     4   9  17  34  59  84 118 160 197 247 293 360
#     4  10  19  35  60  91 118 153 203 246 303 359
#
# _framework density 25.771419000000002
#
# number of rings (size 3 to 8) (size 9 to 14) (size 15 to 20)
#    1.333    1.333    4.444    0.000    0.000    0.000 
#    0.000    8.889    0.000    2.667    0.000    0.000 
#    0.000    0.000    0.000    0.000    0.000    0.000 
#
# Total GULP energy -100404.494545 kJ/mol
# GULP energy per Si atom -5578.027475 kJ/mol
# Density = 2.571276 g / cm^3
# Si number density = 25.771419 Si / 1000 Ang^3
#
#
#
# Elastic Constant Matrix: (Units=GPa)
#
#
# Indices 1 2 3 4 5 6 
#
# 1 134.1388 15.0426 40.2711 0.0000 -10.6106 0.0000
# 2 15.0426 214.6576 27.9501 0.0000 -17.5900 0.0000
# 3 40.2711 27.9501 141.8007 0.0000 0.8816 0.0000
# 4 0.0000 0.0000 0.0000 -19.0174 0.0000 228.9959
# 5 -10.6106 -17.5900 0.8816 0.0000 40.7177 0.0000
# 6 0.0000 0.0000 0.0000 228.9959 0.0000 -879.8894
#
#
#
# Elastic Compliance Matrix: (Units=1/GPa)
#
#
# Indices 1 2 3 4 5 6 
#
# 1 0.008349 -0.000098 -0.002365 0.000000 0.002184 0.000000
# 2 -0.000098 0.004966 -0.000964 0.000000 0.002141 0.000000
# 3 -0.002365 -0.000964 0.007921 0.000000 -0.001205 0.000000
# 4 0.000000 0.000000 0.000000 0.024643 0.000000 0.006413
# 5 0.002184 0.002141 -0.001205 0.000000 0.026080 0.000000
# 6 0.000000 0.000000 0.000000 0.006413 0.000000 0.000533
#
#
# Mechanical properties :
#
#
# Convention : Reuss Voigt Hill
#
# Bulk Modulus (GPa) = 69.53500 73.01385 71.27443
# Shear Modulus (GPa) = 59.42414 -144.48227 -42.52906
#
# Velocity S-wave (km/s) = 4.80710 -7.49564 -4.06672
# Velocity P-wave (km/s) = 7.60598 6.82056 2.38022
#
# Compressibility (1/GPa) = 0.01438125
#
# Stress axis : x y z
#
# Youngs Moduli (GPa) = 119.77670 201.35083 126.23913
#
# Poissons Ratio (x) = 0.01975 0.29859
# Poissons Ratio (y) = 0.01175 0.12174
# Poissons Ratio (z) = 0.28331 0.19418
#
# Static dielectric constant tensor:
#      x y z
#    x 2.057510 0.000000 0.042550 
#    y 0.000000 1.980230 0.000000 
#    z 0.042550 0.000000 2.137470 
# 
# From -- ./inp_files/10114.got.cif
#   From: 2010.05.17/outbox.cif.g08.bks.cpg/sg15_6_cif.got.tgz:10114.got - 2010.06.03 18:47:42.
