data_PCOD9264817
_publ_section_title
;
Structure prediction by ZEFSAII (Michael W. Deem and Ramdas Pophale) SiO2 
 PCOD9264817
Probable space group: C 2/C
;
_chemical_formula_sum "Si O2"
_cell_formula_units_Z 48
_cell_length_a 15.048649
_cell_length_b 13.044840
_cell_length_c 21.306152
_cell_angle_alpha 90.000000
_cell_angle_beta 37.745668
_cell_angle_gamma 90.000000
_cell_volume 2560.380213
_symmetry_space_group_name_H-M "C 2/C"
_symmetry_group_IT_number 15
_symmetry_cell_setting 'monoclinic'
loop_
_space_group_symop_operation_xyz
x,y,z
-x,y,1/2-z
-x,-y,-z
x,-y,1/2+z
1/2+x,1/2+y,z
1/2-x,1/2+y,1/2-z
1/2-x,1/2-y,-z
1/2+x,1/2-y,1/2+z
loop_
_atom_site_type_symbol
_atom_site_label
_atom_site_fract_x
_atom_site_fract_y
_atom_site_fract_z
Si Si1 0.011454 0.613734 0.639430
Si Si2 0.418452 0.625091 0.891524
Si Si3 0.000000 0.214050 0.250000
Si Si4 0.752174 0.292069 0.898486
Si Si5 0.734846 0.884633 0.318362
Si Si6 0.500000 0.946012 0.750000
Si Si7 0.243070 0.054159 0.092105
O O1 0.020130 0.713701 0.678173
O O2 0.854098 0.606116 0.695541
O O3 0.037328 0.517444 0.670548
O O4 0.128786 0.605971 0.518702
O O5 0.350675 0.715301 0.886103
O O6 0.591553 0.620673 0.788630
O O7 0.349298 0.520434 0.902918
O O8 0.363860 0.653402 0.991559
O O9 0.138204 0.140325 0.178322
O O10 0.688967 0.219428 0.880049
O O11 0.862755 0.375799 0.810558
O O12 0.703289 0.979499 0.382455
#
# Coordination Sequence:
#
# PCOD9264817 Si02
#       7
#     8   8   4   8   8   4   8
#     4  11  26  38  59  89 121 155 202 241 293 346
#     4  10  19  36  63  92 116 151 197 238 294 356
#     4  11  24  43  62  78 120 169 196 237 288 362
#     4  10  19  35  64  87 117 155 190 239 296 351
#     4  11  22  38  61  96 117 146 199 255 288 338
#     4  11  20  41  58  84 122 163 188 237 296 358
#     4  11  20  42  64  83 117 164 197 234 297 358
#
# _framework density 18.747216000000002
#
# number of rings (size 3 to 8) (size 9 to 14) (size 15 to 20)
#    0.000    1.333    5.000    2.000    0.000    2.667 
#    0.000    0.833    0.000    0.000    0.000    0.000 
#    0.000    0.000    0.000    0.000    0.000    0.000 
#
# Total GULP energy -134053.976638 kJ/mol
# GULP energy per Si atom -5585.582360 kJ/mol
# Density = 1.870455 g / cm^3
# Si number density = 18.747216 Si / 1000 Ang^3
#
#
#
# Elastic Constant Matrix: (Units=GPa)
#
#
# Indices 1 2 3 4 5 6 
#
# 1 48.7496 9.2745 -15.4546 0.0000 -1.9393 0.0000
# 2 9.2745 101.6680 17.6868 0.0000 7.0007 0.0000
# 3 -15.4546 17.6868 73.9003 -0.0001 -1.4064 0.0001
# 4 0.0000 0.0000 -0.0001 18.7620 0.0001 -6.5647
# 5 -1.9393 7.0007 -1.4064 0.0001 16.9437 0.0000
# 6 0.0000 0.0000 0.0001 -6.5647 0.0000 -4.0688
#
#
#
# Elastic Compliance Matrix: (Units=1/GPa)
#
#
# Indices 1 2 3 4 5 6 
#
# 1 0.023169 -0.003427 0.005752 0.000000 0.004545 0.000000
# 2 -0.003427 0.011117 -0.003478 0.000000 -0.005274 0.000000
# 3 0.005752 -0.003478 0.015632 0.000000 0.003393 0.000000
# 4 0.000000 0.000000 0.000000 0.034067 0.000000 -0.054965
# 5 0.004545 -0.005274 0.003393 0.000000 0.062000 0.000000
# 6 0.000000 0.000000 0.000000 -0.054965 0.000000 -0.157092
#
#
# Mechanical properties :
#
#
# Convention : Reuss Voigt Hill
#
# Bulk Modulus (GPa) = 21.00309 27.48123 24.24216
# Shear Modulus (GPa) = 707.29028 20.51480 363.90254
#
# Velocity S-wave (km/s) = 19.44470 3.31159 13.94746
# Velocity P-wave (km/s) = 22.70146 5.41413 16.50256
#
# Compressibility (1/GPa) = 0.04761205
#
# Stress axis : x y z
#
# Youngs Moduli (GPa) = 43.16041 89.95438 63.97310
#
# Poissons Ratio (x) = 0.30830 -0.36798
# Poissons Ratio (y) = 0.14792 0.22248
# Poissons Ratio (z) = -0.24826 0.31283
#
# Static dielectric constant tensor:
#      x y z
#    x 1.619710 0.000000 0.003020 
#    y 0.000000 1.642530 0.000000 
#    z 0.003020 0.000000 1.652290 
# 
# From -- ./inp_files/151898.got.cif
#   From: 2010.05.17/outbox.cif.g08.bks.cpg/sg15_76_cif.got.tgz:151898.got - 2010.06.03 18:47:42.
