data_PCOD9264186
_publ_section_title
;
Structure prediction by ZEFSAII (Michael W. Deem and Ramdas Pophale) SiO2 
 PCOD9264186
Probable space group: C 2/C
;
_chemical_formula_sum "Si O2"
_cell_formula_units_Z 48
_cell_length_a 20.017890
_cell_length_b 11.335747
_cell_length_c 21.151743
_cell_angle_alpha 90.000000
_cell_angle_beta 27.057609
_cell_angle_gamma 90.000000
_cell_volume 2183.319610
_symmetry_space_group_name_H-M "C 2/C"
_symmetry_group_IT_number 15
_symmetry_cell_setting 'monoclinic'
loop_
_space_group_symop_operation_xyz
x,y,z
-x,y,1/2-z
-x,-y,-z
x,-y,1/2+z
1/2+x,1/2+y,z
1/2-x,1/2+y,1/2-z
1/2-x,1/2-y,-z
1/2+x,1/2-y,1/2+z
loop_
_atom_site_type_symbol
_atom_site_label
_atom_site_fract_x
_atom_site_fract_y
_atom_site_fract_z
Si Si1 0.371987 0.249078 0.473316
Si Si2 0.480785 0.140844 0.508520
Si Si3 0.725677 0.212172 0.709148
Si Si4 0.112097 0.099711 0.699618
Si Si5 0.376407 0.552581 0.193436
Si Si6 0.698783 0.534644 0.385875
O O1 0.458703 0.180205 0.455438
O O2 0.251208 0.158685 0.548556
O O3 0.496006 0.304437 0.324521
O O4 0.280478 0.353606 0.586497
O O5 0.335415 0.175286 0.670604
O O6 0.614376 0.224350 0.422130
O O7 0.500000 0.000000 0.500000
O O8 0.619120 0.318112 0.780017
O O9 0.720582 0.090895 0.674284
O O10 0.000000 0.025927 0.750000
O O11 0.176060 0.030171 0.705695
O O12 0.292964 0.563453 0.196195
O O13 0.530844 0.499226 0.042907
#
# Coordination Sequence:
#
# PCOD9264186 Si02
#       6
#     8   8   8   8   8   8
#     4  11  22  39  61  87 121 154 197 250 302 351
#     4  12  24  34  58  94 129 158 191 245 313 377
#     4  12  20  36  54  87 131 151 193 236 312 373
#     4  11  24  41  61  84 117 165 207 239 287 355
#     4  10  20  36  57  82 120 156 190 240 298 359
#     4  10  19  35  56  86 120 152 181 243 316 351
#
# _framework density 21.984870999999998
#
# number of rings (size 3 to 8) (size 9 to 14) (size 15 to 20)
#    0.000    1.000    3.333    6.500    2.333    0.000 
#    0.000    0.000    0.000    5.000    0.000    0.000 
#    0.000    0.000    0.000    0.000    0.000    0.000 
#
# Total GULP energy -133819.070813 kJ/mol
# GULP energy per Si atom -5575.794617 kJ/mol
# Density = 2.193483 g / cm^3
# Si number density = 21.984871 Si / 1000 Ang^3
#
#
#
# Elastic Constant Matrix: (Units=GPa)
#
#
# Indices 1 2 3 4 5 6 
#
# 1 37.9403 11.8608 -2.4968 0.0000 -3.5243 0.0000
# 2 11.8608 116.4921 13.0149 -0.0001 -3.3481 0.0001
# 3 -2.4968 13.0149 58.7407 0.0000 9.6907 0.0001
# 4 0.0000 -0.0001 0.0000 47.4881 0.0000 0.2067
# 5 -3.5243 -3.3481 9.6907 0.0000 19.9161 0.0000
# 6 0.0000 0.0001 0.0001 0.2067 0.0000 21.8890
#
#
#
# Elastic Compliance Matrix: (Units=1/GPa)
#
#
# Indices 1 2 3 4 5 6 
#
# 1 0.027679 -0.002838 0.001170 0.000000 0.003852 0.000000
# 2 -0.002838 0.009223 -0.002541 0.000000 0.002285 0.000000
# 3 0.001170 -0.002541 0.019215 0.000000 -0.009570 0.000000
# 4 0.000000 0.000000 0.000000 0.021059 0.000000 -0.000199
# 5 0.003852 0.002285 -0.009570 0.000000 0.055933 0.000000
# 6 0.000000 0.000000 0.000000 -0.000199 0.000000 0.045687
#
#
# Mechanical properties :
#
#
# Convention : Reuss Voigt Hill
#
# Bulk Modulus (GPa) = 20.96481 28.65900 24.81191
# Shear Modulus (GPa) = 24.61668 30.57826 27.59747
#
# Velocity S-wave (km/s) = 3.34984 3.73349 3.54686
# Velocity P-wave (km/s) = 4.95163 5.62578 5.29943
#
# Compressibility (1/GPa) = 0.04769897
#
# Stress axis : x y z
#
# Youngs Moduli (GPa) = 36.12819 108.42701 52.04133
#
# Poissons Ratio (x) = 0.30774 -0.06088
# Poissons Ratio (y) = 0.10254 0.13224
# Poissons Ratio (z) = -0.04227 0.27551
#
# Static dielectric constant tensor:
#      x y z
#    x 1.885150 0.000000 -0.024530 
#    y 0.000000 1.877510 0.000000 
#    z -0.024530 0.000000 1.852770 
# 
# From -- ./inp_files/252506.got.cif
#   From: 2010.05.17/outbox.cif.g08.bks.cpg/sg15_127_cif.got.tgz:252506.got - 2010.06.03 18:47:42.
