data_PCOD9264988
_publ_section_title
;
Structure prediction by ZEFSAII (Michael W. Deem and Ramdas Pophale) SiO2 
 PCOD9264988
Probable space group: C 2/C
;
_chemical_formula_sum "Si O2"
_cell_formula_units_Z 64
_cell_length_a 22.352531
_cell_length_b 15.337361
_cell_length_c 17.700515
_cell_angle_alpha 90.000000
_cell_angle_beta 145.359280
_cell_angle_gamma 90.000000
_cell_volume 3449.365151
_symmetry_space_group_name_H-M "C 2/C"
_symmetry_group_IT_number 15
_symmetry_cell_setting 'monoclinic'
loop_
_space_group_symop_operation_xyz
x,y,z
-x,y,1/2-z
-x,-y,-z
x,-y,1/2+z
1/2+x,1/2+y,z
1/2-x,1/2+y,1/2-z
1/2-x,1/2-y,-z
1/2+x,1/2-y,1/2+z
loop_
_atom_site_type_symbol
_atom_site_label
_atom_site_fract_x
_atom_site_fract_y
_atom_site_fract_z
Si Si1 0.361622 0.318031 0.407371
Si Si2 0.771209 0.774158 0.860174
Si Si3 0.606320 0.360623 0.650450
Si Si4 0.266325 0.800227 0.938431
Si Si5 0.393003 0.111937 0.028954
Si Si6 0.617715 0.960160 0.368233
Si Si7 0.134158 0.425133 0.749094
Si Si8 0.250797 0.515593 0.742251
O O1 0.318582 0.271103 0.286126
O O2 0.482697 0.345520 0.527116
O O3 0.338719 0.255006 0.455027
O O4 0.296121 0.408073 0.342377
O O5 0.850026 0.814749 0.879896
O O6 0.840021 0.705963 0.978750
O O7 0.714842 0.847423 0.851779
O O8 0.661654 0.317113 0.780711
O O9 0.653084 0.458694 0.691711
O O10 0.250000 0.750000 0.000000
O O11 0.311506 0.893656 0.011614
O O12 0.319979 0.061588 0.893546
O O13 0.386515 0.054504 0.096855
O O14 0.514473 0.108333 0.129089
O O15 0.500000 0.922530 0.250000
O O16 0.644872 0.988079 0.311459
O O17 0.172402 0.451938 0.705588
#
# Coordination Sequence:
#
# PCOD9264988 Si02
#       8
#     8   8   8   8   8   8   8   8
#     4  10  21  35  56  84 110 148 186 237 288 328
#     4   9  20  35  56  84 107 136 188 235 278 340
#     4  10  20  36  56  80 113 146 182 236 285 332
#     4  11  23  37  54  82 115 151 192 229 281 343
#     4  10  19  36  56  80 112 145 184 232 284 331
#     4  10  22  37  54  80 111 149 184 229 281 335
#     4  10  20  35  57  82 111 147 187 231 282 336
#     4  10  19  36  56  84 111 148 191 233 280 340
#
# _framework density 18.554137999999998
#
# number of rings (size 3 to 8) (size 9 to 14) (size 15 to 20)
#    0.000    2.000    1.250    2.250    1.750    0.500 
#    4.500    0.000    0.000    0.000    0.000    0.000 
#    0.000    0.000    0.000    0.000    0.000    0.000 
#
# Total GULP energy -178348.690584 kJ/mol
# GULP energy per Si atom -5573.396581 kJ/mol
# Density = 1.851191 g / cm^3
# Si number density = 18.554138 Si / 1000 Ang^3
#
#
#
# Elastic Constant Matrix: (Units=GPa)
#
#
# Indices 1 2 3 4 5 6 
#
# 1 62.1993 13.4872 27.8333 0.0000 13.4614 0.0000
# 2 13.4872 66.7750 17.2853 0.0000 9.2787 0.0000
# 3 27.8333 17.2853 76.2108 0.0000 18.9473 0.0000
# 4 0.0000 0.0000 0.0000 25.1133 0.0000 -1.3744
# 5 13.4614 9.2787 18.9473 0.0000 22.7074 0.0000
# 6 0.0000 0.0000 0.0000 -1.3744 0.0000 19.7603
#
#
#
# Elastic Compliance Matrix: (Units=1/GPa)
#
#
# Indices 1 2 3 4 5 6 
#
# 1 0.020330 -0.001774 -0.005307 0.000000 -0.006899 0.000000
# 2 -0.001774 0.016421 -0.002107 0.000000 -0.003901 0.000000
# 3 -0.005307 -0.002107 0.018348 0.000000 -0.011302 0.000000
# 4 0.000000 0.000000 0.000000 0.039972 0.000000 0.002780
# 5 -0.006899 -0.003901 -0.011302 0.000000 0.059153 0.000000
# 6 0.000000 0.000000 0.000000 0.002780 0.000000 0.050800
#
#
# Mechanical properties :
#
#
# Convention : Reuss Voigt Hill
#
# Bulk Modulus (GPa) = 27.23111 35.82186 31.52649
# Shear Modulus (GPa) = 21.21878 23.28815 22.25347
#
# Velocity S-wave (km/s) = 3.38541 3.54665 3.46696
# Velocity P-wave (km/s) = 5.47629 6.01001 5.74934
#
# Compressibility (1/GPa) = 0.03672270
#
# Stress axis : x y z
#
# Youngs Moduli (GPa) = 49.18843 60.89638 54.50293
#
# Poissons Ratio (x) = 0.10802 0.28927
# Poissons Ratio (y) = 0.08725 0.11484
# Poissons Ratio (z) = 0.26106 0.12831
#
# Static dielectric constant tensor:
#      x y z
#    x 1.627410 0.000000 -0.010390 
#    y 0.000000 1.695340 0.000000 
#    z -0.010390 0.000000 1.624470 
# 
# From -- ./inp_files/113651.got.cif
#   From: 2010.05.17/outbox.cif.g08.bks.cpg/sg15_57_cif.got.tgz:113651.got - 2010.06.03 18:47:42.
