data_PCOD9264654
_publ_section_title
;
Structure prediction by ZEFSAII (Michael W. Deem and Ramdas Pophale) SiO2 
 PCOD9264654
Probable space group: C 2/C
;
_chemical_formula_sum "Si O2"
_cell_formula_units_Z 52
_cell_length_a 5.417934
_cell_length_b 34.382417
_cell_length_c 12.648852
_cell_angle_alpha 90.000000
_cell_angle_beta 88.005440
_cell_angle_gamma 90.000000
_cell_volume 2354.821658
_symmetry_space_group_name_H-M "C 2/C"
_symmetry_group_IT_number 15
_symmetry_cell_setting 'monoclinic'
loop_
_space_group_symop_operation_xyz
x,y,z
-x,y,1/2-z
-x,-y,-z
x,-y,1/2+z
1/2+x,1/2+y,z
1/2-x,1/2+y,1/2-z
1/2-x,1/2-y,-z
1/2+x,1/2-y,1/2+z
loop_
_atom_site_type_symbol
_atom_site_label
_atom_site_fract_x
_atom_site_fract_y
_atom_site_fract_z
Si Si1 0.013547 0.702589 0.472442
Si Si2 0.000000 0.180734 0.750000
Si Si3 0.484486 0.343635 0.484780
Si Si4 0.354033 0.431161 0.522511
Si Si5 0.319239 0.752099 0.328959
Si Si6 0.249779 0.418196 0.755291
Si Si7 0.358981 0.959191 0.519462
O O1 0.250645 0.674003 0.485697
O O2 0.083776 0.728104 0.370382
O O3 0.035019 0.732906 0.569714
O O4 0.751619 0.681439 0.473995
O O5 0.032218 0.157008 0.642578
O O6 0.226771 0.209605 0.769686
O O7 0.454714 0.387616 0.521677
O O8 0.289500 0.442440 0.645926
O O9 0.583883 0.456156 0.473934
O O10 0.081117 0.431411 0.474962
O O11 0.500000 0.729094 0.250000
O O12 0.500000 0.394136 0.750000
O O13 0.206933 0.445164 0.858905
O O14 0.000000 0.394179 0.750000
O O15 0.500000 0.000000 0.500000
#
# Coordination Sequence:
#
# PCOD9264654 Si02
#       7
#     8   4   8   8   8   8   8
#     4  10  23  36  60  85 119 152 207 253 294 366
#     4  10  22  36  66  76 120 164 202 248 310 362
#     4  11  22  40  58  89 114 165 199 244 310 362
#     4  10  20  36  60  82 123 151 191 242 288 362
#     4  10  20  37  58  86 115 159 205 251 309 346
#     4   8  16  31  53  79 105 151 177 224 276 343
#     4  10  19  35  61  88 112 154 193 233 286 351
#
# _framework density 22.082353000000001
#
# number of rings (size 3 to 8) (size 9 to 14) (size 15 to 20)
#    0.000    2.154    1.538    1.385    2.154    1.846 
#    0.000    6.923   15.231    0.000    0.000    0.000 
#    0.000    0.000    0.000    0.000    0.000    0.000 
#
# Total GULP energy -144743.801892 kJ/mol
# GULP energy per Si atom -5567.069304 kJ/mol
# Density = 2.203209 g / cm^3
# Si number density = 22.082353 Si / 1000 Ang^3
#
#
#
# Elastic Constant Matrix: (Units=GPa)
#
#
# Indices 1 2 3 4 5 6 
#
# 1 169.3693 18.0804 23.4775 0.0000 -47.6495 0.0000
# 2 18.0804 71.8548 27.7345 0.0000 -14.9836 0.0000
# 3 23.4775 27.7345 91.7160 0.0000 -15.9804 0.0000
# 4 0.0000 0.0000 0.0000 22.6220 0.0000 -7.3317
# 5 -47.6495 -14.9836 -15.9804 0.0000 38.2374 0.0000
# 6 0.0000 0.0000 0.0000 -7.3317 0.0000 32.7892
#
#
#
# Elastic Compliance Matrix: (Units=1/GPa)
#
#
# Indices 1 2 3 4 5 6 
#
# 1 0.009107 0.000224 -0.000438 0.000000 0.011253 0.000000
# 2 0.000224 0.016518 -0.004180 0.000000 0.005005 0.000000
# 3 -0.000438 -0.004180 0.012833 0.000000 0.003179 0.000000
# 4 0.000000 0.000000 0.000000 0.047659 0.000000 0.010656
# 5 0.011253 0.005005 0.003179 0.000000 0.043466 0.000000
# 6 0.000000 0.000000 0.000000 0.010656 0.000000 0.032881
#
#
# Mechanical properties :
#
#
# Convention : Reuss Voigt Hill
#
# Bulk Modulus (GPa) = 33.70440 52.39164 43.04802
# Shear Modulus (GPa) = 27.60273 36.30623 31.95448
#
# Velocity S-wave (km/s) = 3.53936 4.05918 3.80815
# Velocity P-wave (km/s) = 5.65676 6.76361 6.23479
#
# Compressibility (1/GPa) = 0.02966972
#
# Stress axis : x y z
#
# Youngs Moduli (GPa) = 109.80497 60.54114 77.92145
#
# Poissons Ratio (x) = -0.01358 0.03415
# Poissons Ratio (y) = -0.02462 0.32573
# Poissons Ratio (z) = 0.04812 0.25308
#
# Static dielectric constant tensor:
#      x y z
#    x 2.003800 0.000000 0.076930 
#    y 0.000000 1.808440 0.000000 
#    z 0.076930 0.000000 1.831670 
# 
# From -- ./inp_files/130677.got.cif
#   From: 2010.05.17/outbox.cif.g08.bks.cpg/sg15_66_cif.got.tgz:130677.got - 2010.06.03 18:47:42.
