data_PCOD9264014
_publ_section_title
;
Structure prediction by ZEFSAII (Michael W. Deem and Ramdas Pophale) SiO2 
 PCOD9264014
Probable space group: C 2/C
;
_chemical_formula_sum "Si O2"
_cell_formula_units_Z 48
_cell_length_a 27.010833
_cell_length_b 13.444815
_cell_length_c 23.046102
_cell_angle_alpha 90.000000
_cell_angle_beta 20.243027
_cell_angle_gamma 90.000000
_cell_volume 2895.809547
_symmetry_space_group_name_H-M "C 2/C"
_symmetry_group_IT_number 15
_symmetry_cell_setting 'monoclinic'
loop_
_space_group_symop_operation_xyz
x,y,z
-x,y,1/2-z
-x,-y,-z
x,-y,1/2+z
1/2+x,1/2+y,z
1/2-x,1/2+y,1/2-z
1/2-x,1/2-y,-z
1/2+x,1/2-y,1/2+z
loop_
_atom_site_type_symbol
_atom_site_label
_atom_site_fract_x
_atom_site_fract_y
_atom_site_fract_z
Si Si1 0.463710 0.517953 0.947544
Si Si2 0.913441 0.847355 0.288373
Si Si3 0.608644 0.647146 0.359172
Si Si4 0.393021 0.119452 0.319861
Si Si5 0.430934 0.150353 0.044132
Si Si6 0.858265 0.482409 0.734278
O O1 0.539525 0.585732 0.816473
O O2 0.561076 0.425002 0.859079
O O3 0.438659 0.587011 0.031307
O O4 0.305581 0.487095 0.099345
O O5 0.750564 0.861925 0.485840
O O6 0.944195 0.730272 0.244503
O O7 0.000000 0.878114 0.250000
O O8 0.519766 0.748562 0.452594
O O9 0.778741 0.664012 0.179099
O O10 0.500000 0.075603 0.250000
O O11 0.370881 0.056597 0.286085
O O12 0.396316 0.104479 0.145898
O O13 0.530331 0.070250 0.901850
#
# Coordination Sequence:
#
# PCOD9264014 Si02
#       6
#     8   8   8   8   8   8
#     4  10  20  35  56  79 109 141 179 215 264 316
#     4  10  19  35  53  79 110 145 175 214 265 315
#     4  10  21  36  55  81 106 141 176 221 266 314
#     4  10  21  33  53  81 112 142 177 216 262 316
#     4  10  21  36  56  79 108 139 178 220 268 311
#     4  10  20  36  54  80 109 142 176 219 263 315
#
# _framework density 16.575676000000001
#
# number of rings (size 3 to 8) (size 9 to 14) (size 15 to 20)
#    0.000    2.000    1.667    2.000    2.333    1.333 
#    0.000    0.000    0.000    2.000    0.000    0.000 
#    0.000    0.000    0.000    0.000    0.000    0.000 
#
# Total GULP energy -133839.481439 kJ/mol
# GULP energy per Si atom -5576.645060 kJ/mol
# Density = 1.653795 g / cm^3
# Si number density = 16.575676 Si / 1000 Ang^3
#
#
#
# Elastic Constant Matrix: (Units=GPa)
#
#
# Indices 1 2 3 4 5 6 
#
# 1 109.1634 39.7343 49.3265 -0.0001 -22.3839 0.0001
# 2 39.7343 78.8682 46.7569 0.0001 -22.9489 0.0002
# 3 49.3265 46.7569 95.5672 0.0001 -21.6794 0.0003
# 4 -0.0001 0.0001 0.0001 35.3493 0.0002 -5.5359
# 5 -22.3839 -22.9489 -21.6794 0.0002 29.3272 -0.0002
# 6 0.0001 0.0002 0.0003 -5.5359 -0.0002 19.5635
#
#
#
# Elastic Compliance Matrix: (Units=1/GPa)
#
#
# Indices 1 2 3 4 5 6 
#
# 1 0.013058 -0.002609 -0.004404 0.000000 0.004669 0.000000
# 2 -0.002609 0.020621 -0.006649 0.000000 0.009230 0.000000
# 3 -0.004404 -0.006649 0.016877 0.000000 0.003912 0.000000
# 4 0.000000 0.000000 0.000000 0.029601 0.000000 0.008376
# 5 0.004669 0.009230 0.003912 0.000000 0.047776 0.000000
# 6 0.000000 0.000000 0.000000 0.008376 0.000000 0.053486
#
#
# Mechanical properties :
#
#
# Convention : Reuss Voigt Hill
#
# Bulk Modulus (GPa) = 43.04221 61.69267 52.36744
# Shear Modulus (GPa) = 23.09613 26.70009 24.89811
#
# Velocity S-wave (km/s) = 3.73684 4.01783 3.87988
# Velocity P-wave (km/s) = 6.68148 7.66965 7.19255
#
# Compressibility (1/GPa) = 0.02323301
#
# Stress axis : x y z
#
# Youngs Moduli (GPa) = 76.58384 48.49387 59.25136
#
# Poissons Ratio (x) = 0.12652 0.26094
# Poissons Ratio (y) = 0.19981 0.39393
# Poissons Ratio (z) = 0.33727 0.32241
#
# Static dielectric constant tensor:
#      x y z
#    x 1.545450 0.000000 -0.029500 
#    y 0.000000 1.539140 0.000000 
#    z -0.029500 0.000000 1.463840 
# 
# From -- ./inp_files/60522.got.cif
#   From: 2010.05.17/outbox.cif.g08.bks.cpg/sg15_31_cif.got.tgz:60522.got - 2010.06.03 18:47:42.
