data_PCOD9264771
_publ_section_title
;
Structure prediction by ZEFSAII (Michael W. Deem and Ramdas Pophale) SiO2 
 PCOD9264771
Probable space group: C 2/C
;
_chemical_formula_sum "Si O2"
_cell_formula_units_Z 48
_cell_length_a 17.698052
_cell_length_b 17.946933
_cell_length_c 13.296869
_cell_angle_alpha 90.000000
_cell_angle_beta 32.809501
_cell_angle_gamma 90.000000
_cell_volume 2288.454297
_symmetry_space_group_name_H-M "C 2/C"
_symmetry_group_IT_number 15
_symmetry_cell_setting 'monoclinic'
loop_
_space_group_symop_operation_xyz
x,y,z
-x,y,1/2-z
-x,-y,-z
x,-y,1/2+z
1/2+x,1/2+y,z
1/2-x,1/2+y,1/2-z
1/2-x,1/2-y,-z
1/2+x,1/2-y,1/2+z
loop_
_atom_site_type_symbol
_atom_site_label
_atom_site_fract_x
_atom_site_fract_y
_atom_site_fract_z
Si Si1 0.271836 0.006034 0.276226
Si Si2 0.515890 0.925869 0.117965
Si Si3 0.350395 0.347205 0.541010
Si Si4 0.630086 0.624031 0.840553
Si Si5 0.902487 0.283163 0.567209
Si Si6 0.088522 0.309709 0.560923
O O1 0.380612 0.953682 0.210601
O O2 0.147528 0.953577 0.377753
O O3 0.228652 0.076117 0.393800
O O4 0.353305 0.038573 0.087838
O O5 0.500000 0.948391 0.250000
O O6 0.531472 0.837031 0.088265
O O7 0.502008 0.372947 0.407168
O O8 0.255545 0.310811 0.735786
O O9 0.365039 0.274039 0.456079
O O10 0.601781 0.695189 0.944356
O O11 0.776094 0.643924 0.622202
O O12 0.988165 0.298759 0.575770
O O13 0.000000 0.344213 0.750000
#
# Coordination Sequence:
#
# PCOD9264771 Si02
#       6
#     8   8   8   8   8   8
#     4  10  20  39  60  86 118 154 197 242 295 349
#     4  10  21  40  63  86 114 155 204 241 284 351
#     4   9  20  34  55  83 123 157 185 239 297 343
#     4  10  19  35  63  85 120 157 193 242 298 339
#     4   9  19  38  58  85 115 156 199 240 287 345
#     4  10  20  36  59  88 119 158 199 235 290 357
#
# _framework density 20.974855000000002
#
# number of rings (size 3 to 8) (size 9 to 14) (size 15 to 20)
#    0.000    2.333    1.667    0.500    0.000    6.667 
#    6.000    0.833    0.000    0.000    0.000    0.000 
#    0.000    0.000    0.000    0.000    0.000    0.000 
#
# Total GULP energy -133859.143646 kJ/mol
# GULP energy per Si atom -5577.464319 kJ/mol
# Density = 2.092712 g / cm^3
# Si number density = 20.974855 Si / 1000 Ang^3
#
#
#
# Elastic Constant Matrix: (Units=GPa)
#
#
# Indices 1 2 3 4 5 6 
#
# 1 52.8389 5.7112 27.1354 0.0000 -3.1524 0.0001
# 2 5.7112 73.6859 17.5931 -0.0001 -6.4040 0.0001
# 3 27.1354 17.5931 60.8666 0.0000 -7.2159 0.0001
# 4 0.0000 -0.0001 0.0000 4.5624 -0.0001 3.9246
# 5 -3.1524 -6.4040 -7.2159 -0.0001 28.8828 0.0000
# 6 0.0001 0.0001 0.0001 3.9246 0.0000 3.4939
#
#
#
# Elastic Compliance Matrix: (Units=1/GPa)
#
#
# Indices 1 2 3 4 5 6 
#
# 1 0.024585 0.000768 -0.011175 0.000025 0.000062 -0.000029
# 2 0.000768 0.014744 -0.004335 0.000018 0.002270 -0.000020
# 3 -0.011175 -0.004335 0.023090 -0.000007 0.003588 0.000008
# 4 0.000025 0.000018 -0.000007 6.498976 0.000036 -7.300222
# 5 0.000062 0.002270 0.003588 0.000036 0.036029 -0.000041
# 6 -0.000029 -0.000020 0.000008 -7.300222 -0.000041 8.486467
#
#
# Mechanical properties :
#
#
# Convention : Reuss Voigt Hill
#
# Bulk Modulus (GPa) = 30.36318 32.03009 31.19663
# Shear Modulus (GPa) = 0.33059 16.51791 8.42425
#
# Velocity S-wave (km/s) = 0.39744 2.80931 2.00626
# Velocity P-wave (km/s) = 3.83641 5.08201 4.50249
#
# Compressibility (1/GPa) = 0.03293463
#
# Stress axis : x y z
#
# Youngs Moduli (GPa) = 40.67498 67.82482 43.30924
#
# Poissons Ratio (x) = -0.05209 0.48399
# Poissons Ratio (y) = -0.03124 0.18774
# Poissons Ratio (z) = 0.45455 0.29401
#
# Static dielectric constant tensor:
#      x y z
#    x 1.748310 0.000000 -0.040320 
#    y 0.000000 1.793910 0.000000 
#    z -0.040320 0.000000 1.753900 
# 
# From -- ./inp_files/169331.got.cif
#   From: 2010.05.17/outbox.cif.g08.bks.cpg/sg15_85_cif.got.tgz:169331.got - 2010.06.03 18:47:42.
