data_PCOD9264905
_publ_section_title
;
Structure prediction by ZEFSAII (Michael W. Deem and Ramdas Pophale) SiO2 
 PCOD9264905
Probable space group: C 2/C
;
_chemical_formula_sum "Si O2"
_cell_formula_units_Z 32
_cell_length_a 12.487070
_cell_length_b 25.827173
_cell_length_c 11.651577
_cell_angle_alpha 90.000000
_cell_angle_beta 25.490814
_cell_angle_gamma 90.000000
_cell_volume 1617.187844
_symmetry_space_group_name_H-M "C 2/C"
_symmetry_group_IT_number 15
_symmetry_cell_setting 'monoclinic'
loop_
_space_group_symop_operation_xyz
x,y,z
-x,y,1/2-z
-x,-y,-z
x,-y,1/2+z
1/2+x,1/2+y,z
1/2-x,1/2+y,1/2-z
1/2-x,1/2-y,-z
1/2+x,1/2-y,1/2+z
loop_
_atom_site_type_symbol
_atom_site_label
_atom_site_fract_x
_atom_site_fract_y
_atom_site_fract_z
Si Si1 0.929096 0.229762 0.688444
Si Si2 0.079917 0.436851 0.295651
Si Si3 0.669668 0.946197 0.731364
Si Si4 0.326202 0.610418 0.763009
O O1 0.837567 0.170783 0.778160
O O2 0.000000 0.246172 0.750000
O O3 0.196025 0.236807 0.368888
O O4 0.189794 0.494558 0.173845
O O5 0.265898 0.400429 0.186872
O O6 0.000000 0.416605 0.250000
O O7 0.854760 0.445796 0.604777
O O8 0.908819 0.914058 0.465340
O O9 0.405108 0.919894 0.955847
#
# Coordination Sequence:
#
# PCOD9264905 Si02
#       4
#     8   8   8   8
#     4  10  21  36  56  79 102 134 174 219 269 310
#     4   9  20  34  53  78 111 141 172 210 253 306
#     4   9  20  34  50  80 108 140 176 204 252 307
#     4  10  19  36  52  76 107 137 173 211 261 307
#
# _framework density 19.787434999999999
#
# number of rings (size 3 to 8) (size 9 to 14) (size 15 to 20)
#    1.500    1.000    0.000    2.250    0.000    3.000 
#    0.000    0.000    0.000    1.500    0.000    0.000 
#    0.000    0.000    0.000    0.000    0.000    0.000 
#
# Total GULP energy -89133.081800 kJ/mol
# GULP energy per Si atom -5570.817613 kJ/mol
# Density = 1.974240 g / cm^3
# Si number density = 19.787435 Si / 1000 Ang^3
#
#
#
# Elastic Constant Matrix: (Units=GPa)
#
#
# Indices 1 2 3 4 5 6 
#
# 1 71.5102 -6.5661 21.5090 0.0002 -8.7515 -0.0011
# 2 -6.5661 54.8037 23.4238 0.0006 -4.7422 -0.0005
# 3 21.5090 23.4238 102.9708 0.0016 -27.3190 -0.0019
# 4 0.0002 0.0006 0.0016 13.7416 -0.0002 -25.4113
# 5 -8.7515 -4.7422 -27.3190 -0.0002 20.1882 0.0000
# 6 -0.0011 -0.0005 -0.0019 -25.4113 0.0000 -17.0278
#
#
#
# Elastic Compliance Matrix: (Units=1/GPa)
#
#
# Indices 1 2 3 4 5 6 
#
# 1 0.015675 0.003533 -0.003206 0.000000 0.003287 0.000000
# 2 0.003533 0.021077 -0.005948 0.000000 -0.001567 0.000000
# 3 -0.003206 -0.005948 0.017153 -0.000001 0.020425 0.000000
# 4 0.000000 0.000000 -0.000001 0.019356 -0.000002 -0.028886
# 5 0.003287 -0.001567 0.020425 -0.000002 0.078230 0.000000
# 6 0.000000 0.000000 0.000000 -0.028886 0.000000 -0.015620
#
#
# Mechanical properties :
#
#
# Convention : Reuss Voigt Hill
#
# Bulk Modulus (GPa) = 23.44001 34.00200 28.72100
# Shear Modulus (GPa) = 30.99165 16.10829 23.54997
#
# Velocity S-wave (km/s) = 3.96185 2.85628 3.45359
# Velocity P-wave (km/s) = 5.72713 5.30082 5.51809
#
# Compressibility (1/GPa) = 0.04266210
#
# Stress axis : x y z
#
# Youngs Moduli (GPa) = 63.79635 47.44521 58.29827
#
# Poissons Ratio (x) = -0.16761 0.18690
# Poissons Ratio (y) = -0.22537 0.34677
# Poissons Ratio (z) = 0.20452 0.28221
#
# Static dielectric constant tensor:
#      x y z
#    x 1.743540 0.000000 0.002770 
#    y 0.000000 1.660710 0.000000 
#    z 0.002770 0.000000 1.762120 
# 
# From -- ./inp_files/4589.got.cif
#   From: 2010.05.17/outbox.cif.g08.bks.cpg/sg15_3_cif.got.tgz:4589.got - 2010.06.03 18:47:42.
