data_PCOD9264204
_publ_section_title
;
Structure prediction by ZEFSAII (Michael W. Deem and Ramdas Pophale) SiO2 
 PCOD9264204
Probable space group: C 2/C
;
_chemical_formula_sum "Si O2"
_cell_formula_units_Z 52
_cell_length_a 29.203280
_cell_length_b 10.952485
_cell_length_c 8.823981
_cell_angle_alpha 90.000000
_cell_angle_beta 84.222828
_cell_angle_gamma 90.000000
_cell_volume 2808.002014
_symmetry_space_group_name_H-M "C 2/C"
_symmetry_group_IT_number 15
_symmetry_cell_setting 'monoclinic'
loop_
_space_group_symop_operation_xyz
x,y,z
-x,y,1/2-z
-x,-y,-z
x,-y,1/2+z
1/2+x,1/2+y,z
1/2-x,1/2+y,1/2-z
1/2-x,1/2-y,-z
1/2+x,1/2-y,1/2+z
loop_
_atom_site_type_symbol
_atom_site_label
_atom_site_fract_x
_atom_site_fract_y
_atom_site_fract_z
Si Si1 0.500000 0.528050 0.250000
Si Si2 0.543065 0.657956 0.504658
Si Si3 0.273304 0.866420 0.068855
Si Si4 0.113965 0.407491 0.139707
Si Si5 0.222997 0.631572 0.574744
Si Si6 0.982970 0.374280 0.430929
Si Si7 0.118758 0.657931 0.987159
O O1 0.535571 0.605891 0.338210
O O2 0.471238 0.445100 0.373940
O O3 0.506976 0.768802 0.519334
O O4 0.592184 0.716929 0.521766
O O5 0.265572 0.872271 0.251095
O O6 0.326848 0.837685 0.026843
O O7 0.250000 0.750000 0.000000
O O8 0.263074 0.001028 0.003762
O O9 0.166330 0.366405 0.079799
O O10 0.071873 0.351883 0.058448
O O11 0.106524 0.382589 0.319643
O O12 0.107142 0.551210 0.108798
O O13 0.250000 0.750000 0.500000
O O14 0.000000 0.372990 0.250000
O O15 0.000000 0.500000 0.500000
#
# Coordination Sequence:
#
# PCOD9264204 Si02
#       7
#     4   8   8   8   8   8   8
#     4  10  24  38  56  72 114 166 198 240 278 364
#     4  11  21  40  55  79 114 155 203 235 300 340
#     4  10  21  39  61  89 118 155 203 251 309 367
#     4  10  19  35  56  92 118 151 188 246 311 353
#     4  10  21  38  63  87 123 161 198 254 316 367
#     4  12  21  33  59  90 122 147 192 252 301 352
#     4  10  20  36  60  82 119 148 190 250 297 362
#
# _framework density 18.518505999999999
#
# number of rings (size 3 to 8) (size 9 to 14) (size 15 to 20)
#    0.000    1.538    3.846    0.923    1.077    2.462 
#    0.000    7.692    0.000    0.000    0.000    0.000 
#    0.000    0.000    0.000    0.000    0.000    0.000 
#
# Total GULP energy -144984.905023 kJ/mol
# GULP energy per Si atom -5576.342501 kJ/mol
# Density = 1.847636 g / cm^3
# Si number density = 18.518506 Si / 1000 Ang^3
#
#
#
# Elastic Constant Matrix: (Units=GPa)
#
#
# Indices 1 2 3 4 5 6 
#
# 1 65.4662 53.3698 32.4637 0.0000 13.3614 0.0000
# 2 53.3698 129.4101 42.8548 0.0000 7.7785 0.0000
# 3 32.4637 42.8548 50.1580 0.0000 2.9258 0.0000
# 4 0.0000 0.0000 0.0000 35.7022 0.0000 5.2020
# 5 13.3614 7.7785 2.9258 0.0000 20.6766 0.0000
# 6 0.0000 0.0000 0.0000 5.2020 0.0000 37.2749
#
#
#
# Elastic Compliance Matrix: (Units=1/GPa)
#
#
# Indices 1 2 3 4 5 6 
#
# 1 0.030849 -0.007652 -0.012537 0.000000 -0.015282 0.000000
# 2 -0.007652 0.012835 -0.006070 0.000000 0.000976 0.000000
# 3 -0.012537 -0.006070 0.032903 0.000000 0.005729 0.000000
# 4 0.000000 0.000000 0.000000 0.028591 0.000000 -0.003990
# 5 -0.015282 0.000976 0.005729 0.000000 0.057062 0.000000
# 6 0.000000 0.000000 0.000000 -0.003990 0.000000 0.027385
#
#
# Mechanical properties :
#
#
# Convention : Reuss Voigt Hill
#
# Bulk Modulus (GPa) = 41.54777 55.82342 48.68559
# Shear Modulus (GPa) = 19.98671 26.48716 23.23693
#
# Velocity S-wave (km/s) = 3.28881 3.78604 3.54615
# Velocity P-wave (km/s) = 6.07505 7.02298 6.56614
#
# Compressibility (1/GPa) = 0.02406868
#
# Stress axis : x y z
#
# Youngs Moduli (GPa) = 32.41558 77.91372 30.39203
#
# Poissons Ratio (x) = 0.59621 0.38103
# Poissons Ratio (y) = 0.24805 0.18448
# Poissons Ratio (z) = 0.40640 0.47294
#
# Static dielectric constant tensor:
#      x y z
#    x 1.694210 0.000000 0.006890 
#    y 0.000000 1.657020 0.000000 
#    z 0.006890 0.000000 1.664060 
# 
# From -- ./inp_files/65125.got.cif
#   From: 2010.05.17/outbox.cif.g08.bks.cpg/sg15_33_cif.got.tgz:65125.got - 2010.06.03 18:47:42.
