data_PCOD9264456
_publ_section_title
;
Structure prediction by ZEFSAII (Michael W. Deem and Ramdas Pophale) SiO2 
 PCOD9264456
Probable space group: C 2/C
;
_chemical_formula_sum "Si O2"
_cell_formula_units_Z 40
_cell_length_a 20.720858
_cell_length_b 20.223931
_cell_length_c 13.629967
_cell_angle_alpha 90.000000
_cell_angle_beta 20.303651
_cell_angle_gamma 90.000000
_cell_volume 1981.946148
_symmetry_space_group_name_H-M "C 2/C"
_symmetry_group_IT_number 15
_symmetry_cell_setting 'monoclinic'
loop_
_space_group_symop_operation_xyz
x,y,z
-x,y,1/2-z
-x,-y,-z
x,-y,1/2+z
1/2+x,1/2+y,z
1/2-x,1/2+y,1/2-z
1/2-x,1/2-y,-z
1/2+x,1/2-y,1/2+z
loop_
_atom_site_type_symbol
_atom_site_label
_atom_site_fract_x
_atom_site_fract_y
_atom_site_fract_z
Si Si1 0.500000 0.645484 0.750000
Si Si2 0.500000 0.415011 0.750000
Si Si3 0.268743 0.968030 0.857188
Si Si4 0.723169 0.340826 0.264423
Si Si5 0.050970 0.242154 0.839360
Si Si6 0.382477 0.976983 0.008679
O O1 0.664552 0.596615 0.541034
O O2 0.447814 0.689619 0.916720
O O3 0.663799 0.466511 0.547283
O O4 0.591973 0.369249 0.536815
O O5 0.470050 0.959811 0.616513
O O6 0.256120 0.974764 0.755761
O O7 0.607047 0.290669 0.362094
O O8 0.784361 0.408188 0.120111
O O9 0.911121 0.304563 0.036055
O O10 0.250000 0.250000 0.500000
O O11 0.500000 0.004105 0.750000
#
# Coordination Sequence:
#
# PCOD9264456 Si02
#       6
#     4   4   8   8   8   8
#     4  11  20  34  58  82 118 139 196 234 290 347
#     4   9  22  42  58  84 120 159 196 240 296 359
#     4   9  20  36  58  85 112 154 185 239 297 347
#     4  11  23  38  61  85 123 157 199 242 294 349
#     4  12  22  37  59  89 115 155 196 245 291 345
#     4  10  19  35  59  84 116 147 192 242 291 344
#
# _framework density 20.182182000000001
#
# number of rings (size 3 to 8) (size 9 to 14) (size 15 to 20)
#    0.000    1.600    2.000    3.600    0.000    2.400 
#    0.000    6.000    2.200    0.000    0.000    0.000 
#    0.000    0.000    0.000    0.000    0.000    0.000 
#
# Total GULP energy -111384.217914 kJ/mol
# GULP energy per Si atom -5569.210896 kJ/mol
# Density = 2.013625 g / cm^3
# Si number density = 20.182182 Si / 1000 Ang^3
#
#
#
# Elastic Constant Matrix: (Units=GPa)
#
#
# Indices 1 2 3 4 5 6 
#
# 1 54.8975 26.0268 14.2378 -0.0008 4.0610 0.0020
# 2 26.0268 85.1520 29.9535 0.0006 12.2599 -0.0035
# 3 14.2378 29.9535 82.9217 -0.0057 24.2055 -0.0011
# 4 -0.0008 0.0006 -0.0057 21.8246 0.0016 1.6772
# 5 4.0610 12.2599 24.2055 0.0016 28.3286 -0.0004
# 6 0.0020 -0.0035 -0.0011 1.6772 -0.0004 3.1087
#
#
#
# Elastic Compliance Matrix: (Units=1/GPa)
#
#
# Indices 1 2 3 4 5 6 
#
# 1 0.021492 -0.006090 -0.001812 0.000002 0.001103 -0.000022
# 2 -0.006090 0.015285 -0.003730 -0.000003 -0.002555 0.000021
# 3 -0.001812 -0.003730 0.017548 0.000006 -0.013120 -0.000001
# 4 0.000002 -0.000003 0.000006 0.047802 -0.000007 -0.025790
# 5 0.001103 -0.002555 -0.013120 -0.000007 0.047458 0.000001
# 6 -0.000022 0.000021 -0.000001 -0.025790 0.000001 0.335597
#
#
# Mechanical properties :
#
#
# Convention : Reuss Voigt Hill
#
# Bulk Modulus (GPa) = 32.19603 40.37860 36.28731
# Shear Modulus (GPa) = 9.63764 20.83591 15.23678
#
# Velocity S-wave (km/s) = 2.18762 3.21657 2.75064
# Velocity P-wave (km/s) = 4.72951 5.81770 5.30160
#
# Compressibility (1/GPa) = 0.03105973
#
# Stress axis : x y z
#
# Youngs Moduli (GPa) = 46.52996 65.42324 56.98703
#
# Poissons Ratio (x) = 0.39845 0.10327
# Poissons Ratio (y) = 0.28338 0.21255
# Poissons Ratio (z) = 0.08432 0.24402
#
# Static dielectric constant tensor:
#      x y z
#    x 1.760340 0.000000 0.054660 
#    y 0.000000 1.734560 0.000020 
#    z 0.054660 0.000020 1.953920 
# 
# From -- ./inp_files/30341.got.cif
#   From: 2010.05.17/outbox.cif.g08.bks.cpg/sg15_16_cif.got.tgz:30341.got - 2010.06.03 18:47:42.
