data_PCOD9264801
_publ_section_title
;
Structure prediction by ZEFSAII (Michael W. Deem and Ramdas Pophale) SiO2 
 PCOD9264801
Probable space group: C 2/C
;
_chemical_formula_sum "Si O2"
_cell_formula_units_Z 56
_cell_length_a 6.345512
_cell_length_b 29.237427
_cell_length_c 13.735576
_cell_angle_alpha 90.000000
_cell_angle_beta 86.207404
_cell_angle_gamma 90.000000
_cell_volume 2542.731827
_symmetry_space_group_name_H-M "C 2/C"
_symmetry_group_IT_number 15
_symmetry_cell_setting 'monoclinic'
loop_
_space_group_symop_operation_xyz
x,y,z
-x,y,1/2-z
-x,-y,-z
x,-y,1/2+z
1/2+x,1/2+y,z
1/2-x,1/2+y,1/2-z
1/2-x,1/2-y,-z
1/2+x,1/2-y,1/2+z
loop_
_atom_site_type_symbol
_atom_site_label
_atom_site_fract_x
_atom_site_fract_y
_atom_site_fract_z
Si Si1 0.023121 0.340209 0.364281
Si Si2 0.693132 0.521442 0.433878
Si Si3 0.809160 0.168023 0.019941
Si Si4 0.592679 0.405868 0.613523
Si Si5 0.939564 0.759756 0.867884
Si Si6 0.105454 0.668156 0.346514
Si Si7 0.436019 0.937447 0.455524
O O1 0.253273 0.332015 0.407437
O O2 0.000000 0.341612 0.250000
O O3 0.907677 0.292936 0.395808
O O4 0.942434 0.389084 0.402653
O O5 0.500000 0.500000 0.500000
O O6 0.588286 0.556536 0.359893
O O7 0.838779 0.479160 0.395311
O O8 0.839483 0.548538 0.506404
O O9 0.584750 0.154547 0.076589
O O10 0.978492 0.129743 0.043799
O O11 0.888413 0.214549 0.069411
O O12 0.721637 0.371829 0.680250
O O13 0.779303 0.431639 0.551631
O O14 0.729714 0.789154 0.884934
O O15 0.000000 0.762792 0.750000
O O16 0.000000 0.681834 0.250000
#
# Coordination Sequence:
#
# PCOD9264801 Si02
#       7
#     8   8   8   8   8   8   8
#     4  11  23  41  61  91 129 171 217 258 312 385
#     4   9  18  34  66  89 117 156 206 258 324 375
#     4  11  21  40  62  89 127 167 211 261 318 378
#     4  10  19  35  63  94 119 157 205 255 324 378
#     4  10  22  39  60  91 128 169 213 262 320 379
#     4  11  21  36  63  90 128 162 207 266 320 381
#     4  10  19  38  61  91 120 162 210 260 316 383
#
# _framework density 22.023557
#
# number of rings (size 3 to 8) (size 9 to 14) (size 15 to 20)
#    0.000    1.714    4.286    0.429    0.000    0.571 
#    2.571    0.714    0.000   20.571    0.000    0.000 
#    0.000    0.000    0.000    0.000    0.000    0.000 
#
# Total GULP energy -156150.815276 kJ/mol
# GULP energy per Si atom -5576.814831 kJ/mol
# Density = 2.197343 g / cm^3
# Si number density = 22.023557 Si / 1000 Ang^3
#
#
#
# Elastic Constant Matrix: (Units=GPa)
#
#
# Indices 1 2 3 4 5 6 
#
# 1 117.3472 49.7847 25.1615 0.0000 18.6786 0.0000
# 2 49.7847 163.7620 16.2290 0.0000 14.3702 0.0000
# 3 25.1615 16.2290 79.6011 0.0000 19.7762 0.0000
# 4 0.0000 0.0000 0.0000 19.5471 0.0000 -11.9599
# 5 18.6786 14.3702 19.7762 0.0000 25.7257 0.0000
# 6 0.0000 0.0000 0.0000 -11.9599 0.0000 -5.0679
#
#
#
# Elastic Compliance Matrix: (Units=1/GPa)
#
#
# Indices 1 2 3 4 5 6 
#
# 1 0.010818 -0.002680 -0.001599 0.000000 -0.005128 0.000000
# 2 -0.002680 0.007102 -0.000122 0.000000 -0.001928 0.000000
# 3 -0.001599 -0.000122 0.015806 0.000000 -0.010922 0.000000
# 4 0.000000 0.000000 0.000000 0.020933 0.000000 -0.049400
# 5 -0.005128 -0.001928 -0.010922 0.000000 0.052068 0.000000
# 6 0.000000 0.000000 0.000000 -0.049400 0.000000 -0.080738
#
#
# Mechanical properties :
#
#
# Convention : Reuss Voigt Hill
#
# Bulk Modulus (GPa) = 40.12137 60.34007 50.23072
# Shear Modulus (GPa) = 116.01084 26.00998 71.01041
#
# Velocity S-wave (km/s) = 7.26568 3.44031 5.68445
# Velocity P-wave (km/s) = 9.41509 6.57559 8.12042
#
# Compressibility (1/GPa) = 0.02492437
#
# Stress axis : x y z
#
# Youngs Moduli (GPa) = 92.43887 140.79605 63.26577
#
# Poissons Ratio (x) = 0.37737 0.10116
# Poissons Ratio (y) = 0.24776 0.00771
# Poissons Ratio (z) = 0.14781 0.01717
#
# Static dielectric constant tensor:
#      x y z
#    x 1.828860 0.000000 -0.002030 
#    y 0.000000 1.871770 0.000000 
#    z -0.002030 0.000000 1.865470 
# 
# From -- ./inp_files/130779.got.cif
#   From: 2010.05.17/outbox.cif.g08.bks.cpg/sg15_66_cif.got.tgz:130779.got - 2010.06.03 18:47:42.
