data_PCOD9264628
_publ_section_title
;
Structure prediction by ZEFSAII (Michael W. Deem and Ramdas Pophale) SiO2 
 PCOD9264628
Probable space group: C 2/C
;
_chemical_formula_sum "Si O2"
_cell_formula_units_Z 56
_cell_length_a 5.115599
_cell_length_b 28.372277
_cell_length_c 18.878487
_cell_angle_alpha 90.000000
_cell_angle_beta 105.262091
_cell_angle_gamma 90.000000
_cell_volume 2643.409597
_symmetry_space_group_name_H-M "C 2/C"
_symmetry_group_IT_number 15
_symmetry_cell_setting 'monoclinic'
loop_
_space_group_symop_operation_xyz
x,y,z
-x,y,1/2-z
-x,-y,-z
x,-y,1/2+z
1/2+x,1/2+y,z
1/2-x,1/2+y,1/2-z
1/2-x,1/2-y,-z
1/2+x,1/2-y,1/2+z
loop_
_atom_site_type_symbol
_atom_site_label
_atom_site_fract_x
_atom_site_fract_y
_atom_site_fract_z
Si Si1 0.788033 0.151659 0.799993
Si Si2 0.542307 0.551267 0.668613
Si Si3 0.298095 0.550285 0.302224
Si Si4 0.720575 0.302611 0.413629
Si Si5 0.963502 0.889453 0.554041
Si Si6 0.493733 0.717671 0.046710
Si Si7 0.883997 0.402600 0.454648
O O1 0.500000 0.164890 0.750000
O O2 0.786396 0.098903 0.832569
O O3 0.000000 0.150616 0.750000
O O4 0.921397 0.187297 0.864146
O O5 0.500000 0.550233 0.750000
O O6 0.685301 0.502144 0.662081
O O7 0.259972 0.559904 0.607417
O O8 0.500000 0.551388 0.250000
O O9 0.406930 0.586242 0.368451
O O10 0.000000 0.559215 0.250000
O O11 0.691152 0.295451 0.495463
O O12 0.882391 0.351437 0.414755
O O13 0.846720 0.254716 0.392594
O O14 0.908126 0.833915 0.566446
O O15 0.680381 0.911616 0.506762
O O16 0.176232 0.896394 0.505295
O O17 0.250000 0.750000 0.000000
#
# Coordination Sequence:
#
# PCOD9264628 Si02
#       7
#     8   8   8   8   8   8   8
#     4  10  21  35  56  82 118 149 184 237 292 350
#     4   9  21  38  62  89 123 164 201 237 306 383
#     4  11  24  43  64  85 120 167 208 246 303 367
#     4   9  20  34  55  85 112 147 191 233 292 356
#     4  11  23  39  62  89 121 155 206 259 300 351
#     4  10  19  35  61  80 110 152 192 240 294 361
#     4  10  21  37  60  94 121 151 196 256 306 350
#
# _framework density 21.184761000000002
#
# number of rings (size 3 to 8) (size 9 to 14) (size 15 to 20)
#    0.000    2.000    1.429    1.286    2.000   10.286 
#    0.000    0.714    0.000    0.000    0.000    0.000 
#    0.000    0.000    0.000    0.000    0.000    0.000 
#
# Total GULP energy -156314.310106 kJ/mol
# GULP energy per Si atom -5582.653932 kJ/mol
# Density = 2.113654 g / cm^3
# Si number density = 21.184761 Si / 1000 Ang^3
#
#
#
# Elastic Constant Matrix: (Units=GPa)
#
#
# Indices 1 2 3 4 5 6 
#
# 1 107.4070 23.4425 47.5601 0.0000 30.8705 0.0000
# 2 23.4425 102.0970 72.9226 0.0000 21.7081 0.0000
# 3 47.5601 72.9226 127.1605 0.0000 43.0503 0.0000
# 4 0.0000 0.0000 0.0000 33.7356 0.0000 6.2252
# 5 30.8705 21.7081 43.0503 0.0000 48.4530 0.0000
# 6 0.0000 0.0000 0.0000 6.2252 0.0000 21.2936
#
#
#
# Elastic Compliance Matrix: (Units=1/GPa)
#
#
# Indices 1 2 3 4 5 6 
#
# 1 0.012038 0.000508 -0.003032 0.000000 -0.005203 0.000000
# 2 0.000508 0.016684 -0.010179 0.000000 0.001246 0.000000
# 3 -0.003032 -0.010179 0.018075 0.000000 -0.009567 0.000000
# 4 0.000000 0.000000 0.000000 0.031333 0.000000 -0.009160
# 5 -0.005203 0.001246 -0.009567 0.000000 0.031895 0.000000
# 6 0.000000 0.000000 0.000000 -0.009160 0.000000 0.049640
#
#
# Mechanical properties :
#
#
# Convention : Reuss Voigt Hill
#
# Bulk Modulus (GPa) = 46.75358 69.39055 58.07206
# Shear Modulus (GPa) = 26.01449 33.54573 29.78011
#
# Velocity S-wave (km/s) = 3.50806 3.98362 3.75338
# Velocity P-wave (km/s) = 6.20693 7.34745 6.80114
#
# Compressibility (1/GPa) = 0.02138874
#
# Stress axis : x y z
#
# Youngs Moduli (GPa) = 83.07349 59.93887 55.32654
#
# Poissons Ratio (x) = -0.03045 0.16775
# Poissons Ratio (y) = -0.04220 0.56319
# Poissons Ratio (z) = 0.25188 0.61014
#
# Static dielectric constant tensor:
#      x y z
#    x 1.785140 0.000000 -0.044770 
#    y 0.000000 1.834070 0.000000 
#    z -0.044770 0.000000 1.740370 
# 
# From -- ./inp_files/228550.got.cif
#   From: 2010.05.17/outbox.cif.g08.bks.cpg/sg15_115_cif.got.tgz:228550.got - 2010.06.03 18:47:42.
