data_PCOD9264999
_publ_section_title
;
Structure prediction by ZEFSAII (Michael W. Deem and Ramdas Pophale) SiO2 
 PCOD9264999
Probable space group: C 2/C
;
_chemical_formula_sum "Si O2"
_cell_formula_units_Z 56
_cell_length_a 8.743023
_cell_length_b 27.485471
_cell_length_c 14.689049
_cell_angle_alpha 90.000000
_cell_angle_beta 58.883574
_cell_angle_gamma 90.000000
_cell_volume 3021.987072
_symmetry_space_group_name_H-M "C 2/C"
_symmetry_group_IT_number 15
_symmetry_cell_setting 'monoclinic'
loop_
_space_group_symop_operation_xyz
x,y,z
-x,y,1/2-z
-x,-y,-z
x,-y,1/2+z
1/2+x,1/2+y,z
1/2-x,1/2+y,1/2-z
1/2-x,1/2-y,-z
1/2+x,1/2-y,1/2+z
loop_
_atom_site_type_symbol
_atom_site_label
_atom_site_fract_x
_atom_site_fract_y
_atom_site_fract_z
Si Si1 0.147647 0.548139 0.826445
Si Si2 0.934198 0.685386 0.937877
Si Si3 0.091345 0.117272 0.422519
Si Si4 0.130114 0.388556 0.500159
Si Si5 0.853237 0.438391 0.714346
Si Si6 0.449222 0.708944 0.367792
Si Si7 0.285798 0.908473 0.387011
O O1 0.197202 0.492115 0.802686
O O2 0.221739 0.578575 0.717339
O O3 0.931358 0.554126 0.883537
O O4 0.197487 0.572010 0.906383
O O5 0.997693 0.735095 0.872622
O O6 0.868345 0.644606 0.885686
O O7 0.761128 0.700520 0.050296
O O8 0.076500 0.658829 0.958698
O O9 0.224662 0.118927 0.466765
O O10 0.188993 0.089767 0.309959
O O11 0.046176 0.171734 0.405291
O O12 0.907575 0.091023 0.507814
O O13 0.950938 0.408723 0.604261
O O14 0.000000 0.444114 0.750000
O O15 0.500000 0.696297 0.250000
#
# Coordination Sequence:
#
# PCOD9264999 Si02
#       7
#     8   8   8   8   8   8   8
#     4  10  19  36  59  80 112 156 198 227 281 343
#     4   9  20  36  58  86 110 150 194 237 283 344
#     4  10  22  37  57  85 121 145 187 247 287 339
#     4  10  21  35  58  82 121 152 183 234 300 340
#     4  10  19  36  56  82 115 157 190 232 283 342
#     4  10  20  36  61  84 108 147 201 238 279 340
#     4   9  19  36  59  83 111 150 197 237 273 333
#
# _framework density 18.530854000000001
#
# number of rings (size 3 to 8) (size 9 to 14) (size 15 to 20)
#    0.000    2.286    1.429    1.286    4.000    1.714 
#    0.000    0.000    9.429    0.000    0.000    0.000 
#    0.000    0.000    0.000    0.000    0.000    0.000 
#
# Total GULP energy -156271.159772 kJ/mol
# GULP energy per Si atom -5581.112849 kJ/mol
# Density = 1.848868 g / cm^3
# Si number density = 18.530854 Si / 1000 Ang^3
#
#
#
# Elastic Constant Matrix: (Units=GPa)
#
#
# Indices 1 2 3 4 5 6 
#
# 1 39.4784 28.3145 21.8384 0.0000 4.4904 0.0000
# 2 28.3145 67.8285 -0.1832 0.0000 -5.7077 0.0000
# 3 21.8384 -0.1832 58.2815 0.0000 1.9599 0.0000
# 4 0.0000 0.0000 0.0000 28.3762 0.0000 1.0639
# 5 4.4904 -5.7077 1.9599 0.0000 26.0924 0.0000
# 6 0.0000 0.0000 0.0000 1.0639 0.0000 14.6317
#
#
#
# Elastic Compliance Matrix: (Units=1/GPa)
#
#
# Indices 1 2 3 4 5 6 
#
# 1 0.055736 -0.024450 -0.020511 0.000000 -0.013400 0.000000
# 2 -0.024450 0.025745 0.008934 0.000000 0.009168 0.000000
# 3 -0.020511 0.008934 0.024750 0.000000 0.003625 0.000000
# 4 0.000000 0.000000 0.000000 0.035337 0.000000 -0.002569
# 5 -0.013400 0.009168 0.003625 0.000000 0.042365 0.000000
# 6 0.000000 0.000000 0.000000 -0.002569 0.000000 0.068532
#
#
# Mechanical properties :
#
#
# Convention : Reuss Voigt Hill
#
# Bulk Modulus (GPa) = 29.25858 29.50309 29.38084
# Shear Modulus (GPa) = 14.88492 21.52795 18.20643
#
# Velocity S-wave (km/s) = 2.83724 3.41212 3.13787
# Velocity P-wave (km/s) = 5.15331 5.61062 5.38682
#
# Compressibility (1/GPa) = 0.03417801
#
# Stress axis : x y z
#
# Youngs Moduli (GPa) = 17.94165 38.84243 40.40432
#
# Poissons Ratio (x) = 0.94968 0.82873
# Poissons Ratio (y) = 0.43867 -0.36097
# Poissons Ratio (z) = 0.36800 -0.34702
#
# Static dielectric constant tensor:
#      x y z
#    x 1.624760 0.000000 -0.004820 
#    y 0.000000 1.631450 0.000000 
#    z -0.004820 0.000000 1.640000 
# 
# From -- ./inp_files/138522.got.cif
#   From: 2010.05.17/outbox.cif.g08.bks.cpg/sg15_70_cif.got.tgz:138522.got - 2010.06.03 18:47:42.
