data_PCOD9264112
_publ_section_title
;
Structure prediction by ZEFSAII (Michael W. Deem and Ramdas Pophale) SiO2 
 PCOD9264112
Probable space group: C 2/C
;
_chemical_formula_sum "Si O2"
_cell_formula_units_Z 52
_cell_length_a 15.592378
_cell_length_b 14.015983
_cell_length_c 11.141007
_cell_angle_alpha 90.000000
_cell_angle_beta 61.674562
_cell_angle_gamma 90.000000
_cell_volume 2143.259106
_symmetry_space_group_name_H-M "C 2/C"
_symmetry_group_IT_number 15
_symmetry_cell_setting 'monoclinic'
loop_
_space_group_symop_operation_xyz
x,y,z
-x,y,1/2-z
-x,-y,-z
x,-y,1/2+z
1/2+x,1/2+y,z
1/2-x,1/2+y,1/2-z
1/2-x,1/2-y,-z
1/2+x,1/2-y,1/2+z
loop_
_atom_site_type_symbol
_atom_site_label
_atom_site_fract_x
_atom_site_fract_y
_atom_site_fract_z
Si Si1 0.389334 0.392435 0.958583
Si Si2 0.153453 0.413507 0.108120
Si Si3 0.130005 0.819857 0.015549
Si Si4 0.142752 0.369976 0.634298
Si Si5 0.500000 0.550447 0.750000
Si Si6 0.864822 0.715453 0.112541
Si Si7 0.132305 0.764664 0.760307
O O1 0.466183 0.476620 0.879377
O O2 0.394614 0.322887 0.840244
O O3 0.273250 0.420916 0.037066
O O4 0.401961 0.322731 0.063638
O O5 0.116874 0.521038 0.130002
O O6 0.114118 0.346741 0.242979
O O7 0.124492 0.355640 0.007356
O O8 0.120285 0.707643 0.049010
O O9 0.084684 0.874229 0.159738
O O10 0.239901 0.858520 0.936174
O O11 0.094353 0.820217 0.901489
O O12 0.101201 0.333054 0.788336
O O13 0.748649 0.730120 0.195784
#
# Coordination Sequence:
#
# PCOD9264112 Si02
#       7
#     8   8   8   8   4   8   8
#     4   9  18  36  53  82 113 149 189 227 281 348
#     4   9  16  32  62  82 105 144 196 235 282 325
#     4  10  22  36  50  84 120 148 186 236 290 332
#     4  10  19  35  55  84 113 147 193 242 274 334
#     4  12  22  38  56  84 126 156 178 224 300 356
#     4   8  17  33  54  82 110 140 192 241 275 323
#     4   8  17  35  55  78 111 145 187 244 270 328
#
# _framework density 24.262115000000001
#
# number of rings (size 3 to 8) (size 9 to 14) (size 15 to 20)
#    0.000    2.769    1.538    1.846    2.154    0.615 
#    5.538    0.000    0.000    4.615    0.000    0.000 
#    0.000    0.000    0.000    0.000    0.000    0.000 
#
# Total GULP energy -144852.991448 kJ/mol
# GULP energy per Si atom -5571.268902 kJ/mol
# Density = 2.420689 g / cm^3
# Si number density = 24.262115 Si / 1000 Ang^3
#
#
#
# Elastic Constant Matrix: (Units=GPa)
#
#
# Indices 1 2 3 4 5 6 
#
# 1 -19.7765 2.6256 33.7187 0.0000 -18.3390 0.0000
# 2 2.6256 149.7780 16.2951 0.0000 3.2673 0.0000
# 3 33.7187 16.2951 94.2335 0.0000 -2.7860 0.0000
# 4 0.0000 0.0000 0.0000 781.1294 0.0000 309.1227
# 5 -18.3390 3.2673 -2.7860 0.0000 41.2385 0.0000
# 6 0.0000 0.0000 0.0000 309.1227 0.0000 139.1897
#
#
#
# Elastic Compliance Matrix: (Units=1/GPa)
#
#
# Indices 1 2 3 4 5 6 
#
# 1 -0.025532 -0.000283 0.008867 0.000000 -0.010733 0.000000
# 2 -0.000283 0.006817 -0.001099 0.000000 -0.000740 0.000000
# 3 0.008867 -0.001099 0.007764 0.000000 0.004555 0.000000
# 4 0.000000 0.000000 0.000000 0.010570 0.000000 -0.023475
# 5 -0.010733 -0.000740 0.004555 0.000000 0.019843 0.000000
# 6 0.000000 0.000000 0.000000 -0.023475 0.000000 0.059319
#
#
# Mechanical properties :
#
#
# Convention : Reuss Voigt Hill
#
# Bulk Modulus (GPa) = 248.80292 36.61267 142.70780
# Shear Modulus (GPa) = 76.74434 203.75122 140.24778
#
# Velocity S-wave (km/s) = 5.63028 9.17396 7.61123
# Velocity P-wave (km/s) = 12.04314 11.28444 11.66996
#
# Compressibility (1/GPa) = 0.00401925
#
# Stress axis : x y z
#
# Youngs Moduli (GPa) = -39.16729 146.68619 128.80289
#
# Poissons Ratio (x) = 0.04152 -1.14214
# Poissons Ratio (y) = -0.01109 0.14162
# Poissons Ratio (z) = 0.34731 0.16128
#
# Static dielectric constant tensor:
#      x y z
#    x 1.988730 0.000000 -0.050640 
#    y 0.000000 1.920530 0.000000 
#    z -0.050640 0.000000 1.975290 
# 
# From -- ./inp_files/105221.got.cif
#   From: 2010.05.17/outbox.cif.g08.bks.cpg/sg15_53_cif.got.tgz:105221.got - 2010.06.03 18:47:42.
