data_PCOD9264878
_publ_section_title
;
Structure prediction by ZEFSAII (Michael W. Deem and Ramdas Pophale) SiO2 
 PCOD9264878
Probable space group: C 2/C
;
_chemical_formula_sum "Si O2"
_cell_formula_units_Z 60
_cell_length_a 11.767193
_cell_length_b 21.192588
_cell_length_c 24.318305
_cell_angle_alpha 90.000000
_cell_angle_beta 153.632150
_cell_angle_gamma 90.000000
_cell_volume 2693.411634
_symmetry_space_group_name_H-M "C 2/C"
_symmetry_group_IT_number 15
_symmetry_cell_setting 'monoclinic'
loop_
_space_group_symop_operation_xyz
x,y,z
-x,y,1/2-z
-x,-y,-z
x,-y,1/2+z
1/2+x,1/2+y,z
1/2-x,1/2+y,1/2-z
1/2-x,1/2-y,-z
1/2+x,1/2-y,1/2+z
loop_
_atom_site_type_symbol
_atom_site_label
_atom_site_fract_x
_atom_site_fract_y
_atom_site_fract_z
Si Si1 0.598549 0.012195 0.980419
Si Si2 0.312053 0.453782 0.782113
Si Si3 0.970599 0.215219 0.847562
Si Si4 0.500000 0.932642 0.750000
Si Si5 0.758316 0.626669 0.835938
Si Si6 0.759942 0.825872 0.934090
Si Si7 0.452811 0.241986 0.511372
Si Si8 0.068416 0.805127 0.680898
O O1 0.496002 0.082695 0.926903
O O2 0.414927 0.972578 0.859217
O O3 0.908912 0.012226 0.107154
O O4 0.500000 0.000000 0.000000
O O5 0.360801 0.378272 0.796386
O O6 0.198694 0.466658 0.794554
O O7 0.819595 0.159475 0.754070
O O8 0.788798 0.262106 0.802973
O O9 0.062560 0.267722 0.843249
O O10 0.179906 0.180228 0.975447
O O11 0.654811 0.887394 0.859486
O O12 0.500000 0.597244 0.750000
O O13 0.853278 0.683853 0.915072
O O14 0.009474 0.801324 0.011360
O O15 0.510255 0.272455 0.596354
O O16 0.183653 0.207690 0.394167
#
# Coordination Sequence:
#
# PCOD9264878 Si02
#       8
#     8   8   8   4   8   8   8   8
#     4  12  29  51  72 101 139 190 252 315 359 429
#     4  12  26  50  76 102 142 191 249 306 373 426
#     4  10  22  34  61 102 141 180 216 280 349 440
#     4  12  24  44  78 100 142 192 240 308 360 448
#     4  11  20  38  65  95 134 179 229 287 356 414
#     4  11  20  37  59 105 143 176 224 269 356 438
#     4  10  19  35  67  96 137 176 220 275 361 427
#     4  10  20  39  64 100 133 180 228 282 351 438
#
# _framework density 22.276579999999999
#
# number of rings (size 3 to 8) (size 9 to 14) (size 15 to 20)
#    0.000    1.067    5.333    2.000    0.000    4.267 
#    2.400    0.000    0.000    0.000    0.000    0.000 
#    0.000    0.000    0.000    0.000    0.000    0.000 
#
# Total GULP energy -167105.364487 kJ/mol
# GULP energy per Si atom -5570.178816 kJ/mol
# Density = 2.222588 g / cm^3
# Si number density = 22.276580 Si / 1000 Ang^3
#
#
#
# Elastic Constant Matrix: (Units=GPa)
#
#
# Indices 1 2 3 4 5 6 
#
# 1 115.3062 14.3428 51.7204 0.0020 15.9377 0.0007
# 2 14.3428 54.5786 30.1880 0.0072 1.2192 0.0007
# 3 51.7204 30.1880 112.1403 0.0228 12.9628 0.0027
# 4 0.0020 0.0072 0.0228 28.3698 -0.0007 3.9841
# 5 15.9377 1.2192 12.9628 -0.0007 31.6499 0.0024
# 6 0.0007 0.0007 0.0027 3.9841 0.0024 29.3531
#
#
#
# Elastic Compliance Matrix: (Units=1/GPa)
#
#
# Indices 1 2 3 4 5 6 
#
# 1 0.011346 -0.000287 -0.004720 0.000003 -0.003769 0.000000
# 2 -0.000287 0.021614 -0.005885 -0.000001 0.001722 0.000000
# 3 -0.004720 -0.005885 0.012993 -0.000009 -0.002718 0.000000
# 4 0.000003 -0.000001 -0.000009 0.035934 0.000003 -0.004877
# 5 -0.003769 0.001722 -0.002718 0.000003 0.034541 -0.000003
# 6 0.000000 0.000000 0.000000 -0.004877 -0.000003 0.034730
#
#
# Mechanical properties :
#
#
# Convention : Reuss Voigt Hill
#
# Bulk Modulus (GPa) = 41.37521 52.72526 47.05024
# Shear Modulus (GPa) = 27.62445 30.25948 28.94197
#
# Velocity S-wave (km/s) = 3.52528 3.68958 3.60837
# Velocity P-wave (km/s) = 5.93160 6.47075 6.20703
#
# Compressibility (1/GPa) = 0.02416906
#
# Stress axis : x y z
#
# Youngs Moduli (GPa) = 88.13308 46.26556 76.96497
#
# Poissons Ratio (x) = 0.01327 0.36329
# Poissons Ratio (y) = 0.02527 0.45297
# Poissons Ratio (z) = 0.41601 0.27229
#
# Static dielectric constant tensor:
#      x y z
#    x 1.952670 0.000000 0.050470 
#    y 0.000000 1.816910 -0.000010 
#    z 0.050470 -0.000010 1.903950 
# 
# From -- ./inp_files/271049.got.cif
#   From: 2010.05.17/outbox.cif.g08.bks.cpg/sg15_136_cif.got.tgz:271049.got - 2010.06.03 18:47:42.
