data_PCOD9264191
_publ_section_title
;
Structure prediction by ZEFSAII (Michael W. Deem and Ramdas Pophale) SiO2 
 PCOD9264191
Probable space group: C 2/C
;
_chemical_formula_sum "Si O2"
_cell_formula_units_Z 56
_cell_length_a 25.003032
_cell_length_b 11.886413
_cell_length_c 8.898750
_cell_angle_alpha 90.000000
_cell_angle_beta 69.013861
_cell_angle_gamma 90.000000
_cell_volume 2469.247099
_symmetry_space_group_name_H-M "C 2/C"
_symmetry_group_IT_number 15
_symmetry_cell_setting 'monoclinic'
loop_
_space_group_symop_operation_xyz
x,y,z
-x,y,1/2-z
-x,-y,-z
x,-y,1/2+z
1/2+x,1/2+y,z
1/2-x,1/2+y,1/2-z
1/2-x,1/2-y,-z
1/2+x,1/2-y,1/2+z
loop_
_atom_site_type_symbol
_atom_site_label
_atom_site_fract_x
_atom_site_fract_y
_atom_site_fract_z
Si Si1 0.334314 0.646744 0.542635
Si Si2 0.122904 0.138755 0.561826
Si Si3 0.552941 0.153961 0.129004
Si Si4 0.283305 0.478037 0.381359
Si Si5 0.933010 0.028995 0.586949
Si Si6 0.411982 0.967189 0.175993
Si Si7 0.664724 0.096512 0.488473
O O1 0.314712 0.592482 0.405737
O O2 0.300746 0.575176 0.704404
O O3 0.401661 0.621978 0.509943
O O4 0.319353 0.776918 0.571436
O O5 0.108724 0.269164 0.582125
O O6 0.188816 0.111265 0.530045
O O7 0.086432 0.074313 0.730331
O O8 0.099283 0.084430 0.433586
O O9 0.500000 0.223303 0.250000
O O10 0.558284 0.050363 0.237334
O O11 0.547284 0.110828 0.965300
O O12 0.217416 0.511000 0.452647
O O13 0.000000 0.000000 0.500000
O O14 0.368317 0.896068 0.320253
O O15 0.377068 0.043195 0.093384
#
# Coordination Sequence:
#
# PCOD9264191 Si02
#       7
#     8   8   8   8   8   8   8
#     4  10  22  38  61  89 126 169 215 263 322 388
#     4  10  22  37  60  90 124 163 209 255 318 384
#     4  11  22  43  67  93 129 170 211 269 324 377
#     4  10  21  39  60  88 123 165 210 262 313 372
#     4  10  19  35  56  87 123 159 201 255 310 378
#     4  10  24  40  63  95 125 165 221 262 313 391
#     4  11  22  42  63  90 129 169 213 270 319 374
#
# _framework density 22.678977
#
# number of rings (size 3 to 8) (size 9 to 14) (size 15 to 20)
#    0.000    1.714    0.000    4.714    0.000    4.571 
#    0.000   15.714    0.000    0.000    0.000    0.000 
#    0.000    0.000    0.000    0.000    0.000    0.000 
#
# Total GULP energy -156261.819141 kJ/mol
# GULP energy per Si atom -5580.779255 kJ/mol
# Density = 2.262736 g / cm^3
# Si number density = 22.678977 Si / 1000 Ang^3
#
#
#
# Elastic Constant Matrix: (Units=GPa)
#
#
# Indices 1 2 3 4 5 6 
#
# 1 80.6010 12.3100 15.5111 0.0000 -5.8937 0.0000
# 2 12.3100 65.9699 15.8194 0.0000 1.0136 0.0000
# 3 15.5111 15.8194 105.5899 0.0000 8.1243 0.0000
# 4 0.0000 0.0000 0.0000 26.6289 0.0000 -2.2031
# 5 -5.8937 1.0136 8.1243 0.0000 23.0566 0.0000
# 6 0.0000 0.0000 0.0000 -2.2031 0.0000 27.0458
#
#
#
# Elastic Compliance Matrix: (Units=1/GPa)
#
#
# Indices 1 2 3 4 5 6 
#
# 1 0.013416 -0.002093 -0.001982 0.000000 0.004220 0.000000
# 2 -0.002093 0.016050 -0.002058 0.000000 -0.000516 0.000000
# 3 -0.001982 -0.002058 0.010384 0.000000 -0.004075 0.000000
# 4 0.000000 0.000000 0.000000 0.037808 0.000000 0.003080
# 5 0.004220 -0.000516 -0.004075 0.000000 0.045909 0.000000
# 6 0.000000 0.000000 0.000000 0.003080 0.000000 0.037225
#
#
# Mechanical properties :
#
#
# Convention : Reuss Voigt Hill
#
# Bulk Modulus (GPa) = 36.25134 37.71577 36.98356
# Shear Modulus (GPa) = 27.43449 29.24762 28.34105
#
# Velocity S-wave (km/s) = 3.48183 3.59505 3.53889
# Velocity P-wave (km/s) = 5.67305 5.82227 5.74814
#
# Compressibility (1/GPa) = 0.02758518
#
# Stress axis : x y z
#
# Youngs Moduli (GPa) = 74.53537 62.30410 96.30622
#
# Poissons Ratio (x) = 0.13041 0.19088
# Poissons Ratio (y) = 0.15601 0.19815
# Poissons Ratio (z) = 0.14773 0.12819
#
# Static dielectric constant tensor:
#      x y z
#    x 1.894500 0.000000 -0.035430 
#    y 0.000000 1.839980 0.000000 
#    z -0.035430 0.000000 1.888310 
# 
# From -- ./inp_files/65408.got.cif
#   From: 2010.05.17/outbox.cif.g08.bks.cpg/sg15_33_cif.got.tgz:65408.got - 2010.06.03 18:47:42.
