data_PCOD9264572
_publ_section_title
;
Structure prediction by ZEFSAII (Michael W. Deem and Ramdas Pophale) SiO2 
 PCOD9264572
Probable space group: C 2/C
;
_chemical_formula_sum "Si O2"
_cell_formula_units_Z 36
_cell_length_a 9.750894
_cell_length_b 11.657255
_cell_length_c 12.553039
_cell_angle_alpha 90.000000
_cell_angle_beta 97.642628
_cell_angle_gamma 90.000000
_cell_volume 1414.211867
_symmetry_space_group_name_H-M "C 2/C"
_symmetry_group_IT_number 15
_symmetry_cell_setting 'monoclinic'
loop_
_space_group_symop_operation_xyz
x,y,z
-x,y,1/2-z
-x,-y,-z
x,-y,1/2+z
1/2+x,1/2+y,z
1/2-x,1/2+y,1/2-z
1/2-x,1/2-y,-z
1/2+x,1/2-y,1/2+z
loop_
_atom_site_type_symbol
_atom_site_label
_atom_site_fract_x
_atom_site_fract_y
_atom_site_fract_z
Si Si1 0.895860 0.378401 0.331045
Si Si2 0.201721 0.963212 0.944927
Si Si3 0.837408 0.154074 0.846308
Si Si4 0.500000 0.453527 0.750000
Si Si5 0.909208 0.210860 0.512320
O O1 0.831100 0.481056 0.395619
O O2 0.772391 0.312758 0.254316
O O3 0.957769 0.284785 0.416833
O O4 0.000000 0.419012 0.250000
O O5 0.102278 0.901995 0.848447
O O6 0.116871 0.073989 0.982004
O O7 0.228279 0.880821 0.046978
O O8 0.896578 0.036576 0.802801
O O9 0.972898 0.230189 0.885651
O O10 0.750000 0.250000 0.500000
#
# Coordination Sequence:
#
# PCOD9264572 Si02
#       5
#     8   8   8   4   8
#     4  10  22  38  56  84 124 160 200 252 302 354
#     4   9  18  35  59  86 116 152 201 252 297 353
#     4  10  19  35  60  86 119 157 199 242 297 362
#     4   8  14  28  54  88 108 134 188 250 286 342
#     4   9  18  35  59  86 121 150 190 251 311 355
#
# _framework density 25.455874999999999
#
# number of rings (size 3 to 8) (size 9 to 14) (size 15 to 20)
#    0.000    2.667    0.000    4.000    0.000    1.778 
#   12.000    0.000    9.778    0.000    0.000    0.000 
#    0.000    0.000    0.000    0.000    0.000    0.000 
#
# Total GULP energy -100366.897246 kJ/mol
# GULP energy per Si atom -5575.938736 kJ/mol
# Density = 2.539794 g / cm^3
# Si number density = 25.455875 Si / 1000 Ang^3
#
#
#
# Elastic Constant Matrix: (Units=GPa)
#
#
# Indices 1 2 3 4 5 6 
#
# 1 88.8053 14.5378 29.3315 0.0000 -6.7291 0.0000
# 2 14.5378 40.8042 4.4854 0.0000 -14.8067 0.0000
# 3 29.3315 4.4854 135.7063 0.0000 5.0786 0.0000
# 4 0.0000 0.0000 0.0000 -13.7316 0.0000 -26.5698
# 5 -6.7291 -14.8067 5.0786 0.0000 72.9170 0.0000
# 6 0.0000 0.0000 0.0000 -26.5698 0.0000 26.3915
#
#
#
# Elastic Compliance Matrix: (Units=1/GPa)
#
#
# Indices 1 2 3 4 5 6 
#
# 1 0.012850 -0.004089 -0.002663 0.000000 0.000541 0.000000
# 2 -0.004089 0.027917 -0.000237 0.000000 0.005308 0.000000
# 3 -0.002663 -0.000237 0.007984 0.000000 -0.000850 0.000000
# 4 0.000000 0.000000 0.000000 -0.024703 0.000000 -0.024870
# 5 0.000541 0.005308 -0.000850 0.000000 0.014901 0.000000
# 6 0.000000 0.000000 0.000000 -0.024870 0.000000 0.012853
#
#
# Mechanical properties :
#
#
# Convention : Reuss Voigt Hill
#
# Bulk Modulus (GPa) = 28.75869 40.22498 34.49184
# Shear Modulus (GPa) = 64.62310 31.57947 48.10128
#
# Velocity S-wave (km/s) = 5.04395 3.52598 4.35166
# Velocity P-wave (km/s) = 6.72636 5.69323 6.23124
#
# Compressibility (1/GPa) = 0.03477210
#
# Stress axis : x y z
#
# Youngs Moduli (GPa) = 77.81826 35.82110 125.25049
#
# Poissons Ratio (x) = 0.14649 0.33349
# Poissons Ratio (y) = 0.31823 0.02974
# Poissons Ratio (z) = 0.20720 0.00851
#
# Static dielectric constant tensor:
#      x y z
#    x 2.106880 0.000000 -0.040980 
#    y 0.000000 2.015180 0.000000 
#    z -0.040980 0.000000 2.080870 
# 
# From -- ./inp_files/84444.got.cif
#   From: 2010.05.17/outbox.cif.g08.bks.cpg/sg15_43_cif.got.tgz:84444.got - 2010.06.03 18:47:42.
