data_PCOD9264692
_publ_section_title
;
Structure prediction by ZEFSAII (Michael W. Deem and Ramdas Pophale) SiO2 
 PCOD9264692
Probable space group: C 2/C
;
_chemical_formula_sum "Si O2"
_cell_formula_units_Z 40
_cell_length_a 10.642084
_cell_length_b 16.491476
_cell_length_c 10.710039
_cell_angle_alpha 90.000000
_cell_angle_beta 85.562781
_cell_angle_gamma 90.000000
_cell_volume 1874.017313
_symmetry_space_group_name_H-M "C 2/C"
_symmetry_group_IT_number 15
_symmetry_cell_setting 'monoclinic'
loop_
_space_group_symop_operation_xyz
x,y,z
-x,y,1/2-z
-x,-y,-z
x,-y,1/2+z
1/2+x,1/2+y,z
1/2-x,1/2+y,1/2-z
1/2-x,1/2-y,-z
1/2+x,1/2-y,1/2+z
loop_
_atom_site_type_symbol
_atom_site_label
_atom_site_fract_x
_atom_site_fract_y
_atom_site_fract_z
Si Si1 0.435394 0.122334 0.415453
Si Si2 0.844198 0.214799 0.887375
Si Si3 0.873437 0.354971 0.208401
Si Si4 0.175913 0.532630 0.286023
Si Si5 0.576186 0.529797 0.614283
O O1 0.450368 0.216848 0.378473
O O2 0.402046 0.119741 0.562760
O O3 0.557511 0.069250 0.371889
O O4 0.321947 0.090196 0.335732
O O5 0.749663 0.200753 0.778129
O O6 0.893279 0.124869 0.908889
O O7 0.750000 0.250000 0.000000
O O8 0.849204 0.442917 0.269082
O O9 0.000000 0.315882 0.250000
O O10 0.296552 0.520845 0.364750
O O11 0.500000 0.524245 0.750000
O O12 0.500000 0.500000 0.500000
#
# Coordination Sequence:
#
# PCOD9264692 Si02
#       5
#     8   8   8   8   8
#     4  10  20  39  64  95 127 161 226 272 335 392
#     4   9  22  42  65  92 140 172 217 285 344 397
#     4  10  19  35  61  95 123 171 213 270 331 409
#     4  10  22  36  68  87 125 173 215 271 322 404
#     4  11  27  46  68  99 139 184 230 279 345 409
#
# _framework density 21.344518999999998
#
# number of rings (size 3 to 8) (size 9 to 14) (size 15 to 20)
#    0.000    2.000    2.000    0.600   11.200    1.600 
#    7.200    1.000    0.000    0.000    0.000    0.000 
#    0.000    0.000    0.000    0.000    0.000    0.000 
#
# Total GULP energy -111476.784779 kJ/mol
# GULP energy per Si atom -5573.839239 kJ/mol
# Density = 2.129594 g / cm^3
# Si number density = 21.344519 Si / 1000 Ang^3
#
#
#
# Elastic Constant Matrix: (Units=GPa)
#
#
# Indices 1 2 3 4 5 6 
#
# 1 104.7417 51.6205 27.9710 0.0000 29.4685 0.0000
# 2 51.6205 115.2572 28.2486 0.0000 24.7204 0.0000
# 3 27.9710 28.2486 96.5223 0.0000 13.2443 0.0000
# 4 0.0000 0.0000 0.0000 17.0569 0.0000 4.9349
# 5 29.4685 24.7204 13.2443 0.0000 49.4841 0.0000
# 6 0.0000 0.0000 0.0000 4.9349 0.0000 26.0433
#
#
#
# Elastic Compliance Matrix: (Units=1/GPa)
#
#
# Indices 1 2 3 4 5 6 
#
# 1 0.013842 -0.004558 -0.001930 0.000000 -0.005450 0.000000
# 2 -0.004558 0.011718 -0.001742 0.000000 -0.002673 0.000000
# 3 -0.001930 -0.001742 0.011577 0.000000 -0.001079 0.000000
# 4 0.000000 0.000000 0.000000 0.062028 0.000000 -0.011753
# 5 -0.005450 -0.002673 -0.001079 0.000000 0.025078 0.000000
# 6 0.000000 0.000000 0.000000 -0.011753 0.000000 0.040625
#
#
# Mechanical properties :
#
#
# Convention : Reuss Voigt Hill
#
# Bulk Modulus (GPa) = 48.35800 59.13351 53.74575
# Shear Modulus (GPa) = 26.56476 32.42892 29.49684
#
# Velocity S-wave (km/s) = 3.53167 3.90206 3.72148
# Velocity P-wave (km/s) = 6.27180 6.93296 6.61065
#
# Compressibility (1/GPa) = 0.02067910
#
# Stress axis : x y z
#
# Youngs Moduli (GPa) = 72.24360 85.34036 86.37559
#
# Poissons Ratio (x) = 0.38895 0.16667
# Poissons Ratio (y) = 0.32926 0.15045
# Poissons Ratio (z) = 0.13940 0.14864
#
# Static dielectric constant tensor:
#      x y z
#    x 1.874080 0.000000 -0.039180 
#    y 0.000000 1.805910 0.000000 
#    z -0.039180 0.000000 1.821490 
# 
# From -- ./inp_files/85706.got.cif
#   From: 2010.05.17/outbox.cif.g08.bks.cpg/sg15_43_cif.got.tgz:85706.got - 2010.06.03 18:47:42.
