data_PCOD9264039
_publ_section_title
;
Structure prediction by ZEFSAII (Michael W. Deem and Ramdas Pophale) SiO2 
 PCOD9264039
Probable space group: C 2/C
;
_chemical_formula_sum "Si O2"
_cell_formula_units_Z 64
_cell_length_a 12.580517
_cell_length_b 27.407925
_cell_length_c 10.152235
_cell_angle_alpha 90.000000
_cell_angle_beta 77.698108
_cell_angle_gamma 90.000000
_cell_volume 3420.172440
_symmetry_space_group_name_H-M "C 2/C"
_symmetry_group_IT_number 15
_symmetry_cell_setting 'monoclinic'
loop_
_space_group_symop_operation_xyz
x,y,z
-x,y,1/2-z
-x,-y,-z
x,-y,1/2+z
1/2+x,1/2+y,z
1/2-x,1/2+y,1/2-z
1/2-x,1/2-y,-z
1/2+x,1/2-y,1/2+z
loop_
_atom_site_type_symbol
_atom_site_label
_atom_site_fract_x
_atom_site_fract_y
_atom_site_fract_z
Si Si1 0.377423 0.230614 0.324967
Si Si2 0.249566 0.866544 0.886607
Si Si3 0.071907 0.554757 0.099869
Si Si4 0.922571 0.557493 0.897421
Si Si5 0.199280 0.257434 0.154666
Si Si6 0.382458 0.345125 0.829225
Si Si7 0.386045 0.340338 0.351365
Si Si8 0.748023 0.861116 0.130099
O O1 0.500000 0.217229 0.250000
O O2 0.318107 0.183292 0.399525
O O3 0.299217 0.247403 0.226795
O O4 0.385425 0.282773 0.395500
O O5 0.326249 0.911090 0.901167
O O6 0.210188 0.864975 0.746192
O O7 0.144278 0.867617 0.007556
O O8 0.107049 0.498859 0.063715
O O9 0.000000 0.554717 0.250000
O O10 0.995950 0.573903 0.001605
O O11 0.820750 0.591677 0.891144
O O12 0.000000 0.557578 0.750000
O O13 0.117186 0.213376 0.195930
O O14 0.167538 0.313967 0.160847
O O15 0.250000 0.250000 0.000000
O O16 0.500000 0.364089 0.750000
O O17 0.339640 0.353595 0.990315
O O18 0.500000 0.348017 0.250000
O O19 0.302114 0.358359 0.260414
#
# Coordination Sequence:
#
# PCOD9264039 Si02
#       8
#     8   8   8   8   8   8   8   8
#     4   9  18  31  49  75 106 135 168 212 256 304
#     4  11  20  33  54  78 102 135 177 213 256 311
#     4  10  21  37  57  82 107 132 168 217 271 317
#     4  10  21  37  57  81 107 135 168 213 271 321
#     4   8  17  31  47  72 102 135 171 206 249 302
#     4  10  20  34  52  75 105 140 175 212 254 301
#     4  10  20  34  51  74 107 142 174 211 253 301
#     4  10  19  35  54  75 104 138 175 212 257 311
#
# _framework density 18.712506999999999
#
# number of rings (size 3 to 8) (size 9 to 14) (size 15 to 20)
#    0.000    2.250    0.000    3.000    0.000    3.500 
#    0.000    1.250    0.000    4.500    0.000    0.000 
#    0.000    0.000    0.000    0.000    0.000    0.000 
#
# Total GULP energy -178174.728921 kJ/mol
# GULP energy per Si atom -5567.960279 kJ/mol
# Density = 1.866992 g / cm^3
# Si number density = 18.712507 Si / 1000 Ang^3
#
#
#
# Elastic Constant Matrix: (Units=GPa)
#
#
# Indices 1 2 3 4 5 6 
#
# 1 45.4460 31.3539 -4.9725 0.0000 -10.2797 0.0000
# 2 31.3539 66.5241 -4.4467 0.0000 -2.6371 0.0000
# 3 -4.9725 -4.4467 41.8697 0.0000 7.4787 0.0000
# 4 0.0000 0.0000 0.0000 44.3022 0.0000 -20.6729
# 5 -10.2797 -2.6371 7.4787 0.0000 29.2528 0.0000
# 6 0.0000 0.0000 0.0000 -20.6729 0.0000 41.7929
#
#
#
# Elastic Compliance Matrix: (Units=1/GPa)
#
#
# Indices 1 2 3 4 5 6 
#
# 1 0.035897 -0.016446 0.000553 0.000000 0.010991 0.000000
# 2 -0.016446 0.022702 0.001178 0.000000 -0.004034 0.000000
# 3 0.000553 0.001178 0.025170 0.000000 -0.006134 0.000000
# 4 0.000000 0.000000 0.000000 0.029346 0.000000 0.014516
# 5 0.010991 -0.004034 -0.006134 0.000000 0.039252 0.000000
# 6 0.000000 0.000000 0.000000 0.014516 0.000000 0.031108
#
#
# Mechanical properties :
#
#
# Convention : Reuss Voigt Hill
#
# Bulk Modulus (GPa) = 18.40232 21.96771 20.18502
# Shear Modulus (GPa) = 21.64340 31.86326 26.75333
#
# Velocity S-wave (km/s) = 3.40461 4.13095 3.78524
# Velocity P-wave (km/s) = 5.03098 5.87521 5.46941
#
# Compressibility (1/GPa) = 0.05434096
#
# Stress axis : x y z
#
# Youngs Moduli (GPa) = 27.85735 44.04827 39.72961
#
# Poissons Ratio (x) = 0.72443 -0.02199
# Poissons Ratio (y) = 0.45815 -0.04682
# Poissons Ratio (z) = -0.01542 -0.05191
#
# Static dielectric constant tensor:
#      x y z
#    x 1.651230 0.000000 0.001120 
#    y 0.000000 1.683600 0.000000 
#    z 0.001120 0.000000 1.639180 
# 
# From -- ./inp_files/91265.got.cif
#   From: 2010.05.17/outbox.cif.g08.bks.cpg/sg15_46_cif.got.tgz:91265.got - 2010.06.03 18:47:42.
