data_PCOD9264944
_publ_section_title
;
Structure prediction by ZEFSAII (Michael W. Deem and Ramdas Pophale) SiO2 
 PCOD9264944
Probable space group: C 2/C
;
_chemical_formula_sum "Si O2"
_cell_formula_units_Z 64
_cell_length_a 22.008745
_cell_length_b 18.858376
_cell_length_c 7.277983
_cell_angle_alpha 90.000000
_cell_angle_beta 88.020192
_cell_angle_gamma 90.000000
_cell_volume 3018.917761
_symmetry_space_group_name_H-M "C 2/C"
_symmetry_group_IT_number 15
_symmetry_cell_setting 'monoclinic'
loop_
_space_group_symop_operation_xyz
x,y,z
-x,y,1/2-z
-x,-y,-z
x,-y,1/2+z
1/2+x,1/2+y,z
1/2-x,1/2+y,1/2-z
1/2-x,1/2-y,-z
1/2+x,1/2-y,1/2+z
loop_
_atom_site_type_symbol
_atom_site_label
_atom_site_fract_x
_atom_site_fract_y
_atom_site_fract_z
Si Si1 0.798838 0.813155 0.540922
Si Si2 0.544908 0.085684 0.500749
Si Si3 0.684191 0.757396 0.086947
Si Si4 0.788634 0.434346 0.860168
Si Si5 0.323427 0.918288 0.431931
Si Si6 0.429030 0.268420 0.511325
Si Si7 0.419016 0.101379 0.428812
Si Si8 0.942922 0.752737 0.947803
O O1 0.750000 0.750000 0.500000
O O2 0.814245 0.797467 0.749546
O O3 0.764275 0.887988 0.543366
O O4 0.867160 0.806880 0.450408
O O5 0.605697 0.057711 0.591333
O O6 0.474170 0.065436 0.537799
O O7 0.562470 0.085244 0.283408
O O8 0.544065 0.169025 0.551137
O O9 0.679161 0.839509 0.149785
O O10 0.625531 0.741207 0.967710
O O11 0.750000 0.750000 0.000000
O O12 0.804157 0.410070 0.649554
O O13 0.781849 0.519251 0.857498
O O14 0.850199 0.420801 0.969731
O O15 0.420582 0.186168 0.456141
O O16 0.435010 0.271944 0.733933
O O17 0.499501 0.288204 0.458738
#
# Coordination Sequence:
#
# PCOD9264944 Si02
#       8
#     8   8   8   8   8   8   8   8
#     4  11  21  32  53  77 105 135 177 217 262 302
#     4   8  16  30  46  67  96 139 170 203 249 300
#     4  10  19  36  55  75 104 134 169 214 261 317
#     4  11  22  34  48  73 103 140 176 212 260 308
#     4  10  22  35  50  71 104 136 175 215 260 309
#     4   9  16  29  46  73 102 128 167 218 248 298
#     4   9  16  29  47  67  99 134 175 207 245 296
#     4   8  16  27  48  73  99 127 166 207 258 300
#
# _framework density 21.199649000000001
#
# number of rings (size 3 to 8) (size 9 to 14) (size 15 to 20)
#    0.000    2.500    2.500    0.000    1.750    1.500 
#    0.000    0.000    0.000    3.000    0.000    0.875 
#    0.000    0.000    0.000    0.000    0.000    0.000 
#
# Total GULP energy -178268.086826 kJ/mol
# GULP energy per Si atom -5570.877713 kJ/mol
# Density = 2.115140 g / cm^3
# Si number density = 21.199649 Si / 1000 Ang^3
#
#
#
# Elastic Constant Matrix: (Units=GPa)
#
#
# Indices 1 2 3 4 5 6 
#
# 1 199.5537 54.5470 14.2939 0.0000 1.2555 0.0000
# 2 54.5470 73.9885 3.1523 0.0000 5.4899 0.0000
# 3 14.2939 3.1523 50.3889 0.0000 -5.6772 0.0000
# 4 0.0000 0.0000 0.0000 19.9954 0.0000 -6.1085
# 5 1.2555 5.4899 -5.6772 0.0000 15.0867 0.0000
# 6 0.0000 0.0000 0.0000 -6.1085 0.0000 38.2653
#
#
#
# Elastic Compliance Matrix: (Units=1/GPa)
#
#
# Indices 1 2 3 4 5 6 
#
# 1 0.006396 -0.004700 -0.001449 0.000000 0.000633 0.000000
# 2 -0.004700 0.017455 -0.000449 0.000000 -0.006130 0.000000
# 3 -0.001449 -0.000449 0.021216 0.000000 0.008268 0.000000
# 4 0.000000 0.000000 0.000000 0.052576 0.000000 0.008393
# 5 0.000633 -0.006130 0.008268 0.000000 0.071572 0.000000
# 6 0.000000 0.000000 0.000000 0.008393 0.000000 0.027473
#
#
# Mechanical properties :
#
#
# Convention : Reuss Voigt Hill
#
# Bulk Modulus (GPa) = 31.37761 51.99084 41.68423
# Shear Modulus (GPa) = 22.67485 31.46535 27.07010
#
# Velocity S-wave (km/s) = 3.27400 3.85676 3.57727
# Velocity P-wave (km/s) = 5.39678 6.66412 6.06365
#
# Compressibility (1/GPa) = 0.03186985
#
# Stress axis : x y z
#
# Youngs Moduli (GPa) = 156.35168 57.29044 47.13357
#
# Poissons Ratio (x) = 0.26929 0.06829
# Poissons Ratio (y) = 0.73493 0.02117
# Poissons Ratio (z) = 0.22655 0.02573
#
# Static dielectric constant tensor:
#      x y z
#    x 1.955110 0.000000 -0.043290 
#    y 0.000000 1.766040 0.000000 
#    z -0.043290 0.000000 1.873870 
# 
# From -- ./inp_files/57527.got.cif
#   From: 2010.05.17/outbox.cif.g08.bks.cpg/sg15_29_cif.got.tgz:57527.got - 2010.06.03 18:47:42.
