data_PCOD9264148
_publ_section_title
;
Structure prediction by ZEFSAII (Michael W. Deem and Ramdas Pophale) SiO2 
 PCOD9264148
Probable space group: C 2/C
;
_chemical_formula_sum "Si O2"
_cell_formula_units_Z 40
_cell_length_a 4.944689
_cell_length_b 23.399639
_cell_length_c 17.635128
_cell_angle_alpha 90.000000
_cell_angle_beta 79.715033
_cell_angle_gamma 90.000000
_cell_volume 2007.667570
_symmetry_space_group_name_H-M "C 2/C"
_symmetry_group_IT_number 15
_symmetry_cell_setting 'monoclinic'
loop_
_space_group_symop_operation_xyz
x,y,z
-x,y,1/2-z
-x,-y,-z
x,-y,1/2+z
1/2+x,1/2+y,z
1/2-x,1/2+y,1/2-z
1/2-x,1/2-y,-z
1/2+x,1/2-y,1/2+z
loop_
_atom_site_type_symbol
_atom_site_label
_atom_site_fract_x
_atom_site_fract_y
_atom_site_fract_z
Si Si1 0.560277 0.203957 0.412404
Si Si2 0.500000 0.844348 0.750000
Si Si3 0.987289 0.175971 0.992016
Si Si4 0.805771 0.436724 0.444974
Si Si5 0.820184 0.001753 0.395198
Si Si6 0.000000 0.922986 0.750000
O O1 0.556495 0.190891 0.323864
O O2 0.848237 0.192010 0.439284
O O3 0.489698 0.269519 0.436303
O O4 0.326258 0.166026 0.466699
O O5 0.768105 0.883560 0.723629
O O6 0.156798 0.124019 0.947843
O O7 0.616759 0.480498 0.407339
O O8 0.790457 0.456544 0.533313
O O9 0.114363 0.447840 0.401946
O O10 0.847190 0.037273 0.317920
#
# Coordination Sequence:
#
# PCOD9264148 Si02
#       6
#     8   4   8   8   8   4
#     4  10  21  35  57  87 113 144 192 234 283 346
#     4  12  22  36  59  84 115 150 186 240 300 342
#     4  10  20  37  58  82 114 150 189 237 281 334
#     4  10  19  35  56  79 108 147 187 226 272 332
#     4  10  21  34  54  81 109 143 189 228 274 340
#     4  12  24  38  57  84 119 148 184 246 300 338
#
# _framework density 19.923615999999999
#
# number of rings (size 3 to 8) (size 9 to 14) (size 15 to 20)
#    0.000    1.600    0.000    6.000    0.000    3.200 
#    0.000    1.000    0.000    7.200    0.000    0.000 
#    0.000    0.000    0.000    0.000    0.000    0.000 
#
# Total GULP energy -111739.873601 kJ/mol
# GULP energy per Si atom -5586.993680 kJ/mol
# Density = 1.987827 g / cm^3
# Si number density = 19.923616 Si / 1000 Ang^3
#
#
#
# Elastic Constant Matrix: (Units=GPa)
#
#
# Indices 1 2 3 4 5 6 
#
# 1 80.4247 7.5650 15.9633 0.0000 -5.7107 0.0000
# 2 7.5650 77.1370 38.4316 0.0000 3.6859 0.0000
# 3 15.9633 38.4316 98.4722 0.0000 13.9462 0.0000
# 4 0.0000 0.0000 0.0000 12.7364 0.0000 -2.7516
# 5 -5.7107 3.6859 13.9462 0.0000 17.3407 0.0000
# 6 0.0000 0.0000 0.0000 -2.7516 0.0000 34.5574
#
#
#
# Elastic Compliance Matrix: (Units=1/GPa)
#
#
# Indices 1 2 3 4 5 6 
#
# 1 0.013569 -0.000093 -0.003159 0.000000 0.007029 0.000000
# 2 -0.000093 0.016146 -0.006541 0.000000 0.001798 0.000000
# 3 -0.003159 -0.006541 0.014863 0.000000 -0.011604 0.000000
# 4 0.000000 0.000000 0.000000 0.079889 0.000000 0.006361
# 5 0.007029 0.001798 -0.011604 0.000000 0.068933 0.000000
# 6 0.000000 0.000000 0.000000 0.006361 0.000000 0.029444
#
#
# Mechanical properties :
#
#
# Convention : Reuss Voigt Hill
#
# Bulk Modulus (GPa) = 40.01136 42.21706 41.11421
# Shear Modulus (GPa) = 19.93934 25.86516 22.90225
#
# Velocity S-wave (km/s) = 3.16696 3.60699 3.39411
# Velocity P-wave (km/s) = 5.78781 6.21149 6.00339
#
# Compressibility (1/GPa) = 0.02499290
#
# Stress axis : x y z
#
# Youngs Moduli (GPa) = 73.69843 61.93467 67.27896
#
# Poissons Ratio (x) = 0.00574 0.21253
# Poissons Ratio (y) = 0.00683 0.44008
# Poissons Ratio (z) = 0.23281 0.40512
#
# Static dielectric constant tensor:
#      x y z
#    x 1.713530 0.000000 -0.008690 
#    y 0.000000 1.725920 0.000000 
#    z -0.008690 0.000000 1.662030 
# 
# From -- ./inp_files/185080.got.cif
#   From: 2010.05.17/outbox.cif.g08.bks.cpg/sg15_93_cif.got.tgz:185080.got - 2010.06.03 18:47:42.
