data_PCOD9264362
_publ_section_title
;
Structure prediction by ZEFSAII (Michael W. Deem and Ramdas Pophale) SiO2 
 PCOD9264362
Probable space group: C 2/C
;
_chemical_formula_sum "Si O2"
_cell_formula_units_Z 48
_cell_length_a 18.240205
_cell_length_b 18.826768
_cell_length_c 6.682563
_cell_angle_alpha 90.000000
_cell_angle_beta 125.447487
_cell_angle_gamma 90.000000
_cell_volume 1869.468820
_symmetry_space_group_name_H-M "C 2/C"
_symmetry_group_IT_number 15
_symmetry_cell_setting 'monoclinic'
loop_
_space_group_symop_operation_xyz
x,y,z
-x,y,1/2-z
-x,-y,-z
x,-y,1/2+z
1/2+x,1/2+y,z
1/2-x,1/2+y,1/2-z
1/2-x,1/2-y,-z
1/2+x,1/2-y,1/2+z
loop_
_atom_site_type_symbol
_atom_site_label
_atom_site_fract_x
_atom_site_fract_y
_atom_site_fract_z
Si Si1 0.917412 0.848342 0.895491
Si Si2 0.179154 0.997949 0.250919
Si Si3 0.098981 0.383340 0.435814
Si Si4 0.116691 0.841128 0.130373
Si Si5 0.749299 0.768746 0.734665
Si Si6 0.673947 0.990372 0.267504
O O1 0.900178 0.833557 0.633892
O O2 0.847970 0.801895 0.915155
O O3 0.883899 0.930524 0.867847
O O4 0.021065 0.826935 0.081860
O O5 0.129743 0.923658 0.192451
O O6 0.298317 0.985450 0.441298
O O7 0.208567 0.991539 0.046192
O O8 0.173837 0.329652 0.631542
O O9 0.133466 0.415115 0.277072
O O10 0.101047 0.447690 0.599980
O O11 0.000000 0.353161 0.250000
O O12 0.210508 0.797679 0.296697
O O13 0.750000 0.750000 0.500000
#
# Coordination Sequence:
#
# PCOD9264362 Si02
#       6
#     8   8   8   8   8   8
#     4  10  19  35  58  84 122 151 205 242 293 357
#     4  11  18  38  58  89 119 156 192 250 301 353
#     4  11  22  37  61  88 116 156 201 249 291 357
#     4  10  21  33  57  92 115 155 202 249 293 353
#     4  10  20  36  56  87 118 154 196 248 296 355
#     4  10  20  36  59  86 118 152 196 241 304 342
#
# _framework density 25.675744000000002
#
# number of rings (size 3 to 8) (size 9 to 14) (size 15 to 20)
#    0.000    1.667    5.000    2.000    4.667    0.000 
#    0.000    0.833    0.000    0.000    4.333    0.000 
#    0.000    0.000    0.000    0.000    0.000    0.000 
#
# Total GULP energy -133868.372388 kJ/mol
# GULP energy per Si atom -5577.848849 kJ/mol
# Density = 2.561730 g / cm^3
# Si number density = 25.675744 Si / 1000 Ang^3
#
#
#
# Elastic Constant Matrix: (Units=GPa)
#
#
# Indices 1 2 3 4 5 6 
#
# 1 204.5999 66.1119 70.5105 0.0000 12.0432 0.0000
# 2 66.1119 72.5447 22.3057 0.0000 11.9867 0.0000
# 3 70.5105 22.3057 121.2115 0.0000 17.1343 0.0000
# 4 0.0000 0.0000 0.0000 25.6803 0.0000 -17.4143
# 5 12.0432 11.9867 17.1343 0.0000 60.8899 0.0000
# 6 0.0000 0.0000 0.0000 -17.4143 0.0000 19.8270
#
#
#
# Elastic Compliance Matrix: (Units=1/GPa)
#
#
# Indices 1 2 3 4 5 6 
#
# 1 0.008201 -0.006456 -0.003680 0.000000 0.000684 0.000000
# 2 -0.006456 0.019984 0.000472 0.000000 -0.002790 0.000000
# 3 -0.003680 0.000472 0.010637 0.000000 -0.002358 0.000000
# 4 0.000000 0.000000 0.000000 0.096291 0.000000 0.084573
# 5 0.000684 -0.002790 -0.002358 0.000000 0.017501 0.000000
# 6 0.000000 0.000000 0.000000 0.084573 0.000000 0.124718
#
#
# Mechanical properties :
#
#
# Convention : Reuss Voigt Hill
#
# Bulk Modulus (GPa) = 51.29244 79.57915 65.43579
# Shear Modulus (GPa) = 16.49312 37.24131 26.86722
#
# Velocity S-wave (km/s) = 2.53724 3.81261 3.23833
# Velocity P-wave (km/s) = 5.34825 7.10229 6.28674
#
# Compressibility (1/GPa) = 0.01949605
#
# Stress axis : x y z
#
# Youngs Moduli (GPa) = 121.92925 50.04061 94.01168
#
# Poissons Ratio (x) = 0.32306 0.34593
# Poissons Ratio (y) = 0.78716 -0.04441
# Poissons Ratio (z) = 0.44865 -0.02364
#
# Static dielectric constant tensor:
#      x y z
#    x 2.056810 0.000000 -0.057260 
#    y 0.000000 1.978380 0.000000 
#    z -0.057260 0.000000 2.168710 
# 
# From -- ./inp_files/48725.got.cif
#   From: 2010.05.17/outbox.cif.g08.bks.cpg/sg15_25_cif.got.tgz:48725.got - 2010.06.03 18:47:42.
