data_PCOD9264603
_publ_section_title
;
Structure prediction by ZEFSAII (Michael W. Deem and Ramdas Pophale) SiO2 
 PCOD9264603
Probable space group: C 2/C
;
_chemical_formula_sum "Si O2"
_cell_formula_units_Z 56
_cell_length_a 18.155854
_cell_length_b 7.527904
_cell_length_c 18.950791
_cell_angle_alpha 90.000000
_cell_angle_beta 125.198805
_cell_angle_gamma 90.000000
_cell_volume 2116.525762
_symmetry_space_group_name_H-M "C 2/C"
_symmetry_group_IT_number 15
_symmetry_cell_setting 'monoclinic'
loop_
_space_group_symop_operation_xyz
x,y,z
-x,y,1/2-z
-x,-y,-z
x,-y,1/2+z
1/2+x,1/2+y,z
1/2-x,1/2+y,1/2-z
1/2-x,1/2-y,-z
1/2+x,1/2-y,1/2+z
loop_
_atom_site_type_symbol
_atom_site_label
_atom_site_fract_x
_atom_site_fract_y
_atom_site_fract_z
Si Si1 0.640798 0.637260 0.062976
Si Si2 0.558744 0.864905 0.674734
Si Si3 0.645370 0.615514 0.275978
Si Si4 0.001012 0.032735 0.101752
Si Si5 0.729658 0.959240 0.253904
Si Si6 0.241055 0.944885 0.443671
Si Si7 0.126342 0.401935 0.874302
O O1 0.557972 0.641484 0.074044
O O2 0.720255 0.552629 0.153288
O O3 0.681298 0.823313 0.054947
O O4 0.598707 0.496278 0.983545
O O5 0.532186 0.673106 0.629503
O O6 0.596467 0.893222 0.776103
O O7 0.461616 0.956287 0.629630
O O8 0.641275 0.941050 0.676084
O O9 0.540246 0.611001 0.197350
O O10 0.690759 0.777265 0.260765
O O11 0.695118 0.447956 0.265032
O O12 0.688158 0.602123 0.375867
O O13 0.161208 0.799347 0.405722
O O14 0.290122 0.000156 0.542884
#
# Coordination Sequence:
#
# PCOD9264603 Si02
#       7
#     8   8   8   8   8   8   8
#     4  10  19  35  60  90 122 153 200 266 312 359
#     4  11  20  40  64  91 120 166 210 252 312 372
#     4  11  22  39  63  93 125 164 209 261 328 375
#     4  10  19  35  60  91 121 152 204 261 311 364
#     4  11  22  39  63  92 126 164 206 267 324 375
#     4  11  20  40  64  93 119 165 213 251 315 377
#     4  10  22  36  67  86 123 163 211 250 294 387
#
# _framework density 26.458455000000001
#
# number of rings (size 3 to 8) (size 9 to 14) (size 15 to 20)
#    0.000    1.429    4.286    3.429    0.000    0.000 
#    2.571    1.429    6.286    0.000    0.000    0.000 
#    0.000    0.000    0.000    0.000    0.000    0.000 
#
# Total GULP energy -155996.642410 kJ/mol
# GULP energy per Si atom -5571.308658 kJ/mol
# Density = 2.639823 g / cm^3
# Si number density = 26.458455 Si / 1000 Ang^3
#
#
#
# Elastic Constant Matrix: (Units=GPa)
#
#
# Indices 1 2 3 4 5 6 
#
# 1 96.9982 -5.5379 29.2579 0.0000 26.3754 0.0000
# 2 -5.5379 48.5891 17.4998 0.0000 3.4227 0.0000
# 3 29.2579 17.4998 179.5663 0.0000 25.3732 0.0000
# 4 0.0000 0.0000 0.0000 27.1564 0.0000 -7.3827
# 5 26.3754 3.4227 25.3732 0.0000 57.8314 0.0000
# 6 0.0000 0.0000 0.0000 -7.3827 0.0000 23.6166
#
#
#
# Elastic Compliance Matrix: (Units=1/GPa)
#
#
# Indices 1 2 3 4 5 6 
#
# 1 0.012275 0.002299 -0.001507 0.000000 -0.005073 0.000000
# 2 0.002299 0.021768 -0.002309 0.000000 -0.001324 0.000000
# 3 -0.001507 -0.002309 0.006315 0.000000 -0.001946 0.000000
# 4 0.000000 0.000000 0.000000 0.040244 0.000000 0.012580
# 5 -0.005073 -0.001324 -0.001946 0.000000 0.020538 0.000000
# 6 0.000000 0.000000 0.000000 0.012580 0.000000 0.046276
#
#
# Mechanical properties :
#
#
# Convention : Reuss Voigt Hill
#
# Bulk Modulus (GPa) = 26.79306 45.28813 36.04059
# Shear Modulus (GPa) = 30.69568 40.64979 35.67273
#
# Velocity S-wave (km/s) = 3.40979 3.92390 3.67584
# Velocity P-wave (km/s) = 5.06465 6.13866 5.62734
#
# Compressibility (1/GPa) = 0.03732310
#
# Stress axis : x y z
#
# Youngs Moduli (GPa) = 81.46761 45.93976 158.36275
#
# Poissons Ratio (x) = -0.10563 0.23869
# Poissons Ratio (y) = -0.18731 0.36565
# Poissons Ratio (z) = 0.12279 0.10607
#
# Static dielectric constant tensor:
#      x y z
#    x 2.262590 0.000000 -0.138740 
#    y 0.000000 2.168670 0.000000 
#    z -0.138740 0.000000 2.163810 
# 
# From -- ./inp_files/251964.got.cif
#   From: 2010.05.17/outbox.cif.g08.bks.cpg/sg15_126_cif.got.tgz:251964.got - 2010.06.03 18:47:42.
