data_PCOD9264047
_publ_section_title
;
Structure prediction by ZEFSAII (Michael W. Deem and Ramdas Pophale) SiO2 
 PCOD9264047
Probable space group: C 2/C
;
_chemical_formula_sum "Si O2"
_cell_formula_units_Z 48
_cell_length_a 10.411069
_cell_length_b 28.234437
_cell_length_c 15.259266
_cell_angle_alpha 90.000000
_cell_angle_beta 151.514279
_cell_angle_gamma 90.000000
_cell_volume 2139.299565
_symmetry_space_group_name_H-M "C 2/C"
_symmetry_group_IT_number 15
_symmetry_cell_setting 'monoclinic'
loop_
_space_group_symop_operation_xyz
x,y,z
-x,y,1/2-z
-x,-y,-z
x,-y,1/2+z
1/2+x,1/2+y,z
1/2-x,1/2+y,1/2-z
1/2-x,1/2-y,-z
1/2+x,1/2-y,1/2+z
loop_
_atom_site_type_symbol
_atom_site_label
_atom_site_fract_x
_atom_site_fract_y
_atom_site_fract_z
Si Si1 0.690335 0.946718 0.033721
Si Si2 0.802223 0.550836 0.468562
Si Si3 0.742324 0.646195 0.537254
Si Si4 0.500202 0.305813 0.464912
Si Si5 0.031415 0.703173 0.971665
Si Si6 0.777989 0.344301 0.475737
O O1 0.667264 0.898560 0.965713
O O2 0.000000 0.949016 0.250000
O O3 0.628698 0.998052 0.955438
O O4 0.505983 0.940679 0.009941
O O5 0.500000 0.549820 0.250000
O O6 0.799026 0.594219 0.533683
O O7 0.506907 0.652649 0.466870
O O8 0.000000 0.659647 0.750000
O O9 0.737786 0.682845 0.453385
O O10 0.239163 0.306877 0.245687
O O11 0.475400 0.257666 0.504908
O O12 0.736243 0.311893 0.535765
O O13 0.004156 0.674662 0.045689
O O14 0.500000 0.343986 0.250000
#
# Coordination Sequence:
#
# PCOD9264047 Si02
#       6
#     8   8   8   8   8   8
#     4   9  18  35  64  86 113 155 201 227 286 358
#     4  10  20  36  62  92 116 149 199 246 285 340
#     4  10  21  36  55  82 116 156 191 235 297 356
#     4  10  21  33  54  80 112 147 195 241 290 342
#     4  10  19  35  54  78 108 152 196 238 285 348
#     4   9  17  33  57  80 106 150 195 231 280 351
#
# _framework density 22.437252000000001
#
# number of rings (size 3 to 8) (size 9 to 14) (size 15 to 20)
#    0.000    2.333    1.667    1.000    2.333    1.333 
#    0.000    0.833    0.000    0.000    0.000    0.000 
#    0.000    0.000    0.000    0.000    0.000    0.000 
#
# Total GULP energy -133874.222447 kJ/mol
# GULP energy per Si atom -5578.092602 kJ/mol
# Density = 2.238618 g / cm^3
# Si number density = 22.437252 Si / 1000 Ang^3
#
#
#
# Elastic Constant Matrix: (Units=GPa)
#
#
# Indices 1 2 3 4 5 6 
#
# 1 147.2984 66.3183 23.9505 0.0000 -17.0930 0.0000
# 2 66.3183 131.7028 -14.3185 0.0000 -21.9399 0.0000
# 3 23.9505 -14.3185 63.2585 0.0000 0.8529 0.0001
# 4 0.0000 0.0000 0.0000 33.7474 0.0000 -11.8728
# 5 -17.0930 -21.9399 0.8529 0.0000 14.3827 0.0000
# 6 0.0000 0.0000 0.0001 -11.8728 0.0000 25.7816
#
#
#
# Elastic Compliance Matrix: (Units=1/GPa)
#
#
# Indices 1 2 3 4 5 6 
#
# 1 0.010464 -0.004970 -0.005156 0.000000 0.005160 0.000000
# 2 -0.004970 0.012826 0.004604 0.000000 0.013385 0.000000
# 3 -0.005156 0.004604 0.018806 0.000000 -0.000219 0.000000
# 4 0.000000 0.000000 0.000000 0.035361 0.000000 0.016284
# 5 0.005160 0.013385 -0.000219 0.000000 0.096092 0.000000
# 6 0.000000 0.000000 0.000000 0.016284 0.000000 0.046287
#
#
# Mechanical properties :
#
#
# Convention : Reuss Voigt Hill
#
# Bulk Modulus (GPa) = 32.20464 54.90669 43.55566
# Shear Modulus (GPa) = 20.72722 32.53631 26.63177
#
# Velocity S-wave (km/s) = 3.04268 3.81215 3.44894
# Velocity P-wave (km/s) = 5.16994 6.62578 5.94261
#
# Compressibility (1/GPa) = 0.03105143
#
# Stress axis : x y z
#
# Youngs Moduli (GPa) = 95.56807 77.96737 53.17584
#
# Poissons Ratio (x) = 0.38750 0.27419
# Poissons Ratio (y) = 0.47497 -0.24484
# Poissons Ratio (z) = 0.49277 -0.35899
#
# Static dielectric constant tensor:
#      x y z
#    x 1.867230 0.000000 -0.007610 
#    y 0.000000 1.885230 0.000000 
#    z -0.007610 0.000000 1.879320 
# 
# From -- ./inp_files/139622.got.cif
#   From: 2010.05.17/outbox.cif.g08.bks.cpg/sg15_70_cif.got.tgz:139622.got - 2010.06.03 18:47:42.
