data_PCOD9264473
_publ_section_title
;
Structure prediction by ZEFSAII (Michael W. Deem and Ramdas Pophale) SiO2 
 PCOD9264473
Probable space group: C 2/C
;
_chemical_formula_sum "Si O2"
_cell_formula_units_Z 64
_cell_length_a 23.202582
_cell_length_b 18.731547
_cell_length_c 14.176039
_cell_angle_alpha 90.000000
_cell_angle_beta 149.117828
_cell_angle_gamma 90.000000
_cell_volume 3162.381971
_symmetry_space_group_name_H-M "C 2/C"
_symmetry_group_IT_number 15
_symmetry_cell_setting 'monoclinic'
loop_
_space_group_symop_operation_xyz
x,y,z
-x,y,1/2-z
-x,-y,-z
x,-y,1/2+z
1/2+x,1/2+y,z
1/2-x,1/2+y,1/2-z
1/2-x,1/2-y,-z
1/2+x,1/2-y,1/2+z
loop_
_atom_site_type_symbol
_atom_site_label
_atom_site_fract_x
_atom_site_fract_y
_atom_site_fract_z
Si Si1 0.719765 0.302574 0.819744
Si Si2 0.305858 0.863055 0.643881
Si Si3 0.816734 0.991917 0.507261
Si Si4 0.191186 0.349338 0.357113
Si Si5 0.063255 0.330013 0.498168
Si Si6 0.528717 0.533209 0.439961
Si Si7 0.386553 0.733322 0.646633
Si Si8 0.968433 0.824138 0.456513
O O1 0.707519 0.216151 0.806554
O O2 0.831328 0.329116 0.923929
O O3 0.600584 0.332595 0.617333
O O4 0.734330 0.327696 0.948120
O O5 0.398393 0.872155 0.854537
O O6 0.357155 0.814984 0.631858
O O7 0.211347 0.806665 0.547226
O O8 0.246157 0.938042 0.543075
O O9 0.733923 0.925094 0.381227
O O10 0.876608 0.004730 0.490407
O O11 0.916767 0.969736 0.718962
O O12 0.060874 0.353987 0.205968
O O13 0.045235 0.248633 0.505362
O O14 0.500000 0.500000 0.500000
O O15 0.565939 0.612528 0.522174
O O16 0.500000 0.730560 0.750000
O O17 0.402283 0.688315 0.766046
#
# Coordination Sequence:
#
# PCOD9264473 Si02
#       8
#     8   8   8   8   8   8   8   8
#     4  10  19  35  59  85 119 154 206 256 295 359
#     4  10  23  39  59  91 119 161 206 248 312 369
#     4  11  24  41  61  88 132 160 194 260 315 368
#     4  10  21  37  57  87 119 163 201 244 311 362
#     4  10  21  36  59  85 116 161 205 249 294 358
#     4  11  24  39  61  93 120 159 201 250 315 369
#     4  10  21  39  65  89 120 161 209 264 303 356
#     4  10  20  37  60  89 119 153 210 253 307 361
#
# _framework density 20.237908999999998
#
# number of rings (size 3 to 8) (size 9 to 14) (size 15 to 20)
#    0.000    1.750    1.250    2.625    5.250    0.500 
#    0.000    6.250    0.000    0.000    0.000    0.000 
#    0.000    0.000    0.000    0.000    0.000    0.000 
#
# Total GULP energy -178536.575724 kJ/mol
# GULP energy per Si atom -5579.267991 kJ/mol
# Density = 2.019185 g / cm^3
# Si number density = 20.237909 Si / 1000 Ang^3
#
#
#
# Elastic Constant Matrix: (Units=GPa)
#
#
# Indices 1 2 3 4 5 6 
#
# 1 32.3046 -11.7546 2.6491 0.0000 -7.1796 0.0000
# 2 -11.7546 66.2997 6.8837 0.0000 -13.4942 0.0000
# 3 2.6491 6.8837 73.6986 0.0000 3.4238 0.0000
# 4 0.0000 0.0000 0.0000 19.2583 0.0000 5.7272
# 5 -7.1796 -13.4942 3.4238 0.0000 23.4975 0.0000
# 6 0.0000 0.0000 0.0000 5.7272 0.0000 16.1694
#
#
#
# Elastic Compliance Matrix: (Units=1/GPa)
#
#
# Indices 1 2 3 4 5 6 
#
# 1 0.039544 0.011231 -0.003354 0.000000 0.019021 0.000000
# 2 0.011231 0.020587 -0.003056 0.000000 0.015699 0.000000
# 3 -0.003354 -0.003056 0.014200 0.000000 -0.004849 0.000000
# 4 0.000000 0.000000 0.000000 0.058039 0.000000 -0.020558
# 5 0.019021 0.015699 -0.004849 0.000000 0.058092 0.000000
# 6 0.000000 0.000000 0.000000 -0.020558 0.000000 0.069127
#
#
# Mechanical properties :
#
#
# Convention : Reuss Voigt Hill
#
# Bulk Modulus (GPa) = 11.90870 18.65103 15.27986
# Shear Modulus (GPa) = 17.98960 23.42001 20.70481
#
# Velocity S-wave (km/s) = 2.98469 3.40551 3.20202
# Velocity P-wave (km/s) = 4.21603 4.96983 4.60837
#
# Compressibility (1/GPa) = 0.08397224
#
# Stress axis : x y z
#
# Youngs Moduli (GPa) = 25.28821 48.57488 70.42243
#
# Poissons Ratio (x) = -0.54552 0.23620
# Poissons Ratio (y) = -0.28400 0.21520
# Poissons Ratio (z) = 0.08482 0.14844
#
# Static dielectric constant tensor:
#      x y z
#    x 1.720590 0.000000 0.002790 
#    y 0.000000 1.751640 0.000000 
#    z 0.002790 0.000000 1.772460 
# 
# From -- ./inp_files/174248.got.cif
#   From: 2010.05.17/outbox.cif.g08.bks.cpg/sg15_88_cif.got.tgz:174248.got - 2010.06.03 18:47:42.
