data_PCOD9264594
_publ_section_title
;
Structure prediction by ZEFSAII (Michael W. Deem and Ramdas Pophale) SiO2 
 PCOD9264594
Probable space group: C 2/C
;
_chemical_formula_sum "Si O2"
_cell_formula_units_Z 56
_cell_length_a 8.800406
_cell_length_b 16.047757
_cell_length_c 24.809243
_cell_angle_alpha 90.000000
_cell_angle_beta 49.375247
_cell_angle_gamma 90.000000
_cell_volume 2659.295908
_symmetry_space_group_name_H-M "C 2/C"
_symmetry_group_IT_number 15
_symmetry_cell_setting 'monoclinic'
loop_
_space_group_symop_operation_xyz
x,y,z
-x,y,1/2-z
-x,-y,-z
x,-y,1/2+z
1/2+x,1/2+y,z
1/2-x,1/2+y,1/2-z
1/2-x,1/2-y,-z
1/2+x,1/2-y,1/2+z
loop_
_atom_site_type_symbol
_atom_site_label
_atom_site_fract_x
_atom_site_fract_y
_atom_site_fract_z
Si Si1 0.457525 0.008586 0.842241
Si Si2 0.007359 0.135636 0.683847
Si Si3 0.387459 0.948034 0.479712
Si Si4 0.055705 0.093528 0.408278
Si Si5 0.075385 0.279765 0.414466
Si Si6 0.400263 0.547875 0.215270
Si Si7 0.929717 0.691873 0.712592
O O1 0.257261 0.957457 0.875369
O O2 0.661893 0.963720 0.776832
O O3 0.474718 0.022994 0.902277
O O4 0.462725 0.100566 0.814714
O O5 0.204576 0.184511 0.622315
O O6 0.000000 0.129863 0.750000
O O7 0.802922 0.181163 0.718887
O O8 0.991079 0.039480 0.671555
O O9 0.429239 0.848510 0.474142
O O10 0.147849 0.955720 0.531990
O O11 0.500000 0.000000 0.500000
O O12 0.053296 0.184204 0.436734
O O13 0.058143 0.109137 0.343187
O O14 0.053776 0.283184 0.354069
O O15 0.500000 0.564046 0.250000
O O16 0.000000 0.739972 0.750000
#
# Coordination Sequence:
#
# PCOD9264594 Si02
#       7
#     8   8   8   8   8   8   8
#     4  10  21  37  60  89 117 154 202 246 293 354
#     4   8  15  31  52  76 108 150 190 228 276 341
#     4  11  23  43  64  81 111 163 209 242 290 363
#     4  12  23  37  59  89 122 150 189 254 308 346
#     4  10  22  37  56  84 120 155 194 243 302 353
#     4  10  19  35  60  89 118 155 200 240 286 356
#     4   9  17  32  56  84 115 153 195 237 288 353
#
# _framework density 21.058205000000001
#
# number of rings (size 3 to 8) (size 9 to 14) (size 15 to 20)
#    0.000    2.000    0.000    7.286    0.000    4.000 
#    0.000    2.143    0.000    0.000    0.000    0.000 
#    0.000    0.000    0.000    0.000    0.000    0.000 
#
# Total GULP energy -156151.746374 kJ/mol
# GULP energy per Si atom -5576.848085 kJ/mol
# Density = 2.101028 g / cm^3
# Si number density = 21.058205 Si / 1000 Ang^3
#
#
#
# Elastic Constant Matrix: (Units=GPa)
#
#
# Indices 1 2 3 4 5 6 
#
# 1 76.3870 26.8079 5.5085 0.0006 -12.8092 -0.0008
# 2 26.8079 69.4874 7.1002 0.0003 -13.0456 -0.0005
# 3 5.5085 7.1002 55.2141 -0.0007 -3.1131 -0.0004
# 4 0.0006 0.0003 -0.0007 6.6548 -0.0003 9.0366
# 5 -12.8092 -13.0456 -3.1131 -0.0003 42.3112 0.0006
# 6 -0.0008 -0.0005 -0.0004 9.0366 0.0006 6.8093
#
#
#
# Elastic Compliance Matrix: (Units=1/GPa)
#
#
# Indices 1 2 3 4 5 6 
#
# 1 0.015523 -0.005355 -0.000691 0.000003 0.002997 -0.000003
# 2 -0.005355 0.017285 -0.001486 0.000001 0.003599 -0.000001
# 3 -0.000691 -0.001486 0.018410 -0.000001 0.000687 0.000002
# 4 0.000003 0.000001 -0.000001 -0.187341 -0.000004 0.248622
# 5 0.002997 0.003599 0.000687 -0.000004 0.025702 0.000004
# 6 -0.000003 -0.000001 0.000002 0.248622 0.000004 -0.183091
#
#
# Mechanical properties :
#
#
# Convention : Reuss Voigt Hill
#
# Bulk Modulus (GPa) = 27.65951 31.10242 29.38097
# Shear Modulus (GPa) = -18.76901 21.93318 1.58208
#
# Velocity S-wave (km/s) = -2.98869 3.23081 0.86771
# Velocity P-wave (km/s) = 1.11965 5.35904 3.87123
#
# Compressibility (1/GPa) = 0.03615392
#
# Stress axis : x y z
#
# Youngs Moduli (GPa) = 64.41987 57.85494 54.31820
#
# Poissons Ratio (x) = 0.30984 0.03753
# Poissons Ratio (y) = 0.34500 0.08069
# Poissons Ratio (z) = 0.04452 0.08594
#
# Static dielectric constant tensor:
#      x y z
#    x 1.923150 0.000000 -0.011670 
#    y 0.000000 1.796480 0.000000 
#    z -0.011670 0.000000 1.756720 
# 
# From -- ./inp_files/289395.got.cif
#   From: 2010.05.17/outbox.cif.g08.bks.cpg/sg15_145_cif.got.tgz:289395.got - 2010.06.03 18:47:42.
