data_PCOD9264348
_publ_section_title
;
Structure prediction by ZEFSAII (Michael W. Deem and Ramdas Pophale) SiO2 
 PCOD9264348
Probable space group: C 2/C
;
_chemical_formula_sum "Si O2"
_cell_formula_units_Z 56
_cell_length_a 10.053448
_cell_length_b 29.128290
_cell_length_c 10.513520
_cell_angle_alpha 90.000000
_cell_angle_beta 65.391065
_cell_angle_gamma 90.000000
_cell_volume 2799.134918
_symmetry_space_group_name_H-M "C 2/C"
_symmetry_group_IT_number 15
_symmetry_cell_setting 'monoclinic'
loop_
_space_group_symop_operation_xyz
x,y,z
-x,y,1/2-z
-x,-y,-z
x,-y,1/2+z
1/2+x,1/2+y,z
1/2-x,1/2+y,1/2-z
1/2-x,1/2-y,-z
1/2+x,1/2-y,1/2+z
loop_
_atom_site_type_symbol
_atom_site_label
_atom_site_fract_x
_atom_site_fract_y
_atom_site_fract_z
Si Si1 0.971730 0.406659 0.912883
Si Si2 0.950528 0.209710 0.997527
Si Si3 0.793591 0.097190 0.376536
Si Si4 0.500000 0.321380 0.750000
Si Si5 0.673840 0.563462 0.598337
Si Si6 0.577598 0.614680 0.896051
Si Si7 0.000000 0.979748 0.750000
Si Si8 0.106899 0.308002 0.588826
O O1 0.908821 0.356354 0.975604
O O2 0.000000 0.410445 0.750000
O O3 0.123862 0.410109 0.924529
O O4 0.843490 0.441218 0.002696
O O5 0.778041 0.197958 0.052226
O O6 0.000069 0.207605 0.123311
O O7 0.956060 0.261751 0.948230
O O8 0.052015 0.169807 0.892596
O O9 0.842028 0.100296 0.505822
O O10 0.873483 0.056362 0.267834
O O11 0.859689 0.144840 0.297409
O O12 0.647855 0.588769 0.746117
O O13 0.588654 0.595809 0.533532
O O14 0.586433 0.515480 0.626714
O O15 0.000000 0.314356 0.750000
#
# Coordination Sequence:
#
# PCOD9264348 Si02
#       8
#     8   8   8   4   8   8   4   8
#     4  11  23  40  58  89 124 156 189 249 302 346
#     4  10  19  35  58  83 114 159 204 242 280 353
#     4  10  21  38  63  86 119 155 195 241 300 354
#     4   9  18  36  58  84 116 156 200 240 286 345
#     4  10  22  39  63  88 118 149 200 248 291 353
#     4   9  20  38  62  87 115 159 196 242 287 350
#     4   9  22  40  66  92 108 154 208 234 292 363
#     4  10  21  33  56  84 115 156 203 242 288 347
#
# _framework density 20.006180000000001
#
# number of rings (size 3 to 8) (size 9 to 14) (size 15 to 20)
#    0.000    2.286    1.429    1.714    6.000    3.429 
#    0.000    7.857    0.000    0.000    0.000    0.000 
#    0.000    0.000    0.000    0.000    0.000    0.000 
#
# Total GULP energy -155919.310442 kJ/mol
# GULP energy per Si atom -5568.546802 kJ/mol
# Density = 1.996065 g / cm^3
# Si number density = 20.006180 Si / 1000 Ang^3
#
#
#
# Elastic Constant Matrix: (Units=GPa)
#
#
# Indices 1 2 3 4 5 6 
#
# 1 123.0539 16.8964 32.0665 0.0000 -8.2659 0.0000
# 2 16.8964 74.5446 15.2379 0.0000 1.3285 0.0000
# 3 32.0665 15.2379 64.4944 0.0000 2.6649 0.0000
# 4 0.0000 0.0000 0.0000 14.4637 0.0000 -6.4766
# 5 -8.2659 1.3285 2.6649 0.0000 36.3089 0.0000
# 6 0.0000 0.0000 0.0000 -6.4766 0.0000 -5.0969
#
#
#
# Elastic Compliance Matrix: (Units=1/GPa)
#
#
# Indices 1 2 3 4 5 6 
#
# 1 0.009681 -0.001297 -0.004614 0.000000 0.002590 0.000000
# 2 -0.001297 0.014272 -0.002701 0.000000 -0.000619 0.000000
# 3 -0.004614 -0.002701 0.018533 0.000000 -0.002312 0.000000
# 4 0.000000 0.000000 0.000000 0.044066 0.000000 -0.055994
# 5 0.002590 -0.000619 -0.002312 0.000000 0.028323 0.000000
# 6 0.000000 0.000000 0.000000 -0.055994 0.000000 -0.125047
#
#
# Mechanical properties :
#
#
# Convention : Reuss Voigt Hill
#
# Bulk Modulus (GPa) = 39.58694 43.38828 41.48761
# Shear Modulus (GPa) = 323.12415 22.32794 172.72605
#
# Velocity S-wave (km/s) = 12.72253 3.34436 9.30182
# Velocity P-wave (km/s) = 15.35081 6.05372 11.66822
#
# Compressibility (1/GPa) = 0.02526086
#
# Stress axis : x y z
#
# Youngs Moduli (GPa) = 103.29562 70.06686 53.95784
#
# Poissons Ratio (x) = 0.09090 0.24895
# Poissons Ratio (y) = 0.13401 0.14576
# Poissons Ratio (z) = 0.47659 0.18928
#
# Static dielectric constant tensor:
#      x y z
#    x 1.700220 0.000000 -0.020460 
#    y 0.000000 1.762230 0.000000 
#    z -0.020460 0.000000 1.757150 
# 
# From -- ./inp_files/81296.got.cif
#   From: 2010.05.17/outbox.cif.g08.bks.cpg/sg15_41_cif.got.tgz:81296.got - 2010.06.03 18:47:42.
