data_PCOD9264070
_publ_section_title
;
Structure prediction by ZEFSAII (Michael W. Deem and Ramdas Pophale) SiO2 
 PCOD9264070
Probable space group: C 2/C
;
_chemical_formula_sum "Si O2"
_cell_formula_units_Z 56
_cell_length_a 5.358745
_cell_length_b 24.371492
_cell_length_c 28.436228
_cell_angle_alpha 90.000000
_cell_angle_beta 50.762559
_cell_angle_gamma 90.000000
_cell_volume 2876.445671
_symmetry_space_group_name_H-M "C 2/C"
_symmetry_group_IT_number 15
_symmetry_cell_setting 'monoclinic'
loop_
_space_group_symop_operation_xyz
x,y,z
-x,y,1/2-z
-x,-y,-z
x,-y,1/2+z
1/2+x,1/2+y,z
1/2-x,1/2+y,1/2-z
1/2-x,1/2-y,-z
1/2+x,1/2-y,1/2+z
loop_
_atom_site_type_symbol
_atom_site_label
_atom_site_fract_x
_atom_site_fract_y
_atom_site_fract_z
Si Si1 0.239905 0.817873 0.817885
Si Si2 0.684008 0.225221 0.093039
Si Si3 0.376092 0.622520 0.601275
Si Si4 0.544724 0.790663 0.189059
Si Si5 0.572365 0.829618 0.043395
Si Si6 0.716507 0.534860 0.509612
Si Si7 0.898368 0.642304 0.064115
O O1 0.500000 0.840355 0.750000
O O2 0.359679 0.813734 0.856839
O O3 0.183737 0.753811 0.809132
O O4 0.903195 0.850618 0.864265
O O5 0.383582 0.265805 0.132793
O O6 0.986857 0.265651 0.060007
O O7 0.639661 0.190892 0.051110
O O8 0.084299 0.646077 0.668185
O O9 0.721748 0.640887 0.581531
O O10 0.462717 0.560201 0.577554
O O11 0.273673 0.648727 0.563227
O O12 0.500000 0.787033 0.250000
O O13 0.719436 0.844638 0.975000
O O14 0.500000 0.500000 0.500000
O O15 0.000000 0.500000 0.500000
O O16 0.905560 0.585663 0.461862
#
# Coordination Sequence:
#
# PCOD9264070 Si02
#       7
#     8   8   8   8   8   8   8
#     4  11  21  35  57  86 127 169 204 229 286 372
#     4  10  20  33  55  85 131 161 197 232 290 375
#     4  10  21  37  61  91 117 157 200 249 308 369
#     4  10  19  35  54  89 126 166 199 233 285 362
#     4  10  20  36  55  90 129 156 191 236 302 372
#     4  11  24  44  65  87 116 153 208 275 333 371
#     4  10  24  35  58  89 119 162 204 254 314 371
#
# _framework density 19.468471999999998
#
# number of rings (size 3 to 8) (size 9 to 14) (size 15 to 20)
#    0.000    1.714    2.857    2.143    6.000    1.714 
#    0.000    0.000    0.000    0.857    0.000    0.000 
#    0.000    0.000    0.000    0.000    0.000    0.000 
#
# Total GULP energy -155922.456550 kJ/mol
# GULP energy per Si atom -5568.659163 kJ/mol
# Density = 1.942416 g / cm^3
# Si number density = 19.468472 Si / 1000 Ang^3
#
#
#
# Elastic Constant Matrix: (Units=GPa)
#
#
# Indices 1 2 3 4 5 6 
#
# 1 82.0203 18.3266 10.3489 0.0000 7.9960 0.0000
# 2 18.3266 84.1989 15.0417 0.0000 -2.2567 0.0000
# 3 10.3489 15.0417 72.2515 0.0000 3.1674 0.0000
# 4 0.0000 0.0000 0.0000 22.7981 0.0000 3.3539
# 5 7.9960 -2.2567 3.1674 0.0000 28.9057 0.0000
# 6 0.0000 0.0000 0.0000 3.3539 0.0000 32.3074
#
#
#
# Elastic Compliance Matrix: (Units=1/GPa)
#
#
# Indices 1 2 3 4 5 6 
#
# 1 0.013332 -0.002795 -0.001162 0.000000 -0.003779 0.000000
# 2 -0.002795 0.012967 -0.002389 0.000000 0.002047 0.000000
# 3 -0.001162 -0.002389 0.014568 0.000000 -0.001461 0.000000
# 4 0.000000 0.000000 0.000000 0.044544 0.000000 -0.004624
# 5 -0.003779 0.002047 -0.001461 0.000000 0.035961 0.000000
# 6 0.000000 0.000000 0.000000 -0.004624 0.000000 0.031433
#
#
# Mechanical properties :
#
#
# Convention : Reuss Voigt Hill
#
# Bulk Modulus (GPa) = 35.49328 36.21169 35.85249
# Shear Modulus (GPa) = 28.58980 29.78581 29.18781
#
# Velocity S-wave (km/s) = 3.83628 3.91570 3.87620
# Velocity P-wave (km/s) = 6.15577 6.25173 6.20394
#
# Compressibility (1/GPa) = 0.02817434
#
# Stress axis : x y z
#
# Youngs Moduli (GPa) = 75.00909 77.12051 68.64188
#
# Poissons Ratio (x) = 0.21559 0.07976
# Poissons Ratio (y) = 0.20969 0.16397
# Poissons Ratio (z) = 0.08716 0.18423
#
# Static dielectric constant tensor:
#      x y z
#    x 1.378530 0.000000 0.786240 
#    y 0.000000 1.732830 0.000000 
#    z 0.786240 0.000000 -0.195990 
# 
# From -- ./inp_files/228346.got.cif
#   From: 2010.05.17/outbox.cif.g08.bks.cpg/sg15_115_cif.got.tgz:228346.got - 2010.06.03 18:47:42.
