data_PCOD9264244
_publ_section_title
;
Structure prediction by ZEFSAII (Michael W. Deem and Ramdas Pophale) SiO2 
 PCOD9264244
Probable space group: C 2/C
;
_chemical_formula_sum "Si O2"
_cell_formula_units_Z 56
_cell_length_a 22.821644
_cell_length_b 9.977458
_cell_length_c 15.029951
_cell_angle_alpha 90.000000
_cell_angle_beta 112.686385
_cell_angle_gamma 90.000000
_cell_volume 3157.561810
_symmetry_space_group_name_H-M "C 2/C"
_symmetry_group_IT_number 15
_symmetry_cell_setting 'monoclinic'
loop_
_space_group_symop_operation_xyz
x,y,z
-x,y,1/2-z
-x,-y,-z
x,-y,1/2+z
1/2+x,1/2+y,z
1/2-x,1/2+y,1/2-z
1/2-x,1/2-y,-z
1/2+x,1/2-y,1/2+z
loop_
_atom_site_type_symbol
_atom_site_label
_atom_site_fract_x
_atom_site_fract_y
_atom_site_fract_z
Si Si1 0.867833 0.503013 0.551939
Si Si2 0.169187 0.464041 0.266461
Si Si3 0.688180 0.572607 0.712571
Si Si4 0.475014 0.145937 0.021383
Si Si5 0.130721 0.794710 0.649967
Si Si6 0.735240 0.822408 0.083059
Si Si7 0.387294 0.183031 0.403259
O O1 0.851464 0.506325 0.645561
O O2 0.924420 0.396766 0.566762
O O3 0.804583 0.453835 0.464902
O O4 0.886788 0.634262 0.505928
O O5 0.244308 0.471295 0.290633
O O6 0.147838 0.312052 0.235714
O O7 0.135810 0.561590 0.174759
O O8 0.640602 0.446533 0.686709
O O9 0.706822 0.635450 0.819643
O O10 0.658067 0.692001 0.638311
O O11 0.540792 0.216360 0.083684
O O12 0.434977 0.239725 0.930547
O O13 0.500000 0.000000 0.000000
O O14 0.186024 0.767981 0.609639
O O15 0.750000 0.750000 0.000000
#
# Coordination Sequence:
#
# PCOD9264244 Si02
#       7
#     8   8   8   8   8   8   8
#     4  10  20  35  60  86 107 152 199 239 280 348
#     4  11  20  37  61  86 116 152 193 241 296 342
#     4  11  22  35  57  86 127 147 188 243 307 350
#     4   9  18  39  59  81 112 147 202 235 279 348
#     4  10  20  37  56  83 118 153 185 249 292 344
#     4  10  19  35  57  82 119 155 194 233 297 353
#     4  11  21  39  57  87 114 156 194 241 285 360
#
# _framework density 17.735202999999998
#
# number of rings (size 3 to 8) (size 9 to 14) (size 15 to 20)
#    0.000    1.714    5.714    3.429    0.000    1.714 
#    2.571    0.000    0.000    0.000   22.286    0.000 
#    0.000    0.000    0.000    0.000    0.000    0.000 
#
# Total GULP energy -155925.472796 kJ/mol
# GULP energy per Si atom -5568.766886 kJ/mol
# Density = 1.769484 g / cm^3
# Si number density = 17.735203 Si / 1000 Ang^3
#
#
#
# Elastic Constant Matrix: (Units=GPa)
#
#
# Indices 1 2 3 4 5 6 
#
# 1 72.1276 23.5676 46.8987 0.0000 18.6168 0.0000
# 2 23.5676 59.0822 20.5040 0.0000 7.7881 0.0000
# 3 46.8987 20.5040 80.4965 0.0000 -4.4074 0.0000
# 4 0.0000 0.0000 0.0000 22.7448 0.0000 -1.0288
# 5 18.6168 7.7881 -4.4074 0.0000 27.3708 0.0000
# 6 0.0000 0.0000 0.0000 -1.0288 0.0000 12.5511
#
#
#
# Elastic Compliance Matrix: (Units=1/GPa)
#
#
# Indices 1 2 3 4 5 6 
#
# 1 0.035927 -0.003290 -0.021571 0.000000 -0.026974 0.000000
# 2 -0.003290 0.019935 -0.003379 0.000000 -0.003979 0.000000
# 3 -0.021571 -0.003379 0.026945 0.000000 0.019972 0.000000
# 4 0.000000 0.000000 0.000000 0.044130 0.000000 0.003617
# 5 -0.026974 -0.003979 0.019972 0.000000 0.059230 0.000000
# 6 0.000000 0.000000 0.000000 0.003617 0.000000 0.079971
#
#
# Mechanical properties :
#
#
# Convention : Reuss Voigt Hill
#
# Bulk Modulus (GPa) = 37.98259 43.73855 40.86057
# Shear Modulus (GPa) = 15.08784 20.58239 17.83512
#
# Velocity S-wave (km/s) = 2.91989 3.41036 3.17461
# Velocity P-wave (km/s) = 5.72980 6.34216 6.04374
#
# Compressibility (1/GPa) = 0.02632785
#
# Stress axis : x y z
#
# Youngs Moduli (GPa) = 27.83413 50.16309 37.11305
#
# Poissons Ratio (x) = 0.16501 0.80056
# Poissons Ratio (y) = 0.09156 0.12541
# Poissons Ratio (z) = 0.60040 0.16951
#
# Static dielectric constant tensor:
#      x y z
#    x 1.638660 0.000000 0.007250 
#    y 0.000000 1.628950 0.000000 
#    z 0.007250 0.000000 1.624760 
# 
# From -- ./inp_files/171970.got.cif
#   From: 2010.05.17/outbox.cif.g08.bks.cpg/sg15_86_cif.got.tgz:171970.got - 2010.06.03 18:47:42.
