data_PCOD9264871
_publ_section_title
;
Structure prediction by ZEFSAII (Michael W. Deem and Ramdas Pophale) SiO2 
 PCOD9264871
Probable space group: C 2/C
;
_chemical_formula_sum "Si O2"
_cell_formula_units_Z 64
_cell_length_a 25.457613
_cell_length_b 8.865981
_cell_length_c 14.924476
_cell_angle_alpha 90.000000
_cell_angle_beta 110.625620
_cell_angle_gamma 90.000000
_cell_volume 3152.637210
_symmetry_space_group_name_H-M "C 2/C"
_symmetry_group_IT_number 15
_symmetry_cell_setting 'monoclinic'
loop_
_space_group_symop_operation_xyz
x,y,z
-x,y,1/2-z
-x,-y,-z
x,-y,1/2+z
1/2+x,1/2+y,z
1/2-x,1/2+y,1/2-z
1/2-x,1/2-y,-z
1/2+x,1/2-y,1/2+z
loop_
_atom_site_type_symbol
_atom_site_label
_atom_site_fract_x
_atom_site_fract_y
_atom_site_fract_z
Si Si1 0.442745 0.114161 0.962501
Si Si2 0.434269 0.642901 0.180128
Si Si3 0.894403 0.552172 0.742614
Si Si4 0.358943 0.123990 0.058639
Si Si5 0.948318 0.273224 0.995123
Si Si6 0.837500 0.693506 0.315161
Si Si7 0.266734 0.883611 0.944855
Si Si8 0.338761 0.587791 0.655781
O O1 0.434967 0.075968 0.852945
O O2 0.488706 0.244866 0.003726
O O3 0.386066 0.158400 0.978730
O O4 0.453593 0.953591 0.018294
O O5 0.500000 0.643180 0.250000
O O6 0.398947 0.782243 0.202134
O O7 0.435471 0.676645 0.074533
O O8 0.399345 0.493805 0.184694
O O9 0.901808 0.439248 0.661897
O O10 0.843372 0.463743 0.762479
O O11 0.335304 0.278862 0.081663
O O12 0.312552 0.994701 0.017429
O O13 0.898213 0.268410 0.894988
O O14 0.794765 0.675122 0.370293
O O15 0.826692 0.829331 0.241837
O O16 0.209905 0.970323 0.890385
O O17 0.250000 0.750000 0.000000
#
# Coordination Sequence:
#
# PCOD9264871 Si02
#       8
#     8   8   8   8   8   8   8   8
#     4  10  19  35  67 101 127 170 225 270 327 397
#     4  12  23  42  63  97 137 178 219 271 330 398
#     4  10  19  38  67  97 124 174 220 272 328 391
#     4  11  22  44  69  98 138 169 220 282 334 403
#     4  10  19  38  64  97 131 171 221 272 330 389
#     4  10  23  44  65  94 132 167 224 283 333 404
#     4  12  24  47  72  95 127 175 221 282 336 399
#     4  11  28  43  65 100 133 176 221 271 345 397
#
# _framework density 20.300464999999999
#
# number of rings (size 3 to 8) (size 9 to 14) (size 15 to 20)
#    0.000    1.250    5.000    1.875    0.000    4.000 
#    4.500    3.750    0.000    0.000    0.000    0.000 
#    0.000    0.000    0.000    0.000    0.000    0.000 
#
# Total GULP energy -178226.628473 kJ/mol
# GULP energy per Si atom -5569.582140 kJ/mol
# Density = 2.025426 g / cm^3
# Si number density = 20.300465 Si / 1000 Ang^3
#
#
#
# Elastic Constant Matrix: (Units=GPa)
#
#
# Indices 1 2 3 4 5 6 
#
# 1 91.8231 63.2095 43.3761 0.0000 1.4207 0.0000
# 2 63.2095 107.7936 39.0460 0.0000 -8.0881 0.0000
# 3 43.3761 39.0460 77.4662 0.0000 0.9971 0.0000
# 4 0.0000 0.0000 0.0000 29.6192 0.0000 -2.5875
# 5 1.4207 -8.0881 0.9971 0.0000 20.1955 0.0000
# 6 0.0000 0.0000 0.0000 -2.5875 0.0000 19.3332
#
#
#
# Elastic Compliance Matrix: (Units=1/GPa)
#
#
# Indices 1 2 3 4 5 6 
#
# 1 0.021324 -0.010532 -0.006562 0.000000 -0.005394 0.000000
# 2 -0.010532 0.017042 -0.002792 0.000000 0.007704 0.000000
# 3 -0.006562 -0.002792 0.018010 0.000000 -0.001546 0.000000
# 4 0.000000 0.000000 0.000000 0.034161 0.000000 0.004572
# 5 -0.005394 0.007704 -0.001546 0.000000 0.053057 0.000000
# 6 0.000000 0.000000 0.000000 0.004572 0.000000 0.052336
#
#
# Mechanical properties :
#
#
# Convention : Reuss Voigt Hill
#
# Bulk Modulus (GPa) = 60.22430 63.14959 61.68695
# Shear Modulus (GPa) = 20.72644 22.59298 21.65971
#
# Velocity S-wave (km/s) = 3.19875 3.33968 3.26997
# Velocity P-wave (km/s) = 6.58586 6.78574 6.68655
#
# Compressibility (1/GPa) = 0.01660459
#
# Stress axis : x y z
#
# Youngs Moduli (GPa) = 46.89603 58.67786 55.52375
#
# Poissons Ratio (x) = 0.61799 0.36435
# Poissons Ratio (y) = 0.49390 0.15502
# Poissons Ratio (z) = 0.30773 0.16382
#
# Static dielectric constant tensor:
#      x y z
#    x 1.859350 0.000000 0.023310 
#    y 0.000000 1.722040 0.000000 
#    z 0.023310 0.000000 1.727470 
# 
# From -- ./inp_files/176628.got.cif
#   From: 2010.05.17/outbox.cif.g08.bks.cpg/sg15_89_cif.got.tgz:176628.got - 2010.06.03 18:47:42.
