data_PCOD9264560
_publ_section_title
;
Structure prediction by ZEFSAII (Michael W. Deem and Ramdas Pophale) SiO2 
 PCOD9264560
Probable space group: C 2/C
;
_chemical_formula_sum "Si O2"
_cell_formula_units_Z 44
_cell_length_a 16.051256
_cell_length_b 10.150709
_cell_length_c 16.154940
_cell_angle_alpha 90.000000
_cell_angle_beta 48.531666
_cell_angle_gamma 90.000000
_cell_volume 1972.327944
_symmetry_space_group_name_H-M "C 2/C"
_symmetry_group_IT_number 15
_symmetry_cell_setting 'monoclinic'
loop_
_space_group_symop_operation_xyz
x,y,z
-x,y,1/2-z
-x,-y,-z
x,-y,1/2+z
1/2+x,1/2+y,z
1/2-x,1/2+y,1/2-z
1/2-x,1/2-y,-z
1/2+x,1/2-y,1/2+z
loop_
_atom_site_type_symbol
_atom_site_label
_atom_site_fract_x
_atom_site_fract_y
_atom_site_fract_z
Si Si1 0.500000 0.776027 0.750000
Si Si2 0.942328 0.857231 0.536625
Si Si3 0.928652 0.617288 0.134000
Si Si4 0.146178 0.446175 0.979609
Si Si5 0.339192 0.575111 0.948565
Si Si6 0.459141 0.292370 0.867355
O O1 0.574151 0.856881 0.766729
O O2 0.413086 0.683611 0.854601
O O3 0.022559 0.751760 0.438535
O O4 0.837030 0.878779 0.545993
O O5 0.940208 0.805215 0.632008
O O6 0.000000 0.000000 0.500000
O O7 0.023934 0.507561 0.065740
O O8 0.832292 0.574223 0.133058
O O9 0.132176 0.307859 0.035814
O O10 0.226782 0.545242 0.973880
O O11 0.404629 0.436501 0.898606
O O12 0.500000 0.251615 0.750000
#
# Coordination Sequence:
#
# PCOD9264560 Si02
#       6
#     4   8   8   8   8   8
#     4  10  20  36  64  84 118 156 206 244 288 348
#     4   8  17  33  58  80 110 154 189 233 299 342
#     4   9  20  38  57  80 119 158 188 245 296 353
#     4  10  21  37  59  85 123 155 192 239 311 353
#     4  10  19  37  61  86 115 155 197 243 292 359
#     4  10  19  35  60  85 116 154 198 243 289 354
#
# _framework density 22.308662999999999
#
# number of rings (size 3 to 8) (size 9 to 14) (size 15 to 20)
#    0.000    2.545    0.909    0.545    1.273    2.909 
#    0.000    7.273    0.000    0.000    0.000    0.000 
#    0.000    0.000    0.000    0.000    0.000    0.000 
#
# Total GULP energy -122610.775119 kJ/mol
# GULP energy per Si atom -5573.217051 kJ/mol
# Density = 2.225789 g / cm^3
# Si number density = 22.308663 Si / 1000 Ang^3
#
#
#
# Elastic Constant Matrix: (Units=GPa)
#
#
# Indices 1 2 3 4 5 6 
#
# 1 159.4780 13.4409 59.0491 0.0000 47.2434 0.0000
# 2 13.4409 58.2122 3.9223 0.0000 9.2761 0.0000
# 3 59.0491 3.9223 63.2210 0.0000 40.0708 0.0000
# 4 0.0000 0.0000 0.0000 37.3082 0.0000 2.6367
# 5 47.2434 9.2761 40.0708 0.0000 40.2590 0.0000
# 6 0.0000 0.0000 0.0000 2.6367 0.0000 32.9100
#
#
#
# Elastic Compliance Matrix: (Units=1/GPa)
#
#
# Indices 1 2 3 4 5 6 
#
# 1 0.010274 -0.000991 -0.005520 0.000000 -0.006334 0.000000
# 2 -0.000991 0.018322 0.004680 0.000000 -0.007716 0.000000
# 3 -0.005520 0.004680 0.046759 0.000000 -0.041141 0.000000
# 4 0.000000 0.000000 0.000000 0.026956 0.000000 -0.002160
# 5 -0.006334 -0.007716 -0.041141 0.000000 0.074999 0.000000
# 6 0.000000 0.000000 0.000000 -0.002160 0.000000 0.030559
#
#
# Mechanical properties :
#
#
# Convention : Reuss Voigt Hill
#
# Bulk Modulus (GPa) = 13.94852 48.19289 31.07071
# Shear Modulus (GPa) = 21.23779 35.72869 28.48324
#
# Velocity S-wave (km/s) = 3.08879 4.00629 3.57708
# Velocity P-wave (km/s) = 4.35740 6.56126 5.56943
#
# Compressibility (1/GPa) = 0.07169218
#
# Stress axis : x y z
#
# Youngs Moduli (GPa) = 97.33046 54.58026 21.38619
#
# Poissons Ratio (x) = 0.05409 0.11806
# Poissons Ratio (y) = 0.09646 -0.10008
# Poissons Ratio (z) = 0.53728 -0.25542
#
# Static dielectric constant tensor:
#      x y z
#    x 1.921940 0.000000 0.067220 
#    y 0.000000 1.851760 0.000000 
#    z 0.067220 0.000000 1.883990 
# 
# From -- ./inp_files/151743.got.cif
#   From: 2010.05.17/outbox.cif.g08.bks.cpg/sg15_76_cif.got.tgz:151743.got - 2010.06.03 18:47:42.
