data_PCOD9264097
_publ_section_title
;
Structure prediction by ZEFSAII (Michael W. Deem and Ramdas Pophale) SiO2 
 PCOD9264097
Probable space group: C 2/C
;
_chemical_formula_sum "Si O2"
_cell_formula_units_Z 64
_cell_length_a 30.932948
_cell_length_b 16.555409
_cell_length_c 21.492174
_cell_angle_alpha 90.000000
_cell_angle_beta 19.136620
_cell_angle_gamma 90.000000
_cell_volume 3608.106818
_symmetry_space_group_name_H-M "C 2/C"
_symmetry_group_IT_number 15
_symmetry_cell_setting 'monoclinic'
loop_
_space_group_symop_operation_xyz
x,y,z
-x,y,1/2-z
-x,-y,-z
x,-y,1/2+z
1/2+x,1/2+y,z
1/2-x,1/2+y,1/2-z
1/2-x,1/2-y,-z
1/2+x,1/2-y,1/2+z
loop_
_atom_site_type_symbol
_atom_site_label
_atom_site_fract_x
_atom_site_fract_y
_atom_site_fract_z
Si Si1 0.639602 0.072423 0.085399
Si Si2 0.527682 0.126801 0.498898
Si Si3 0.514187 0.296415 0.473887
Si Si4 0.307907 0.396987 0.678702
Si Si5 0.236515 0.746902 0.944799
Si Si6 0.143829 0.040795 0.808113
Si Si7 0.624683 0.585402 0.543348
Si Si8 0.113359 0.527552 0.265699
O O1 0.500000 0.039908 0.250000
O O2 0.635431 0.059853 0.165620
O O3 0.651965 0.166345 0.048614
O O4 0.769219 0.038149 0.873370
O O5 0.476284 0.218066 0.565054
O O6 0.674499 0.134070 0.328284
O O7 0.533352 0.087411 0.421353
O O8 0.451025 0.060593 0.643755
O O9 0.384190 0.338002 0.621881
O O10 0.617163 0.263328 0.282236
O O11 0.605110 0.367816 0.379715
O O12 0.280200 0.484039 0.746761
O O13 0.406104 0.408709 0.487277
O O14 0.250000 0.750000 0.000000
O O15 0.169688 0.826589 0.007621
O O16 0.000000 0.000000 0.000000
O O17 0.500000 0.557449 0.750000
O O18 0.745489 0.526339 0.392411
#
# Coordination Sequence:
#
# PCOD9264097 Si02
#       8
#     8   8   8   8   8   8   8   8
#     4  11  21  33  55  85 112 154 194 233 293 349
#     4  10  20  39  55  84 119 153 192 234 296 346
#     4  10  19  35  55  81 113 150 197 235 286 345
#     4  10  20  37  55  81 112 152 193 233 289 353
#     4  11  18  32  48  80 122 146 178 226 282 349
#     4   9  21  36  57  80 112 151 193 250 289 341
#     4  11  21  33  53  82 114 158 180 231 288 351
#     4  10  21  36  55  80 120 151 184 239 283 349
#
# _framework density 17.737832999999998
#
# number of rings (size 3 to 8) (size 9 to 14) (size 15 to 20)
#    0.000    1.750    3.750    1.875    3.500    1.000 
#    6.750    0.000    0.000    3.000    0.000    0.000 
#    0.000    0.000    0.000    0.000    0.000    0.000 
#
# Total GULP energy -178166.652062 kJ/mol
# GULP energy per Si atom -5567.707877 kJ/mol
# Density = 1.769746 g / cm^3
# Si number density = 17.737833 Si / 1000 Ang^3
#
#
#
# Elastic Constant Matrix: (Units=GPa)
#
#
# Indices 1 2 3 4 5 6 
#
# 1 56.4593 17.7779 1.3523 -0.0001 0.3234 0.0000
# 2 17.7779 79.2913 18.0638 -0.0001 -2.2407 0.0000
# 3 1.3523 18.0638 65.8520 -0.0002 0.9873 0.0001
# 4 -0.0001 -0.0001 -0.0002 25.4899 0.0001 -0.9983
# 5 0.3234 -2.2407 0.9873 0.0001 21.9577 -0.0001
# 6 0.0000 0.0000 0.0001 -0.9983 -0.0001 19.6608
#
#
#
# Elastic Compliance Matrix: (Units=1/GPa)
#
#
# Indices 1 2 3 4 5 6 
#
# 1 0.019113 -0.004502 0.000854 0.000000 -0.000779 0.000000
# 2 -0.004502 0.014565 -0.003929 0.000000 0.001729 0.000000
# 3 0.000854 -0.003929 0.016263 0.000000 -0.001145 0.000000
# 4 0.000000 0.000000 0.000000 0.039309 0.000000 0.001996
# 5 -0.000779 0.001729 -0.001145 0.000000 0.045782 0.000000
# 6 0.000000 0.000000 0.000000 0.001996 0.000000 0.050964
#
#
# Mechanical properties :
#
#
# Convention : Reuss Voigt Hill
#
# Bulk Modulus (GPa) = 28.74555 30.66562 29.70558
# Shear Modulus (GPa) = 23.50223 24.38224 23.94223
#
# Velocity S-wave (km/s) = 3.64397 3.71157 3.67793
# Velocity P-wave (km/s) = 5.82629 5.97440 5.90081
#
# Compressibility (1/GPa) = 0.03478799
#
# Stress axis : x y z
#
# Youngs Moduli (GPa) = 52.31908 68.65756 61.48969
#
# Poissons Ratio (x) = 0.30910 -0.05252
# Poissons Ratio (y) = 0.23554 0.24158
# Poissons Ratio (z) = -0.04469 0.26974
#
# Static dielectric constant tensor:
#      x y z
#    x 1.630590 0.000000 -0.006380 
#    y 0.000000 1.660090 0.000000 
#    z -0.006380 0.000000 1.630070 
# 
# From -- ./inp_files/106427.got.cif
#   From: 2010.05.17/outbox.cif.g08.bks.cpg/sg15_54_cif.got.tgz:106427.got - 2010.06.03 18:47:42.
