data_PCOD9264832
_publ_section_title
;
Structure prediction by ZEFSAII (Michael W. Deem and Ramdas Pophale) SiO2 
 PCOD9264832
Probable space group: C 2/C
;
_chemical_formula_sum "Si O2"
_cell_formula_units_Z 56
_cell_length_a 20.744418
_cell_length_b 21.090182
_cell_length_c 7.767191
_cell_angle_alpha 90.000000
_cell_angle_beta 49.126595
_cell_angle_gamma 90.000000
_cell_volume 2569.553805
_symmetry_space_group_name_H-M "C 2/C"
_symmetry_group_IT_number 15
_symmetry_cell_setting 'monoclinic'
loop_
_space_group_symop_operation_xyz
x,y,z
-x,y,1/2-z
-x,-y,-z
x,-y,1/2+z
1/2+x,1/2+y,z
1/2-x,1/2+y,1/2-z
1/2-x,1/2-y,-z
1/2+x,1/2-y,1/2+z
loop_
_atom_site_type_symbol
_atom_site_label
_atom_site_fract_x
_atom_site_fract_y
_atom_site_fract_z
Si Si1 0.231415 0.915427 0.185948
Si Si2 0.757920 0.557253 0.238653
Si Si3 0.616084 0.345697 0.910047
Si Si4 0.822539 0.742568 0.223185
Si Si5 0.182833 0.701950 0.775746
Si Si6 0.437420 0.353022 0.105688
Si Si7 0.900025 0.632832 0.900135
O O1 0.295361 0.860604 0.143517
O O2 0.132488 0.893454 0.374116
O O3 0.236097 0.983824 0.262994
O O4 0.250173 0.925164 0.951883
O O5 0.697174 0.608035 0.241613
O O6 0.851810 0.566462 0.995711
O O7 0.635513 0.270117 0.892347
O O8 0.538737 0.358150 0.913146
O O9 0.584298 0.364810 0.155990
O O10 0.750000 0.750000 0.500000
O O11 0.779635 0.769612 0.122416
O O12 0.905551 0.782184 0.123783
O O13 0.854378 0.672872 0.131667
O O14 0.129055 0.670128 0.718765
O O15 0.000000 0.630225 0.750000
#
# Coordination Sequence:
#
# PCOD9264832 Si02
#       7
#     8   8   8   8   8   8   8
#     4  10  23  42  67  91 130 174 230 267 341 409
#     4  11  23  43  64  88 127 181 219 280 338 411
#     4  10  19  35  64  93 132 166 217 265 340 388
#     4  11  19  38  62  93 133 176 219 263 336 401
#     4  11  21  39  64  96 128 172 214 279 337 403
#     4   9  19  34  60  98 128 166 217 266 313 409
#     4  12  25  40  63  97 133 169 226 287 337 398
#
# _framework density 21.793668
#
# number of rings (size 3 to 8) (size 9 to 14) (size 15 to 20)
#    0.000    1.429    2.857    3.857    0.000    0.571 
#    0.000    2.857    0.000    0.000    0.000    0.000 
#    0.000    0.000    0.000    0.000    0.000    0.000 
#
# Total GULP energy -155922.854859 kJ/mol
# GULP energy per Si atom -5568.673388 kJ/mol
# Density = 2.174407 g / cm^3
# Si number density = 21.793668 Si / 1000 Ang^3
#
#
#
# Elastic Constant Matrix: (Units=GPa)
#
#
# Indices 1 2 3 4 5 6 
#
# 1 142.8010 56.6831 58.3130 0.0000 -23.9059 0.0000
# 2 56.6831 154.5167 35.3963 0.0000 -10.8550 0.0000
# 3 58.3130 35.3963 66.2011 0.0000 -17.3609 0.0000
# 4 0.0000 0.0000 0.0000 18.7181 0.0000 6.0774
# 5 -23.9059 -10.8550 -17.3609 0.0000 17.7240 0.0000
# 6 0.0000 0.0000 0.0000 6.0774 0.0000 24.4182
#
#
#
# Elastic Compliance Matrix: (Units=1/GPa)
#
#
# Indices 1 2 3 4 5 6 
#
# 1 0.012288 -0.002221 -0.007598 0.000000 0.007771 0.000000
# 2 -0.002221 0.007787 -0.002344 0.000000 -0.000523 0.000000
# 3 -0.007598 -0.002344 0.026897 0.000000 0.014661 0.000000
# 4 0.000000 0.000000 0.000000 0.058121 0.000000 -0.014466
# 5 0.007771 -0.000523 0.014661 0.000000 0.080943 0.000000
# 6 0.000000 0.000000 0.000000 -0.014466 0.000000 0.044553
#
#
# Mechanical properties :
#
#
# Convention : Reuss Voigt Hill
#
# Bulk Modulus (GPa) = 44.16117 73.81151 58.98634
# Shear Modulus (GPa) = 19.05017 26.38046 22.71532
#
# Velocity S-wave (km/s) = 2.95975 3.48295 3.23195
# Velocity P-wave (km/s) = 5.65575 7.07930 6.40718
#
# Compressibility (1/GPa) = 0.02264433
#
# Stress axis : x y z
#
# Youngs Moduli (GPa) = 81.37872 128.42124 37.17920
#
# Poissons Ratio (x) = 0.28526 0.28251
# Poissons Ratio (y) = 0.18076 0.08715
# Poissons Ratio (z) = 0.61835 0.30102
#
# Static dielectric constant tensor:
#      x y z
#    x 1.867460 0.000000 0.065880 
#    y 0.000000 1.817280 0.000000 
#    z 0.065880 0.000000 1.882410 
# 
# From -- ./inp_files/57781.got.cif
#   From: 2010.05.17/outbox.cif.g08.bks.cpg/sg15_29_cif.got.tgz:57781.got - 2010.06.03 18:47:42.
