data_PCOD9264202
_publ_section_title
;
Structure prediction by ZEFSAII (Michael W. Deem and Ramdas Pophale) SiO2 
 PCOD9264202
Probable space group: C 2/C
;
_chemical_formula_sum "Si O2"
_cell_formula_units_Z 36
_cell_length_a 12.215283
_cell_length_b 13.581653
_cell_length_c 10.393193
_cell_angle_alpha 90.000000
_cell_angle_beta 125.060711
_cell_angle_gamma 90.000000
_cell_volume 1411.390172
_symmetry_space_group_name_H-M "C 2/C"
_symmetry_group_IT_number 15
_symmetry_cell_setting 'monoclinic'
loop_
_space_group_symop_operation_xyz
x,y,z
-x,y,1/2-z
-x,-y,-z
x,-y,1/2+z
1/2+x,1/2+y,z
1/2-x,1/2+y,1/2-z
1/2-x,1/2-y,-z
1/2+x,1/2-y,1/2+z
loop_
_atom_site_type_symbol
_atom_site_label
_atom_site_fract_x
_atom_site_fract_y
_atom_site_fract_z
Si Si1 0.377923 0.274445 0.319748
Si Si2 0.500000 0.285152 0.750000
Si Si3 0.281383 0.051326 0.652690
Si Si4 0.935068 0.608814 0.539383
Si Si5 0.357371 0.655487 0.412986
O O1 0.307421 0.355377 0.366017
O O2 0.420071 0.163100 0.395564
O O3 0.523734 0.323740 0.405866
O O4 0.253623 0.241229 0.148422
O O5 0.412215 0.206625 0.612501
O O6 0.582335 0.336114 0.692748
O O7 0.323572 0.042981 0.530343
O O8 0.420350 0.062542 0.829550
O O9 0.200640 0.952679 0.620539
#
# Coordination Sequence:
#
# PCOD9264202 Si02
#       5
#     8   4   8   8   8
#     4  11  19  38  55  87 113 149 182 241 282 321
#     4   8  16  34  52  82 104 148 172 238 272 310
#     4  10  19  35  56  91 107 147 189 237 277 331
#     4   9  18  35  61  78 114 141 191 237 275 320
#     4  11  22  32  61  83 120 142 192 231 280 334
#
# _framework density 25.506767
#
# number of rings (size 3 to 8) (size 9 to 14) (size 15 to 20)
#    0.000    2.222    6.667    1.333    3.111    0.889 
#    0.000    0.000    0.000    8.000    0.000    0.000 
#    0.000    0.000    0.000    0.000    0.000    0.000 
#
# Total GULP energy -100238.770418 kJ/mol
# GULP energy per Si atom -5568.820579 kJ/mol
# Density = 2.544871 g / cm^3
# Si number density = 25.506767 Si / 1000 Ang^3
#
#
#
# Elastic Constant Matrix: (Units=GPa)
#
#
# Indices 1 2 3 4 5 6 
#
# 1 81.2313 71.2862 46.0098 0.0000 20.8858 0.0000
# 2 71.2862 134.8947 33.6589 0.0000 25.6243 0.0000
# 3 46.0098 33.6589 135.0758 0.0000 35.0568 0.0000
# 4 0.0000 0.0000 0.0000 21.6777 0.0000 21.0945
# 5 20.8858 25.6243 35.0568 0.0000 37.0760 0.0000
# 6 0.0000 0.0000 0.0000 21.0945 0.0000 41.2440
#
#
#
# Elastic Compliance Matrix: (Units=1/GPa)
#
#
# Indices 1 2 3 4 5 6 
#
# 1 0.026856 -0.012566 -0.005757 0.000000 -0.001001 0.000000
# 2 -0.012566 0.014477 0.001898 0.000000 -0.004722 0.000000
# 3 -0.005757 0.001898 0.011118 0.000000 -0.008582 0.000000
# 4 0.000000 0.000000 0.000000 0.091838 0.000000 -0.046971
# 5 -0.001001 -0.004722 -0.008582 0.000000 0.038913 0.000000
# 6 0.000000 0.000000 0.000000 -0.046971 0.000000 0.048270
#
#
# Mechanical properties :
#
#
# Convention : Reuss Voigt Hill
#
# Bulk Modulus (GPa) = 51.01376 72.56796 61.79086
# Shear Modulus (GPa) = 18.46009 33.34930 25.90470
#
# Velocity S-wave (km/s) = 2.69315 3.61982 3.19031
# Velocity P-wave (km/s) = 5.45108 6.78108 6.15212
#
# Compressibility (1/GPa) = 0.01960255
#
# Stress axis : x y z
#
# Youngs Moduli (GPa) = 37.23599 69.07556 89.94078
#
# Poissons Ratio (x) = 0.86798 0.51777
# Poissons Ratio (y) = 0.46789 -0.17072
# Poissons Ratio (z) = 0.21436 -0.13112
#
# Static dielectric constant tensor:
#      x y z
#    x 2.259130 0.000000 -0.216860 
#    y 0.000000 2.030530 0.000000 
#    z -0.216860 0.000000 2.297650 
# 
# From -- ./inp_files/203725.got.cif
#   From: 2010.05.17/outbox.cif.g08.bks.cpg/sg15_102_cif.got.tgz:203725.got - 2010.06.03 18:47:42.
