data_PCOD9264524
_publ_section_title
;
Structure prediction by ZEFSAII (Michael W. Deem and Ramdas Pophale) SiO2 
 PCOD9264524
Probable space group: C 2/C
;
_chemical_formula_sum "Si O2"
_cell_formula_units_Z 44
_cell_length_a 17.613572
_cell_length_b 8.839147
_cell_length_c 12.131388
_cell_angle_alpha 90.000000
_cell_angle_beta 64.356383
_cell_angle_gamma 90.000000
_cell_volume 1702.690161
_symmetry_space_group_name_H-M "C 2/C"
_symmetry_group_IT_number 15
_symmetry_cell_setting 'monoclinic'
loop_
_space_group_symop_operation_xyz
x,y,z
-x,y,1/2-z
-x,-y,-z
x,-y,1/2+z
1/2+x,1/2+y,z
1/2-x,1/2+y,1/2-z
1/2-x,1/2-y,-z
1/2+x,1/2-y,1/2+z
loop_
_atom_site_type_symbol
_atom_site_label
_atom_site_fract_x
_atom_site_fract_y
_atom_site_fract_z
Si Si1 0.236672 0.582913 0.903909
Si Si2 0.437235 0.750993 0.981207
Si Si3 0.377729 0.434548 0.953045
Si Si4 0.297243 0.230622 0.181779
Si Si5 0.896817 0.291252 0.252583
Si Si6 0.000000 0.437217 0.750000
O O1 0.287365 0.502222 0.969690
O O2 0.301516 0.695468 0.799905
O O3 0.204051 0.447686 0.842879
O O4 0.155315 0.678921 0.986315
O O5 0.432949 0.574625 0.957101
O O6 0.499181 0.837583 0.860462
O O7 0.446224 0.777436 0.106050
O O8 0.411984 0.345279 0.826781
O O9 0.360218 0.317119 0.061692
O O10 0.201651 0.277578 0.210269
O O11 0.921954 0.447418 0.293647
#
# Coordination Sequence:
#
# PCOD9264524 Si02
#       6
#     8   8   8   8   8   4
#     4  10  20  35  59  91 122 151 187 239 298 358
#     4  11  24  40  61  91 119 155 202 242 290 354
#     4  11  20  37  61  90 120 153 190 244 304 353
#     4  10  19  35  59  91 122 152 190 239 299 358
#     4  10  23  41  61  87 120 157 199 242 289 350
#     4  12  24  44  62  80 116 166 204 246 292 338
#
# _framework density 25.841462
#
# number of rings (size 3 to 8) (size 9 to 14) (size 15 to 20)
#    0.000    1.455    0.000    8.727    0.000    3.636 
#    0.000    7.273    0.000    0.000    0.000    0.000 
#    0.000    0.000    0.000    0.000    0.000    0.000 
#
# Total GULP energy -123370.902342 kJ/mol
# GULP energy per Si atom -5607.768288 kJ/mol
# Density = 2.578265 g / cm^3
# Si number density = 25.841462 Si / 1000 Ang^3
#
#
#
# Elastic Constant Matrix: (Units=GPa)
#
#
# Indices 1 2 3 4 5 6 
#
# 1 55.3835 11.4346 11.3206 0.0000 1.3419 0.0000
# 2 11.4346 192.5229 66.9631 0.0000 7.3499 0.0000
# 3 11.3206 66.9631 104.0268 0.0000 10.8950 0.0000
# 4 0.0000 0.0000 0.0000 58.6522 0.0000 10.6289
# 5 1.3419 7.3499 10.8950 0.0000 37.6029 0.0000
# 6 0.0000 0.0000 0.0000 10.6289 0.0000 17.7093
#
#
#
# Elastic Compliance Matrix: (Units=1/GPa)
#
#
# Indices 1 2 3 4 5 6 
#
# 1 0.018506 -0.000514 -0.001676 0.000000 -0.000075 0.000000
# 2 -0.000514 0.006707 -0.004255 0.000000 -0.000060 0.000000
# 3 -0.001676 -0.004255 0.012830 0.000000 -0.002826 0.000000
# 4 0.000000 0.000000 0.000000 0.019130 0.000000 -0.011482
# 5 -0.000075 -0.000060 -0.002826 0.000000 0.027427 0.000000
# 6 0.000000 0.000000 0.000000 -0.011482 0.000000 0.063359
#
#
# Mechanical properties :
#
#
# Convention : Reuss Voigt Hill
#
# Bulk Modulus (GPa) = 39.75351 59.04106 49.39729
# Shear Modulus (GPa) = 29.54506 40.27387 34.90947
#
# Velocity S-wave (km/s) = 3.38497 3.95206 3.67946
# Velocity P-wave (km/s) = 5.54025 6.61227 6.09986
#
# Compressibility (1/GPa) = 0.02515501
#
# Stress axis : x y z
#
# Youngs Moduli (GPa) = 54.03584 149.09761 77.94019
#
# Poissons Ratio (x) = 0.07656 0.13059
# Poissons Ratio (y) = 0.02775 0.33165
# Poissons Ratio (z) = 0.09054 0.63445
#
# Static dielectric constant tensor:
#      x y z
#    x 2.070020 0.000000 0.026010 
#    y 0.000000 1.955930 0.000000 
#    z 0.026010 0.000000 1.991450 
# 
# From -- ./inp_files/116696.got.cif
#   From: 2010.05.17/outbox.cif.g08.bks.cpg/sg15_59_cif.got.tgz:116696.got - 2010.06.03 18:47:42.
