data_PCOD9264777
_publ_section_title
;
Structure prediction by ZEFSAII (Michael W. Deem and Ramdas Pophale) SiO2 
 PCOD9264777
Probable space group: C 2/C
;
_chemical_formula_sum "Si O2"
_cell_formula_units_Z 56
_cell_length_a 8.237647
_cell_length_b 18.513126
_cell_length_c 15.999793
_cell_angle_alpha 90.000000
_cell_angle_beta 68.846907
_cell_angle_gamma 90.000000
_cell_volume 2275.630840
_symmetry_space_group_name_H-M "C 2/C"
_symmetry_group_IT_number 15
_symmetry_cell_setting 'monoclinic'
loop_
_space_group_symop_operation_xyz
x,y,z
-x,y,1/2-z
-x,-y,-z
x,-y,1/2+z
1/2+x,1/2+y,z
1/2-x,1/2+y,1/2-z
1/2-x,1/2-y,-z
1/2+x,1/2-y,1/2+z
loop_
_atom_site_type_symbol
_atom_site_label
_atom_site_fract_x
_atom_site_fract_y
_atom_site_fract_z
Si Si1 0.047054 0.544986 0.369147
Si Si2 0.333576 0.607515 0.090014
Si Si3 0.694710 0.162290 0.675056
Si Si4 0.142120 0.013110 0.796106
Si Si5 0.285615 0.321634 0.440132
Si Si6 0.580627 0.893984 0.031119
Si Si7 0.315096 0.229204 0.280474
O O1 0.186371 0.527530 0.272344
O O2 0.148167 0.583644 0.427314
O O3 0.870969 0.588492 0.384426
O O4 0.968333 0.468347 0.413474
O O5 0.419183 0.538078 0.116470
O O6 0.330881 0.676548 0.153081
O O7 0.391985 0.628868 0.985352
O O8 0.500000 0.156205 0.750000
O O9 0.684301 0.155484 0.576780
O O10 0.768070 0.236367 0.700432
O O11 0.798671 0.092439 0.688016
O O12 0.000000 0.017243 0.750000
O O13 0.250000 0.250000 0.500000
O O14 0.349843 0.294909 0.338976
O O15 0.103618 0.357526 0.452210
O O16 0.500000 0.189996 0.250000
#
# Coordination Sequence:
#
# PCOD9264777 Si02
#       7
#     8   8   8   8   8   8   8
#     4  10  19  37  64  84 113 153 204 240 292 357
#     4  10  21  40  64  82 115 161 199 239 295 356
#     4  12  21  38  61  86 118 156 201 239 290 360
#     4  12  23  38  57  89 121 149 196 252 297 345
#     4   9  19  36  59  87 118 154 198 242 292 351
#     4  10  19  35  63  87 110 157 203 240 285 357
#     4  11  22  37  60  89 120 155 194 245 301 352
#
# _framework density 24.608560000000001
#
# number of rings (size 3 to 8) (size 9 to 14) (size 15 to 20)
#    0.000    1.429    4.286    1.714    0.000    0.571 
#    2.571    0.714    0.000    3.429    0.000    0.000 
#    0.000    0.000    0.000    0.000    0.000    0.000 
#
# Total GULP energy -156552.130829 kJ/mol
# GULP energy per Si atom -5591.147530 kJ/mol
# Density = 2.455255 g / cm^3
# Si number density = 24.608560 Si / 1000 Ang^3
#
#
#
# Elastic Constant Matrix: (Units=GPa)
#
#
# Indices 1 2 3 4 5 6 
#
# 1 66.7190 10.0385 4.3277 0.0000 17.2217 0.0000
# 2 10.0385 80.1734 16.7409 0.0000 13.8465 0.0000
# 3 4.3277 16.7409 68.0256 0.0000 22.1934 0.0000
# 4 0.0000 0.0000 0.0000 38.6056 0.0000 19.5855
# 5 17.2217 13.8465 22.1934 0.0000 44.1314 0.0000
# 6 0.0000 0.0000 0.0000 19.5855 0.0000 8.9584
#
#
#
# Elastic Compliance Matrix: (Units=1/GPa)
#
#
# Indices 1 2 3 4 5 6 
#
# 1 0.016870 -0.001224 0.001496 0.000000 -0.006951 0.000000
# 2 -0.001224 0.013575 -0.002427 0.000000 -0.002561 0.000000
# 3 0.001496 -0.002427 0.018117 0.000000 -0.008933 0.000000
# 4 0.000000 0.000000 0.000000 -0.237315 0.000000 0.518837
# 5 -0.006951 -0.002561 -0.008933 0.000000 0.030668 0.000000
# 6 0.000000 0.000000 0.000000 0.518837 0.000000 -1.022696
#
#
# Mechanical properties :
#
#
# Convention : Reuss Voigt Hill
#
# Bulk Modulus (GPa) = 22.59847 30.79246 26.69546
# Shear Modulus (GPa) = -4.30397 30.59313 13.14458
#
# Velocity S-wave (km/s) = -1.32392 3.52972 2.31367
# Velocity P-wave (km/s) = 2.62032 5.39925 4.24370
#
# Compressibility (1/GPa) = 0.04425079
#
# Stress axis : x y z
#
# Youngs Moduli (GPa) = 59.27795 73.66269 55.19677
#
# Poissons Ratio (x) = 0.09017 -0.08257
# Poissons Ratio (y) = 0.07256 0.13399
# Poissons Ratio (z) = -0.08867 0.17882
#
# Static dielectric constant tensor:
#      x y z
#    x 1.949580 0.000000 0.009840 
#    y 0.000000 1.853070 0.000000 
#    z 0.009840 0.000000 1.991910 
# 
# From -- ./inp_files/191578.got.cif
#   From: 2010.05.17/outbox.cif.g08.bks.cpg/sg15_96_cif.got.tgz:191578.got - 2010.06.03 18:47:42.
