data_PCOD9264896
_publ_section_title
;
Structure prediction by ZEFSAII (Michael W. Deem and Ramdas Pophale) SiO2 
 PCOD9264896
Probable space group: C 2/C
;
_chemical_formula_sum "Si O2"
_cell_formula_units_Z 56
_cell_length_a 25.499823
_cell_length_b 14.085453
_cell_length_c 9.164707
_cell_angle_alpha 90.000000
_cell_angle_beta 66.745898
_cell_angle_gamma 90.000000
_cell_volume 3024.336018
_symmetry_space_group_name_H-M "C 2/C"
_symmetry_group_IT_number 15
_symmetry_cell_setting 'monoclinic'
loop_
_space_group_symop_operation_xyz
x,y,z
-x,y,1/2-z
-x,-y,-z
x,-y,1/2+z
1/2+x,1/2+y,z
1/2-x,1/2+y,1/2-z
1/2-x,1/2-y,-z
1/2+x,1/2-y,1/2+z
loop_
_atom_site_type_symbol
_atom_site_label
_atom_site_fract_x
_atom_site_fract_y
_atom_site_fract_z
Si Si1 0.667985 0.692244 0.552384
Si Si2 0.186102 0.588827 0.743334
Si Si3 0.795160 0.609601 0.431954
Si Si4 0.032634 0.079158 0.366694
Si Si5 0.650831 0.526123 0.771731
Si Si6 0.114391 0.763171 0.798084
Si Si7 0.304176 0.386206 0.981601
O O1 0.731428 0.647764 0.468123
O O2 0.668634 0.794307 0.629272
O O3 0.637776 0.618144 0.690021
O O4 0.641990 0.703648 0.421605
O O5 0.187239 0.482355 0.678756
O O6 0.129109 0.650735 0.777441
O O7 0.241458 0.640099 0.607788
O O8 0.198183 0.589303 0.902771
O O9 0.050568 0.191107 0.370602
O O10 0.000000 0.075809 0.250000
O O11 0.096020 0.037797 0.309966
O O12 0.000000 0.000000 0.500000
O O13 0.700571 0.462513 0.644507
O O14 0.666301 0.557872 0.916407
O O15 0.153168 0.805943 0.623624
#
# Coordination Sequence:
#
# PCOD9264896 Si02
#       7
#     8   8   8   8   8   8   8
#     4  10  19  36  48  78 109 147 179 217 261 326
#     4  11  20  35  49  79 110 154 181 216 267 332
#     4  10  22  31  51  74 115 149 179 210 259 324
#     4  11  22  38  56  80 106 141 184 240 287 316
#     4  11  20  33  54  77 110 145 184 221 278 333
#     4  10  23  34  54  77 108 143 190 230 275 335
#     4  11  19  31  48  79 109 148 177 217 267 334
#
# _framework density 18.516459999999999
#
# number of rings (size 3 to 8) (size 9 to 14) (size 15 to 20)
#    0.000    1.429    2.857    4.714    2.000    1.143 
#    0.000    0.000    0.000    0.000    0.000   10.000 
#    0.000    0.000    0.000    0.000    0.000    0.000 
#
# Total GULP energy -155877.634618 kJ/mol
# GULP energy per Si atom -5567.058379 kJ/mol
# Density = 1.847432 g / cm^3
# Si number density = 18.516460 Si / 1000 Ang^3
#
#
#
# Elastic Constant Matrix: (Units=GPa)
#
#
# Indices 1 2 3 4 5 6 
#
# 1 63.8123 21.8803 9.0149 0.0000 9.1130 0.0000
# 2 21.8803 103.0815 20.7735 0.0000 1.9518 0.0000
# 3 9.0149 20.7735 32.6562 0.0000 11.0146 0.0000
# 4 0.0000 0.0000 0.0000 30.8099 0.0000 -1.7128
# 5 9.1130 1.9518 11.0146 0.0000 26.4852 0.0000
# 6 0.0000 0.0000 0.0000 -1.7128 0.0000 36.6560
#
#
#
# Elastic Compliance Matrix: (Units=1/GPa)
#
#
# Indices 1 2 3 4 5 6 
#
# 1 0.017776 -0.003504 -0.000817 0.000000 -0.005518 0.000000
# 2 -0.003504 0.011959 -0.007851 0.000000 0.003589 0.000000
# 3 -0.000817 -0.007851 0.041352 0.000000 -0.016338 0.000000
# 4 0.000000 0.000000 0.000000 0.032542 0.000000 0.001521
# 5 -0.005518 0.003589 -0.016338 0.000000 0.046186 0.000000
# 6 0.000000 0.000000 0.000000 0.001521 0.000000 0.027352
#
#
# Mechanical properties :
#
#
# Convention : Reuss Voigt Hill
#
# Bulk Modulus (GPa) = 21.39318 33.65416 27.52367
# Shear Modulus (GPa) = 23.03183 28.64897 25.84040
#
# Velocity S-wave (km/s) = 3.53066 3.93773 3.73974
# Velocity P-wave (km/s) = 5.31032 6.23611 5.79174
#
# Compressibility (1/GPa) = 0.04674386
#
# Stress axis : x y z
#
# Youngs Moduli (GPa) = 56.25590 83.61896 24.18249
#
# Poissons Ratio (x) = 0.29301 0.01975
# Poissons Ratio (y) = 0.19712 0.18985
# Poissons Ratio (z) = 0.04595 0.65647
#
# Static dielectric constant tensor:
#      x y z
#    x 1.663550 0.000000 -0.023130 
#    y 0.000000 1.758780 0.000000 
#    z -0.023130 0.000000 1.678120 
# 
# From -- ./inp_files/66161.got.cif
#   From: 2010.05.17/outbox.cif.g08.bks.cpg/sg15_34_cif.got.tgz:66161.got - 2010.06.03 18:47:42.
