data_PCOD9264672
_publ_section_title
;
Structure prediction by ZEFSAII (Michael W. Deem and Ramdas Pophale) SiO2 
 PCOD9264672
Probable space group: C 2/C
;
_chemical_formula_sum "Si O2"
_cell_formula_units_Z 56
_cell_length_a 7.550136
_cell_length_b 32.437336
_cell_length_c 19.181949
_cell_angle_alpha 90.000000
_cell_angle_beta 141.003557
_cell_angle_gamma 90.000000
_cell_volume 2956.182168
_symmetry_space_group_name_H-M "C 2/C"
_symmetry_group_IT_number 15
_symmetry_cell_setting 'monoclinic'
loop_
_space_group_symop_operation_xyz
x,y,z
-x,y,1/2-z
-x,-y,-z
x,-y,1/2+z
1/2+x,1/2+y,z
1/2-x,1/2+y,1/2-z
1/2-x,1/2-y,-z
1/2+x,1/2-y,1/2+z
loop_
_atom_site_type_symbol
_atom_site_label
_atom_site_fract_x
_atom_site_fract_y
_atom_site_fract_z
Si Si1 0.275102 0.649026 0.882970
Si Si2 0.761253 0.298430 0.988130
Si Si3 0.812005 0.701662 0.009765
Si Si4 0.616470 0.435483 0.497204
Si Si5 0.813407 0.006990 0.344797
Si Si6 0.766684 0.579918 0.283970
Si Si7 0.286310 0.331679 0.751116
O O1 0.200827 0.673172 0.932009
O O2 0.522973 0.676018 0.922755
O O3 0.410506 0.603694 0.937702
O O4 0.000000 0.646275 0.750000
O O5 0.002185 0.305848 0.003177
O O6 0.750000 0.250000 0.000000
O O7 0.456568 0.308677 0.862428
O O8 0.750000 0.750000 0.000000
O O9 0.002348 0.687408 0.133685
O O10 0.524256 0.468900 0.411327
O O11 0.621396 0.462457 0.570186
O O12 0.937451 0.421401 0.585738
O O13 0.500000 0.988241 0.250000
O O14 0.790584 0.038163 0.274272
O O15 0.500000 0.584801 0.250000
O O16 0.770515 0.621781 0.240928
O O17 0.500000 0.331258 0.750000
#
# Coordination Sequence:
#
# PCOD9264672 Si02
#       7
#     8   8   8   8   8   8   8
#     4  12  26  42  63  89 132 172 211 257 320 376
#     4  11  24  41  64  95 121 166 213 261 319 372
#     4  11  23  42  65  94 127 164 210 268 316 371
#     4  10  20  39  59  87 119 163 204 250 312 373
#     4   9  19  35  62  87 118 154 206 251 304 381
#     4  10  19  35  61  91 119 155 199 259 316 370
#     4   9  20  38  63  89 125 156 209 262 310 377
#
# _framework density 18.943352000000001
#
# number of rings (size 3 to 8) (size 9 to 14) (size 15 to 20)
#    0.000    1.714    2.857    1.286    2.000    1.714 
#    0.000    0.000    3.143    0.000    0.000    0.000 
#    0.000    0.000    0.000    0.000    0.000    0.000 
#
# Total GULP energy -156120.912231 kJ/mol
# GULP energy per Si atom -5575.746865 kJ/mol
# Density = 1.890024 g / cm^3
# Si number density = 18.943352 Si / 1000 Ang^3
#
#
#
# Elastic Constant Matrix: (Units=GPa)
#
#
# Indices 1 2 3 4 5 6 
#
# 1 86.2514 29.1832 46.5527 0.0000 11.5932 0.0000
# 2 29.1832 136.6333 76.3884 0.0000 12.8081 0.0000
# 3 46.5527 76.3884 162.2599 -0.0002 18.4299 -0.0001
# 4 0.0000 0.0000 -0.0002 56.0294 -0.0001 19.4527
# 5 11.5932 12.8081 18.4299 -0.0001 28.8223 0.0000
# 6 0.0000 0.0000 -0.0001 19.4527 0.0000 27.2917
#
#
#
# Elastic Compliance Matrix: (Units=1/GPa)
#
#
# Indices 1 2 3 4 5 6 
#
# 1 0.014082 -0.000886 -0.003261 0.000000 -0.003185 0.000000
# 2 -0.000886 0.010052 -0.004326 0.000000 -0.001345 0.000000
# 3 -0.003261 -0.004326 0.009454 0.000000 -0.002811 0.000000
# 4 0.000000 0.000000 0.000000 0.023717 0.000000 -0.016905
# 5 -0.003185 -0.001345 -0.002811 0.000000 0.038372 0.000000
# 6 0.000000 0.000000 0.000000 -0.016905 0.000000 0.048690
#
#
# Mechanical properties :
#
#
# Convention : Reuss Voigt Hill
#
# Bulk Modulus (GPa) = 60.08395 76.59922 68.34159
# Shear Modulus (GPa) = 29.96499 37.96336 33.96418
#
# Velocity S-wave (km/s) = 3.98153 4.48151 4.23890
# Velocity P-wave (km/s) = 7.27484 8.20380 7.75325
#
# Compressibility (1/GPa) = 0.01664338
#
# Stress axis : x y z
#
# Youngs Moduli (GPa) = 71.01195 99.47814 105.77130
#
# Poissons Ratio (x) = 0.08812 0.34496
# Poissons Ratio (y) = 0.06290 0.45752
# Poissons Ratio (z) = 0.23160 0.43030
#
# Static dielectric constant tensor:
#      x y z
#    x 1.676570 0.000000 -0.007810 
#    y 0.000000 1.679220 0.000000 
#    z -0.007810 0.000000 1.647190 
# 
# From -- ./inp_files/234980.got.cif
#   From: 2010.05.17/outbox.cif.g08.bks.cpg/sg15_118_cif.got.tgz:234980.got - 2010.06.03 18:47:42.
