data_PCOD9264326
_publ_section_title
;
Structure prediction by ZEFSAII (Michael W. Deem and Ramdas Pophale) SiO2 
 PCOD9264326
Probable space group: C 2/C
;
_chemical_formula_sum "Si O2"
_cell_formula_units_Z 60
_cell_length_a 11.769234
_cell_length_b 8.061847
_cell_length_c 25.537710
_cell_angle_alpha 90.000000
_cell_angle_beta 88.123946
_cell_angle_gamma 90.000000
_cell_volume 2421.764172
_symmetry_space_group_name_H-M "C 2/C"
_symmetry_group_IT_number 15
_symmetry_cell_setting 'monoclinic'
loop_
_space_group_symop_operation_xyz
x,y,z
-x,y,1/2-z
-x,-y,-z
x,-y,1/2+z
1/2+x,1/2+y,z
1/2-x,1/2+y,1/2-z
1/2-x,1/2-y,-z
1/2+x,1/2-y,1/2+z
loop_
_atom_site_type_symbol
_atom_site_label
_atom_site_fract_x
_atom_site_fract_y
_atom_site_fract_z
Si Si1 0.713316 0.660952 0.774540
Si Si2 0.828514 0.806061 0.678522
Si Si3 0.194361 0.319019 0.875383
Si Si4 0.191488 0.526485 0.478183
Si Si5 0.848989 0.964921 0.573650
Si Si6 0.511953 0.930536 0.152686
Si Si7 0.000000 0.371720 0.750000
Si Si8 0.522567 0.791206 0.046138
O O1 0.768845 0.672666 0.716743
O O2 0.688420 0.475096 0.790781
O O3 0.766474 0.762098 0.823347
O O4 0.594432 0.754796 0.771848
O O5 0.793892 0.842507 0.619033
O O6 0.955933 0.740535 0.672157
O O7 0.091771 0.445143 0.862253
O O8 0.146967 0.144215 0.898587
O O9 0.250389 0.414865 0.923505
O O10 0.275495 0.468729 0.522176
O O11 0.092847 0.390458 0.468822
O O12 0.117426 0.682155 0.501205
O O13 0.973093 0.889167 0.559323
O O14 0.570924 0.886011 0.097200
O O15 0.559326 0.017892 0.203772
#
# Coordination Sequence:
#
# PCOD9264326 Si02
#       8
#     8   8   8   8   8   8   4   8
#     4  10  20  36  57  82 115 149 192 241 294 352
#     4  10  21  38  60  82 113 155 192 239 298 356
#     4   9  19  35  55  78 116 151 186 246 290 348
#     4  10  19  35  58  81 116 154 197 239 306 356
#     4  10  20  35  60  84 115 152 203 242 299 369
#     4   9  19  37  57  78 114 147 186 238 294 346
#     4  10  20  32  58  82 112 146 184 238 286 352
#     4   9  20  35  54  84 114 149 192 249 293 355
#
# _framework density 24.775327999999998
#
# number of rings (size 3 to 8) (size 9 to 14) (size 15 to 20)
#    0.000    2.400    0.000    2.400    1.867    1.067 
#    0.000    0.000   11.733    0.000    0.000    0.000 
#    0.000    0.000    0.000    0.000    0.000    0.000 
#
# Total GULP energy -167635.489463 kJ/mol
# GULP energy per Si atom -5587.849649 kJ/mol
# Density = 2.471894 g / cm^3
# Si number density = 24.775328 Si / 1000 Ang^3
#
#
#
# Elastic Constant Matrix: (Units=GPa)
#
#
# Indices 1 2 3 4 5 6 
#
# 1 56.7042 24.0145 27.1556 0.0000 3.2522 0.0000
# 2 24.0145 84.7337 40.3766 0.0000 5.9163 0.0000
# 3 27.1556 40.3766 109.8480 0.0000 0.6823 0.0000
# 4 0.0000 0.0000 0.0000 42.7730 0.0000 -8.8073
# 5 3.2522 5.9163 0.6823 0.0000 39.3637 0.0000
# 6 0.0000 0.0000 0.0000 -8.8073 0.0000 18.2759
#
#
#
# Elastic Compliance Matrix: (Units=1/GPa)
#
#
# Indices 1 2 3 4 5 6 
#
# 1 0.021242 -0.004179 -0.003709 0.000000 -0.001063 0.000000
# 2 -0.004179 0.015299 -0.004579 0.000000 -0.001875 0.000000
# 3 -0.003709 -0.004579 0.011698 0.000000 0.000792 0.000000
# 4 0.000000 0.000000 0.000000 0.025955 0.000000 0.012508
# 5 -0.001063 -0.001875 0.000792 0.000000 0.025760 0.000000
# 6 0.000000 0.000000 0.000000 0.012508 0.000000 0.060744
#
#
# Mechanical properties :
#
#
# Convention : Reuss Voigt Hill
#
# Bulk Modulus (GPa) = 42.90569 48.26435 45.58502
# Shear Modulus (GPa) = 25.85325 30.73181 28.29253
#
# Velocity S-wave (km/s) = 3.23384 3.52578 3.38296
# Velocity P-wave (km/s) = 5.59456 6.00816 5.80504
#
# Compressibility (1/GPa) = 0.02330693
#
# Stress axis : x y z
#
# Youngs Moduli (GPa) = 47.07618 65.36517 85.48227
#
# Poissons Ratio (x) = 0.27315 0.31703
# Poissons Ratio (y) = 0.19672 0.39139
# Poissons Ratio (z) = 0.17459 0.29928
#
# Static dielectric constant tensor:
#      x y z
#    x 1.960910 0.000000 0.032140 
#    y 0.000000 1.984670 0.000000 
#    z 0.032140 0.000000 2.095750 
# 
# From -- ./inp_files/272756.got.cif
#   From: 2010.05.17/outbox.cif.g08.bks.cpg/sg15_137_cif.got.tgz:272756.got - 2010.06.03 18:47:42.
