data_PCOD9264181
_publ_section_title
;
Structure prediction by ZEFSAII (Michael W. Deem and Ramdas Pophale) SiO2 
 PCOD9264181
Probable space group: C 2/C
;
_chemical_formula_sum "Si O2"
_cell_formula_units_Z 52
_cell_length_a 21.197594
_cell_length_b 24.657819
_cell_length_c 5.364573
_cell_angle_alpha 90.000000
_cell_angle_beta 65.070294
_cell_angle_gamma 90.000000
_cell_volume 2542.729496
_symmetry_space_group_name_H-M "C 2/C"
_symmetry_group_IT_number 15
_symmetry_cell_setting 'monoclinic'
loop_
_space_group_symop_operation_xyz
x,y,z
-x,y,1/2-z
-x,-y,-z
x,-y,1/2+z
1/2+x,1/2+y,z
1/2-x,1/2+y,1/2-z
1/2-x,1/2-y,-z
1/2+x,1/2-y,1/2+z
loop_
_atom_site_type_symbol
_atom_site_label
_atom_site_fract_x
_atom_site_fract_y
_atom_site_fract_z
Si Si1 0.769486 0.363436 0.399422
Si Si2 0.668098 0.528713 0.595347
Si Si3 0.123521 0.871355 0.857691
Si Si4 0.802757 0.701141 0.348657
Si Si5 0.000000 0.144252 0.250000
Si Si6 0.675436 0.015534 0.651752
Si Si7 0.571450 0.274049 0.255396
O O1 0.686354 0.370837 0.557529
O O2 0.791952 0.340288 0.095547
O O3 0.802800 0.422125 0.385555
O O4 0.788323 0.325101 0.603234
O O5 0.643578 0.489940 0.408000
O O6 0.646230 0.587814 0.539013
O O7 0.752197 0.520207 0.464328
O O8 0.050686 0.887477 0.851477
O O9 0.111641 0.811371 0.987155
O O10 0.750000 0.750000 0.500000
O O11 0.879177 0.727163 0.230221
O O12 0.951192 0.183766 0.493496
O O13 0.636983 0.999428 0.466724
O O14 0.500000 0.253942 0.250000
#
# Coordination Sequence:
#
# PCOD9264181 Si02
#       7
#     8   8   8   8   4   8   8
#     4  12  24  36  63  90 128 151 203 256 304 359
#     4  10  21  33  57  80 113 157 199 244 305 343
#     4  11  22  38  60  85 114 165 206 251 298 359
#     4  12  25  38  60  95 123 156 203 259 306 359
#     4  10  24  40  62  76 114 164 220 242 296 362
#     4  10  19  35  56  85 119 165 186 238 314 360
#     4  10  24  42  63  82 121 167 205 245 306 363
#
# _framework density 20.450462999999999
#
# number of rings (size 3 to 8) (size 9 to 14) (size 15 to 20)
#    0.000    1.231    4.615    2.308    8.615    0.000 
#    0.000    0.769    0.000    0.000    0.000    0.000 
#    0.000   12.308    0.000    0.000    0.000    0.000 
#
# Total GULP energy -145335.386083 kJ/mol
# GULP energy per Si atom -5589.822542 kJ/mol
# Density = 2.040392 g / cm^3
# Si number density = 20.450463 Si / 1000 Ang^3
#
#
#
# Elastic Constant Matrix: (Units=GPa)
#
#
# Indices 1 2 3 4 5 6 
#
# 1 70.1769 26.0031 10.5718 0.0000 11.5614 0.0000
# 2 26.0031 52.9775 -3.9157 0.0000 -0.7945 0.0000
# 3 10.5718 -3.9157 65.4994 0.0000 18.8266 0.0000
# 4 0.0000 0.0000 0.0000 28.5568 0.0000 13.1526
# 5 11.5614 -0.7945 18.8266 0.0000 30.8834 0.0000
# 6 0.0000 0.0000 0.0000 13.1526 0.0000 24.1765
#
#
#
# Elastic Compliance Matrix: (Units=1/GPa)
#
#
# Indices 1 2 3 4 5 6 
#
# 1 0.019128 -0.009620 -0.001859 0.000000 -0.006275 0.000000
# 2 -0.009620 0.023800 0.002139 0.000000 0.002910 0.000000
# 3 -0.001859 0.002139 0.018768 0.000000 -0.010690 0.000000
# 4 0.000000 0.000000 0.000000 0.046726 0.000000 -0.025420
# 5 -0.006275 0.002910 -0.010690 0.000000 0.041321 0.000000
# 6 0.000000 0.000000 0.000000 -0.025420 0.000000 0.055191
#
#
# Mechanical properties :
#
#
# Convention : Reuss Voigt Hill
#
# Bulk Modulus (GPa) = 23.24709 28.21911 25.73310
# Shear Modulus (GPa) = 21.01266 27.12299 24.06783
#
# Velocity S-wave (km/s) = 3.20893 3.64576 3.43430
# Velocity P-wave (km/s) = 5.01217 5.61701 5.32319
#
# Compressibility (1/GPa) = 0.04301613
#
# Stress axis : x y z
#
# Youngs Moduli (GPa) = 52.27890 42.01748 53.28246
#
# Poissons Ratio (x) = 0.40422 0.09904
# Poissons Ratio (y) = 0.50294 -0.11398
# Poissons Ratio (z) = 0.09718 -0.08989
#
# Static dielectric constant tensor:
#      x y z
#    x 1.751710 0.000000 0.057580 
#    y 0.000000 1.733060 0.000000 
#    z 0.057580 0.000000 1.797860 
# 
# From -- ./inp_files/11228.got.cif
#   From: 2010.05.17/outbox.cif.g08.bks.cpg/sg15_6_cif.got.tgz:11228.got - 2010.06.03 18:47:42.
