data_PCOD9264943
_publ_section_title
;
Structure prediction by ZEFSAII (Michael W. Deem and Ramdas Pophale) SiO2 
 PCOD9264943
Probable space group: C 2/C
;
_chemical_formula_sum "Si O2"
_cell_formula_units_Z 44
_cell_length_a 9.024018
_cell_length_b 16.126389
_cell_length_c 14.199813
_cell_angle_alpha 90.000000
_cell_angle_beta 69.104385
_cell_angle_gamma 90.000000
_cell_volume 1930.520170
_symmetry_space_group_name_H-M "C 2/C"
_symmetry_group_IT_number 15
_symmetry_cell_setting 'monoclinic'
loop_
_space_group_symop_operation_xyz
x,y,z
-x,y,1/2-z
-x,-y,-z
x,-y,1/2+z
1/2+x,1/2+y,z
1/2-x,1/2+y,1/2-z
1/2-x,1/2-y,-z
1/2+x,1/2-y,1/2+z
loop_
_atom_site_type_symbol
_atom_site_label
_atom_site_fract_x
_atom_site_fract_y
_atom_site_fract_z
Si Si1 0.840696 0.560484 0.138750
Si Si2 0.822735 0.627252 0.406500
Si Si3 0.500000 0.757178 0.750000
Si Si4 0.500000 0.522385 0.250000
Si Si5 0.500000 0.932234 0.250000
Si Si6 0.242775 0.560199 0.559040
Si Si7 0.526736 0.376155 0.091345
O O1 0.661551 0.574783 0.215016
O O2 0.991720 0.621365 0.107246
O O3 0.905112 0.485534 0.190997
O O4 0.819412 0.547795 0.031796
O O5 0.846514 0.688213 0.313650
O O6 0.765634 0.533510 0.397632
O O7 0.699279 0.650729 0.515120
O O8 0.536484 0.696605 0.828618
O O9 0.524878 0.458675 0.156638
O O10 0.370915 0.888448 0.344714
O O11 0.413954 0.600980 0.529643
#
# Coordination Sequence:
#
# PCOD9264943 Si02
#       7
#     8   8   4   4   4   8   8
#     4  11  23  36  67 104 133 171 226 294 340 397
#     4  11  22  42  67  98 133 181 229 278 341 414
#     4  11  27  42  66  96 144 192 226 265 351 426
#     4  11  22  38  61 105 137 166 220 285 346 390
#     4  10  19  36  55 101 139 164 204 280 347 398
#     4  11  22  38  70 105 129 173 232 298 337 394
#     4  11  24  42  66  97 139 180 225 285 342 408
#
# _framework density 22.791785999999998
#
# number of rings (size 3 to 8) (size 9 to 14) (size 15 to 20)
#    0.000    1.091    3.636    5.455    0.000    0.000 
#    0.000    0.909    0.000    3.273    0.000    0.000 
#    0.000    0.000    0.000    0.000    0.000    0.000 
#
# Total GULP energy -122574.420505 kJ/mol
# GULP energy per Si atom -5571.564568 kJ/mol
# Density = 2.273991 g / cm^3
# Si number density = 22.791786 Si / 1000 Ang^3
#
#
#
# Elastic Constant Matrix: (Units=GPa)
#
#
# Indices 1 2 3 4 5 6 
#
# 1 143.2742 33.7995 69.6426 0.0000 -21.4477 0.0000
# 2 33.7995 65.5755 28.8486 0.0000 -1.2405 0.0000
# 3 69.6426 28.8486 172.9401 0.0000 -14.1453 0.0000
# 4 0.0000 0.0000 0.0000 21.2920 0.0000 -5.8116
# 5 -21.4477 -1.2405 -14.1453 0.0000 52.3242 0.0000
# 6 0.0000 0.0000 0.0000 -5.8116 0.0000 12.7308
#
#
#
# Elastic Compliance Matrix: (Units=1/GPa)
#
#
# Indices 1 2 3 4 5 6 
#
# 1 0.009801 -0.003635 -0.003087 0.000000 0.003097 0.000000
# 2 -0.003635 0.017812 -0.001631 0.000000 -0.001509 0.000000
# 3 -0.003087 -0.001631 0.007354 0.000000 0.000684 0.000000
# 4 0.000000 0.000000 0.000000 0.053651 0.000000 0.024491
# 5 0.003097 -0.001509 0.000684 0.000000 0.020530 0.000000
# 6 0.000000 0.000000 0.000000 0.024491 0.000000 0.089730
#
#
# Mechanical properties :
#
#
# Convention : Reuss Voigt Hill
#
# Bulk Modulus (GPa) = 54.76278 71.81902 63.29090
# Shear Modulus (GPa) = 22.55591 33.90268 28.22930
#
# Velocity S-wave (km/s) = 3.14928 3.86099 3.52315
# Velocity P-wave (km/s) = 6.10766 7.17326 6.66180
#
# Compressibility (1/GPa) = 0.01826058
#
# Stress axis : x y z
#
# Youngs Moduli (GPa) = 102.02558 56.14136 135.98812
#
# Poissons Ratio (x) = 0.20408 0.41984
# Poissons Ratio (y) = 0.37088 0.22177
# Poissons Ratio (z) = 0.31499 0.09156
#
# Static dielectric constant tensor:
#      x y z
#    x 1.919060 0.000000 -0.039590 
#    y 0.000000 1.909860 0.000000 
#    z -0.039590 0.000000 1.981560 
# 
# From -- ./inp_files/134340.got.cif
#   From: 2010.05.17/outbox.cif.g08.bks.cpg/sg15_68_cif.got.tgz:134340.got - 2010.06.03 18:47:42.
