data_PCOD9264842
_publ_section_title
;
Structure prediction by ZEFSAII (Michael W. Deem and Ramdas Pophale) SiO2 
 PCOD9264842
Probable space group: C 2/C
;
_chemical_formula_sum "Si O2"
_cell_formula_units_Z 40
_cell_length_a 8.570552
_cell_length_b 18.362868
_cell_length_c 11.450916
_cell_angle_alpha 90.000000
_cell_angle_beta 93.374578
_cell_angle_gamma 90.000000
_cell_volume 1799.019348
_symmetry_space_group_name_H-M "C 2/C"
_symmetry_group_IT_number 15
_symmetry_cell_setting 'monoclinic'
loop_
_space_group_symop_operation_xyz
x,y,z
-x,y,1/2-z
-x,-y,-z
x,-y,1/2+z
1/2+x,1/2+y,z
1/2-x,1/2+y,1/2-z
1/2-x,1/2-y,-z
1/2+x,1/2-y,1/2+z
loop_
_atom_site_type_symbol
_atom_site_label
_atom_site_fract_x
_atom_site_fract_y
_atom_site_fract_z
Si Si1 0.262778 0.560792 0.721048
Si Si2 0.258827 0.675586 0.071114
Si Si3 0.684862 0.899205 0.782676
Si Si4 0.537606 0.421839 0.056997
Si Si5 0.046893 0.415543 0.013955
O O1 0.259149 0.472329 0.730011
O O2 0.307384 0.580588 0.854211
O O3 0.399313 0.589190 0.642422
O O4 0.110714 0.589921 0.648247
O O5 0.247547 0.669476 0.211939
O O6 0.250000 0.750000 0.000000
O O7 0.418279 0.635203 0.040166
O O8 0.101795 0.632584 0.024824
O O9 0.500000 0.906378 0.750000
O O10 0.683470 0.899473 0.923335
O O11 0.500000 0.500000 0.000000
O O12 0.000000 0.500000 0.000000
#
# Coordination Sequence:
#
# PCOD9264842 Si02
#       5
#     8   8   8   8   8
#     4  11  21  36  68 100 124 166 230 286 332 399
#     4  11  24  42  66  95 140 181 221 281 353 416
#     4  10  19  35  64  97 127 172 221 275 334 406
#     4  11  22  40  64  96 132 169 226 289 339 391
#     4  11  20  40  71  97 129 176 234 277 331 415
#
# _framework density 22.234335000000002
#
# number of rings (size 3 to 8) (size 9 to 14) (size 15 to 20)
#    0.000    1.200    6.000    2.400    0.000    0.000 
#   10.800    1.000   13.200    0.000    0.000    0.000 
#    0.000    0.000    0.000    0.000    0.000    0.000 
#
# Total GULP energy -111526.619464 kJ/mol
# GULP energy per Si atom -5576.330973 kJ/mol
# Density = 2.218373 g / cm^3
# Si number density = 22.234335 Si / 1000 Ang^3
#
#
#
# Elastic Constant Matrix: (Units=GPa)
#
#
# Indices 1 2 3 4 5 6 
#
# 1 59.6925 19.0297 34.8703 0.0000 -19.5613 0.0000
# 2 19.0297 82.2916 24.2871 0.0000 -33.6774 0.0000
# 3 34.8703 24.2871 149.7845 0.0000 -15.2041 0.0000
# 4 0.0000 0.0000 0.0000 24.9552 0.0000 -0.7262
# 5 -19.5613 -33.6774 -15.2041 0.0000 50.2060 0.0000
# 6 0.0000 0.0000 0.0000 -0.7262 0.0000 27.4395
#
#
#
# Elastic Compliance Matrix: (Units=1/GPa)
#
#
# Indices 1 2 3 4 5 6 
#
# 1 0.021676 -0.001152 -0.004210 0.000000 0.006398 0.000000
# 2 -0.001152 0.017204 -0.001440 0.000000 0.010655 0.000000
# 3 -0.004210 -0.001440 0.007867 0.000000 -0.000224 0.000000
# 4 0.000000 0.000000 0.000000 0.040103 0.000000 0.001061
# 5 0.006398 0.010655 -0.000224 0.000000 0.029490 0.000000
# 6 0.000000 0.000000 0.000000 0.001061 0.000000 0.036472
#
#
# Mechanical properties :
#
#
# Convention : Reuss Voigt Hill
#
# Bulk Modulus (GPa) = 30.17177 49.79363 39.98270
# Shear Modulus (GPa) = 28.17502 34.75891 31.46696
#
# Velocity S-wave (km/s) = 3.56362 3.95815 3.76605
# Velocity P-wave (km/s) = 5.52556 6.58276 6.07720
#
# Compressibility (1/GPa) = 0.03314356
#
# Stress axis : x y z
#
# Youngs Moduli (GPa) = 46.13497 58.12669 127.11140
#
# Poissons Ratio (x) = 0.06694 0.53514
# Poissons Ratio (y) = 0.05313 0.18302
# Poissons Ratio (z) = 0.19423 0.08369
#
# Static dielectric constant tensor:
#      x y z
#    x 1.495420 0.000000 -0.343230 
#    y 0.000000 1.786480 0.000000 
#    z -0.343230 0.000000 1.630210 
# 
# From -- ./inp_files/76810.got.cif
#   From: 2010.05.17/outbox.cif.g08.bks.cpg/sg15_39_cif.got.tgz:76810.got - 2010.06.03 18:47:42.
