data_PCOD9264457
_publ_section_title
;
Structure prediction by ZEFSAII (Michael W. Deem and Ramdas Pophale) SiO2 
 PCOD9264457
Probable space group: C 2/C
;
_chemical_formula_sum "Si O2"
_cell_formula_units_Z 56
_cell_length_a 17.966514
_cell_length_b 7.800824
_cell_length_c 25.977546
_cell_angle_alpha 90.000000
_cell_angle_beta 143.390105
_cell_angle_gamma 90.000000
_cell_volume 2171.268274
_symmetry_space_group_name_H-M "C 2/C"
_symmetry_group_IT_number 15
_symmetry_cell_setting 'monoclinic'
loop_
_space_group_symop_operation_xyz
x,y,z
-x,y,1/2-z
-x,-y,-z
x,-y,1/2+z
1/2+x,1/2+y,z
1/2-x,1/2+y,1/2-z
1/2-x,1/2-y,-z
1/2+x,1/2-y,1/2+z
loop_
_atom_site_type_symbol
_atom_site_label
_atom_site_fract_x
_atom_site_fract_y
_atom_site_fract_z
Si Si1 0.356230 0.264667 0.781268
Si Si2 0.108962 0.269976 0.588492
Si Si3 0.243536 0.518952 0.008132
Si Si4 0.412580 0.666336 0.030236
Si Si5 0.669513 0.139038 0.567173
Si Si6 0.583832 0.386445 0.245513
Si Si7 0.009109 0.456982 0.815971
O O1 0.207136 0.242597 0.689335
O O2 0.440974 0.284790 0.880322
O O3 0.385496 0.436293 0.765135
O O4 0.419452 0.098842 0.790679
O O5 0.121971 0.136606 0.548084
O O6 0.136074 0.456553 0.576999
O O7 0.961807 0.271844 0.517131
O O8 0.182212 0.681759 0.004258
O O9 0.148499 0.498342 0.909153
O O10 0.376284 0.535154 0.055003
O O11 0.233376 0.381521 0.046899
O O12 0.784010 0.202043 0.665068
O O13 0.500000 0.425458 0.250000
O O14 0.519263 0.232367 0.179883
O O15 0.000000 0.460173 0.750000
#
# Coordination Sequence:
#
# PCOD9264457 Si02
#       7
#     8   8   8   8   8   8   8
#     4  10  19  35  59  84 116 156 204 251 311 374
#     4   9  18  34  57  85 119 161 202 253 316 377
#     4   9  17  32  55  83 117 156 198 254 319 366
#     4   9  17  31  56  89 115 153 208 254 302 381
#     4   9  18  35  56  80 119 161 199 253 320 374
#     4  10  20  35  56  85 115 152 204 252 304 372
#     4  10  20  34  54  86 119 154 193 255 314 368
#
# _framework density 25.791377000000001
#
# number of rings (size 3 to 8) (size 9 to 14) (size 15 to 20)
#    0.000    2.571    0.000    2.143    0.000    4.571 
#    2.571    8.571    0.000    0.000    0.000    0.000 
#    0.000    0.000    0.000    0.000    0.000    0.000 
#
# Total GULP energy -156329.683397 kJ/mol
# GULP energy per Si atom -5583.202978 kJ/mol
# Density = 2.573267 g / cm^3
# Si number density = 25.791377 Si / 1000 Ang^3
#
#
#
# Elastic Constant Matrix: (Units=GPa)
#
#
# Indices 1 2 3 4 5 6 
#
# 1 61.6552 1.3927 25.0205 0.0000 18.3336 0.0000
# 2 1.3927 85.4790 1.8565 0.0000 7.3459 -0.0001
# 3 25.0205 1.8565 146.2738 0.0000 29.1710 0.0000
# 4 0.0000 0.0000 0.0000 28.8666 0.0000 6.8492
# 5 18.3336 7.3459 29.1710 0.0000 36.6270 0.0000
# 6 0.0000 -0.0001 0.0000 6.8492 0.0000 20.8331
#
#
#
# Elastic Compliance Matrix: (Units=1/GPa)
#
#
# Indices 1 2 3 4 5 6 
#
# 1 0.019398 0.000450 -0.001628 0.000000 -0.008503 0.000000
# 2 0.000450 0.011933 0.000349 0.000000 -0.002897 0.000000
# 3 -0.001628 0.000349 0.008277 0.000000 -0.005847 0.000000
# 4 0.000000 0.000000 0.000000 0.037573 0.000000 -0.012353
# 5 -0.008503 -0.002897 -0.005847 0.000000 0.036796 0.000000
# 6 0.000000 0.000000 0.000000 -0.012353 0.000000 0.052062
#
#
# Mechanical properties :
#
#
# Convention : Reuss Voigt Hill
#
# Bulk Modulus (GPa) = 26.35026 38.88302 32.61664
# Shear Modulus (GPa) = 27.72447 34.94123 31.33285
#
# Velocity S-wave (km/s) = 3.28220 3.68470 3.48926
# Velocity P-wave (km/s) = 4.96011 5.76294 5.37653
#
# Compressibility (1/GPa) = 0.03795029
#
# Stress axis : x y z
#
# Youngs Moduli (GPa) = 51.55090 83.80263 120.82309
#
# Poissons Ratio (x) = -0.03772 0.19670
# Poissons Ratio (y) = -0.02320 -0.04220
# Poissons Ratio (z) = 0.08393 -0.02927
#
# Static dielectric constant tensor:
#      x y z
#    x 2.011930 0.000000 0.021960 
#    y 0.000000 2.104630 0.000000 
#    z 0.021960 0.000000 2.056700 
# 
# From -- ./inp_files/317560.got.cif
#   From: 2010.05.17/outbox.cif.g08.bks.cpg/sg15_159_cif.got.tgz:317560.got - 2010.06.03 18:47:42.
