data_PCOD9264068
_publ_section_title
;
Structure prediction by ZEFSAII (Michael W. Deem and Ramdas Pophale) SiO2 
 PCOD9264068
Probable space group: C 2/C
;
_chemical_formula_sum "Si O2"
_cell_formula_units_Z 52
_cell_length_a 6.504547
_cell_length_b 25.099397
_cell_length_c 23.734928
_cell_angle_alpha 90.000000
_cell_angle_beta 132.468700
_cell_angle_gamma 90.000000
_cell_volume 2858.356719
_symmetry_space_group_name_H-M "C 2/C"
_symmetry_group_IT_number 15
_symmetry_cell_setting 'monoclinic'
loop_
_space_group_symop_operation_xyz
x,y,z
-x,y,1/2-z
-x,-y,-z
x,-y,1/2+z
1/2+x,1/2+y,z
1/2-x,1/2+y,1/2-z
1/2-x,1/2-y,-z
1/2+x,1/2-y,1/2+z
loop_
_atom_site_type_symbol
_atom_site_label
_atom_site_fract_x
_atom_site_fract_y
_atom_site_fract_z
Si Si1 0.801679 0.329317 0.311484
Si Si2 0.500000 0.904667 0.250000
Si Si3 0.696863 0.256672 0.057296
Si Si4 0.593009 0.098244 0.562555
Si Si5 0.969526 0.971880 0.401965
Si Si6 0.835290 0.666611 0.034603
Si Si7 0.445157 0.577431 0.457413
O O1 0.500000 0.303253 0.250000
O O2 0.856003 0.365309 0.267357
O O3 0.806924 0.371384 0.363674
O O4 0.041067 0.286511 0.367226
O O5 0.723055 0.940445 0.324995
O O6 0.606571 0.203676 0.075156
O O7 0.750000 0.250000 0.000000
O O8 0.430835 0.295174 0.011890
O O9 0.682074 0.133763 0.526312
O O10 0.259112 0.096691 0.502617
O O11 0.749316 0.041723 0.581601
O O12 0.023991 0.949201 0.474916
O O13 0.888475 0.032894 0.399597
O O14 0.782217 0.624164 0.075224
#
# Coordination Sequence:
#
# PCOD9264068 Si02
#       7
#     8   4   8   8   8   8   8
#     4  12  23  34  57  87 129 154 187 253 326 369
#     4  12  22  38  54  88 130 148 192 244 320 368
#     4  11  21  37  58  87 115 155 205 248 306 368
#     4  11  18  36  54  88 115 155 193 253 297 361
#     4  10  21  32  55  84 121 159 192 242 302 366
#     4  10  20  33  60  84 113 148 209 254 287 351
#     4  10  19  35  54  86 119 155 205 245 289 356
#
# _framework density 18.192271999999999
#
# number of rings (size 3 to 8) (size 9 to 14) (size 15 to 20)
#    0.000    1.231    6.154    1.385    0.000    0.000 
#    0.000    0.000    0.000    0.000   20.000    0.000 
#    0.000    0.000    0.000    0.000    0.000    0.000 
#
# Total GULP energy -144885.666568 kJ/mol
# GULP energy per Si atom -5572.525637 kJ/mol
# Density = 1.815087 g / cm^3
# Si number density = 18.192272 Si / 1000 Ang^3
#
#
#
# Elastic Constant Matrix: (Units=GPa)
#
#
# Indices 1 2 3 4 5 6 
#
# 1 119.5100 55.7383 29.1922 0.0000 7.1995 0.0000
# 2 55.7383 107.1285 37.9892 0.0000 3.5133 0.0000
# 3 29.1922 37.9892 69.8195 0.0000 14.5857 0.0000
# 4 0.0000 0.0000 0.0000 30.4622 0.0000 1.0494
# 5 7.1995 3.5133 14.5857 0.0000 18.5972 0.0000
# 6 0.0000 0.0000 0.0000 1.0494 0.0000 27.8436
#
#
#
# Elastic Compliance Matrix: (Units=1/GPa)
#
#
# Indices 1 2 3 4 5 6 
#
# 1 0.011326 -0.005340 -0.001345 0.000000 -0.002321 0.000000
# 2 -0.005340 0.014255 -0.006449 0.000000 0.004432 0.000000
# 3 -0.001345 -0.006449 0.021564 0.000000 -0.015173 0.000000
# 4 0.000000 0.000000 0.000000 0.032870 0.000000 -0.001239
# 5 -0.002321 0.004432 -0.015173 0.000000 0.065733 0.000000
# 6 0.000000 0.000000 0.000000 -0.001239 0.000000 0.035962
#
#
# Mechanical properties :
#
#
# Convention : Reuss Voigt Hill
#
# Bulk Modulus (GPa) = 47.90212 60.25528 54.07870
# Shear Modulus (GPa) = 23.26256 26.94980 25.10618
#
# Velocity S-wave (km/s) = 3.57978 3.85306 3.71893
# Velocity P-wave (km/s) = 6.59353 7.27928 6.94488
#
# Compressibility (1/GPa) = 0.02087590
#
# Stress axis : x y z
#
# Youngs Moduli (GPa) = 88.28934 70.15328 46.37342
#
# Poissons Ratio (x) = 0.37461 0.06239
# Poissons Ratio (y) = 0.47145 0.29908
# Poissons Ratio (z) = 0.11879 0.45244
#
# Static dielectric constant tensor:
#      x y z
#    x 1.673420 0.000000 0.015280 
#    y 0.000000 1.695080 0.000000 
#    z 0.015280 0.000000 1.587370 
# 
# From -- ./inp_files/185834.got.cif
#   From: 2010.05.17/outbox.cif.g08.bks.cpg/sg15_93_cif.got.tgz:185834.got - 2010.06.03 18:47:42.
