data_PCOD9264256
_publ_section_title
;
Structure prediction by ZEFSAII (Michael W. Deem and Ramdas Pophale) SiO2 
 PCOD9264256
Probable space group: C 2/C
;
_chemical_formula_sum "Si O2"
_cell_formula_units_Z 64
_cell_length_a 22.528644
_cell_length_b 25.813089
_cell_length_c 5.510707
_cell_angle_alpha 90.000000
_cell_angle_beta 100.891507
_cell_angle_gamma 90.000000
_cell_volume 3146.936440
_symmetry_space_group_name_H-M "C 2/C"
_symmetry_group_IT_number 15
_symmetry_cell_setting 'monoclinic'
loop_
_space_group_symop_operation_xyz
x,y,z
-x,y,1/2-z
-x,-y,-z
x,-y,1/2+z
1/2+x,1/2+y,z
1/2-x,1/2+y,1/2-z
1/2-x,1/2-y,-z
1/2+x,1/2-y,1/2+z
loop_
_atom_site_type_symbol
_atom_site_label
_atom_site_fract_x
_atom_site_fract_y
_atom_site_fract_z
Si Si1 0.681865 0.140229 0.618337
Si Si2 0.850465 0.861477 0.980826
Si Si3 0.933041 0.320428 0.233847
Si Si4 0.841562 0.283710 0.788271
Si Si5 0.438592 0.277821 0.051945
Si Si6 0.289932 0.021425 0.826043
Si Si7 0.792465 0.819822 0.441115
Si Si8 0.151550 0.017946 0.147515
O O1 0.610841 0.148731 0.617062
O O2 0.696887 0.177706 0.405800
O O3 0.700203 0.081157 0.599801
O O4 0.722965 0.162667 0.866506
O O5 0.817718 0.835673 0.722047
O O6 0.846436 0.922377 0.928502
O O7 0.917819 0.836945 0.008888
O O8 0.823899 0.848857 0.230556
O O9 0.941445 0.260526 0.325300
O O10 0.000000 0.342145 0.250000
O O11 0.892243 0.316667 0.965416
O O12 0.881868 0.247281 0.646091
O O13 0.805035 0.240825 0.908741
O O14 0.500000 0.272993 0.250000
O O15 0.315454 0.010433 0.575893
O O16 0.219417 0.005357 0.740693
O O17 0.123357 0.011452 0.393820
#
# Coordination Sequence:
#
# PCOD9264256 Si02
#       8
#     8   8   8   8   8   8   8   8
#     4  11  25  36  61  92 124 167 206 260 319 379
#     4  11  22  37  63  94 125 169 210 257 315 373
#     4  11  22  40  63  85 122 168 212 254 301 378
#     4  10  22  37  58  89 128 165 202 253 307 381
#     4  10  20  38  60  90 124 168 216 253 297 371
#     4  10  21  38  59  85 117 159 205 256 309 370
#     4  11  22  38  57  93 135 162 199 248 321 388
#     4  10  19  35  57  83 118 159 206 257 306 364
#
# _framework density 20.337240000000001
#
# number of rings (size 3 to 8) (size 9 to 14) (size 15 to 20)
#    0.000    1.500    2.500    4.125    3.500    0.500 
#    0.000    0.000    0.000    1.500    0.000    0.000 
#    0.000    0.000    0.000    0.000    0.000    0.000 
#
# Total GULP energy -178454.572114 kJ/mol
# GULP energy per Si atom -5576.705379 kJ/mol
# Density = 2.029095 g / cm^3
# Si number density = 20.337240 Si / 1000 Ang^3
#
#
#
# Elastic Constant Matrix: (Units=GPa)
#
#
# Indices 1 2 3 4 5 6 
#
# 1 33.0728 -5.3084 -1.4117 0.0000 3.8160 0.0000
# 2 -5.3084 112.1170 2.7935 0.0000 2.7251 0.0000
# 3 -1.4117 2.7935 97.4245 0.0000 -10.2443 0.0000
# 4 0.0000 0.0000 0.0000 22.5474 0.0000 3.3382
# 5 3.8160 2.7251 -10.2443 0.0000 25.1076 0.0000
# 6 0.0000 0.0000 0.0000 3.3382 0.0000 14.1493
#
#
#
# Elastic Compliance Matrix: (Units=1/GPa)
#
#
# Indices 1 2 3 4 5 6 
#
# 1 0.031057 0.001593 -0.000115 0.000000 -0.004940 0.000000
# 2 0.001593 0.009038 -0.000381 0.000000 -0.001379 0.000000
# 3 -0.000115 -0.000381 0.010741 0.000000 0.004441 0.000000
# 4 0.000000 0.000000 0.000000 0.045956 0.000000 -0.010842
# 5 -0.004940 -0.001379 0.004441 0.000000 0.042541 0.000000
# 6 0.000000 0.000000 0.000000 -0.010842 0.000000 0.073233
#
#
# Mechanical properties :
#
#
# Convention : Reuss Voigt Hill
#
# Bulk Modulus (GPa) = 18.85724 26.08457 22.47091
# Shear Modulus (GPa) = 21.92525 28.79693 25.36109
#
# Velocity S-wave (km/s) = 3.28698 3.76702 3.53516
# Velocity P-wave (km/s) = 4.86807 5.63688 5.26652
#
# Compressibility (1/GPa) = 0.05303002
#
# Stress axis : x y z
#
# Youngs Moduli (GPa) = 32.19869 110.64768 93.10462
#
# Poissons Ratio (x) = -0.17631 0.01072
# Poissons Ratio (y) = -0.05131 0.03547
# Poissons Ratio (z) = 0.00371 0.04216
#
# Static dielectric constant tensor:
#      x y z
#    x 3.373980 0.000000 -0.319550 
#    y 0.000000 1.728880 0.000000 
#    z -0.319550 0.000000 1.816490 
# 
# From -- ./inp_files/16140.got.cif
#   From: 2010.05.17/outbox.cif.g08.bks.cpg/sg15_9_cif.got.tgz:16140.got - 2010.06.03 18:47:42.
