data_PCOD9264569
_publ_section_title
;
Structure prediction by ZEFSAII (Michael W. Deem and Ramdas Pophale) SiO2 
 PCOD9264569
Probable space group: C 2/C
;
_chemical_formula_sum "Si O2"
_cell_formula_units_Z 44
_cell_length_a 9.443503
_cell_length_b 10.504877
_cell_length_c 22.680828
_cell_angle_alpha 90.000000
_cell_angle_beta 79.045617
_cell_angle_gamma 90.000000
_cell_volume 2209.004721
_symmetry_space_group_name_H-M "C 2/C"
_symmetry_group_IT_number 15
_symmetry_cell_setting 'monoclinic'
loop_
_space_group_symop_operation_xyz
x,y,z
-x,y,1/2-z
-x,-y,-z
x,-y,1/2+z
1/2+x,1/2+y,z
1/2-x,1/2+y,1/2-z
1/2-x,1/2-y,-z
1/2+x,1/2-y,1/2+z
loop_
_atom_site_type_symbol
_atom_site_label
_atom_site_fract_x
_atom_site_fract_y
_atom_site_fract_z
Si Si1 0.500000 0.509780 0.750000
Si Si2 0.538185 0.741367 0.061693
Si Si3 0.428937 0.652370 0.635409
Si Si4 0.741398 0.625763 0.566520
Si Si5 0.794607 0.880688 0.849710
Si Si6 0.210830 0.946130 0.464699
O O1 0.452397 0.593025 0.697701
O O2 0.365435 0.427020 0.783700
O O3 0.375808 0.784176 0.066991
O O4 0.577782 0.682958 0.121846
O O5 0.642801 0.863414 0.045624
O O6 0.593450 0.637307 0.010375
O O7 0.586180 0.681685 0.596087
O O8 0.330566 0.777316 0.645517
O O9 0.350386 0.553388 0.596698
O O10 0.757339 0.501495 0.607778
O O11 0.737798 0.571914 0.500312
#
# Coordination Sequence:
#
# PCOD9264569 Si02
#       6
#     4   8   8   8   8   8
#     4  10  22  40  60  74 106 152 188 232 276 310
#     4   9  18  34  58  84 114 147 177 217 275 336
#     4  10  21  38  57  81 111 143 187 231 268 321
#     4  10  19  35  60  86 114 145 173 219 282 333
#     4   9  21  40  57  79 110 144 185 229 273 325
#     4   9  18  34  55  84 116 144 178 220 270 332
#
# _framework density 19.918474
#
# number of rings (size 3 to 8) (size 9 to 14) (size 15 to 20)
#    0.000    2.545    0.000    2.182    0.000    3.636 
#    0.000   16.364    0.000    0.000    0.000    0.000 
#    0.000    0.000    0.000    0.000    0.000    0.000 
#
# Total GULP energy -122974.173687 kJ/mol
# GULP energy per Si atom -5589.735168 kJ/mol
# Density = 1.987314 g / cm^3
# Si number density = 19.918474 Si / 1000 Ang^3
#
#
#
# Elastic Constant Matrix: (Units=GPa)
#
#
# Indices 1 2 3 4 5 6 
#
# 1 110.1281 52.4435 36.1006 0.0000 9.4122 0.0000
# 2 52.4435 65.0051 26.6345 0.0000 -0.4326 0.0000
# 3 36.1006 26.6345 100.8391 0.0000 13.7933 0.0000
# 4 0.0000 0.0000 0.0000 14.0872 0.0000 -2.0954
# 5 9.4122 -0.4326 13.7933 0.0000 22.1267 0.0000
# 6 0.0000 0.0000 0.0000 -2.0954 0.0000 40.1931
#
#
#
# Elastic Compliance Matrix: (Units=1/GPa)
#
#
# Indices 1 2 3 4 5 6 
#
# 1 0.015966 -0.012239 -0.001663 0.000000 -0.005994 0.000000
# 2 -0.012239 0.026880 -0.003829 0.000000 0.008119 0.000000
# 3 -0.001663 -0.003829 0.012503 0.000000 -0.007161 0.000000
# 4 0.000000 0.000000 0.000000 0.071541 0.000000 0.003730
# 5 -0.005994 0.008119 -0.007161 0.000000 0.052367 0.000000
# 6 0.000000 0.000000 0.000000 0.003730 0.000000 0.025074
#
#
# Mechanical properties :
#
#
# Convention : Reuss Voigt Hill
#
# Bulk Modulus (GPa) = 50.28377 56.25884 53.27130
# Shear Modulus (GPa) = 20.29022 26.00098 23.14560
#
# Velocity S-wave (km/s) = 3.19511 3.61691 3.41253
# Velocity P-wave (km/s) = 6.23789 6.76377 6.50615
#
# Compressibility (1/GPa) = 0.01988713
#
# Stress axis : x y z
#
# Youngs Moduli (GPa) = 62.63180 37.20176 79.98014
#
# Poissons Ratio (x) = 0.45533 0.13303
# Poissons Ratio (y) = 0.76658 0.30622
# Poissons Ratio (z) = 0.10417 0.14243
#
# Static dielectric constant tensor:
#      x y z
#    x 1.687190 0.000000 0.013180 
#    y 0.000000 1.725310 0.000000 
#    z 0.013180 0.000000 1.699160 
# 
# From -- ./inp_files/230119.got.cif
#   From: 2010.05.17/outbox.cif.g08.bks.cpg/sg15_116_cif.got.tgz:230119.got - 2010.06.03 18:47:42.
