data_PCOD9264054
_publ_section_title
;
Structure prediction by ZEFSAII (Michael W. Deem and Ramdas Pophale) SiO2 
 PCOD9264054
Probable space group: C 2/C
;
_chemical_formula_sum "Si O2"
_cell_formula_units_Z 48
_cell_length_a 25.521601
_cell_length_b 16.267749
_cell_length_c 8.734259
_cell_angle_alpha 90.000000
_cell_angle_beta 144.098754
_cell_angle_gamma 90.000000
_cell_volume 2126.414763
_symmetry_space_group_name_H-M "C 2/C"
_symmetry_group_IT_number 15
_symmetry_cell_setting 'monoclinic'
loop_
_space_group_symop_operation_xyz
x,y,z
-x,y,1/2-z
-x,-y,-z
x,-y,1/2+z
1/2+x,1/2+y,z
1/2-x,1/2+y,1/2-z
1/2-x,1/2-y,-z
1/2+x,1/2-y,1/2+z
loop_
_atom_site_type_symbol
_atom_site_label
_atom_site_fract_x
_atom_site_fract_y
_atom_site_fract_z
Si Si1 0.128968 0.944586 0.809568
Si Si2 0.216167 0.879938 0.512815
Si Si3 0.658791 0.940582 0.449770
Si Si4 0.314333 0.109231 0.825599
Si Si5 0.124305 0.281596 0.786092
Si Si6 0.500000 0.526884 0.750000
Si Si7 0.500000 0.857165 0.250000
O O1 0.064116 0.971393 0.794475
O O2 0.065039 0.922909 0.516896
O O3 0.183106 0.028818 0.890466
O O4 0.207025 0.882395 0.046236
O O5 0.136663 0.815636 0.316259
O O6 0.293118 0.832135 0.599389
O O7 0.257019 0.892336 0.778703
O O8 0.647908 0.920293 0.247494
O O9 0.575280 0.912410 0.351606
O O10 0.672846 0.035307 0.523371
O O11 0.366775 0.185397 0.020344
O O12 0.040831 0.304900 0.485108
#
# Coordination Sequence:
#
# PCOD9264054 Si02
#       7
#     8   8   8   8   8   4   4
#     4  10  19  35  54  80 110 139 182 226 274 329
#     4   9  19  38  57  78 111 151 188 224 279 350
#     4  10  21  36  59  84 111 146 189 235 282 334
#     4  11  21  37  60  82 109 152 192 229 278 347
#     4  10  21  36  58  82 111 151 191 232 284 335
#     4  10  20  31  54  83 108 138 176 232 280 317
#     4  10  22  39  54  83 116 142 188 244 286 327
#
# _framework density 22.573207
#
# number of rings (size 3 to 8) (size 9 to 14) (size 15 to 20)
#    0.000    2.000    0.000    6.000    0.000    4.667 
#    0.000    6.667    0.000    0.000    0.000    0.000 
#    0.000    0.000    0.000    0.000    0.000    0.000 
#
# Total GULP energy -134063.756371 kJ/mol
# GULP energy per Si atom -5585.989849 kJ/mol
# Density = 2.252183 g / cm^3
# Si number density = 22.573207 Si / 1000 Ang^3
#
#
#
# Elastic Constant Matrix: (Units=GPa)
#
#
# Indices 1 2 3 4 5 6 
#
# 1 62.8701 -16.9700 -0.1543 0.0000 -6.3120 0.0000
# 2 -16.9700 41.1506 20.5933 0.0000 -3.4872 0.0000
# 3 -0.1543 20.5933 140.4892 0.0000 -7.7278 0.0000
# 4 0.0000 0.0000 0.0000 0.3018 0.0000 4.9185
# 5 -6.3120 -3.4872 -7.7278 0.0000 38.3181 0.0000
# 6 0.0000 0.0000 0.0000 4.9185 0.0000 3.1584
#
#
#
# Elastic Compliance Matrix: (Units=1/GPa)
#
#
# Indices 1 2 3 4 5 6 
#
# 1 0.018553 0.008469 -0.001022 0.000000 0.003621 0.000000
# 2 0.008469 0.030192 -0.004235 0.000000 0.003289 0.000000
# 3 -0.001022 -0.004235 0.007794 0.000000 0.001018 0.000000
# 4 0.000000 0.000000 0.000000 -0.135910 0.000000 0.211652
# 5 0.003621 0.003289 0.001018 0.000000 0.027198 0.000000
# 6 0.000000 0.000000 0.000000 0.211652 0.000000 -0.012987
#
#
# Mechanical properties :
#
#
# Convention : Reuss Voigt Hill
#
# Bulk Modulus (GPa) = 15.88252 27.93864 21.91058
# Shear Modulus (GPa) = -98.82114 24.42505 -37.19805
#
# Velocity S-wave (km/s) = -6.62368 3.29300 -4.06382
# Velocity P-wave (km/s) = 7.17260 5.18288 3.50599
#
# Compressibility (1/GPa) = 0.06296229
#
# Stress axis : x y z
#
# Youngs Moduli (GPa) = 53.90002 33.12150 128.30885
#
# Poissons Ratio (x) = -0.28051 0.13112
# Poissons Ratio (y) = -0.45649 0.54344
# Poissons Ratio (z) = 0.05508 0.14028
#
# Static dielectric constant tensor:
#      x y z
#    x 1.889770 0.000000 0.002550 
#    y 0.000000 1.801610 0.000000 
#    z 0.002550 0.000000 1.865910 
# 
# From -- ./inp_files/40695.got.cif
#   From: 2010.05.17/outbox.cif.g08.bks.cpg/sg15_21_cif.got.tgz:40695.got - 2010.06.03 18:47:42.
