data_PCOD9264136
_publ_section_title
;
Structure prediction by ZEFSAII (Michael W. Deem and Ramdas Pophale) SiO2 
 PCOD9264136
Probable space group: C 2/C
;
_chemical_formula_sum "Si O2"
_cell_formula_units_Z 40
_cell_length_a 8.150938
_cell_length_b 11.019433
_cell_length_c 22.285571
_cell_angle_alpha 90.000000
_cell_angle_beta 61.089032
_cell_angle_gamma 90.000000
_cell_volume 1752.198298
_symmetry_space_group_name_H-M "C 2/C"
_symmetry_group_IT_number 15
_symmetry_cell_setting 'monoclinic'
loop_
_space_group_symop_operation_xyz
x,y,z
-x,y,1/2-z
-x,-y,-z
x,-y,1/2+z
1/2+x,1/2+y,z
1/2-x,1/2+y,1/2-z
1/2-x,1/2-y,-z
1/2+x,1/2-y,1/2+z
loop_
_atom_site_type_symbol
_atom_site_label
_atom_site_fract_x
_atom_site_fract_y
_atom_site_fract_z
Si Si1 0.736713 0.600673 0.916280
Si Si2 0.969301 0.098373 0.320631
Si Si3 0.553901 0.335168 0.935356
Si Si4 0.214778 0.398829 0.222326
Si Si5 0.827721 0.385186 0.138629
O O1 0.656116 0.463575 0.925090
O O2 0.725829 0.659248 0.851467
O O3 0.951626 0.584681 0.898462
O O4 0.604460 0.669747 0.986217
O O5 0.797320 0.003469 0.349613
O O6 0.000000 0.161678 0.250000
O O7 0.154286 0.015360 0.293204
O O8 0.960496 0.166606 0.385316
O O9 0.692210 0.220029 0.907358
O O10 0.229169 0.335910 0.284715
O O11 0.000000 0.436852 0.250000
#
# Coordination Sequence:
#
# PCOD9264136 Si02
#       5
#     8   8   8   8   8
#     4   9  19  36  54  79 111 138 176 222 258 317
#     4   9  19  35  53  81 109 132 181 228 252 313
#     4  10  20  36  56  77 108 146 174 211 274 316
#     4   8  16  34  54  72 105 139 167 217 262 299
#     4  10  19  35  56  77 106 140 176 220 263 308
#
# _framework density 22.828465999999999
#
# number of rings (size 3 to 8) (size 9 to 14) (size 15 to 20)
#    0.000    2.800    0.000    0.600    0.000    3.200 
#    0.000   45.000    0.000    0.000    0.000    0.000 
#    0.000    0.000    0.000    0.000    0.000    0.000 
#
# Total GULP energy -111598.787972 kJ/mol
# GULP energy per Si atom -5579.939399 kJ/mol
# Density = 2.277651 g / cm^3
# Si number density = 22.828466 Si / 1000 Ang^3
#
#
#
# Elastic Constant Matrix: (Units=GPa)
#
#
# Indices 1 2 3 4 5 6 
#
# 1 61.5215 22.5771 21.7455 0.0000 -12.3115 0.0000
# 2 22.5771 52.2905 30.4570 0.0000 -14.1537 0.0000
# 3 21.7455 30.4570 173.4645 0.0000 -13.5275 0.0000
# 4 0.0000 0.0000 0.0000 44.0401 0.0000 -0.1181
# 5 -12.3115 -14.1537 -13.5275 0.0000 20.7704 0.0000
# 6 0.0000 0.0000 0.0000 -0.1181 0.0000 26.4337
#
#
#
# Elastic Compliance Matrix: (Units=1/GPa)
#
#
# Indices 1 2 3 4 5 6 
#
# 1 0.020319 -0.006322 -0.000878 0.000000 0.007163 0.000000
# 2 -0.006322 0.027026 -0.002959 0.000000 0.012742 0.000000
# 3 -0.000878 -0.002959 0.006528 0.000000 0.001715 0.000000
# 4 0.000000 0.000000 0.000000 0.022707 0.000000 0.000101
# 5 0.007163 0.012742 0.001715 0.000000 0.062191 0.000000
# 6 0.000000 0.000000 0.000000 0.000101 0.000000 0.037831
#
#
# Mechanical properties :
#
#
# Convention : Reuss Voigt Hill
#
# Bulk Modulus (GPa) = 29.80306 48.53731 39.17018
# Shear Modulus (GPa) = 24.02621 32.41528 28.22075
#
# Velocity S-wave (km/s) = 3.24769 3.77231 3.51979
# Velocity P-wave (km/s) = 5.21027 6.34678 5.80640
#
# Compressibility (1/GPa) = 0.03355360
#
# Stress axis : x y z
#
# Youngs Moduli (GPa) = 49.21588 37.00130 153.18026
#
# Poissons Ratio (x) = 0.23393 0.13456
# Poissons Ratio (y) = 0.31115 0.45326
# Poissons Ratio (z) = 0.04323 0.10949
#
# Static dielectric constant tensor:
#      x y z
#    x 1.849090 0.000000 0.044300 
#    y 0.000000 1.894560 0.000000 
#    z 0.044300 0.000000 1.886640 
# 
# From -- ./inp_files/187879.got.cif
#   From: 2010.05.17/outbox.cif.g08.bks.cpg/sg15_94_cif.got.tgz:187879.got - 2010.06.03 18:47:42.
