data_PCOD9264331
_publ_section_title
;
Structure prediction by ZEFSAII (Michael W. Deem and Ramdas Pophale) SiO2 
 PCOD9264331
Probable space group: C 2/C
;
_chemical_formula_sum "Si O2"
_cell_formula_units_Z 60
_cell_length_a 12.265594
_cell_length_b 19.270042
_cell_length_c 14.088446
_cell_angle_alpha 90.000000
_cell_angle_beta 68.197783
_cell_angle_gamma 90.000000
_cell_volume 3091.739504
_symmetry_space_group_name_H-M "C 2/C"
_symmetry_group_IT_number 15
_symmetry_cell_setting 'monoclinic'
loop_
_space_group_symop_operation_xyz
x,y,z
-x,y,1/2-z
-x,-y,-z
x,-y,1/2+z
1/2+x,1/2+y,z
1/2-x,1/2+y,1/2-z
1/2-x,1/2-y,-z
1/2+x,1/2-y,1/2+z
loop_
_atom_site_type_symbol
_atom_site_label
_atom_site_fract_x
_atom_site_fract_y
_atom_site_fract_z
Si Si1 0.335401 0.572309 0.133836
Si Si2 0.270103 0.908387 0.627975
Si Si3 0.712690 0.784580 0.611926
Si Si4 0.480867 0.140450 0.410041
Si Si5 0.654771 0.003786 0.571908
Si Si6 0.957103 0.846432 0.872762
Si Si7 0.594914 0.793500 0.368496
Si Si8 0.000000 0.605421 0.750000
O O1 0.292962 0.563018 0.256784
O O2 0.278179 0.642871 0.110419
O O3 0.276398 0.513956 0.087441
O O4 0.473107 0.591771 0.095536
O O5 0.379871 0.864953 0.632262
O O6 0.180316 0.862401 0.593996
O O7 0.319007 0.967166 0.541433
O O8 0.750000 0.750000 0.500000
O O9 0.577981 0.804662 0.642276
O O10 0.771987 0.734605 0.669259
O O11 0.425008 0.065374 0.406202
O O12 0.437234 0.163231 0.527812
O O13 0.579769 0.058921 0.655766
O O14 0.000000 0.847378 0.750000
O O15 0.005078 0.772352 0.894318
O O16 0.579420 0.843471 0.285754
#
# Coordination Sequence:
#
# PCOD9264331 Si02
#       8
#     8   8   8   8   8   8   8   4
#     4   9  20  37  58  78 114 152 189 238 282 347
#     4  11  21  34  57  86 115 149 190 245 282 338
#     4   8  17  35  58  78 105 146 192 224 276 341
#     4  10  20  36  55  85 116 146 189 238 285 343
#     4  11  23  36  54  88 116 151 192 232 294 341
#     4   9  19  37  56  81 107 149 199 230 289 345
#     4  10  19  35  58  82 110 153 189 231 289 347
#     4  12  22  34  58  84 120 152 188 244 294 350
#
# _framework density 19.406551
#
# number of rings (size 3 to 8) (size 9 to 14) (size 15 to 20)
#    0.000    2.133    2.000    1.200    1.867    2.667 
#    0.000    0.000    0.000    0.000    0.000    0.000 
#    0.000    0.000    0.000    0.000    0.000    0.000 
#
# Total GULP energy -167160.285276 kJ/mol
# GULP energy per Si atom -5572.009509 kJ/mol
# Density = 1.936238 g / cm^3
# Si number density = 19.406551 Si / 1000 Ang^3
#
#
#
# Elastic Constant Matrix: (Units=GPa)
#
#
# Indices 1 2 3 4 5 6 
#
# 1 159.7668 53.1182 19.1945 0.0000 10.5535 0.0000
# 2 53.1182 72.2237 25.9699 0.0000 5.3368 0.0000
# 3 19.1945 25.9699 43.9290 0.0000 5.5459 0.0000
# 4 0.0000 0.0000 0.0000 6.1743 0.0000 10.7133
# 5 10.5535 5.3368 5.5459 0.0000 25.2054 0.0000
# 6 0.0000 0.0000 0.0000 10.7133 0.0000 28.0759
#
#
#
# Elastic Compliance Matrix: (Units=1/GPa)
#
#
# Indices 1 2 3 4 5 6 
#
# 1 0.008410 -0.006095 0.000216 0.000000 -0.002278 0.000000
# 2 -0.006095 0.022054 -0.010396 0.000000 0.000170 0.000000
# 3 0.000216 -0.010396 0.029365 0.000000 -0.004350 0.000000
# 4 0.000000 0.000000 0.000000 0.479316 0.000000 -0.182898
# 5 -0.002278 0.000170 -0.004350 0.000000 0.041549 0.000000
# 6 0.000000 0.000000 0.000000 -0.182898 0.000000 0.105408
#
#
# Mechanical properties :
#
#
# Convention : Reuss Voigt Hill
#
# Bulk Modulus (GPa) = 36.65818 52.49828 44.57823
# Shear Modulus (GPa) = 6.87054 23.73358 15.30206
#
# Velocity S-wave (km/s) = 1.88362 3.50089 2.81107
# Velocity P-wave (km/s) = 4.86429 6.59183 5.79282
#
# Compressibility (1/GPa) = 0.02727904
#
# Stress axis : x y z
#
# Youngs Moduli (GPa) = 118.90686 45.34346 34.05424
#
# Poissons Ratio (x) = 0.27635 -0.00735
# Poissons Ratio (y) = 0.72468 0.35404
# Poissons Ratio (z) = -0.02567 0.47140
#
# Static dielectric constant tensor:
#      x y z
#    x 1.754430 0.000000 0.008720 
#    y 0.000000 1.681570 0.000000 
#    z 0.008720 0.000000 1.662850 
# 
# From -- ./inp_files/146032.got.cif
#   From: 2010.05.17/outbox.cif.g08.bks.cpg/sg15_74_cif.got.tgz:146032.got - 2010.06.03 18:47:42.
