data_PCOD9264103
_publ_section_title
;
Structure prediction by ZEFSAII (Michael W. Deem and Ramdas Pophale) SiO2 
 PCOD9264103
Probable space group: C 2/C
;
_chemical_formula_sum "Si O2"
_cell_formula_units_Z 40
_cell_length_a 5.230694
_cell_length_b 20.483435
_cell_length_c 14.524356
_cell_angle_alpha 90.000000
_cell_angle_beta 84.202567
_cell_angle_gamma 90.000000
_cell_volume 1548.217504
_symmetry_space_group_name_H-M "C 2/C"
_symmetry_group_IT_number 15
_symmetry_cell_setting 'monoclinic'
loop_
_space_group_symop_operation_xyz
x,y,z
-x,y,1/2-z
-x,-y,-z
x,-y,1/2+z
1/2+x,1/2+y,z
1/2-x,1/2+y,1/2-z
1/2-x,1/2-y,-z
1/2+x,1/2-y,1/2+z
loop_
_atom_site_type_symbol
_atom_site_label
_atom_site_fract_x
_atom_site_fract_y
_atom_site_fract_z
Si Si1 0.485178 0.328758 0.043697
Si Si2 0.737734 0.356357 0.271204
Si Si3 0.213671 0.972831 0.121826
Si Si4 0.474684 0.821838 0.561732
Si Si5 0.729690 0.054617 0.098527
O O1 0.336771 0.374162 0.123043
O O2 0.425554 0.254499 0.077756
O O3 0.795096 0.323664 0.024373
O O4 0.309616 0.344606 0.960550
O O5 0.500000 0.313175 0.250000
O O6 0.740700 0.416714 0.199492
O O7 0.000000 0.320515 0.250000
O O8 0.481173 0.010263 0.120401
O O9 0.972387 0.022150 0.140079
O O10 0.204901 0.948223 0.014711
O O11 0.617182 0.872785 0.624233
#
# Coordination Sequence:
#
# PCOD9264103 Si02
#       5
#     8   8   8   8   8
#     4  10  21  36  59  92 123 161 210 265 321 381
#     4  12  23  37  59  88 126 162 207 261 323 389
#     4  10  21  33  54  86 118 160 203 254 311 371
#     4  10  20  37  61  88 122 162 213 268 317 372
#     4  10  19  35  55  82 120 157 208 258 304 364
#
# _framework density 25.836162000000002
#
# number of rings (size 3 to 8) (size 9 to 14) (size 15 to 20)
#    0.000    1.600    0.000    6.000    0.000    3.200 
#    0.000    0.000    0.000    4.800    0.000    0.000 
#    0.000    0.000    0.000    0.000    0.000    3.200 
#
# Total GULP energy -111360.590051 kJ/mol
# GULP energy per Si atom -5568.029503 kJ/mol
# Density = 2.577736 g / cm^3
# Si number density = 25.836162 Si / 1000 Ang^3
#
#
#
# Elastic Constant Matrix: (Units=GPa)
#
#
# Indices 1 2 3 4 5 6 
#
# 1 198.8999 7.0016 23.6163 0.0000 -15.0933 0.0000
# 2 7.0016 88.2518 15.2210 0.0000 8.8313 0.0000
# 3 23.6163 15.2210 65.7508 0.0000 -7.6831 0.0000
# 4 0.0000 0.0000 0.0000 32.1507 0.0000 -1.3104
# 5 -15.0933 8.8313 -7.6831 0.0000 27.9608 0.0000
# 6 0.0000 0.0000 0.0000 -1.3104 0.0000 25.0475
#
#
#
# Elastic Compliance Matrix: (Units=1/GPa)
#
#
# Indices 1 2 3 4 5 6 
#
# 1 0.005426 -0.000429 -0.001541 0.000000 0.002641 0.000000
# 2 -0.000429 0.012446 -0.003320 0.000000 -0.005075 0.000000
# 3 -0.001541 -0.003320 0.017106 0.000000 0.004917 0.000000
# 4 0.000000 0.000000 0.000000 0.031170 0.000000 0.001631
# 5 0.002641 -0.005075 0.004917 0.000000 0.040144 0.000000
# 6 0.000000 0.000000 0.000000 0.001631 0.000000 0.040009
#
#
# Mechanical properties :
#
#
# Convention : Reuss Voigt Hill
#
# Bulk Modulus (GPa) = 40.98814 49.39783 45.19299
# Shear Modulus (GPa) = 30.30054 37.50268 33.90161
#
# Velocity S-wave (km/s) = 3.42833 3.81406 3.62633
# Velocity P-wave (km/s) = 5.61875 6.20945 5.92147
#
# Compressibility (1/GPa) = 0.02439730
#
# Stress axis : x y z
#
# Youngs Moduli (GPa) = 184.29288 80.34910 58.46038
#
# Poissons Ratio (x) = 0.03447 0.09009
# Poissons Ratio (y) = 0.07906 0.19409
# Poissons Ratio (z) = 0.28400 0.26676
#
# Static dielectric constant tensor:
#      x y z
#    x 2.144700 0.000000 0.068280 
#    y 0.000000 2.210950 0.000000 
#    z 0.068280 0.000000 2.174430 
# 
# From -- ./inp_files/129051.got.cif
#   From: 2010.05.17/outbox.cif.g08.bks.cpg/sg15_65_cif.got.tgz:129051.got - 2010.06.03 18:47:42.
