data_PCOD9264502
_publ_section_title
;
Structure prediction by ZEFSAII (Michael W. Deem and Ramdas Pophale) SiO2 
 PCOD9264502
Probable space group: C 2/C
;
_chemical_formula_sum "Si O2"
_cell_formula_units_Z 60
_cell_length_a 19.705948
_cell_length_b 15.451303
_cell_length_c 11.916917
_cell_angle_alpha 90.000000
_cell_angle_beta 125.188689
_cell_angle_gamma 90.000000
_cell_volume 2965.417848
_symmetry_space_group_name_H-M "C 2/C"
_symmetry_group_IT_number 15
_symmetry_cell_setting 'monoclinic'
loop_
_space_group_symop_operation_xyz
x,y,z
-x,y,1/2-z
-x,-y,-z
x,-y,1/2+z
1/2+x,1/2+y,z
1/2-x,1/2+y,1/2-z
1/2-x,1/2-y,-z
1/2+x,1/2-y,1/2+z
loop_
_atom_site_type_symbol
_atom_site_label
_atom_site_fract_x
_atom_site_fract_y
_atom_site_fract_z
Si Si1 0.949546 0.550190 0.358219
Si Si2 0.728896 0.181092 0.728590
Si Si3 0.839551 0.227015 0.535543
Si Si4 0.160669 0.014112 0.715817
Si Si5 0.169144 0.428543 0.376734
Si Si6 0.198558 0.633325 0.146609
Si Si7 0.347555 0.523238 0.539246
Si Si8 0.000000 0.311375 0.750000
O O1 0.910087 0.486141 0.228470
O O2 0.869165 0.596626 0.333458
O O3 0.000000 0.500000 0.500000
O O4 0.005887 0.623774 0.359155
O O5 0.661381 0.217202 0.578296
O O6 0.785361 0.103536 0.730955
O O7 0.685099 0.139763 0.793849
O O8 0.780327 0.267036 0.809967
O O9 0.750000 0.250000 0.500000
O O10 0.846140 0.125760 0.522394
O O11 0.917352 0.255855 0.683000
O O12 0.221945 0.930790 0.769475
O O13 0.118926 0.014125 0.549863
O O14 0.117337 0.007683 0.798856
O O15 0.163224 0.380845 0.488759
O O16 0.253070 0.487007 0.458116
#
# Coordination Sequence:
#
# PCOD9264502 Si02
#       8
#     8   8   8   8   8   8   8   4
#     4  12  23  39  55  83 131 169 205 264 335 395
#     4  11  19  34  60  90 124 163 211 262 319 387
#     4  12  22  39  63  89 127 164 213 273 317 381
#     4  10  20  33  59  93 121 162 217 256 329 381
#     4  10  21  36  58  92 123 166 212 261 324 400
#     4  11  21  36  57  89 125 167 209 262 323 391
#     4  10  19  35  59  88 125 156 211 265 321 377
#     4  12  28  36  62  98 120 168 220 260 326 396
#
# _framework density 20.233236999999999
#
# number of rings (size 3 to 8) (size 9 to 14) (size 15 to 20)
#    0.000    1.067    5.333    3.600    1.867    0.000 
#    0.000    0.000    0.000    0.800    0.000    0.000 
#    0.000    0.000    0.000    0.000    0.000    0.000 
#
# Total GULP energy -167344.658657 kJ/mol
# GULP energy per Si atom -5578.155289 kJ/mol
# Density = 2.018718 g / cm^3
# Si number density = 20.233237 Si / 1000 Ang^3
#
#
#
# Elastic Constant Matrix: (Units=GPa)
#
#
# Indices 1 2 3 4 5 6 
#
# 1 42.8673 17.0098 29.9963 0.0000 -9.7992 0.0000
# 2 17.0098 118.5683 30.3666 0.0000 0.9511 0.0000
# 3 29.9963 30.3666 102.9615 0.0000 -23.6376 0.0000
# 4 0.0000 0.0000 0.0000 30.4193 0.0000 -0.5122
# 5 -9.7992 0.9511 -23.6376 0.0000 34.7950 0.0000
# 6 0.0000 0.0000 0.0000 -0.5122 0.0000 20.3543
#
#
#
# Elastic Compliance Matrix: (Units=1/GPa)
#
#
# Indices 1 2 3 4 5 6 
#
# 1 0.030217 -0.002516 -0.007217 0.000000 0.003676 0.000000
# 2 -0.002516 0.009514 -0.002719 0.000000 -0.002816 0.000000
# 3 -0.007217 -0.002719 0.014416 0.000000 0.007835 0.000000
# 4 0.000000 0.000000 0.000000 0.032888 0.000000 0.000828
# 5 0.003676 -0.002816 0.007835 0.000000 0.035174 0.000000
# 6 0.000000 0.000000 0.000000 0.000828 0.000000 0.049151
#
#
# Mechanical properties :
#
#
# Convention : Reuss Voigt Hill
#
# Bulk Modulus (GPa) = 34.19862 46.57140 40.38501
# Shear Modulus (GPa) = 24.27046 29.58201 26.92623
#
# Velocity S-wave (km/s) = 3.46719 3.82782 3.65196
# Velocity P-wave (km/s) = 5.74172 6.52714 6.14699
#
# Compressibility (1/GPa) = 0.02924095
#
# Stress axis : x y z
#
# Youngs Moduli (GPa) = 33.09432 105.10860 69.36828
#
# Poissons Ratio (x) = 0.26445 0.50065
# Poissons Ratio (y) = 0.08326 0.18865
# Poissons Ratio (z) = 0.23885 0.28584
#
# Static dielectric constant tensor:
#      x y z
#    x 1.542830 0.000000 -0.219670 
#    y 0.000000 1.784380 0.000000 
#    z -0.219670 0.000000 1.654530 
# 
# From -- ./inp_files/112766.got.cif
#   From: 2010.05.17/outbox.cif.g08.bks.cpg/sg15_57_cif.got.tgz:112766.got - 2010.06.03 18:47:42.
