data_PCOD9264342
_publ_section_title
;
Structure prediction by ZEFSAII (Michael W. Deem and Ramdas Pophale) SiO2 
 PCOD9264342
Probable space group: C 2/C
;
_chemical_formula_sum "Si O2"
_cell_formula_units_Z 48
_cell_length_a 16.766071
_cell_length_b 7.932851
_cell_length_c 17.568348
_cell_angle_alpha 90.000000
_cell_angle_beta 122.348230
_cell_angle_gamma 90.000000
_cell_volume 1974.019595
_symmetry_space_group_name_H-M "C 2/C"
_symmetry_group_IT_number 15
_symmetry_cell_setting 'monoclinic'
loop_
_space_group_symop_operation_xyz
x,y,z
-x,y,1/2-z
-x,-y,-z
x,-y,1/2+z
1/2+x,1/2+y,z
1/2-x,1/2+y,1/2-z
1/2-x,1/2-y,-z
1/2+x,1/2-y,1/2+z
loop_
_atom_site_type_symbol
_atom_site_label
_atom_site_fract_x
_atom_site_fract_y
_atom_site_fract_z
Si Si1 0.500115 0.868538 0.836383
Si Si2 0.907670 0.277416 0.247263
Si Si3 0.776990 0.116812 0.931113
Si Si4 0.294029 0.913581 0.482283
Si Si5 0.463992 0.309091 0.465971
Si Si6 0.841322 0.224683 0.374318
O O1 0.500000 0.798013 0.750000
O O2 0.602035 0.914211 0.925075
O O3 0.454936 0.739085 0.873367
O O4 0.443485 0.042111 0.798039
O O5 0.822228 0.318159 0.148125
O O6 0.857621 0.191046 0.294152
O O7 0.000000 0.204811 0.250000
O O8 0.766832 0.062759 0.013109
O O9 0.803261 0.947035 0.894517
O O10 0.868118 0.229552 0.960706
O O11 0.250000 0.750000 0.500000
O O12 0.284532 0.875254 0.387434
O O13 0.500000 0.500000 0.500000
O O14 0.554127 0.216409 0.545496
#
# Coordination Sequence:
#
# PCOD9264342 Si02
#       6
#     8   8   8   8   8   8
#     4  10  19  35  58  83 110 150 190 231 280 332
#     4  11  22  37  57  85 119 148 185 237 283 334
#     4  10  19  37  58  83 113 147 185 238 276 332
#     4   9  17  33  57  81 107 138 190 229 267 328
#     4   9  20  37  57  84 116 146 187 237 279 331
#     4   9  21  38  59  81 112 151 191 230 284 333
#
# _framework density 24.315867000000001
#
# number of rings (size 3 to 8) (size 9 to 14) (size 15 to 20)
#    0.000    2.333    3.333    1.000    2.333    2.667 
#    0.000    5.833    0.000    0.000    0.000    0.000 
#    0.000    0.000    0.000    0.000    0.000    0.000 
#
# Total GULP energy -133812.890241 kJ/mol
# GULP energy per Si atom -5575.537093 kJ/mol
# Density = 2.426052 g / cm^3
# Si number density = 24.315867 Si / 1000 Ang^3
#
#
#
# Elastic Constant Matrix: (Units=GPa)
#
#
# Indices 1 2 3 4 5 6 
#
# 1 147.5943 25.6559 47.8160 0.0000 -23.8460 0.0000
# 2 25.6559 38.8808 32.7457 0.0000 -8.4273 0.0000
# 3 47.8160 32.7457 81.5012 0.0000 -20.2729 0.0000
# 4 0.0000 0.0000 0.0000 27.7124 0.0000 -13.6798
# 5 -23.8460 -8.4273 -20.2729 0.0000 61.5963 0.0000
# 6 0.0000 0.0000 0.0000 -13.6798 0.0000 30.8073
#
#
#
# Elastic Compliance Matrix: (Units=1/GPa)
#
#
# Indices 1 2 3 4 5 6 
#
# 1 0.008663 -0.002150 -0.003766 0.000000 0.001820 0.000000
# 2 -0.002150 0.039410 -0.014637 0.000000 -0.000258 0.000000
# 3 -0.003766 -0.014637 0.021238 0.000000 0.003530 0.000000
# 4 0.000000 0.000000 0.000000 0.046215 0.000000 0.020522
# 5 0.001820 -0.000258 0.003530 0.000000 0.018066 0.000000
# 6 0.000000 0.000000 0.000000 0.020522 0.000000 0.041572
#
#
# Mechanical properties :
#
#
# Convention : Reuss Voigt Hill
#
# Bulk Modulus (GPa) = 35.45468 53.37904 44.41686
# Shear Modulus (GPa) = 22.15607 34.80711 28.48159
#
# Velocity S-wave (km/s) = 3.02185 3.78756 3.42616
# Velocity P-wave (km/s) = 5.17571 6.41307 5.82733
#
# Compressibility (1/GPa) = 0.02820502
#
# Stress axis : x y z
#
# Youngs Moduli (GPa) = 115.43045 25.37437 47.08559
#
# Poissons Ratio (x) = 0.05456 0.17732
# Poissons Ratio (y) = 0.24821 0.68918
# Poissons Ratio (z) = 0.43470 0.37140
#
# Static dielectric constant tensor:
#      x y z
#    x 2.065690 0.000000 -0.090460 
#    y 0.000000 2.078970 0.000000 
#    z -0.090460 0.000000 1.931480 
# 
# From -- ./inp_files/210063.got.cif
#   From: 2010.05.17/outbox.cif.g08.bks.cpg/sg15_106_cif.got.tgz:210063.got - 2010.06.03 18:47:42.
