data_PCOD9264444
_publ_section_title
;
Structure prediction by ZEFSAII (Michael W. Deem and Ramdas Pophale) SiO2 
 PCOD9264444
Probable space group: C 2/C
;
_chemical_formula_sum "Si O2"
_cell_formula_units_Z 56
_cell_length_a 13.315393
_cell_length_b 9.292547
_cell_length_c 23.911859
_cell_angle_alpha 90.000000
_cell_angle_beta 123.877203
_cell_angle_gamma 90.000000
_cell_volume 2456.420328
_symmetry_space_group_name_H-M "C 2/C"
_symmetry_group_IT_number 15
_symmetry_cell_setting 'monoclinic'
loop_
_space_group_symop_operation_xyz
x,y,z
-x,y,1/2-z
-x,-y,-z
x,-y,1/2+z
1/2+x,1/2+y,z
1/2-x,1/2+y,1/2-z
1/2-x,1/2-y,-z
1/2+x,1/2-y,1/2+z
loop_
_atom_site_type_symbol
_atom_site_label
_atom_site_fract_x
_atom_site_fract_y
_atom_site_fract_z
Si Si1 0.180720 0.026215 0.203874
Si Si2 0.048289 0.842315 0.322249
Si Si3 0.690960 0.333474 0.116968
Si Si4 0.591774 0.318356 0.452664
Si Si5 0.824680 0.884597 0.503376
Si Si6 0.094630 0.243225 0.081049
Si Si7 0.217698 0.484256 0.646583
O O1 0.162775 0.150100 0.151119
O O2 0.260465 0.060886 0.282387
O O3 0.244392 0.895984 0.189980
O O4 0.054085 0.960157 0.189721
O O5 0.078626 0.747523 0.386925
O O6 0.000000 0.769307 0.250000
O O7 0.167769 0.925341 0.339226
O O8 0.547586 0.358529 0.078632
O O9 0.708677 0.165968 0.112164
O O10 0.727208 0.420089 0.073973
O O11 0.667449 0.463293 0.463995
O O12 0.632415 0.260644 0.526345
O O13 0.750000 0.750000 0.500000
O O14 0.960885 0.823412 0.541592
O O15 0.105622 0.409290 0.102722
#
# Coordination Sequence:
#
# PCOD9264444 Si02
#       7
#     8   8   8   8   8   8   8
#     4  10  19  40  62  78 118 166 198 231 291 371
#     4   9  19  35  57  84 114 153 198 238 288 356
#     4  10  19  35  59  83 116 154 192 237 299 351
#     4  10  19  38  61  80 116 159 195 235 302 363
#     4  11  20  35  62  86 112 150 204 250 291 353
#     4  11  21  38  61  88 119 156 200 247 297 355
#     4  11  23  34  57  95 118 148 200 253 296 340
#
# _framework density 22.797402000000002
#
# number of rings (size 3 to 8) (size 9 to 14) (size 15 to 20)
#    0.000    1.714    4.286    2.571    0.000    2.857 
#    0.000    2.857    0.000    0.000    0.000    0.000 
#    0.000    0.000    0.000    0.000    0.000    0.000 
#
# Total GULP energy -155882.045786 kJ/mol
# GULP energy per Si atom -5567.215921 kJ/mol
# Density = 2.274551 g / cm^3
# Si number density = 22.797402 Si / 1000 Ang^3
#
#
#
# Elastic Constant Matrix: (Units=GPa)
#
#
# Indices 1 2 3 4 5 6 
#
# 1 29.1857 -9.3998 22.9746 0.0000 -9.6434 0.0000
# 2 -9.3998 32.1740 28.3015 0.0000 -0.5960 0.0000
# 3 22.9746 28.3015 166.0348 0.0000 -45.2273 0.0000
# 4 0.0000 0.0000 0.0000 20.3168 0.0000 -0.6561
# 5 -9.6434 -0.5960 -45.2273 0.0000 32.6283 0.0000
# 6 0.0000 0.0000 0.0000 -0.6561 0.0000 25.1254
#
#
#
# Elastic Compliance Matrix: (Units=1/GPa)
#
#
# Indices 1 2 3 4 5 6 
#
# 1 0.051221 0.024995 -0.011407 0.000000 -0.000217 0.000000
# 2 0.024995 0.052424 -0.016261 0.000000 -0.014196 0.000000
# 3 -0.011407 -0.016261 0.015060 0.000000 0.017207 0.000000
# 4 0.000000 0.000000 0.000000 0.049262 0.000000 0.001286
# 5 -0.000217 -0.014196 0.017207 0.000000 0.054176 0.000000
# 6 0.000000 0.000000 0.000000 0.001286 0.000000 0.039834
#
#
# Mechanical properties :
#
#
# Convention : Reuss Voigt Hill
#
# Bulk Modulus (GPa) = 8.82159 34.57190 21.69675
# Shear Modulus (GPa) = 16.38743 27.98201 22.18472
#
# Velocity S-wave (km/s) = 2.68401 3.50726 3.12288
# Velocity P-wave (km/s) = 3.67194 5.62129 4.74774
#
# Compressibility (1/GPa) = 0.11335821
#
# Stress axis : x y z
#
# Youngs Moduli (GPa) = 19.52315 19.07506 66.39993
#
# Poissons Ratio (x) = -0.47677 0.75743
# Poissons Ratio (y) = -0.48797 1.07976
# Poissons Ratio (z) = 0.22270 0.31019
#
# Static dielectric constant tensor:
#      x y z
#    x 1.874590 0.000000 -0.035860 
#    y 0.000000 1.822320 0.000000 
#    z -0.035860 0.000000 1.929910 
# 
# From -- ./inp_files/273236.got.cif
#   From: 2010.05.17/outbox.cif.g08.bks.cpg/sg15_137_cif.got.tgz:273236.got - 2010.06.03 18:47:42.
