data_PCOD9264877
_publ_section_title
;
Structure prediction by ZEFSAII (Michael W. Deem and Ramdas Pophale) SiO2 
 PCOD9264877
Probable space group: C 2/C
;
_chemical_formula_sum "Si O2"
_cell_formula_units_Z 56
_cell_length_a 11.397244
_cell_length_b 15.817207
_cell_length_c 17.914072
_cell_angle_alpha 90.000000
_cell_angle_beta 56.834476
_cell_angle_gamma 90.000000
_cell_volume 2703.323395
_symmetry_space_group_name_H-M "C 2/C"
_symmetry_group_IT_number 15
_symmetry_cell_setting 'monoclinic'
loop_
_space_group_symop_operation_xyz
x,y,z
-x,y,1/2-z
-x,-y,-z
x,-y,1/2+z
1/2+x,1/2+y,z
1/2-x,1/2+y,1/2-z
1/2-x,1/2-y,-z
1/2+x,1/2-y,1/2+z
loop_
_atom_site_type_symbol
_atom_site_label
_atom_site_fract_x
_atom_site_fract_y
_atom_site_fract_z
Si Si1 0.659283 0.852803 0.834607
Si Si2 0.332401 0.942520 0.813276
Si Si3 0.622815 0.567310 0.961183
Si Si4 0.000000 0.699084 0.750000
Si Si5 0.673044 0.317132 0.579925
Si Si6 0.139645 0.709630 0.093857
Si Si7 0.000000 0.845830 0.250000
Si Si8 0.289932 0.339384 0.206771
O O1 0.706943 0.924558 0.759492
O O2 0.726717 0.857644 0.892267
O O3 0.490825 0.841579 0.897244
O O4 0.706646 0.761898 0.784247
O O5 0.500000 0.950332 0.750000
O O6 0.295518 0.857117 0.871157
O O7 0.259424 0.015397 0.886312
O O8 0.620083 0.639756 0.898831
O O9 0.500000 0.500000 0.000000
O O10 0.621937 0.610286 0.041999
O O11 0.063154 0.760926 0.664785
O O12 0.126090 0.645770 0.744286
O O13 0.750000 0.250000 0.500000
O O14 0.074942 0.785884 0.163885
O O15 0.250000 0.750000 0.000000
O O16 0.128341 0.885078 0.253671
#
# Coordination Sequence:
#
# PCOD9264877 Si02
#       8
#     8   8   8   4   8   8   4   8
#     4   9  19  42  66  91 129 175 235 279 334 423
#     4  10  22  44  65  91 135 179 219 283 360 411
#     4  12  28  41  65 102 142 177 223 302 364 414
#     4  10  22  40  78  94 130 186 242 284 330 412
#     4  11  23  43  69 101 134 181 244 283 342 432
#     4  10  19  35  67  96 122 176 223 281 338 416
#     4  10  20  40  62  94 130 156 236 280 326 398
#     4  10  21  43  65  96 129 178 227 276 344 416
#
# _framework density 20.715243999999998
#
# number of rings (size 3 to 8) (size 9 to 14) (size 15 to 20)
#    0.000    1.714    6.429    0.000    9.000    1.143 
#    2.571    2.857    0.000    0.000    0.000    0.000 
#    0.000    0.000    0.000    0.000    0.000    0.000 
#
# Total GULP energy -156017.227556 kJ/mol
# GULP energy per Si atom -5572.043841 kJ/mol
# Density = 2.066810 g / cm^3
# Si number density = 20.715244 Si / 1000 Ang^3
#
#
#
# Elastic Constant Matrix: (Units=GPa)
#
#
# Indices 1 2 3 4 5 6 
#
# 1 148.9938 22.4155 49.7013 0.0000 31.6003 0.0000
# 2 22.4155 45.8234 23.7419 0.0000 -0.2116 0.0000
# 3 49.7013 23.7419 139.6570 0.0000 -3.4349 0.0000
# 4 0.0000 0.0000 0.0000 35.3336 0.0000 -8.4105
# 5 31.6003 -0.2116 -3.4349 0.0000 33.4888 0.0000
# 6 0.0000 0.0000 0.0000 -8.4105 0.0000 18.7682
#
#
#
# Elastic Compliance Matrix: (Units=1/GPa)
#
#
# Indices 1 2 3 4 5 6 
#
# 1 0.010568 -0.003440 -0.003431 0.000000 -0.010345 0.000000
# 2 -0.003440 0.025053 -0.002959 0.000000 0.003101 0.000000
# 3 -0.003431 -0.002959 0.008986 0.000000 0.004140 0.000000
# 4 0.000000 0.000000 0.000000 0.031681 0.000000 0.014197
# 5 -0.010345 0.003101 0.004140 0.000000 0.040067 0.000000
# 6 0.000000 0.000000 0.000000 0.014197 0.000000 0.059644
#
#
# Mechanical properties :
#
#
# Convention : Reuss Voigt Hill
#
# Bulk Modulus (GPa) = 40.08220 58.46572 49.27396
# Shear Modulus (GPa) = 24.51317 33.42582 28.96950
#
# Velocity S-wave (km/s) = 3.44370 4.02130 3.74366
# Velocity P-wave (km/s) = 5.93323 7.06017 6.52109
#
# Compressibility (1/GPa) = 0.02494873
#
# Stress axis : x y z
#
# Youngs Moduli (GPa) = 94.62795 39.91578 111.28366
#
# Poissons Ratio (x) = 0.13730 0.38176
# Poissons Ratio (y) = 0.32550 0.32924
# Poissons Ratio (z) = 0.32462 0.11809
#
# Static dielectric constant tensor:
#      x y z
#    x 1.900710 0.000000 0.030710 
#    y 0.000000 1.790230 0.000000 
#    z 0.030710 0.000000 1.778900 
# 
# From -- ./inp_files/199477.got.cif
#   From: 2010.05.17/outbox.cif.g08.bks.cpg/sg15_100_cif.got.tgz:199477.got - 2010.06.03 18:47:42.
