data_PCOD9264523
_publ_section_title
;
Structure prediction by ZEFSAII (Michael W. Deem and Ramdas Pophale) SiO2 
 PCOD9264523
Probable space group: C 2/C
;
_chemical_formula_sum "Si O2"
_cell_formula_units_Z 48
_cell_length_a 11.027021
_cell_length_b 22.220607
_cell_length_c 17.444371
_cell_angle_alpha 90.000000
_cell_angle_beta 30.430365
_cell_angle_gamma 90.000000
_cell_volume 2164.915723
_symmetry_space_group_name_H-M "C 2/C"
_symmetry_group_IT_number 15
_symmetry_cell_setting 'monoclinic'
loop_
_space_group_symop_operation_xyz
x,y,z
-x,y,1/2-z
-x,-y,-z
x,-y,1/2+z
1/2+x,1/2+y,z
1/2-x,1/2+y,1/2-z
1/2-x,1/2-y,-z
1/2+x,1/2-y,1/2+z
loop_
_atom_site_type_symbol
_atom_site_label
_atom_site_fract_x
_atom_site_fract_y
_atom_site_fract_z
Si Si1 0.490253 0.213164 0.064539
Si Si2 0.134302 0.403140 0.407885
Si Si3 0.836082 0.933076 0.915796
Si Si4 0.366274 0.437891 0.437805
Si Si5 0.755101 0.674809 0.424880
Si Si6 0.453773 0.298298 0.866987
O O1 0.691354 0.191866 0.015647
O O2 0.228088 0.210482 0.244671
O O3 0.530819 0.164382 0.975705
O O4 0.545971 0.281420 0.011438
O O5 0.180070 0.429881 0.467994
O O6 0.386199 0.409313 0.228131
O O7 0.933910 0.435926 0.467835
O O8 0.881386 0.867034 0.925637
O O9 0.000000 0.938214 0.750000
O O10 0.891431 0.991149 0.936841
O O11 0.292409 0.396062 0.548647
O O12 0.000000 0.689805 0.250000
O O13 0.500000 0.294427 0.750000
O O14 0.250000 0.250000 0.000000
#
# Coordination Sequence:
#
# PCOD9264523 Si02
#       6
#     8   8   8   8   8   8
#     4  10  22  38  61  88 121 158 205 253 302 365
#     4  10  19  35  59  91 119 143 200 251 299 350
#     4  11  20  37  60  92 119 153 198 257 306 359
#     4  10  22  34  61  89 117 155 196 250 307 354
#     4  10  24  37  58  86 123 165 198 250 304 367
#     4  11  25  41  63  91 123 163 205 258 318 369
#
# _framework density 22.171764
#
# number of rings (size 3 to 8) (size 9 to 14) (size 15 to 20)
#    0.000    1.667    5.000    0.500   11.667    0.000 
#    0.000    0.833    0.000    2.000    0.000    0.000 
#    0.000    0.000    0.000    0.000    0.000    0.000 
#
# Total GULP energy -133957.982285 kJ/mol
# GULP energy per Si atom -5581.582595 kJ/mol
# Density = 2.212130 g / cm^3
# Si number density = 22.171764 Si / 1000 Ang^3
#
#
#
# Elastic Constant Matrix: (Units=GPa)
#
#
# Indices 1 2 3 4 5 6 
#
# 1 16.4796 15.2043 16.6638 0.0161 -9.7600 -0.0098
# 2 15.2043 201.0536 65.4319 0.1081 -13.4049 -0.0124
# 3 16.6638 65.4319 86.8446 -0.0150 -34.6833 0.0094
# 4 0.0161 0.1081 -0.0150 -9.1795 0.0539 0.2743
# 5 -9.7600 -13.4049 -34.6833 0.0539 26.7019 -0.0098
# 6 -0.0098 -0.0124 0.0094 0.2743 -0.0098 20.9044
#
#
#
# Elastic Compliance Matrix: (Units=1/GPa)
#
#
# Indices 1 2 3 4 5 6 
#
# 1 0.081324 -0.003346 -0.003913 0.000246 0.022963 0.000045
# 2 -0.003346 0.007324 -0.008096 0.000046 -0.008062 0.000002
# 3 -0.003913 -0.008096 0.033602 0.000067 0.038151 -0.000005
# 4 0.000246 0.000046 0.000067 -0.108893 0.000420 0.001429
# 5 0.022963 -0.008062 0.038151 0.000420 0.091350 0.000026
# 6 0.000045 0.000002 -0.000005 0.001429 0.000026 0.047818
#
#
# Mechanical properties :
#
#
# Convention : Reuss Voigt Hill
#
# Bulk Modulus (GPa) = 10.92410 55.44196 33.18303
# Shear Modulus (GPa) = 23.39189 21.49056 22.44122
#
# Velocity S-wave (km/s) = 3.25165 3.11670 3.18489
# Velocity P-wave (km/s) = 4.36295 6.16536 5.34074
#
# Compressibility (1/GPa) = 0.09154069
#
# Stress axis : x y z
#
# Youngs Moduli (GPa) = 12.29648 136.53611 29.76003
#
# Poissons Ratio (x) = 0.45680 0.11645
# Poissons Ratio (y) = 0.04114 0.24094
# Poissons Ratio (z) = 0.04812 1.10541
#
# Static dielectric constant tensor:
#      x y z
#    x 1.906020 0.000000 -0.035650 
#    y 0.000000 1.908080 0.000010 
#    z -0.035650 0.000010 1.783990 
# 
# From -- ./inp_files/275047.got.cif
#   From: 2010.05.17/outbox.cif.g08.bks.cpg/sg15_138_cif.got.tgz:275047.got - 2010.06.03 18:47:42.
