data_PCOD9264730
_publ_section_title
;
Structure prediction by ZEFSAII (Michael W. Deem and Ramdas Pophale) SiO2 
 PCOD9264730
Probable space group: C 2/C
;
_chemical_formula_sum "Si O2"
_cell_formula_units_Z 52
_cell_length_a 8.842154
_cell_length_b 19.568289
_cell_length_c 28.002732
_cell_angle_alpha 90.000000
_cell_angle_beta 146.511803
_cell_angle_gamma 90.000000
_cell_volume 2673.410393
_symmetry_space_group_name_H-M "C 2/C"
_symmetry_group_IT_number 15
_symmetry_cell_setting 'monoclinic'
loop_
_space_group_symop_operation_xyz
x,y,z
-x,y,1/2-z
-x,-y,-z
x,-y,1/2+z
1/2+x,1/2+y,z
1/2-x,1/2+y,1/2-z
1/2-x,1/2-y,-z
1/2+x,1/2-y,1/2+z
loop_
_atom_site_type_symbol
_atom_site_label
_atom_site_fract_x
_atom_site_fract_y
_atom_site_fract_z
Si Si1 0.500000 0.253719 0.250000
Si Si2 0.100493 0.356343 0.192700
Si Si3 0.247139 0.759139 0.845097
Si Si4 0.898194 0.182703 0.419793
Si Si5 0.884655 0.676718 0.478297
Si Si6 0.044712 0.132275 0.886836
Si Si7 0.058554 0.925764 0.035766
O O1 0.255747 0.305735 0.197862
O O2 0.611929 0.205515 0.321233
O O3 0.321217 0.386757 0.287752
O O4 0.912794 0.303565 0.172243
O O5 0.882195 0.408357 0.113896
O O6 0.347302 0.809906 0.912071
O O7 0.481859 0.714018 0.880801
O O8 0.000000 0.792258 0.750000
O O9 0.032858 0.249874 0.478306
O O10 0.106501 0.157429 0.432756
O O11 0.887932 0.127446 0.458692
O O12 0.148515 0.628479 0.552711
O O13 0.008055 0.089529 0.925987
O O14 0.000000 0.000000 0.000000
#
# Coordination Sequence:
#
# PCOD9264730 Si02
#       7
#     4   8   8   8   8   8   8
#     4  12  20  36  62  98 126 148 194 266 336 362
#     4  10  19  35  62  90 117 157 200 254 307 368
#     4   9  17  28  49  85 122 148 184 234 299 369
#     4  11  22  35  56  91 126 153 190 260 318 366
#     4  11  18  34  58  91 124 145 193 256 326 362
#     4  10  20  34  61  89 113 160 202 250 302 370
#     4  11  24  43  59  82 124 175 217 244 291 370
#
# _framework density 19.450813
#
# number of rings (size 3 to 8) (size 9 to 14) (size 15 to 20)
#    0.000    1.538    6.154    2.769    0.000    0.000 
#    2.769    0.769    0.000    0.000    0.000    0.000 
#    0.000    0.000    0.000    0.000    0.000    0.000 
#
# Total GULP energy -144973.049384 kJ/mol
# GULP energy per Si atom -5575.886515 kJ/mol
# Density = 1.940654 g / cm^3
# Si number density = 19.450813 Si / 1000 Ang^3
#
#
#
# Elastic Constant Matrix: (Units=GPa)
#
#
# Indices 1 2 3 4 5 6 
#
# 1 43.2008 10.7542 18.9037 -0.0003 5.2841 0.0002
# 2 10.7542 59.0026 42.4507 -0.0005 -12.0941 -0.0002
# 3 18.9037 42.4507 121.7359 0.0007 -19.6072 0.0001
# 4 -0.0003 -0.0005 0.0007 23.0542 -0.0001 -1.9772
# 5 5.2841 -12.0941 -19.6072 -0.0001 40.7354 0.0001
# 6 0.0002 -0.0002 0.0001 -1.9772 0.0001 11.6395
#
#
#
# Elastic Compliance Matrix: (Units=1/GPa)
#
#
# Indices 1 2 3 4 5 6 
#
# 1 0.026479 -0.003246 -0.003998 0.000000 -0.006323 0.000000
# 2 -0.003246 0.023405 -0.007014 0.000001 0.003994 0.000001
# 3 -0.003998 -0.007014 0.011956 -0.000001 0.004191 0.000000
# 4 0.000000 0.000001 -0.000001 0.044017 0.000000 0.007477
# 5 -0.006323 0.003994 0.004191 0.000000 0.028572 0.000000
# 6 0.000000 0.000001 0.000000 0.007477 0.000000 0.087184
#
#
# Mechanical properties :
#
#
# Convention : Reuss Voigt Hill
#
# Bulk Modulus (GPa) = 30.00872 40.90629 35.45750
# Shear Modulus (GPa) = 19.13961 25.20788 22.17375
#
# Velocity S-wave (km/s) = 3.14028 3.60388 3.38004
# Velocity P-wave (km/s) = 5.34883 6.19625 5.78807
#
# Compressibility (1/GPa) = 0.03332364
#
# Stress axis : x y z
#
# Youngs Moduli (GPa) = 37.76637 42.72538 83.63689
#
# Poissons Ratio (x) = 0.13867 0.33441
# Poissons Ratio (y) = 0.12257 0.58667
# Poissons Ratio (z) = 0.15100 0.29970
#
# Static dielectric constant tensor:
#      x y z
#    x 1.974920 0.000000 0.027100 
#    y 0.000000 1.647120 0.000000 
#    z 0.027100 0.000000 1.770540 
# 
# From -- ./inp_files/135994.got.cif
#   From: 2010.05.17/outbox.cif.g08.bks.cpg/sg15_68_cif.got.tgz:135994.got - 2010.06.03 18:47:42.
