data_PCOD9264879
_publ_section_title
;
Structure prediction by ZEFSAII (Michael W. Deem and Ramdas Pophale) SiO2 
 PCOD9264879
Probable space group: C 2/C
;
_chemical_formula_sum "Si O2"
_cell_formula_units_Z 48
_cell_length_a 9.742193
_cell_length_b 16.265310
_cell_length_c 15.186427
_cell_angle_alpha 90.000000
_cell_angle_beta 70.161243
_cell_angle_gamma 90.000000
_cell_volume 2263.619339
_symmetry_space_group_name_H-M "C 2/C"
_symmetry_group_IT_number 15
_symmetry_cell_setting 'monoclinic'
loop_
_space_group_symop_operation_xyz
x,y,z
-x,y,1/2-z
-x,-y,-z
x,-y,1/2+z
1/2+x,1/2+y,z
1/2-x,1/2+y,1/2-z
1/2-x,1/2-y,-z
1/2+x,1/2-y,1/2+z
loop_
_atom_site_type_symbol
_atom_site_label
_atom_site_fract_x
_atom_site_fract_y
_atom_site_fract_z
Si Si1 0.337110 0.392727 0.563748
Si Si2 0.164539 0.134292 0.242331
Si Si3 0.828872 0.936188 0.268439
Si Si4 0.902636 0.415676 0.027352
Si Si5 0.367709 0.415456 0.071513
Si Si6 0.809435 0.670014 0.033855
O O1 0.316105 0.344642 0.659309
O O2 0.190475 0.400123 0.540280
O O3 0.478629 0.368717 0.475329
O O4 0.384459 0.486272 0.578237
O O5 0.269712 0.169925 0.145099
O O6 0.000000 0.154813 0.250000
O O7 0.182797 0.035544 0.231327
O O8 0.714737 0.913876 0.368803
O O9 0.794250 0.894944 0.181166
O O10 0.000000 0.917928 0.250000
O O11 0.000000 0.500000 0.000000
O O12 0.021091 0.345095 0.014997
O O13 0.276155 0.400704 0.002695
O O14 0.750000 0.750000 0.000000
#
# Coordination Sequence:
#
# PCOD9264879 Si02
#       6
#     8   8   8   8   8   8
#     4  10  19  35  70  96 125 165 232 293 330 393
#     4  10  19  37  67  94 124 176 223 275 344 415
#     4  10  19  35  67  98 128 162 220 289 347 389
#     4  12  22  40  64 102 137 169 231 298 338 399
#     4  10  19  37  63  96 126 171 220 280 344 393
#     4  12  26  44  61  92 143 185 222 274 357 431
#
# _framework density 21.204978000000001
#
# number of rings (size 3 to 8) (size 9 to 14) (size 15 to 20)
#    0.000    1.333    6.667    0.000    0.000    1.333 
#    3.000    0.833    3.667    0.000    0.000    0.000 
#    0.000    0.000    0.000    0.000    0.000    0.000 
#
# Total GULP energy -133885.563206 kJ/mol
# GULP energy per Si atom -5578.565134 kJ/mol
# Density = 2.115671 g / cm^3
# Si number density = 21.204978 Si / 1000 Ang^3
#
#
#
# Elastic Constant Matrix: (Units=GPa)
#
#
# Indices 1 2 3 4 5 6 
#
# 1 129.8440 12.2032 66.4786 0.0000 -9.2431 0.0000
# 2 12.2032 28.1134 24.9430 0.0000 -6.9763 0.0000
# 3 66.4786 24.9430 196.9504 0.0000 -7.5504 0.0000
# 4 0.0000 0.0000 0.0000 8.0139 0.0000 5.1777
# 5 -9.2431 -6.9763 -7.5504 0.0000 40.3663 0.0000
# 6 0.0000 0.0000 0.0000 5.1777 0.0000 20.4435
#
#
#
# Elastic Compliance Matrix: (Units=1/GPa)
#
#
# Indices 1 2 3 4 5 6 
#
# 1 0.009437 -0.001090 -0.002993 0.000000 0.001413 0.000000
# 2 -0.001090 0.041706 -0.004681 0.000000 0.006083 0.000000
# 3 -0.002993 -0.004681 0.006671 0.000000 -0.000247 0.000000
# 4 0.000000 0.000000 0.000000 0.149198 0.000000 -0.037787
# 5 0.001413 0.006083 -0.000247 0.000000 0.026102 0.000000
# 6 0.000000 0.000000 0.000000 -0.037787 0.000000 0.058486
#
#
# Mechanical properties :
#
#
# Convention : Reuss Voigt Hill
#
# Bulk Modulus (GPa) = 24.82265 62.46193 43.64229
# Shear Modulus (GPa) = 15.50121 30.51692 23.00907
#
# Velocity S-wave (km/s) = 2.70667 3.79771 3.29763
# Velocity P-wave (km/s) = 4.63676 6.98215 5.92663
#
# Compressibility (1/GPa) = 0.04028579
#
# Stress axis : x y z
#
# Youngs Moduli (GPa) = 105.96561 23.97750 149.90093
#
# Poissons Ratio (x) = 0.02614 0.44868
# Poissons Ratio (y) = 0.11552 0.70164
# Poissons Ratio (z) = 0.31717 0.11223
#
# Static dielectric constant tensor:
#      x y z
#    x 1.800940 0.000000 -0.013240 
#    y 0.000000 1.899510 0.000000 
#    z -0.013240 0.000000 1.863580 
# 
# From -- ./inp_files/135902.got.cif
#   From: 2010.05.17/outbox.cif.g08.bks.cpg/sg15_68_cif.got.tgz:135902.got - 2010.06.03 18:47:42.
