data_PCOD9264739
_publ_section_title
;
Structure prediction by ZEFSAII (Michael W. Deem and Ramdas Pophale) SiO2 
 PCOD9264739
Probable space group: C 2/C
;
_chemical_formula_sum "Si O2"
_cell_formula_units_Z 40
_cell_length_a 12.371291
_cell_length_b 9.065878
_cell_length_c 18.040068
_cell_angle_alpha 90.000000
_cell_angle_beta 134.304878
_cell_angle_gamma 90.000000
_cell_volume 1447.950070
_symmetry_space_group_name_H-M "C 2/C"
_symmetry_group_IT_number 15
_symmetry_cell_setting 'monoclinic'
loop_
_space_group_symop_operation_xyz
x,y,z
-x,y,1/2-z
-x,-y,-z
x,-y,1/2+z
1/2+x,1/2+y,z
1/2-x,1/2+y,1/2-z
1/2-x,1/2-y,-z
1/2+x,1/2-y,1/2+z
loop_
_atom_site_type_symbol
_atom_site_label
_atom_site_fract_x
_atom_site_fract_y
_atom_site_fract_z
Si Si1 0.339724 0.277128 0.362650
Si Si2 0.330782 0.956772 0.386447
Si Si3 0.610700 0.579824 0.915707
Si Si4 0.850825 0.494771 0.144695
Si Si5 0.982354 0.755805 0.596567
O O1 0.281526 0.110592 0.326159
O O2 0.474209 0.312768 0.370550
O O3 0.227578 0.411934 0.324694
O O4 0.407485 0.274123 0.479926
O O5 0.211420 0.912149 0.391115
O O6 0.500000 0.000000 0.500000
O O7 0.357227 0.814907 0.347760
O O8 0.539395 0.415529 0.879505
O O9 0.730149 0.587869 0.041097
O O10 0.000000 0.568221 0.250000
O O11 0.903128 0.366094 0.111227
#
# Coordination Sequence:
#
# PCOD9264739 Si02
#       5
#     8   8   8   8   8
#     4  10  20  38  63  90 112 154 206 240 286 355
#     4  10  19  35  62  92 113 144 203 249 285 338
#     4  11  20  40  65  89 114 154 210 243 283 359
#     4  11  20  36  60  87 122 161 191 243 308 345
#     4  10  19  37  62  85 118 151 197 244 286 351
#
# _framework density 27.625260999999998
#
# number of rings (size 3 to 8) (size 9 to 14) (size 15 to 20)
#    0.000    1.600    6.000    3.600    0.000    3.200 
#    3.600    4.000    0.000    0.000    0.000    5.600 
#    0.000    0.000    0.000    0.000    0.000    0.000 
#
# Total GULP energy -112036.733753 kJ/mol
# GULP energy per Si atom -5601.836688 kJ/mol
# Density = 2.756238 g / cm^3
# Si number density = 27.625261 Si / 1000 Ang^3
#
#
#
# Elastic Constant Matrix: (Units=GPa)
#
#
# Indices 1 2 3 4 5 6 
#
# 1 252.7061 79.7227 45.5707 0.0000 22.9964 0.0000
# 2 79.7227 120.0826 14.8542 0.0000 3.8082 0.0000
# 3 45.5707 14.8542 91.0300 0.0000 22.5194 0.0000
# 4 0.0000 0.0000 0.0000 22.2530 0.0000 1.6741
# 5 22.9964 3.8082 22.5194 0.0000 41.2669 0.0000
# 6 0.0000 0.0000 0.0000 1.6741 0.0000 50.9611
#
#
#
# Elastic Compliance Matrix: (Units=1/GPa)
#
#
# Indices 1 2 3 4 5 6 
#
# 1 0.005504 -0.003379 -0.001760 0.000000 -0.001795 0.000000
# 2 -0.003379 0.010574 -0.000298 0.000000 0.001070 0.000000
# 3 -0.001760 -0.000298 0.013486 0.000000 -0.006351 0.000000
# 4 0.000000 0.000000 0.000000 0.045049 0.000000 -0.001480
# 5 -0.001795 0.001070 -0.006351 0.000000 0.028600 0.000000
# 6 0.000000 0.000000 0.000000 -0.001480 0.000000 0.019671
#
#
# Mechanical properties :
#
#
# Convention : Reuss Voigt Hill
#
# Bulk Modulus (GPa) = 53.50771 82.67931 68.09351
# Shear Modulus (GPa) = 35.71682 44.47430 40.09556
#
# Velocity S-wave (km/s) = 3.59960 4.01673 3.81387
# Velocity P-wave (km/s) = 6.05701 7.17677 6.64053
#
# Compressibility (1/GPa) = 0.01868890
#
# Stress axis : x y z
#
# Youngs Moduli (GPa) = 181.68570 94.56970 74.14928
#
# Poissons Ratio (x) = 0.31960 0.13049
# Poissons Ratio (y) = 0.61400 0.02213
# Poissons Ratio (z) = 0.31974 0.02823
#
# Static dielectric constant tensor:
#      x y z
#    x 2.075420 0.000000 0.015050 
#    y 0.000000 2.169340 0.000000 
#    z 0.015050 0.000000 2.388280 
# 
# From -- ./inp_files/268295.got.cif
#   From: 2010.05.17/outbox.cif.g08.bks.cpg/sg15_135_cif.got.tgz:268295.got - 2010.06.03 18:47:42.
