data_PCOD9264415
_publ_section_title
;
Structure prediction by ZEFSAII (Michael W. Deem and Ramdas Pophale) SiO2 
 PCOD9264415
Probable space group: C 2/C
;
_chemical_formula_sum "Si O2"
_cell_formula_units_Z 48
_cell_length_a 12.283539
_cell_length_b 8.295054
_cell_length_c 21.115114
_cell_angle_alpha 90.000000
_cell_angle_beta 62.753559
_cell_angle_gamma 90.000000
_cell_volume 1912.758695
_symmetry_space_group_name_H-M "C 2/C"
_symmetry_group_IT_number 15
_symmetry_cell_setting 'monoclinic'
loop_
_space_group_symop_operation_xyz
x,y,z
-x,y,1/2-z
-x,-y,-z
x,-y,1/2+z
1/2+x,1/2+y,z
1/2-x,1/2+y,1/2-z
1/2-x,1/2-y,-z
1/2+x,1/2-y,1/2+z
loop_
_atom_site_type_symbol
_atom_site_label
_atom_site_fract_x
_atom_site_fract_y
_atom_site_fract_z
Si Si1 0.753680 0.110846 0.736480
Si Si2 0.328877 0.601281 0.920637
Si Si3 0.054157 0.289939 0.512087
Si Si4 0.117491 0.577629 0.173232
Si Si5 0.868130 0.105405 0.293473
Si Si6 0.524611 0.916082 0.391001
O O1 0.762020 0.779834 0.794686
O O2 0.646060 0.112098 0.817912
O O3 0.868897 0.049876 0.745677
O O4 0.725648 0.981848 0.689161
O O5 0.416865 0.626792 0.957661
O O6 0.354447 0.759427 0.870831
O O7 0.349309 0.450944 0.869773
O O8 0.186902 0.619221 0.976902
O O9 0.968854 0.411359 0.574256
O O10 0.012593 0.287189 0.450450
O O11 0.084235 0.442438 0.129864
O O12 0.000000 0.595516 0.250000
O O13 0.000000 0.187167 0.250000
#
# Coordination Sequence:
#
# PCOD9264415 Si02
#       6
#     8   8   8   8   8   8
#     4  11  23  40  65  92 128 166 210 273 326 374
#     4  10  19  35  58  93 128 166 215 263 320 378
#     4   9  18  32  59  93 125 169 217 257 308 393
#     4   9  18  34  60  90 124 166 213 268 325 382
#     4  12  25  42  65  99 130 166 214 271 327 380
#     4   9  17  35  59  93 120 168 220 255 312 384
#
# _framework density 25.094643000000001
#
# number of rings (size 3 to 8) (size 9 to 14) (size 15 to 20)
#    0.000    2.000    1.667    3.000    0.000    2.667 
#    0.000    0.833    0.000   20.000    0.000    0.000 
#    0.000    0.000    0.000    0.000    0.000    0.000 
#
# Total GULP energy -134253.996153 kJ/mol
# GULP energy per Si atom -5593.916506 kJ/mol
# Density = 2.503753 g / cm^3
# Si number density = 25.094643 Si / 1000 Ang^3
#
#
#
# Elastic Constant Matrix: (Units=GPa)
#
#
# Indices 1 2 3 4 5 6 
#
# 1 79.6480 13.6384 24.7107 0.0000 27.8609 0.0000
# 2 13.6384 71.6009 30.4052 0.0000 -3.4786 0.0000
# 3 24.7107 30.4052 123.9462 0.0000 15.3163 0.0000
# 4 0.0000 0.0000 0.0000 21.1311 0.0000 4.8583
# 5 27.8609 -3.4786 15.3163 0.0000 35.6066 0.0000
# 6 0.0000 0.0000 0.0000 4.8583 0.0000 33.1349
#
#
#
# Elastic Compliance Matrix: (Units=1/GPa)
#
#
# Indices 1 2 3 4 5 6 
#
# 1 0.018584 -0.003831 -0.000974 0.000000 -0.014497 0.000000
# 2 -0.003831 0.016767 -0.004142 0.000000 0.006417 0.000000
# 3 -0.000974 -0.004142 0.009753 0.000000 -0.003838 0.000000
# 4 0.000000 0.000000 0.000000 0.048975 0.000000 -0.007181
# 5 -0.014497 0.006417 -0.003838 0.000000 0.041706 0.000000
# 6 0.000000 0.000000 0.000000 -0.007181 0.000000 0.031233
#
#
# Mechanical properties :
#
#
# Convention : Reuss Voigt Hill
#
# Bulk Modulus (GPa) = 36.75146 45.85597 41.30372
# Shear Modulus (GPa) = 25.77581 31.73725 28.75653
#
# Velocity S-wave (km/s) = 3.20839 3.56012 3.38882
# Velocity P-wave (km/s) = 5.32935 5.93399 5.63977
#
# Compressibility (1/GPa) = 0.02720980
#
# Stress axis : x y z
#
# Youngs Moduli (GPa) = 53.80867 59.64188 102.53694
#
# Poissons Ratio (x) = 0.22846 0.09987
# Poissons Ratio (y) = 0.20612 0.42474
# Poissons Ratio (z) = 0.05241 0.24706
#
# Static dielectric constant tensor:
#      x y z
#    x 1.987900 0.000000 0.036600 
#    y 0.000000 2.059340 0.000000 
#    z 0.036600 0.000000 1.960190 
# 
# From -- ./inp_files/236578.got.cif
#   From: 2010.05.17/outbox.cif.g08.bks.cpg/sg15_119_cif.got.tgz:236578.got - 2010.06.03 18:47:42.
