data_PCOD9264436
_publ_section_title
;
Structure prediction by ZEFSAII (Michael W. Deem and Ramdas Pophale) SiO2 
 PCOD9264436
Probable space group: C 2/C
;
_chemical_formula_sum "Si O2"
_cell_formula_units_Z 56
_cell_length_a 18.723280
_cell_length_b 14.133712
_cell_length_c 12.626009
_cell_angle_alpha 90.000000
_cell_angle_beta 123.432301
_cell_angle_gamma 90.000000
_cell_volume 2788.367837
_symmetry_space_group_name_H-M "C 2/C"
_symmetry_group_IT_number 15
_symmetry_cell_setting 'monoclinic'
loop_
_space_group_symop_operation_xyz
x,y,z
-x,y,1/2-z
-x,-y,-z
x,-y,1/2+z
1/2+x,1/2+y,z
1/2-x,1/2+y,1/2-z
1/2-x,1/2-y,-z
1/2+x,1/2-y,1/2+z
loop_
_atom_site_type_symbol
_atom_site_label
_atom_site_fract_x
_atom_site_fract_y
_atom_site_fract_z
Si Si1 0.507191 0.390631 0.970907
Si Si2 0.655626 0.201035 0.429931
Si Si3 0.700754 0.131325 0.686575
Si Si4 0.641995 0.549826 0.415349
Si Si5 0.679183 0.325965 0.755844
Si Si6 0.784346 0.448550 0.677329
Si Si7 0.892739 0.868001 0.243972
O O1 0.574350 0.392722 0.929863
O O2 0.417272 0.348572 0.861777
O O3 0.500000 0.500000 0.000000
O O4 0.546021 0.345470 0.108204
O O5 0.750000 0.250000 0.500000
O O6 0.644707 0.166122 0.540702
O O7 0.656408 0.110400 0.353739
O O8 0.600661 0.285604 0.337144
O O9 0.696512 0.214860 0.768684
O O10 0.797307 0.123972 0.718197
O O11 0.676826 0.032390 0.720322
O O12 0.689397 0.620583 0.374697
O O13 0.708509 0.496147 0.546029
O O14 0.597293 0.468364 0.307321
O O15 0.741515 0.373012 0.720815
#
# Coordination Sequence:
#
# PCOD9264436 Si02
#       7
#     8   8   8   8   8   8   8
#     4  12  23  35  54  88 126 157 189 245 310 370
#     4  10  19  35  59  82 115 157 200 248 280 352
#     4  11  21  38  55  86 120 153 200 247 294 351
#     4  12  20  34  56  86 121 157 191 238 311 360
#     4  12  23  35  56  85 126 155 193 250 299 362
#     4  12  19  36  60  85 116 156 202 245 297 347
#     4  11  20  35  59  83 116 158 195 243 292 365
#
# _framework density 20.083434
#
# number of rings (size 3 to 8) (size 9 to 14) (size 15 to 20)
#    0.000    0.571   11.429    0.429    0.000    0.571 
#    0.000    0.000    0.000    0.857    0.000    0.000 
#    0.000    0.000    0.000    0.000    0.000    0.000 
#
# Total GULP energy -156508.601351 kJ/mol
# GULP energy per Si atom -5589.592905 kJ/mol
# Density = 2.003772 g / cm^3
# Si number density = 20.083434 Si / 1000 Ang^3
#
#
#
# Elastic Constant Matrix: (Units=GPa)
#
#
# Indices 1 2 3 4 5 6 
#
# 1 33.6518 11.7967 -4.8866 0.0000 -11.7947 0.0000
# 2 11.7967 99.8587 12.5663 0.0000 -16.0398 0.0000
# 3 -4.8866 12.5663 47.0328 0.0000 -9.2031 0.0000
# 4 0.0000 0.0000 0.0000 40.2365 0.0000 -13.7192
# 5 -11.7947 -16.0398 -9.2031 0.0000 22.8515 0.0000
# 6 0.0000 0.0000 0.0000 -13.7192 0.0000 15.7578
#
#
#
# Elastic Compliance Matrix: (Units=1/GPa)
#
#
# Indices 1 2 3 4 5 6 
#
# 1 0.039762 -0.002210 0.009155 0.000000 0.022659 0.000000
# 2 -0.002210 0.011520 -0.002115 0.000000 0.006094 0.000000
# 3 0.009155 -0.002115 0.025415 0.000000 0.013476 0.000000
# 4 0.000000 0.000000 0.000000 0.035345 0.000000 0.030773
# 5 0.022659 0.006094 0.013476 0.000000 0.065161 0.000000
# 6 0.000000 0.000000 0.000000 0.030773 0.000000 0.090253
#
#
# Mechanical properties :
#
#
# Convention : Reuss Voigt Hill
#
# Bulk Modulus (GPa) = 11.57969 24.38848 17.98409
# Shear Modulus (GPa) = 17.44706 26.50694 21.97700
#
# Velocity S-wave (km/s) = 2.95062 3.63690 3.31159
# Velocity P-wave (km/s) = 4.16971 5.45949 4.85760
#
# Compressibility (1/GPa) = 0.08635806
#
# Stress axis : x y z
#
# Youngs Moduli (GPa) = 25.14965 86.80414 39.34676
#
# Poissons Ratio (x) = 0.19182 -0.36023
# Poissons Ratio (y) = 0.05557 0.08323
# Poissons Ratio (z) = -0.23025 0.18361
#
# Static dielectric constant tensor:
#      x y z
#    x 1.739670 0.000000 0.004100 
#    y 0.000000 1.703840 0.000000 
#    z 0.004100 0.000000 1.772020 
# 
# From -- ./inp_files/105784.got.cif
#   From: 2010.05.17/outbox.cif.g08.bks.cpg/sg15_53_cif.got.tgz:105784.got - 2010.06.03 18:47:42.
