data_PCOD9264741
_publ_section_title
;
Structure prediction by ZEFSAII (Michael W. Deem and Ramdas Pophale) SiO2 
 PCOD9264741
Probable space group: C 2/C
;
_chemical_formula_sum "Si O2"
_cell_formula_units_Z 56
_cell_length_a 8.091173
_cell_length_b 23.946562
_cell_length_c 16.457048
_cell_angle_alpha 90.000000
_cell_angle_beta 52.480705
_cell_angle_gamma 90.000000
_cell_volume 2529.070785
_symmetry_space_group_name_H-M "C 2/C"
_symmetry_group_IT_number 15
_symmetry_cell_setting 'monoclinic'
loop_
_space_group_symop_operation_xyz
x,y,z
-x,y,1/2-z
-x,-y,-z
x,-y,1/2+z
1/2+x,1/2+y,z
1/2-x,1/2+y,1/2-z
1/2-x,1/2-y,-z
1/2+x,1/2-y,1/2+z
loop_
_atom_site_type_symbol
_atom_site_label
_atom_site_fract_x
_atom_site_fract_y
_atom_site_fract_z
Si Si1 0.747292 0.593371 0.338683
Si Si2 0.670037 0.498296 0.746564
Si Si3 0.812095 0.198955 0.244137
Si Si4 0.493523 0.096149 0.657672
Si Si5 0.630567 0.057767 0.459607
Si Si6 0.385104 0.842292 0.947910
Si Si7 0.737498 0.303095 0.155361
O O1 0.651751 0.534511 0.337561
O O2 0.653352 0.638632 0.305629
O O3 0.739470 0.624796 0.427270
O O4 0.000000 0.587539 0.250000
O O5 0.500000 0.535863 0.750000
O O6 0.862463 0.539116 0.699527
O O7 0.705310 0.455185 0.660694
O O8 0.577084 0.192785 0.351272
O O9 0.806199 0.245104 0.175538
O O10 0.000000 0.211049 0.250000
O O11 0.500000 0.112276 0.750000
O O12 0.677085 0.078530 0.538032
O O13 0.375430 0.147654 0.652022
O O14 0.493761 0.106697 0.462596
O O15 0.500000 0.000000 0.500000
O O16 0.266818 0.806029 0.049981
O O17 0.500000 0.312458 0.250000
#
# Coordination Sequence:
#
# PCOD9264741 Si02
#       7
#     8   8   8   8   8   8   8
#     4  10  19  35  62  92 122 157 204 258 309 366
#     4  11  20  35  61  93 125 161 207 261 314 373
#     4  11  23  39  65  94 125 164 214 262 313 374
#     4  10  22  40  61  85 123 171 209 256 316 376
#     4   9  19  35  61  85 124 160 201 249 312 366
#     4  10  22  41  63  94 126 166 211 258 321 368
#     4  11  24  44  64  87 128 168 213 261 316 382
#
# _framework density 22.142517999999999
#
# number of rings (size 3 to 8) (size 9 to 14) (size 15 to 20)
#    0.000    1.714    2.857    3.000    2.000    2.857 
#    2.571    0.714    0.000    0.000    0.000    0.000 
#    0.000    0.000    0.000    0.000    0.000    0.000 
#
# Total GULP energy -155904.809740 kJ/mol
# GULP energy per Si atom -5568.028919 kJ/mol
# Density = 2.209212 g / cm^3
# Si number density = 22.142518 Si / 1000 Ang^3
#
#
#
# Elastic Constant Matrix: (Units=GPa)
#
#
# Indices 1 2 3 4 5 6 
#
# 1 47.8167 -5.7257 11.1108 0.0000 18.5985 0.0000
# 2 -5.7257 76.8295 9.7046 0.0000 4.7744 0.0000
# 3 11.1108 9.7046 90.2874 0.0000 21.8081 0.0000
# 4 0.0000 0.0000 0.0000 15.6776 0.0000 11.6263
# 5 18.5985 4.7744 21.8081 0.0000 30.7636 0.0000
# 6 0.0000 0.0000 0.0000 11.6263 0.0000 15.2518
#
#
#
# Elastic Compliance Matrix: (Units=1/GPa)
#
#
# Indices 1 2 3 4 5 6 
#
# 1 0.028111 0.003139 0.000514 0.000000 -0.017846 0.000000
# 2 0.003139 0.013586 -0.001060 0.000000 -0.003254 0.000000
# 3 0.000514 -0.001060 0.013468 0.000000 -0.009693 0.000000
# 4 0.000000 0.000000 0.000000 0.146737 0.000000 -0.111857
# 5 -0.017846 -0.003254 -0.009693 0.000000 0.050672 0.000000
# 6 0.000000 0.000000 0.000000 -0.111857 0.000000 0.150834
#
#
# Mechanical properties :
#
#
# Convention : Reuss Voigt Hill
#
# Bulk Modulus (GPa) = 16.57008 27.23477 21.90242
# Shear Modulus (GPa) = 11.95202 25.66151 18.80677
#
# Velocity S-wave (km/s) = 2.32583 3.40799 2.91752
# Velocity P-wave (km/s) = 3.83566 5.27374 4.61111
#
# Compressibility (1/GPa) = 0.06034973
#
# Stress axis : x y z
#
# Youngs Moduli (GPa) = 35.57316 73.60541 74.25101
#
# Poissons Ratio (x) = -0.23105 -0.03816
# Poissons Ratio (y) = -0.11167 0.07874
# Poissons Ratio (z) = -0.01828 0.07806
#
# Static dielectric constant tensor:
#      x y z
#    x 1.883200 0.000000 -0.004620 
#    y 0.000000 1.815460 0.000000 
#    z -0.004620 0.000000 1.926200 
# 
# From -- ./inp_files/137706.got.cif
#   From: 2010.05.17/outbox.cif.g08.bks.cpg/sg15_69_cif.got.tgz:137706.got - 2010.06.03 18:47:42.
