data_PCOD9264296
_publ_section_title
;
Structure prediction by ZEFSAII (Michael W. Deem and Ramdas Pophale) SiO2 
 PCOD9264296
Probable space group: C 2/C
;
_chemical_formula_sum "Si O2"
_cell_formula_units_Z 48
_cell_length_a 13.260532
_cell_length_b 10.059418
_cell_length_c 16.358705
_cell_angle_alpha 90.000000
_cell_angle_beta 51.161540
_cell_angle_gamma 90.000000
_cell_volume 1699.706777
_symmetry_space_group_name_H-M "C 2/C"
_symmetry_group_IT_number 15
_symmetry_cell_setting 'monoclinic'
loop_
_space_group_symop_operation_xyz
x,y,z
-x,y,1/2-z
-x,-y,-z
x,-y,1/2+z
1/2+x,1/2+y,z
1/2-x,1/2+y,1/2-z
1/2-x,1/2-y,-z
1/2+x,1/2-y,1/2+z
loop_
_atom_site_type_symbol
_atom_site_label
_atom_site_fract_x
_atom_site_fract_y
_atom_site_fract_z
Si Si1 0.999105 0.091307 0.624769
Si Si2 0.289540 0.321686 0.366663
Si Si3 0.909580 0.832362 0.987878
Si Si4 0.856793 0.579579 0.080266
Si Si5 0.121541 0.569493 0.250155
Si Si6 0.847844 0.296202 0.317806
O O1 0.128865 0.165105 0.590834
O O2 0.956168 0.129034 0.555260
O O3 0.027643 0.933452 0.606296
O O4 0.890622 0.127236 0.745624
O O5 0.175786 0.429645 0.426196
O O6 0.273156 0.170330 0.342790
O O7 0.220385 0.157166 0.164032
O O8 0.928733 0.673358 0.977616
O O9 0.753541 0.850899 0.061851
O O10 0.919252 0.601409 0.137332
O O11 0.169541 0.418620 0.234786
O O12 0.000000 0.573553 0.250000
O O13 0.000000 0.283245 0.250000
#
# Coordination Sequence:
#
# PCOD9264296 Si02
#       6
#     8   8   8   8   8   8
#     4  10  19  35  57  89 113 149 200 235 284 340
#     4  11  20  32  60  87 110 146 195 244 272 341
#     4   9  19  37  57  83 117 155 188 239 288 346
#     4  10  20  35  55  85 113 149 190 240 289 328
#     4  11  18  34  57  83 111 147 197 231 282 346
#     4   9  21  35  54  81 116 154 185 229 294 348
#
# _framework density 28.240164
#
# number of rings (size 3 to 8) (size 9 to 14) (size 15 to 20)
#    1.000    1.000    3.333    2.000    2.333    0.667 
#    0.000    0.833    0.000    0.000    0.000   19.833 
#    0.000    0.000    0.000    0.000    0.000    0.000 
#
# Total GULP energy -134178.151336 kJ/mol
# GULP energy per Si atom -5590.756306 kJ/mol
# Density = 2.817589 g / cm^3
# Si number density = 28.240164 Si / 1000 Ang^3
#
#
#
# Elastic Constant Matrix: (Units=GPa)
#
#
# Indices 1 2 3 4 5 6 
#
# 1 152.5410 59.9225 38.4067 0.0000 14.1846 0.0000
# 2 59.9225 129.1934 25.7973 0.0000 -17.1777 0.0000
# 3 38.4067 25.7973 78.5528 0.0000 -9.5859 0.0000
# 4 0.0000 0.0000 0.0000 39.7216 0.0000 1.4836
# 5 14.1846 -17.1777 -9.5859 0.0000 52.2539 0.0000
# 6 0.0000 0.0000 0.0000 1.4836 0.0000 35.6461
#
#
#
# Elastic Compliance Matrix: (Units=1/GPa)
#
#
# Indices 1 2 3 4 5 6 
#
# 1 0.009689 -0.004352 -0.003891 0.000000 -0.004774 0.000000
# 2 -0.004352 0.010511 -0.000776 0.000000 0.004494 0.000000
# 3 -0.003891 -0.000776 0.015328 0.000000 0.003613 0.000000
# 4 0.000000 0.000000 0.000000 0.025214 0.000000 -0.001049
# 5 -0.004774 0.004494 0.003613 0.000000 0.022574 0.000000
# 6 0.000000 0.000000 0.000000 -0.001049 0.000000 0.028097
#
#
# Mechanical properties :
#
#
# Convention : Reuss Voigt Hill
#
# Bulk Modulus (GPa) = 57.16937 67.61558 62.39248
# Shear Modulus (GPa) = 36.96040 41.26839 39.11439
#
# Velocity S-wave (km/s) = 3.62164 3.82689 3.72568
# Velocity P-wave (km/s) = 6.14625 6.59711 6.37566
#
# Compressibility (1/GPa) = 0.01749188
#
# Stress axis : x y z
#
# Youngs Moduli (GPa) = 103.21414 95.13630 65.23939
#
# Poissons Ratio (x) = 0.41400 0.25381
# Poissons Ratio (y) = 0.44916 0.05062
# Poissons Ratio (z) = 0.40156 0.07381
#
# Static dielectric constant tensor:
#      x y z
#    x 2.196360 0.000000 -0.009040 
#    y 0.000000 2.264450 0.000000 
#    z -0.009040 0.000000 2.158380 
# 
# From -- ./inp_files/196491.got.cif
#   From: 2010.05.17/outbox.cif.g08.bks.cpg/sg15_99_cif.got.tgz:196491.got - 2010.06.03 18:47:42.
