data_PCOD9264004
_publ_section_title
;
Structure prediction by ZEFSAII (Michael W. Deem and Ramdas Pophale) SiO2 
 PCOD9264004
Probable space group: C 2/C
;
_chemical_formula_sum "Si O2"
_cell_formula_units_Z 60
_cell_length_a 18.236215
_cell_length_b 29.035661
_cell_length_c 5.551350
_cell_angle_alpha 90.000000
_cell_angle_beta 93.529671
_cell_angle_gamma 90.000000
_cell_volume 2933.866940
_symmetry_space_group_name_H-M "C 2/C"
_symmetry_group_IT_number 15
_symmetry_cell_setting 'monoclinic'
loop_
_space_group_symop_operation_xyz
x,y,z
-x,y,1/2-z
-x,-y,-z
x,-y,1/2+z
1/2+x,1/2+y,z
1/2-x,1/2+y,1/2-z
1/2-x,1/2-y,-z
1/2+x,1/2-y,1/2+z
loop_
_atom_site_type_symbol
_atom_site_label
_atom_site_fract_x
_atom_site_fract_y
_atom_site_fract_z
Si Si1 0.698668 0.276454 0.174625
Si Si2 0.500000 0.973005 0.250000
Si Si3 0.811823 0.312366 0.525741
Si Si4 0.201276 0.986705 0.763981
Si Si5 0.212124 0.600977 0.204792
Si Si6 0.337101 0.939519 0.301526
Si Si7 0.962541 0.231208 0.993093
Si Si8 0.980196 0.335872 0.493797
O O1 0.749182 0.314646 0.310153
O O2 0.679958 0.239865 0.382163
O O3 0.621202 0.285508 0.034056
O O4 0.750000 0.250000 0.000000
O O5 0.419759 0.950865 0.251609
O O6 0.500000 0.000000 0.500000
O O7 0.785003 0.345391 0.734827
O O8 0.893984 0.325471 0.467122
O O9 0.278663 0.017291 0.786336
O O10 0.164174 0.999079 0.008011
O O11 0.217768 0.932456 0.762218
O O12 0.166509 0.581635 0.429578
O O13 0.186005 0.592589 0.927843
O O14 0.000000 0.216181 0.750000
O O15 0.000000 0.216320 0.250000
O O16 0.972670 0.287635 0.993769
O O17 0.000000 0.360361 0.250000
O O18 0.000000 0.359802 0.750000
#
# Coordination Sequence:
#
# PCOD9264004 Si02
#       8
#     8   4   8   8   8   8   8   8
#     4  11  23  38  59  78 105 144 184 225 283 339
#     4  12  20  32  54  74 100 134 184 232 272 328
#     4  11  24  37  55  80 106 142 181 236 278 339
#     4   8  14  29  49  64  85 123 159 202 250 314
#     4  10  21  35  50  71 100 126 173 219 274 324
#     4  10  20  35  50  68  95 131 171 218 271 325
#     4  10  19  36  56  77  97 131 171 223 262 322
#     4  10  19  35  53  70  98 131 168 222 270 317
#
# _framework density 20.450824999999998
#
# number of rings (size 3 to 8) (size 9 to 14) (size 15 to 20)
#    0.000    1.867    2.667    4.800    3.733    0.000 
#    3.600    0.000    0.000    0.000    0.000    0.000 
#    0.000    0.000    0.000    0.000    0.000   36.000 
#
# Total GULP energy -167268.567065 kJ/mol
# GULP energy per Si atom -5575.618902 kJ/mol
# Density = 2.040428 g / cm^3
# Si number density = 20.450825 Si / 1000 Ang^3
#
#
#
# Elastic Constant Matrix: (Units=GPa)
#
#
# Indices 1 2 3 4 5 6 
#
# 1 76.7056 -1.0712 43.9065 0.0000 17.0965 0.0000
# 2 -1.0712 37.6930 11.6838 0.0000 8.7027 0.0000
# 3 43.9065 11.6838 155.9242 0.0000 0.6053 0.0000
# 4 0.0000 0.0000 0.0000 28.4010 0.0000 2.2702
# 5 17.0965 8.7027 0.6053 0.0000 31.5197 0.0000
# 6 0.0000 0.0000 0.0000 2.2702 0.0000 4.8436
#
#
#
# Elastic Compliance Matrix: (Units=1/GPa)
#
#
# Indices 1 2 3 4 5 6 
#
# 1 0.018906 0.004946 -0.005650 0.000000 -0.011512 0.000000
# 2 0.004946 0.030331 -0.003623 0.000000 -0.010988 0.000000
# 3 -0.005650 -0.003623 0.008261 0.000000 0.003906 0.000000
# 4 0.000000 0.000000 0.000000 0.036580 0.000000 -0.017145
# 5 -0.011512 -0.010988 0.003906 0.000000 0.040929 0.000000
# 6 0.000000 0.000000 0.000000 -0.017145 0.000000 0.214495
#
#
# Mechanical properties :
#
#
# Convention : Reuss Voigt Hill
#
# Bulk Modulus (GPa) = 20.47319 42.15122 31.31221
# Shear Modulus (GPa) = 13.35345 27.33978 20.34661
#
# Velocity S-wave (km/s) = 2.55807 3.66027 3.15763
# Velocity P-wave (km/s) = 4.33101 6.20638 5.35149
#
# Compressibility (1/GPa) = 0.04884436
#
# Stress axis : x y z
#
# Youngs Moduli (GPa) = 52.89458 32.97006 121.05765
#
# Poissons Ratio (x) = -0.16308 0.68392
# Poissons Ratio (y) = -0.26163 0.43858
# Poissons Ratio (z) = 0.29883 0.11945
#
# Static dielectric constant tensor:
#      x y z
#    x 1.718920 0.000000 -0.000740 
#    y 0.000000 1.817800 0.000000 
#    z -0.000740 0.000000 1.805830 
# 
# From -- ./inp_files/12046.got.cif
#   From: 2010.05.17/outbox.cif.g08.bks.cpg/sg15_7_cif.got.tgz:12046.got - 2010.06.03 18:47:42.
