data_PCOD9264385
_publ_section_title
;
Structure prediction by ZEFSAII (Michael W. Deem and Ramdas Pophale) SiO2 
 PCOD9264385
Probable space group: C 2/C
;
_chemical_formula_sum "Si O2"
_cell_formula_units_Z 44
_cell_length_a 13.647244
_cell_length_b 28.055347
_cell_length_c 8.020201
_cell_angle_alpha 90.000000
_cell_angle_beta 137.475679
_cell_angle_gamma 90.000000
_cell_volume 2075.536125
_symmetry_space_group_name_H-M "C 2/C"
_symmetry_group_IT_number 15
_symmetry_cell_setting 'monoclinic'
loop_
_space_group_symop_operation_xyz
x,y,z
-x,y,1/2-z
-x,-y,-z
x,-y,1/2+z
1/2+x,1/2+y,z
1/2-x,1/2+y,1/2-z
1/2-x,1/2-y,-z
1/2+x,1/2-y,1/2+z
loop_
_atom_site_type_symbol
_atom_site_label
_atom_site_fract_x
_atom_site_fract_y
_atom_site_fract_z
Si Si1 0.131757 0.363929 0.802760
Si Si2 0.297037 0.287343 0.201521
Si Si3 0.000000 0.534301 0.750000
Si Si4 0.834869 0.058937 0.566595
Si Si5 0.794631 0.531760 0.763153
Si Si6 0.969808 0.278454 0.405853
O O1 0.056261 0.322480 0.600371
O O2 0.000000 0.383693 0.750000
O O3 0.252821 0.337509 0.067796
O O4 0.219117 0.406740 0.829254
O O5 0.459261 0.271607 0.445838
O O6 0.193747 0.280485 0.232674
O O7 0.250000 0.250000 0.000000
O O8 0.108496 0.559149 0.754124
O O9 0.902215 0.499670 0.513189
O O10 0.795007 0.060401 0.712630
O O11 0.000000 0.072847 0.750000
O O12 0.806864 0.005795 0.461717
O O13 0.000000 0.282548 0.250000
#
# Coordination Sequence:
#
# PCOD9264385 Si02
#       6
#     8   8   4   8   8   8
#     4   9  21  36  54  80 115 148 196 233 279 347
#     4   9  18  35  57  82 112 152 185 226 277 352
#     4   8  16  32  56  84  96 134 190 228 282 336
#     4  11  22  37  57  81 116 152 190 242 292 346
#     4   9  19  34  56  82 108 140 198 233 291 337
#     4  10  19  35  58  88 115 146 188 238 285 327
#
# _framework density 21.199342000000001
#
# number of rings (size 3 to 8) (size 9 to 14) (size 15 to 20)
#    0.000    2.545    0.000    2.727    7.636    2.909 
#    1.636    1.818    0.000    1.091    0.000    0.000 
#    0.000    0.000    0.000    0.000    0.000    0.000 
#
# Total GULP energy -122663.265607 kJ/mol
# GULP energy per Si atom -5575.602982 kJ/mol
# Density = 2.115109 g / cm^3
# Si number density = 21.199342 Si / 1000 Ang^3
#
#
#
# Elastic Constant Matrix: (Units=GPa)
#
#
# Indices 1 2 3 4 5 6 
#
# 1 114.5921 11.8325 7.7594 0.0000 -7.0962 0.0000
# 2 11.8325 60.1166 2.7348 0.0000 11.9498 0.0000
# 3 7.7594 2.7348 32.7660 0.0000 4.8522 0.0000
# 4 0.0000 0.0000 0.0000 11.9456 0.0000 -6.8591
# 5 -7.0962 11.9498 4.8522 0.0000 34.4027 0.0000
# 6 0.0000 0.0000 0.0000 -6.8591 0.0000 -0.7147
#
#
#
# Elastic Compliance Matrix: (Units=1/GPa)
#
#
# Indices 1 2 3 4 5 6 
#
# 1 0.009326 -0.002336 -0.002470 0.000000 0.003084 0.000000
# 2 -0.002336 0.018464 0.000034 0.000000 -0.006900 0.000000
# 3 -0.002470 0.000034 0.031844 0.000000 -0.005013 0.000000
# 4 0.000000 0.000000 0.000000 0.012858 0.000000 -0.123399
# 5 0.003084 -0.006900 -0.005013 0.000000 0.032807 0.000000
# 6 0.000000 0.000000 0.000000 -0.123399 0.000000 -0.214909
#
#
# Mechanical properties :
#
#
# Convention : Reuss Voigt Hill
#
# Bulk Modulus (GPa) = 19.96430 28.01422 23.98926
# Shear Modulus (GPa) = -59.97491 21.46992 -19.25250
#
# Velocity S-wave (km/s) = -5.32469 3.18585 -3.01685
# Velocity P-wave (km/s) = 5.32591 5.17457 0.89137
#
# Compressibility (1/GPa) = 0.05008941
#
# Stress axis : x y z
#
# Youngs Moduli (GPa) = 107.22662 54.15872 31.40324
#
# Poissons Ratio (x) = 0.12652 0.07757
# Poissons Ratio (y) = 0.25050 -0.00107
# Poissons Ratio (z) = 0.26487 -0.00184
#
# Static dielectric constant tensor:
#      x y z
#    x 1.789490 0.000000 -0.010040 
#    y 0.000000 1.768420 0.000000 
#    z -0.010040 0.000000 1.800210 
# 
# From -- ./inp_files/44367.got.cif
#   From: 2010.05.17/outbox.cif.g08.bks.cpg/sg15_23_cif.got.tgz:44367.got - 2010.06.03 18:47:42.
