data_PCOD9264948
_publ_section_title
;
Structure prediction by ZEFSAII (Michael W. Deem and Ramdas Pophale) SiO2 
 PCOD9264948
Probable space group: C 2/C
;
_chemical_formula_sum "Si O2"
_cell_formula_units_Z 48
_cell_length_a 24.172225
_cell_length_b 9.282785
_cell_length_c 10.153303
_cell_angle_alpha 90.000000
_cell_angle_beta 67.329000
_cell_angle_gamma 90.000000
_cell_volume 2102.221429
_symmetry_space_group_name_H-M "C 2/C"
_symmetry_group_IT_number 15
_symmetry_cell_setting 'monoclinic'
loop_
_space_group_symop_operation_xyz
x,y,z
-x,y,1/2-z
-x,-y,-z
x,-y,1/2+z
1/2+x,1/2+y,z
1/2-x,1/2+y,1/2-z
1/2-x,1/2-y,-z
1/2+x,1/2-y,1/2+z
loop_
_atom_site_type_symbol
_atom_site_label
_atom_site_fract_x
_atom_site_fract_y
_atom_site_fract_z
Si Si1 0.752020 0.551547 0.617176
Si Si2 0.709761 0.739034 0.210025
Si Si3 0.500000 0.007141 0.250000
Si Si4 0.161013 0.785260 0.034933
Si Si5 0.082607 0.256868 0.214771
Si Si6 0.500000 0.507418 0.250000
Si Si7 0.970541 0.757880 0.443769
O O1 0.753543 0.380680 0.612564
O O2 0.761840 0.617303 0.754637
O O3 0.803570 0.632611 0.485403
O O4 0.688950 0.609213 0.617161
O O5 0.682488 0.666101 0.369354
O O6 0.652913 0.762163 0.170210
O O7 0.505422 0.115179 0.367878
O O8 0.555895 0.901105 0.176594
O O9 0.090458 0.764699 0.088674
O O10 0.051294 0.250595 0.387835
O O11 0.056507 0.112359 0.173642
O O12 0.506175 0.400085 0.368169
#
# Coordination Sequence:
#
# PCOD9264948 Si02
#       7
#     8   8   4   8   8   4   8
#     4   9  17  34  52  74 100 138 164 210 253 305
#     4   9  18  32  55  72 101 136 169 207 260 300
#     4  10  22  34  56  78 104 140 176 212 262 310
#     4   8  18  33  54  71 107 133 165 211 256 298
#     4  10  20  36  52  79 108 135 171 224 255 303
#     4  10  20  32  58  78 104 140 178 210 256 314
#     4  10  19  36  55  78 104 142 173 210 263 309
#
# _framework density 22.832989999999999
#
# number of rings (size 3 to 8) (size 9 to 14) (size 15 to 20)
#    1.000    1.667    0.000    2.000    0.000    1.333 
#    0.000    0.833   14.667    0.000    0.000    0.000 
#    0.000    0.000    0.000    0.000    0.000    0.000 
#
# Total GULP energy -133864.567822 kJ/mol
# GULP energy per Si atom -5577.690326 kJ/mol
# Density = 2.278102 g / cm^3
# Si number density = 22.832990 Si / 1000 Ang^3
#
#
#
# Elastic Constant Matrix: (Units=GPa)
#
#
# Indices 1 2 3 4 5 6 
#
# 1 93.0667 27.5068 -6.3896 0.0000 16.5553 0.0000
# 2 27.5068 135.1642 16.8089 0.0000 1.6076 0.0000
# 3 -6.3896 16.8089 45.5875 0.0000 -7.0777 0.0000
# 4 0.0000 0.0000 0.0000 14.4024 0.0000 -0.7437
# 5 16.5553 1.6076 -7.0777 0.0000 23.2227 0.0000
# 6 0.0000 0.0000 0.0000 -0.7437 0.0000 12.4919
#
#
#
# Elastic Compliance Matrix: (Units=1/GPa)
#
#
# Indices 1 2 3 4 5 6 
#
# 1 0.013231 -0.002777 0.001515 0.000000 -0.008778 0.000000
# 2 -0.002777 0.008385 -0.003426 0.000000 0.000355 0.000000
# 3 0.001515 -0.003426 0.024437 0.000000 0.006604 0.000000
# 4 0.000000 0.000000 0.000000 0.069647 0.000000 0.004147
# 5 -0.008778 0.000355 0.006604 0.000000 0.051308 0.000000
# 6 0.000000 0.000000 0.000000 0.004147 0.000000 0.080299
#
#
# Mechanical properties :
#
#
# Convention : Reuss Voigt Hill
#
# Bulk Modulus (GPa) = 27.26350 38.85230 33.05790
# Shear Modulus (GPa) = 18.59376 25.74956 22.17166
#
# Velocity S-wave (km/s) = 2.85676 3.36182 3.11953
# Velocity P-wave (km/s) = 4.77993 5.66762 5.24260
#
# Compressibility (1/GPa) = 0.03667907
#
# Stress axis : x y z
#
# Youngs Moduli (GPa) = 75.57861 119.25628 40.92186
#
# Poissons Ratio (x) = 0.33114 -0.06201
# Poissons Ratio (y) = 0.20986 0.14019
# Poissons Ratio (z) = -0.11454 0.40856
#
# Static dielectric constant tensor:
#      x y z
#    x 1.840500 0.000000 0.014010 
#    y 0.000000 1.858820 0.000000 
#    z 0.014010 0.000000 1.867700 
# 
# From -- ./inp_files/121108.got.cif
#   From: 2010.05.17/outbox.cif.g08.bks.cpg/sg15_61_cif.got.tgz:121108.got - 2010.06.03 18:47:42.
