data_PCOD9264481
_publ_section_title
;
Structure prediction by ZEFSAII (Michael W. Deem and Ramdas Pophale) SiO2 
 PCOD9264481
Probable space group: C 2/C
;
_chemical_formula_sum "Si O2"
_cell_formula_units_Z 48
_cell_length_a 7.815269
_cell_length_b 13.087645
_cell_length_c 24.509116
_cell_angle_alpha 90.000000
_cell_angle_beta 137.974700
_cell_angle_gamma 90.000000
_cell_volume 1678.250820
_symmetry_space_group_name_H-M "C 2/C"
_symmetry_group_IT_number 15
_symmetry_cell_setting 'monoclinic'
loop_
_space_group_symop_operation_xyz
x,y,z
-x,y,1/2-z
-x,-y,-z
x,-y,1/2+z
1/2+x,1/2+y,z
1/2-x,1/2+y,1/2-z
1/2-x,1/2-y,-z
1/2+x,1/2-y,1/2+z
loop_
_atom_site_type_symbol
_atom_site_label
_atom_site_fract_x
_atom_site_fract_y
_atom_site_fract_z
Si Si1 0.385221 0.927467 0.346445
Si Si2 0.679230 0.234509 0.572723
Si Si3 0.797221 0.106822 0.328578
Si Si4 0.997545 0.407518 0.954370
Si Si5 0.258858 0.217678 0.731345
Si Si6 0.056751 0.063162 0.567293
O O1 0.357574 0.852648 0.390297
O O2 0.205922 0.881122 0.257219
O O3 0.371239 0.040873 0.370543
O O4 0.656338 0.907946 0.380374
O O5 0.642057 0.334620 0.600663
O O6 0.452543 0.198273 0.476940
O O7 0.990293 0.237694 0.636831
O O8 0.500000 0.081105 0.250000
O O9 0.835778 0.186198 0.288578
O O10 0.936226 0.001217 0.374442
O O11 0.289394 0.378250 0.007568
O O12 0.000000 0.500000 0.000000
O O13 0.500000 0.203099 0.750000
O O14 0.000000 0.000000 0.500000
#
# Coordination Sequence:
#
# PCOD9264481 Si02
#       6
#     8   8   8   8   8   8
#     4   9  18  33  55  83 113 147 190 234 286 343
#     4   9  18  36  59  83 114 150 191 242 289 341
#     4   9  20  38  58  83 117 149 188 241 290 343
#     4   9  18  34  54  82 115 147 188 235 286 347
#     4  10  19  35  59  86 115 156 198 238 291 348
#     4  10  20  36  56  83 114 151 193 234 293 356
#
# _framework density 28.601206999999999
#
# number of rings (size 3 to 8) (size 9 to 14) (size 15 to 20)
#    0.000    2.667    0.000    2.500    0.000    2.000 
#    0.000   34.167    0.000    0.000    0.000    0.000 
#    0.000    0.000    0.000    0.000    0.000    0.000 
#
# Total GULP energy -133791.414165 kJ/mol
# GULP energy per Si atom -5574.642257 kJ/mol
# Density = 2.853611 g / cm^3
# Si number density = 28.601207 Si / 1000 Ang^3
#
#
#
# Elastic Constant Matrix: (Units=GPa)
#
#
# Indices 1 2 3 4 5 6 
#
# 1 111.0350 17.6922 43.2169 0.0000 8.7267 0.0000
# 2 17.6922 85.4705 74.9942 0.0000 -12.3085 0.0000
# 3 43.2169 74.9942 131.8261 0.0000 -26.2010 0.0000
# 4 0.0000 0.0000 0.0000 72.5391 0.0000 -13.0985
# 5 8.7267 -12.3085 -26.2010 0.0000 40.0481 0.0000
# 6 0.0000 0.0000 0.0000 -13.0985 0.0000 38.2648
#
#
#
# Elastic Compliance Matrix: (Units=1/GPa)
#
#
# Indices 1 2 3 4 5 6 
#
# 1 0.011535 0.002215 -0.006214 0.000000 -0.005898 0.000000
# 2 0.002215 0.023892 -0.014891 0.000000 -0.002882 0.000000
# 3 -0.006214 -0.014891 0.020063 0.000000 0.009903 0.000000
# 4 0.000000 0.000000 0.000000 0.014694 0.000000 0.005030
# 5 -0.005898 -0.002882 0.009903 0.000000 0.031849 0.000000
# 6 0.000000 0.000000 0.000000 0.005030 0.000000 0.027855
#
#
# Mechanical properties :
#
#
# Convention : Reuss Voigt Hill
#
# Bulk Modulus (GPa) = 56.46420 66.68202 61.57311
# Shear Modulus (GPa) = 28.80653 42.99895 35.90274
#
# Velocity S-wave (km/s) = 3.17705 3.88157 3.54685
# Velocity P-wave (km/s) = 5.76567 6.59195 6.19261
#
# Compressibility (1/GPa) = 0.01771034
#
# Stress axis : x y z
#
# Youngs Moduli (GPa) = 86.68893 41.85474 49.84381
#
# Poissons Ratio (x) = -0.09273 0.30975
# Poissons Ratio (y) = -0.19205 0.74223
# Poissons Ratio (z) = 0.53872 0.62326
#
# Static dielectric constant tensor:
#      x y z
#    x 2.691410 0.000000 0.173100 
#    y 0.000000 2.384750 0.000000 
#    z 0.173100 0.000000 2.442600 
# 
# From -- ./inp_files/289118.got.cif
#   From: 2010.05.17/outbox.cif.g08.bks.cpg/sg15_145_cif.got.tgz:289118.got - 2010.06.03 18:47:42.
