data_PCOD9264218
_publ_section_title
;
Structure prediction by ZEFSAII (Michael W. Deem and Ramdas Pophale) SiO2 
 PCOD9264218
Probable space group: C 2/C
;
_chemical_formula_sum "Si O2"
_cell_formula_units_Z 64
_cell_length_a 12.944674
_cell_length_b 28.562559
_cell_length_c 13.360369
_cell_angle_alpha 90.000000
_cell_angle_beta 148.925214
_cell_angle_gamma 90.000000
_cell_volume 2549.693962
_symmetry_space_group_name_H-M "C 2/C"
_symmetry_group_IT_number 15
_symmetry_cell_setting 'monoclinic'
loop_
_space_group_symop_operation_xyz
x,y,z
-x,y,1/2-z
-x,-y,-z
x,-y,1/2+z
1/2+x,1/2+y,z
1/2-x,1/2+y,1/2-z
1/2-x,1/2-y,-z
1/2+x,1/2-y,1/2+z
loop_
_atom_site_type_symbol
_atom_site_label
_atom_site_fract_x
_atom_site_fract_y
_atom_site_fract_z
Si Si1 0.100958 0.133511 0.489809
Si Si2 0.372499 0.957403 0.940434
Si Si3 0.668536 0.860497 0.515622
Si Si4 0.993303 0.701204 0.454351
Si Si5 0.944116 0.052064 0.479941
Si Si6 0.421643 0.690834 0.502980
Si Si7 0.798280 0.635568 0.013182
Si Si8 0.714304 0.033994 0.484750
O O1 0.274564 0.141201 0.553845
O O2 0.889815 0.135054 0.252511
O O3 0.098773 0.086484 0.555157
O O4 0.084705 0.172802 0.560233
O O5 0.440869 0.909874 0.050679
O O6 0.258066 0.938095 0.748768
O O7 0.500000 0.000000 0.000000
O O8 0.247440 0.987304 0.919683
O O9 0.554708 0.816654 0.472731
O O10 0.789235 0.687938 0.229315
O O11 0.035887 0.754157 0.454686
O O12 0.167181 0.671159 0.547941
O O13 0.880700 0.048780 0.541723
O O14 0.000000 0.000000 0.500000
O O15 0.375501 0.656707 0.558790
O O16 0.792330 0.583295 0.962495
O O17 0.000000 0.634536 0.250000
O O18 0.500000 0.026195 0.250000
#
# Coordination Sequence:
#
# PCOD9264218 Si02
#       8
#     8   8   8   8   8   8   8   8
#     4   9  18  36  55  79 108 149 192 233 277 344
#     4  11  21  36  59  86 116 153 198 240 289 345
#     4   9  19  34  56  80 109 148 193 232 276 350
#     4  10  20  34  58  82 107 144 187 237 289 341
#     4  11  22  37  59  84 117 154 197 240 290 348
#     4  10  19  35  57  80 108 143 189 234 286 340
#     4   9  18  33  57  83 109 146 193 230 280 348
#     4  11  20  35  61  88 114 154 199 242 286 346
#
# _framework density 25.101051999999999
#
# number of rings (size 3 to 8) (size 9 to 14) (size 15 to 20)
#    0.000    2.000    2.500    1.875    3.500    2.000 
#    0.000    2.500    2.750    0.000    0.000    0.000 
#    0.000    0.000    0.000    0.000    0.000    0.000 
#
# Total GULP energy -178660.479224 kJ/mol
# GULP energy per Si atom -5583.139976 kJ/mol
# Density = 2.504392 g / cm^3
# Si number density = 25.101052 Si / 1000 Ang^3
#
#
#
# Elastic Constant Matrix: (Units=GPa)
#
#
# Indices 1 2 3 4 5 6 
#
# 1 105.8731 -13.4475 21.8613 0.0000 1.7195 0.0000
# 2 -13.4475 81.0409 -15.2128 0.0000 -4.0923 0.0000
# 3 21.8613 -15.2128 77.2047 0.0000 7.3112 0.0000
# 4 0.0000 0.0000 0.0000 19.1857 0.0000 3.7896
# 5 1.7195 -4.0923 7.3112 0.0000 34.0995 0.0000
# 6 0.0000 0.0000 0.0000 3.7896 0.0000 40.3591
#
#
#
# Elastic Compliance Matrix: (Units=1/GPa)
#
#
# Indices 1 2 3 4 5 6 
#
# 1 0.010142 0.001195 -0.002656 0.000000 0.000201 0.000000
# 2 0.001195 0.012989 0.002122 0.000000 0.001044 0.000000
# 3 -0.002656 0.002122 0.014378 0.000000 -0.002694 0.000000
# 4 0.000000 0.000000 0.000000 0.053107 0.000000 -0.004987
# 5 0.000201 0.001044 -0.002694 0.000000 0.030019 0.000000
# 6 0.000000 0.000000 0.000000 -0.004987 0.000000 0.025246
#
#
# Mechanical properties :
#
#
# Convention : Reuss Voigt Hill
#
# Bulk Modulus (GPa) = 25.75234 27.83564 26.79399
# Shear Modulus (GPa) = 31.74577 36.79004 34.26791
#
# Velocity S-wave (km/s) = 3.56015 3.83257 3.69887
# Velocity P-wave (km/s) = 5.21357 5.54060 5.37957
#
# Compressibility (1/GPa) = 0.03883142
#
# Stress axis : x y z
#
# Youngs Moduli (GPa) = 98.59936 76.98961 69.55148
#
# Poissons Ratio (x) = -0.09197 0.18469
# Poissons Ratio (y) = -0.11779 -0.14761
# Poissons Ratio (z) = 0.26183 -0.16339
#
# Static dielectric constant tensor:
#      x y z
#    x 2.062720 0.000000 -0.063230 
#    y 0.000000 1.970450 0.000000 
#    z -0.063230 0.000000 2.220630 
# 
# From -- ./inp_files/148791.got.cif
#   From: 2010.05.17/outbox.cif.g08.bks.cpg/sg15_75_cif.got.tgz:148791.got - 2010.06.03 18:47:42.
