data_PCOD9264559
_publ_section_title
;
Structure prediction by ZEFSAII (Michael W. Deem and Ramdas Pophale) SiO2 
 PCOD9264559
Probable space group: C 2/C
;
_chemical_formula_sum "Si O2"
_cell_formula_units_Z 64
_cell_length_a 12.309788
_cell_length_b 29.487811
_cell_length_c 18.497521
_cell_angle_alpha 90.000000
_cell_angle_beta 31.068417
_cell_angle_gamma 90.000000
_cell_volume 3465.037101
_symmetry_space_group_name_H-M "C 2/C"
_symmetry_group_IT_number 15
_symmetry_cell_setting 'monoclinic'
loop_
_space_group_symop_operation_xyz
x,y,z
-x,y,1/2-z
-x,-y,-z
x,-y,1/2+z
1/2+x,1/2+y,z
1/2-x,1/2+y,1/2-z
1/2-x,1/2-y,-z
1/2+x,1/2-y,1/2+z
loop_
_atom_site_type_symbol
_atom_site_label
_atom_site_fract_x
_atom_site_fract_y
_atom_site_fract_z
Si Si1 0.768457 0.886632 0.236466
Si Si2 0.506610 0.445350 0.986196
Si Si3 0.498607 0.201199 0.337103
Si Si4 0.888022 0.565713 0.881427
Si Si5 0.236481 0.970008 0.614446
Si Si6 0.572780 0.895563 0.790608
Si Si7 0.010115 0.802644 0.156668
Si Si8 0.629615 0.930984 0.461104
O O1 0.549572 0.894652 0.315465
O O2 0.710616 0.898615 0.352131
O O3 0.928974 0.921348 0.104927
O O4 0.880773 0.838467 0.182233
O O5 0.340885 0.425958 0.021288
O O6 0.500000 0.500000 0.000000
O O7 0.731504 0.429251 0.829160
O O8 0.500000 0.203968 0.250000
O O9 0.624206 0.155841 0.287861
O O10 0.257444 0.194119 0.498119
O O11 0.564552 0.251745 0.322122
O O12 0.000000 0.541323 0.750000
O O13 0.850460 0.535669 0.972573
O O14 0.386540 0.943724 0.583361
O O15 0.000000 0.952739 0.750000
O O16 0.241874 0.023220 0.625162
O O17 0.500000 0.890605 0.750000
O O18 0.385088 0.913039 0.949412
O O19 0.000000 0.809312 0.250000
#
# Coordination Sequence:
#
# PCOD9264559 Si02
#       8
#     8   8   8   8   8   8   8   8
#     4  10  21  38  55  81 108 146 193 234 285 342
#     4  11  25  36  57  79 111 156 195 236 286 339
#     4   9  19  35  54  85 117 144 179 230 295 349
#     4   9  21  38  53  72 105 145 191 230 272 326
#     4  10  21  34  51  69 102 143 182 227 271 317
#     4  11  23  36  55  83 116 147 186 239 286 345
#     4  10  19  35  60  85 115 146 179 230 296 355
#     4  10  23  34  50  78 107 139 189 231 270 332
#
# _framework density 18.470220000000001
#
# number of rings (size 3 to 8) (size 9 to 14) (size 15 to 20)
#    0.000    2.000    0.000    3.000   10.500    1.500 
#    0.000    0.000    0.000    0.750    0.000    7.875 
#    0.000    0.000    0.000    0.000    0.000    0.000 
#
# Total GULP energy -178174.636272 kJ/mol
# GULP energy per Si atom -5567.957383 kJ/mol
# Density = 1.842818 g / cm^3
# Si number density = 18.470220 Si / 1000 Ang^3
#
#
#
# Elastic Constant Matrix: (Units=GPa)
#
#
# Indices 1 2 3 4 5 6 
#
# 1 36.0567 -1.1969 18.1940 -0.0014 11.7586 -0.0001
# 2 -1.1969 106.8506 23.5133 -0.0054 -2.2212 0.0006
# 3 18.1940 23.5133 82.8764 0.0117 16.1497 -0.0013
# 4 -0.0014 -0.0054 0.0117 37.1279 -0.0034 -1.6548
# 5 11.7586 -2.2212 16.1497 -0.0034 31.6993 0.0015
# 6 -0.0001 0.0006 -0.0013 -1.6548 0.0015 17.5696
#
#
#
# Elastic Compliance Matrix: (Units=1/GPa)
#
#
# Indices 1 2 3 4 5 6 
#
# 1 0.033894 0.001514 -0.006041 0.000003 -0.009389 0.000001
# 2 0.001514 0.010214 -0.003620 0.000003 0.001998 0.000000
# 3 -0.006041 -0.003620 0.015579 -0.000006 -0.005950 0.000001
# 4 0.000003 0.000003 -0.000006 0.027047 0.000005 0.002547
# 5 -0.009389 0.001998 -0.005950 0.000005 0.038200 -0.000003
# 6 0.000001 0.000000 0.000001 0.002547 -0.000003 0.057156
#
#
# Mechanical properties :
#
#
# Convention : Reuss Voigt Hill
#
# Bulk Modulus (GPa) = 23.04473 34.08939 28.56706
# Shear Modulus (GPa) = 23.49086 29.63091 26.56089
#
# Velocity S-wave (km/s) = 3.57013 4.00966 3.79626
# Velocity P-wave (km/s) = 5.43123 6.31925 5.89199
#
# Compressibility (1/GPa) = 0.04339387
#
# Stress axis : x y z
#
# Youngs Moduli (GPa) = 29.50339 97.90614 64.19065
#
# Poissons Ratio (x) = -0.14821 0.38776
# Poissons Ratio (y) = -0.04466 0.23234
# Poissons Ratio (z) = 0.17822 0.35437
#
# Static dielectric constant tensor:
#      x y z
#    x 1.679210 0.000000 -0.008530 
#    y 0.000000 1.678920 0.000000 
#    z -0.008530 0.000000 1.658280 
# 
# From -- ./inp_files/201464.got.cif
#   From: 2010.05.17/outbox.cif.g08.bks.cpg/sg15_101_cif.got.tgz:201464.got - 2010.06.03 18:47:42.
