data_PCOD9264116
_publ_section_title
;
Structure prediction by ZEFSAII (Michael W. Deem and Ramdas Pophale) SiO2 
 PCOD9264116
Probable space group: C 2/C
;
_chemical_formula_sum "Si O2"
_cell_formula_units_Z 32
_cell_length_a 14.720466
_cell_length_b 16.753549
_cell_length_c 9.282503
_cell_angle_alpha 90.000000
_cell_angle_beta 132.121961
_cell_angle_gamma 90.000000
_cell_volume 1697.980796
_symmetry_space_group_name_H-M "C 2/C"
_symmetry_group_IT_number 15
_symmetry_cell_setting 'monoclinic'
loop_
_space_group_symop_operation_xyz
x,y,z
-x,y,1/2-z
-x,-y,-z
x,-y,1/2+z
1/2+x,1/2+y,z
1/2-x,1/2+y,1/2-z
1/2-x,1/2-y,-z
1/2+x,1/2-y,1/2+z
loop_
_atom_site_type_symbol
_atom_site_label
_atom_site_fract_x
_atom_site_fract_y
_atom_site_fract_z
Si Si1 0.148286 0.474926 0.480111
Si Si2 0.620715 0.263456 0.775483
Si Si3 0.577013 0.443609 0.686374
Si Si4 0.943035 0.602035 0.912826
O O1 0.291278 0.482413 0.651424
O O2 0.088249 0.556229 0.474836
O O3 0.120777 0.445938 0.289032
O O4 0.084888 0.408577 0.517293
O O5 0.500000 0.255570 0.750000
O O6 0.608283 0.350345 0.689028
O O7 0.605529 0.191054 0.647949
O O8 0.750000 0.250000 0.000000
O O9 0.500000 0.440527 0.750000
O O10 0.500000 0.500000 0.500000
#
# Coordination Sequence:
#
# PCOD9264116 Si02
#       4
#     8   8   8   8
#     4  10  19  35  55  85 112 147 196 235 292 346
#     4  11  20  36  59  88 112 153 200 241 284 352
#     4  11  23  36  59  85 122 156 191 243 304 356
#     4  10  19  35  61  82 111 149 196 244 282 348
#
# _framework density 18.845915999999999
#
# number of rings (size 3 to 8) (size 9 to 14) (size 15 to 20)
#    0.000    1.500    5.000    1.500    3.500    0.000 
#    0.000    0.000   11.000    3.000    0.000    0.000 
#    0.000    0.000    0.000    0.000    0.000    0.000 
#
# Total GULP energy -89121.098497 kJ/mol
# GULP energy per Si atom -5570.068656 kJ/mol
# Density = 1.880302 g / cm^3
# Si number density = 18.845916 Si / 1000 Ang^3
#
#
#
# Elastic Constant Matrix: (Units=GPa)
#
#
# Indices 1 2 3 4 5 6 
#
# 1 72.1683 20.4169 46.0996 0.0000 27.1334 0.0000
# 2 20.4169 140.0935 53.5332 0.0000 -9.9155 0.0000
# 3 46.0996 53.5332 83.4857 0.0000 23.3111 0.0000
# 4 0.0000 0.0000 0.0000 39.2340 0.0000 -3.5048
# 5 27.1334 -9.9155 23.3111 0.0000 40.6078 0.0000
# 6 0.0000 0.0000 0.0000 -3.5048 0.0000 18.3682
#
#
#
# Elastic Compliance Matrix: (Units=1/GPa)
#
#
# Indices 1 2 3 4 5 6 
#
# 1 0.024552 -0.000352 -0.010393 0.000000 -0.010525 0.000000
# 2 -0.000352 0.011416 -0.009491 0.000000 0.008471 0.000000
# 3 -0.010393 -0.009491 0.026808 0.000000 -0.010762 0.000000
# 4 0.000000 0.000000 0.000000 0.025930 0.000000 0.004948
# 5 -0.010525 0.008471 -0.010762 0.000000 0.039905 0.000000
# 6 0.000000 0.000000 0.000000 0.004948 0.000000 0.055386
#
#
# Mechanical properties :
#
#
# Convention : Reuss Voigt Hill
#
# Bulk Modulus (GPa) = 44.83470 59.53854 52.18662
# Shear Modulus (GPa) = 21.56081 31.35520 26.45800
#
# Velocity S-wave (km/s) = 3.38606 4.08335 3.75095
# Velocity P-wave (km/s) = 6.25532 7.34116 6.81988
#
# Compressibility (1/GPa) = 0.02230415
#
# Stress axis : x y z
#
# Youngs Moduli (GPa) = 40.73017 87.59894 37.30244
#
# Poissons Ratio (x) = 0.03081 0.38768
# Poissons Ratio (y) = 0.01432 0.35404
# Poissons Ratio (z) = 0.42330 0.83141
#
# Static dielectric constant tensor:
#      x y z
#    x 1.656920 0.000000 0.026660 
#    y 0.000000 1.718070 0.000000 
#    z 0.026660 0.000000 1.678690 
# 
# From -- ./inp_files/28861.got.cif
#   From: 2010.05.17/outbox.cif.g08.bks.cpg/sg15_15_cif.got.tgz:28861.got - 2010.06.03 18:47:42.
