data_PCOD9264719
_publ_section_title
;
Structure prediction by ZEFSAII (Michael W. Deem and Ramdas Pophale) SiO2 
 PCOD9264719
Probable space group: C 2/C
;
_chemical_formula_sum "Si O2"
_cell_formula_units_Z 40
_cell_length_a 10.763579
_cell_length_b 12.694496
_cell_length_c 22.157041
_cell_angle_alpha 90.000000
_cell_angle_beta 34.642850
_cell_angle_gamma 90.000000
_cell_volume 1721.009302
_symmetry_space_group_name_H-M "C 2/C"
_symmetry_group_IT_number 15
_symmetry_cell_setting 'monoclinic'
loop_
_space_group_symop_operation_xyz
x,y,z
-x,y,1/2-z
-x,-y,-z
x,-y,1/2+z
1/2+x,1/2+y,z
1/2-x,1/2+y,1/2-z
1/2-x,1/2-y,-z
1/2+x,1/2-y,1/2+z
loop_
_atom_site_type_symbol
_atom_site_label
_atom_site_fract_x
_atom_site_fract_y
_atom_site_fract_z
Si Si1 0.067187 0.364621 0.078179
Si Si2 0.953836 0.805386 0.450758
Si Si3 0.684905 0.024432 0.729781
Si Si4 0.811101 0.185224 0.373426
Si Si5 0.245781 0.812166 0.847035
O O1 0.946160 0.460959 0.156295
O O2 0.890009 0.288237 0.118371
O O3 0.149584 0.293019 0.102176
O O4 0.240529 0.390791 0.956653
O O5 0.750000 0.750000 0.500000
O O6 0.848119 0.856430 0.552753
O O7 0.122696 0.888458 0.353215
O O8 0.107247 0.711400 0.412653
O O9 0.500000 0.033849 0.750000
O O10 0.777820 0.907550 0.689616
O O11 0.000000 0.160852 0.250000
O O12 0.500000 0.785242 0.750000
#
# Coordination Sequence:
#
# PCOD9264719 Si02
#       5
#     8   8   8   8   8
#     4  10  19  36  64  88 124 166 207 258 315 373
#     4  11  20  35  60  93 127 164 201 263 317 375
#     4  11  20  39  62  89 124 163 211 261 308 374
#     4  10  19  35  62  88 118 167 213 244 314 387
#     4  10  23  35  58  99 123 155 213 259 310 375
#
# _framework density 23.242175
#
# number of rings (size 3 to 8) (size 9 to 14) (size 15 to 20)
#    0.000    1.600    4.000    1.800    0.000    0.000 
#    0.000    0.000    0.000   14.400    0.000    0.000 
#    0.000    0.000    0.000    0.000    0.000    0.000 
#
# Total GULP energy -111662.980620 kJ/mol
# GULP energy per Si atom -5583.149031 kJ/mol
# Density = 2.318927 g / cm^3
# Si number density = 23.242175 Si / 1000 Ang^3
#
#
#
# Elastic Constant Matrix: (Units=GPa)
#
#
# Indices 1 2 3 4 5 6 
#
# 1 85.4816 15.3030 60.3455 0.0004 -24.3865 0.0000
# 2 15.3030 34.6891 28.4751 0.0000 7.5820 0.0000
# 3 60.3455 28.4751 209.9131 -0.0001 20.7992 0.0001
# 4 0.0004 0.0000 -0.0001 12.0582 -0.0001 8.8321
# 5 -24.3865 7.5820 20.7992 -0.0001 58.5320 0.0000
# 6 0.0000 0.0000 0.0001 8.8321 0.0000 19.0079
#
#
#
# Elastic Compliance Matrix: (Units=1/GPa)
#
#
# Indices 1 2 3 4 5 6 
#
# 1 0.020522 -0.006527 -0.006162 -0.000001 0.011586 0.000001
# 2 -0.006527 0.034944 -0.002224 0.000000 -0.006456 0.000000
# 3 -0.006162 -0.002224 0.007321 0.000000 -0.004881 0.000000
# 4 -0.000001 0.000000 0.000000 0.125717 0.000000 -0.058415
# 5 0.011586 -0.006456 -0.004881 0.000000 0.024482 0.000000
# 6 0.000001 0.000000 0.000000 -0.058415 0.000000 0.079752
#
#
# Mechanical properties :
#
#
# Convention : Reuss Voigt Hill
#
# Bulk Modulus (GPa) = 30.34020 59.81456 45.07738
# Shear Modulus (GPa) = 14.99016 32.98364 23.98690
#
# Velocity S-wave (km/s) = 2.54235 3.77122 3.21603
# Velocity P-wave (km/s) = 4.65836 6.68984 5.76430
#
# Compressibility (1/GPa) = 0.03295958
#
# Stress axis : x y z
#
# Youngs Moduli (GPa) = 48.72728 28.61747 136.59892
#
# Poissons Ratio (x) = 0.18679 0.84176
# Poissons Ratio (y) = 0.31806 0.30381
# Poissons Ratio (z) = 0.30027 0.06365
#
# Static dielectric constant tensor:
#      x y z
#    x 1.936000 0.000000 0.014500 
#    y 0.000000 1.858310 0.000000 
#    z 0.014500 0.000000 1.966260 
# 
# From -- ./inp_files/269862.got.cif
#   From: 2010.05.17/outbox.cif.g08.bks.cpg/sg15_135_cif.got.tgz:269862.got - 2010.06.03 18:47:42.
