data_PCOD9264773
_publ_section_title
;
Structure prediction by ZEFSAII (Michael W. Deem and Ramdas Pophale) SiO2 
 PCOD9264773
Probable space group: C 2/C
;
_chemical_formula_sum "Si O2"
_cell_formula_units_Z 64
_cell_length_a 26.909817
_cell_length_b 11.774152
_cell_length_c 15.991915
_cell_angle_alpha 90.000000
_cell_angle_beta 143.570330
_cell_angle_gamma 90.000000
_cell_volume 3008.895426
_symmetry_space_group_name_H-M "C 2/C"
_symmetry_group_IT_number 15
_symmetry_cell_setting 'monoclinic'
loop_
_space_group_symop_operation_xyz
x,y,z
-x,y,1/2-z
-x,-y,-z
x,-y,1/2+z
1/2+x,1/2+y,z
1/2-x,1/2+y,1/2-z
1/2-x,1/2-y,-z
1/2+x,1/2-y,1/2+z
loop_
_atom_site_type_symbol
_atom_site_label
_atom_site_fract_x
_atom_site_fract_y
_atom_site_fract_z
Si Si1 0.140234 0.360090 0.869235
Si Si2 0.046636 0.020617 0.239856
Si Si3 0.444736 0.687126 0.851390
Si Si4 0.236799 0.064384 0.490403
Si Si5 0.379583 0.199696 0.967720
Si Si6 0.485527 0.997189 0.081448
Si Si7 0.688272 0.255687 0.793133
Si Si8 0.503490 0.740867 0.402553
O O1 0.130337 0.252662 0.795201
O O2 0.139633 0.305565 0.960628
O O3 0.058978 0.438565 0.732889
O O4 0.216394 0.446098 0.959456
O O5 0.141653 0.047273 0.389634
O O6 0.993166 0.134249 0.153417
O O7 0.000000 0.953242 0.250000
O O8 0.052321 0.945226 0.164595
O O9 0.532551 0.736405 0.933497
O O10 0.439556 0.715893 0.940974
O O11 0.279427 0.141503 0.618984
O O12 0.234680 0.139511 0.401697
O O13 0.401113 0.068160 0.977580
O O14 0.314151 0.246919 0.810661
O O15 0.480484 0.868047 0.105679
O O16 0.500000 0.000000 0.000000
O O17 0.591539 0.263246 0.691109
#
# Coordination Sequence:
#
# PCOD9264773 Si02
#       8
#     8   8   8   8   8   8   8   8
#     4  11  20  34  60  92 117 149 201 242 300 359
#     4  11  24  40  58  84 116 159 205 245 293 355
#     4  10  20  38  60  85 120 160 193 236 299 359
#     4  10  21  38  63  81 116 162 195 244 296 365
#     4  10  20  33  60  90 120 154 192 244 297 352
#     4  11  16  32  59  91 119 153 189 250 299 344
#     4   9  18  38  58  82 118 157 192 234 310 350
#     4  10  19  35  63  86 113 156 198 241 291 356
#
# _framework density 21.270263
#
# number of rings (size 3 to 8) (size 9 to 14) (size 15 to 20)
#    0.000    1.750    5.000    2.625    0.000    1.500 
#    0.000    6.250    0.000    1.500    0.000    0.000 
#    0.000    0.000    0.000    0.000    0.000    0.000 
#
# Total GULP energy -178520.882573 kJ/mol
# GULP energy per Si atom -5578.777580 kJ/mol
# Density = 2.122185 g / cm^3
# Si number density = 21.270263 Si / 1000 Ang^3
#
#
#
# Elastic Constant Matrix: (Units=GPa)
#
#
# Indices 1 2 3 4 5 6 
#
# 1 39.4129 -1.7143 36.7610 0.0000 -15.5258 0.0000
# 2 -1.7143 86.7523 27.4590 0.0000 -3.4655 0.0000
# 3 36.7610 27.4590 115.1203 0.0000 -32.0607 0.0000
# 4 0.0000 0.0000 0.0000 23.4924 0.0000 -5.0119
# 5 -15.5258 -3.4655 -32.0607 0.0000 21.7276 0.0000
# 6 0.0000 0.0000 0.0000 -5.0119 0.0000 18.9648
#
#
#
# Elastic Compliance Matrix: (Units=1/GPa)
#
#
# Indices 1 2 3 4 5 6 
#
# 1 0.040788 0.004530 -0.009824 0.000000 0.015372 0.000000
# 2 0.004530 0.013188 -0.005271 0.000000 -0.002437 0.000000
# 3 -0.009824 -0.005271 0.018490 0.000000 0.019423 0.000000
# 4 0.000000 0.000000 0.000000 0.045110 0.000000 0.011922
# 5 0.015372 -0.002437 0.019423 0.000000 0.085280 0.000000
# 6 0.000000 0.000000 0.000000 0.011922 0.000000 0.055880
#
#
# Mechanical properties :
#
#
# Convention : Reuss Voigt Hill
#
# Bulk Modulus (GPa) = 19.47982 40.69964 30.08973
# Shear Modulus (GPa) = 16.83629 24.75562 20.79595
#
# Velocity S-wave (km/s) = 2.81649 3.41524 3.13021
# Velocity P-wave (km/s) = 4.44465 5.89304 5.21933
#
# Compressibility (1/GPa) = 0.05133518
#
# Stress axis : x y z
#
# Youngs Moduli (GPa) = 24.51705 75.82926 54.08313
#
# Poissons Ratio (x) = -0.34348 0.53131
# Poissons Ratio (y) = -0.11105 0.28506
# Poissons Ratio (z) = 0.24086 0.39968
#
# Static dielectric constant tensor:
#      x y z
#    x 1.852320 0.000000 -0.039730 
#    y 0.000000 1.813490 0.000000 
#    z -0.039730 0.000000 1.801500 
# 
# From -- ./inp_files/177834.got.cif
#   From: 2010.05.17/outbox.cif.g08.bks.cpg/sg15_89_cif.got.tgz:177834.got - 2010.06.03 18:47:42.
