data_PCOD9264558
_publ_section_title
;
Structure prediction by ZEFSAII (Michael W. Deem and Ramdas Pophale) SiO2 
 PCOD9264558
Probable space group: C 2/C
;
_chemical_formula_sum "Si O2"
_cell_formula_units_Z 44
_cell_length_a 19.319076
_cell_length_b 16.172495
_cell_length_c 9.042469
_cell_angle_alpha 90.000000
_cell_angle_beta 139.068175
_cell_angle_gamma 90.000000
_cell_volume 1850.964739
_symmetry_space_group_name_H-M "C 2/C"
_symmetry_group_IT_number 15
_symmetry_cell_setting 'monoclinic'
loop_
_space_group_symop_operation_xyz
x,y,z
-x,y,1/2-z
-x,-y,-z
x,-y,1/2+z
1/2+x,1/2+y,z
1/2-x,1/2+y,1/2-z
1/2-x,1/2-y,-z
1/2+x,1/2-y,1/2+z
loop_
_atom_site_type_symbol
_atom_site_label
_atom_site_fract_x
_atom_site_fract_y
_atom_site_fract_z
Si Si1 0.500000 0.988675 0.250000
Si Si2 0.909966 0.385981 0.364302
Si Si3 0.294747 0.250376 0.812172
Si Si4 0.367064 0.578542 0.388063
Si Si5 0.107677 0.737113 0.199180
Si Si6 0.617309 0.573703 0.759561
O O1 0.565393 0.047381 0.467504
O O2 0.425172 0.932477 0.233571
O O3 0.805497 0.332710 0.233555
O O4 0.002091 0.315768 0.521079
O O5 0.349846 0.326744 0.816230
O O6 0.183944 0.287635 0.687998
O O7 0.351047 0.229846 0.063211
O O8 0.492694 0.561003 0.587371
O O9 0.329533 0.576569 0.495415
O O10 0.326491 0.500021 0.234798
O O11 0.113389 0.835996 0.183200
#
# Coordination Sequence:
#
# PCOD9264558 Si02
#       6
#     4   8   8   8   8   8
#     4  10  24  38  68  82 114 162 196 250 310 326
#     4  11  20  44  59  88 117 152 204 251 288 368
#     4  10  19  35  60  85 114 155 191 233 295 350
#     4   9  17  32  52  76 104 140 177 220 270 326
#     4  10  19  35  60  85 114 155 191 233 295 350
#     4   9  17  32  52  76 104 140 177 220 270 326
#
# _framework density 23.771386
#
# number of rings (size 3 to 8) (size 9 to 14) (size 15 to 20)
#    0.000    2.182    3.636    0.000    0.000    0.000 
#    9.818    0.909    0.000    0.000    0.000    0.000 
#    0.000    0.000    0.000    0.000    0.000    0.000 
#
# Total GULP energy -122655.657986 kJ/mol
# GULP energy per Si atom -5575.257181 kJ/mol
# Density = 2.371728 g / cm^3
# Si number density = 23.771386 Si / 1000 Ang^3
#
#
#
# Elastic Constant Matrix: (Units=GPa)
#
#
# Indices 1 2 3 4 5 6 
#
# 1 100.0244 62.8000 25.4064 0.0000 -11.1205 0.0000
# 2 62.8000 163.2554 26.5121 0.0000 -31.2264 0.0000
# 3 25.4064 26.5121 29.2306 0.0000 -9.2451 0.0000
# 4 0.0000 0.0000 0.0000 -165.8440 0.0000 -86.8264
# 5 -11.1205 -31.2264 -9.2451 0.0000 18.1935 0.0000
# 6 0.0000 0.0000 0.0000 -86.8264 0.0000 12.5996
#
#
#
# Elastic Compliance Matrix: (Units=1/GPa)
#
#
# Indices 1 2 3 4 5 6 
#
# 1 0.015253 -0.005103 -0.010069 0.000000 -0.004552 0.000000
# 2 -0.005103 0.011227 -0.000762 0.000000 0.015764 0.000000
# 3 -0.010069 -0.000762 0.049201 0.000000 0.017539 0.000000
# 4 0.000000 0.000000 0.000000 -0.001309 0.000000 -0.009018
# 5 -0.004552 0.015764 0.017539 0.000000 0.088151 0.000000
# 6 0.000000 0.000000 0.000000 -0.009018 0.000000 0.017224
#
#
# Mechanical properties :
#
#
# Convention : Reuss Voigt Hill
#
# Bulk Modulus (GPa) = 22.82400 57.99415 40.40907
# Shear Modulus (GPa) = 22.10245 -15.15739 3.47253
#
# Velocity S-wave (km/s) = 3.05256 -2.52788 1.20995
# Velocity P-wave (km/s) = 4.69536 3.99116 4.35751
#
# Compressibility (1/GPa) = 0.04381354
#
# Stress axis : x y z
#
# Youngs Moduli (GPa) = 65.56186 89.06934 20.32491
#
# Poissons Ratio (x) = 0.45451 0.20464
# Poissons Ratio (y) = 0.33455 0.01549
# Poissons Ratio (z) = 0.66012 0.06788
#
# Static dielectric constant tensor:
#      x y z
#    x 1.971940 0.000000 0.035960 
#    y 0.000000 2.000510 0.000000 
#    z 0.035960 0.000000 2.002480 
# 
# From -- ./inp_files/47208.got.cif
#   From: 2010.05.17/outbox.cif.g08.bks.cpg/sg15_24_cif.got.tgz:47208.got - 2010.06.03 18:47:42.
