data_PCOD9264213
_publ_section_title
;
Structure prediction by ZEFSAII (Michael W. Deem and Ramdas Pophale) SiO2 
 PCOD9264213
Probable space group: C 2/C
;
_chemical_formula_sum "Si O2"
_cell_formula_units_Z 48
_cell_length_a 29.962697
_cell_length_b 16.499820
_cell_length_c 9.101437
_cell_angle_alpha 90.000000
_cell_angle_beta 33.731417
_cell_angle_gamma 90.000000
_cell_volume 2498.608216
_symmetry_space_group_name_H-M "C 2/C"
_symmetry_group_IT_number 15
_symmetry_cell_setting 'monoclinic'
loop_
_space_group_symop_operation_xyz
x,y,z
-x,y,1/2-z
-x,-y,-z
x,-y,1/2+z
1/2+x,1/2+y,z
1/2-x,1/2+y,1/2-z
1/2-x,1/2-y,-z
1/2+x,1/2-y,1/2+z
loop_
_atom_site_type_symbol
_atom_site_label
_atom_site_fract_x
_atom_site_fract_y
_atom_site_fract_z
Si Si1 0.715188 0.754451 0.432248
Si Si2 0.029957 0.578222 0.502922
Si Si3 0.476542 0.743652 0.486877
Si Si4 0.721414 0.071984 0.952259
Si Si5 0.472461 0.419137 0.157369
Si Si6 0.716865 0.417724 0.886197
O O1 0.750000 0.750000 0.500000
O O2 0.619438 0.745384 0.719159
O O3 0.738756 0.844357 0.315619
O O4 0.745581 0.673726 0.268146
O O5 0.998332 0.665736 0.531482
O O6 0.126505 0.577342 0.242674
O O7 0.000000 0.572472 0.750000
O O8 0.000000 0.500000 0.500000
O O9 0.505696 0.663338 0.490647
O O10 0.500000 0.736809 0.250000
O O11 0.769017 0.072431 0.976877
O O12 0.739772 0.991113 0.813293
O O13 0.500000 0.421067 0.250000
O O14 0.376214 0.420352 0.403542
O O15 0.500000 0.500000 0.000000
#
# Coordination Sequence:
#
# PCOD9264213 Si02
#       6
#     8   8   8   8   8   8
#     4   8  17  33  54  75 102 137 175 214 258 311
#     4  10  20  35  56  84 112 143 180 220 267 321
#     4   9  19  35  55  78 106 142 181 218 265 320
#     4  10  19  35  57  79 107 143 177 218 264 315
#     4  11  22  36  54  79 109 143 181 226 272 320
#     4  10  20  36  54  77 106 140 179 220 264 317
#
# _framework density 19.210694
#
# number of rings (size 3 to 8) (size 9 to 14) (size 15 to 20)
#    0.000    2.333    0.000    2.500    0.000    4.667 
#    0.000    2.500    0.000    0.000    0.000    0.000 
#    0.000    0.000    0.000    0.000    0.000    0.000 
#
# Total GULP energy -133687.845640 kJ/mol
# GULP energy per Si atom -5570.326902 kJ/mol
# Density = 1.916697 g / cm^3
# Si number density = 19.210694 Si / 1000 Ang^3
#
#
#
# Elastic Constant Matrix: (Units=GPa)
#
#
# Indices 1 2 3 4 5 6 
#
# 1 87.9024 68.5435 9.3328 0.0000 2.6626 0.0000
# 2 68.5435 246.3904 61.7283 0.0000 22.8735 0.0000
# 3 9.3328 61.7283 32.1024 0.0000 9.5309 0.0000
# 4 0.0000 0.0000 0.0000 32.0413 0.0000 3.8506
# 5 2.6626 22.8735 9.5309 0.0000 20.5539 0.0000
# 6 0.0000 0.0000 0.0000 3.8506 0.0000 30.1683
#
#
#
# Elastic Compliance Matrix: (Units=1/GPa)
#
#
# Indices 1 2 3 4 5 6 
#
# 1 0.015401 -0.006162 0.006874 0.000000 0.001675 0.000000
# 2 -0.006162 0.010369 -0.017345 0.000000 -0.002698 0.000000
# 3 0.006874 -0.017345 0.066144 0.000000 -0.012259 0.000000
# 4 0.000000 0.000000 0.000000 0.031696 0.000000 -0.004046
# 5 0.001675 -0.002698 -0.012259 0.000000 0.057122 0.000000
# 6 0.000000 0.000000 0.000000 -0.004046 0.000000 0.033664
#
#
# Mechanical properties :
#
#
# Convention : Reuss Voigt Hill
#
# Bulk Modulus (GPa) = 17.05124 71.73382 44.39253
# Shear Modulus (GPa) = 18.71185 31.67208 25.19197
#
# Velocity S-wave (km/s) = 3.12434 4.06479 3.62519
# Velocity P-wave (km/s) = 4.68086 7.71049 6.37817
#
# Compressibility (1/GPa) = 0.05864678
#
# Stress axis : x y z
#
# Youngs Moduli (GPa) = 64.93273 96.44375 15.11853
#
# Poissons Ratio (x) = 0.59428 -0.10392
# Poissons Ratio (y) = 0.40011 0.26224
# Poissons Ratio (z) = -0.44634 1.67285
#
# Static dielectric constant tensor:
#      x y z
#    x 1.635710 0.000000 -0.037810 
#    y 0.000000 1.760710 0.000000 
#    z -0.037810 0.000000 1.620080 
# 
# From -- ./inp_files/48346.got.cif
#   From: 2010.05.17/outbox.cif.g08.bks.cpg/sg15_25_cif.got.tgz:48346.got - 2010.06.03 18:47:42.
