data_PCOD9264492
_publ_section_title
;
Structure prediction by ZEFSAII (Michael W. Deem and Ramdas Pophale) SiO2 
 PCOD9264492
Probable space group: C 2/C
;
_chemical_formula_sum "Si O2"
_cell_formula_units_Z 28
_cell_length_a 21.415419
_cell_length_b 8.479277
_cell_length_c 10.359543
_cell_angle_alpha 90.000000
_cell_angle_beta 29.338971
_cell_angle_gamma 90.000000
_cell_volume 921.722857
_symmetry_space_group_name_H-M "C 2/C"
_symmetry_group_IT_number 15
_symmetry_cell_setting 'monoclinic'
loop_
_space_group_symop_operation_xyz
x,y,z
-x,y,1/2-z
-x,-y,-z
x,-y,1/2+z
1/2+x,1/2+y,z
1/2-x,1/2+y,1/2-z
1/2-x,1/2-y,-z
1/2+x,1/2-y,1/2+z
loop_
_atom_site_type_symbol
_atom_site_label
_atom_site_fract_x
_atom_site_fract_y
_atom_site_fract_z
Si Si1 0.500000 0.067294 0.750000
Si Si2 0.611533 0.211095 0.194102
Si Si3 0.345737 0.683479 0.180318
Si Si4 0.359330 0.635533 0.542034
O O1 0.604000 0.181364 0.497079
O O2 0.440385 0.963592 0.743862
O O3 0.487273 0.294626 0.482755
O O4 0.750000 0.250000 0.000000
O O5 0.632018 0.271878 0.010579
O O6 0.314216 0.497780 0.223302
O O7 0.240431 0.824074 0.395890
O O8 0.500000 0.576026 0.250000
#
# Coordination Sequence:
#
# PCOD9264492 Si02
#       4
#     4   8   8   8
#     4   8  18  36  54  84 112 144 188 230 278 330
#     4  10  19  35  59  87 115 150 190 230 280 340
#     4  10  19  38  59  82 115 151 186 235 285 330
#     4  10  19  38  65  82 112 152 188 235 285 332
#
# _framework density 30.377893
#
# number of rings (size 3 to 8) (size 9 to 14) (size 15 to 20)
#    0.857    1.714    2.857    3.429    0.000    0.000 
#    0.000   17.143    0.000    0.000    0.000    0.000 
#    0.000    0.000    0.000    0.000    0.000    0.000 
#
# Total GULP energy -78046.010254 kJ/mol
# GULP energy per Si atom -5574.715018 kJ/mol
# Density = 3.030875 g / cm^3
# Si number density = 30.377893 Si / 1000 Ang^3
#
#
#
# Elastic Constant Matrix: (Units=GPa)
#
#
# Indices 1 2 3 4 5 6 
#
# 1 84.9686 21.5739 1.7799 0.0000 -44.8508 0.0000
# 2 21.5739 214.2050 46.3919 0.0000 -29.3553 0.0000
# 3 1.7799 46.3919 198.3895 0.0000 -46.6313 0.0000
# 4 0.0000 0.0000 0.0000 26.9780 0.0000 10.9455
# 5 -44.8508 -29.3553 -46.6313 0.0000 62.2104 0.0000
# 6 0.0000 0.0000 0.0000 10.9455 0.0000 50.5297
#
#
#
# Elastic Compliance Matrix: (Units=1/GPa)
#
#
# Indices 1 2 3 4 5 6 
#
# 1 0.021600 -0.000567 0.004293 0.000000 0.018523 0.000000
# 2 -0.000567 0.005098 -0.000871 0.000000 0.001344 0.000000
# 3 0.004293 -0.000871 0.007085 0.000000 0.007994 0.000000
# 4 0.000000 0.000000 0.000000 0.040639 0.000000 -0.008803
# 5 0.018523 0.001344 0.007994 0.000000 0.036055 0.000000
# 6 0.000000 0.000000 0.000000 -0.008803 0.000000 0.021697
#
#
# Mechanical properties :
#
#
# Convention : Reuss Voigt Hill
#
# Bulk Modulus (GPa) = 25.32099 70.78386 48.05243
# Shear Modulus (GPa) = 35.80895 56.46478 46.13687
#
# Velocity S-wave (km/s) = 3.43707 4.31599 3.90136
# Velocity P-wave (km/s) = 4.90965 6.94181 6.01221
#
# Compressibility (1/GPa) = 0.03949292
#
# Stress axis : x y z
#
# Youngs Moduli (GPa) = 46.29537 196.14020 141.14650
#
# Poissons Ratio (x) = 0.11116 -0.60588
# Poissons Ratio (y) = 0.02624 0.12297
# Poissons Ratio (z) = -0.19873 0.17088
#
# Static dielectric constant tensor:
#      x y z
#    x 2.532530 0.000000 -0.011420 
#    y 0.000000 2.450700 0.000000 
#    z -0.011420 0.000000 2.657370 
# 
# From -- ./inp_files/125207.got.cif
#   From: 2010.05.17/outbox.cif.g08.bks.cpg/sg15_63_cif.got.tgz:125207.got - 2010.06.03 18:47:42.
