data_PCOD9264159
_publ_section_title
;
Structure prediction by ZEFSAII (Michael W. Deem and Ramdas Pophale) SiO2 
 PCOD9264159
Probable space group: C 2/C
;
_chemical_formula_sum "Si O2"
_cell_formula_units_Z 60
_cell_length_a 11.872472
_cell_length_b 8.806347
_cell_length_c 31.197070
_cell_angle_alpha 90.000000
_cell_angle_beta 80.200416
_cell_angle_gamma 90.000000
_cell_volume 3214.158869
_symmetry_space_group_name_H-M "C 2/C"
_symmetry_group_IT_number 15
_symmetry_cell_setting 'monoclinic'
loop_
_space_group_symop_operation_xyz
x,y,z
-x,y,1/2-z
-x,-y,-z
x,-y,1/2+z
1/2+x,1/2+y,z
1/2-x,1/2+y,1/2-z
1/2-x,1/2-y,-z
1/2+x,1/2-y,1/2+z
loop_
_atom_site_type_symbol
_atom_site_label
_atom_site_fract_x
_atom_site_fract_y
_atom_site_fract_z
Si Si1 0.955533 0.620963 0.633102
Si Si2 0.386176 0.799966 0.673732
Si Si3 0.039834 0.853856 0.417230
Si Si4 0.206168 0.114775 0.387428
Si Si5 0.000000 0.413828 0.750000
Si Si6 0.787193 0.829620 0.453404
Si Si7 0.660133 0.107756 0.682716
Si Si8 0.432667 0.026249 0.047971
O O1 0.890016 0.473878 0.656575
O O2 0.872797 0.761688 0.630801
O O3 0.993488 0.561138 0.583660
O O4 0.058665 0.664384 0.657972
O O5 0.450805 0.698293 0.633480
O O6 0.452854 0.811638 0.714215
O O7 0.258758 0.730531 0.686027
O O8 0.075356 0.702957 0.440441
O O9 0.914347 0.894271 0.442289
O O10 0.125514 0.993260 0.416347
O O11 0.282090 0.201320 0.417093
O O12 0.280252 0.024972 0.348451
O O13 0.900092 0.525871 0.773366
O O14 0.750000 0.750000 0.500000
O O15 0.692194 0.953492 0.448232
O O16 0.500000 0.000000 0.000000
#
# Coordination Sequence:
#
# PCOD9264159 Si02
#       8
#     8   8   8   8   4   8   8   8
#     4   9  20  37  58  79 112 152 191 232 283 340
#     4   9  20  39  62  82 117 150 185 231 287 349
#     4  10  21  39  57  82 115 152 196 235 287 348
#     4  10  22  37  58  83 111 153 196 234 283 345
#     4  10  20  36  60  92 114 142 182 236 286 340
#     4  11  21  35  57  79 114 152 191 245 291 327
#     4  10  21  39  61  84 117 150 187 231 288 348
#     4  10  19  35  56  81 112 151 194 242 288 334
#
# _framework density 18.667404000000001
#
# number of rings (size 3 to 8) (size 9 to 14) (size 15 to 20)
#    0.000    2.133    1.333    2.400    0.000    6.933 
#    0.000    4.667    0.000    1.600    0.000    0.000 
#    0.000    0.000    0.000    0.000    0.000    0.000 
#
# Total GULP energy -167392.300077 kJ/mol
# GULP energy per Si atom -5579.743336 kJ/mol
# Density = 1.862492 g / cm^3
# Si number density = 18.667404 Si / 1000 Ang^3
#
#
#
# Elastic Constant Matrix: (Units=GPa)
#
#
# Indices 1 2 3 4 5 6 
#
# 1 60.0241 6.5530 15.6577 0.0000 -16.4290 0.0000
# 2 6.5530 30.4200 6.1546 0.0000 0.6937 0.0000
# 3 15.6577 6.1546 59.6730 0.0000 -7.4081 0.0000
# 4 0.0000 0.0000 0.0000 9.3046 0.0000 0.0454
# 5 -16.4290 0.6937 -7.4081 0.0000 36.2407 0.0000
# 6 0.0000 0.0000 0.0000 0.0454 0.0000 30.7593
#
#
#
# Elastic Compliance Matrix: (Units=1/GPa)
#
#
# Indices 1 2 3 4 5 6 
#
# 1 0.020431 -0.003805 -0.003909 0.000000 0.008536 0.000000
# 2 -0.003805 0.034350 -0.002914 0.000000 -0.002978 0.000000
# 3 -0.003909 -0.002914 0.018336 0.000000 0.002032 0.000000
# 4 0.000000 0.000000 0.000000 0.107475 0.000000 -0.000159
# 5 0.008536 -0.002978 0.002032 0.000000 0.031935 0.000000
# 6 0.000000 0.000000 0.000000 -0.000159 0.000000 0.032511
#
#
# Mechanical properties :
#
#
# Convention : Reuss Voigt Hill
#
# Bulk Modulus (GPa) = 19.28194 22.98307 21.13250
# Shear Modulus (GPa) = 17.63157 23.37772 20.50464
#
# Velocity S-wave (km/s) = 3.07662 3.54266 3.31784
# Velocity P-wave (km/s) = 4.79296 5.39190 5.10123
#
# Compressibility (1/GPa) = 0.05186200
#
# Stress axis : x y z
#
# Youngs Moduli (GPa) = 48.94431 29.11179 54.53608
#
# Poissons Ratio (x) = 0.11077 0.21318
# Poissons Ratio (y) = 0.18624 0.15892
# Poissons Ratio (z) = 0.19132 0.08484
#
# Static dielectric constant tensor:
#      x y z
#    x 1.648600 0.000000 0.012980 
#    y 0.000000 1.622770 0.000000 
#    z 0.012980 0.000000 1.647000 
# 
# From -- ./inp_files/309979.got.cif
#   From: 2010.05.17/outbox.cif.g08.bks.cpg/sg15_155_cif.got.tgz:309979.got - 2010.06.03 18:47:42.
