data_PCOD9264339
_publ_section_title
;
Structure prediction by ZEFSAII (Michael W. Deem and Ramdas Pophale) SiO2 
 PCOD9264339
Probable space group: C 2/C
;
_chemical_formula_sum "Si O2"
_cell_formula_units_Z 56
_cell_length_a 15.635953
_cell_length_b 10.360706
_cell_length_c 23.994972
_cell_angle_alpha 90.000000
_cell_angle_beta 56.122088
_cell_angle_gamma 90.000000
_cell_volume 3227.237534
_symmetry_space_group_name_H-M "C 2/C"
_symmetry_group_IT_number 15
_symmetry_cell_setting 'monoclinic'
loop_
_space_group_symop_operation_xyz
x,y,z
-x,y,1/2-z
-x,-y,-z
x,-y,1/2+z
1/2+x,1/2+y,z
1/2-x,1/2+y,1/2-z
1/2-x,1/2-y,-z
1/2+x,1/2-y,1/2+z
loop_
_atom_site_type_symbol
_atom_site_label
_atom_site_fract_x
_atom_site_fract_y
_atom_site_fract_z
Si Si1 0.518066 0.633955 0.306972
Si Si2 0.128588 0.744245 0.554255
Si Si3 0.129880 0.105661 0.823651
Si Si4 0.831995 0.493507 0.393246
Si Si5 0.898178 0.915149 0.036192
Si Si6 0.634569 0.905262 0.247315
Si Si7 0.007741 0.337424 0.812097
O O1 0.500000 0.588601 0.250000
O O2 0.415509 0.666518 0.379905
O O3 0.581039 0.527371 0.318693
O O4 0.577889 0.770326 0.279124
O O5 0.250000 0.750000 0.500000
O O6 0.115524 0.598720 0.579973
O O7 0.082984 0.797376 0.513282
O O8 0.120768 0.122170 0.893310
O O9 0.251846 0.103094 0.767924
O O10 0.067906 0.223765 0.819889
O O11 0.707852 0.488387 0.444079
O O12 0.855319 0.432765 0.323149
O O13 0.891808 0.628649 0.373853
O O14 0.000000 0.000000 0.000000
O O15 0.572103 0.028694 0.292426
O O16 0.000000 0.304019 0.750000
#
# Coordination Sequence:
#
# PCOD9264339 Si02
#       7
#     8   8   8   8   8   8   8
#     4  12  20  35  61  85 107 144 197 234 269 329
#     4  10  19  35  59  82 106 143 197 230 261 327
#     4  11  23  34  53  86 119 141 178 239 289 322
#     4   9  18  35  60  78 102 148 190 223 267 335
#     4  10  20  36  56  79 110 149 185 224 279 335
#     4  10  19  35  58  83 106 146 188 228 274 330
#     4  10  19  37  55  80 115 146 179 227 290 337
#
# _framework density 17.352301000000001
#
# number of rings (size 3 to 8) (size 9 to 14) (size 15 to 20)
#    0.000    1.714    4.286    1.714    0.000    0.000 
#    0.000    1.429    0.000    0.000    0.000    0.000 
#    0.000    0.000    0.000    0.000    0.000    0.000 
#
# Total GULP energy -155961.216138 kJ/mol
# GULP energy per Si atom -5570.043433 kJ/mol
# Density = 1.731281 g / cm^3
# Si number density = 17.352301 Si / 1000 Ang^3
#
#
#
# Elastic Constant Matrix: (Units=GPa)
#
#
# Indices 1 2 3 4 5 6 
#
# 1 108.5810 44.6539 33.1982 0.0000 -6.8228 0.0000
# 2 44.6539 65.9385 11.4089 0.0000 -3.4603 0.0000
# 3 33.1982 11.4089 73.8069 0.0000 -7.9463 0.0000
# 4 0.0000 0.0000 0.0000 8.3654 0.0000 0.6488
# 5 -6.8228 -3.4603 -7.9463 0.0000 31.4507 0.0000
# 6 0.0000 0.0000 0.0000 0.6488 0.0000 36.0514
#
#
#
# Elastic Compliance Matrix: (Units=1/GPa)
#
#
# Indices 1 2 3 4 5 6 
#
# 1 0.014452 -0.008870 -0.005034 0.000000 0.000887 0.000000
# 2 -0.008870 0.021065 0.000797 0.000000 0.000595 0.000000
# 3 -0.005034 0.000797 0.016017 0.000000 0.003043 0.000000
# 4 0.000000 0.000000 0.000000 0.119707 0.000000 -0.002154
# 5 0.000887 0.000595 0.003043 0.000000 0.032823 0.000000
# 6 0.000000 0.000000 0.000000 -0.002154 0.000000 0.027777
#
#
# Mechanical properties :
#
#
# Convention : Reuss Voigt Hill
#
# Bulk Modulus (GPa) = 39.49034 47.42761 43.45898
# Shear Modulus (GPa) = 18.76207 25.77785 22.26996
#
# Velocity S-wave (km/s) = 3.29179 3.85848 3.58635
# Velocity P-wave (km/s) = 6.10371 6.87328 6.49989
#
# Compressibility (1/GPa) = 0.02532265
#
# Stress axis : x y z
#
# Youngs Moduli (GPa) = 69.19365 47.47121 62.43183
#
# Poissons Ratio (x) = 0.42105 0.31428
# Poissons Ratio (y) = 0.61371 -0.04978
# Poissons Ratio (z) = 0.34832 -0.03785
#
# Static dielectric constant tensor:
#      x y z
#    x 1.598960 0.000000 -0.038690 
#    y 0.000000 1.589020 0.000000 
#    z -0.038690 0.000000 1.696820 
# 
# From -- ./inp_files/273033.got.cif
#   From: 2010.05.17/outbox.cif.g08.bks.cpg/sg15_137_cif.got.tgz:273033.got - 2010.06.03 18:47:42.
