data_PCOD9264615
_publ_section_title
;
Structure prediction by ZEFSAII (Michael W. Deem and Ramdas Pophale) SiO2 
 PCOD9264615
Probable space group: C 2/C
;
_chemical_formula_sum "Si O2"
_cell_formula_units_Z 64
_cell_length_a 20.689868
_cell_length_b 15.571207
_cell_length_c 29.735375
_cell_angle_alpha 90.000000
_cell_angle_beta 20.211561
_cell_angle_gamma 90.000000
_cell_volume 3309.678667
_symmetry_space_group_name_H-M "C 2/C"
_symmetry_group_IT_number 15
_symmetry_cell_setting 'monoclinic'
loop_
_space_group_symop_operation_xyz
x,y,z
-x,y,1/2-z
-x,-y,-z
x,-y,1/2+z
1/2+x,1/2+y,z
1/2-x,1/2+y,1/2-z
1/2-x,1/2-y,-z
1/2+x,1/2-y,1/2+z
loop_
_atom_site_type_symbol
_atom_site_label
_atom_site_fract_x
_atom_site_fract_y
_atom_site_fract_z
Si Si1 0.595614 0.352802 0.639873
Si Si2 0.095057 0.603621 0.273316
Si Si3 0.508067 0.224963 0.870069
Si Si4 0.458977 0.283450 0.372064
Si Si5 0.316654 0.507294 0.055170
Si Si6 0.190670 0.037545 0.545578
Si Si7 0.475302 0.343086 0.555186
Si Si8 0.412757 0.337657 0.112946
O O1 0.500000 0.334366 0.750000
O O2 0.491442 0.296248 0.669849
O O3 0.812377 0.324279 0.495568
O O4 0.603978 0.454710 0.625680
O O5 0.154437 0.549752 0.190866
O O6 0.278270 0.606026 0.184935
O O7 0.072529 0.705051 0.276286
O O8 0.901943 0.568198 0.420496
O O9 0.516677 0.274784 0.911200
O O10 0.690996 0.165650 0.751110
O O11 0.250000 0.250000 0.500000
O O12 0.448683 0.380607 0.360536
O O13 0.520797 0.292064 0.384195
O O14 0.284391 0.512253 0.023226
O O15 0.362513 0.412536 0.041976
O O16 0.497810 0.567756 0.944605
O O17 0.502358 0.300695 0.488687
#
# Coordination Sequence:
#
# PCOD9264615 Si02
#       8
#     8   8   8   8   8   8   8   8
#     4  11  25  44  61  89 122 164 213 251 310 377
#     4  10  19  35  60  93 122 159 206 248 312 365
#     4  11  23  42  66  86 123 167 202 262 310 372
#     4   9  19  37  60  88 127 162 202 251 309 363
#     4  10  21  36  60  94 126 154 209 263 305 365
#     4  10  21  39  62  86 124 167 199 259 308 369
#     4  11  21  37  61  96 123 160 207 265 310 363
#     4  10  20  36  62  90 122 159 206 254 311 366
#
# _framework density 19.337225
#
# number of rings (size 3 to 8) (size 9 to 14) (size 15 to 20)
#    0.000    1.750    2.500    2.625    3.500    1.000 
#    0.000    8.750    0.000    3.750    0.000    0.000 
#    0.000    0.000    0.000    0.000    0.000    0.000 
#
# Total GULP energy -178363.638301 kJ/mol
# GULP energy per Si atom -5573.863697 kJ/mol
# Density = 1.929321 g / cm^3
# Si number density = 19.337225 Si / 1000 Ang^3
#
#
#
# Elastic Constant Matrix: (Units=GPa)
#
#
# Indices 1 2 3 4 5 6 
#
# 1 40.2353 0.0172 3.9611 0.0000 -9.6499 0.0013
# 2 0.0172 62.4960 17.8424 -0.0057 6.1564 0.0013
# 3 3.9611 17.8424 68.8620 -0.0158 -9.4609 -0.0027
# 4 0.0000 -0.0057 -0.0158 31.5408 -0.0065 4.4517
# 5 -9.6499 6.1564 -9.4609 -0.0065 25.2895 -0.0068
# 6 0.0013 0.0013 -0.0027 4.4517 -0.0068 12.0178
#
#
#
# Elastic Compliance Matrix: (Units=1/GPa)
#
#
# Indices 1 2 3 4 5 6 
#
# 1 0.027429 -0.001131 0.000201 0.000002 0.010817 0.000003
# 2 -0.001131 0.018300 -0.005638 0.000000 -0.006995 -0.000007
# 3 0.000201 -0.005638 0.017046 0.000008 0.007826 0.000006
# 4 0.000002 0.000000 0.000008 0.033454 0.000009 -0.012392
# 5 0.010817 -0.006995 0.007826 0.000009 0.048300 0.000025
# 6 0.000003 -0.000007 0.000006 -0.012392 0.000025 0.087800
#
#
# Mechanical properties :
#
#
# Convention : Reuss Voigt Hill
#
# Bulk Modulus (GPa) = 20.14464 23.91497 22.02980
# Shear Modulus (GPa) = 19.08325 23.75448 21.41886
#
# Velocity S-wave (km/s) = 3.14485 3.50870 3.33175
# Velocity P-wave (km/s) = 4.86075 5.36739 5.12034
#
# Compressibility (1/GPa) = 0.04964100
#
# Stress axis : x y z
#
# Youngs Moduli (GPa) = 36.45818 54.64486 58.66405
#
# Poissons Ratio (x) = 0.06178 -0.01181
# Poissons Ratio (y) = 0.04122 0.33073
# Poissons Ratio (z) = -0.00734 0.30807
#
# Static dielectric constant tensor:
#      x y z
#    x 1.699170 0.000000 -0.032170 
#    y 0.000000 1.698570 0.000030 
#    z -0.032170 0.000030 1.708740 
# 
# From -- ./inp_files/317998.got.cif
#   From: 2010.05.17/outbox.cif.g08.bks.cpg/sg15_159_cif.got.tgz:317998.got - 2010.06.03 18:47:42.
