data_PCOD9264764
_publ_section_title
;
Structure prediction by ZEFSAII (Michael W. Deem and Ramdas Pophale) SiO2 
 PCOD9264764
Probable space group: C 2/C
;
_chemical_formula_sum "Si O2"
_cell_formula_units_Z 52
_cell_length_a 19.509285
_cell_length_b 7.470469
_cell_length_c 18.251569
_cell_angle_alpha 90.000000
_cell_angle_beta 134.099292
_cell_angle_gamma 90.000000
_cell_volume 1910.273086
_symmetry_space_group_name_H-M "C 2/C"
_symmetry_group_IT_number 15
_symmetry_cell_setting 'monoclinic'
loop_
_space_group_symop_operation_xyz
x,y,z
-x,y,1/2-z
-x,-y,-z
x,-y,1/2+z
1/2+x,1/2+y,z
1/2-x,1/2+y,1/2-z
1/2-x,1/2-y,-z
1/2+x,1/2-y,1/2+z
loop_
_atom_site_type_symbol
_atom_site_label
_atom_site_fract_x
_atom_site_fract_y
_atom_site_fract_z
Si Si1 0.642563 0.787210 0.441137
Si Si2 0.861918 0.776751 0.936506
Si Si3 0.136904 0.695001 0.405596
Si Si4 0.856420 0.747793 0.247222
Si Si5 0.839829 0.812715 0.391311
Si Si6 0.622033 0.826518 0.208591
Si Si7 0.500000 0.347285 0.750000
O O1 0.750000 0.750000 0.500000
O O2 0.625077 0.805227 0.514779
O O3 0.730275 0.751795 0.296452
O O4 0.623348 0.979794 0.389903
O O5 0.754538 0.696294 0.847875
O O6 0.912770 0.720371 0.899192
O O7 0.842686 0.987478 0.923573
O O8 0.907891 0.732448 0.048470
O O9 0.250000 0.750000 0.500000
O O10 0.100259 0.775312 0.301096
O O11 0.887977 0.831291 0.347498
O O12 0.866371 0.537986 0.272687
O O13 0.910359 0.886998 0.631916
O O14 0.557754 0.749228 0.225407
#
# Coordination Sequence:
#
# PCOD9264764 Si02
#       7
#     8   8   8   8   8   8   4
#     4  12  22  41  67  97 132 175 222 268 326 388
#     4   9  19  35  60  97 130 166 218 269 324 387
#     4  10  19  35  62  97 129 166 218 272 324 387
#     4   9  17  34  58  91 127 163 218 264 319 383
#     4  10  20  38  65  98 126 173 221 263 331 389
#     4  10  19  38  61  91 133 169 220 272 317 383
#     4  12  24  40  66 100 136 168 226 270 318 392
#
# _framework density 27.221238
#
# number of rings (size 3 to 8) (size 9 to 14) (size 15 to 20)
#    0.000    1.846    3.077    2.769    0.000    3.692 
#    2.769    3.846    0.000    6.462    0.000    0.000 
#    0.000    0.000    0.000    0.000    0.000    0.000 
#
# Total GULP energy -145158.731199 kJ/mol
# GULP energy per Si atom -5583.028123 kJ/mol
# Density = 2.715928 g / cm^3
# Si number density = 27.221238 Si / 1000 Ang^3
#
#
#
# Elastic Constant Matrix: (Units=GPa)
#
#
# Indices 1 2 3 4 5 6 
#
# 1 136.3152 -0.0679 41.6718 0.0000 -22.8684 0.0000
# 2 -0.0679 36.9544 7.5610 0.0000 -23.5029 0.0000
# 3 41.6718 7.5610 196.8075 0.0000 -66.6704 0.0000
# 4 0.0000 0.0000 0.0000 35.9162 0.0000 -25.7038
# 5 -22.8684 -23.5029 -66.6704 0.0000 56.8000 0.0000
# 6 0.0000 0.0000 0.0000 -25.7038 0.0000 14.4115
#
#
#
# Elastic Compliance Matrix: (Units=1/GPa)
#
#
# Indices 1 2 3 4 5 6 
#
# 1 0.008118 0.002392 -0.000611 0.000000 0.003540 0.000000
# 2 0.002392 0.042640 0.006904 0.000000 0.026710 0.000000
# 3 -0.000611 0.006904 0.009678 0.000000 0.013970 0.000000
# 4 0.000000 0.000000 0.000000 -0.100723 0.000000 -0.179646
# 5 0.003540 0.026710 0.013970 0.000000 0.046481 0.000000
# 6 0.000000 0.000000 0.000000 -0.179646 0.000000 -0.251020
#
#
# Mechanical properties :
#
#
# Convention : Reuss Voigt Hill
#
# Bulk Modulus (GPa) = 12.85298 52.04520 32.44909
# Shear Modulus (GPa) = -21.16309 42.81968 10.82829
#
# Velocity S-wave (km/s) = -2.79130 3.97044 1.99663
# Velocity P-wave (km/s) = 2.37835 6.33877 4.15473
#
# Compressibility (1/GPa) = 0.07780299
#
# Stress axis : x y z
#
# Youngs Moduli (GPa) = 123.18330 23.45240 103.32907
#
# Poissons Ratio (x) = -0.05609 0.06318
# Poissons Ratio (y) = -0.29461 -0.71335
# Poissons Ratio (z) = 0.07532 -0.16191
#
# Static dielectric constant tensor:
#      x y z
#    x 2.159830 0.000000 0.060220 
#    y 0.000000 2.196720 0.000000 
#    z 0.060220 0.000000 2.206710 
# 
# From -- ./inp_files/172062.got.cif
#   From: 2010.05.17/outbox.cif.g08.bks.cpg/sg15_87_cif.got.tgz:172062.got - 2010.06.03 18:47:42.
