data_PCOD9264604
_publ_section_title
;
Structure prediction by ZEFSAII (Michael W. Deem and Ramdas Pophale) SiO2 
 PCOD9264604
Probable space group: C 2/C
;
_chemical_formula_sum "Si O2"
_cell_formula_units_Z 56
_cell_length_a 15.609033
_cell_length_b 10.448754
_cell_length_c 18.551732
_cell_angle_alpha 90.000000
_cell_angle_beta 105.509136
_cell_angle_gamma 90.000000
_cell_volume 2915.521651
_symmetry_space_group_name_H-M "C 2/C"
_symmetry_group_IT_number 15
_symmetry_cell_setting 'monoclinic'
loop_
_space_group_symop_operation_xyz
x,y,z
-x,y,1/2-z
-x,-y,-z
x,-y,1/2+z
1/2+x,1/2+y,z
1/2-x,1/2+y,1/2-z
1/2-x,1/2-y,-z
1/2+x,1/2-y,1/2+z
loop_
_atom_site_type_symbol
_atom_site_label
_atom_site_fract_x
_atom_site_fract_y
_atom_site_fract_z
Si Si1 0.233963 0.352545 0.434256
Si Si2 0.094664 0.704210 0.264661
Si Si3 0.381203 0.618213 0.854586
Si Si4 0.101166 0.225658 0.291485
Si Si5 0.575579 0.452730 0.364805
Si Si6 0.293059 0.624882 0.317402
Si Si7 0.288916 0.382627 0.979680
O O1 0.250000 0.250000 0.500000
O O2 0.329714 0.357336 0.415991
O O3 0.157501 0.308781 0.361432
O O4 0.220145 0.498466 0.457314
O O5 0.105809 0.752360 0.185751
O O6 0.085744 0.831564 0.312831
O O7 0.187544 0.638821 0.301797
O O8 0.000000 0.633996 0.250000
O O9 0.476311 0.550606 0.874581
O O10 0.316167 0.519454 0.799285
O O11 0.159689 0.212980 0.231347
O O12 0.000000 0.267390 0.250000
O O13 0.091529 0.084165 0.325582
O O14 0.641105 0.431496 0.445870
O O15 0.326991 0.640959 0.407426
O O16 0.250000 0.250000 0.000000
#
# Coordination Sequence:
#
# PCOD9264604 Si02
#       7
#     8   8   8   8   8   8   8
#     4  11  24  40  65 100 134 173 226 285 345 392
#     4  10  19  35  60  90 122 163 215 268 329 402
#     4  10  21  36  62  97 120 169 224 273 326 404
#     4  12  22  40  67 101 137 172 225 289 344 401
#     4  11  20  39  67  94 128 167 229 277 327 406
#     4  11  21  36  62  95 126 171 222 271 338 395
#     4  11  24  41  64  95 134 180 224 275 345 411
#
# _framework density 19.207540999999999
#
# number of rings (size 3 to 8) (size 9 to 14) (size 15 to 20)
#    0.000    1.143    7.143    0.429    0.000    3.429 
#    0.000    2.857    0.000    1.714    0.000    0.000 
#    0.000    0.000    0.000    0.000    0.000    0.000 
#
# Total GULP energy -156087.969948 kJ/mol
# GULP energy per Si atom -5574.570355 kJ/mol
# Density = 1.916382 g / cm^3
# Si number density = 19.207541 Si / 1000 Ang^3
#
#
#
# Elastic Constant Matrix: (Units=GPa)
#
#
# Indices 1 2 3 4 5 6 
#
# 1 135.2630 46.8797 44.7458 0.0000 5.0958 0.0000
# 2 46.8797 84.3777 40.0209 0.0000 6.2888 0.0000
# 3 44.7458 40.0209 115.3943 0.0000 5.1108 0.0000
# 4 0.0000 0.0000 0.0000 32.7356 0.0000 5.5323
# 5 5.0958 6.2888 5.1108 0.0000 28.8790 0.0000
# 6 0.0000 0.0000 0.0000 5.5323 0.0000 24.8370
#
#
#
# Elastic Compliance Matrix: (Units=1/GPa)
#
#
# Indices 1 2 3 4 5 6 
#
# 1 0.009623 -0.004257 -0.002239 0.000000 -0.000375 0.000000
# 2 -0.004257 0.016213 -0.003880 0.000000 -0.002093 0.000000
# 3 -0.002239 -0.003880 0.010910 0.000000 -0.000691 0.000000
# 4 0.000000 0.000000 0.000000 0.031743 0.000000 -0.007071
# 5 -0.000375 -0.002093 -0.000691 0.000000 0.035271 0.000000
# 6 0.000000 0.000000 0.000000 -0.007071 0.000000 0.041837
#
#
# Mechanical properties :
#
#
# Convention : Reuss Voigt Hill
#
# Bulk Modulus (GPa) = 62.51569 66.48088 64.49829
# Shear Modulus (GPa) = 29.12416 30.84955 29.98686
#
# Velocity S-wave (km/s) = 3.89818 4.01199 3.95549
# Velocity P-wave (km/s) = 7.27181 7.49322 7.38335
#
# Compressibility (1/GPa) = 0.01599598
#
# Stress axis : x y z
#
# Youngs Moduli (GPa) = 103.91813 61.68052 91.65859
#
# Poissons Ratio (x) = 0.26256 0.20518
# Poissons Ratio (y) = 0.44236 0.35559
# Poissons Ratio (z) = 0.23262 0.23929
#
# Static dielectric constant tensor:
#      x y z
#    x 1.702180 0.000000 0.004240 
#    y 0.000000 1.713270 0.000000 
#    z 0.004240 0.000000 1.704180 
# 
# From -- ./inp_files/204139.got.cif
#   From: 2010.05.17/outbox.cif.g08.bks.cpg/sg15_103_cif.got.tgz:204139.got - 2010.06.03 18:47:42.
