data_PCOD9264844
_publ_section_title
;
Structure prediction by ZEFSAII (Michael W. Deem and Ramdas Pophale) SiO2 
 PCOD9264844
Probable space group: C 2/C
;
_chemical_formula_sum "Si O2"
_cell_formula_units_Z 52
_cell_length_a 13.294568
_cell_length_b 8.473664
_cell_length_c 21.679982
_cell_angle_alpha 90.000000
_cell_angle_beta 89.084635
_cell_angle_gamma 90.000000
_cell_volume 2442.018557
_symmetry_space_group_name_H-M "C 2/C"
_symmetry_group_IT_number 15
_symmetry_cell_setting 'monoclinic'
loop_
_space_group_symop_operation_xyz
x,y,z
-x,y,1/2-z
-x,-y,-z
x,-y,1/2+z
1/2+x,1/2+y,z
1/2-x,1/2+y,1/2-z
1/2-x,1/2-y,-z
1/2+x,1/2-y,1/2+z
loop_
_atom_site_type_symbol
_atom_site_label
_atom_site_fract_x
_atom_site_fract_y
_atom_site_fract_z
Si Si1 0.544460 0.714483 0.943835
Si Si2 0.270149 0.090826 0.575415
Si Si3 0.334377 0.847850 0.661742
Si Si4 0.342665 0.091937 0.439095
Si Si5 0.000000 0.443837 0.750000
Si Si6 0.561679 0.398212 0.576487
Si Si7 0.362360 0.163979 0.834851
O O1 0.638798 0.768178 0.903860
O O2 0.450623 0.825603 0.927507
O O3 0.521401 0.533295 0.926399
O O4 0.553476 0.712957 0.017162
O O5 0.332501 0.058632 0.512295
O O6 0.241008 0.274700 0.575240
O O7 0.316317 0.027793 0.638895
O O8 0.166887 0.991833 0.570167
O O9 0.235901 0.758823 0.687694
O O10 0.430156 0.841968 0.705102
O O11 0.332227 0.946196 0.393344
O O12 0.921054 0.553449 0.787231
O O13 0.563490 0.295808 0.637699
#
# Coordination Sequence:
#
# PCOD9264844 Si02
#       7
#     8   8   8   8   4   8   8
#     4  10  19  36  64  99 132 163 198 264 334 402
#     4   9  20  36  62  99 131 164 206 261 337 409
#     4  11  24  45  66  88 130 173 216 280 323 383
#     4  10  19  35  65 100 132 165 202 266 338 400
#     4  12  28  48  64  94 126 178 246 272 310 380
#     4   9  20  37  61  98 133 159 208 255 336 408
#     4  11  24  45  66  90 127 174 218 276 324 383
#
# _framework density 21.293858
#
# number of rings (size 3 to 8) (size 9 to 14) (size 15 to 20)
#    0.000    1.846    1.538    1.846    2.154    6.154 
#    5.538    0.000    0.000    0.000    0.000    0.000 
#    0.000    0.000    0.000    0.000    0.000    0.000 
#
# Total GULP energy -145244.649175 kJ/mol
# GULP energy per Si atom -5586.332661 kJ/mol
# Density = 2.124539 g / cm^3
# Si number density = 21.293858 Si / 1000 Ang^3
#
#
#
# Elastic Constant Matrix: (Units=GPa)
#
#
# Indices 1 2 3 4 5 6 
#
# 1 51.0183 12.6280 17.4314 0.0000 10.9239 0.0000
# 2 12.6280 56.0765 15.6817 0.0000 4.9555 0.0000
# 3 17.4314 15.6817 37.7842 0.0000 4.9471 0.0000
# 4 0.0000 0.0000 0.0000 15.2417 0.0000 -2.4320
# 5 10.9239 4.9555 4.9471 0.0000 38.5420 0.0000
# 6 0.0000 0.0000 0.0000 -2.4320 0.0000 24.2502
#
#
#
# Elastic Compliance Matrix: (Units=1/GPa)
#
#
# Indices 1 2 3 4 5 6 
#
# 1 0.024660 -0.002365 -0.009683 0.000000 -0.005442 0.000000
# 2 -0.002365 0.020492 -0.007279 0.000000 -0.001030 0.000000
# 3 -0.009683 -0.007279 0.034044 0.000000 -0.000690 0.000000
# 4 0.000000 0.000000 0.000000 0.066676 0.000000 0.006687
# 5 -0.005442 -0.001030 -0.000690 0.000000 0.027709 0.000000
# 6 0.000000 0.000000 0.000000 0.006687 0.000000 0.041907
#
#
# Mechanical properties :
#
#
# Convention : Reuss Voigt Hill
#
# Bulk Modulus (GPa) = 24.66481 26.26237 25.46359
# Shear Modulus (GPa) = 18.68071 22.21598 20.44835
#
# Velocity S-wave (km/s) = 2.96511 3.23353 3.10222
# Velocity P-wave (km/s) = 4.83019 5.12845 4.98155
#
# Compressibility (1/GPa) = 0.04054360
#
# Stress axis : x y z
#
# Youngs Moduli (GPa) = 40.55213 48.79981 29.37336
#
# Poissons Ratio (x) = 0.11539 0.28441
# Poissons Ratio (y) = 0.09589 0.21381
# Poissons Ratio (z) = 0.39265 0.35522
#
# Static dielectric constant tensor:
#      x y z
#    x 1.784670 0.000000 0.026930 
#    y 0.000000 1.784370 0.000000 
#    z 0.026930 0.000000 1.767160 
# 
# From -- ./inp_files/242412.got.cif
#   From: 2010.05.17/outbox.cif.g08.bks.cpg/sg15_122_cif.got.tgz:242412.got - 2010.06.03 18:47:42.
