data_PCOD9264642
_publ_section_title
;
Structure prediction by ZEFSAII (Michael W. Deem and Ramdas Pophale) SiO2 
 PCOD9264642
Probable space group: C 2/C
;
_chemical_formula_sum "Si O2"
_cell_formula_units_Z 56
_cell_length_a 7.854826
_cell_length_b 17.768223
_cell_length_c 26.463774
_cell_angle_alpha 90.000000
_cell_angle_beta 140.496550
_cell_angle_gamma 90.000000
_cell_volume 2349.495355
_symmetry_space_group_name_H-M "C 2/C"
_symmetry_group_IT_number 15
_symmetry_cell_setting 'monoclinic'
loop_
_space_group_symop_operation_xyz
x,y,z
-x,y,1/2-z
-x,-y,-z
x,-y,1/2+z
1/2+x,1/2+y,z
1/2-x,1/2+y,1/2-z
1/2-x,1/2-y,-z
1/2+x,1/2-y,1/2+z
loop_
_atom_site_type_symbol
_atom_site_label
_atom_site_fract_x
_atom_site_fract_y
_atom_site_fract_z
Si Si1 0.679373 0.204960 0.535543
Si Si2 0.075961 0.990696 0.715614
Si Si3 0.326392 0.019078 0.613890
Si Si4 0.386894 0.238437 0.591112
Si Si5 0.287697 0.611660 0.342508
Si Si6 0.749164 0.663346 0.658182
Si Si7 0.931644 0.587947 0.920349
O O1 0.750000 0.250000 0.500000
O O2 0.423658 0.252300 0.496255
O O3 0.561914 0.119656 0.520526
O O4 0.983285 0.193832 0.625227
O O5 0.372862 0.021077 0.793619
O O6 0.000000 0.948175 0.750000
O O7 0.857854 0.054593 0.657432
O O8 0.063866 0.940704 0.663708
O O9 0.179466 0.089104 0.608005
O O10 0.361316 0.032146 0.561554
O O11 0.230604 0.937102 0.610325
O O12 0.560629 0.310914 0.619531
O O13 0.356234 0.226393 0.644175
O O14 0.522953 0.163845 0.601125
O O15 0.000000 0.623324 0.250000
O O16 0.000000 0.644023 0.750000
#
# Coordination Sequence:
#
# PCOD9264642 Si02
#       7
#     8   8   8   8   8   8   8
#     4  10  21  38  57  83 121 154 184 243 309 348
#     4   9  18  33  57  84 114 152 196 247 290 335
#     4   9  18  33  55  83 112 148 194 245 294 338
#     4  10  23  37  55  87 121 152 188 238 301 357
#     4  10  20  36  55  82 122 155 185 243 310 351
#     4  10  19  35  61  86 108 149 204 242 278 349
#     4  10  19  36  60  81 106 154 207 236 274 356
#
# _framework density 23.834907000000001
#
# number of rings (size 3 to 8) (size 9 to 14) (size 15 to 20)
#    0.000    2.286    0.000    3.429    0.000    5.714 
#    0.000   10.714    0.000    0.000    0.000    0.000 
#    0.000    0.000    0.000    0.000    0.000    0.000 
#
# Total GULP energy -155983.564018 kJ/mol
# GULP energy per Si atom -5570.841572 kJ/mol
# Density = 2.378066 g / cm^3
# Si number density = 23.834907 Si / 1000 Ang^3
#
#
#
# Elastic Constant Matrix: (Units=GPa)
#
#
# Indices 1 2 3 4 5 6 
#
# 1 126.0835 69.5789 29.1144 -0.0001 12.7126 -0.0002
# 2 69.5789 109.4228 16.4676 -0.0003 6.3672 -0.0004
# 3 29.1144 16.4676 57.9668 -0.0004 18.7869 -0.0010
# 4 -0.0001 -0.0003 -0.0004 18.2240 -0.0003 7.0049
# 5 12.7126 6.3672 18.7869 -0.0003 45.2053 -0.0003
# 6 -0.0002 -0.0004 -0.0010 7.0049 -0.0003 8.3466
#
#
#
# Elastic Compliance Matrix: (Units=1/GPa)
#
#
# Indices 1 2 3 4 5 6 
#
# 1 0.013264 -0.007754 -0.004165 0.000000 -0.000907 -0.000001
# 2 -0.007754 0.014083 -0.000196 0.000000 0.000279 0.000000
# 3 -0.004165 -0.000196 0.021970 -0.000001 -0.007931 0.000003
# 4 0.000000 0.000000 -0.000001 0.081003 0.000000 -0.067982
# 5 -0.000907 0.000279 -0.007931 0.000000 0.025633 0.000000
# 6 -0.000001 0.000000 0.000003 -0.067982 0.000000 0.176862
#
#
# Mechanical properties :
#
#
# Convention : Reuss Voigt Hill
#
# Bulk Modulus (GPa) = 39.86507 58.19945 49.03226
# Shear Modulus (GPa) = 13.68332 26.24265 19.96298
#
# Velocity S-wave (km/s) = 2.39861 3.32176 2.89719
# Velocity P-wave (km/s) = 4.94297 6.25962 5.63985
#
# Compressibility (1/GPa) = 0.02508462
#
# Stress axis : x y z
#
# Youngs Moduli (GPa) = 75.39366 71.00736 45.51762
#
# Poissons Ratio (x) = 0.55062 0.18958
# Poissons Ratio (y) = 0.58464 0.00894
# Poissons Ratio (z) = 0.31401 0.01395
#
# Static dielectric constant tensor:
#      x y z
#    x 2.044560 0.000000 -0.063780 
#    y 0.000000 1.898930 0.000000 
#    z -0.063780 0.000000 1.952650 
# 
# From -- ./inp_files/308653.got.cif
#   From: 2010.05.17/outbox.cif.g08.bks.cpg/sg15_155_cif.got.tgz:308653.got - 2010.06.03 18:47:42.
