data_PCOD9264417
_publ_section_title
;
Structure prediction by ZEFSAII (Michael W. Deem and Ramdas Pophale) SiO2 
 PCOD9264417
Probable space group: C 2/C
;
_chemical_formula_sum "Si O2"
_cell_formula_units_Z 52
_cell_length_a 12.151483
_cell_length_b 9.014369
_cell_length_c 18.604639
_cell_angle_alpha 90.000000
_cell_angle_beta 92.400626
_cell_angle_gamma 90.000000
_cell_volume 2036.125518
_symmetry_space_group_name_H-M "C 2/C"
_symmetry_group_IT_number 15
_symmetry_cell_setting 'monoclinic'
loop_
_space_group_symop_operation_xyz
x,y,z
-x,y,1/2-z
-x,-y,-z
x,-y,1/2+z
1/2+x,1/2+y,z
1/2-x,1/2+y,1/2-z
1/2-x,1/2-y,-z
1/2+x,1/2-y,1/2+z
loop_
_atom_site_type_symbol
_atom_site_label
_atom_site_fract_x
_atom_site_fract_y
_atom_site_fract_z
Si Si1 0.887777 0.197988 0.381154
Si Si2 0.004440 0.522292 0.612145
Si Si3 0.361354 0.388652 0.444971
Si Si4 0.000000 0.681713 0.250000
Si Si5 0.749845 0.099382 0.095512
Si Si6 0.690160 0.650897 0.814646
Si Si7 0.095994 0.727556 0.461256
O O1 0.996539 0.300927 0.378256
O O2 0.806794 0.263159 0.318269
O O3 0.849008 0.238711 0.461631
O O4 0.889376 0.022153 0.390814
O O5 0.987810 0.429052 0.683554
O O6 0.129011 0.477262 0.593526
O O7 0.919984 0.447434 0.554873
O O8 0.275064 0.274246 0.407591
O O9 0.314870 0.433224 0.522720
O O10 0.474659 0.301622 0.463133
O O11 0.893498 0.788350 0.246710
O O12 0.800869 0.024355 0.168761
O O13 0.643349 0.705665 0.890148
#
# Coordination Sequence:
#
# PCOD9264417 Si02
#       7
#     8   8   8   4   8   8   8
#     4  11  20  35  61  97 120 159 196 260 326 388
#     4   9  21  37  62  83 123 160 215 250 311 367
#     4  10  20  34  59  96 143 145 191 248 334 395
#     4  10  22  46  58  82 114 176 228 288 290 368
#     4   9  19  37  59  92 123 167 186 255 313 390
#     4  10  21  37  64  82 120 165 217 246 320 371
#     4  10  19  35  58  95 128 157 194 256 319 389
#
# _framework density 25.538701
#
# number of rings (size 3 to 8) (size 9 to 14) (size 15 to 20)
#    0.000    2.154    1.538    1.385    2.154    0.000 
#    8.308    9.231    0.000    9.231    0.000    0.000 
#    0.000    0.000    0.000    0.000    0.000    0.000 
#
# Total GULP energy -145160.737076 kJ/mol
# GULP energy per Si atom -5583.105272 kJ/mol
# Density = 2.548057 g / cm^3
# Si number density = 25.538701 Si / 1000 Ang^3
#
#
#
# Elastic Constant Matrix: (Units=GPa)
#
#
# Indices 1 2 3 4 5 6 
#
# 1 33.6155 -0.3165 -5.4825 0.0000 3.3614 0.0000
# 2 -0.3165 181.4799 25.6324 0.0000 19.5138 0.0000
# 3 -5.4825 25.6324 57.9515 0.0000 12.2501 0.0000
# 4 0.0000 0.0000 0.0000 27.2921 0.0000 -7.4375
# 5 3.3614 19.5138 12.2501 0.0000 33.9350 0.0000
# 6 0.0000 0.0000 0.0000 -7.4375 0.0000 15.2658
#
#
#
# Elastic Compliance Matrix: (Units=1/GPa)
#
#
# Indices 1 2 3 4 5 6 
#
# 1 0.030821 -0.000014 0.003860 0.000000 -0.004438 0.000000
# 2 -0.000014 0.006105 -0.002122 0.000000 -0.002743 0.000000
# 3 0.003860 -0.002122 0.019901 0.000000 -0.006346 0.000000
# 4 0.000000 0.000000 0.000000 0.042250 0.000000 0.020584
# 5 -0.004438 -0.002743 -0.006346 0.000000 0.033776 0.000000
# 6 0.000000 0.000000 0.000000 0.020584 0.000000 0.075534
#
#
# Mechanical properties :
#
#
# Convention : Reuss Voigt Hill
#
# Bulk Modulus (GPa) = 16.59031 34.74597 25.66814
# Shear Modulus (GPa) = 22.21915 32.17947 27.19931
#
# Velocity S-wave (km/s) = 2.95281 3.55354 3.26701
# Velocity P-wave (km/s) = 4.25860 5.52011 4.92987
#
# Compressibility (1/GPa) = 0.06027615
#
# Stress axis : x y z
#
# Youngs Moduli (GPa) = 32.44491 163.80376 50.24870
#
# Poissons Ratio (x) = 0.00234 -0.19398
# Poissons Ratio (y) = 0.00046 0.10661
# Poissons Ratio (z) = -0.12525 0.34754
#
# Static dielectric constant tensor:
#      x y z
#    x 2.088720 0.000000 0.019930 
#    y 0.000000 2.146650 0.000000 
#    z 0.019930 0.000000 1.991590 
# 
# From -- ./inp_files/272347.got.cif
#   From: 2010.05.17/outbox.cif.g08.bks.cpg/sg15_137_cif.got.tgz:272347.got - 2010.06.03 18:47:42.
