data_PCOD9264020
_publ_section_title
;
Structure prediction by ZEFSAII (Michael W. Deem and Ramdas Pophale) SiO2 
 PCOD9264020
Probable space group: C 2/C
;
_chemical_formula_sum "Si O2"
_cell_formula_units_Z 60
_cell_length_a 25.672407
_cell_length_b 23.822775
_cell_length_c 5.771259
_cell_angle_alpha 90.000000
_cell_angle_beta 53.931663
_cell_angle_gamma 90.000000
_cell_volume 2853.056268
_symmetry_space_group_name_H-M "C 2/C"
_symmetry_group_IT_number 15
_symmetry_cell_setting 'monoclinic'
loop_
_space_group_symop_operation_xyz
x,y,z
-x,y,1/2-z
-x,-y,-z
x,-y,1/2+z
1/2+x,1/2+y,z
1/2-x,1/2+y,1/2-z
1/2-x,1/2-y,-z
1/2+x,1/2-y,1/2+z
loop_
_atom_site_type_symbol
_atom_site_label
_atom_site_fract_x
_atom_site_fract_y
_atom_site_fract_z
Si Si1 0.254628 0.524168 0.784183
Si Si2 0.358283 0.360724 0.564184
Si Si3 0.431829 0.248062 0.299910
Si Si4 0.735253 0.135439 0.073256
Si Si5 0.292155 0.282076 0.087411
Si Si6 0.123087 0.320785 0.154416
Si Si7 0.500000 0.822913 0.250000
Si Si8 0.403828 0.484175 0.419996
O O1 0.233196 0.506443 0.581407
O O2 0.332417 0.513589 0.582574
O O3 0.230659 0.586914 0.896285
O O4 0.396785 0.307180 0.365973
O O5 0.299813 0.375898 0.548469
O O6 0.397496 0.417636 0.485844
O O7 0.327463 0.335450 0.878494
O O8 0.500000 0.258783 0.250000
O O9 0.389608 0.202284 0.552622
O O10 0.453874 0.217019 0.015524
O O11 0.678005 0.138883 0.409486
O O12 0.747643 0.193220 0.904241
O O13 0.250000 0.250000 0.000000
O O14 0.347533 0.238893 0.017866
O O15 0.054334 0.349268 0.269416
O O16 0.432226 0.508769 0.585661
#
# Coordination Sequence:
#
# PCOD9264020 Si02
#       8
#     8   8   8   8   8   8   4   8
#     4  10  20  36  54  80 120 153 190 234 288 353
#     4  11  21  33  57  80 113 154 189 237 288 352
#     4   9  21  39  54  78 107 151 196 232 279 341
#     4  12  22  32  56  86 115 155 186 232 300 345
#     4  11  22  32  49  83 124 146 184 233 291 351
#     4  10  22  34  53  80 113 150 188 231 280 351
#     4  10  20  40  56  70 112 152 192 238 278 336
#     4  10  19  35  53  81 114 151 191 239 289 345
#
# _framework density 21.030079000000001
#
# number of rings (size 3 to 8) (size 9 to 14) (size 15 to 20)
#    0.000    1.600    4.000    2.800    3.733    0.000 
#    0.000    0.000    0.000    0.800    0.000    0.933 
#    0.000    0.000    0.000    0.000    0.000    0.000 
#
# Total GULP energy -167064.559593 kJ/mol
# GULP energy per Si atom -5568.818653 kJ/mol
# Density = 2.098221 g / cm^3
# Si number density = 21.030079 Si / 1000 Ang^3
#
#
#
# Elastic Constant Matrix: (Units=GPa)
#
#
# Indices 1 2 3 4 5 6 
#
# 1 54.1428 -15.1172 -2.8054 0.0000 -0.6840 0.0000
# 2 -15.1172 40.0477 11.4348 0.0000 8.9082 0.0000
# 3 -2.8054 11.4348 121.6423 0.0000 8.4221 0.0000
# 4 0.0000 0.0000 0.0000 112.3718 0.0000 27.6988
# 5 -0.6840 8.9082 8.4221 0.0000 22.0617 0.0000
# 6 0.0000 0.0000 0.0000 27.6988 0.0000 16.0048
#
#
#
# Elastic Compliance Matrix: (Units=1/GPa)
#
#
# Indices 1 2 3 4 5 6 
#
# 1 0.020801 0.008498 -0.000130 0.000000 -0.002737 0.000000
# 2 0.008498 0.031322 -0.001942 0.000000 -0.011642 0.000000
# 3 -0.000130 -0.001942 0.008573 0.000000 -0.002492 0.000000
# 4 0.000000 0.000000 0.000000 0.015520 0.000000 -0.026859
# 5 -0.002737 -0.011642 -0.002492 0.000000 0.050895 0.000000
# 6 0.000000 0.000000 0.000000 -0.026859 0.000000 0.108965
#
#
# Mechanical properties :
#
#
# Convention : Reuss Voigt Hill
#
# Bulk Modulus (GPa) = 13.59657 22.53969 18.06813
# Shear Modulus (GPa) = 20.18241 44.90904 32.54573
#
# Velocity S-wave (km/s) = 3.10125 4.62612 3.93820
# Velocity P-wave (km/s) = 4.39352 6.26704 5.41197
#
# Compressibility (1/GPa) = 0.07354798
#
# Stress axis : x y z
#
# Youngs Moduli (GPa) = 48.07454 31.92611 116.64535
#
# Poissons Ratio (x) = -0.27130 0.01512
# Poissons Ratio (y) = -0.40853 0.22657
# Poissons Ratio (z) = 0.00623 0.06201
#
# Static dielectric constant tensor:
#      x y z
#    x 0.126510 0.000000 -0.106270 
#    y 0.000000 1.761210 0.000000 
#    z -0.106270 0.000000 1.793710 
# 
# From -- ./inp_files/18705.got.cif
#   From: 2010.05.17/outbox.cif.g08.bks.cpg/sg15_10_cif.got.tgz:18705.got - 2010.06.03 18:47:42.
