data_PCOD9264104
_publ_section_title
;
Structure prediction by ZEFSAII (Michael W. Deem and Ramdas Pophale) SiO2 
 PCOD9264104
Probable space group: C 2/C
;
_chemical_formula_sum "Si O2"
_cell_formula_units_Z 48
_cell_length_a 28.379926
_cell_length_b 12.576664
_cell_length_c 21.115887
_cell_angle_alpha 90.000000
_cell_angle_beta 162.169064
_cell_angle_gamma 90.000000
_cell_volume 2307.833598
_symmetry_space_group_name_H-M "C 2/C"
_symmetry_group_IT_number 15
_symmetry_cell_setting 'monoclinic'
loop_
_space_group_symop_operation_xyz
x,y,z
-x,y,1/2-z
-x,-y,-z
x,-y,1/2+z
1/2+x,1/2+y,z
1/2-x,1/2+y,1/2-z
1/2-x,1/2-y,-z
1/2+x,1/2-y,1/2+z
loop_
_atom_site_type_symbol
_atom_site_label
_atom_site_fract_x
_atom_site_fract_y
_atom_site_fract_z
Si Si1 0.037277 0.972190 0.445446
Si Si2 0.508457 0.985568 0.614860
Si Si3 0.196913 0.107763 0.761777
Si Si4 0.587567 0.331347 0.927482
Si Si5 0.856484 0.312155 0.186758
Si Si6 0.332221 0.143013 0.289945
O O1 0.154168 0.878381 0.578677
O O2 0.874827 0.933099 0.263970
O O3 0.113786 0.041175 0.599781
O O4 0.044088 0.052157 0.395343
O O5 0.611175 0.065292 0.788576
O O6 0.425958 0.070812 0.461144
O O7 0.376188 0.921052 0.481898
O O8 0.613145 0.908999 0.706370
O O9 0.152713 0.230557 0.695514
O O10 0.500000 0.311948 0.750000
O O11 0.516764 0.250451 0.887233
O O12 0.765742 0.313472 0.137657
O O13 0.750000 0.250000 0.000000
#
# Coordination Sequence:
#
# PCOD9264104 Si02
#       6
#     8   8   8   8   8   8
#     4  10  20  36  54  82 119 149 192 245 291 360
#     4  10  20  34  56  84 120 157 194 246 298 359
#     4  10  21  33  55  88 115 156 194 237 302 365
#     4  10  21  37  58  82 111 151 194 247 302 350
#     4  10  21  37  57  84 112 150 196 247 297 349
#     4  10  19  35  55  82 121 157 192 238 301 360
#
# _framework density 20.798725999999998
#
# number of rings (size 3 to 8) (size 9 to 14) (size 15 to 20)
#    0.000    2.000    1.667    2.000    2.333    0.000 
#    6.000    0.000    0.000    1.000    0.000    0.000 
#    0.000    0.000    0.000    0.000    0.000    0.000 
#
# Total GULP energy -133801.876978 kJ/mol
# GULP energy per Si atom -5575.078207 kJ/mol
# Density = 2.075139 g / cm^3
# Si number density = 20.798726 Si / 1000 Ang^3
#
#
#
# Elastic Constant Matrix: (Units=GPa)
#
#
# Indices 1 2 3 4 5 6 
#
# 1 95.4964 49.9756 46.5900 -0.0002 47.4433 -0.0001
# 2 49.9756 108.7453 26.5296 -0.0004 22.9909 -0.0003
# 3 46.5900 26.5296 48.7630 -0.0003 34.1985 -0.0003
# 4 -0.0002 -0.0004 -0.0003 31.7542 -0.0002 8.1806
# 5 47.4433 22.9909 34.1985 -0.0002 38.6142 -0.0002
# 6 -0.0001 -0.0003 -0.0003 8.1806 -0.0002 38.7227
#
#
#
# Elastic Compliance Matrix: (Units=1/GPa)
#
#
# Indices 1 2 3 4 5 6 
#
# 1 0.031560 -0.006856 -0.005521 0.000000 -0.029805 0.000000
# 2 -0.006856 0.012242 -0.002390 0.000000 0.003251 0.000000
# 3 -0.005521 -0.002390 0.056291 0.000000 -0.041647 0.000000
# 4 0.000000 0.000000 0.000000 0.033304 0.000000 -0.007036
# 5 -0.029805 0.003251 -0.041647 0.000000 0.097465 0.000000
# 6 0.000000 0.000000 0.000000 -0.007036 0.000000 0.027311
#
#
# Mechanical properties :
#
#
# Convention : Reuss Voigt Hill
#
# Bulk Modulus (GPa) = 14.17270 55.46611 34.81940
# Shear Modulus (GPa) = 16.06538 30.47886 23.27212
#
# Velocity S-wave (km/s) = 2.78226 3.83223 3.34866
# Velocity P-wave (km/s) = 4.14129 6.80494 5.63283
#
# Compressibility (1/GPa) = 0.07055818
#
# Stress axis : x y z
#
# Youngs Moduli (GPa) = 31.68539 81.68446 17.76488
#
# Poissons Ratio (x) = 0.56001 0.09809
# Poissons Ratio (y) = 0.21723 0.04247
# Poissons Ratio (z) = 0.17495 0.19526
#
# Static dielectric constant tensor:
#      x y z
#    x 1.774890 0.000000 -0.002360 
#    y 0.000000 1.746560 0.000000 
#    z -0.002360 0.000000 1.849440 
# 
# From -- ./inp_files/60625.got.cif
#   From: 2010.05.17/outbox.cif.g08.bks.cpg/sg15_31_cif.got.tgz:60625.got - 2010.06.03 18:47:42.
