data_PCOD9264592
_publ_section_title
;
Structure prediction by ZEFSAII (Michael W. Deem and Ramdas Pophale) SiO2 
 PCOD9264592
Probable space group: C 2/C
;
_chemical_formula_sum "Si O2"
_cell_formula_units_Z 56
_cell_length_a 15.419236
_cell_length_b 5.724557
_cell_length_c 27.216827
_cell_angle_alpha 90.000000
_cell_angle_beta 103.863760
_cell_angle_gamma 90.000000
_cell_volume 2332.397266
_symmetry_space_group_name_H-M "C 2/C"
_symmetry_group_IT_number 15
_symmetry_cell_setting 'monoclinic'
loop_
_space_group_symop_operation_xyz
x,y,z
-x,y,1/2-z
-x,-y,-z
x,-y,1/2+z
1/2+x,1/2+y,z
1/2-x,1/2+y,1/2-z
1/2-x,1/2-y,-z
1/2+x,1/2-y,1/2+z
loop_
_atom_site_type_symbol
_atom_site_label
_atom_site_fract_x
_atom_site_fract_y
_atom_site_fract_z
Si Si1 0.453124 0.144641 0.420437
Si Si2 0.915507 0.764243 0.600294
Si Si3 0.606934 0.347624 0.486099
Si Si4 0.073036 0.039131 0.166481
Si Si5 0.790399 0.398627 0.370055
Si Si6 0.770164 0.441317 0.565523
Si Si7 0.211569 0.070245 0.262444
O O1 0.506047 0.250412 0.474402
O O2 0.434775 0.319146 0.371834
O O3 0.521110 0.946747 0.409992
O O4 0.357508 0.030578 0.416028
O O5 0.816776 0.667262 0.593344
O O6 0.972784 0.861452 0.653118
O O7 0.905654 0.958744 0.557382
O O8 0.665792 0.454106 0.537718
O O9 0.671963 0.143741 0.473386
O O10 0.143181 0.215955 0.149170
O O11 0.114691 0.013300 0.226023
O O12 0.720887 0.254458 0.392200
O O13 0.738169 0.545435 0.322677
O O14 0.234789 0.341855 0.252707
#
# Coordination Sequence:
#
# PCOD9264592 Si02
#       7
#     8   8   8   8   8   8   8
#     4   9  17  34  53  77 110 146 190 234 297 354
#     4   9  18  34  56  75 107 156 192 232 289 364
#     4   9  19  35  55  74 109 161 196 231 296 366
#     4   9  18  34  56  81 105 149 189 236 303 364
#     4  10  20  32  54  87 112 139 193 256 298 355
#     4  10  20  34  53  82 113 149 197 243 295 352
#     4  10  19  35  60  89 115 148 189 244 312 366
#
# _framework density 24.009633999999998
#
# number of rings (size 3 to 8) (size 9 to 14) (size 15 to 20)
#    0.000    2.571    1.429    0.429    0.000    1.714 
#    0.000    6.429    0.000    9.429    0.000    0.000 
#    0.000    0.000    0.000    0.000    0.000    0.000 
#
# Total GULP energy -156179.426032 kJ/mol
# GULP energy per Si atom -5577.836644 kJ/mol
# Density = 2.395499 g / cm^3
# Si number density = 24.009634 Si / 1000 Ang^3
#
#
#
# Elastic Constant Matrix: (Units=GPa)
#
#
# Indices 1 2 3 4 5 6 
#
# 1 62.9428 19.5909 44.1771 0.0000 22.6971 0.0000
# 2 19.5909 62.9280 15.4996 0.0000 13.4080 0.0000
# 3 44.1771 15.4996 122.1345 0.0000 41.0931 0.0000
# 4 0.0000 0.0000 0.0000 38.9825 0.0000 13.6999
# 5 22.6971 13.4080 41.0931 0.0000 39.6851 0.0000
# 6 0.0000 0.0000 0.0000 13.6999 0.0000 46.8778
#
#
#
# Elastic Compliance Matrix: (Units=1/GPa)
#
#
# Indices 1 2 3 4 5 6 
#
# 1 0.023627 -0.004657 -0.006044 0.000000 -0.005682 0.000000
# 2 -0.004657 0.018051 0.000843 0.000000 -0.004309 0.000000
# 3 -0.006044 0.000843 0.014118 0.000000 -0.011448 0.000000
# 4 0.000000 0.000000 0.000000 0.028589 0.000000 -0.008355
# 5 -0.005682 -0.004309 -0.011448 0.000000 0.041758 0.000000
# 6 0.000000 0.000000 0.000000 -0.008355 0.000000 0.023774
#
#
# Mechanical properties :
#
#
# Convention : Reuss Voigt Hill
#
# Bulk Modulus (GPa) = 27.71373 45.17116 36.44244
# Shear Modulus (GPa) = 27.52414 36.35826 31.94120
#
# Velocity S-wave (km/s) = 3.38950 3.89565 3.65135
# Velocity P-wave (km/s) = 5.18518 6.25215 5.74349
#
# Compressibility (1/GPa) = 0.03608320
#
# Stress axis : x y z
#
# Youngs Moduli (GPa) = 42.32366 55.39789 70.82982
#
# Poissons Ratio (x) = 0.25796 0.42806
# Poissons Ratio (y) = 0.19708 -0.05972
# Poissons Ratio (z) = 0.25579 -0.04671
#
# Static dielectric constant tensor:
#      x y z
#    x 1.916070 0.000000 0.034240 
#    y 0.000000 2.026530 0.000000 
#    z 0.034240 0.000000 1.880560 
# 
# From -- ./inp_files/297782.got.cif
#   From: 2010.05.17/outbox.cif.g08.bks.cpg/sg15_149_cif.got.tgz:297782.got - 2010.06.03 18:47:42.
