data_PCOD9264002
_publ_section_title
;
Structure prediction by ZEFSAII (Michael W. Deem and Ramdas Pophale) SiO2 
 PCOD9264002
Probable space group: C 2/C
;
_chemical_formula_sum "Si O2"
_cell_formula_units_Z 60
_cell_length_a 18.119354
_cell_length_b 26.861357
_cell_length_c 12.574688
_cell_angle_alpha 90.000000
_cell_angle_beta 148.989285
_cell_angle_gamma 90.000000
_cell_volume 3153.133469
_symmetry_space_group_name_H-M "C 2/C"
_symmetry_group_IT_number 15
_symmetry_cell_setting 'monoclinic'
loop_
_space_group_symop_operation_xyz
x,y,z
-x,y,1/2-z
-x,-y,-z
x,-y,1/2+z
1/2+x,1/2+y,z
1/2-x,1/2+y,1/2-z
1/2-x,1/2-y,-z
1/2+x,1/2-y,1/2+z
loop_
_atom_site_type_symbol
_atom_site_label
_atom_site_fract_x
_atom_site_fract_y
_atom_site_fract_z
Si Si1 0.043741 0.950936 0.663986
Si Si2 0.216153 0.898483 0.058153
Si Si3 0.085537 0.200578 0.965078
Si Si4 0.000000 0.956313 0.250000
Si Si5 0.664878 0.718776 0.484300
Si Si6 0.328728 0.404751 0.871520
Si Si7 0.898146 0.273231 0.880083
Si Si8 0.479876 0.125992 0.595789
O O1 0.098478 0.944997 0.614299
O O2 0.885273 0.927422 0.484103
O O3 0.056751 0.004766 0.732416
O O4 0.148766 0.916259 0.863879
O O5 0.384991 0.906917 0.273925
O O6 0.203362 0.838974 0.041072
O O7 0.000000 0.194822 0.750000
O O8 0.004970 0.241661 0.938228
O O9 0.094931 0.149119 0.043178
O O10 0.252276 0.210396 0.140892
O O11 0.128837 0.923610 0.458225
O O12 0.500000 0.721339 0.250000
O O13 0.750000 0.750000 0.500000
O O14 0.669895 0.742546 0.606448
O O15 0.167710 0.397773 0.629980
O O16 0.976387 0.320002 0.033360
O O17 0.500000 0.131769 0.750000
#
# Coordination Sequence:
#
# PCOD9264002 Si02
#       8
#     8   8   8   4   8   8   8   8
#     4  10  21  38  65  86 116 153 196 250 305 357
#     4  10  19  35  52  87 121 156 193 236 302 359
#     4  11  23  40  57  82 119 164 211 246 284 353
#     4  10  22  42  64  94 112 148 210 248 302 374
#     4  12  21  31  51  84 126 159 196 244 292 363
#     4  11  22  40  65  89 117 159 196 253 305 348
#     4  11  23  34  55  84 116 168 201 240 294 340
#     4  11  21  36  59  89 127 158 193 245 302 358
#
# _framework density 19.028690000000001
#
# number of rings (size 3 to 8) (size 9 to 14) (size 15 to 20)
#    0.000    1.333    3.333    5.200    1.867    0.000 
#    0.000    3.333    0.000    0.000    0.000    0.000 
#    0.000    0.000    0.000    0.000    0.000    0.000 
#
# Total GULP energy -167217.638941 kJ/mol
# GULP energy per Si atom -5573.921298 kJ/mol
# Density = 1.898538 g / cm^3
# Si number density = 19.028690 Si / 1000 Ang^3
#
#
#
# Elastic Constant Matrix: (Units=GPa)
#
#
# Indices 1 2 3 4 5 6 
#
# 1 58.5026 14.2433 44.2658 0.0000 6.9459 0.0000
# 2 14.2433 58.1503 34.8184 0.0000 1.6125 0.0000
# 3 44.2658 34.8184 166.8659 0.0000 9.0287 0.0000
# 4 0.0000 0.0000 0.0000 12.1564 0.0000 -8.9997
# 5 6.9459 1.6125 9.0287 0.0000 20.1212 0.0000
# 6 0.0000 0.0000 0.0000 -8.9997 0.0000 4.5014
#
#
#
# Elastic Compliance Matrix: (Units=1/GPa)
#
#
# Indices 1 2 3 4 5 6 
#
# 1 0.022124 -0.002204 -0.005130 0.000000 -0.005159 0.000000
# 2 -0.002204 0.019873 -0.003605 0.000000 0.000786 0.000000
# 3 -0.005130 -0.003605 0.008193 0.000000 -0.001617 0.000000
# 4 0.000000 0.000000 0.000000 -0.171321 0.000000 -0.342529
# 5 -0.005159 0.000786 -0.001617 0.000000 0.052142 0.000000
# 6 0.000000 0.000000 0.000000 -0.342529 0.000000 -0.462673
#
#
# Mechanical properties :
#
#
# Convention : Reuss Voigt Hill
#
# Bulk Modulus (GPa) = 35.31957 52.24153 43.78055
# Shear Modulus (GPa) = -9.99307 20.03521 5.02107
#
# Velocity S-wave (km/s) = -2.29412 3.24835 1.62616
# Velocity P-wave (km/s) = 3.40356 6.44847 5.15592
#
# Compressibility (1/GPa) = 0.02831292
#
# Stress axis : x y z
#
# Youngs Moduli (GPa) = 45.19986 50.31902 122.05120
#
# Poissons Ratio (x) = 0.11092 0.62611
# Poissons Ratio (y) = 0.09964 0.43993
# Poissons Ratio (z) = 0.23187 0.18138
#
# Static dielectric constant tensor:
#      x y z
#    x 1.693020 0.000000 -0.027760 
#    y 0.000000 1.702580 0.000000 
#    z -0.027760 0.000000 1.773770 
# 
# From -- ./inp_files/108594.got.cif
#   From: 2010.05.17/outbox.cif.g08.bks.cpg/sg15_55_cif.got.tgz:108594.got - 2010.06.03 18:47:42.
