data_PCOD9264577
_publ_section_title
;
Structure prediction by ZEFSAII (Michael W. Deem and Ramdas Pophale) SiO2 
 PCOD9264577
Probable space group: C 2/C
;
_chemical_formula_sum "Si O2"
_cell_formula_units_Z 60
_cell_length_a 27.157953
_cell_length_b 11.656852
_cell_length_c 19.426359
_cell_angle_alpha 90.000000
_cell_angle_beta 147.000776
_cell_angle_gamma 90.000000
_cell_volume 3349.418634
_symmetry_space_group_name_H-M "C 2/C"
_symmetry_group_IT_number 15
_symmetry_cell_setting 'monoclinic'
loop_
_space_group_symop_operation_xyz
x,y,z
-x,y,1/2-z
-x,-y,-z
x,-y,1/2+z
1/2+x,1/2+y,z
1/2-x,1/2+y,1/2-z
1/2-x,1/2-y,-z
1/2+x,1/2-y,1/2+z
loop_
_atom_site_type_symbol
_atom_site_label
_atom_site_fract_x
_atom_site_fract_y
_atom_site_fract_z
Si Si1 0.671068 0.631378 0.978991
Si Si2 0.605943 0.283884 0.803661
Si Si3 0.286380 0.006709 0.711929
Si Si4 0.155088 0.529315 0.065380
Si Si5 0.280229 0.253177 0.422800
Si Si6 0.000000 0.026185 0.250000
Si Si7 0.175379 0.603455 0.455039
Si Si8 0.947530 0.470888 0.294447
O O1 0.581957 0.554553 0.869576
O O2 0.652587 0.765895 0.947872
O O3 0.725267 0.597403 0.111559
O O4 0.739479 0.599556 0.996854
O O5 0.684138 0.295704 0.838062
O O6 0.538129 0.389195 0.735175
O O7 0.557654 0.163283 0.731823
O O8 0.658361 0.270939 0.937719
O O9 0.237905 0.124521 0.632765
O O10 0.379871 0.006042 0.778531
O O11 0.305895 0.002870 0.815176
O O12 0.172922 0.663141 0.072227
O O13 0.198187 0.463701 0.051177
O O14 0.049010 0.500734 0.934287
O O15 0.094248 0.541624 0.318529
#
# Coordination Sequence:
#
# PCOD9264577 Si02
#       8
#     8   8   8   8   8   4   8   8
#     4  10  23  40  58  82 122 152 189 237 291 339
#     4  10  19  35  60  87 114 140 194 248 287 322
#     4  10  23  40  55  82 126 153 181 234 303 344
#     4  12  22  34  64  85 114 150 198 230 284 352
#     4  10  20  37  57  84 116 153 184 239 293 338
#     4  12  20  32  62  90 108 146 196 244 280 336
#     4  10  22  40  59  85 114 154 192 240 285 340
#     4  10  21  38  60  88 112 146 198 247 277 330
#
# _framework density 17.913557000000001
#
# number of rings (size 3 to 8) (size 9 to 14) (size 15 to 20)
#    0.000    1.600    2.667    2.400    3.733    0.000 
#    0.000    0.000    0.000    3.200    0.000    0.000 
#    0.000    0.000    0.000    0.000    0.000    0.000 
#
# Total GULP energy -167541.326680 kJ/mol
# GULP energy per Si atom -5584.710889 kJ/mol
# Density = 1.787278 g / cm^3
# Si number density = 17.913557 Si / 1000 Ang^3
#
#
#
# Elastic Constant Matrix: (Units=GPa)
#
#
# Indices 1 2 3 4 5 6 
#
# 1 28.1506 5.3798 20.8877 0.0000 -14.8910 0.0000
# 2 5.3798 49.6728 14.8330 0.0000 4.5348 0.0000
# 3 20.8877 14.8330 73.4551 0.0000 -12.6772 0.0000
# 4 0.0000 0.0000 0.0000 15.6573 0.0000 13.2338
# 5 -14.8910 4.5348 -12.6772 0.0000 37.3471 0.0000
# 6 0.0000 0.0000 0.0000 13.2338 0.0000 20.1208
#
#
#
# Elastic Compliance Matrix: (Units=1/GPa)
#
#
# Indices 1 2 3 4 5 6 
#
# 1 0.054565 -0.004148 -0.011511 0.000000 0.018352 0.000000
# 2 -0.004148 0.022417 -0.004358 0.000000 -0.005855 0.000000
# 3 -0.011511 -0.004358 0.018128 0.000000 0.002093 0.000000
# 4 0.000000 0.000000 0.000000 0.143818 0.000000 -0.094591
# 5 0.018352 -0.005855 0.002093 0.000000 0.035515 0.000000
# 6 0.000000 0.000000 0.000000 -0.094591 0.000000 0.111914
#
#
# Mechanical properties :
#
#
# Convention : Reuss Voigt Hill
#
# Bulk Modulus (GPa) = 18.15645 25.94218 22.04932
# Shear Modulus (GPa) = 11.24231 21.97024 16.60627
#
# Velocity S-wave (km/s) = 2.50789 3.50588 3.04801
# Velocity P-wave (km/s) = 4.30623 5.55892 4.97218
#
# Compressibility (1/GPa) = 0.05507685
#
# Stress axis : x y z
#
# Youngs Moduli (GPa) = 18.32668 44.60956 55.16245
#
# Poissons Ratio (x) = 0.18503 0.63499
# Poissons Ratio (y) = 0.07601 0.24038
# Poissons Ratio (z) = 0.21096 0.19439
#
# Static dielectric constant tensor:
#      x y z
#    x 1.621740 0.000000 0.029710 
#    y 0.000000 1.618510 0.000000 
#    z 0.029710 0.000000 1.589170 
# 
# From -- ./inp_files/167597.got.cif
#   From: 2010.05.17/outbox.cif.g08.bks.cpg/sg15_84_cif.got.tgz:167597.got - 2010.06.03 18:47:42.
