data_PCOD9264986
_publ_section_title
;
Structure prediction by ZEFSAII (Michael W. Deem and Ramdas Pophale) SiO2 
 PCOD9264986
Probable space group: C 2/C
;
_chemical_formula_sum "Si O2"
_cell_formula_units_Z 56
_cell_length_a 17.118468
_cell_length_b 17.343245
_cell_length_c 17.510444
_cell_angle_alpha 90.000000
_cell_angle_beta 141.145493
_cell_angle_gamma 90.000000
_cell_volume 3261.360502
_symmetry_space_group_name_H-M "C 2/C"
_symmetry_group_IT_number 15
_symmetry_cell_setting 'monoclinic'
loop_
_space_group_symop_operation_xyz
x,y,z
-x,y,1/2-z
-x,-y,-z
x,-y,1/2+z
1/2+x,1/2+y,z
1/2-x,1/2+y,1/2-z
1/2-x,1/2-y,-z
1/2+x,1/2-y,1/2+z
loop_
_atom_site_type_symbol
_atom_site_label
_atom_site_fract_x
_atom_site_fract_y
_atom_site_fract_z
Si Si1 0.474030 0.706898 0.318474
Si Si2 0.245684 0.940452 0.263408
Si Si3 0.464642 0.178928 0.943752
Si Si4 0.731808 0.122525 0.200175
Si Si5 0.413380 0.416337 0.501826
Si Si6 0.881211 0.161939 0.448479
Si Si7 0.509110 0.430951 0.347594
O O1 0.500000 0.716410 0.250000
O O2 0.461621 0.785181 0.356450
O O3 0.347281 0.658307 0.239558
O O4 0.585829 0.658167 0.443263
O O5 0.365160 0.889241 0.372259
O O6 0.128317 0.913029 0.224525
O O7 0.264764 0.030204 0.296360
O O8 0.202537 0.930829 0.142011
O O9 0.427110 0.251539 0.968651
O O10 0.601986 0.151963 0.069430
O O11 0.754424 0.151167 0.304755
O O12 0.526378 0.395835 0.529224
O O13 0.447126 0.488665 0.580399
O O14 0.896609 0.132905 0.546046
O O15 0.500000 0.436163 0.250000
#
# Coordination Sequence:
#
# PCOD9264986 Si02
#       7
#     8   8   8   8   8   8   8
#     4  10  22  36  55  89 115 138 183 236 282 324
#     4  11  19  36  56  82 109 146 193 219 265 339
#     4  10  23  34  57  78 113 158 177 217 277 344
#     4  10  19  36  56  80 109 146 187 219 268 332
#     4   9  17  33  56  81 106 140 183 230 269 319
#     4   9  19  34  55  80 103 139 187 231 266 319
#     4  11  19  33  57  85 104 135 188 244 280 298
#
# _framework density 17.170748
#
# number of rings (size 3 to 8) (size 9 to 14) (size 15 to 20)
#    0.000    2.286    4.286    1.714   12.000    0.571 
#    0.000    0.714    0.000    0.000    0.000    0.000 
#    0.000    0.000    0.000    0.000    0.000    0.000 
#
# Total GULP energy -155997.202730 kJ/mol
# GULP energy per Si atom -5571.328669 kJ/mol
# Density = 1.713167 g / cm^3
# Si number density = 17.170748 Si / 1000 Ang^3
#
#
#
# Elastic Constant Matrix: (Units=GPa)
#
#
# Indices 1 2 3 4 5 6 
#
# 1 40.3029 32.2078 51.8072 0.0000 -6.2793 0.0000
# 2 32.2078 87.5963 60.4152 0.0000 7.6098 0.0000
# 3 51.8072 60.4152 117.9016 0.0000 2.6612 0.0000
# 4 0.0000 0.0000 0.0000 22.1913 0.0000 5.8146
# 5 -6.2793 7.6098 2.6612 0.0000 27.6927 0.0000
# 6 0.0000 0.0000 0.0000 5.8146 0.0000 8.7266
#
#
#
# Elastic Compliance Matrix: (Units=1/GPa)
#
#
# Indices 1 2 3 4 5 6 
#
# 1 0.068712 -0.009138 -0.025975 0.000000 0.020588 0.000000
# 2 -0.009138 0.019322 -0.005732 0.000000 -0.006831 0.000000
# 3 -0.025975 -0.005732 0.022980 0.000000 -0.006523 0.000000
# 4 0.000000 0.000000 0.000000 0.054594 0.000000 -0.036377
# 5 0.020588 -0.006831 -0.006523 0.000000 0.043283 0.000000
# 6 0.000000 0.000000 0.000000 -0.036377 0.000000 0.138831
#
#
# Mechanical properties :
#
#
# Convention : Reuss Voigt Hill
#
# Bulk Modulus (GPa) = 34.10095 59.40679 46.75387
# Shear Modulus (GPa) = 11.38470 18.48016 14.93243
#
# Velocity S-wave (km/s) = 2.57773 3.28420 2.95217
# Velocity P-wave (km/s) = 5.36308 7.00386 6.23765
#
# Compressibility (1/GPa) = 0.02932469
#
# Stress axis : x y z
#
# Youngs Moduli (GPa) = 14.55360 51.75323 43.51675
#
# Poissons Ratio (x) = 0.47291 1.13034
# Poissons Ratio (y) = 0.13299 0.24943
# Poissons Ratio (z) = 0.37803 0.29664
#
# Static dielectric constant tensor:
#      x y z
#    x 1.576860 0.000000 -0.012950 
#    y 0.000000 1.603740 0.000000 
#    z -0.012950 0.000000 1.614930 
# 
# From -- ./inp_files/211244.got.cif
#   From: 2010.05.17/outbox.cif.g08.bks.cpg/sg15_106_cif.got.tgz:211244.got - 2010.06.03 18:47:42.
