data_PCOD9264838
_publ_section_title
;
Structure prediction by ZEFSAII (Michael W. Deem and Ramdas Pophale) SiO2 
 PCOD9264838
Probable space group: C 2/C
;
_chemical_formula_sum "Si O2"
_cell_formula_units_Z 56
_cell_length_a 7.722470
_cell_length_b 17.728930
_cell_length_c 17.604280
_cell_angle_alpha 90.000000
_cell_angle_beta 78.386554
_cell_angle_gamma 90.000000
_cell_volume 2360.879889
_symmetry_space_group_name_H-M "C 2/C"
_symmetry_group_IT_number 15
_symmetry_cell_setting 'monoclinic'
loop_
_space_group_symop_operation_xyz
x,y,z
-x,y,1/2-z
-x,-y,-z
x,-y,1/2+z
1/2+x,1/2+y,z
1/2-x,1/2+y,1/2-z
1/2-x,1/2-y,-z
1/2+x,1/2-y,1/2+z
loop_
_atom_site_type_symbol
_atom_site_label
_atom_site_fract_x
_atom_site_fract_y
_atom_site_fract_z
Si Si1 0.366158 0.954748 0.108984
Si Si2 0.181063 0.398459 0.983945
Si Si3 0.000000 0.497550 0.750000
Si Si4 0.667641 0.270271 0.782354
Si Si5 0.588163 0.352388 0.162621
Si Si6 0.079574 0.287393 0.880008
Si Si7 0.500000 0.500000 0.000000
Si Si8 0.747189 0.895053 0.623935
O O1 0.170280 0.922520 0.111420
O O2 0.367577 0.039108 0.076957
O O3 0.398368 0.955203 0.195580
O O4 0.517771 0.906127 0.056144
O O5 0.186718 0.318597 0.941567
O O6 0.359730 0.429296 0.002924
O O7 0.139622 0.447265 0.692073
O O8 0.500000 0.243757 0.750000
O O9 0.755804 0.204234 0.823984
O O10 0.815028 0.298484 0.708466
O O11 0.622761 0.341199 0.839404
O O12 0.500000 0.375690 0.250000
O O13 0.465251 0.300901 0.121044
O O14 0.898209 0.336174 0.896323
O O15 0.656355 0.449453 0.942497
#
# Coordination Sequence:
#
# PCOD9264838 Si02
#       8
#     8   8   4   8   8   8   4   8
#     4  11  23  40  65  92 132 178 215 277 345 412
#     4  11  22  41  63  92 133 176 224 280 344 406
#     4  12  20  38  66  94 126 180 222 270 344 414
#     4  10  19  35  64  95 127 168 228 285 328 402
#     4   9  22  40  63  97 133 174 229 282 344 412
#     4  10  19  41  66  88 126 179 229 278 337 413
#     4  12  24  36  60 102 130 164 218 296 338 396
#     4  11  19  36  60  91 128 172 222 274 336 406
#
# _framework density 23.719971000000001
#
# number of rings (size 3 to 8) (size 9 to 14) (size 15 to 20)
#    0.000    1.429    4.286    2.571    1.000    1.714 
#    0.000    0.714    0.000    5.143    0.000    0.000 
#    0.000    0.000    0.000    0.000    0.000    0.000 
#
# Total GULP energy -156186.048810 kJ/mol
# GULP energy per Si atom -5578.073172 kJ/mol
# Density = 2.366598 g / cm^3
# Si number density = 23.719971 Si / 1000 Ang^3
#
#
#
# Elastic Constant Matrix: (Units=GPa)
#
#
# Indices 1 2 3 4 5 6 
#
# 1 56.8583 0.7043 19.5458 0.0000 -12.7489 0.0000
# 2 0.7043 44.9328 40.9864 0.0000 -11.8339 0.0000
# 3 19.5458 40.9864 88.7965 0.0000 -14.9164 0.0000
# 4 0.0000 0.0000 0.0000 18.6732 0.0000 -7.8296
# 5 -12.7489 -11.8339 -14.9164 0.0000 38.7564 0.0000
# 6 0.0000 0.0000 0.0000 -7.8296 0.0000 35.2739
#
#
#
# Elastic Compliance Matrix: (Units=1/GPa)
#
#
# Indices 1 2 3 4 5 6 
#
# 1 0.021533 0.008167 -0.007378 0.000000 0.006737 0.000000
# 2 0.008167 0.042562 -0.020109 0.000000 0.007943 0.000000
# 3 -0.007378 -0.020109 0.022161 0.000000 -0.000038 0.000000
# 4 0.000000 0.000000 0.000000 0.059048 0.000000 0.013107
# 5 0.006737 0.007943 -0.000038 0.000000 0.030429 0.000000
# 6 0.000000 0.000000 0.000000 0.013107 0.000000 0.031259
#
#
# Mechanical properties :
#
#
# Convention : Reuss Voigt Hill
#
# Bulk Modulus (GPa) = 21.00111 34.78450 27.89281
# Shear Modulus (GPa) = 19.12007 27.16412 23.14209
#
# Velocity S-wave (km/s) = 2.84223 3.38775 3.12691
# Velocity P-wave (km/s) = 4.43215 5.47713 4.98212
#
# Compressibility (1/GPa) = 0.04761653
#
# Stress axis : x y z
#
# Youngs Moduli (GPa) = 46.43983 23.49497 45.12395
#
# Poissons Ratio (x) = -0.19187 0.33290
# Poissons Ratio (y) = -0.37925 0.90740
# Poissons Ratio (z) = 0.34261 0.47246
#
# Static dielectric constant tensor:
#      x y z
#    x 1.986640 0.000000 0.089260 
#    y 0.000000 1.840870 0.000000 
#    z 0.089260 0.000000 1.899850 
# 
# From -- ./inp_files/190965.got.cif
#   From: 2010.05.17/outbox.cif.g08.bks.cpg/sg15_96_cif.got.tgz:190965.got - 2010.06.03 18:47:42.
