data_PCOD9264698
_publ_section_title
;
Structure prediction by ZEFSAII (Michael W. Deem and Ramdas Pophale) SiO2 
 PCOD9264698
Probable space group: C 2/C
;
_chemical_formula_sum "Si O2"
_cell_formula_units_Z 32
_cell_length_a 9.802161
_cell_length_b 14.445843
_cell_length_c 9.130106
_cell_angle_alpha 90.000000
_cell_angle_beta 120.434211
_cell_angle_gamma 90.000000
_cell_volume 1114.690462
_symmetry_space_group_name_H-M "C 2/C"
_symmetry_group_IT_number 15
_symmetry_cell_setting 'monoclinic'
loop_
_space_group_symop_operation_xyz
x,y,z
-x,y,1/2-z
-x,-y,-z
x,-y,1/2+z
1/2+x,1/2+y,z
1/2-x,1/2+y,1/2-z
1/2-x,1/2-y,-z
1/2+x,1/2-y,1/2+z
loop_
_atom_site_type_symbol
_atom_site_label
_atom_site_fract_x
_atom_site_fract_y
_atom_site_fract_z
Si Si1 0.236576 0.509559 0.413023
Si Si2 0.616914 0.239204 0.180639
Si Si3 0.021557 0.880987 0.609564
Si Si4 0.101551 0.371959 0.104948
O O1 0.147177 0.562067 0.493176
O O2 0.397138 0.464986 0.564028
O O3 0.303537 0.584971 0.334069
O O4 0.144265 0.433066 0.269265
O O5 0.500000 0.213745 0.250000
O O6 0.785033 0.280276 0.325167
O O7 0.574028 0.166391 0.026700
O O8 0.000000 0.826505 0.750000
O O9 0.956413 0.831654 0.431283
#
# Coordination Sequence:
#
# PCOD9264698 Si02
#       4
#     8   8   8   8
#     4  10  20  36  65  95 126 168 221 264 314 388
#     4  11  23  40  67  98 130 171 215 270 326 388
#     4  10  19  35  61  97 125 163 224 266 302 381
#     4  11  23  43  70  97 128 172 221 268 322 385
#
# _framework density 28.707523999999999
#
# number of rings (size 3 to 8) (size 9 to 14) (size 15 to 20)
#    0.000    1.500    5.000    0.750    0.000    0.000 
#    0.000    8.750    0.000    0.000    0.000    0.000 
#    0.000    0.000    0.000    0.000    0.000    0.000 
#
# Total GULP energy -89645.412229 kJ/mol
# GULP energy per Si atom -5602.838264 kJ/mol
# Density = 2.864218 g / cm^3
# Si number density = 28.707524 Si / 1000 Ang^3
#
#
#
# Elastic Constant Matrix: (Units=GPa)
#
#
# Indices 1 2 3 4 5 6 
#
# 1 104.3219 15.1888 48.8634 0.0000 -9.7147 0.0000
# 2 15.1888 111.3915 62.2116 0.0000 2.1702 0.0000
# 3 48.8634 62.2116 193.5749 0.0000 17.3665 0.0000
# 4 0.0000 0.0000 0.0000 68.9324 0.0000 -11.8763
# 5 -9.7147 2.1702 17.3665 0.0000 59.9377 0.0000
# 6 0.0000 0.0000 0.0000 -11.8763 0.0000 35.0956
#
#
#
# Elastic Compliance Matrix: (Units=1/GPa)
#
#
# Indices 1 2 3 4 5 6 
#
# 1 0.011291 0.000166 -0.003149 0.000000 0.002737 0.000000
# 2 0.000166 0.010968 -0.003628 0.000000 0.000681 0.000000
# 3 -0.003149 -0.003628 0.007352 0.000000 -0.002509 0.000000
# 4 0.000000 0.000000 0.000000 0.015405 0.000000 0.005213
# 5 0.002737 0.000681 -0.002509 0.000000 0.017830 0.000000
# 6 0.000000 0.000000 0.000000 0.005213 0.000000 0.030258
#
#
# Mechanical properties :
#
#
# Convention : Reuss Voigt Hill
#
# Bulk Modulus (GPa) = 61.01711 73.53508 67.27610
# Shear Modulus (GPa) = 44.72738 51.66143 48.19440
#
# Velocity S-wave (km/s) = 3.95148 4.24675 4.10177
# Velocity P-wave (km/s) = 6.48998 7.05105 6.77632
#
# Compressibility (1/GPa) = 0.01638884
#
# Stress axis : x y z
#
# Youngs Moduli (GPa) = 88.56314 91.17819 136.02029
#
# Poissons Ratio (x) = -0.01511 0.42833
# Poissons Ratio (y) = -0.01468 0.49344
# Poissons Ratio (z) = 0.27889 0.33077
#
# Static dielectric constant tensor:
#      x y z
#    x 2.194210 0.000000 -0.012600 
#    y 0.000000 2.390800 0.000000 
#    z -0.012600 0.000000 2.207290 
# 
# From -- ./inp_files/85892.got.cif
#   From: 2010.05.17/outbox.cif.g08.bks.cpg/sg15_43_cif.got.tgz:85892.got - 2010.06.03 18:47:42.
