data_PCOD9264409
_publ_section_title
;
Structure prediction by ZEFSAII (Michael W. Deem and Ramdas Pophale) SiO2 
 PCOD9264409
Probable space group: C 2/C
;
_chemical_formula_sum "Si O2"
_cell_formula_units_Z 48
_cell_length_a 29.603328
_cell_length_b 9.362517
_cell_length_c 14.644717
_cell_angle_alpha 90.000000
_cell_angle_beta 147.917229
_cell_angle_gamma 90.000000
_cell_volume 2155.888399
_symmetry_space_group_name_H-M "C 2/C"
_symmetry_group_IT_number 15
_symmetry_cell_setting 'monoclinic'
loop_
_space_group_symop_operation_xyz
x,y,z
-x,y,1/2-z
-x,-y,-z
x,-y,1/2+z
1/2+x,1/2+y,z
1/2-x,1/2+y,1/2-z
1/2-x,1/2-y,-z
1/2+x,1/2-y,1/2+z
loop_
_atom_site_type_symbol
_atom_site_label
_atom_site_fract_x
_atom_site_fract_y
_atom_site_fract_z
Si Si1 0.590789 0.383874 0.815701
Si Si2 0.135081 0.853979 0.286464
Si Si3 0.788188 0.569098 0.357300
Si Si4 0.915485 0.802410 0.497106
Si Si5 0.776901 0.660050 0.679067
Si Si6 0.827402 0.545075 0.122028
O O1 0.578855 0.531799 0.743077
O O2 0.516288 0.277240 0.657227
O O3 0.585783 0.401752 0.916014
O O4 0.687390 0.329822 0.969743
O O5 0.116772 0.687695 0.273192
O O6 0.231558 0.895358 0.479421
O O7 0.124349 0.870985 0.160198
O O8 0.859986 0.666435 0.431048
O O9 0.766572 0.446821 0.247646
O O10 0.714868 0.681782 0.263864
O O11 0.825160 0.504998 0.514067
O O12 0.840628 0.580414 0.718799
#
# Coordination Sequence:
#
# PCOD9264409 Si02
#       6
#     8   8   8   8   8   8
#     4   9  20  33  60  82 120 163 207 241 307 378
#     4  10  19  35  58  91 124 160 205 264 310 366
#     4  11  21  35  61  91 130 162 203 267 318 367
#     4  10  19  37  56  87 118 170 204 248 309 373
#     4  10  21  36  57  94 120 163 206 262 318 364
#     4  10  20  34  56  92 129 153 203 271 322 358
#
# _framework density 22.264602
#
# number of rings (size 3 to 8) (size 9 to 14) (size 15 to 20)
#    0.000    2.000    1.667    3.000    4.667    0.000 
#    0.000    0.000    0.000   17.000    4.333    0.000 
#    0.000    0.000    0.000    0.000    0.000    0.000 
#
# Total GULP energy -133811.550109 kJ/mol
# GULP energy per Si atom -5575.481255 kJ/mol
# Density = 2.221393 g / cm^3
# Si number density = 22.264602 Si / 1000 Ang^3
#
#
#
# Elastic Constant Matrix: (Units=GPa)
#
#
# Indices 1 2 3 4 5 6 
#
# 1 51.0232 39.6294 8.3360 0.0000 -19.7285 0.0000
# 2 39.6294 107.7274 20.1125 0.0000 -23.0325 0.0000
# 3 8.3360 20.1125 20.4921 0.0000 -11.9423 0.0000
# 4 0.0000 0.0000 0.0000 26.0631 0.0000 -15.0416
# 5 -19.7285 -23.0325 -11.9423 0.0000 36.6960 0.0000
# 6 0.0000 0.0000 0.0000 -15.0416 0.0000 40.3817
#
#
#
# Elastic Compliance Matrix: (Units=1/GPa)
#
#
# Indices 1 2 3 4 5 6 
#
# 1 0.031011 -0.009557 0.003684 0.000000 0.011872 0.000000
# 2 -0.009557 0.014895 -0.010215 0.000000 0.000887 0.000000
# 3 0.003684 -0.010215 0.067557 0.000000 0.017555 0.000000
# 4 0.000000 0.000000 0.000000 0.048875 0.000000 0.018205
# 5 0.011872 0.000887 0.017555 0.000000 0.039903 0.000000
# 6 0.000000 0.000000 0.000000 0.018205 0.000000 0.031545
#
#
# Mechanical properties :
#
#
# Convention : Reuss Voigt Hill
#
# Bulk Modulus (GPa) = 12.30212 35.04425 23.67319
# Shear Modulus (GPa) = 17.06158 28.03917 22.55037
#
# Velocity S-wave (km/s) = 2.77123 3.55260 3.18596
# Velocity P-wave (km/s) = 3.97203 5.70982 4.91828
#
# Compressibility (1/GPa) = 0.08128680
#
# Stress axis : x y z
#
# Youngs Moduli (GPa) = 32.24714 67.13611 14.80240
#
# Poissons Ratio (x) = 0.64164 -0.05454
# Poissons Ratio (y) = 0.30819 0.15120
# Poissons Ratio (z) = -0.11881 0.68577
#
# Static dielectric constant tensor:
#      x y z
#    x 1.896620 0.000000 0.071460 
#    y 0.000000 1.882490 0.000000 
#    z 0.071460 0.000000 1.849840 
# 
# From -- ./inp_files/180926.got.cif
#   From: 2010.05.17/outbox.cif.g08.bks.cpg/sg15_91_cif.got.tgz:180926.got - 2010.06.03 18:47:42.
