data_PCOD9264582
_publ_section_title
;
Structure prediction by ZEFSAII (Michael W. Deem and Ramdas Pophale) SiO2 
 PCOD9264582
Probable space group: C 2/C
;
_chemical_formula_sum "Si O2"
_cell_formula_units_Z 64
_cell_length_a 29.291744
_cell_length_b 14.797204
_cell_length_c 20.740927
_cell_angle_alpha 90.000000
_cell_angle_beta 158.061566
_cell_angle_gamma 90.000000
_cell_volume 3358.703384
_symmetry_space_group_name_H-M "C 2/C"
_symmetry_group_IT_number 15
_symmetry_cell_setting 'monoclinic'
loop_
_space_group_symop_operation_xyz
x,y,z
-x,y,1/2-z
-x,-y,-z
x,-y,1/2+z
1/2+x,1/2+y,z
1/2-x,1/2+y,1/2-z
1/2-x,1/2-y,-z
1/2+x,1/2-y,1/2+z
loop_
_atom_site_type_symbol
_atom_site_label
_atom_site_fract_x
_atom_site_fract_y
_atom_site_fract_z
Si Si1 0.818165 0.529616 0.762898
Si Si2 0.464145 0.260529 0.564080
Si Si3 0.566202 0.642815 0.078928
Si Si4 0.534496 0.447254 0.868277
Si Si5 0.394915 0.096439 0.065412
Si Si6 0.984676 0.554882 0.584223
Si Si7 0.641026 0.476578 0.250275
Si Si8 0.187918 0.709284 0.661375
O O1 0.672815 0.521441 0.564923
O O2 0.841674 0.626048 0.828860
O O3 0.890248 0.530548 0.789734
O O4 0.880731 0.456895 0.892378
O O5 0.553004 0.291999 0.623055
O O6 0.471635 0.338704 0.627652
O O7 0.488425 0.157434 0.614189
O O8 0.329009 0.268584 0.357317
O O9 0.650937 0.560296 0.213217
O O10 0.614539 0.701900 0.084250
O O11 0.437447 0.597864 0.891249
O O12 0.500000 0.468537 0.750000
O O13 0.441495 0.490983 0.798059
O O14 0.500000 0.129816 0.250000
O O15 0.452303 0.015744 0.097502
O O16 0.274430 0.057985 0.942604
O O17 0.346783 0.172616 0.953783
#
# Coordination Sequence:
#
# PCOD9264582 Si02
#       8
#     8   8   8   8   8   8   8   8
#     4   9  20  36  57  89 113 150 196 249 286 346
#     4  10  19  35  60  88 113 146 195 248 293 340
#     4  10  19  36  63  87 112 148 198 253 284 334
#     4  10  23  39  58  82 122 156 194 241 297 358
#     4  11  24  39  57  85 125 160 190 237 295 364
#     4  10  20  36  61  87 114 149 201 243 301 343
#     4  10  22  39  60  88 115 156 203 240 295 348
#     4  10  19  36  60  86 117 147 194 245 292 339
#
# _framework density 19.054971999999999
#
# number of rings (size 3 to 8) (size 9 to 14) (size 15 to 20)
#    0.000    2.000    2.500    0.750    8.750    0.500 
#    0.000    1.875    0.000    0.000    0.000    0.000 
#    0.000    0.000    0.000    0.000    0.000    0.000 
#
# Total GULP energy -178624.031213 kJ/mol
# GULP energy per Si atom -5582.000975 kJ/mol
# Density = 1.901160 g / cm^3
# Si number density = 19.054972 Si / 1000 Ang^3
#
#
#
# Elastic Constant Matrix: (Units=GPa)
#
#
# Indices 1 2 3 4 5 6 
#
# 1 71.8221 15.3370 26.3948 0.0000 9.4438 0.0000
# 2 15.3370 52.3493 2.9860 0.0000 7.5422 0.0000
# 3 26.3948 2.9860 69.3966 0.0000 10.8716 0.0000
# 4 0.0000 0.0000 0.0000 7.2397 0.0000 3.3045
# 5 9.4438 7.5422 10.8716 0.0000 25.4952 0.0000
# 6 0.0000 0.0000 0.0000 3.3045 0.0000 19.4077
#
#
#
# Elastic Compliance Matrix: (Units=1/GPa)
#
#
# Indices 1 2 3 4 5 6 
#
# 1 0.017416 -0.004386 -0.006031 0.000000 -0.002582 0.000000
# 2 -0.004386 0.021058 0.001590 0.000000 -0.005283 0.000000
# 3 -0.006031 0.001590 0.017530 0.000000 -0.005712 0.000000
# 4 0.000000 0.000000 0.000000 0.149765 0.000000 -0.025500
# 5 -0.002582 -0.005283 -0.005712 0.000000 0.044178 0.000000
# 6 0.000000 0.000000 0.000000 -0.025500 0.000000 0.055868
#
#
# Mechanical properties :
#
#
# Convention : Reuss Voigt Hill
#
# Bulk Modulus (GPa) = 26.07624 31.44482 28.76053
# Shear Modulus (GPa) = 14.86977 20.35187 17.61082
#
# Velocity S-wave (km/s) = 2.79653 3.27167 3.04338
# Velocity P-wave (km/s) = 4.91344 5.55065 5.24174
#
# Compressibility (1/GPa) = 0.03834908
#
# Stress axis : x y z
#
# Youngs Moduli (GPa) = 57.41910 47.48793 57.04468
#
# Poissons Ratio (x) = 0.20830 0.34403
# Poissons Ratio (y) = 0.25187 -0.09069
# Poissons Ratio (z) = 0.34629 -0.07550
#
# Static dielectric constant tensor:
#      x y z
#    x 1.666960 0.000000 0.029670 
#    y 0.000000 1.666300 0.000000 
#    z 0.029670 0.000000 1.647500 
# 
# From -- ./inp_files/259448.got.cif
#   From: 2010.05.17/outbox.cif.g08.bks.cpg/sg15_130_cif.got.tgz:259448.got - 2010.06.03 18:47:42.
