data_PCOD9264939
_publ_section_title
;
Structure prediction by ZEFSAII (Michael W. Deem and Ramdas Pophale) SiO2 
 PCOD9264939
Probable space group: C 2/C
;
_chemical_formula_sum "Si O2"
_cell_formula_units_Z 48
_cell_length_a 29.268419
_cell_length_b 11.074708
_cell_length_c 8.053727
_cell_angle_alpha 90.000000
_cell_angle_beta 75.441712
_cell_angle_gamma 90.000000
_cell_volume 2526.710833
_symmetry_space_group_name_H-M "C 2/C"
_symmetry_group_IT_number 15
_symmetry_cell_setting 'monoclinic'
loop_
_space_group_symop_operation_xyz
x,y,z
-x,y,1/2-z
-x,-y,-z
x,-y,1/2+z
1/2+x,1/2+y,z
1/2-x,1/2+y,1/2-z
1/2-x,1/2-y,-z
1/2+x,1/2-y,1/2+z
loop_
_atom_site_type_symbol
_atom_site_label
_atom_site_fract_x
_atom_site_fract_y
_atom_site_fract_z
Si Si1 0.399920 0.076898 0.998649
Si Si2 0.763392 0.113564 0.520667
Si Si3 0.663767 0.892950 0.243759
Si Si4 0.555333 0.156465 0.208991
Si Si5 0.132982 0.176610 0.480917
Si Si6 0.671625 0.536142 0.759287
O O1 0.426955 0.152480 0.115191
O O2 0.361164 0.000718 0.135542
O O3 0.371260 0.141264 0.876941
O O4 0.433163 0.975677 0.881129
O O5 0.750000 0.250000 0.500000
O O6 0.714188 0.062667 0.634106
O O7 0.806871 0.109509 0.608400
O O8 0.783825 0.040983 0.347588
O O9 0.665605 0.778230 0.364279
O O10 0.500000 0.179643 0.250000
O O11 0.585360 0.253511 0.075430
O O12 0.154372 0.122997 0.630353
O O13 0.133046 0.060984 0.358087
#
# Coordination Sequence:
#
# PCOD9264939 Si02
#       6
#     8   8   8   8   8   8
#     4   9  20  34  59  85 123 140 169 229 286 336
#     4  11  21  36  58  80 114 148 197 220 263 329
#     4  10  19  36  54  87 112 151 181 219 277 333
#     4  10  20  37  60  88 111 143 182 227 282 345
#     4  10  22  38  58  77 111 150 187 229 284 323
#     4  10  23  40  53  79 113 154 184 239 269 311
#
# _framework density 18.997029000000001
#
# number of rings (size 3 to 8) (size 9 to 14) (size 15 to 20)
#    0.000    2.000    1.667    1.500    2.333    0.667 
#    3.000    0.833    0.000    0.000    0.000    0.000 
#    0.000    0.000    0.000    0.000    0.000    0.000 
#
# Total GULP energy -133855.357471 kJ/mol
# GULP energy per Si atom -5577.306561 kJ/mol
# Density = 1.895379 g / cm^3
# Si number density = 18.997029 Si / 1000 Ang^3
#
#
#
# Elastic Constant Matrix: (Units=GPa)
#
#
# Indices 1 2 3 4 5 6 
#
# 1 75.5558 32.5140 32.2867 0.0000 -13.4390 0.0000
# 2 32.5140 69.0436 27.6038 0.0000 2.2742 0.0000
# 3 32.2867 27.6038 78.1905 0.0000 6.1468 0.0000
# 4 0.0000 0.0000 0.0000 28.6214 0.0000 7.5116
# 5 -13.4390 2.2742 6.1468 0.0000 34.2323 0.0000
# 6 0.0000 0.0000 0.0000 7.5116 0.0000 12.5347
#
#
#
# Elastic Compliance Matrix: (Units=1/GPa)
#
#
# Indices 1 2 3 4 5 6 
#
# 1 0.021229 -0.007577 -0.006883 0.000000 0.010073 0.000000
# 2 -0.007577 0.019568 -0.003493 0.000000 -0.003647 0.000000
# 3 -0.006883 -0.003493 0.017303 0.000000 -0.005577 0.000000
# 4 0.000000 0.000000 0.000000 0.041459 0.000000 -0.024845
# 5 0.010073 -0.003647 -0.005577 0.000000 0.034410 0.000000
# 6 0.000000 0.000000 0.000000 -0.024845 0.000000 0.094667
#
#
# Mechanical properties :
#
#
# Convention : Reuss Voigt Hill
#
# Bulk Modulus (GPa) = 45.05588 45.28876 45.17232
# Shear Modulus (GPa) = 18.38635 23.77005 21.07820
#
# Velocity S-wave (km/s) = 3.11441 3.54114 3.33461
# Velocity P-wave (km/s) = 6.05818 6.37269 6.21743
#
# Compressibility (1/GPa) = 0.02219466
#
# Stress axis : x y z
#
# Youngs Moduli (GPa) = 47.10577 51.10288 57.79396
#
# Poissons Ratio (x) = 0.38721 0.39779
# Poissons Ratio (y) = 0.35693 0.20186
# Poissons Ratio (z) = 0.32422 0.17849
#
# Static dielectric constant tensor:
#      x y z
#    x 1.662040 0.000000 -0.031910 
#    y 0.000000 1.668990 0.000000 
#    z -0.031910 0.000000 1.797280 
# 
# From -- ./inp_files/60519.got.cif
#   From: 2010.05.17/outbox.cif.g08.bks.cpg/sg15_31_cif.got.tgz:60519.got - 2010.06.03 18:47:42.
