data_PCOD9264090
_publ_section_title
;
Structure prediction by ZEFSAII (Michael W. Deem and Ramdas Pophale) SiO2 
 PCOD9264090
Probable space group: C 2/C
;
_chemical_formula_sum "Si O2"
_cell_formula_units_Z 40
_cell_length_a 12.474764
_cell_length_b 13.988638
_cell_length_c 12.504379
_cell_angle_alpha 90.000000
_cell_angle_beta 68.641667
_cell_angle_gamma 90.000000
_cell_volume 2032.213143
_symmetry_space_group_name_H-M "C 2/C"
_symmetry_group_IT_number 15
_symmetry_cell_setting 'monoclinic'
loop_
_space_group_symop_operation_xyz
x,y,z
-x,y,1/2-z
-x,-y,-z
x,-y,1/2+z
1/2+x,1/2+y,z
1/2-x,1/2+y,1/2-z
1/2-x,1/2-y,-z
1/2+x,1/2-y,1/2+z
loop_
_atom_site_type_symbol
_atom_site_label
_atom_site_fract_x
_atom_site_fract_y
_atom_site_fract_z
Si Si1 0.209833 0.759839 0.697578
Si Si2 0.972260 0.377713 0.145334
Si Si3 0.371221 0.757534 0.829865
Si Si4 0.733765 0.885211 0.012807
Si Si5 0.797858 0.595346 0.530594
O O1 0.095204 0.719378 0.796214
O O2 0.296801 0.793656 0.756318
O O3 0.197012 0.838146 0.609827
O O4 0.260947 0.668118 0.614020
O O5 0.000000 0.427127 0.250000
O O6 0.883961 0.428498 0.097592
O O7 0.096684 0.362579 0.047749
O O8 0.500000 0.737579 0.750000
O O9 0.366038 0.836854 0.924014
O O10 0.306239 0.661559 0.891409
O O11 0.743992 0.998395 0.008274
#
# Coordination Sequence:
#
# PCOD9264090 Si02
#       5
#     8   8   8   8   8
#     4   9  20  34  52  78 108 138 175 217 266 315
#     4   9  18  33  54  80 107 134 170 216 264 311
#     4  10  21  37  53  75 109 144 175 218 265 309
#     4  10  19  35  55  80 107 135 176 223 262 312
#     4  10  21  35  55  82 106 137 182 218 258 316
#
# _framework density 19.682974000000002
#
# number of rings (size 3 to 8) (size 9 to 14) (size 15 to 20)
#    0.000    2.400    0.000    1.800    0.000    7.200 
#    0.000    6.000    0.000    0.000    0.000    0.000 
#    0.000    0.000    0.000    0.000    0.000    0.000 
#
# Total GULP energy -111522.816828 kJ/mol
# GULP energy per Si atom -5576.140841 kJ/mol
# Density = 1.963817 g / cm^3
# Si number density = 19.682974 Si / 1000 Ang^3
#
#
#
# Elastic Constant Matrix: (Units=GPa)
#
#
# Indices 1 2 3 4 5 6 
#
# 1 38.1221 3.4022 23.1519 0.0000 9.1384 0.0000
# 2 3.4022 77.2836 26.5523 0.0000 -3.3020 0.0000
# 3 23.1519 26.5523 71.6644 0.0000 -6.9630 0.0000
# 4 0.0000 0.0000 0.0000 6.4598 0.0000 2.6449
# 5 9.1384 -3.3020 -6.9630 0.0000 38.6200 0.0000
# 6 0.0000 0.0000 0.0000 2.6449 0.0000 6.3630
#
#
#
# Elastic Compliance Matrix: (Units=1/GPa)
#
#
# Indices 1 2 3 4 5 6 
#
# 1 0.037230 0.002738 -0.014122 0.000000 -0.011122 0.000000
# 2 0.002738 0.015031 -0.006506 0.000000 -0.000536 0.000000
# 3 -0.014122 -0.006506 0.021575 0.000000 0.006675 0.000000
# 4 0.000000 0.000000 0.000000 0.186555 0.000000 -0.077546
# 5 -0.011122 -0.000536 0.006675 0.000000 0.029683 0.000000
# 6 0.000000 0.000000 0.000000 -0.077546 0.000000 0.189394
#
#
# Mechanical properties :
#
#
# Convention : Reuss Voigt Hill
#
# Bulk Modulus (GPa) = 26.27719 32.58698 29.43208
# Shear Modulus (GPa) = 9.47089 19.21946 14.34517
#
# Velocity S-wave (km/s) = 2.19594 3.12821 2.70258
# Velocity P-wave (km/s) = 4.45070 5.44421 4.97233
#
# Compressibility (1/GPa) = 0.03805582
#
# Stress axis : x y z
#
# Youngs Moduli (GPa) = 26.86014 66.52864 46.34915
#
# Poissons Ratio (x) = -0.18215 0.65457
# Poissons Ratio (y) = -0.07354 0.30154
# Poissons Ratio (z) = 0.37933 0.43282
#
# Static dielectric constant tensor:
#      x y z
#    x 1.698820 0.000000 0.016140 
#    y 0.000000 1.673510 0.000000 
#    z 0.016140 0.000000 1.720300 
# 
# From -- ./inp_files/85963.got.cif
#   From: 2010.05.17/outbox.cif.g08.bks.cpg/sg15_43_cif.got.tgz:85963.got - 2010.06.03 18:47:42.
