data_PCOD9264564
_publ_section_title
;
Structure prediction by ZEFSAII (Michael W. Deem and Ramdas Pophale) SiO2 
 PCOD9264564
Probable space group: C 2/C
;
_chemical_formula_sum "Si O2"
_cell_formula_units_Z 36
_cell_length_a 11.117385
_cell_length_b 33.938564
_cell_length_c 5.287208
_cell_angle_alpha 90.000000
_cell_angle_beta 90.000737
_cell_angle_gamma 90.000000
_cell_volume 1994.906311
_symmetry_space_group_name_H-M "C 2/C"
_symmetry_group_IT_number 15
_symmetry_cell_setting 'monoclinic'
loop_
_space_group_symop_operation_xyz
x,y,z
-x,y,1/2-z
-x,-y,-z
x,-y,1/2+z
1/2+x,1/2+y,z
1/2-x,1/2+y,1/2-z
1/2-x,1/2-y,-z
1/2+x,1/2-y,1/2+z
loop_
_atom_site_type_symbol
_atom_site_label
_atom_site_fract_x
_atom_site_fract_y
_atom_site_fract_z
Si Si1 0.265896 0.972692 0.750004
Si Si2 0.500000 0.917445 0.750000
Si Si3 0.000000 0.635672 0.750000
Si Si4 0.000000 0.027194 0.250000
Si Si5 0.139171 0.788718 0.749971
Si Si6 0.214069 0.302265 0.250023
O O1 0.379131 0.943737 0.749994
O O2 0.132062 0.952671 0.749999
O O3 0.272957 0.000002 0.500011
O O4 0.500004 0.890924 0.499491
O O5 0.115333 0.664005 0.749988
O O6 0.000000 0.000000 0.500000
O O7 0.152717 0.741060 0.749996
O O8 0.205188 0.804000 0.500239
O O9 0.000000 0.799155 0.750000
O O10 0.205222 0.804003 0.999661
#
# Coordination Sequence:
#
# PCOD9264564 Si02
#       6
#     8   4   4   4   8   8
#     4  10  19  36  59  89 114 143 195 246 281 322
#     4  12  24  35  60  82 120 162 193 230 285 362
#     4  12  24  41  54  82 121 160 192 218 308 356
#     4   8  16  30  56  82 107 136 171 230 291 324
#     4  10  19  35  60  86 104 138 193 247 301 317
#     4  10  21  35  57  82 113 144 185 244 281 354
#
# _framework density 18.045961999999999
#
# number of rings (size 3 to 8) (size 9 to 14) (size 15 to 20)
#    0.000    1.778    1.111    4.000    0.000    0.000 
#    0.000    0.000   14.667    0.000    0.000    0.000 
#    0.000    0.000    0.000    0.000    0.000    0.000 
#
# Total GULP energy -100467.738288 kJ/mol
# GULP energy per Si atom -5581.541016 kJ/mol
# Density = 1.800489 g / cm^3
# Si number density = 18.045962 Si / 1000 Ang^3
#
#
#
# Elastic Constant Matrix: (Units=GPa)
#
#
# Indices 1 2 3 4 5 6 
#
# 1 219.9296 86.4325 91.5253 0.0000 18.3445 0.0000
# 2 86.4325 76.3162 61.2208 0.0000 4.7034 0.0000
# 3 91.5253 61.2208 190.2180 0.0000 -12.9104 0.0000
# 4 0.0000 0.0000 0.0000 174.1221 0.0000 -30.8136
# 5 18.3445 4.7034 -12.9104 0.0000 20.8370 0.0000
# 6 0.0000 0.0000 0.0000 -30.8136 0.0000 8.9059
#
#
#
# Elastic Compliance Matrix: (Units=1/GPa)
#
#
# Indices 1 2 3 4 5 6 
#
# 1 0.009490 -0.008300 -0.002437 0.000000 -0.007991 0.000000
# 2 -0.008300 0.026242 -0.004550 0.000000 -0.001435 0.000000
# 3 -0.002437 -0.004550 0.008465 0.000000 0.008417 0.000000
# 4 0.000000 0.000000 0.000000 0.014813 0.000000 0.051250
# 5 -0.007991 -0.001435 0.008417 0.000000 0.060566 0.000000
# 6 0.000000 0.000000 0.000000 0.051250 0.000000 0.289607
#
#
# Mechanical properties :
#
#
# Convention : Reuss Voigt Hill
#
# Bulk Modulus (GPa) = 73.40318 107.20233 90.30275
# Shear Modulus (GPa) = 11.25377 57.25869 34.25623
#
# Velocity S-wave (km/s) = 2.49994 5.63899 4.36165
# Velocity P-wave (km/s) = 7.00692 10.09613 8.68990
#
# Compressibility (1/GPa) = 0.01362339
#
# Stress axis : x y z
#
# Youngs Moduli (GPa) = 105.37940 38.10730 118.12977
#
# Poissons Ratio (x) = 0.31629 0.28788
# Poissons Ratio (y) = 0.87465 0.53744
# Poissons Ratio (z) = 0.25681 0.17337
#
# Static dielectric constant tensor:
#      x y z
#    x 1.625440 0.000000 0.007210 
#    y 0.000000 1.582200 0.000000 
#    z 0.007210 0.000000 1.586900 
# 
# From -- ./inp_files/5143.got.cif
#   From: 2010.05.17/outbox.cif.g08.bks.cpg/sg15_3_cif.got.tgz:5143.got - 2010.06.03 18:47:42.
