data_PCOD9264799
_publ_section_title
;
Structure prediction by ZEFSAII (Michael W. Deem and Ramdas Pophale) SiO2 
 PCOD9264799
Probable space group: C 2/C
;
_chemical_formula_sum "Si O2"
_cell_formula_units_Z 56
_cell_length_a 26.455422
_cell_length_b 16.934865
_cell_length_c 6.948689
_cell_angle_alpha 90.000000
_cell_angle_beta 44.779197
_cell_angle_gamma 90.000000
_cell_volume 2192.826066
_symmetry_space_group_name_H-M "C 2/C"
_symmetry_group_IT_number 15
_symmetry_cell_setting 'monoclinic'
loop_
_space_group_symop_operation_xyz
x,y,z
-x,y,1/2-z
-x,-y,-z
x,-y,1/2+z
1/2+x,1/2+y,z
1/2-x,1/2+y,1/2-z
1/2-x,1/2-y,-z
1/2+x,1/2-y,1/2+z
loop_
_atom_site_type_symbol
_atom_site_label
_atom_site_fract_x
_atom_site_fract_y
_atom_site_fract_z
Si Si1 0.500000 0.679545 0.750000
Si Si2 0.763900 0.620824 0.816043
Si Si3 0.680814 0.053361 0.466874
Si Si4 0.426043 0.550186 0.725269
Si Si5 0.907339 0.695757 0.312518
Si Si6 0.074713 0.448491 0.941984
Si Si7 0.114905 0.114524 0.072040
Si Si8 0.000000 0.783543 0.750000
O O1 0.439557 0.609735 0.859580
O O2 0.561096 0.749416 0.609738
O O3 0.770333 0.607319 0.029558
O O4 0.782229 0.531122 0.686415
O O5 0.824095 0.680767 0.577367
O O6 0.687691 0.651592 0.946036
O O7 0.641147 0.088566 0.387769
O O8 0.610684 0.029524 0.780579
O O9 0.500000 0.500000 0.500000
O O10 0.399816 0.600174 0.614886
O O11 0.375636 0.475913 0.888305
O O12 0.936848 0.607160 0.209887
O O13 0.940148 0.734916 0.026266
O O14 0.000000 0.453806 0.250000
O O15 0.040860 0.165120 0.309236
#
# Coordination Sequence:
#
# PCOD9264799 Si02
#       8
#     4   8   8   8   8   8   8   4
#     4  12  23  42  64 101 140 176 226 272 338 409
#     4  10  23  42  66 101 138 177 217 283 344 405
#     4   9  20  40  61  95 134 167 230 278 339 389
#     4  12  21  41  71 105 130 169 228 290 333 384
#     4  11  25  40  65  92 139 180 219 267 339 418
#     4  10  19  35  63  93 125 175 224 283 327 388
#     4  12  23  41  73 100 134 171 229 285 341 392
#     4  12  23  42  62  93 128 180 222 272 320 411
#
# _framework density 25.537821999999998
#
# number of rings (size 3 to 8) (size 9 to 14) (size 15 to 20)
#    0.000    1.143    5.000    1.286    2.000    0.571 
#    2.571    0.000    0.000    4.286    0.000    0.000 
#    0.000    0.000    0.000    0.000    0.000    0.000 
#
# Total GULP energy -155904.770202 kJ/mol
# GULP energy per Si atom -5568.027507 kJ/mol
# Density = 2.547970 g / cm^3
# Si number density = 25.537822 Si / 1000 Ang^3
#
#
#
# Elastic Constant Matrix: (Units=GPa)
#
#
# Indices 1 2 3 4 5 6 
#
# 1 133.0583 51.4479 36.8390 0.0000 -30.3838 0.0000
# 2 51.4479 82.1154 33.6483 0.0000 -18.0761 0.0000
# 3 36.8390 33.6483 54.5402 0.0000 -38.5513 0.0000
# 4 0.0000 0.0000 0.0000 35.9755 0.0000 2.8780
# 5 -30.3838 -18.0761 -38.5513 0.0000 52.1546 0.0000
# 6 0.0000 0.0000 0.0000 2.8780 0.0000 44.9152
#
#
#
# Elastic Compliance Matrix: (Units=1/GPa)
#
#
# Indices 1 2 3 4 5 6 
#
# 1 0.010786 -0.005338 -0.001798 0.000000 0.003105 0.000000
# 2 -0.005338 0.019295 -0.012082 0.000000 -0.005353 0.000000
# 3 -0.001798 -0.012082 0.048800 0.000000 0.030837 0.000000
# 4 0.000000 0.000000 0.000000 0.027940 0.000000 -0.001790
# 5 0.003105 -0.005353 0.030837 0.000000 0.041921 0.000000
# 6 0.000000 0.000000 0.000000 -0.001790 0.000000 0.022379
#
#
# Mechanical properties :
#
#
# Convention : Reuss Voigt Hill
#
# Bulk Modulus (GPa) = 24.72448 57.06491 40.89469
# Shear Modulus (GPa) = 22.41764 36.46099 29.43931
#
# Velocity S-wave (km/s) = 2.96602 3.78262 3.39893
# Velocity P-wave (km/s) = 4.62949 6.43983 5.60819
#
# Compressibility (1/GPa) = 0.04044574
#
# Stress axis : x y z
#
# Youngs Moduli (GPa) = 92.71217 51.82748 20.49161
#
# Poissons Ratio (x) = 0.27664 0.03684
# Poissons Ratio (y) = 0.49487 0.24759
# Poissons Ratio (z) = 0.16667 0.62620
#
# Static dielectric constant tensor:
#      x y z
#    x 1.977400 0.000000 0.057040 
#    y 0.000000 2.026180 0.000000 
#    z 0.057040 0.000000 2.255860 
# 
# From -- ./inp_files/67152.got.cif
#   From: 2010.05.17/outbox.cif.g08.bks.cpg/sg15_34_cif.got.tgz:67152.got - 2010.06.03 18:47:42.
