data_PCOD9264953
_publ_section_title
;
Structure prediction by ZEFSAII (Michael W. Deem and Ramdas Pophale) SiO2 
 PCOD9264953
Probable space group: C 2/C
;
_chemical_formula_sum "Si O2"
_cell_formula_units_Z 48
_cell_length_a 16.249113
_cell_length_b 17.498875
_cell_length_c 9.489650
_cell_angle_alpha 90.000000
_cell_angle_beta 91.219220
_cell_angle_gamma 90.000000
_cell_volume 2697.687553
_symmetry_space_group_name_H-M "C 2/C"
_symmetry_group_IT_number 15
_symmetry_cell_setting 'monoclinic'
loop_
_space_group_symop_operation_xyz
x,y,z
-x,y,1/2-z
-x,-y,-z
x,-y,1/2+z
1/2+x,1/2+y,z
1/2-x,1/2+y,1/2-z
1/2-x,1/2-y,-z
1/2+x,1/2-y,1/2+z
loop_
_atom_site_type_symbol
_atom_site_label
_atom_site_fract_x
_atom_site_fract_y
_atom_site_fract_z
Si Si1 0.302723 0.672614 0.995331
Si Si2 0.446492 0.544319 0.383406
Si Si3 0.719311 0.539764 0.713950
Si Si4 0.771874 0.373687 0.730552
Si Si5 0.095967 0.748364 0.219667
Si Si6 0.674485 0.645328 0.959724
O O1 0.298693 0.640049 0.152797
O O2 0.250000 0.750000 0.000000
O O3 0.262026 0.607843 0.894622
O O4 0.385643 0.700537 0.919628
O O5 0.500000 0.564291 0.250000
O O6 0.500000 0.500000 0.500000
O O7 0.371340 0.490371 0.331421
O O8 0.404505 0.615077 0.458996
O O9 0.776361 0.464984 0.711032
O O10 0.712412 0.576321 0.868014
O O11 0.854679 0.331924 0.785029
O O12 0.740164 0.336693 0.583592
O O13 0.142721 0.793788 0.346278
O O14 0.000000 0.740998 0.250000
#
# Coordination Sequence:
#
# PCOD9264953 Si02
#       6
#     8   8   8   8   8   8
#     4   9  20  36  56  79 107 144 183 223 276 330
#     4  11  21  30  46  79 117 142 172 215 279 340
#     4  10  20  33  54  77 108 142 177 224 272 330
#     4  10  19  36  55  80 105 144 191 218 269 336
#     4  10  22  36  55  77 113 145 181 231 281 325
#     4  10  21  32  52  78 106 147 176 221 273 337
#
# _framework density 17.793016000000001
#
# number of rings (size 3 to 8) (size 9 to 14) (size 15 to 20)
#    0.000    2.000    1.667    2.500    7.000    0.000 
#    0.000    0.000    0.000    9.000    0.000    0.000 
#    0.000    0.000    0.000    0.000    0.000    0.000 
#
# Total GULP energy -133773.023997 kJ/mol
# GULP energy per Si atom -5573.876000 kJ/mol
# Density = 1.775252 g / cm^3
# Si number density = 17.793016 Si / 1000 Ang^3
#
#
#
# Elastic Constant Matrix: (Units=GPa)
#
#
# Indices 1 2 3 4 5 6 
#
# 1 59.4205 29.3464 12.1618 0.0000 -6.8118 0.0000
# 2 29.3464 96.4396 20.0249 0.0000 -6.8337 0.0000
# 3 12.1618 20.0249 96.4447 0.0000 -8.7185 0.0000
# 4 0.0000 0.0000 0.0000 13.1850 0.0000 -2.4264
# 5 -6.8118 -6.8337 -8.7185 0.0000 23.5042 0.0000
# 6 0.0000 0.0000 0.0000 -2.4264 0.0000 21.3779
#
#
#
# Elastic Compliance Matrix: (Units=1/GPa)
#
#
# Indices 1 2 3 4 5 6 
#
# 1 0.020290 -0.005688 -0.001030 0.000000 0.003844 0.000000
# 2 -0.005688 0.012563 -0.001769 0.000000 0.001348 0.000000
# 3 -0.001030 -0.001769 0.011167 0.000000 0.003329 0.000000
# 4 0.000000 0.000000 0.000000 0.077462 0.000000 0.008792
# 5 0.003844 0.001348 0.003329 0.000000 0.045287 0.000000
# 6 0.000000 0.000000 0.000000 0.008792 0.000000 0.047775
#
#
# Mechanical properties :
#
#
# Convention : Reuss Voigt Hill
#
# Bulk Modulus (GPa) = 36.97538 41.70791 39.34164
# Shear Modulus (GPa) = 20.78719 24.33152 22.55935
#
# Velocity S-wave (km/s) = 3.42172 3.70195 3.56459
# Velocity P-wave (km/s) = 6.03629 6.46251 6.25303
#
# Compressibility (1/GPa) = 0.02704503
#
# Stress axis : x y z
#
# Youngs Moduli (GPa) = 49.28569 79.59949 89.55066
#
# Poissons Ratio (x) = 0.45275 0.09224
# Poissons Ratio (y) = 0.28033 0.15845
# Poissons Ratio (z) = 0.05077 0.14084
#
# Static dielectric constant tensor:
#      x y z
#    x 1.597340 0.000000 -0.018020 
#    y 0.000000 1.648450 0.000000 
#    z -0.018020 0.000000 1.654460 
# 
# From -- ./inp_files/39595.got.cif
#   From: 2010.05.17/outbox.cif.g08.bks.cpg/sg15_20_cif.got.tgz:39595.got - 2010.06.03 18:47:42.
