data_PCOD9264459
_publ_section_title
;
Structure prediction by ZEFSAII (Michael W. Deem and Ramdas Pophale) SiO2 
 PCOD9264459
Probable space group: C 2/C
;
_chemical_formula_sum "Si O2"
_cell_formula_units_Z 56
_cell_length_a 11.595489
_cell_length_b 15.033935
_cell_length_c 28.374546
_cell_angle_alpha 90.000000
_cell_angle_beta 33.673304
_cell_angle_gamma 90.000000
_cell_volume 2742.573776
_symmetry_space_group_name_H-M "C 2/C"
_symmetry_group_IT_number 15
_symmetry_cell_setting 'monoclinic'
loop_
_space_group_symop_operation_xyz
x,y,z
-x,y,1/2-z
-x,-y,-z
x,-y,1/2+z
1/2+x,1/2+y,z
1/2-x,1/2+y,1/2-z
1/2-x,1/2-y,-z
1/2+x,1/2-y,1/2+z
loop_
_atom_site_type_symbol
_atom_site_label
_atom_site_fract_x
_atom_site_fract_y
_atom_site_fract_z
Si Si1 0.399771 0.510300 0.332495
Si Si2 0.025553 0.333434 0.665360
Si Si3 0.799238 0.153564 0.924605
Si Si4 0.821577 0.948428 0.673735
Si Si5 0.135797 0.671638 0.381741
Si Si6 0.663580 0.363679 0.373595
Si Si7 0.987733 0.902770 0.525709
O O1 0.500000 0.475866 0.250000
O O2 0.270604 0.433227 0.402371
O O3 0.576662 0.532053 0.310552
O O4 0.274146 0.598613 0.360653
O O5 0.064158 0.227346 0.649372
O O6 0.253990 0.370054 0.597311
O O7 0.857095 0.375617 0.757552
O O8 0.948926 0.362377 0.639523
O O9 0.936043 0.133065 0.925003
O O10 0.575068 0.188820 0.016677
O O11 0.999754 0.910628 0.577800
O O12 0.744688 0.042822 0.676823
O O13 0.246809 0.765844 0.332434
O O14 0.647255 0.356553 0.435953
O O15 0.000000 0.000000 0.500000
#
# Coordination Sequence:
#
# PCOD9264459 Si02
#       7
#     8   8   8   8   8   8   8
#     4  11  23  39  56  90 129 154 195 264 316 360
#     4  11  19  37  65  87 114 159 208 249 303 364
#     4  10  20  36  65  89 113 156 214 250 293 368
#     4  10  22  36  59  90 121 160 198 256 310 356
#     4  11  19  38  66  86 117 168 202 243 313 376
#     4   9  18  37  61  87 117 153 207 248 295 370
#     4  10  19  35  59  84 117 150 199 256 294 353
#
# _framework density 20.418775
#
# number of rings (size 3 to 8) (size 9 to 14) (size 15 to 20)
#    0.000    1.714    4.286    1.714    0.000    1.143 
#    0.000    3.571    0.000    0.000    0.000    0.000 
#    0.000    0.000    0.000    0.000    0.000    0.000 
#
# Total GULP energy -155909.483830 kJ/mol
# GULP energy per Si atom -5568.195851 kJ/mol
# Density = 2.037230 g / cm^3
# Si number density = 20.418775 Si / 1000 Ang^3
#
#
#
# Elastic Constant Matrix: (Units=GPa)
#
#
# Indices 1 2 3 4 5 6 
#
# 1 65.2674 16.3048 20.9806 -0.0005 24.6335 0.0008
# 2 16.3048 93.4303 20.0654 -0.0027 2.8494 0.0008
# 3 20.9806 20.0654 64.1862 -0.0046 17.8084 0.0022
# 4 -0.0005 -0.0027 -0.0046 36.4122 0.0010 3.2737
# 5 24.6335 2.8494 17.8084 0.0010 31.1218 -0.0010
# 6 0.0008 0.0008 0.0022 3.2737 -0.0010 32.7477
#
#
#
# Elastic Compliance Matrix: (Units=1/GPa)
#
#
# Indices 1 2 3 4 5 6 
#
# 1 0.023086 -0.003109 -0.001882 0.000000 -0.016911 -0.000001
# 2 -0.003109 0.011929 -0.003676 0.000000 0.003472 0.000000
# 3 -0.001882 -0.003676 0.020015 0.000003 -0.009627 -0.000002
# 4 0.000000 0.000000 0.000003 0.027712 -0.000003 -0.002770
# 5 -0.016911 0.003472 -0.009627 -0.000003 0.050708 0.000003
# 6 -0.000001 0.000000 -0.000002 -0.002770 0.000003 0.030813
#
#
# Mechanical properties :
#
#
# Convention : Reuss Voigt Hill
#
# Bulk Modulus (GPa) = 26.52836 37.50951 32.01894
# Shear Modulus (GPa) = 25.75133 31.09188 28.42160
#
# Velocity S-wave (km/s) = 3.55513 3.90643 3.73491
# Velocity P-wave (km/s) = 5.46556 6.22550 5.85787
#
# Compressibility (1/GPa) = 0.03769550
#
# Stress axis : x y z
#
# Youngs Moduli (GPa) = 43.31617 83.82676 49.96221
#
# Poissons Ratio (x) = 0.26060 0.09404
# Poissons Ratio (y) = 0.13466 0.18368
# Poissons Ratio (z) = 0.08153 0.30819
#
# Static dielectric constant tensor:
#      x y z
#    x 1.711530 -0.000020 0.070680 
#    y -0.000020 1.666690 0.000000 
#    z 0.070680 0.000000 1.776920 
# 
# From -- ./inp_files/292839.got.cif
#   From: 2010.05.17/outbox.cif.g08.bks.cpg/sg15_147_cif.got.tgz:292839.got - 2010.06.03 18:47:42.
