data_PCOD9264694
_publ_section_title
;
Structure prediction by ZEFSAII (Michael W. Deem and Ramdas Pophale) SiO2 
 PCOD9264694
Probable space group: C 2/C
;
_chemical_formula_sum "Si O2"
_cell_formula_units_Z 60
_cell_length_a 11.518577
_cell_length_b 23.584070
_cell_length_c 13.381195
_cell_angle_alpha 90.000000
_cell_angle_beta 52.870041
_cell_angle_gamma 90.000000
_cell_volume 2898.124528
_symmetry_space_group_name_H-M "C 2/C"
_symmetry_group_IT_number 15
_symmetry_cell_setting 'monoclinic'
loop_
_space_group_symop_operation_xyz
x,y,z
-x,y,1/2-z
-x,-y,-z
x,-y,1/2+z
1/2+x,1/2+y,z
1/2-x,1/2+y,1/2-z
1/2-x,1/2-y,-z
1/2+x,1/2-y,1/2+z
loop_
_atom_site_type_symbol
_atom_site_label
_atom_site_fract_x
_atom_site_fract_y
_atom_site_fract_z
Si Si1 0.795550 0.019069 0.695998
Si Si2 0.381122 0.301792 0.882771
Si Si3 0.574579 0.777870 0.420760
Si Si4 0.222792 0.916141 0.496102
Si Si5 0.000000 0.978566 0.750000
Si Si6 0.967791 0.587755 0.572526
Si Si7 0.391515 0.910224 0.713067
Si Si8 0.670002 0.781640 0.810792
O O1 0.735341 0.955949 0.705625
O O2 0.934566 0.014864 0.694090
O O3 0.822383 0.052406 0.580385
O O4 0.668242 0.051953 0.820814
O O5 0.500000 0.331408 0.750000
O O6 0.474022 0.254653 0.891697
O O7 0.312610 0.349310 0.988804
O O8 0.260393 0.279693 0.868347
O O9 0.566765 0.845131 0.407943
O O10 0.494314 0.766233 0.569057
O O11 0.737528 0.755121 0.315770
O O12 0.132882 0.942585 0.634820
O O13 0.393540 0.923222 0.428689
O O14 0.019569 0.573804 0.433425
O O15 0.500000 0.910413 0.750000
O O16 0.332110 0.846814 0.724494
#
# Coordination Sequence:
#
# PCOD9264694 Si02
#       8
#     8   8   8   8   4   8   8   8
#     4  12  27  42  70 100 129 181 218 288 333 402
#     4  10  19  35  61  95 134 168 208 277 334 389
#     4  10  22  36  67  95 131 175 218 274 348 387
#     4  12  23  41  68 100 135 174 223 273 342 399
#     4  12  26  48  62  98 144 170 224 280 340 404
#     4  11  24  45  67 101 137 167 232 290 322 399
#     4  11  23  44  70  94 126 185 231 264 341 410
#     4  10  21  40  60  98 132 175 219 282 334 397
#
# _framework density 20.703044999999999
#
# number of rings (size 3 to 8) (size 9 to 14) (size 15 to 20)
#    0.000    1.067    4.667    2.400    5.600    2.133 
#    0.000    2.667    1.467    0.000    0.000    0.000 
#    0.000    0.000    0.000    0.000    0.000    0.000 
#
# Total GULP energy -167651.160219 kJ/mol
# GULP energy per Si atom -5588.372007 kJ/mol
# Density = 2.065592 g / cm^3
# Si number density = 20.703045 Si / 1000 Ang^3
#
#
#
# Elastic Constant Matrix: (Units=GPa)
#
#
# Indices 1 2 3 4 5 6 
#
# 1 52.3151 13.5872 7.3410 0.0000 -1.2050 0.0000
# 2 13.5872 66.5225 32.3875 0.0000 -1.3594 0.0000
# 3 7.3410 32.3875 88.1399 0.0000 -12.4469 0.0000
# 4 0.0000 0.0000 0.0000 37.8349 0.0000 -5.3149
# 5 -1.2050 -1.3594 -12.4469 0.0000 30.6964 0.0000
# 6 0.0000 0.0000 0.0000 -5.3149 0.0000 14.6307
#
#
#
# Elastic Compliance Matrix: (Units=1/GPa)
#
#
# Indices 1 2 3 4 5 6 
#
# 1 0.020198 -0.004060 -0.000110 0.000000 0.000568 0.000000
# 2 -0.004060 0.019244 -0.007039 0.000000 -0.002161 0.000000
# 3 -0.000110 -0.007039 0.014741 0.000000 0.005661 0.000000
# 4 0.000000 0.000000 0.000000 0.027852 0.000000 0.010118
# 5 0.000568 -0.002161 0.005661 0.000000 0.034799 0.000000
# 6 0.000000 0.000000 0.000000 0.010118 0.000000 0.072025
#
#
# Mechanical properties :
#
#
# Convention : Reuss Voigt Hill
#
# Bulk Modulus (GPa) = 31.48074 34.84543 33.16308
# Shear Modulus (GPa) = 22.53624 26.87652 24.70638
#
# Velocity S-wave (km/s) = 3.30289 3.60695 3.45827
# Velocity P-wave (km/s) = 5.45750 5.84931 5.65680
#
# Compressibility (1/GPa) = 0.03176546
#
# Stress axis : x y z
#
# Youngs Moduli (GPa) = 49.50984 51.96299 67.84007
#
# Poissons Ratio (x) = 0.21098 0.00746
# Poissons Ratio (y) = 0.20102 0.47749
# Poissons Ratio (z) = 0.00545 0.36574
#
# Static dielectric constant tensor:
#      x y z
#    x 1.709660 0.000000 -0.015320 
#    y 0.000000 1.730490 0.000000 
#    z -0.015320 0.000000 1.795070 
# 
# From -- ./inp_files/148099.got.cif
#   From: 2010.05.17/outbox.cif.g08.bks.cpg/sg15_75_cif.got.tgz:148099.got - 2010.06.03 18:47:42.
