data_PCOD9264276
_publ_section_title
;
Structure prediction by ZEFSAII (Michael W. Deem and Ramdas Pophale) SiO2 
 PCOD9264276
Probable space group: C 2/C
;
_chemical_formula_sum "Si O2"
_cell_formula_units_Z 64
_cell_length_a 21.843989
_cell_length_b 18.974027
_cell_length_c 18.923567
_cell_angle_alpha 90.000000
_cell_angle_beta 27.205290
_cell_angle_gamma 90.000000
_cell_volume 3585.764224
_symmetry_space_group_name_H-M "C 2/C"
_symmetry_group_IT_number 15
_symmetry_cell_setting 'monoclinic'
loop_
_space_group_symop_operation_xyz
x,y,z
-x,y,1/2-z
-x,-y,-z
x,-y,1/2+z
1/2+x,1/2+y,z
1/2-x,1/2+y,1/2-z
1/2-x,1/2-y,-z
1/2+x,1/2-y,1/2+z
loop_
_atom_site_type_symbol
_atom_site_label
_atom_site_fract_x
_atom_site_fract_y
_atom_site_fract_z
Si Si1 0.142096 0.803582 0.141727
Si Si2 0.341833 0.732241 0.188932
Si Si3 0.613644 0.694907 0.832539
Si Si4 0.784271 0.556461 0.659399
Si Si5 0.779377 0.597274 0.112167
Si Si6 0.350310 0.072275 0.887256
Si Si7 0.632464 0.085928 0.080647
Si Si8 0.404780 0.113624 0.679693
O O1 0.112753 0.783969 0.252262
O O2 0.000000 0.807693 0.250000
O O3 0.250000 0.750000 0.000000
O O4 0.227411 0.875374 0.051975
O O5 0.222507 0.757528 0.260672
O O6 0.291408 0.666406 0.285923
O O7 0.380956 0.803481 0.190528
O O8 0.470577 0.707194 0.013538
O O9 0.665598 0.614203 0.782854
O O10 0.736487 0.476800 0.692505
O O11 0.875762 0.574829 0.495999
O O12 0.860584 0.570084 0.655102
O O13 0.762248 0.595563 0.044617
O O14 0.938383 0.600732 0.966445
O O15 0.500000 0.100845 0.750000
O O16 0.323396 0.091672 0.833912
O O17 0.358556 0.988328 0.888565
O O18 0.500000 0.122251 0.250000
#
# Coordination Sequence:
#
# PCOD9264276 Si02
#       8
#     8   8   8   8   8   8   8   8
#     4  11  22  37  55  78 112 150 191 226 282 348
#     4  11  21  37  60  81 118 148 190 238 289 337
#     4  10  22  40  54  85 115 150 186 242 283 335
#     4   9  20  36  59  82 116 145 193 236 283 344
#     4  10  19  35  58  85 110 156 188 234 288 340
#     4   8  17  34  57  83 113 143 189 237 278 340
#     4   9  18  36  58  81 112 145 181 239 287 329
#     4  10  19  35  57  86 116 146 194 233 285 345
#
# _framework density 17.848357
#
# number of rings (size 3 to 8) (size 9 to 14) (size 15 to 20)
#    0.000    2.250    1.250    2.250    0.000    3.000 
#    6.750    0.000    5.500    0.000    0.000    0.000 
#    0.000    0.000    0.000    0.000    0.000    0.000 
#
# Total GULP energy -178283.682966 kJ/mol
# GULP energy per Si atom -5571.365093 kJ/mol
# Density = 1.780773 g / cm^3
# Si number density = 17.848357 Si / 1000 Ang^3
#
#
#
# Elastic Constant Matrix: (Units=GPa)
#
#
# Indices 1 2 3 4 5 6 
#
# 1 -124.9456 -5.0419 -24.1866 0.0077 36.3391 -0.0053
# 2 -5.0419 88.4282 43.1242 0.0013 28.0818 -0.0008
# 3 -24.1866 43.1242 81.4960 0.0049 18.0251 -0.0031
# 4 0.0077 0.0013 0.0049 28.0089 -0.0018 11.4603
# 5 36.3391 28.0818 18.0251 -0.0018 30.3833 0.0011
# 6 -0.0053 -0.0008 -0.0031 11.4603 0.0011 8.4823
#
#
#
# Elastic Compliance Matrix: (Units=1/GPa)
#
#
# Indices 1 2 3 4 5 6 
#
# 1 -0.004836 -0.001980 -0.002384 0.000010 0.009029 -0.000019
# 2 -0.001980 0.018207 -0.008085 0.000002 -0.009663 -0.000004
# 3 -0.002384 -0.008085 0.015605 -0.000007 0.001066 0.000013
# 4 0.000010 0.000002 -0.000007 0.079840 -0.000002 -0.107870
# 5 0.009029 -0.009663 0.001066 -0.000002 0.030413 0.000003
# 6 -0.000019 -0.000004 0.000013 -0.107870 0.000003 0.263634
#
#
# Mechanical properties :
#
#
# Convention : Reuss Voigt Hill
#
# Bulk Modulus (GPa) = 245.24927 8.08554 126.66740
# Shear Modulus (GPa) = 11.65172 15.44712 13.54942
#
# Velocity S-wave (km/s) = 2.55780 2.94507 2.75824
# Velocity P-wave (km/s) = 12.10077 4.01305 9.01480
#
# Compressibility (1/GPa) = 0.00407748
#
# Stress axis : x y z
#
# Youngs Moduli (GPa) = -206.77929 54.92328 64.08132
#
# Poissons Ratio (x) = 0.10876 0.15280
# Poissons Ratio (y) = -0.40946 0.51809
# Poissons Ratio (z) = -0.49305 0.44405
#
# Static dielectric constant tensor:
#      x y z
#    x 1.607350 0.000000 0.027610 
#    y 0.000000 1.642860 0.000000 
#    z 0.027610 0.000000 1.589610 
# 
# From -- ./inp_files/216156.got.cif
#   From: 2010.05.17/outbox.cif.g08.bks.cpg/sg15_109_cif.got.tgz:216156.got - 2010.06.03 18:47:42.
