data_PCOD9264933
_publ_section_title
;
Structure prediction by ZEFSAII (Michael W. Deem and Ramdas Pophale) SiO2 
 PCOD9264933
Probable space group: C 2/C
;
_chemical_formula_sum "Si O2"
_cell_formula_units_Z 52
_cell_length_a 8.269494
_cell_length_b 23.057526
_cell_length_c 15.966358
_cell_angle_alpha 90.000000
_cell_angle_beta 123.830005
_cell_angle_gamma 90.000000
_cell_volume 2528.937366
_symmetry_space_group_name_H-M "C 2/C"
_symmetry_group_IT_number 15
_symmetry_cell_setting 'monoclinic'
loop_
_space_group_symop_operation_xyz
x,y,z
-x,y,1/2-z
-x,-y,-z
x,-y,1/2+z
1/2+x,1/2+y,z
1/2-x,1/2+y,1/2-z
1/2-x,1/2-y,-z
1/2+x,1/2-y,1/2+z
loop_
_atom_site_type_symbol
_atom_site_label
_atom_site_fract_x
_atom_site_fract_y
_atom_site_fract_z
Si Si1 0.171621 0.657181 0.734897
Si Si2 0.221996 0.964550 0.977971
Si Si3 0.640368 0.546922 0.640304
Si Si4 0.519275 0.755271 0.659263
Si Si5 0.142534 0.673773 0.537547
Si Si6 0.000000 0.541835 0.250000
Si Si7 0.999511 0.567673 0.426033
O O1 0.315480 0.601677 0.787635
O O2 0.289343 0.715570 0.789611
O O3 0.083052 0.665884 0.616922
O O4 0.000000 0.646045 0.750000
O O5 0.304627 0.927227 0.924918
O O6 0.150495 0.935374 0.043842
O O7 0.053771 0.009189 0.902373
O O8 0.415573 0.002485 0.054072
O O9 0.813795 0.500309 0.699436
O O10 0.500000 0.778397 0.750000
O O11 0.338403 0.710742 0.596930
O O12 0.497527 0.797377 0.572870
O O13 0.164161 0.608446 0.511897
O O14 0.022515 0.582316 0.176442
#
# Coordination Sequence:
#
# PCOD9264933 Si02
#       7
#     8   8   8   8   8   4   8
#     4  11  21  35  62  89 114 150 190 243 296 341
#     4   9  20  34  55  79 117 149 188 232 283 337
#     4  10  19  36  54  83 116 148 187 237 277 350
#     4   9  21  40  60  87 111 147 199 245 286 346
#     4  10  21  38  61  84 112 153 197 237 294 344
#     4  10  22  34  52  82 114 150 188 230 284 330
#     4  10  20  35  53  83 109 153 186 233 284 343
#
# _framework density 20.561995
#
# number of rings (size 3 to 8) (size 9 to 14) (size 15 to 20)
#    0.000    2.154    0.769    1.846    5.385    1.231 
#    0.000    0.000    3.385    0.000    0.000    0.000 
#    0.000    0.000    0.000    0.000    0.000    0.000 
#
# Total GULP energy -144828.073250 kJ/mol
# GULP energy per Si atom -5570.310510 kJ/mol
# Density = 2.051519 g / cm^3
# Si number density = 20.561995 Si / 1000 Ang^3
#
#
#
# Elastic Constant Matrix: (Units=GPa)
#
#
# Indices 1 2 3 4 5 6 
#
# 1 49.2924 13.6655 41.6034 0.0000 -4.3851 0.0000
# 2 13.6655 49.8636 37.8780 0.0000 -13.3271 0.0000
# 3 41.6034 37.8780 133.8163 0.0000 -22.6808 0.0000
# 4 0.0000 0.0000 0.0000 36.6768 0.0000 2.0223
# 5 -4.3851 -13.3271 -22.6808 0.0000 28.1909 0.0000
# 6 0.0000 0.0000 0.0000 2.0223 0.0000 10.9645
#
#
#
# Elastic Compliance Matrix: (Units=1/GPa)
#
#
# Indices 1 2 3 4 5 6 
#
# 1 0.027873 -0.001983 -0.008717 0.000000 -0.003615 0.000000
# 2 -0.001983 0.027036 -0.005699 0.000000 0.007887 0.000000
# 3 -0.008717 -0.005699 0.012864 0.000000 0.006299 0.000000
# 4 0.000000 0.000000 0.000000 0.027545 0.000000 -0.005080
# 5 -0.003615 0.007887 0.006299 0.000000 0.043707 0.000000
# 6 0.000000 0.000000 0.000000 -0.005080 0.000000 0.092140
#
#
# Mechanical properties :
#
#
# Convention : Reuss Voigt Hill
#
# Bulk Modulus (GPa) = 28.59333 46.58511 37.58922
# Shear Modulus (GPa) = 18.14085 24.48815 21.31450
#
# Velocity S-wave (km/s) = 2.97349 3.45475 3.22312
# Velocity P-wave (km/s) = 5.07198 6.21440 5.67203
#
# Compressibility (1/GPa) = 0.03497319
#
# Stress axis : x y z
#
# Youngs Moduli (GPa) = 35.87760 36.98827 77.73657
#
# Poissons Ratio (x) = 0.07336 0.67762
# Poissons Ratio (y) = 0.07115 0.44304
# Poissons Ratio (z) = 0.31274 0.21081
#
# Static dielectric constant tensor:
#      x y z
#    x 1.732340 0.000000 -0.049920 
#    y 0.000000 1.776240 0.000000 
#    z -0.049920 0.000000 1.853330 
# 
# From -- ./inp_files/137527.got.cif
#   From: 2010.05.17/outbox.cif.g08.bks.cpg/sg15_69_cif.got.tgz:137527.got - 2010.06.03 18:47:42.
