data_PCOD9264995
_publ_section_title
;
Structure prediction by ZEFSAII (Michael W. Deem and Ramdas Pophale) SiO2 
 PCOD9264995
Probable space group: C 2/C
;
_chemical_formula_sum "Si O2"
_cell_formula_units_Z 60
_cell_length_a 19.716600
_cell_length_b 18.175602
_cell_length_c 8.888660
_cell_angle_alpha 90.000000
_cell_angle_beta 132.326414
_cell_angle_gamma 90.000000
_cell_volume 2354.995164
_symmetry_space_group_name_H-M "C 2/C"
_symmetry_group_IT_number 15
_symmetry_cell_setting 'monoclinic'
loop_
_space_group_symop_operation_xyz
x,y,z
-x,y,1/2-z
-x,-y,-z
x,-y,1/2+z
1/2+x,1/2+y,z
1/2-x,1/2+y,1/2-z
1/2-x,1/2-y,-z
1/2+x,1/2-y,1/2+z
loop_
_atom_site_type_symbol
_atom_site_label
_atom_site_fract_x
_atom_site_fract_y
_atom_site_fract_z
Si Si1 0.047639 0.907970 0.525269
Si Si2 0.304781 0.949183 0.447911
Si Si3 0.378305 0.519731 0.654804
Si Si4 0.179646 0.687820 0.334612
Si Si5 0.712917 0.846533 0.327708
Si Si6 0.502721 0.142159 0.569918
Si Si7 0.500000 0.044107 0.250000
Si Si8 0.798972 0.186537 0.264013
O O1 0.102268 0.961159 0.488912
O O2 0.093317 0.829178 0.563063
O O3 0.941313 0.916402 0.329519
O O4 0.072503 0.944253 0.720921
O O5 0.221769 0.976156 0.423213
O O6 0.337523 0.868445 0.555848
O O7 0.272650 0.922758 0.236899
O O8 0.399380 0.994157 0.593381
O O9 0.250000 0.750000 0.500000
O O10 0.243077 0.645434 0.309373
O O11 0.081503 0.696555 0.104430
O O12 0.606637 0.832320 0.205071
O O13 0.768768 0.846819 0.562956
O O14 0.738697 0.769442 0.287531
O O15 0.500000 0.128438 0.750000
O O16 0.498597 0.082787 0.419089
#
# Coordination Sequence:
#
# PCOD9264995 Si02
#       8
#     8   8   8   8   8   8   4   8
#     4  10  23  41  61  90 119 163 212 267 319 382
#     4  10  19  37  60  86 117 157 199 256 315 377
#     4  10  22  41  64  88 120 162 215 265 321 375
#     4  11  20  34  57  84 118 159 202 251 313 385
#     4  10  22  36  56  88 125 161 204 253 316 395
#     4  10  19  36  56  81 121 168 202 249 310 381
#     4   8  20  34  58  92 116 156 204 254 312 376
#     4  11  21  38  55  86 125 156 203 262 316 382
#
# _framework density 25.477761000000001
#
# number of rings (size 3 to 8) (size 9 to 14) (size 15 to 20)
#    0.000    1.867    4.000    0.000    1.867    1.067 
#    0.000    0.000    0.000    2.400    0.000    0.000 
#    0.000    0.000    0.000    0.000    0.000    0.000 
#
# Total GULP energy -167038.139636 kJ/mol
# GULP energy per Si atom -5567.937988 kJ/mol
# Density = 2.541977 g / cm^3
# Si number density = 25.477761 Si / 1000 Ang^3
#
#
#
# Elastic Constant Matrix: (Units=GPa)
#
#
# Indices 1 2 3 4 5 6 
#
# 1 139.9514 14.2249 47.9020 0.0000 5.6213 0.0000
# 2 14.2249 42.3724 31.1410 0.0000 -2.3328 0.0000
# 3 47.9020 31.1410 127.2698 0.0000 -11.1508 0.0000
# 4 0.0000 0.0000 0.0000 15.4150 0.0000 12.3417
# 5 5.6213 -2.3328 -11.1508 0.0000 59.8293 0.0000
# 6 0.0000 0.0000 0.0000 12.3417 0.0000 23.5670
#
#
#
# Elastic Compliance Matrix: (Units=1/GPa)
#
#
# Indices 1 2 3 4 5 6 
#
# 1 0.008325 -0.000584 -0.003112 0.000000 -0.001385 0.000000
# 2 -0.000584 0.028818 -0.006840 0.000000 -0.000096 0.000000
# 3 -0.003112 -0.006840 0.010882 0.000000 0.002054 0.000000
# 4 0.000000 0.000000 0.000000 0.111709 0.000000 -0.058500
# 5 -0.001385 -0.000096 0.002054 0.000000 0.017223 0.000000
# 6 0.000000 0.000000 0.000000 -0.058500 0.000000 0.073068
#
#
# Mechanical properties :
#
#
# Convention : Reuss Voigt Hill
#
# Bulk Modulus (GPa) = 37.10073 55.12550 46.11312
# Shear Modulus (GPa) = 17.85186 34.18396 26.01791
#
# Velocity S-wave (km/s) = 2.64992 3.66692 3.19909
# Velocity P-wave (km/s) = 4.89452 6.29381 5.63775
#
# Compressibility (1/GPa) = 0.02695365
#
# Stress axis : x y z
#
# Youngs Moduli (GPa) = 120.11296 34.70053 91.89314
#
# Poissons Ratio (x) = 0.02027 0.28597
# Poissons Ratio (y) = 0.07016 0.62854
# Poissons Ratio (z) = 0.37379 0.23735
#
# Static dielectric constant tensor:
#      x y z
#    x 1.827880 0.000000 0.332070 
#    y 0.000000 2.132560 0.000000 
#    z 0.332070 0.000000 1.288710 
# 
# From -- ./inp_files/58097.got.cif
#   From: 2010.05.17/outbox.cif.g08.bks.cpg/sg15_30_cif.got.tgz:58097.got - 2010.06.03 18:47:42.
