data_PCOD9264443
_publ_section_title
;
Structure prediction by ZEFSAII (Michael W. Deem and Ramdas Pophale) SiO2 
 PCOD9264443
Probable space group: C 2/C
;
_chemical_formula_sum "Si O2"
_cell_formula_units_Z 36
_cell_length_a 13.357135
_cell_length_b 18.293278
_cell_length_c 8.727953
_cell_angle_alpha 90.000000
_cell_angle_beta 55.093963
_cell_angle_gamma 90.000000
_cell_volume 1748.958906
_symmetry_space_group_name_H-M "C 2/C"
_symmetry_group_IT_number 15
_symmetry_cell_setting 'monoclinic'
loop_
_space_group_symop_operation_xyz
x,y,z
-x,y,1/2-z
-x,-y,-z
x,-y,1/2+z
1/2+x,1/2+y,z
1/2-x,1/2+y,1/2-z
1/2-x,1/2-y,-z
1/2+x,1/2-y,1/2+z
loop_
_atom_site_type_symbol
_atom_site_label
_atom_site_fract_x
_atom_site_fract_y
_atom_site_fract_z
Si Si1 0.149694 0.956687 0.982972
Si Si2 0.128421 0.906973 0.327761
Si Si3 0.000000 0.480651 0.250000
Si Si4 0.130460 0.752205 0.218947
Si Si5 0.132254 0.594184 0.363192
O O1 0.224657 0.917733 0.784067
O O2 0.163335 0.042778 0.939705
O O3 0.193600 0.932881 0.112675
O O4 0.011793 0.929635 0.080596
O O5 0.148588 0.820986 0.316387
O O6 0.074577 0.535204 0.295164
O O7 0.919373 0.428613 0.428394
O O8 0.110312 0.676085 0.324018
O O9 0.000000 0.767553 0.250000
O O10 0.250000 0.750000 0.000000
#
# Coordination Sequence:
#
# PCOD9264443 Si02
#       5
#     8   8   4   8   8
#     4  10  19  35  59  83 116 151 196 250 284 364
#     4  10  20  36  58  90 113 152 203 239 303 351
#     4  10  24  36  58  86 116 162 202 246 290 366
#     4  12  22  38  62  91 119 161 199 252 299 365
#     4  11  21  39  59  86 121 157 204 245 302 352
#
# _framework density 20.583673999999998
#
# number of rings (size 3 to 8) (size 9 to 14) (size 15 to 20)
#    0.000    1.333    5.556    1.333    0.000    0.000 
#    0.000    4.444    0.000    5.333    0.000    0.000 
#    0.000    0.000    0.000    0.000    0.000    0.000 
#
# Total GULP energy -100407.368720 kJ/mol
# GULP energy per Si atom -5578.187151 kJ/mol
# Density = 2.053682 g / cm^3
# Si number density = 20.583674 Si / 1000 Ang^3
#
#
#
# Elastic Constant Matrix: (Units=GPa)
#
#
# Indices 1 2 3 4 5 6 
#
# 1 29.1309 6.2133 21.1353 0.0000 -3.2440 0.0000
# 2 6.2133 176.5524 53.4155 0.0000 7.9031 0.0000
# 3 21.1353 53.4155 149.6684 0.0000 -7.5558 0.0000
# 4 0.0000 0.0000 0.0000 35.1398 0.0000 9.4228
# 5 -3.2440 7.9031 -7.5558 0.0000 23.4448 0.0000
# 6 0.0000 0.0000 0.0000 9.4228 0.0000 20.6805
#
#
#
# Elastic Compliance Matrix: (Units=1/GPa)
#
#
# Indices 1 2 3 4 5 6 
#
# 1 0.038550 0.000083 -0.005292 0.000000 0.003601 0.000000
# 2 0.000083 0.006553 -0.002502 0.000000 -0.003004 0.000000
# 3 -0.005292 -0.002502 0.008465 0.000000 0.002839 0.000000
# 4 0.000000 0.000000 0.000000 0.032419 0.000000 -0.014771
# 5 0.003601 -0.003004 0.002839 0.000000 0.045079 0.000000
# 6 0.000000 0.000000 0.000000 -0.014771 0.000000 0.055085
#
#
# Mechanical properties :
#
#
# Convention : Reuss Voigt Hill
#
# Bulk Modulus (GPa) = 26.21453 57.43112 41.82283
# Shear Modulus (GPa) = 23.33314 34.15885 28.74600
#
# Velocity S-wave (km/s) = 3.37051 4.07813 3.74109
# Velocity P-wave (km/s) = 5.28303 7.08073 6.24688
#
# Compressibility (1/GPa) = 0.03814678
#
# Stress axis : x y z
#
# Youngs Moduli (GPa) = 25.94007 152.61306 118.13394
#
# Poissons Ratio (x) = -0.01269 0.62514
# Poissons Ratio (y) = -0.00216 0.29556
# Poissons Ratio (z) = 0.13727 0.38183
#
# Static dielectric constant tensor:
#      x y z
#    x 1.796340 0.000000 -0.043260 
#    y 0.000000 1.764330 0.000000 
#    z -0.043260 0.000000 1.786480 
# 
# From -- ./inp_files/38501.got.cif
#   From: 2010.05.17/outbox.cif.g08.bks.cpg/sg15_20_cif.got.tgz:38501.got - 2010.06.03 18:47:42.
