data_PCOD9264238
_publ_section_title
;
Structure prediction by ZEFSAII (Michael W. Deem and Ramdas Pophale) SiO2 
 PCOD9264238
Probable space group: C 2/C
;
_chemical_formula_sum "Si O2"
_cell_formula_units_Z 44
_cell_length_a 27.974522
_cell_length_b 12.458003
_cell_length_c 16.697315
_cell_angle_alpha 90.000000
_cell_angle_beta 20.889531
_cell_angle_gamma 90.000000
_cell_volume 2074.909956
_symmetry_space_group_name_H-M "C 2/C"
_symmetry_group_IT_number 15
_symmetry_cell_setting 'monoclinic'
loop_
_space_group_symop_operation_xyz
x,y,z
-x,y,1/2-z
-x,-y,-z
x,-y,1/2+z
1/2+x,1/2+y,z
1/2-x,1/2+y,1/2-z
1/2-x,1/2-y,-z
1/2+x,1/2-y,1/2+z
loop_
_atom_site_type_symbol
_atom_site_label
_atom_site_fract_x
_atom_site_fract_y
_atom_site_fract_z
Si Si1 0.053264 0.381595 0.402827
Si Si2 0.000000 0.271615 0.250000
Si Si3 0.408313 0.674994 0.072953
Si Si4 0.791368 0.147262 0.881734
Si Si5 0.174553 0.256753 0.836334
Si Si6 0.280516 0.091007 0.998791
O O1 0.069943 0.303365 0.451600
O O2 0.000000 0.500000 0.500000
O O3 0.935213 0.328794 0.536044
O O4 0.191870 0.375109 0.135761
O O5 0.907887 0.209486 0.458596
O O6 0.897726 0.350410 0.364430
O O7 0.295713 0.670427 0.180913
O O8 0.350229 0.628552 0.247765
O O9 0.554228 0.624942 0.834334
O O10 0.782505 0.176959 0.801387
O O11 0.711027 0.037493 0.017460
O O12 0.750000 0.250000 0.000000
#
# Coordination Sequence:
#
# PCOD9264238 Si02
#       6
#     8   4   8   8   8   8
#     4  10  20  37  60  86 115 151 195 240 290 355
#     4   8  18  36  60  82 108 150 194 236 280 340
#     4  10  21  37  57  80 112 151 193 244 288 339
#     4  11  23  37  55  83 118 154 189 238 297 350
#     4   9  20  37  58  85 113 145 192 235 285 347
#     4  10  19  35  57  82 113 151 192 236 289 349
#
# _framework density 21.205739000000001
#
# number of rings (size 3 to 8) (size 9 to 14) (size 15 to 20)
#    0.000    2.182    0.000    3.273    0.000    8.000 
#    0.000    0.000    0.000    4.364    0.000    0.000 
#    0.000    0.000    0.000    0.000    0.000    0.000 
#
# Total GULP energy -122601.344489 kJ/mol
# GULP energy per Si atom -5572.788386 kJ/mol
# Density = 2.115747 g / cm^3
# Si number density = 21.205739 Si / 1000 Ang^3
#
#
#
# Elastic Constant Matrix: (Units=GPa)
#
#
# Indices 1 2 3 4 5 6 
#
# 1 52.8320 -0.5045 12.9040 0.0000 2.4753 0.0000
# 2 -0.5045 66.5785 -11.1026 0.0000 13.5739 0.0000
# 3 12.9040 -11.1026 69.9460 0.0000 -0.6976 0.0000
# 4 0.0000 0.0000 0.0000 24.1913 0.0000 8.0838
# 5 2.4753 13.5739 -0.6976 0.0000 22.4497 0.0000
# 6 0.0000 0.0000 0.0000 8.0838 0.0000 8.5753
#
#
#
# Elastic Compliance Matrix: (Units=1/GPa)
#
#
# Indices 1 2 3 4 5 6 
#
# 1 0.019940 0.000006 -0.003701 0.000000 -0.002318 0.000000
# 2 0.000006 0.017624 0.002691 0.000000 -0.010573 0.000000
# 3 -0.003701 0.002691 0.015399 0.000000 -0.000740 0.000000
# 4 0.000000 0.000000 0.000000 0.060348 0.000000 -0.056889
# 5 -0.002318 -0.010573 -0.000740 0.000000 0.051170 0.000000
# 6 0.000000 0.000000 0.000000 -0.056889 0.000000 0.170244
#
#
# Mechanical properties :
#
#
# Convention : Reuss Voigt Hill
#
# Bulk Modulus (GPa) = 19.62435 21.32780 20.47607
# Shear Modulus (GPa) = 14.13556 23.58054 18.85805
#
# Velocity S-wave (km/s) = 2.58464 3.33827 2.98533
# Velocity P-wave (km/s) = 4.26398 4.99381 4.64325
#
# Compressibility (1/GPa) = 0.05095711
#
# Stress axis : x y z
#
# Youngs Moduli (GPa) = 50.14924 56.73974 64.93831
#
# Poissons Ratio (x) = -0.00037 0.24032
# Poissons Ratio (y) = -0.00032 -0.17474
# Poissons Ratio (z) = 0.18559 -0.15268
#
# Static dielectric constant tensor:
#      x y z
#    x 1.837410 0.000000 0.058790 
#    y 0.000000 1.802700 0.000000 
#    z 0.058790 0.000000 1.845220 
# 
# From -- ./inp_files/142222.got.cif
#   From: 2010.05.17/outbox.cif.g08.bks.cpg/sg15_72_cif.got.tgz:142222.got - 2010.06.03 18:47:42.
