data_PCOD9264868
_publ_section_title
;
Structure prediction by ZEFSAII (Michael W. Deem and Ramdas Pophale) SiO2 
 PCOD9264868
Probable space group: C 2/C
;
_chemical_formula_sum "Si O2"
_cell_formula_units_Z 64
_cell_length_a 18.752650
_cell_length_b 19.507642
_cell_length_c 16.639367
_cell_angle_alpha 90.000000
_cell_angle_beta 32.413708
_cell_angle_gamma 90.000000
_cell_volume 3262.814155
_symmetry_space_group_name_H-M "C 2/C"
_symmetry_group_IT_number 15
_symmetry_cell_setting 'monoclinic'
loop_
_space_group_symop_operation_xyz
x,y,z
-x,y,1/2-z
-x,-y,-z
x,-y,1/2+z
1/2+x,1/2+y,z
1/2-x,1/2+y,1/2-z
1/2-x,1/2-y,-z
1/2+x,1/2-y,1/2+z
loop_
_atom_site_type_symbol
_atom_site_label
_atom_site_fract_x
_atom_site_fract_y
_atom_site_fract_z
Si Si1 0.868404 0.036062 0.656586
Si Si2 0.048350 0.690614 0.966464
Si Si3 0.749152 0.990470 0.937225
Si Si4 0.655127 0.310958 0.370142
Si Si5 0.306234 0.989178 0.334430
Si Si6 0.612274 0.731001 0.087103
Si Si7 0.462163 0.881415 0.400529
Si Si8 0.519225 0.895209 0.645747
O O1 0.839255 0.009740 0.774781
O O2 0.877380 0.118239 0.643023
O O3 0.759530 0.021008 0.690019
O O4 0.000000 0.000000 0.500000
O O5 0.192595 0.708438 0.793792
O O6 0.987996 0.629090 0.970120
O O7 0.059858 0.660113 0.042993
O O8 0.947526 0.753217 0.059292
O O9 0.633939 0.047992 0.043449
O O10 0.786748 0.989095 0.996693
O O11 0.674997 0.919326 0.987510
O O12 0.641008 0.313537 0.480443
O O13 0.415239 0.928319 0.245951
O O14 0.387669 0.060317 0.252303
O O15 0.500000 0.697273 0.250000
O O16 0.546552 0.803775 0.122800
O O17 0.750000 0.750000 0.000000
O O18 0.500000 0.861529 0.750000
#
# Coordination Sequence:
#
# PCOD9264868 Si02
#       8
#     8   8   8   8   8   8   8   8
#     4  12  26  42  60  87 132 169 206 258 322 385
#     4  11  21  40  63  87 132 166 213 262 316 376
#     4  10  20  36  65  93 123 157 206 262 319 378
#     4  11  25  41  62  88 125 174 208 255 317 384
#     4  10  20  37  66  96 120 156 214 263 320 384
#     4  11  23  37  59  92 131 167 211 259 306 380
#     4  10  19  35  66  95 120 161 207 260 314 378
#     4   9  18  36  66  96 111 152 212 271 317 372
#
# _framework density 19.614968000000001
#
# number of rings (size 3 to 8) (size 9 to 14) (size 15 to 20)
#    0.000    1.500    2.500    4.125    1.750    6.500 
#    0.000    0.625    2.750    0.000    0.000    0.000 
#    0.000    0.000    0.000    0.000    0.000    0.000 
#
# Total GULP energy -178556.392534 kJ/mol
# GULP energy per Si atom -5579.887267 kJ/mol
# Density = 1.957032 g / cm^3
# Si number density = 19.614968 Si / 1000 Ang^3
#
#
#
# Elastic Constant Matrix: (Units=GPa)
#
#
# Indices 1 2 3 4 5 6 
#
# 1 25.0437 6.4969 8.8256 -0.0016 9.5242 0.0015
# 2 6.4969 45.7158 20.4048 -0.0010 5.3448 0.0007
# 3 8.8256 20.4048 113.0720 -0.0020 27.7371 0.0021
# 4 -0.0016 -0.0010 -0.0020 23.8545 0.0011 1.4395
# 5 9.5242 5.3448 27.7371 0.0011 37.0750 -0.0011
# 6 0.0015 0.0007 0.0021 1.4395 -0.0011 15.0991
#
#
#
# Elastic Compliance Matrix: (Units=1/GPa)
#
#
# Indices 1 2 3 4 5 6 
#
# 1 0.045429 -0.005212 0.000090 0.000004 -0.010986 -0.000005
# 2 -0.005212 0.024391 -0.004238 0.000000 0.000993 0.000000
# 3 0.000090 -0.004238 0.011583 0.000001 -0.008078 -0.000002
# 4 0.000004 0.000000 0.000001 0.042163 -0.000003 -0.004020
# 5 -0.010986 0.000993 -0.008078 -0.000003 0.035695 0.000005
# 6 -0.000005 0.000000 -0.000002 -0.004020 0.000005 0.066612
#
#
# Mechanical properties :
#
#
# Convention : Reuss Voigt Hill
#
# Bulk Modulus (GPa) = 15.95369 28.36510 22.15940
# Shear Modulus (GPa) = 18.83328 25.07934 21.95631
#
# Velocity S-wave (km/s) = 3.10199 3.57961 3.34932
# Velocity P-wave (km/s) = 4.58049 5.61935 5.12630
#
# Compressibility (1/GPa) = 0.06268143
#
# Stress axis : x y z
#
# Youngs Moduli (GPa) = 22.01257 40.99955 86.33097
#
# Poissons Ratio (x) = 0.21367 -0.00773
# Poissons Ratio (y) = 0.11472 0.36590
# Poissons Ratio (z) = -0.00197 0.17377
#
# Static dielectric constant tensor:
#      x y z
#    x 1.716010 0.000000 0.026730 
#    y 0.000000 1.678540 0.000000 
#    z 0.026730 0.000000 1.712360 
# 
# From -- ./inp_files/163272.got.cif
#   From: 2010.05.17/outbox.cif.g08.bks.cpg/sg15_82_cif.got.tgz:163272.got - 2010.06.03 18:47:42.
