data_PCOD9264754
_publ_section_title
;
Structure prediction by ZEFSAII (Michael W. Deem and Ramdas Pophale) SiO2 
 PCOD9264754
Probable space group: C 2/C
;
_chemical_formula_sum "Si O2"
_cell_formula_units_Z 48
_cell_length_a 7.111594
_cell_length_b 24.125210
_cell_length_c 12.602935
_cell_angle_alpha 90.000000
_cell_angle_beta 80.459275
_cell_angle_gamma 90.000000
_cell_volume 2132.360735
_symmetry_space_group_name_H-M "C 2/C"
_symmetry_group_IT_number 15
_symmetry_cell_setting 'monoclinic'
loop_
_space_group_symop_operation_xyz
x,y,z
-x,y,1/2-z
-x,-y,-z
x,-y,1/2+z
1/2+x,1/2+y,z
1/2-x,1/2+y,1/2-z
1/2-x,1/2-y,-z
1/2+x,1/2-y,1/2+z
loop_
_atom_site_type_symbol
_atom_site_label
_atom_site_fract_x
_atom_site_fract_y
_atom_site_fract_z
Si Si1 0.888366 0.460197 0.653661
Si Si2 0.332021 0.841755 0.677387
Si Si3 0.374979 0.164627 0.923482
Si Si4 0.847966 0.573840 0.566541
Si Si5 0.665452 0.258728 0.845334
Si Si6 0.432761 0.675855 0.933551
O O1 0.759274 0.405238 0.677537
O O2 0.789497 0.516076 0.624144
O O3 0.000000 0.472343 0.750000
O O4 0.052496 0.442419 0.554051
O O5 0.500000 0.844699 0.750000
O O6 0.384944 0.827329 0.551241
O O7 0.201191 0.794662 0.738131
O O8 0.480206 0.106620 0.890449
O O9 0.500846 0.213179 0.864111
O O10 0.851633 0.222678 0.861795
O O11 0.680598 0.618594 0.572846
O O12 0.841665 0.167427 0.593248
O O13 0.620981 0.301561 0.944707
#
# Coordination Sequence:
#
# PCOD9264754 Si02
#       6
#     8   8   8   8   8   8
#     4   9  17  35  64  92 121 168 216 262 319 374
#     4  10  19  35  62  95 124 165 215 259 313 377
#     4  10  21  37  61  90 126 170 211 254 320 384
#     4   9  19  36  62  90 127 165 208 269 320 366
#     4  10  20  36  60  88 128 168 205 258 315 366
#     4  10  19  36  61  85 127 171 206 257 320 376
#
# _framework density 22.510265
#
# number of rings (size 3 to 8) (size 9 to 14) (size 15 to 20)
#    0.000    2.333    0.000    5.500    0.000    0.667 
#    0.000   12.500   40.333    6.000    0.000    0.000 
#    0.000    0.000    0.000    0.000    0.000    0.000 
#
# Total GULP energy -134234.136988 kJ/mol
# GULP energy per Si atom -5593.089041 kJ/mol
# Density = 2.245903 g / cm^3
# Si number density = 22.510265 Si / 1000 Ang^3
#
#
#
# Elastic Constant Matrix: (Units=GPa)
#
#
# Indices 1 2 3 4 5 6 
#
# 1 132.3659 52.0817 6.4340 0.0000 -6.5292 0.0000
# 2 52.0817 187.4201 62.1697 0.0000 -2.2474 0.0000
# 3 6.4340 62.1697 81.0747 0.0000 6.7653 0.0000
# 4 0.0000 0.0000 0.0000 71.3615 0.0000 16.5534
# 5 -6.5292 -2.2474 6.7653 0.0000 15.7248 0.0000
# 6 0.0000 0.0000 0.0000 16.5534 0.0000 34.2100
#
#
#
# Elastic Compliance Matrix: (Units=1/GPa)
#
#
# Indices 1 2 3 4 5 6 
#
# 1 0.008730 -0.002802 0.001231 0.000000 0.002695 0.000000
# 2 -0.002802 0.008247 -0.006330 0.000000 0.002739 0.000000
# 3 0.001231 -0.006330 0.017761 0.000000 -0.008035 0.000000
# 4 0.000000 0.000000 0.000000 0.015785 0.000000 -0.007638
# 5 0.002695 0.002739 -0.008035 0.000000 0.068561 0.000000
# 6 0.000000 0.000000 0.000000 -0.007638 0.000000 0.032927
#
#
# Mechanical properties :
#
#
# Convention : Reuss Voigt Hill
#
# Bulk Modulus (GPa) = 52.80907 71.35907 62.08407
# Shear Modulus (GPa) = 28.71488 42.93762 35.82625
#
# Velocity S-wave (km/s) = 3.57548 4.37220 3.99375
# Velocity P-wave (km/s) = 6.36838 7.56688 6.99335
#
# Compressibility (1/GPa) = 0.01893614
#
# Stress axis : x y z
#
# Youngs Moduli (GPa) = 114.54163 121.25835 56.30295
#
# Poissons Ratio (x) = 0.33978 -0.06931
# Poissons Ratio (y) = 0.32096 0.35640
# Poissons Ratio (z) = -0.14100 0.76756
#
# Static dielectric constant tensor:
#      x y z
#    x 1.890400 0.000000 0.030300 
#    y 0.000000 1.833790 0.000000 
#    z 0.030300 0.000000 1.867260 
# 
# From -- ./inp_files/91506.got.cif
#   From: 2010.05.17/outbox.cif.g08.bks.cpg/sg15_46_cif.got.tgz:91506.got - 2010.06.03 18:47:42.
