data_PCOD9264224
_publ_section_title
;
Structure prediction by ZEFSAII (Michael W. Deem and Ramdas Pophale) SiO2 
 PCOD9264224
Probable space group: C 2/C
;
_chemical_formula_sum "Si O2"
_cell_formula_units_Z 56
_cell_length_a 20.552660
_cell_length_b 7.694143
_cell_length_c 20.994686
_cell_angle_alpha 90.000000
_cell_angle_beta 139.947933
_cell_angle_gamma 90.000000
_cell_volume 2136.363143
_symmetry_space_group_name_H-M "C 2/C"
_symmetry_group_IT_number 15
_symmetry_cell_setting 'monoclinic'
loop_
_space_group_symop_operation_xyz
x,y,z
-x,y,1/2-z
-x,-y,-z
x,-y,1/2+z
1/2+x,1/2+y,z
1/2-x,1/2+y,1/2-z
1/2-x,1/2-y,-z
1/2+x,1/2-y,1/2+z
loop_
_atom_site_type_symbol
_atom_site_label
_atom_site_fract_x
_atom_site_fract_y
_atom_site_fract_z
Si Si1 0.754525 0.234649 0.343419
Si Si2 0.569184 0.290538 0.440865
Si Si3 0.150580 0.238491 0.880061
Si Si4 0.617520 0.305750 0.957241
Si Si5 0.847339 0.170592 0.152616
Si Si6 0.797847 0.904943 0.747318
Si Si7 0.437063 0.175845 0.452152
O O1 0.841530 0.308279 0.454780
O O2 0.676026 0.152494 0.335240
O O3 0.812119 0.124700 0.333002
O O4 0.702907 0.393335 0.269563
O O5 0.561120 0.217847 0.362849
O O6 0.607705 0.486428 0.457965
O O7 0.481061 0.285598 0.426121
O O8 0.141642 0.038713 0.849832
O O9 0.250000 0.250000 0.000000
O O10 0.732044 0.236540 0.054653
O O11 0.553018 0.242228 0.968496
O O12 0.593560 0.258140 0.865528
O O13 0.862353 0.190773 0.240221
O O14 0.680863 0.852636 0.649204
O O15 0.500000 0.000000 0.500000
#
# Coordination Sequence:
#
# PCOD9264224 Si02
#       7
#     8   8   8   8   8   8   8
#     4  10  20  35  55  82 110 141 182 227 274 323
#     4  10  19  35  57  81 108 143 189 223 271 334
#     4   8  16  31  54  80 106 141 184 228 264 319
#     4   9  18  31  55  80 104 139 185 228 263 316
#     4   8  16  32  51  78 108 135 180 230 268 304
#     4  10  21  35  55  80 111 143 177 228 281 322
#     4  11  21  36  53  81 115 145 177 225 281 332
#
# _framework density 26.212771
#
# number of rings (size 3 to 8) (size 9 to 14) (size 15 to 20)
#    0.000    2.571    1.429    0.429    6.000    0.000 
#    0.000    0.714    0.000    0.857    0.000    0.000 
#    0.000    0.000    0.000    0.000    0.000    0.000 
#
# Total GULP energy -156191.308265 kJ/mol
# GULP energy per Si atom -5578.261009 kJ/mol
# Density = 2.615311 g / cm^3
# Si number density = 26.212771 Si / 1000 Ang^3
#
#
#
# Elastic Constant Matrix: (Units=GPa)
#
#
# Indices 1 2 3 4 5 6 
#
# 1 243.7668 33.7187 76.5374 0.0000 -78.2995 0.0000
# 2 33.7187 40.7094 14.6953 0.0000 -21.5826 0.0000
# 3 76.5374 14.6953 102.2249 0.0000 -41.0975 0.0000
# 4 0.0000 0.0000 0.0000 14.4715 0.0000 -5.0195
# 5 -78.2995 -21.5826 -41.0975 0.0000 69.2683 0.0000
# 6 0.0000 0.0000 0.0000 -5.0195 0.0000 36.8920
#
#
#
# Elastic Compliance Matrix: (Units=1/GPa)
#
#
# Indices 1 2 3 4 5 6 
#
# 1 0.007069 -0.001790 -0.002688 0.000000 0.005838 0.000000
# 2 -0.001790 0.029918 -0.000035 0.000000 0.007278 0.000000
# 3 -0.002688 -0.000035 0.013886 0.000000 0.005189 0.000000
# 4 0.000000 0.000000 0.000000 0.072524 0.000000 0.009868
# 5 0.005838 0.007278 0.005189 0.000000 0.026383 0.000000
# 6 0.000000 0.000000 0.000000 0.009868 0.000000 0.028449
#
#
# Mechanical properties :
#
#
# Convention : Reuss Voigt Hill
#
# Bulk Modulus (GPa) = 23.89619 70.73378 47.31499
# Shear Modulus (GPa) = 24.85042 41.57634 33.21338
#
# Velocity S-wave (km/s) = 3.08235 3.98692 3.56345
# Velocity P-wave (km/s) = 4.66946 6.94529 5.91781
#
# Compressibility (1/GPa) = 0.04184767
#
# Stress axis : x y z
#
# Youngs Moduli (GPa) = 141.45860 33.42489 72.01282
#
# Poissons Ratio (x) = 0.05982 0.19360
# Poissons Ratio (y) = 0.25315 0.00251
# Poissons Ratio (z) = 0.38030 0.00117
#
# Static dielectric constant tensor:
#      x y z
#    x 2.288020 0.000000 -0.017130 
#    y 0.000000 2.081590 0.000000 
#    z -0.017130 0.000000 2.135600 
# 
# From -- ./inp_files/251653.got.cif
#   From: 2010.05.17/outbox.cif.g08.bks.cpg/sg15_126_cif.got.tgz:251653.got - 2010.06.03 18:47:42.
