data_PCOD9264655
_publ_section_title
;
Structure prediction by ZEFSAII (Michael W. Deem and Ramdas Pophale) SiO2 
 PCOD9264655
Probable space group: C 2/C
;
_chemical_formula_sum "Si O2"
_cell_formula_units_Z 48
_cell_length_a 7.152081
_cell_length_b 19.387284
_cell_length_c 18.335352
_cell_angle_alpha 90.000000
_cell_angle_beta 123.403827
_cell_angle_gamma 90.000000
_cell_volume 2122.398156
_symmetry_space_group_name_H-M "C 2/C"
_symmetry_group_IT_number 15
_symmetry_cell_setting 'monoclinic'
loop_
_space_group_symop_operation_xyz
x,y,z
-x,y,1/2-z
-x,-y,-z
x,-y,1/2+z
1/2+x,1/2+y,z
1/2-x,1/2+y,1/2-z
1/2-x,1/2-y,-z
1/2+x,1/2-y,1/2+z
loop_
_atom_site_type_symbol
_atom_site_label
_atom_site_fract_x
_atom_site_fract_y
_atom_site_fract_z
Si Si1 0.403259 0.784652 0.927050
Si Si2 0.755008 0.186998 0.775550
Si Si3 0.404504 0.270567 0.887696
Si Si4 0.990423 0.916026 0.942212
Si Si5 0.532883 0.436330 0.391192
Si Si6 0.488383 0.918814 0.011661
O O1 0.402173 0.741481 0.853713
O O2 0.153763 0.772155 0.905393
O O3 0.566713 0.754915 0.023760
O O4 0.452981 0.866193 0.936675
O O5 0.500000 0.187639 0.750000
O O6 0.738335 0.219236 0.691775
O O7 0.848634 0.111598 0.814713
O O8 0.355220 0.351868 0.880543
O O9 0.924603 0.924384 0.012572
O O10 0.261648 0.903103 0.007530
O O11 0.974967 0.982161 0.885014
O O12 0.763962 0.411839 0.402853
O O13 0.500000 0.000000 0.000000
#
# Coordination Sequence:
#
# PCOD9264655 Si02
#       6
#     8   8   8   8   8   8
#     4   9  17  33  56  78 112 156 188 240 294 345
#     4  10  20  33  57  86 117 155 198 243 296 353
#     4   9  17  33  57  81 113 154 192 237 296 347
#     4   9  18  36  63  83 113 154 193 241 300 352
#     4  10  19  35  61  88 112 154 196 245 299 350
#     4   9  19  34  58  88 111 149 199 239 292 358
#
# _framework density 22.615926999999999
#
# number of rings (size 3 to 8) (size 9 to 14) (size 15 to 20)
#    0.000    2.667    1.667    0.000    2.333    0.667 
#    0.000    2.500    0.000    4.000    0.000    0.000 
#    0.000    0.000    0.000    0.000    0.000    0.000 
#
# Total GULP energy -133731.697898 kJ/mol
# GULP energy per Si atom -5572.154079 kJ/mol
# Density = 2.256445 g / cm^3
# Si number density = 22.615927 Si / 1000 Ang^3
#
#
#
# Elastic Constant Matrix: (Units=GPa)
#
#
# Indices 1 2 3 4 5 6 
#
# 1 63.7278 20.7585 19.0632 0.0000 6.7845 0.0000
# 2 20.7585 175.3810 77.9701 0.0000 -4.4962 0.0000
# 3 19.0632 77.9701 115.8917 0.0000 -2.1890 0.0000
# 4 0.0000 0.0000 0.0000 43.9860 0.0000 6.1036
# 5 6.7845 -4.4962 -2.1890 0.0000 25.7147 0.0000
# 6 0.0000 0.0000 0.0000 6.1036 0.0000 17.5897
#
#
#
# Elastic Compliance Matrix: (Units=1/GPa)
#
#
# Indices 1 2 3 4 5 6 
#
# 1 0.017249 -0.001235 -0.002100 0.000000 -0.004945 0.000000
# 2 -0.001235 0.008247 -0.005321 0.000000 0.001315 0.000000
# 3 -0.002100 -0.005321 0.012567 0.000000 0.000694 0.000000
# 4 0.000000 0.000000 0.000000 0.023885 0.000000 -0.008288
# 5 -0.004945 0.001315 0.000694 0.000000 0.040482 0.000000
# 6 0.000000 0.000000 0.000000 -0.008288 0.000000 0.059727
#
#
# Mechanical properties :
#
#
# Convention : Reuss Voigt Hill
#
# Bulk Modulus (GPa) = 48.18811 65.62047 56.90429
# Shear Modulus (GPa) = 26.82627 33.27200 30.04914
#
# Velocity S-wave (km/s) = 3.44781 3.83975 3.64905
# Velocity P-wave (km/s) = 6.09945 6.98115 6.55514
#
# Compressibility (1/GPa) = 0.02075201
#
# Stress axis : x y z
#
# Youngs Moduli (GPa) = 57.97567 121.25419 79.57429
#
# Poissons Ratio (x) = 0.14972 0.16710
# Poissons Ratio (y) = 0.07159 0.42338
# Poissons Ratio (z) = 0.12174 0.64514
#
# Static dielectric constant tensor:
#      x y z
#    x 1.948740 0.000000 0.040610 
#    y 0.000000 1.898900 0.000000 
#    z 0.040610 0.000000 1.797820 
# 
# From -- ./inp_files/135464.got.cif
#   From: 2010.05.17/outbox.cif.g08.bks.cpg/sg15_68_cif.got.tgz:135464.got - 2010.06.03 18:47:42.
