data_PCOD9264808
_publ_section_title
;
Structure prediction by ZEFSAII (Michael W. Deem and Ramdas Pophale) SiO2 
 PCOD9264808
Probable space group: C 2/C
;
_chemical_formula_sum "Si O2"
_cell_formula_units_Z 60
_cell_length_a 28.175493
_cell_length_b 15.395282
_cell_length_c 20.628016
_cell_angle_alpha 90.000000
_cell_angle_beta 162.587617
_cell_angle_gamma 90.000000
_cell_volume 2677.604724
_symmetry_space_group_name_H-M "C 2/C"
_symmetry_group_IT_number 15
_symmetry_cell_setting 'monoclinic'
loop_
_space_group_symop_operation_xyz
x,y,z
-x,y,1/2-z
-x,-y,-z
x,-y,1/2+z
1/2+x,1/2+y,z
1/2-x,1/2+y,1/2-z
1/2-x,1/2-y,-z
1/2+x,1/2-y,1/2+z
loop_
_atom_site_type_symbol
_atom_site_label
_atom_site_fract_x
_atom_site_fract_y
_atom_site_fract_z
Si Si1 0.263149 0.829485 0.442698
Si Si2 0.638669 0.093925 0.744770
Si Si3 0.500000 0.967137 0.750000
Si Si4 0.291607 0.713516 0.840982
Si Si5 0.965327 0.634400 0.636186
Si Si6 0.127102 0.069904 0.640706
Si Si7 0.214788 0.448683 0.758662
Si Si8 0.071508 0.216303 0.946861
O O1 0.379896 0.900172 0.628089
O O2 0.191384 0.885589 0.289364
O O3 0.358825 0.755903 0.528222
O O4 0.116723 0.792633 0.292503
O O5 0.737001 0.163254 0.833199
O O6 0.621204 0.116939 0.796747
O O7 0.459485 0.089387 0.482173
O O8 0.709171 0.000900 0.818629
O O9 0.413173 0.036901 0.589752
O O10 0.415099 0.653752 0.960585
O O11 0.142567 0.726489 0.598657
O O12 0.354735 0.805694 0.948497
O O13 0.000000 0.678966 0.750000
O O14 0.244423 0.016817 0.745545
O O15 0.000000 0.000000 0.500000
O O16 0.348255 0.376609 0.936914
#
# Coordination Sequence:
#
# PCOD9264808 Si02
#       8
#     8   8   4   8   8   8   8   8
#     4  11  24  41  64  99 133 172 231 275 352 409
#     4  10  20  37  62  92 134 169 224 272 333 408
#     4  10  26  46  62  90 126 192 226 264 338 434
#     4  10  22  38  63 103 131 171 222 280 336 393
#     4  10  23  43  63  89 133 190 220 268 336 415
#     4  10  20  37  66 100 134 168 217 282 333 398
#     4  10  19  35  63  99 128 170 208 289 352 381
#     4  11  22  38  67 105 131 166 223 301 346 400
#
# _framework density 22.408086999999998
#
# number of rings (size 3 to 8) (size 9 to 14) (size 15 to 20)
#    0.400    1.333    2.667    1.600    1.867    4.267 
#    0.000    0.000    0.000    0.000    0.000    0.000 
#    0.000    0.000    0.000    0.000    0.000    0.000 
#
# Total GULP energy -167353.789424 kJ/mol
# GULP energy per Si atom -5578.459647 kJ/mol
# Density = 2.235708 g / cm^3
# Si number density = 22.408087 Si / 1000 Ang^3
#
#
#
# Elastic Constant Matrix: (Units=GPa)
#
#
# Indices 1 2 3 4 5 6 
#
# 1 102.7112 30.7647 18.5772 -0.0003 12.7291 -0.0001
# 2 30.7647 106.1101 36.9269 -0.0007 13.7023 -0.0004
# 3 18.5772 36.9269 64.2869 -0.0003 14.0621 0.0007
# 4 -0.0003 -0.0007 -0.0003 24.3455 -0.0004 6.8871
# 5 12.7291 13.7023 14.0621 -0.0004 33.1126 -0.0001
# 6 -0.0001 -0.0004 0.0007 6.8871 -0.0001 34.5600
#
#
#
# Elastic Compliance Matrix: (Units=1/GPa)
#
#
# Indices 1 2 3 4 5 6 
#
# 1 0.011016 -0.002427 -0.001194 0.000000 -0.002724 0.000000
# 2 -0.002427 0.012461 -0.006099 0.000000 -0.001633 0.000000
# 3 -0.001194 -0.006099 0.020671 0.000000 -0.005796 -0.000001
# 4 0.000000 0.000000 0.000000 0.043529 0.000000 -0.008675
# 5 -0.002724 -0.001633 -0.005796 0.000000 0.034384 0.000000
# 6 0.000000 0.000000 -0.000001 -0.008675 0.000000 0.030664
#
#
# Mechanical properties :
#
#
# Convention : Reuss Voigt Hill
#
# Bulk Modulus (GPa) = 40.47012 49.51620 44.99316
# Shear Modulus (GPa) = 27.71576 30.85959 29.28768
#
# Velocity S-wave (km/s) = 3.52072 3.71504 3.61919
# Velocity P-wave (km/s) = 5.88447 6.36769 6.13084
#
# Compressibility (1/GPa) = 0.02470959
#
# Stress axis : x y z
#
# Youngs Moduli (GPa) = 90.77372 80.24835 48.37589
#
# Poissons Ratio (x) = 0.19475 0.05774
# Poissons Ratio (y) = 0.22030 0.29506
# Poissons Ratio (z) = 0.10835 0.48946
#
# Static dielectric constant tensor:
#      x y z
#    x 1.866580 0.000000 -0.049020 
#    y 0.000000 1.867630 0.000000 
#    z -0.049020 0.000000 1.879800 
# 
# From -- ./inp_files/257898.got.cif
#   From: 2010.05.17/outbox.cif.g08.bks.cpg/sg15_129_cif.got.tgz:257898.got - 2010.06.03 18:47:42.
