data_PCOD9264992
_publ_section_title
;
Structure prediction by ZEFSAII (Michael W. Deem and Ramdas Pophale) SiO2 
 PCOD9264992
Probable space group: C 2/C
;
_chemical_formula_sum "Si O2"
_cell_formula_units_Z 64
_cell_length_a 23.248049
_cell_length_b 9.669327
_cell_length_c 30.918335
_cell_angle_alpha 90.000000
_cell_angle_beta 29.910605
_cell_angle_gamma 90.000000
_cell_volume 3465.717048
_symmetry_space_group_name_H-M "C 2/C"
_symmetry_group_IT_number 15
_symmetry_cell_setting 'monoclinic'
loop_
_space_group_symop_operation_xyz
x,y,z
-x,y,1/2-z
-x,-y,-z
x,-y,1/2+z
1/2+x,1/2+y,z
1/2-x,1/2+y,1/2-z
1/2-x,1/2-y,-z
1/2+x,1/2-y,1/2+z
loop_
_atom_site_type_symbol
_atom_site_label
_atom_site_fract_x
_atom_site_fract_y
_atom_site_fract_z
Si Si1 0.419651 0.225607 0.475080
Si Si2 0.359683 0.040408 0.433553
Si Si3 0.572050 0.918563 0.244373
Si Si4 0.865373 0.497384 0.074778
Si Si5 0.137178 0.335847 0.291045
Si Si6 0.680003 0.110378 0.307006
Si Si7 0.123083 0.305728 0.011050
Si Si8 0.790682 0.993629 0.549267
O O1 0.554364 0.184115 0.390501
O O2 0.389200 0.385889 0.498206
O O3 0.377197 0.158641 0.457611
O O4 0.351785 0.143903 0.557210
O O5 0.479279 0.014661 0.329733
O O6 0.332782 0.900345 0.478151
O O7 0.262768 0.059528 0.460975
O O8 0.500000 0.859661 0.250000
O O9 0.614606 0.815720 0.254472
O O10 0.683480 0.995317 0.152412
O O11 0.800987 0.523052 0.161239
O O12 0.841765 0.620642 0.056442
O O13 0.000000 0.500000 0.000000
O O14 0.225050 0.228611 0.254493
O O15 0.178867 0.494048 0.270753
O O16 0.014943 0.320423 0.394680
O O17 0.162853 0.148823 0.986687
#
# Coordination Sequence:
#
# PCOD9264992 Si02
#       8
#     8   8   8   8   8   8   8   8
#     4  10  20  37  56  81 117 148 186 236 288 337
#     4   9  18  39  58  75 117 158 182 229 298 339
#     4   9  19  38  57  80 115 149 187 233 285 338
#     4   9  17  38  54  69 106 154 172 219 286 337
#     4  11  22  38  58  84 113 155 186 234 292 339
#     4  11  22  38  58  80 114 151 189 228 291 349
#     4  10  19  36  56  81 114 143 192 235 278 333
#     4  11  21  31  59  92 106 143 203 241 270 337
#
# _framework density 18.466595999999999
#
# number of rings (size 3 to 8) (size 9 to 14) (size 15 to 20)
#    0.000    2.000    5.000    1.500    1.750    1.000 
#    0.000    3.125    0.000    0.000    0.000    9.625 
#    0.000    0.000    0.000    0.000    0.000    0.000 
#
# Total GULP energy -178328.728652 kJ/mol
# GULP energy per Si atom -5572.772770 kJ/mol
# Density = 1.842457 g / cm^3
# Si number density = 18.466596 Si / 1000 Ang^3
#
#
#
# Elastic Constant Matrix: (Units=GPa)
#
#
# Indices 1 2 3 4 5 6 
#
# 1 72.7377 14.5141 22.2778 -0.0001 8.8929 0.0004
# 2 14.5141 64.4160 24.0665 -0.0006 -0.9082 0.0015
# 3 22.2778 24.0665 20.9337 -0.0008 7.2448 0.0002
# 4 -0.0001 -0.0006 -0.0008 16.2485 0.0000 -9.8559
# 5 8.8929 -0.9082 7.2448 0.0000 23.9946 -0.0001
# 6 0.0004 0.0015 0.0002 -9.8559 -0.0001 20.8357
#
#
#
# Elastic Compliance Matrix: (Units=1/GPa)
#
#
# Indices 1 2 3 4 5 6 
#
# 1 0.021957 0.007094 -0.032159 -0.000002 0.001841 -0.000002
# 2 0.007094 0.032801 -0.050003 -0.000003 0.013710 -0.000004
# 3 -0.032159 -0.050003 0.151881 0.000010 -0.035832 0.000007
# 4 -0.000002 -0.000003 0.000010 0.086308 -0.000002 0.040826
# 5 0.001841 0.013710 -0.035832 -0.000002 0.052332 -0.000002
# 6 -0.000002 -0.000004 0.000007 0.040826 -0.000002 0.067307
#
#
# Mechanical properties :
#
#
# Convention : Reuss Voigt Hill
#
# Bulk Modulus (GPa) = 17.69880 31.08935 24.39407
# Shear Modulus (GPa) = 8.59762 18.69770 13.64766
#
# Velocity S-wave (km/s) = 2.16006 3.18546 2.72149
# Velocity P-wave (km/s) = 3.97822 5.51376 4.80769
#
# Compressibility (1/GPa) = 0.05650102
#
# Stress axis : x y z
#
# Youngs Moduli (GPa) = 45.54340 30.48696 6.58411
#
# Poissons Ratio (x) = -0.21626 0.21174
# Poissons Ratio (y) = -0.32307 0.32923
# Poissons Ratio (z) = 1.46463 1.52445
#
# Static dielectric constant tensor:
#      x y z
#    x 1.673040 0.000000 0.016300 
#    y 0.000000 1.626540 0.000000 
#    z 0.016300 0.000000 1.638650 
# 
# From -- ./inp_files/318596.got.cif
#   From: 2010.05.17/outbox.cif.g08.bks.cpg/sg15_160_cif.got.tgz:318596.got - 2010.06.03 18:47:42.
