data_PCOD9264840
_publ_section_title
;
Structure prediction by ZEFSAII (Michael W. Deem and Ramdas Pophale) SiO2 
 PCOD9264840
Probable space group: C 2/C
;
_chemical_formula_sum "Si O2"
_cell_formula_units_Z 48
_cell_length_a 14.375200
_cell_length_b 28.965893
_cell_length_c 8.525342
_cell_angle_alpha 90.000000
_cell_angle_beta 38.963911
_cell_angle_gamma 90.000000
_cell_volume 2232.268383
_symmetry_space_group_name_H-M "C 2/C"
_symmetry_group_IT_number 15
_symmetry_cell_setting 'monoclinic'
loop_
_space_group_symop_operation_xyz
x,y,z
-x,y,1/2-z
-x,-y,-z
x,-y,1/2+z
1/2+x,1/2+y,z
1/2-x,1/2+y,1/2-z
1/2-x,1/2-y,-z
1/2+x,1/2-y,1/2+z
loop_
_atom_site_type_symbol
_atom_site_label
_atom_site_fract_x
_atom_site_fract_y
_atom_site_fract_z
Si Si1 0.837034 0.017193 0.158335
Si Si2 0.651972 0.735496 0.978869
Si Si3 0.198780 0.646706 0.836114
Si Si4 0.320352 0.566372 0.488925
Si Si5 0.170150 0.890438 0.014290
Si Si6 0.915040 0.662467 0.025858
O O1 0.769468 0.044307 0.392784
O O2 0.837921 0.055243 0.018891
O O3 0.765911 0.970326 0.190301
O O4 0.000000 0.000000 0.000000
O O5 0.500000 0.716034 0.250000
O O6 0.615302 0.782813 0.937218
O O7 0.750000 0.750000 0.000000
O O8 0.733259 0.697725 0.767797
O O9 0.266007 0.616260 0.606547
O O10 0.250732 0.621994 0.926432
O O11 0.026510 0.650100 0.020688
O O12 0.500000 0.567274 0.250000
O O13 0.000000 0.874579 0.250000
O O14 0.263193 0.864422 0.757445
O O15 0.000000 0.652403 0.750000
#
# Coordination Sequence:
#
# PCOD9264840 Si02
#       6
#     8   8   8   8   8   8
#     4  10  20  38  63 100 140 181 229 294 342 414
#     4  11  23  43  71 102 144 189 241 287 356 429
#     4  12  24  42  68 103 141 186 233 299 353 425
#     4  10  19  35  64  96 135 178 234 278 346 408
#     4  12  26  42  70 104 142 184 240 289 354 417
#     4  11  25  47  69 101 143 188 234 295 358 424
#
# _framework density 21.502790000000001
#
# number of rings (size 3 to 8) (size 9 to 14) (size 15 to 20)
#    0.000    1.000    3.333    6.500    2.333    0.667 
#    0.000    0.833    0.000    2.000    0.000    0.000 
#    0.000    0.000    0.000    0.000    0.000    0.000 
#
# Total GULP energy -134065.771132 kJ/mol
# GULP energy per Si atom -5586.073797 kJ/mol
# Density = 2.145385 g / cm^3
# Si number density = 21.502790 Si / 1000 Ang^3
#
#
#
# Elastic Constant Matrix: (Units=GPa)
#
#
# Indices 1 2 3 4 5 6 
#
# 1 121.4340 38.3378 22.6331 0.0000 7.6715 0.0000
# 2 38.3378 103.6737 37.5082 0.0000 1.5498 0.0000
# 3 22.6331 37.5082 87.8455 0.0000 -11.1028 0.0000
# 4 0.0000 0.0000 0.0000 1.6768 0.0000 0.0116
# 5 7.6715 1.5498 -11.1028 0.0000 33.0652 0.0000
# 6 0.0000 0.0000 0.0000 0.0116 0.0000 32.2784
#
#
#
# Elastic Compliance Matrix: (Units=1/GPa)
#
#
# Indices 1 2 3 4 5 6 
#
# 1 0.009623 -0.002960 -0.001546 0.000000 -0.002613 0.000000
# 2 -0.002960 0.012484 -0.004757 0.000000 -0.001496 0.000000
# 3 -0.001546 -0.004757 0.014502 0.000000 0.005451 0.000000
# 4 0.000000 0.000000 0.000000 0.596381 0.000000 -0.000215
# 5 -0.002613 -0.001496 0.005451 0.000000 0.032750 0.000000
# 6 0.000000 0.000000 0.000000 -0.000215 0.000000 0.030981
#
#
# Mechanical properties :
#
#
# Convention : Reuss Voigt Hill
#
# Bulk Modulus (GPa) = 55.29941 56.65681 55.97811
# Shear Modulus (GPa) = 6.93220 27.70236 17.31728
#
# Velocity S-wave (km/s) = 1.79746 3.59320 2.84095
# Velocity P-wave (km/s) = 5.48461 6.60459 6.07048
#
# Compressibility (1/GPa) = 0.01808338
#
# Stress axis : x y z
#
# Youngs Moduli (GPa) = 103.92208 80.10564 68.95732
#
# Poissons Ratio (x) = 0.23712 0.10658
# Poissons Ratio (y) = 0.30762 0.32800
# Poissons Ratio (z) = 0.16062 0.38103
#
# Static dielectric constant tensor:
#      x y z
#    x 1.838450 0.000000 0.022990 
#    y 0.000000 1.757990 0.000000 
#    z 0.022990 0.000000 1.820900 
# 
# From -- ./inp_files/43840.got.cif
#   From: 2010.05.17/outbox.cif.g08.bks.cpg/sg15_22_cif.got.tgz:43840.got - 2010.06.03 18:47:42.
