data_PCOD9264580
_publ_section_title
;
Structure prediction by ZEFSAII (Michael W. Deem and Ramdas Pophale) SiO2 
 PCOD9264580
Probable space group: C 2/C
;
_chemical_formula_sum "Si O2"
_cell_formula_units_Z 48
_cell_length_a 31.680418
_cell_length_b 8.579852
_cell_length_c 19.410488
_cell_angle_alpha 90.000000
_cell_angle_beta 157.132828
_cell_angle_gamma 90.000000
_cell_volume 2050.244128
_symmetry_space_group_name_H-M "C 2/C"
_symmetry_group_IT_number 15
_symmetry_cell_setting 'monoclinic'
loop_
_space_group_symop_operation_xyz
x,y,z
-x,y,1/2-z
-x,-y,-z
x,-y,1/2+z
1/2+x,1/2+y,z
1/2-x,1/2+y,1/2-z
1/2-x,1/2-y,-z
1/2+x,1/2-y,1/2+z
loop_
_atom_site_type_symbol
_atom_site_label
_atom_site_fract_x
_atom_site_fract_y
_atom_site_fract_z
Si Si1 0.266623 0.887941 0.621150
Si Si2 0.347003 0.047626 0.947878
Si Si3 0.031939 0.618557 0.988205
Si Si4 0.701036 0.061358 0.475144
Si Si5 0.551915 0.551151 0.150205
Si Si6 0.858236 0.077290 0.443330
O O1 0.354744 0.817975 0.806926
O O2 0.327077 0.965851 0.647055
O O3 0.199193 0.746958 0.486759
O O4 0.186597 0.984772 0.550109
O O5 0.434949 0.966615 0.031716
O O6 0.230416 0.984470 0.745109
O O7 0.357345 0.002458 0.043757
O O8 0.357136 0.234062 0.949190
O O9 0.000000 0.500000 0.000000
O O10 0.955210 0.763031 0.859568
O O11 0.825458 0.005447 0.663721
O O12 0.500000 0.500000 0.000000
O O13 0.475303 0.480702 0.094764
#
# Coordination Sequence:
#
# PCOD9264580 Si02
#       6
#     8   8   8   8   8   8
#     4   9  20  38  59  91 120 155 200 245 310 358
#     4  10  20  35  60  87 117 160 204 247 305 359
#     4  11  23  39  62  89 117 159 207 254 298 372
#     4  10  20  37  63  89 121 156 201 255 298 361
#     4  12  20  36  62  91 117 154 213 251 301 360
#     4  10  19  35  60  87 119 158 201 250 294 371
#
# _framework density 23.411847000000002
#
# number of rings (size 3 to 8) (size 9 to 14) (size 15 to 20)
#    0.000    1.667    3.333    3.000    0.000    0.667 
#    0.000    1.667    3.667    0.000    0.000    0.000 
#    0.000    0.000    0.000    0.000    0.000    0.000 
#
# Total GULP energy -134039.895138 kJ/mol
# GULP energy per Si atom -5584.995631 kJ/mol
# Density = 2.335856 g / cm^3
# Si number density = 23.411847 Si / 1000 Ang^3
#
#
#
# Elastic Constant Matrix: (Units=GPa)
#
#
# Indices 1 2 3 4 5 6 
#
# 1 236.5533 48.1660 35.4361 0.0000 2.2260 0.0000
# 2 48.1660 111.2676 18.8635 0.0000 9.4887 0.0000
# 3 35.4361 18.8635 53.0380 0.0000 0.0701 0.0000
# 4 0.0000 0.0000 0.0000 26.4152 0.0000 11.8821
# 5 2.2260 9.4887 0.0701 0.0000 39.1939 0.0000
# 6 0.0000 0.0000 0.0000 11.8821 0.0000 33.9943
#
#
#
# Elastic Compliance Matrix: (Units=1/GPa)
#
#
# Indices 1 2 3 4 5 6 
#
# 1 0.004981 -0.001706 -0.002721 0.000000 0.000135 0.000000
# 2 -0.001706 0.010362 -0.002542 0.000000 -0.002407 0.000000
# 3 -0.002721 -0.002542 0.021576 0.000000 0.000731 0.000000
# 4 0.000000 0.000000 0.000000 0.044920 0.000000 -0.015701
# 5 0.000135 -0.002407 0.000731 0.000000 0.026088 0.000000
# 6 0.000000 0.000000 0.000000 -0.015701 0.000000 0.034905
#
#
# Mechanical properties :
#
#
# Convention : Reuss Voigt Hill
#
# Bulk Modulus (GPa) = 43.51723 67.31000 55.41362
# Shear Modulus (GPa) = 30.40786 39.81357 35.11071
#
# Velocity S-wave (km/s) = 3.60783 4.12828 3.87680
# Velocity P-wave (km/s) = 5.99861 7.17888 6.61512
#
# Compressibility (1/GPa) = 0.02297940
#
# Stress axis : x y z
#
# Youngs Moduli (GPa) = 200.75359 96.50368 46.34830
#
# Poissons Ratio (x) = 0.16468 0.12613
# Poissons Ratio (y) = 0.34258 0.11782
# Poissons Ratio (z) = 0.54632 0.24533
#
# Static dielectric constant tensor:
#      x y z
#    x 1.944530 0.000000 -0.001310 
#    y 0.000000 1.931590 0.000000 
#    z -0.001310 0.000000 1.943590 
# 
# From -- ./inp_files/258764.got.cif
#   From: 2010.05.17/outbox.cif.g08.bks.cpg/sg15_130_cif.got.tgz:258764.got - 2010.06.03 18:47:42.
