data_PCOD9264705
_publ_section_title
;
Structure prediction by ZEFSAII (Michael W. Deem and Ramdas Pophale) SiO2 
 PCOD9264705
Probable space group: C 2/C
;
_chemical_formula_sum "Si O2"
_cell_formula_units_Z 40
_cell_length_a 11.263375
_cell_length_b 15.293147
_cell_length_c 9.466607
_cell_angle_alpha 90.000000
_cell_angle_beta 107.023682
_cell_angle_gamma 90.000000
_cell_volume 1559.197570
_symmetry_space_group_name_H-M "C 2/C"
_symmetry_group_IT_number 15
_symmetry_cell_setting 'monoclinic'
loop_
_space_group_symop_operation_xyz
x,y,z
-x,y,1/2-z
-x,-y,-z
x,-y,1/2+z
1/2+x,1/2+y,z
1/2-x,1/2+y,1/2-z
1/2-x,1/2-y,-z
1/2+x,1/2-y,1/2+z
loop_
_atom_site_type_symbol
_atom_site_label
_atom_site_fract_x
_atom_site_fract_y
_atom_site_fract_z
Si Si1 0.727075 0.434390 0.788911
Si Si2 0.085828 0.667805 0.981498
Si Si3 0.612201 0.553619 0.971180
Si Si4 0.099094 0.746537 0.404066
Si Si5 0.212570 0.743434 0.779330
O O1 0.726310 0.451037 0.622413
O O2 0.655173 0.340976 0.778399
O O3 0.855414 0.414111 0.914293
O O4 0.655618 0.510477 0.842025
O O5 0.129959 0.673145 0.834532
O O6 0.162689 0.749021 0.079544
O O7 0.945056 0.687270 0.977401
O O8 0.500000 0.500000 0.000000
O O9 0.575147 0.652841 0.933145
O O10 0.227170 0.750910 0.357047
O O11 0.000000 0.715626 0.250000
#
# Coordination Sequence:
#
# PCOD9264705 Si02
#       5
#     8   8   8   8   8
#     4  10  22  37  54  86 123 161 194 246 310 362
#     4   8  17  35  59  79 117 162 201 243 296 367
#     4  12  24  34  56  92 128 153 194 257 316 357
#     4  10  19  35  62  86 114 159 206 247 302 360
#     4   8  17  34  61  82 114 163 206 244 300 366
#
# _framework density 25.654222000000001
#
# number of rings (size 3 to 8) (size 9 to 14) (size 15 to 20)
#    1.200    1.200    0.000    3.000    5.600    0.800 
#    0.000    0.000    0.000    4.800    0.000    0.000 
#    0.000    0.000    0.000    0.000    0.000    0.000 
#
# Total GULP energy -111471.056849 kJ/mol
# GULP energy per Si atom -5573.552842 kJ/mol
# Density = 2.559583 g / cm^3
# Si number density = 25.654222 Si / 1000 Ang^3
#
#
#
# Elastic Constant Matrix: (Units=GPa)
#
#
# Indices 1 2 3 4 5 6 
#
# 1 127.6673 -9.6322 24.8041 0.0000 -2.1496 0.0000
# 2 -9.6322 51.9549 7.2544 0.0000 -1.3825 0.0000
# 3 24.8041 7.2544 170.6971 0.0000 -44.5743 0.0000
# 4 0.0000 0.0000 0.0000 19.0469 0.0000 5.2263
# 5 -2.1496 -1.3825 -44.5743 0.0000 26.0897 0.0000
# 6 0.0000 0.0000 0.0000 5.2263 0.0000 26.4091
#
#
#
# Elastic Compliance Matrix: (Units=1/GPa)
#
#
# Indices 1 2 3 4 5 6 
#
# 1 0.008299 0.001742 -0.001945 0.000000 -0.002547 0.000000
# 2 0.001742 0.019735 -0.001411 0.000000 -0.001221 0.000000
# 3 -0.001945 -0.001411 0.011085 0.000000 0.018704 0.000000
# 4 0.000000 0.000000 0.000000 0.055517 0.000000 -0.010987
# 5 -0.002547 -0.001221 0.018704 0.000000 0.070010 0.000000
# 6 0.000000 0.000000 0.000000 -0.010987 0.000000 0.040040
#
#
# Mechanical properties :
#
#
# Convention : Reuss Voigt Hill
#
# Bulk Modulus (GPa) = 27.86091 43.90800 35.88445
# Shear Modulus (GPa) = 22.73993 36.16867 29.45430
#
# Velocity S-wave (km/s) = 2.98048 3.75887 3.39208
# Velocity P-wave (km/s) = 4.76740 5.99928 5.41846
#
# Compressibility (1/GPa) = 0.03589258
#
# Stress axis : x y z
#
# Youngs Moduli (GPa) = 120.49114 50.67141 90.21106
#
# Poissons Ratio (x) = -0.08829 0.17548
# Poissons Ratio (y) = -0.20995 0.12726
# Poissons Ratio (z) = 0.23438 0.07148
#
# Static dielectric constant tensor:
#      x y z
#    x 2.123120 0.000000 0.082370 
#    y 0.000000 1.995670 0.000000 
#    z 0.082370 0.000000 2.259400 
# 
# From -- ./inp_files/30428.got.cif
#   From: 2010.05.17/outbox.cif.g08.bks.cpg/sg15_16_cif.got.tgz:30428.got - 2010.06.03 18:47:42.
