data_PCOD9264278
_publ_section_title
;
Structure prediction by ZEFSAII (Michael W. Deem and Ramdas Pophale) SiO2 
 PCOD9264278
Probable space group: C 2/C
;
_chemical_formula_sum "Si O2"
_cell_formula_units_Z 56
_cell_length_a 14.829172
_cell_length_b 17.733979
_cell_length_c 15.144427
_cell_angle_alpha 90.000000
_cell_angle_beta 130.697276
_cell_angle_gamma 90.000000
_cell_volume 3019.533580
_symmetry_space_group_name_H-M "C 2/C"
_symmetry_group_IT_number 15
_symmetry_cell_setting 'monoclinic'
loop_
_space_group_symop_operation_xyz
x,y,z
-x,y,1/2-z
-x,-y,-z
x,-y,1/2+z
1/2+x,1/2+y,z
1/2-x,1/2+y,1/2-z
1/2-x,1/2-y,-z
1/2+x,1/2-y,1/2+z
loop_
_atom_site_type_symbol
_atom_site_label
_atom_site_fract_x
_atom_site_fract_y
_atom_site_fract_z
Si Si1 0.607557 0.319759 0.250937
Si Si2 0.904105 0.617857 0.761894
Si Si3 0.961310 0.442294 0.821909
Si Si4 0.529179 0.301342 0.500931
Si Si5 0.787043 0.227871 0.926398
Si Si6 0.766309 0.327716 0.744716
Si Si7 0.370002 0.858635 0.445485
O O1 0.500000 0.316528 0.250000
O O2 0.543147 0.346114 0.119880
O O3 0.663024 0.238133 0.262685
O O4 0.726638 0.363612 0.356440
O O5 0.924160 0.528419 0.782360
O O6 0.780728 0.652018 0.647485
O O7 0.909352 0.642345 0.867758
O O8 0.000000 0.645434 0.750000
O O9 0.849247 0.399577 0.791823
O O10 0.000000 0.412017 0.750000
O O11 0.067929 0.423836 0.958018
O O12 0.428080 0.281368 0.507105
O O13 0.640901 0.339940 0.617605
O O14 0.581342 0.223335 0.491499
O O15 0.751713 0.292491 0.832688
O O16 0.750000 0.250000 0.000000
#
# Coordination Sequence:
#
# PCOD9264278 Si02
#       7
#     8   8   8   8   8   8   8
#     4  10  20  32  57  87 116 157 199 254 304 361
#     4  11  23  40  61  91 123 164 208 264 320 367
#     4  11  24  39  59  92 126 164 205 255 322 385
#     4  10  19  35  57  86 119 150 207 255 307 362
#     4  11  21  37  63  89 123 160 215 264 312 367
#     4  10  21  36  57  87 122 157 208 253 315 375
#     4  11  20  39  60  88 123 159 209 258 313 380
#
# _framework density 18.545911
#
# number of rings (size 3 to 8) (size 9 to 14) (size 15 to 20)
#    0.000    1.429    7.143    1.714    2.000    1.143 
#    0.000    0.714    0.000    0.000    0.000    0.000 
#    0.000    0.000    0.000    0.000    0.000    0.000 
#
# Total GULP energy -156033.103098 kJ/mol
# GULP energy per Si atom -5572.610825 kJ/mol
# Density = 1.850370 g / cm^3
# Si number density = 18.545911 Si / 1000 Ang^3
#
#
#
# Elastic Constant Matrix: (Units=GPa)
#
#
# Indices 1 2 3 4 5 6 
#
# 1 125.6073 10.7302 77.4464 0.0000 2.1233 0.0000
# 2 10.7302 45.4684 40.4145 0.0000 4.4683 0.0000
# 3 77.4464 40.4145 142.1788 0.0000 24.0709 0.0000
# 4 0.0000 0.0000 0.0000 5.2569 0.0000 7.9063
# 5 2.1233 4.4683 24.0709 0.0000 37.0548 0.0000
# 6 0.0000 0.0000 0.0000 7.9063 0.0000 14.8908
#
#
#
# Elastic Compliance Matrix: (Units=1/GPa)
#
#
# Indices 1 2 3 4 5 6 
#
# 1 0.013254 0.004734 -0.009371 0.000000 0.004757 0.000000
# 2 0.004734 0.031268 -0.012115 0.000000 0.003828 0.000000
# 3 -0.009371 -0.012115 0.017127 0.000000 -0.009128 0.000000
# 4 0.000000 0.000000 0.000000 0.944218 0.000000 -0.501334
# 5 0.004757 0.003828 -0.009128 0.000000 0.032182 0.000000
# 6 0.000000 0.000000 0.000000 -0.501334 0.000000 0.333340
#
#
# Mechanical properties :
#
#
# Convention : Reuss Voigt Hill
#
# Bulk Modulus (GPa) = 35.52915 63.38185 49.45550
# Shear Modulus (GPa) = 3.53538 23.75140 13.64339
#
# Velocity S-wave (km/s) = 1.38218 3.58254 2.71524
# Velocity P-wave (km/s) = 4.66329 7.16677 6.04603
#
# Compressibility (1/GPa) = 0.02814590
#
# Stress axis : x y z
#
# Youngs Moduli (GPa) = 75.44765 31.98154 58.38875
#
# Poissons Ratio (x) = -0.15139 0.54714
# Poissons Ratio (y) = -0.35715 0.70735
# Poissons Ratio (z) = 0.70699 0.38744
#
# Static dielectric constant tensor:
#      x y z
#    x 1.673790 0.000000 -0.014710 
#    y 0.000000 1.660840 0.000000 
#    z -0.014710 0.000000 1.675440 
# 
# From -- ./inp_files/155231.got.cif
#   From: 2010.05.17/outbox.cif.g08.bks.cpg/sg15_78_cif.got.tgz:155231.got - 2010.06.03 18:47:42.
