data_PCOD9264867
_publ_section_title
;
Structure prediction by ZEFSAII (Michael W. Deem and Ramdas Pophale) SiO2 
 PCOD9264867
Probable space group: C 2/C
;
_chemical_formula_sum "Si O2"
_cell_formula_units_Z 36
_cell_length_a 11.753270
_cell_length_b 8.595379
_cell_length_c 20.294721
_cell_angle_alpha 90.000000
_cell_angle_beta 132.980619
_cell_angle_gamma 90.000000
_cell_volume 1499.930852
_symmetry_space_group_name_H-M "C 2/C"
_symmetry_group_IT_number 15
_symmetry_cell_setting 'monoclinic'
loop_
_space_group_symop_operation_xyz
x,y,z
-x,y,1/2-z
-x,-y,-z
x,-y,1/2+z
1/2+x,1/2+y,z
1/2-x,1/2+y,1/2-z
1/2-x,1/2-y,-z
1/2+x,1/2-y,1/2+z
loop_
_atom_site_type_symbol
_atom_site_label
_atom_site_fract_x
_atom_site_fract_y
_atom_site_fract_z
Si Si1 0.000000 0.909237 0.250000
Si Si2 0.847823 0.631234 0.641688
Si Si3 0.925196 0.669992 0.875484
Si Si4 0.242287 0.635312 0.201820
Si Si5 0.746356 0.713838 0.075113
O O1 0.104618 0.803290 0.337216
O O2 0.111045 0.022806 0.252973
O O3 0.739444 0.747828 0.639462
O O4 0.764396 0.468877 0.595888
O O5 0.000000 0.609292 0.750000
O O6 0.917233 0.703583 0.601781
O O7 0.897957 0.485946 0.851797
O O8 0.787162 0.765573 0.783499
O O9 0.898325 0.715516 0.940287
O O10 0.750000 0.750000 0.000000
#
# Coordination Sequence:
#
# PCOD9264867 Si02
#       5
#     4   8   8   8   8
#     4  10  20  40  64  88 124 162 202 262 302 360
#     4  10  19  39  63  88 120 161 203 255 305 360
#     4  10  20  35  61  89 122 160 204 249 316 354
#     4  10  19  35  66  94 116 160 213 251 305 375
#     4  11  24  40  61  93 127 162 209 253 303 372
#
# _framework density 24.001107999999999
#
# number of rings (size 3 to 8) (size 9 to 14) (size 15 to 20)
#    0.000    1.778    4.444    2.667    3.111    0.889 
#    0.000    5.556    0.000    0.000    0.000    0.000 
#    0.000    0.000    0.000    0.000    0.000    0.000 
#
# Total GULP energy -100758.496448 kJ/mol
# GULP energy per Si atom -5597.694247 kJ/mol
# Density = 2.394648 g / cm^3
# Si number density = 24.001108 Si / 1000 Ang^3
#
#
#
# Elastic Constant Matrix: (Units=GPa)
#
#
# Indices 1 2 3 4 5 6 
#
# 1 61.8516 39.5407 58.4995 0.0000 -43.6961 0.0000
# 2 39.5407 95.0749 56.9129 0.0000 -21.4428 0.0000
# 3 58.4995 56.9129 104.8966 0.0000 -26.2385 0.0000
# 4 0.0000 0.0000 0.0000 3.3271 0.0000 -9.6680
# 5 -43.6961 -21.4428 -26.2385 0.0000 43.3337 0.0000
# 6 0.0000 0.0000 0.0000 -9.6680 0.0000 36.4076
#
#
#
# Elastic Compliance Matrix: (Units=1/GPa)
#
#
# Indices 1 2 3 4 5 6 
#
# 1 0.161676 -0.005420 -0.055525 0.000000 0.126726 0.000000
# 2 -0.005420 0.016109 -0.005999 0.000000 -0.001127 0.000000
# 3 -0.055525 -0.005999 0.034184 0.000000 -0.038260 0.000000
# 4 0.000000 0.000000 0.000000 1.316170 0.000000 0.349509
# 5 0.126726 -0.001127 -0.038260 0.000000 0.127138 0.000000
# 6 0.000000 0.000000 0.000000 0.349509 0.000000 0.120279
#
#
# Mechanical properties :
#
#
# Convention : Reuss Voigt Hill
#
# Bulk Modulus (GPa) = 12.80745 63.52550 38.16647
# Shear Modulus (GPa) = 2.58335 23.73835 13.16085
#
# Velocity S-wave (km/s) = 1.03860 3.14833 2.34421
# Velocity P-wave (km/s) = 2.60500 6.30406 4.82324
#
# Compressibility (1/GPa) = 0.07807957
#
# Stress axis : x y z
#
# Youngs Moduli (GPa) = 6.18519 62.07536 29.25366
#
# Poissons Ratio (x) = 0.33647 1.62432
# Poissons Ratio (y) = 0.03353 0.17550
# Poissons Ratio (z) = 0.34343 0.37241
#
# Static dielectric constant tensor:
#      x y z
#    x 1.960810 0.000000 0.011090 
#    y 0.000000 1.899400 0.000000 
#    z 0.011090 0.000000 1.793030 
# 
# From -- ./inp_files/150342.got.cif
#   From: 2010.05.17/outbox.cif.g08.bks.cpg/sg15_76_cif.got.tgz:150342.got - 2010.06.03 18:47:42.
