data_PCOD9264012
_publ_section_title
;
Structure prediction by ZEFSAII (Michael W. Deem and Ramdas Pophale) SiO2 
 PCOD9264012
Probable space group: C 2/C
;
_chemical_formula_sum "Si O2"
_cell_formula_units_Z 64
_cell_length_a 8.670189
_cell_length_b 23.989487
_cell_length_c 21.584339
_cell_angle_alpha 90.000000
_cell_angle_beta 123.373106
_cell_angle_gamma 90.000000
_cell_volume 3749.125398
_symmetry_space_group_name_H-M "C 2/C"
_symmetry_group_IT_number 15
_symmetry_cell_setting 'monoclinic'
loop_
_space_group_symop_operation_xyz
x,y,z
-x,y,1/2-z
-x,-y,-z
x,-y,1/2+z
1/2+x,1/2+y,z
1/2-x,1/2+y,1/2-z
1/2-x,1/2-y,-z
1/2+x,1/2-y,1/2+z
loop_
_atom_site_type_symbol
_atom_site_label
_atom_site_fract_x
_atom_site_fract_y
_atom_site_fract_z
Si Si1 0.195148 0.677780 0.820484
Si Si2 0.939334 0.789174 0.166204
Si Si3 0.167204 0.548138 0.830608
Si Si4 0.951997 0.989681 0.061287
Si Si5 0.280136 0.883604 0.456972
Si Si6 0.852643 0.424344 0.026141
Si Si7 0.743102 0.701475 0.050007
Si Si8 0.689470 0.692661 0.517637
O O1 0.371400 0.706479 0.829850
O O2 0.212091 0.610899 0.817115
O O3 0.203595 0.690908 0.894109
O O4 0.000000 0.695345 0.750000
O O5 0.804883 0.838016 0.109847
O O6 0.845910 0.729543 0.130679
O O7 0.000000 0.797333 0.250000
O O8 0.347086 0.509347 0.862702
O O9 0.127142 0.556756 0.896245
O O10 0.000000 0.528631 0.750000
O O11 0.873403 0.928420 0.057583
O O12 0.786070 0.032402 0.037530
O O13 0.000000 0.000000 0.000000
O O14 0.450858 0.915282 0.463121
O O15 0.327527 0.850744 0.531283
O O16 0.754445 0.364115 0.000089
O O17 0.750000 0.750000 0.000000
O O18 0.529889 0.690195 0.019066
O O19 0.750000 0.750000 0.500000
#
# Coordination Sequence:
#
# PCOD9264012 Si02
#       8
#     8   8   8   8   8   8   8   8
#     4  10  20  33  51  80 116 143 181 230 286 333
#     4  11  23  34  54  86 116 148 184 234 289 335
#     4   9  18  34  53  80 113 146 179 230 292 334
#     4  10  19  36  56  82 110 143 184 234 278 331
#     4  11  20  36  56  82 114 149 187 239 281 332
#     4  10  22  32  57  86 109 144 193 235 280 328
#     4  10  19  35  53  76 112 146 187 224 277 336
#     4  11  20  35  55  82 111 149 188 232 278 335
#
# _framework density 17.070647000000001
#
# number of rings (size 3 to 8) (size 9 to 14) (size 15 to 20)
#    0.000    1.750    3.750    3.375    7.000    0.000 
#    0.000    0.000    0.000    6.750    0.000    4.375 
#    0.000    0.000    0.000    0.000    0.000    0.000 
#
# Total GULP energy -178231.460835 kJ/mol
# GULP energy per Si atom -5569.733151 kJ/mol
# Density = 1.703179 g / cm^3
# Si number density = 17.070647 Si / 1000 Ang^3
#
#
#
# Elastic Constant Matrix: (Units=GPa)
#
#
# Indices 1 2 3 4 5 6 
#
# 1 71.2351 21.3027 24.4790 0.0000 23.0425 0.0000
# 2 21.3027 59.9384 47.0552 0.0000 3.4762 0.0000
# 3 24.4790 47.0552 105.3912 0.0000 24.2724 0.0000
# 4 0.0000 0.0000 0.0000 286.1596 0.0000 202.9341
# 5 23.0425 3.4762 24.2724 0.0000 28.1338 0.0000
# 6 0.0000 0.0000 0.0000 202.9341 0.0000 169.7934
#
#
#
# Elastic Compliance Matrix: (Units=1/GPa)
#
#
# Indices 1 2 3 4 5 6 
#
# 1 0.022196 -0.009757 0.003881 0.000000 -0.020322 0.000000
# 2 -0.009757 0.031667 -0.015989 0.000000 0.017873 0.000000
# 3 0.003881 -0.015989 0.019971 0.000000 -0.018433 0.000000
# 4 0.000000 0.000000 0.000000 0.022927 0.000000 -0.027402
# 5 -0.020322 0.017873 -0.018433 0.000000 0.065883 0.000000
# 6 0.000000 0.000000 0.000000 -0.027402 0.000000 0.038640
#
#
# Mechanical properties :
#
#
# Convention : Reuss Voigt Hill
#
# Bulk Modulus (GPa) = 33.21740 46.91538 40.06639
# Shear Modulus (GPa) = 19.60417 106.39923 63.00170
#
# Velocity S-wave (km/s) = 3.39250 7.90342 6.08166
# Velocity P-wave (km/s) = 5.90309 10.52750 8.53448
#
# Compressibility (1/GPa) = 0.03010471
#
# Stress axis : x y z
#
# Youngs Moduli (GPa) = 45.05406 31.57859 50.07280
#
# Poissons Ratio (x) = 0.30811 -0.19434
# Poissons Ratio (y) = 0.43959 0.80060
# Poissons Ratio (z) = -0.17487 0.50490
#
# Static dielectric constant tensor:
#      x y z
#    x 1.593160 0.000000 0.025580 
#    y 0.000000 1.605830 0.000000 
#    z 0.025580 0.000000 1.566660 
# 
# From -- ./inp_files/233902.got.cif
#   From: 2010.05.17/outbox.cif.g08.bks.cpg/sg15_117_cif.got.tgz:233902.got - 2010.06.03 18:47:42.
