data_PCOD9264455
_publ_section_title
;
Structure prediction by ZEFSAII (Michael W. Deem and Ramdas Pophale) SiO2 
 PCOD9264455
Probable space group: C 2/C
;
_chemical_formula_sum "Si O2"
_cell_formula_units_Z 48
_cell_length_a 14.893979
_cell_length_b 31.607683
_cell_length_c 13.870464
_cell_angle_alpha 90.000000
_cell_angle_beta 158.635729
_cell_angle_gamma 90.000000
_cell_volume 2378.750708
_symmetry_space_group_name_H-M "C 2/C"
_symmetry_group_IT_number 15
_symmetry_cell_setting 'monoclinic'
loop_
_space_group_symop_operation_xyz
x,y,z
-x,y,1/2-z
-x,-y,-z
x,-y,1/2+z
1/2+x,1/2+y,z
1/2-x,1/2+y,1/2-z
1/2-x,1/2-y,-z
1/2+x,1/2-y,1/2+z
loop_
_atom_site_type_symbol
_atom_site_label
_atom_site_fract_x
_atom_site_fract_y
_atom_site_fract_z
Si Si1 0.999999 0.878024 0.952510
Si Si2 0.999983 0.064377 0.634421
Si Si3 0.000178 0.289361 0.859757
Si Si4 0.499992 0.083763 0.866033
Si Si5 0.000016 0.486704 0.866047
Si Si6 0.500183 0.303511 0.433123
O O1 0.750807 0.894212 0.653169
O O2 0.000017 0.896555 0.061396
O O3 0.249200 0.894205 0.151560
O O4 0.999961 0.827382 0.966004
O O5 0.000000 0.073970 0.750000
O O6 0.753025 0.037617 0.364242
O O7 0.246897 0.037604 0.858118
O O8 0.000000 0.273735 0.750000
O O9 0.753425 0.314827 0.632899
O O10 0.000247 0.247724 0.927382
O O11 0.247037 0.314810 0.126421
O O12 0.500000 0.084052 0.750000
O O13 0.499966 0.034964 0.901673
O O14 0.000000 0.489726 0.750000
#
# Coordination Sequence:
#
# PCOD9264455 Si02
#       6
#     8   8   8   8   8   8
#     4  12  24  37  58  89 115 147 187 235 299 336
#     4  10  21  35  53  83 121 152 180 225 286 351
#     4  10  19  35  59  84 115 160 195 213 254 326
#     4  11  24  42  61  80 106 146 202 254 288 325
#     4   9  19  37  56  76 108 152 197 235 276 338
#     4  10  20  34  52  84 117 145 185 226 261 327
#
# _framework density 20.178660000000001
#
# number of rings (size 3 to 8) (size 9 to 14) (size 15 to 20)
#    0.000    1.667    0.000    6.000    0.000    8.667 
#    0.000    1.667    0.000    0.000    0.000   46.667 
#    0.000    0.000    0.000    0.000    0.000    0.000 
#
# Total GULP energy -133915.961994 kJ/mol
# GULP energy per Si atom -5579.831750 kJ/mol
# Density = 2.013273 g / cm^3
# Si number density = 20.178660 Si / 1000 Ang^3
#
#
#
# Elastic Constant Matrix: (Units=GPa)
#
#
# Indices 1 2 3 4 5 6 
#
# 1 93.1958 39.4388 50.3133 0.0000 4.6276 -0.0001
# 2 39.4388 79.7138 41.7120 -0.0001 0.6962 0.0000
# 3 50.3133 41.7120 201.5243 0.0005 27.4625 0.0007
# 4 0.0000 -0.0001 0.0005 21.0219 0.0000 -23.1418
# 5 4.6276 0.6962 27.4625 0.0000 35.9973 -0.0001
# 6 -0.0001 0.0000 0.0007 -23.1418 -0.0001 99.6878
#
#
#
# Elastic Compliance Matrix: (Units=1/GPa)
#
#
# Indices 1 2 3 4 5 6 
#
# 1 0.014539 -0.005931 -0.002414 0.000000 0.000087 0.000000
# 2 -0.005931 0.016642 -0.002259 0.000000 0.002164 0.000000
# 3 -0.002414 -0.002259 0.006679 0.000000 -0.004741 0.000000
# 4 0.000000 0.000000 0.000000 0.063899 0.000000 0.014834
# 5 0.000087 0.002164 -0.004741 0.000000 0.031344 0.000000
# 6 0.000000 0.000000 0.000000 0.014834 0.000000 0.013475
#
#
# Mechanical properties :
#
#
# Convention : Reuss Voigt Hill
#
# Bulk Modulus (GPa) = 60.05216 70.81799 65.43508
# Shear Modulus (GPa) = 28.84584 47.53939 38.19261
#
# Velocity S-wave (km/s) = 3.78500 4.85905 4.35526
# Velocity P-wave (km/s) = 6.99475 8.16408 7.60193
#
# Compressibility (1/GPa) = 0.01665219
#
# Stress axis : x y z
#
# Youngs Moduli (GPa) = 68.78132 60.08828 149.73337
#
# Poissons Ratio (x) = 0.35636 0.36149
# Poissons Ratio (y) = 0.40792 0.33822
# Poissons Ratio (z) = 0.16605 0.13573
#
# Static dielectric constant tensor:
#      x y z
#    x 1.713770 0.000000 -0.010570 
#    y 0.000000 1.765210 0.000000 
#    z -0.010570 0.000000 1.677580 
# 
# From -- ./inp_files/157720.got.cif
#   From: 2010.05.17/outbox.cif.g08.bks.cpg/sg15_79_cif.got.tgz:157720.got - 2010.06.03 18:47:42.
