data_PCOD9264920
_publ_section_title
;
Structure prediction by ZEFSAII (Michael W. Deem and Ramdas Pophale) SiO2 
 PCOD9264920
Probable space group: C 2/C
;
_chemical_formula_sum "Si O2"
_cell_formula_units_Z 52
_cell_length_a 21.574432
_cell_length_b 11.014371
_cell_length_c 9.797989
_cell_angle_alpha 90.000000
_cell_angle_beta 94.403772
_cell_angle_gamma 90.000000
_cell_volume 2321.410555
_symmetry_space_group_name_H-M "C 2/C"
_symmetry_group_IT_number 15
_symmetry_cell_setting 'monoclinic'
loop_
_space_group_symop_operation_xyz
x,y,z
-x,y,1/2-z
-x,-y,-z
x,-y,1/2+z
1/2+x,1/2+y,z
1/2-x,1/2+y,1/2-z
1/2-x,1/2-y,-z
1/2+x,1/2-y,1/2+z
loop_
_atom_site_type_symbol
_atom_site_label
_atom_site_fract_x
_atom_site_fract_y
_atom_site_fract_z
Si Si1 0.399333 0.371560 0.177119
Si Si2 0.411810 0.543417 0.397453
Si Si3 0.574991 0.892264 0.763174
Si Si4 0.765633 0.889253 0.843614
Si Si5 0.000000 0.221685 0.250000
Si Si6 0.941631 0.583741 0.538685
Si Si7 0.251451 0.390131 0.151912
O O1 0.424081 0.415302 0.327059
O O2 0.408341 0.230348 0.157644
O O3 0.326186 0.392803 0.165190
O O4 0.428355 0.447769 0.058661
O O5 0.338332 0.574696 0.373809
O O6 0.448643 0.641242 0.315866
O O7 0.500000 0.895101 0.750000
O O8 0.594037 0.888888 0.607781
O O9 0.595618 0.006492 0.855337
O O10 0.765023 0.746621 0.799354
O O11 0.735351 0.989787 0.737560
O O12 0.734088 0.896034 0.988546
O O13 0.030988 0.304005 0.372996
O O14 0.000000 0.500000 0.500000
#
# Coordination Sequence:
#
# PCOD9264920 Si02
#       7
#     8   8   8   8   4   8   8
#     4  10  22  39  56  85 114 152 190 238 282 343
#     4  10  23  37  58  81 120 151 193 232 285 337
#     4  10  20  35  55  75 111 145 187 234 281 329
#     4   9  19  40  61  87 116 151 188 244 288 345
#     4  12  22  36  58  82 114 158 192 230 280 340
#     4  10  19  36  54  75 107 149 186 237 279 323
#     4   9  19  39  63  84 118 148 189 240 296 340
#
# _framework density 22.400172999999999
#
# number of rings (size 3 to 8) (size 9 to 14) (size 15 to 20)
#    0.000    2.154    2.308    1.846    3.231    1.231 
#    2.769    1.538    0.000    0.000    0.000    0.000 
#    0.000    0.000    0.000    0.000    0.000    0.000 
#
# Total GULP energy -145110.337191 kJ/mol
# GULP energy per Si atom -5581.166815 kJ/mol
# Density = 2.234919 g / cm^3
# Si number density = 22.400173 Si / 1000 Ang^3
#
#
#
# Elastic Constant Matrix: (Units=GPa)
#
#
# Indices 1 2 3 4 5 6 
#
# 1 40.9329 -4.1605 9.6159 0.0000 -1.2678 0.0000
# 2 -4.1605 113.9176 37.3734 0.0000 -2.9119 0.0000
# 3 9.6159 37.3734 101.2196 0.0000 1.4536 0.0000
# 4 0.0000 0.0000 0.0000 38.5063 0.0000 13.8102
# 5 -1.2678 -2.9119 1.4536 0.0000 13.3739 0.0000
# 6 0.0000 0.0000 0.0000 13.8102 0.0000 4.5510
#
#
#
# Elastic Compliance Matrix: (Units=1/GPa)
#
#
# Indices 1 2 3 4 5 6 
#
# 1 0.025501 0.002075 -0.003235 0.000000 0.003221 0.000000
# 2 0.002075 0.010247 -0.004022 0.000000 0.002865 0.000000
# 3 -0.003235 -0.004022 0.011707 0.000000 -0.002455 0.000000
# 4 0.000000 0.000000 0.000000 -0.294047 0.000000 0.892289
# 5 0.003221 0.002865 -0.002455 0.000000 0.075968 0.000000
# 6 0.000000 0.000000 0.000000 0.892289 0.000000 -2.487931
#
#
# Mechanical properties :
#
#
# Convention : Reuss Voigt Hill
#
# Bulk Modulus (GPa) = 26.96054 37.96974 32.46514
# Shear Modulus (GPa) = -1.89694 25.50233 11.80269
#
# Velocity S-wave (km/s) = -0.92124 3.37781 2.29792
# Velocity P-wave (km/s) = 3.30612 5.67453 4.64385
#
# Compressibility (1/GPa) = 0.03709124
#
# Stress axis : x y z
#
# Youngs Moduli (GPa) = 39.21433 97.59245 85.41882
#
# Poissons Ratio (x) = -0.20250 0.27633
# Poissons Ratio (y) = -0.08137 0.34353
# Poissons Ratio (z) = 0.12686 0.39248
#
# Static dielectric constant tensor:
#      x y z
#    x 1.831560 0.000000 0.010900 
#    y 0.000000 1.751040 0.000000 
#    z 0.010900 0.000000 1.894330 
# 
# From -- ./inp_files/65166.got.cif
#   From: 2010.05.17/outbox.cif.g08.bks.cpg/sg15_33_cif.got.tgz:65166.got - 2010.06.03 18:47:42.
