data_PCOD9264758
_publ_section_title
;
Structure prediction by ZEFSAII (Michael W. Deem and Ramdas Pophale) SiO2 
 PCOD9264758
Probable space group: C 2/C
;
_chemical_formula_sum "Si O2"
_cell_formula_units_Z 32
_cell_length_a 15.091241
_cell_length_b 11.513643
_cell_length_c 12.409956
_cell_angle_alpha 90.000000
_cell_angle_beta 38.984783
_cell_angle_gamma 90.000000
_cell_volume 1356.554618
_symmetry_space_group_name_H-M "C 2/C"
_symmetry_group_IT_number 15
_symmetry_cell_setting 'monoclinic'
loop_
_space_group_symop_operation_xyz
x,y,z
-x,y,1/2-z
-x,-y,-z
x,-y,1/2+z
1/2+x,1/2+y,z
1/2-x,1/2+y,1/2-z
1/2-x,1/2-y,-z
1/2+x,1/2-y,1/2+z
loop_
_atom_site_type_symbol
_atom_site_label
_atom_site_fract_x
_atom_site_fract_y
_atom_site_fract_z
Si Si1 0.155743 0.003644 0.148106
Si Si2 0.565197 0.254233 0.796015
Si Si3 0.344185 0.154728 0.348781
Si Si4 0.183305 0.178801 0.814051
O O1 0.170884 0.926846 0.241721
O O2 0.000000 0.978896 0.250000
O O3 0.267402 0.963480 0.953288
O O4 0.164020 0.139252 0.164414
O O5 0.500000 0.199548 0.750000
O O6 0.440628 0.315911 0.981505
O O7 0.500000 0.157045 0.250000
O O8 0.337097 0.176905 0.721425
O O9 0.336700 0.200954 0.234649
O O10 0.250000 0.250000 0.500000
#
# Coordination Sequence:
#
# PCOD9264758 Si02
#       4
#     8   8   8   8
#     4  10  21  40  65  95 125 163 212 263 314 375
#     4  11  24  40  60  91 129 169 208 257 315 376
#     4  10  19  35  62  96 125 157 207 265 311 363
#     4  11  20  39  65  90 123 169 211 255 313 378
#
# _framework density 23.589172999999999
#
# number of rings (size 3 to 8) (size 9 to 14) (size 15 to 20)
#    0.000    1.500    0.000    9.000    0.000    2.000 
#    0.000   11.250    0.000    1.500    0.000    0.000 
#    0.000    0.000    0.000    0.000    0.000    0.000 
#
# Total GULP energy -89589.367787 kJ/mol
# GULP energy per Si atom -5599.335487 kJ/mol
# Density = 2.353548 g / cm^3
# Si number density = 23.589173 Si / 1000 Ang^3
#
#
#
# Elastic Constant Matrix: (Units=GPa)
#
#
# Indices 1 2 3 4 5 6 
#
# 1 199.5159 29.2991 17.5036 0.0000 2.0893 0.0000
# 2 29.2991 40.4179 17.8605 0.0000 2.8652 0.0000
# 3 17.5036 17.8605 69.5037 0.0000 -3.1020 0.0000
# 4 0.0000 0.0000 0.0000 41.3290 0.0000 -3.7929
# 5 2.0893 2.8652 -3.1020 0.0000 44.0384 0.0000
# 6 0.0000 0.0000 0.0000 -3.7929 0.0000 31.1328
#
#
#
# Elastic Compliance Matrix: (Units=1/GPa)
#
#
# Indices 1 2 3 4 5 6 
#
# 1 0.005620 -0.003886 -0.000419 0.000000 -0.000043 0.000000
# 2 -0.003886 0.030838 -0.007049 0.000000 -0.002319 0.000000
# 3 -0.000419 -0.007049 0.016377 0.000000 0.001632 0.000000
# 4 0.000000 0.000000 0.000000 0.024470 0.000000 0.002981
# 5 -0.000043 -0.002319 0.001632 0.000000 0.022975 0.000000
# 6 0.000000 0.000000 0.000000 0.002981 0.000000 0.032484
#
#
# Mechanical properties :
#
#
# Convention : Reuss Voigt Hill
#
# Bulk Modulus (GPa) = 33.19223 48.75154 40.97189
# Shear Modulus (GPa) = 30.20888 39.61831 34.91359
#
# Velocity S-wave (km/s) = 3.58246 4.10263 3.85134
# Velocity P-wave (km/s) = 5.58691 6.56916 6.09785
#
# Compressibility (1/GPa) = 0.03012753
#
# Stress axis : x y z
#
# Youngs Moduli (GPa) = 177.93719 32.42769 61.05945
#
# Poissons Ratio (x) = 0.12601 0.02557
# Poissons Ratio (y) = 0.69144 0.43043
# Poissons Ratio (z) = 0.07450 0.22859
#
# Static dielectric constant tensor:
#      x y z
#    x 1.891810 0.000000 0.088470 
#    y 0.000000 1.935080 0.000000 
#    z 0.088470 0.000000 2.060660 
# 
# From -- ./inp_files/104427.got.cif
#   From: 2010.05.17/outbox.cif.g08.bks.cpg/sg15_53_cif.got.tgz:104427.got - 2010.06.03 18:47:42.
