data_PCOD9264293
_publ_section_title
;
Structure prediction by ZEFSAII (Michael W. Deem and Ramdas Pophale) SiO2 
 PCOD9264293
Probable space group: C 2/C
;
_chemical_formula_sum "Si O2"
_cell_formula_units_Z 48
_cell_length_a 22.001027
_cell_length_b 8.899875
_cell_length_c 17.212677
_cell_angle_alpha 90.000000
_cell_angle_beta 144.185779
_cell_angle_gamma 90.000000
_cell_volume 1972.191777
_symmetry_space_group_name_H-M "C 2/C"
_symmetry_group_IT_number 15
_symmetry_cell_setting 'monoclinic'
loop_
_space_group_symop_operation_xyz
x,y,z
-x,y,1/2-z
-x,-y,-z
x,-y,1/2+z
1/2+x,1/2+y,z
1/2-x,1/2+y,1/2-z
1/2-x,1/2-y,-z
1/2+x,1/2-y,1/2+z
loop_
_atom_site_type_symbol
_atom_site_label
_atom_site_fract_x
_atom_site_fract_y
_atom_site_fract_z
Si Si1 0.470132 0.686110 0.533495
Si Si2 0.175804 0.570929 0.397476
Si Si3 0.471663 0.010596 0.115733
Si Si4 0.836237 0.900175 0.178925
Si Si5 0.126295 0.739824 0.071836
Si Si6 0.268780 0.509382 0.280274
O O1 0.463038 0.864358 0.540262
O O2 0.540727 0.613037 0.675244
O O3 0.536068 0.670661 0.522529
O O4 0.359396 0.614005 0.407727
O O5 0.097724 0.591842 0.389955
O O6 0.194101 0.726715 0.370919
O O7 0.283059 0.518456 0.549388
O O8 0.093046 0.480902 0.259434
O O9 0.418315 0.851288 0.045615
O O10 0.789426 0.963349 0.211057
O O11 0.167893 0.610668 0.172563
O O12 0.220499 0.856231 0.159936
#
# Coordination Sequence:
#
# PCOD9264293 Si02
#       6
#     8   8   8   8   8   8
#     4  10  22  36  60  90 119 152 196 254 304 358
#     4   9  18  32  57  83 113 157 200 236 281 352
#     4  10  19  35  57  88 113 155 203 243 293 352
#     4   9  17  34  55  85 111 149 199 244 277 350
#     4  11  21  36  57  87 120 153 193 248 302 360
#     4  11  22  37  61  89 120 156 196 251 311 349
#
# _framework density 24.338403
#
# number of rings (size 3 to 8) (size 9 to 14) (size 15 to 20)
#    0.000    2.000    1.667    3.500    2.333    0.000 
#    0.000    0.000    0.000   16.000    0.000    0.000 
#    0.000    0.000    0.000    0.000    0.000    0.000 
#
# Total GULP energy -133790.923240 kJ/mol
# GULP energy per Si atom -5574.621802 kJ/mol
# Density = 2.428301 g / cm^3
# Si number density = 24.338403 Si / 1000 Ang^3
#
#
#
# Elastic Constant Matrix: (Units=GPa)
#
#
# Indices 1 2 3 4 5 6 
#
# 1 50.7397 15.1396 3.3357 0.0000 0.7039 0.0000
# 2 15.1396 75.6273 49.2048 0.0000 5.3858 0.0000
# 3 3.3357 49.2048 169.2833 0.0000 0.6653 0.0000
# 4 0.0000 0.0000 0.0000 34.3537 0.0000 12.6479
# 5 0.7039 5.3858 0.6653 0.0000 18.9866 0.0000
# 6 0.0000 0.0000 0.0000 12.6479 0.0000 23.1262
#
#
#
# Elastic Compliance Matrix: (Units=1/GPa)
#
#
# Indices 1 2 3 4 5 6 
#
# 1 0.021103 -0.004925 0.001013 0.000000 0.000579 0.000000
# 2 -0.004925 0.017843 -0.005071 0.000000 -0.004701 0.000000
# 3 0.001013 -0.005071 0.007357 0.000000 0.001143 0.000000
# 4 0.000000 0.000000 0.000000 0.036448 0.000000 -0.019934
# 5 0.000579 -0.004701 0.001143 0.000000 0.053941 0.000000
# 6 0.000000 0.000000 0.000000 -0.019934 0.000000 0.054143
#
#
# Mechanical properties :
#
#
# Convention : Reuss Voigt Hill
#
# Bulk Modulus (GPa) = 35.28869 47.89004 41.58936
# Shear Modulus (GPa) = 22.91006 30.49132 26.70069
#
# Velocity S-wave (km/s) = 3.07141 3.54334 3.31578
# Velocity P-wave (km/s) = 5.20661 6.03820 5.63775
#
# Compressibility (1/GPa) = 0.02833769
#
# Stress axis : x y z
#
# Youngs Moduli (GPa) = 47.38582 56.04563 135.93110
#
# Poissons Ratio (x) = 0.27604 -0.13776
# Poissons Ratio (y) = 0.23339 0.68927
# Poissons Ratio (z) = -0.04803 0.28419
#
# Static dielectric constant tensor:
#      x y z
#    x 1.954640 0.000000 -0.020710 
#    y 0.000000 1.955880 0.000000 
#    z -0.020710 0.000000 2.062090 
# 
# From -- ./inp_files/258771.got.cif
#   From: 2010.05.17/outbox.cif.g08.bks.cpg/sg15_130_cif.got.tgz:258771.got - 2010.06.03 18:47:42.
