data_PCOD9264735
_publ_section_title
;
Structure prediction by ZEFSAII (Michael W. Deem and Ramdas Pophale) SiO2 
 PCOD9264735
Probable space group: C 2/C
;
_chemical_formula_sum "Si O2"
_cell_formula_units_Z 56
_cell_length_a 14.450184
_cell_length_b 22.570840
_cell_length_c 9.596779
_cell_angle_alpha 90.000000
_cell_angle_beta 115.319989
_cell_angle_gamma 90.000000
_cell_volume 2829.326238
_symmetry_space_group_name_H-M "C 2/C"
_symmetry_group_IT_number 15
_symmetry_cell_setting 'monoclinic'
loop_
_space_group_symop_operation_xyz
x,y,z
-x,y,1/2-z
-x,-y,-z
x,-y,1/2+z
1/2+x,1/2+y,z
1/2-x,1/2+y,1/2-z
1/2-x,1/2-y,-z
1/2+x,1/2-y,1/2+z
loop_
_atom_site_type_symbol
_atom_site_label
_atom_site_fract_x
_atom_site_fract_y
_atom_site_fract_z
Si Si1 0.316571 0.189431 0.405860
Si Si2 0.163350 0.893424 0.323839
Si Si3 0.500000 0.710241 0.750000
Si Si4 0.761626 0.684324 0.681696
Si Si5 0.224352 0.579843 0.320152
Si Si6 0.500000 0.912416 0.750000
Si Si7 0.928028 0.984068 0.822644
Si Si8 0.539499 0.811508 0.001825
O O1 0.296492 0.253773 0.327739
O O2 0.259349 0.181080 0.513906
O O3 0.290142 0.139109 0.279171
O O4 0.435111 0.184707 0.519770
O O5 0.093249 0.835897 0.300151
O O6 0.218352 0.876227 0.216081
O O7 0.236294 0.902619 0.501889
O O8 0.104473 0.954169 0.267161
O O9 0.472251 0.754012 0.604803
O O10 0.867414 0.691822 0.832726
O O11 0.105846 0.555542 0.264464
O O12 0.320429 0.545303 0.307770
O O13 0.461723 0.868364 0.601896
O O14 0.000000 0.952430 0.750000
O O15 0.000000 0.000000 0.000000
#
# Coordination Sequence:
#
# PCOD9264735 Si02
#       8
#     8   8   4   8   8   4   8   8
#     4  10  23  38  58  94 132 170 205 270 325 391
#     4  12  23  41  68  94 124 171 221 268 321 395
#     4  11  20  34  62  98 122 166 221 260 318 392
#     4  11  22  37  60  93 132 165 212 261 329 387
#     4  11  23  44  67  94 130 171 225 267 327 384
#     4   9  20  38  66  94 122 168 215 268 304 386
#     4  12  26  46  70  98 131 169 219 281 333 386
#     4  10  19  35  62  90 130 167 208 258 320 386
#
# _framework density 19.792698000000001
#
# number of rings (size 3 to 8) (size 9 to 14) (size 15 to 20)
#    0.000    1.143    5.000    1.286    2.000    1.143 
#    0.000    0.714    3.143    0.000    0.000    0.000 
#    0.000    0.000    0.000    0.000    0.000    0.000 
#
# Total GULP energy -155938.537599 kJ/mol
# GULP energy per Si atom -5569.233486 kJ/mol
# Density = 1.974765 g / cm^3
# Si number density = 19.792698 Si / 1000 Ang^3
#
#
#
# Elastic Constant Matrix: (Units=GPa)
#
#
# Indices 1 2 3 4 5 6 
#
# 1 120.7308 29.0071 15.9197 0.0000 9.4317 0.0000
# 2 29.0071 24.2972 -4.9564 0.0000 -5.0050 0.0000
# 3 15.9197 -4.9564 80.5106 0.0000 7.6314 0.0000
# 4 0.0000 0.0000 0.0000 25.7505 0.0000 1.0248
# 5 9.4317 -5.0050 7.6314 0.0000 32.1430 0.0000
# 6 0.0000 0.0000 0.0000 1.0248 0.0000 34.4981
#
#
#
# Elastic Compliance Matrix: (Units=1/GPa)
#
#
# Indices 1 2 3 4 5 6 
#
# 1 0.013503 -0.018012 -0.003210 0.000000 -0.006005 0.000000
# 2 -0.018012 0.066876 0.006333 0.000000 0.014195 0.000000
# 3 -0.003210 0.006333 0.013568 0.000000 -0.001293 0.000000
# 4 0.000000 0.000000 0.000000 0.038880 0.000000 -0.001155
# 5 -0.006005 0.014195 -0.001293 0.000000 0.035390 0.000000
# 6 0.000000 0.000000 0.000000 -0.001155 0.000000 0.029021
#
#
# Mechanical properties :
#
#
# Convention : Reuss Voigt Hill
#
# Bulk Modulus (GPa) = 15.58360 33.94213 24.76286
# Shear Modulus (GPa) = 20.12840 30.84955 25.48897
#
# Velocity S-wave (km/s) = 3.19244 3.95224 3.59248
# Velocity P-wave (km/s) = 4.63459 6.16546 5.45401
#
# Compressibility (1/GPa) = 0.06417003
#
# Stress axis : x y z
#
# Youngs Moduli (GPa) = 74.05889 14.95303 73.70359
#
# Poissons Ratio (x) = 0.26933 0.23656
# Poissons Ratio (y) = 1.33393 -0.46677
# Poissons Ratio (z) = 0.23770 -0.09470
#
# Static dielectric constant tensor:
#      x y z
#    x 1.869920 0.000000 -0.009840 
#    y 0.000000 1.667490 0.000000 
#    z -0.009840 0.000000 1.672060 
# 
# From -- ./inp_files/42784.got.cif
#   From: 2010.05.17/outbox.cif.g08.bks.cpg/sg15_22_cif.got.tgz:42784.got - 2010.06.03 18:47:42.
