data_PCOD9264264
_publ_section_title
;
Structure prediction by ZEFSAII (Michael W. Deem and Ramdas Pophale) SiO2 
 PCOD9264264
Probable space group: C 2/C
;
_chemical_formula_sum "Si O2"
_cell_formula_units_Z 64
_cell_length_a 12.411292
_cell_length_b 12.218464
_cell_length_c 17.783779
_cell_angle_alpha 90.000000
_cell_angle_beta 104.058785
_cell_angle_gamma 90.000000
_cell_volume 2616.076497
_symmetry_space_group_name_H-M "C 2/C"
_symmetry_group_IT_number 15
_symmetry_cell_setting 'monoclinic'
loop_
_space_group_symop_operation_xyz
x,y,z
-x,y,1/2-z
-x,-y,-z
x,-y,1/2+z
1/2+x,1/2+y,z
1/2-x,1/2+y,1/2-z
1/2-x,1/2-y,-z
1/2+x,1/2-y,1/2+z
loop_
_atom_site_type_symbol
_atom_site_label
_atom_site_fract_x
_atom_site_fract_y
_atom_site_fract_z
Si Si1 0.595034 0.710579 0.667941
Si Si2 0.167680 0.751365 0.734894
Si Si3 0.603931 0.053079 0.815403
Si Si4 0.017980 0.661625 0.582617
Si Si5 0.900482 0.303031 0.565253
Si Si6 0.172551 0.078276 0.019165
Si Si7 0.641601 0.520945 0.174891
Si Si8 0.850541 0.170346 0.000521
O O1 0.700114 0.753553 0.731556
O O2 0.491609 0.791924 0.645576
O O3 0.578993 0.586375 0.691892
O O4 0.626642 0.688512 0.584933
O O5 0.118027 0.680593 0.793690
O O6 0.124430 0.687050 0.653284
O O7 0.128995 0.875068 0.724709
O O8 0.500000 0.008813 0.750000
O O9 0.558085 0.067692 0.892401
O O10 0.725554 0.008185 0.813620
O O11 0.054946 0.641595 0.503627
O O12 0.948476 0.773380 0.563414
O O13 0.875479 0.175175 0.540152
O O14 0.788870 0.367204 0.564896
O O15 0.105900 0.054655 0.084497
O O16 0.177487 0.956081 0.986310
O O17 0.750000 0.250000 0.000000
#
# Coordination Sequence:
#
# PCOD9264264 Si02
#       8
#     8   8   8   8   8   8   8   8
#     4   9  21  36  58  85 117 152 202 243 295 361
#     4  10  19  35  57  85 114 153 193 245 288 353
#     4   9  20  37  56  85 117 153 198 243 289 355
#     4  10  19  36  63  84 118 154 200 242 296 348
#     4  10  21  38  59  91 121 160 193 254 304 364
#     4  10  21  36  60  88 123 154 202 246 310 360
#     4  10  19  35  61  83 115 160 194 241 302 354
#     4  10  20  37  60  91 117 157 201 255 295 354
#
# _framework density 24.464116000000001
#
# number of rings (size 3 to 8) (size 9 to 14) (size 15 to 20)
#    0.000    2.250    1.250    2.250    1.750    2.500 
#    0.000   14.375    0.000    0.000    0.000    0.000 
#    0.000    0.000    0.000    0.000    0.000    0.000 
#
# Total GULP energy -178732.425215 kJ/mol
# GULP energy per Si atom -5585.388288 kJ/mol
# Density = 2.440844 g / cm^3
# Si number density = 24.464116 Si / 1000 Ang^3
#
#
#
# Elastic Constant Matrix: (Units=GPa)
#
#
# Indices 1 2 3 4 5 6 
#
# 1 79.5875 12.9508 25.3854 0.0000 20.5251 0.0000
# 2 12.9508 102.3955 32.9531 0.0000 -16.9744 0.0000
# 3 25.3854 32.9531 76.2103 0.0000 24.5686 0.0000
# 4 0.0000 0.0000 0.0000 35.8511 0.0000 -4.2996
# 5 20.5251 -16.9744 24.5686 0.0000 44.0476 0.0000
# 6 0.0000 0.0000 0.0000 -4.2996 0.0000 22.4160
#
#
#
# Elastic Compliance Matrix: (Units=1/GPa)
#
#
# Indices 1 2 3 4 5 6 
#
# 1 0.015390 -0.002616 -0.001656 0.000000 -0.007256 0.000000
# 2 -0.002616 0.015356 -0.009838 0.000000 0.012624 0.000000
# 3 -0.001656 -0.009838 0.023044 0.000000 -0.015873 0.000000
# 4 0.000000 0.000000 0.000000 0.028550 0.000000 0.005476
# 5 -0.007256 0.012624 -0.015873 0.000000 0.039802 0.000000
# 6 0.000000 0.000000 0.000000 0.005476 0.000000 0.045661
#
#
# Mechanical properties :
#
#
# Convention : Reuss Voigt Hill
#
# Bulk Modulus (GPa) = 39.10925 44.53022 41.81973
# Shear Modulus (GPa) = 24.44420 32.92320 28.68370
#
# Velocity S-wave (km/s) = 3.16442 3.67246 3.42787
# Velocity P-wave (km/s) = 5.41964 6.01867 5.72699
#
# Compressibility (1/GPa) = 0.02556940
#
# Stress axis : x y z
#
# Youngs Moduli (GPa) = 64.97733 65.12189 43.39484
#
# Poissons Ratio (x) = 0.17039 0.07185
# Poissons Ratio (y) = 0.17001 0.42692
# Poissons Ratio (z) = 0.10759 0.64067
#
# Static dielectric constant tensor:
#      x y z
#    x 2.054450 0.000000 0.031670 
#    y 0.000000 1.953820 0.000000 
#    z 0.031670 0.000000 1.986630 
# 
# From -- ./inp_files/243746.got.cif
#   From: 2010.05.17/outbox.cif.g08.bks.cpg/sg15_122_cif.got.tgz:243746.got - 2010.06.03 18:47:42.
