data_PCOD9264034
_publ_section_title
;
Structure prediction by ZEFSAII (Michael W. Deem and Ramdas Pophale) SiO2 
 PCOD9264034
Probable space group: C 2/C
;
_chemical_formula_sum "Si O2"
_cell_formula_units_Z 64
_cell_length_a 22.167778
_cell_length_b 18.349404
_cell_length_c 18.891459
_cell_angle_alpha 90.000000
_cell_angle_beta 27.607565
_cell_angle_gamma 90.000000
_cell_volume 3561.048403
_symmetry_space_group_name_H-M "C 2/C"
_symmetry_group_IT_number 15
_symmetry_cell_setting 'monoclinic'
loop_
_space_group_symop_operation_xyz
x,y,z
-x,y,1/2-z
-x,-y,-z
x,-y,1/2+z
1/2+x,1/2+y,z
1/2-x,1/2+y,1/2-z
1/2-x,1/2-y,-z
1/2+x,1/2-y,1/2+z
loop_
_atom_site_type_symbol
_atom_site_label
_atom_site_fract_x
_atom_site_fract_y
_atom_site_fract_z
Si Si1 0.341492 0.895510 0.346311
Si Si2 0.059922 0.744366 0.800405
Si Si3 0.826583 0.478492 0.504856
Si Si4 0.315652 0.431442 0.646442
Si Si5 0.920784 0.017756 0.668031
Si Si6 0.795068 0.674615 0.124441
Si Si7 0.541332 0.601608 0.134402
Si Si8 0.057866 0.501935 0.361024
O O1 0.399301 0.816334 0.299074
O O2 0.355460 0.954295 0.394510
O O3 0.192450 0.888243 0.483556
O O4 0.407373 0.922950 0.205760
O O5 0.187491 0.766590 0.712381
O O6 0.024010 0.820383 0.802329
O O7 0.935076 0.714314 0.973779
O O8 0.694867 0.524394 0.654585
O O9 0.803252 0.398009 0.565392
O O10 0.941800 0.520484 0.426655
O O11 0.345602 0.495399 0.673894
O O12 0.461694 0.424305 0.462075
O O13 0.258104 0.361958 0.747992
O O14 0.196561 0.456536 0.719879
O O15 0.997764 0.945589 0.613436
O O16 0.500000 0.562937 0.250000
O O17 0.000000 0.500000 0.500000
#
# Coordination Sequence:
#
# PCOD9264034 Si02
#       8
#     8   8   8   8   8   8   8   8
#     4  12  24  35  53  76 114 151 192 233 277 325
#     4  12  23  35  50  74 113 158 191 235 256 326
#     4  11  22  37  51  79 106 143 196 234 276 320
#     4  10  20  36  54  73  98 138 195 243 279 324
#     4  10  19  35  54  71 100 135 191 238 278 323
#     4  11  22  36  51  76 108 148 200 229 272 320
#     4  12  22  33  52  76 105 150 195 225 277 322
#     4  12  21  35  54  74 101 147 193 231 287 323
#
# _framework density 17.972235000000001
#
# number of rings (size 3 to 8) (size 9 to 14) (size 15 to 20)
#    0.000    0.750   10.000    0.375    1.750    1.000 
#    0.000    0.000    0.000    0.000    0.000    0.000 
#    0.000    0.000    0.000   63.000    4.250    0.000 
#
# Total GULP energy -178149.305466 kJ/mol
# GULP energy per Si atom -5567.165796 kJ/mol
# Density = 1.793133 g / cm^3
# Si number density = 17.972235 Si / 1000 Ang^3
#
#
#
# Elastic Constant Matrix: (Units=GPa)
#
#
# Indices 1 2 3 4 5 6 
#
# 1 89.7705 26.9363 42.3787 -0.0001 -19.2572 0.0000
# 2 26.9363 18.6010 16.8365 -0.0003 -0.7036 0.0001
# 3 42.3787 16.8365 106.2460 -0.0002 -29.3240 0.0002
# 4 -0.0001 -0.0003 -0.0002 21.4380 0.0002 -11.3420
# 5 -19.2572 -0.7036 -29.3240 0.0002 40.7094 -0.0001
# 6 0.0000 0.0001 0.0002 -11.3420 -0.0001 9.3707
#
#
#
# Elastic Compliance Matrix: (Units=1/GPa)
#
#
# Indices 1 2 3 4 5 6 
#
# 1 0.023689 -0.032392 -0.001719 0.000000 0.009407 0.000000
# 2 -0.032392 0.108991 -0.010061 0.000002 -0.020686 0.000001
# 3 -0.001719 -0.010061 0.014253 0.000000 0.009280 0.000000
# 4 0.000000 0.000002 0.000000 0.129703 -0.000001 0.156989
# 5 0.009407 -0.020686 0.009280 -0.000001 0.035342 0.000000
# 6 0.000000 0.000001 0.000000 0.156989 0.000000 0.296731
#
#
# Mechanical properties :
#
#
# Convention : Reuss Voigt Hill
#
# Bulk Modulus (GPa) = 17.06774 42.99116 30.02945
# Shear Modulus (GPa) = 6.97758 22.86802 14.92280
#
# Velocity S-wave (km/s) = 1.97252 3.57095 2.88466
# Velocity P-wave (km/s) = 3.83473 6.40118 5.27637
#
# Compressibility (1/GPa) = 0.05859007
#
# Stress axis : x y z
#
# Youngs Moduli (GPa) = 42.21454 9.17506 70.15853
#
# Poissons Ratio (x) = 0.29719 0.12062
# Poissons Ratio (y) = 1.36740 0.70584
# Poissons Ratio (z) = 0.07258 0.09231
#
# Static dielectric constant tensor:
#      x y z
#    x 1.768690 0.000000 -0.044530 
#    y 0.000000 1.596090 0.000000 
#    z -0.044530 0.000000 1.749350 
# 
# From -- ./inp_files/216479.got.cif
#   From: 2010.05.17/outbox.cif.g08.bks.cpg/sg15_109_cif.got.tgz:216479.got - 2010.06.03 18:47:42.
