data_PCOD9264258
_publ_section_title
;
Structure prediction by ZEFSAII (Michael W. Deem and Ramdas Pophale) SiO2 
 PCOD9264258
Probable space group: C 2/C
;
_chemical_formula_sum "Si O2"
_cell_formula_units_Z 48
_cell_length_a 12.432565
_cell_length_b 16.395715
_cell_length_c 14.160281
_cell_angle_alpha 90.000000
_cell_angle_beta 48.004205
_cell_angle_gamma 90.000000
_cell_volume 2145.186848
_symmetry_space_group_name_H-M "C 2/C"
_symmetry_group_IT_number 15
_symmetry_cell_setting 'monoclinic'
loop_
_space_group_symop_operation_xyz
x,y,z
-x,y,1/2-z
-x,-y,-z
x,-y,1/2+z
1/2+x,1/2+y,z
1/2-x,1/2+y,1/2-z
1/2-x,1/2-y,-z
1/2+x,1/2-y,1/2+z
loop_
_atom_site_type_symbol
_atom_site_label
_atom_site_fract_x
_atom_site_fract_y
_atom_site_fract_z
Si Si1 0.717784 0.130918 0.067128
Si Si2 0.769289 0.546005 0.934218
Si Si3 0.833540 0.117062 0.316763
Si Si4 0.031586 0.101139 0.450495
Si Si5 0.158964 0.803039 0.185786
Si Si6 0.220571 0.201025 0.869675
O O1 0.725057 0.156735 0.953559
O O2 0.656099 0.040854 0.120058
O O3 0.659114 0.206464 0.161264
O O4 0.883714 0.121266 0.004578
O O5 0.747851 0.562933 0.058030
O O6 0.606414 0.540957 0.981348
O O7 0.679403 0.870409 0.144765
O O8 0.773049 0.208256 0.354873
O O9 0.000000 0.116885 0.250000
O O10 0.847662 0.087308 0.200720
O O11 0.936165 0.184561 0.489034
O O12 0.198046 0.814655 0.271655
O O13 0.000000 0.834214 0.250000
#
# Coordination Sequence:
#
# PCOD9264258 Si02
#       6
#     8   8   8   8   8   8
#     4  11  21  37  56  81 112 145 186 227 272 329
#     4   9  21  33  55  84 110 136 182 232 274 312
#     4  10  19  35  57  84 110 146 179 227 277 324
#     4   9  19  33  58  82 108 143 178 232 276 323
#     4  11  22  37  58  78 113 152 183 218 274 335
#     4  10  20  36  56  82 113 140 183 230 272 326
#
# _framework density 22.375672000000002
#
# number of rings (size 3 to 8) (size 9 to 14) (size 15 to 20)
#    1.000    1.000    3.333    1.000    0.000    3.333 
#    0.000    0.833    0.000    1.000    0.000    0.000 
#    0.000    0.000    0.000    0.000    0.000    0.000 
#
# Total GULP energy -133628.337592 kJ/mol
# GULP energy per Si atom -5567.847400 kJ/mol
# Density = 2.232474 g / cm^3
# Si number density = 22.375672 Si / 1000 Ang^3
#
#
#
# Elastic Constant Matrix: (Units=GPa)
#
#
# Indices 1 2 3 4 5 6 
#
# 1 21.7520 9.5436 22.9613 0.0000 9.3731 0.0000
# 2 9.5436 69.2762 25.0762 0.0000 -0.4699 0.0000
# 3 22.9613 25.0762 104.7670 0.0000 33.2768 0.0000
# 4 0.0000 0.0000 0.0000 10.0801 0.0000 -6.2930
# 5 9.3731 -0.4699 33.2768 0.0000 34.1458 0.0000
# 6 0.0000 0.0000 0.0000 -6.2930 0.0000 2.1959
#
#
#
# Elastic Compliance Matrix: (Units=1/GPa)
#
#
# Indices 1 2 3 4 5 6 
#
# 1 0.061900 -0.004923 -0.010094 -0.000001 -0.007222 -0.000001
# 2 -0.004923 0.016987 -0.005055 0.000000 0.006512 0.000000
# 3 -0.010094 -0.005055 0.017538 0.000000 -0.014391 0.000000
# 4 -0.000001 0.000000 0.000000 -0.125709 0.000000 -0.360266
# 5 -0.007222 0.006512 -0.014391 0.000000 0.045383 0.000000
# 6 -0.000001 0.000000 0.000000 -0.360266 0.000000 -0.577070
#
#
# Mechanical properties :
#
#
# Convention : Reuss Voigt Hill
#
# Bulk Modulus (GPa) = 17.76793 34.55081 26.15937
# Shear Modulus (GPa) = -9.95884 18.49863 4.26989
#
# Velocity S-wave (km/s) = -2.11197 2.87841 1.38290
# Velocity P-wave (km/s) = 1.41801 5.14993 3.77707
#
# Compressibility (1/GPa) = 0.05628119
#
# Stress axis : x y z
#
# Youngs Moduli (GPa) = 16.15506 58.86780 57.01872
#
# Poissons Ratio (x) = 0.28978 0.57555
# Poissons Ratio (y) = 0.07952 0.28825
# Poissons Ratio (z) = 0.16307 0.29760
#
# Static dielectric constant tensor:
#      x y z
#    x 1.863140 0.000000 0.007500 
#    y 0.000000 1.940650 0.000000 
#    z 0.007500 0.000000 1.907110 
# 
# From -- ./inp_files/153272.got.cif
#   From: 2010.05.17/outbox.cif.g08.bks.cpg/sg15_77_cif.got.tgz:153272.got - 2010.06.03 18:47:42.
