data_PCOD9264626
_publ_section_title
;
Structure prediction by ZEFSAII (Michael W. Deem and Ramdas Pophale) SiO2 
 PCOD9264626
Probable space group: C 2/C
;
_chemical_formula_sum "Si O2"
_cell_formula_units_Z 56
_cell_length_a 28.740890
_cell_length_b 15.140512
_cell_length_c 12.084757
_cell_angle_alpha 90.000000
_cell_angle_beta 31.509565
_cell_angle_gamma 90.000000
_cell_volume 2748.413591
_symmetry_space_group_name_H-M "C 2/C"
_symmetry_group_IT_number 15
_symmetry_cell_setting 'monoclinic'
loop_
_space_group_symop_operation_xyz
x,y,z
-x,y,1/2-z
-x,-y,-z
x,-y,1/2+z
1/2+x,1/2+y,z
1/2-x,1/2+y,1/2-z
1/2-x,1/2-y,-z
1/2+x,1/2-y,1/2+z
loop_
_atom_site_type_symbol
_atom_site_label
_atom_site_fract_x
_atom_site_fract_y
_atom_site_fract_z
Si Si1 0.664475 0.183754 0.673715
Si Si2 0.091452 0.128112 0.626830
Si Si3 0.271460 0.088522 0.173151
Si Si4 0.521704 0.712747 0.968200
Si Si5 0.698331 0.238386 0.219970
Si Si6 0.436061 0.435626 0.771384
Si Si7 0.256804 0.886090 0.269138
O O1 0.750000 0.250000 0.500000
O O2 0.678644 0.122651 0.536654
O O3 0.567080 0.228652 0.863787
O O4 0.676163 0.133006 0.766431
O O5 0.168587 0.121190 0.379643
O O6 0.000000 0.129887 0.750000
O O7 0.095508 0.035460 0.683946
O O8 0.080250 0.205168 0.738135
O O9 0.299663 0.141932 0.226869
O O10 0.274240 0.982948 0.181765
O O11 0.485732 0.616082 0.074765
O O12 0.594054 0.739852 0.913419
O O13 0.748687 0.306926 0.198566
O O14 0.750000 0.250000 0.000000
O O15 0.500000 0.434706 0.750000
O O16 0.343697 0.386672 0.980113
#
# Coordination Sequence:
#
# PCOD9264626 Si02
#       7
#     8   8   8   8   8   8   8
#     4  12  24  43  70 100 135 182 231 275 338 410
#     4  10  22  36  58  98 136 167 213 281 357 409
#     4  11  25  44  67  98 139 180 226 283 339 406
#     4  12  23  39  67  94 133 176 224 279 345 398
#     4  12  25  44  68 101 136 181 229 283 345 405
#     4  10  19  35  60  97 128 163 210 278 350 411
#     4  11  25  43  69  98 137 181 229 278 342 405
#
# _framework density 20.375389999999999
#
# number of rings (size 3 to 8) (size 9 to 14) (size 15 to 20)
#    0.000    0.857    5.714    1.286    2.000    0.000 
#    0.000    0.714    3.143    0.000    0.000    0.000 
#    0.000    0.000    0.000    0.000    0.000    0.000 
#
# Total GULP energy -156163.113620 kJ/mol
# GULP energy per Si atom -5577.254058 kJ/mol
# Density = 2.032901 g / cm^3
# Si number density = 20.375390 Si / 1000 Ang^3
#
#
#
# Elastic Constant Matrix: (Units=GPa)
#
#
# Indices 1 2 3 4 5 6 
#
# 1 81.7801 29.9482 42.7525 0.0000 -2.2972 0.0000
# 2 29.9482 71.9518 31.1225 0.0000 1.7076 0.0000
# 3 42.7525 31.1225 90.2903 0.0000 0.0351 0.0000
# 4 0.0000 0.0000 0.0000 32.6498 0.0000 5.6289
# 5 -2.2972 1.7076 0.0351 0.0000 32.8811 0.0000
# 6 0.0000 0.0000 0.0000 5.6289 0.0000 23.6805
#
#
#
# Elastic Compliance Matrix: (Units=1/GPa)
#
#
# Indices 1 2 3 4 5 6 
#
# 1 0.017382 -0.004359 -0.006729 0.000000 0.001448 0.000000
# 2 -0.004359 0.017450 -0.003950 0.000000 -0.001207 0.000000
# 3 -0.006729 -0.003950 0.015623 0.000000 -0.000282 0.000000
# 4 0.000000 0.000000 0.000000 0.031937 0.000000 -0.007591
# 5 0.001448 -0.001207 -0.000282 0.000000 0.030577 0.000000
# 6 0.000000 0.000000 0.000000 -0.007591 0.000000 0.044033
#
#
# Mechanical properties :
#
#
# Convention : Reuss Voigt Hill
#
# Bulk Modulus (GPa) = 49.06899 50.18540 49.62720
# Shear Modulus (GPa) = 25.79027 27.18888 26.48957
#
# Velocity S-wave (km/s) = 3.56161 3.65690 3.60957
# Velocity P-wave (km/s) = 6.40688 6.52031 6.46385
#
# Compressibility (1/GPa) = 0.02037947
#
# Stress axis : x y z
#
# Youngs Moduli (GPa) = 57.52947 57.30698 64.00739
#
# Poissons Ratio (x) = 0.24980 0.43068
# Poissons Ratio (y) = 0.25077 0.25286
# Poissons Ratio (z) = 0.38710 0.22639
#
# Static dielectric constant tensor:
#      x y z
#    x 1.779730 0.000000 0.010330 
#    y 0.000000 1.786880 0.000000 
#    z 0.010330 0.000000 1.736770 
# 
# From -- ./inp_files/126962.got.cif
#   From: 2010.05.17/outbox.cif.g08.bks.cpg/sg15_64_cif.got.tgz:126962.got - 2010.06.03 18:47:42.
