data_PCOD9264312
_publ_section_title
;
Structure prediction by ZEFSAII (Michael W. Deem and Ramdas Pophale) SiO2 
 PCOD9264312
Probable space group: C 2/C
;
_chemical_formula_sum "Si O2"
_cell_formula_units_Z 56
_cell_length_a 17.543557
_cell_length_b 27.571825
_cell_length_c 5.683264
_cell_angle_alpha 90.000000
_cell_angle_beta 75.430605
_cell_angle_gamma 90.000000
_cell_volume 2660.640596
_symmetry_space_group_name_H-M "C 2/C"
_symmetry_group_IT_number 15
_symmetry_cell_setting 'monoclinic'
loop_
_space_group_symop_operation_xyz
x,y,z
-x,y,1/2-z
-x,-y,-z
x,-y,1/2+z
1/2+x,1/2+y,z
1/2-x,1/2+y,1/2-z
1/2-x,1/2-y,-z
1/2+x,1/2-y,1/2+z
loop_
_atom_site_type_symbol
_atom_site_label
_atom_site_fract_x
_atom_site_fract_y
_atom_site_fract_z
Si Si1 0.985640 0.707963 0.507891
Si Si2 0.289723 0.669381 0.508461
Si Si3 0.202890 0.498406 0.581959
Si Si4 0.909391 0.595681 0.328960
Si Si5 0.041515 0.185022 0.966016
Si Si6 0.148663 0.604280 0.622959
Si Si7 0.187992 0.250344 0.340250
O O1 0.899328 0.731036 0.550769
O O2 0.000000 0.684700 0.750000
O O3 0.042014 0.755878 0.470878
O O4 0.000000 0.681014 0.250000
O O5 0.368382 0.667266 0.600840
O O6 0.239749 0.620699 0.542023
O O7 0.225556 0.709132 0.640948
O O8 0.317567 0.695258 0.247672
O O9 0.247207 0.499798 0.297523
O O10 0.149509 0.450473 0.624194
O O11 0.146828 0.545853 0.625013
O O12 0.888999 0.620433 0.597803
O O13 0.000000 0.579500 0.250000
O O14 0.887822 0.621457 0.097126
O O15 0.000000 0.171503 0.750000
O O16 0.000000 0.170996 0.250000
O O17 0.250000 0.250000 0.500000
#
# Coordination Sequence:
#
# PCOD9264312 Si02
#       7
#     8   8   8   8   8   8   8
#     4  10  19  36  56  78  97 127 181 241 264 324
#     4  11  24  38  57  84 114 149 186 243 299 345
#     4   8  16  31  53  83 109 145 190 226 271 332
#     4  10  20  37  61  83 117 160 199 232 276 341
#     4  10  19  35  58  80 100 132 182 240 274 325
#     4  10  22  35  55  85 118 146 189 243 289 327
#     4  11  23  38  61  80 107 155 194 230 299 355
#
# _framework density 21.047563
#
# number of rings (size 3 to 8) (size 9 to 14) (size 15 to 20)
#    0.000    2.000    2.857    2.143    4.000    5.143 
#    0.000    2.143    0.000    0.000    0.000    0.000 
#    0.000   30.857    0.000    0.000    0.000    0.000 
#
# Total GULP energy -156100.366411 kJ/mol
# GULP energy per Si atom -5575.013086 kJ/mol
# Density = 2.099966 g / cm^3
# Si number density = 21.047563 Si / 1000 Ang^3
#
#
#
# Elastic Constant Matrix: (Units=GPa)
#
#
# Indices 1 2 3 4 5 6 
#
# 1 113.5311 19.5146 61.7462 0.0000 18.2195 0.0000
# 2 19.5146 39.7539 22.7545 0.0000 2.1802 0.0000
# 3 61.7462 22.7545 191.4959 0.0000 36.6721 0.0000
# 4 0.0000 0.0000 0.0000 15.8209 0.0000 4.3690
# 5 18.2195 2.1802 36.6721 0.0000 38.4151 0.0000
# 6 0.0000 0.0000 0.0000 4.3690 0.0000 5.6988
#
#
#
# Elastic Compliance Matrix: (Units=1/GPa)
#
#
# Indices 1 2 3 4 5 6 
#
# 1 0.011363 -0.003887 -0.002707 0.000000 -0.002584 0.000000
# 2 -0.003887 0.028430 -0.002654 0.000000 0.002764 0.000000
# 3 -0.002707 -0.002654 0.007508 0.000000 -0.005733 0.000000
# 4 0.000000 0.000000 0.000000 0.080184 0.000000 -0.061473
# 5 -0.002584 0.002764 -0.005733 0.000000 0.032573 0.000000
# 6 0.000000 0.000000 0.000000 -0.061473 0.000000 0.222603
#
#
# Mechanical properties :
#
#
# Convention : Reuss Voigt Hill
#
# Bulk Modulus (GPa) = 34.71565 61.42349 48.06957
# Shear Modulus (GPa) = 12.17255 28.03801 20.10528
#
# Velocity S-wave (km/s) = 2.40747 3.65379 3.09403
# Velocity P-wave (km/s) = 4.92520 6.85907 5.97095
#
# Compressibility (1/GPa) = 0.02880545
#
# Stress axis : x y z
#
# Youngs Moduli (GPa) = 88.00183 35.17364 133.18700
#
# Poissons Ratio (x) = 0.13671 0.36057
# Poissons Ratio (y) = 0.34205 0.35351
# Poissons Ratio (z) = 0.23824 0.09336
#
# Static dielectric constant tensor:
#      x y z
#    x 1.685150 0.000000 0.048170 
#    y 0.000000 1.815100 0.000000 
#    z 0.048170 0.000000 1.917840 
# 
# From -- ./inp_files/11494.got.cif
#   From: 2010.05.17/outbox.cif.g08.bks.cpg/sg15_6_cif.got.tgz:11494.got - 2010.06.03 18:47:42.
