data_PCOD9264729
_publ_section_title
;
Structure prediction by ZEFSAII (Michael W. Deem and Ramdas Pophale) SiO2 
 PCOD9264729
Probable space group: C 2/C
;
_chemical_formula_sum "Si O2"
_cell_formula_units_Z 56
_cell_length_a 17.508680
_cell_length_b 8.240298
_cell_length_c 27.769441
_cell_angle_alpha 90.000000
_cell_angle_beta 44.027772
_cell_angle_gamma 90.000000
_cell_volume 2784.534580
_symmetry_space_group_name_H-M "C 2/C"
_symmetry_group_IT_number 15
_symmetry_cell_setting 'monoclinic'
loop_
_space_group_symop_operation_xyz
x,y,z
-x,y,1/2-z
-x,-y,-z
x,-y,1/2+z
1/2+x,1/2+y,z
1/2-x,1/2+y,1/2-z
1/2-x,1/2-y,-z
1/2+x,1/2-y,1/2+z
loop_
_atom_site_type_symbol
_atom_site_label
_atom_site_fract_x
_atom_site_fract_y
_atom_site_fract_z
Si Si1 0.828897 0.153572 0.750099
Si Si2 0.882840 0.411999 0.550420
Si Si3 0.101328 0.354126 0.062062
Si Si4 0.618783 0.058825 0.342922
Si Si5 0.536723 0.492757 0.621248
Si Si6 0.814037 0.831792 0.367352
Si Si7 0.278247 0.596586 0.021422
O O1 0.850564 0.320377 0.713218
O O2 0.856531 0.171745 0.793854
O O3 0.704542 0.089698 0.804189
O O4 0.909252 0.025558 0.687324
O O5 0.882724 0.307913 0.501694
O O6 0.867015 0.349241 0.611951
O O7 0.789046 0.545747 0.584586
O O8 0.000000 0.500000 0.500000
O O9 0.066409 0.196634 0.107690
O O10 0.208691 0.443444 0.033940
O O11 0.003194 0.486703 0.107350
O O12 0.597298 0.592271 0.636400
O O13 0.593512 0.562507 0.546710
O O14 0.766761 0.659412 0.407293
O O15 0.250000 0.750000 0.000000
#
# Coordination Sequence:
#
# PCOD9264729 Si02
#       7
#     8   8   8   8   8   8   8
#     4  11  23  42  59  85 121 161 201 243 298 355
#     4   9  19  34  60  81 114 154 192 235 296 340
#     4  11  20  38  60  91 120 152 196 248 298 354
#     4  10  22  40  62  79 119 163 201 239 293 355
#     4  11  22  35  62  89 122 152 195 248 306 350
#     4  10  21  39  59  86 119 157 197 242 301 354
#     4  10  19  35  62  90 117 151 197 247 297 347
#
# _framework density 20.111080000000001
#
# number of rings (size 3 to 8) (size 9 to 14) (size 15 to 20)
#    0.000    1.714    2.857    3.429    2.000    0.000 
#    2.571    3.571    0.000    0.000    0.000    0.000 
#    0.000    0.000    0.000    0.000    0.000    0.000 
#
# Total GULP energy -156193.716647 kJ/mol
# GULP energy per Si atom -5578.347023 kJ/mol
# Density = 2.006531 g / cm^3
# Si number density = 20.111080 Si / 1000 Ang^3
#
#
#
# Elastic Constant Matrix: (Units=GPa)
#
#
# Indices 1 2 3 4 5 6 
#
# 1 46.5222 0.3846 24.8612 0.0001 2.6655 0.0007
# 2 0.3846 42.6840 15.9293 0.0002 27.0380 0.0016
# 3 24.8612 15.9293 100.0931 0.0000 12.3173 0.0002
# 4 0.0001 0.0002 0.0000 35.7313 0.0000 1.7566
# 5 2.6655 27.0380 12.3173 0.0000 34.4617 0.0002
# 6 0.0007 0.0016 0.0002 1.7566 0.0002 19.1389
#
#
#
# Elastic Compliance Matrix: (Units=1/GPa)
#
#
# Indices 1 2 3 4 5 6 
#
# 1 0.025104 0.003900 -0.006528 0.000000 -0.002669 -0.000001
# 2 0.003900 0.048089 -0.004123 0.000000 -0.036557 -0.000004
# 3 -0.006528 -0.004123 0.012351 0.000000 -0.000675 0.000000
# 4 0.000000 0.000000 0.000000 0.028114 0.000000 -0.002580
# 5 -0.002669 -0.036557 -0.000675 0.000000 0.058148 0.000002
# 6 -0.000001 -0.000004 0.000000 -0.002580 0.000002 0.052487
#
#
# Mechanical properties :
#
#
# Convention : Reuss Voigt Hill
#
# Bulk Modulus (GPa) = 13.88058 30.18328 22.03193
# Shear Modulus (GPa) = 19.09804 27.74133 23.41968
#
# Velocity S-wave (km/s) = 3.08495 3.71806 3.41620
# Velocity P-wave (km/s) = 4.42788 5.78557 5.15165
#
# Compressibility (1/GPa) = 0.07204310
#
# Stress axis : x y z
#
# Youngs Moduli (GPa) = 39.83412 20.79490 80.96339
#
# Poissons Ratio (x) = -0.08111 0.52850
# Poissons Ratio (y) = -0.15537 0.33382
# Poissons Ratio (z) = 0.26002 0.08574
#
# Static dielectric constant tensor:
#      x y z
#    x 1.763610 0.000000 -0.042290 
#    y 0.000000 1.721950 0.000000 
#    z -0.042290 0.000000 1.828070 
# 
# From -- ./inp_files/276507.got.cif
#   From: 2010.05.17/outbox.cif.g08.bks.cpg/sg15_139_cif.got.tgz:276507.got - 2010.06.03 18:47:42.
