data_PCOD9264957
_publ_section_title
;
Structure prediction by ZEFSAII (Michael W. Deem and Ramdas Pophale) SiO2 
 PCOD9264957
Probable space group: C 2/C
;
_chemical_formula_sum "Si O2"
_cell_formula_units_Z 64
_cell_length_a 12.683245
_cell_length_b 29.304212
_cell_length_c 8.824437
_cell_angle_alpha 90.000000
_cell_angle_beta 78.458324
_cell_angle_gamma 90.000000
_cell_volume 3213.481122
_symmetry_space_group_name_H-M "C 2/C"
_symmetry_group_IT_number 15
_symmetry_cell_setting 'monoclinic'
loop_
_space_group_symop_operation_xyz
x,y,z
-x,y,1/2-z
-x,-y,-z
x,-y,1/2+z
1/2+x,1/2+y,z
1/2-x,1/2+y,1/2-z
1/2-x,1/2-y,-z
1/2+x,1/2-y,1/2+z
loop_
_atom_site_type_symbol
_atom_site_label
_atom_site_fract_x
_atom_site_fract_y
_atom_site_fract_z
Si Si1 0.670301 0.812390 0.450537
Si Si2 0.194775 0.645282 0.640436
Si Si3 0.882448 0.030640 0.873958
Si Si4 0.934196 0.292797 0.544933
Si Si5 0.484845 0.400174 0.572838
Si Si6 0.702270 0.555471 0.912512
Si Si7 0.911636 0.809811 0.956534
Si Si8 0.216736 0.212227 0.301860
O O1 0.675028 0.851560 0.324514
O O2 0.551818 0.809623 0.557969
O O3 0.762013 0.815415 0.550521
O O4 0.689080 0.764049 0.357504
O O5 0.104962 0.674048 0.578403
O O6 0.205838 0.592970 0.580798
O O7 0.306376 0.672913 0.577997
O O8 0.801355 0.043036 0.762842
O O9 0.000000 0.021709 0.750000
O O10 0.902048 0.069312 0.998624
O O11 0.827210 0.988029 0.975709
O O12 0.946738 0.240579 0.489443
O O13 0.833081 0.290253 0.686334
O O14 0.500000 0.409129 0.750000
O O15 0.595825 0.415273 0.467305
O O16 0.493659 0.346072 0.547129
O O17 0.865790 0.806253 0.798992
#
# Coordination Sequence:
#
# PCOD9264957 Si02
#       8
#     8   8   8   8   8   8   8   8
#     4  11  21  34  57  80 109 155 197 248 290 329
#     4  10  20  36  54  80 111 149 199 238 281 346
#     4  10  19  36  55  80 113 152 195 237 305 376
#     4  11  20  38  56  77 116 163 196 241 288 340
#     4  10  20  30  50  81 110 154 198 228 275 360
#     4  10  20  35  57  77 112 152 180 247 303 348
#     4  10  20  35  50  74 119 159 194 235 279 335
#     4  10  21  36  51  79 112 153 204 242 281 337
#
# _framework density 19.916094999999999
#
# number of rings (size 3 to 8) (size 9 to 14) (size 15 to 20)
#    0.000    1.750    2.500    4.125    1.750    1.000 
#    2.250    2.500    0.000    0.000    0.000    3.500 
#    0.000    0.000    0.000    4.375    0.000    0.000 
#
# Total GULP energy -178248.884730 kJ/mol
# GULP energy per Si atom -5570.277648 kJ/mol
# Density = 1.987076 g / cm^3
# Si number density = 19.916095 Si / 1000 Ang^3
#
#
#
# Elastic Constant Matrix: (Units=GPa)
#
#
# Indices 1 2 3 4 5 6 
#
# 1 27.6313 30.3691 8.6465 0.0000 0.8175 0.0000
# 2 30.3691 124.5304 37.9857 0.0000 11.9324 0.0000
# 3 8.6465 37.9857 73.0242 0.0000 3.2121 0.0000
# 4 0.0000 0.0000 0.0000 39.7915 0.0000 -4.9431
# 5 0.8175 11.9324 3.2121 0.0000 22.1143 0.0000
# 6 0.0000 0.0000 0.0000 -4.9431 0.0000 12.7798
#
#
#
# Elastic Compliance Matrix: (Units=1/GPa)
#
#
# Indices 1 2 3 4 5 6 
#
# 1 0.049977 -0.012830 0.000537 0.000000 0.004998 0.000000
# 2 -0.012830 0.013296 -0.005135 0.000000 -0.005954 0.000000
# 3 0.000537 -0.005135 0.016285 0.000000 0.000386 0.000000
# 4 0.000000 0.000000 0.000000 0.026399 0.000000 0.010211
# 5 0.004998 -0.005954 0.000386 0.000000 0.048192 0.000000
# 6 0.000000 0.000000 0.000000 0.010211 0.000000 0.082198
#
#
# Mechanical properties :
#
#
# Convention : Reuss Voigt Hill
#
# Bulk Modulus (GPa) = 22.37146 42.13204 32.25175
# Shear Modulus (GPa) = 17.47617 24.81610 21.14614
#
# Velocity S-wave (km/s) = 2.96546 3.53375 3.26200
# Velocity P-wave (km/s) = 4.79401 6.15228 5.51512
#
# Compressibility (1/GPa) = 0.04469982
#
# Stress axis : x y z
#
# Youngs Moduli (GPa) = 20.00937 75.21059 61.40686
#
# Poissons Ratio (x) = 0.96497 -0.03296
# Poissons Ratio (y) = 0.25673 0.31534
# Poissons Ratio (z) = -0.01074 0.38622
#
# Static dielectric constant tensor:
#      x y z
#    x 1.680590 0.000000 -0.041860 
#    y 0.000000 1.799000 0.000000 
#    z -0.041860 0.000000 1.733330 
# 
# From -- ./inp_files/44267.got.cif
#   From: 2010.05.17/outbox.cif.g08.bks.cpg/sg15_23_cif.got.tgz:44267.got - 2010.06.03 18:47:42.
