data_PCOD9264368
_publ_section_title
;
Structure prediction by ZEFSAII (Michael W. Deem and Ramdas Pophale) SiO2 
 PCOD9264368
Probable space group: C 2/C
;
_chemical_formula_sum "Si O2"
_cell_formula_units_Z 48
_cell_length_a 11.654972
_cell_length_b 15.849888
_cell_length_c 11.784267
_cell_angle_alpha 90.000000
_cell_angle_beta 71.412360
_cell_angle_gamma 90.000000
_cell_volume 2063.354043
_symmetry_space_group_name_H-M "C 2/C"
_symmetry_group_IT_number 15
_symmetry_cell_setting 'monoclinic'
loop_
_space_group_symop_operation_xyz
x,y,z
-x,y,1/2-z
-x,-y,-z
x,-y,1/2+z
1/2+x,1/2+y,z
1/2-x,1/2+y,1/2-z
1/2-x,1/2-y,-z
1/2+x,1/2-y,1/2+z
loop_
_atom_site_type_symbol
_atom_site_label
_atom_site_fract_x
_atom_site_fract_y
_atom_site_fract_z
Si Si1 0.159613 0.740709 0.633621
Si Si2 0.583912 0.904299 0.023010
Si Si3 0.921380 0.920043 0.383030
Si Si4 0.146645 0.598411 0.029628
Si Si5 0.496109 0.392201 0.601170
Si Si6 0.229442 0.641783 0.247989
O O1 0.250000 0.750000 0.500000
O O2 0.115504 0.647102 0.626487
O O3 0.226331 0.765141 0.728214
O O4 0.061027 0.812324 0.635291
O O5 0.455559 0.866558 0.021597
O O6 0.664542 0.892567 0.882066
O O7 0.600567 0.001481 0.051144
O O8 0.780198 0.897369 0.433584
O O9 0.986358 0.878869 0.470601
O O10 0.000000 0.897321 0.250000
O O11 0.932463 0.021532 0.397567
O O12 0.155496 0.635595 0.154409
O O13 0.356923 0.405600 0.684002
#
# Coordination Sequence:
#
# PCOD9264368 Si02
#       6
#     8   8   8   8   8   8
#     4  10  20  37  59  85 118 157 199 245 300 357
#     4  10  21  39  62  92 124 156 201 250 305 365
#     4  10  19  35  58  85 120 158 202 251 297 350
#     4  10  21  38  62  92 123 159 202 247 302 364
#     4  10  20  35  58  86 115 158 208 248 294 353
#     4  10  20  38  62  86 122 166 202 246 299 355
#
# _framework density 23.263093000000001
#
# number of rings (size 3 to 8) (size 9 to 14) (size 15 to 20)
#    0.000    2.000    0.000    5.000    0.000    0.000 
#    0.000   18.333    0.000    2.000    0.000    0.000 
#    0.000    0.000    0.000    0.000    0.000    0.000 
#
# Total GULP energy -133985.710632 kJ/mol
# GULP energy per Si atom -5582.737943 kJ/mol
# Density = 2.321015 g / cm^3
# Si number density = 23.263093 Si / 1000 Ang^3
#
#
#
# Elastic Constant Matrix: (Units=GPa)
#
#
# Indices 1 2 3 4 5 6 
#
# 1 90.4965 1.4128 70.2189 0.0000 10.1747 0.0000
# 2 1.4128 32.7485 22.9082 0.0000 17.2807 0.0000
# 3 70.2189 22.9082 146.0348 0.0000 6.4748 0.0000
# 4 0.0000 0.0000 0.0000 28.2970 0.0000 10.5259
# 5 10.1747 17.2807 6.4748 0.0000 45.5565 0.0000
# 6 0.0000 0.0000 0.0000 10.5259 0.0000 17.2135
#
#
#
# Elastic Compliance Matrix: (Units=1/GPa)
#
#
# Indices 1 2 3 4 5 6 
#
# 1 0.020280 0.010561 -0.011100 0.000000 -0.006958 0.000000
# 2 0.010561 0.048398 -0.011826 0.000000 -0.019036 0.000000
# 3 -0.011100 -0.011826 0.013818 0.000000 0.005001 0.000000
# 4 0.000000 0.000000 0.000000 0.045745 0.000000 -0.027972
# 5 -0.006958 -0.019036 0.005001 0.000000 0.030015 0.000000
# 6 0.000000 0.000000 0.000000 -0.027972 0.000000 0.075199
#
#
# Mechanical properties :
#
#
# Convention : Reuss Voigt Hill
#
# Bulk Modulus (GPa) = 17.31105 50.92884 34.11995
# Shear Modulus (GPa) = 18.02195 29.86273 23.94234
#
# Velocity S-wave (km/s) = 2.78636 3.58676 3.21159
# Velocity P-wave (km/s) = 4.22011 6.25245 5.33397
#
# Compressibility (1/GPa) = 0.05776658
#
# Stress axis : x y z
#
# Youngs Moduli (GPa) = 49.30952 20.66207 72.36838
#
# Poissons Ratio (x) = -0.21821 0.80326
# Poissons Ratio (y) = -0.52076 0.85584
# Poissons Ratio (z) = 0.54732 0.24435
#
# Static dielectric constant tensor:
#      x y z
#    x 1.873300 0.000000 0.148010 
#    y 0.000000 1.907830 0.000000 
#    z 0.148010 0.000000 1.551790 
# 
# From -- ./inp_files/87757.got.cif
#   From: 2010.05.17/outbox.cif.g08.bks.cpg/sg15_44_cif.got.tgz:87757.got - 2010.06.03 18:47:42.
