data_PCOD9264462
_publ_section_title
;
Structure prediction by ZEFSAII (Michael W. Deem and Ramdas Pophale) SiO2 
 PCOD9264462
Probable space group: C 2/C
;
_chemical_formula_sum "Si O2"
_cell_formula_units_Z 64
_cell_length_a 22.664263
_cell_length_b 20.883361
_cell_length_c 19.268901
_cell_angle_alpha 90.000000
_cell_angle_beta 22.346365
_cell_angle_gamma 90.000000
_cell_volume 3467.499954
_symmetry_space_group_name_H-M "C 2/C"
_symmetry_group_IT_number 15
_symmetry_cell_setting 'monoclinic'
loop_
_space_group_symop_operation_xyz
x,y,z
-x,y,1/2-z
-x,-y,-z
x,-y,1/2+z
1/2+x,1/2+y,z
1/2-x,1/2+y,1/2-z
1/2-x,1/2-y,-z
1/2+x,1/2-y,1/2+z
loop_
_atom_site_type_symbol
_atom_site_label
_atom_site_fract_x
_atom_site_fract_y
_atom_site_fract_z
Si Si1 0.396258 0.816848 0.578509
Si Si2 0.526530 0.938928 0.518629
Si Si3 0.900475 0.004520 0.801647
Si Si4 0.920124 0.503058 0.272955
Si Si5 0.579614 0.136706 0.596117
Si Si6 0.028599 0.817889 0.947809
Si Si7 0.554072 0.361848 0.767652
Si Si8 0.390622 0.446101 0.157305
O O1 0.458605 0.875707 0.556477
O O2 0.461496 0.827590 0.429672
O O3 0.211796 0.816654 0.765506
O O4 0.453082 0.749973 0.547279
O O5 0.434501 0.954817 0.689411
O O6 0.712070 0.940225 0.327497
O O7 0.500000 0.000000 0.500000
O O8 0.879761 0.038116 0.750863
O O9 0.000000 0.042653 0.750000
O O10 0.985103 0.937488 0.691005
O O11 0.746591 0.987980 0.013139
O O12 0.000000 0.539188 0.250000
O O13 0.014979 0.436359 0.158008
O O14 0.500000 0.165718 0.750000
O O15 0.761251 0.138613 0.417393
O O16 0.990227 0.829981 0.907381
O O17 0.964725 0.878005 0.059379
O O18 0.500000 0.337360 0.750000
O O19 0.500000 0.500000 0.000000
#
# Coordination Sequence:
#
# PCOD9264462 Si02
#       8
#     8   8   8   8   8   8   8   8
#     4  11  25  43  62  89 125 172 214 260 321 375
#     4  12  24  38  67  97 125 170 212 261 319 371
#     4  11  23  37  61  96 128 163 201 259 322 370
#     4  11  20  39  61  92 130 161 204 259 312 378
#     4  10  19  35  59  84 124 163 205 249 300 376
#     4  11  25  44  61  87 129 167 215 265 313 380
#     4  10  20  35  57  86 123 163 205 249 307 370
#     4  12  24  40  64  97 130 164 214 267 312 371
#
# _framework density 18.457101000000002
#
# number of rings (size 3 to 8) (size 9 to 14) (size 15 to 20)
#    0.000    1.000    6.250    1.500    3.500    2.500 
#    0.000    2.500    0.000    1.500    0.000    0.000 
#    0.000    0.000    0.000    0.000    0.000    0.000 
#
# Total GULP energy -178379.381269 kJ/mol
# GULP energy per Si atom -5574.355665 kJ/mol
# Density = 1.841509 g / cm^3
# Si number density = 18.457101 Si / 1000 Ang^3
#
#
#
# Elastic Constant Matrix: (Units=GPa)
#
#
# Indices 1 2 3 4 5 6 
#
# 1 108.2431 52.6717 36.3117 -0.0087 -6.9947 0.0161
# 2 52.6717 125.2384 37.3716 -0.0099 0.9812 0.0106
# 3 36.3117 37.3716 67.8959 -0.0160 -0.4348 0.0042
# 4 -0.0087 -0.0099 -0.0160 20.1248 0.0040 -2.4459
# 5 -6.9947 0.9812 -0.4348 0.0040 30.5965 0.0033
# 6 0.0161 0.0106 0.0042 -2.4459 0.0033 4.3125
#
#
#
# Elastic Compliance Matrix: (Units=1/GPa)
#
#
# Indices 1 2 3 4 5 6 
#
# 1 0.012996 -0.004094 -0.004678 -0.000006 0.003036 -0.000039
# 2 -0.004094 0.010848 -0.003790 0.000000 -0.001338 -0.000007
# 3 -0.004678 -0.003790 0.019312 0.000014 -0.000673 0.000016
# 4 -0.000006 0.000000 0.000014 0.053369 -0.000011 0.030269
# 5 0.003036 -0.001338 -0.000673 -0.000011 0.033411 -0.000039
# 6 -0.000039 -0.000007 0.000016 0.030269 -0.000039 0.249053
#
#
# Mechanical properties :
#
#
# Convention : Reuss Voigt Hill
#
# Bulk Modulus (GPa) = 55.45461 61.56527 58.50994
# Shear Modulus (GPa) = 12.19150 22.67491 17.43321
#
# Velocity S-wave (km/s) = 2.57287 3.50883 3.07665
# Velocity P-wave (km/s) = 6.23992 7.06004 6.66261
#
# Compressibility (1/GPa) = 0.01803277
#
# Stress axis : x y z
#
# Youngs Moduli (GPa) = 76.94780 92.18358 51.78118
#
# Poissons Ratio (x) = 0.37736 0.24222
# Poissons Ratio (y) = 0.31499 0.19626
# Poissons Ratio (z) = 0.35994 0.34939
#
# Static dielectric constant tensor:
#      x y z
#    x 1.644140 0.000000 0.011450 
#    y 0.000000 1.630390 0.000000 
#    z 0.011450 0.000000 1.689040 
# 
# From -- ./inp_files/255979.got.cif
#   From: 2010.05.17/outbox.cif.g08.bks.cpg/sg15_128_cif.got.tgz:255979.got - 2010.06.03 18:47:42.
