data_PCOD9264936
_publ_section_title
;
Structure prediction by ZEFSAII (Michael W. Deem and Ramdas Pophale) SiO2 
 PCOD9264936
Probable space group: C 2/C
;
_chemical_formula_sum "Si O2"
_cell_formula_units_Z 64
_cell_length_a 12.412326
_cell_length_b 28.646446
_cell_length_c 9.810738
_cell_angle_alpha 90.000000
_cell_angle_beta 87.338888
_cell_angle_gamma 90.000000
_cell_volume 3484.632735
_symmetry_space_group_name_H-M "C 2/C"
_symmetry_group_IT_number 15
_symmetry_cell_setting 'monoclinic'
loop_
_space_group_symop_operation_xyz
x,y,z
-x,y,1/2-z
-x,-y,-z
x,-y,1/2+z
1/2+x,1/2+y,z
1/2-x,1/2+y,1/2-z
1/2-x,1/2-y,-z
1/2+x,1/2-y,1/2+z
loop_
_atom_site_type_symbol
_atom_site_label
_atom_site_fract_x
_atom_site_fract_y
_atom_site_fract_z
Si Si1 0.103411 0.671568 0.654019
Si Si2 0.685290 0.639118 0.729316
Si Si3 0.099824 0.845563 0.524172
Si Si4 0.569236 0.556795 0.111461
Si Si5 0.043086 0.714661 0.390444
Si Si6 0.217607 0.769763 0.700893
Si Si7 0.614886 0.703559 0.488024
Si Si8 0.409181 0.544133 0.870608
O O1 0.200601 0.639820 0.700081
O O2 0.068622 0.674859 0.499120
O O3 0.147532 0.723743 0.680923
O O4 0.000000 0.662091 0.750000
O O5 0.673229 0.677886 0.611076
O O6 0.661663 0.588552 0.666005
O O7 0.605377 0.651989 0.859116
O O8 0.132776 0.896405 0.574970
O O9 0.173488 0.808201 0.597091
O O10 0.976479 0.831811 0.564014
O O11 0.500000 0.563211 0.250000
O O12 0.636092 0.508512 0.113501
O O13 0.477793 0.553180 0.001268
O O14 0.157874 0.738231 0.344792
O O15 0.000000 0.696023 0.250000
O O16 0.956725 0.751898 0.457007
O O17 0.195047 0.784267 0.859103
O O18 0.500000 0.540491 0.750000
#
# Coordination Sequence:
#
# PCOD9264936 Si02
#       8
#     8   8   8   8   8   8   8   8
#     4  12  24  42  57  80 117 158 204 253 286 338
#     4  12  24  38  60  84 115 160 202 233 298 355
#     4  12  20  37  56  86 120 158 191 238 294 351
#     4  10  20  32  56  84 121 153 181 230 292 350
#     4  12  25  40  57  81 114 158 203 252 293 341
#     4  12  24  39  58  82 120 160 203 246 297 342
#     4  12  23  37  58  84 118 160 203 244 285 354
#     4  10  19  36  54  85 120 149 188 231 285 363
#
# _framework density 18.366354000000001
#
# number of rings (size 3 to 8) (size 9 to 14) (size 15 to 20)
#    0.000    0.500    6.250    4.125    1.750    1.000 
#    0.000    0.000    0.000    0.000    0.000    1.750 
#    0.000    0.000    0.000    0.000    0.000    0.000 
#
# Total GULP energy -178730.062517 kJ/mol
# GULP energy per Si atom -5585.314454 kJ/mol
# Density = 1.832455 g / cm^3
# Si number density = 18.366354 Si / 1000 Ang^3
#
#
#
# Elastic Constant Matrix: (Units=GPa)
#
#
# Indices 1 2 3 4 5 6 
#
# 1 58.4378 18.1053 23.1569 0.0000 1.6297 0.0000
# 2 18.1053 98.4278 36.4871 0.0000 14.6410 0.0000
# 3 23.1569 36.4871 141.2367 0.0000 5.9267 0.0000
# 4 0.0000 0.0000 0.0000 23.5268 0.0000 6.5209
# 5 1.6297 14.6410 5.9267 0.0000 33.7684 0.0000
# 6 0.0000 0.0000 0.0000 6.5209 0.0000 19.9554
#
#
#
# Elastic Compliance Matrix: (Units=1/GPa)
#
#
# Indices 1 2 3 4 5 6 
#
# 1 0.018886 -0.002672 -0.002435 0.000000 0.000674 0.000000
# 2 -0.002672 0.012301 -0.002540 0.000000 -0.004758 0.000000
# 3 -0.002435 -0.002540 0.008144 0.000000 -0.000211 0.000000
# 4 0.000000 0.000000 0.000000 0.046738 0.000000 -0.015273
# 5 0.000674 -0.004758 -0.000211 0.000000 0.031681 0.000000
# 6 0.000000 0.000000 0.000000 -0.015273 0.000000 0.055102
#
#
# Mechanical properties :
#
#
# Convention : Reuss Voigt Hill
#
# Bulk Modulus (GPa) = 41.60025 50.40010 46.00017
# Shear Modulus (GPa) = 25.48971 30.14032 27.81502
#
# Velocity S-wave (km/s) = 3.72942 4.05540 3.89582
# Velocity P-wave (km/s) = 6.42217 7.03061 6.73326
#
# Compressibility (1/GPa) = 0.02403832
#
# Stress axis : x y z
#
# Youngs Moduli (GPa) = 52.94955 81.29696 122.78225
#
# Poissons Ratio (x) = 0.21721 0.29892
# Poissons Ratio (y) = 0.14147 0.31187
# Poissons Ratio (z) = 0.12891 0.20649
#
# Static dielectric constant tensor:
#      x y z
#    x 1.645630 0.000000 0.005400 
#    y 0.000000 1.683690 0.000000 
#    z 0.005400 0.000000 1.667920 
# 
# From -- ./inp_files/35662.got.cif
#   From: 2010.05.17/outbox.cif.g08.bks.cpg/sg15_18_cif.got.tgz:35662.got - 2010.06.03 18:47:42.
