data_PCOD9264885
_publ_section_title
;
Structure prediction by ZEFSAII (Michael W. Deem and Ramdas Pophale) SiO2 
 PCOD9264885
Probable space group: C 2/C
;
_chemical_formula_sum "Si O2"
_cell_formula_units_Z 60
_cell_length_a 23.845040
_cell_length_b 7.415486
_cell_length_c 28.231465
_cell_angle_alpha 90.000000
_cell_angle_beta 28.133789
_cell_angle_gamma 90.000000
_cell_volume 2353.868923
_symmetry_space_group_name_H-M "C 2/C"
_symmetry_group_IT_number 15
_symmetry_cell_setting 'monoclinic'
loop_
_space_group_symop_operation_xyz
x,y,z
-x,y,1/2-z
-x,-y,-z
x,-y,1/2+z
1/2+x,1/2+y,z
1/2-x,1/2+y,1/2-z
1/2-x,1/2-y,-z
1/2+x,1/2-y,1/2+z
loop_
_atom_site_type_symbol
_atom_site_label
_atom_site_fract_x
_atom_site_fract_y
_atom_site_fract_z
Si Si1 0.000000 0.142979 0.750000
Si Si2 0.607262 0.131036 0.874720
Si Si3 0.900317 0.745430 0.722896
Si Si4 0.989934 0.348327 0.854727
Si Si5 0.355975 0.597811 0.474181
Si Si6 0.637518 0.688918 0.926175
Si Si7 0.756355 0.009180 0.455210
Si Si8 0.856206 0.783203 0.183605
O O1 0.013440 0.266636 0.694259
O O2 0.877520 0.032748 0.838041
O O3 0.610327 0.254696 0.825699
O O4 0.732904 0.184401 0.803590
O O5 0.625445 0.924426 0.846286
O O6 0.476089 0.177768 0.990399
O O7 0.934615 0.534932 0.706167
O O8 0.765863 0.783002 0.837994
O O9 0.018104 0.858337 0.645747
O O10 0.044251 0.204262 0.850718
O O11 0.860823 0.399491 0.970699
O O12 0.369768 0.566645 0.520599
O O13 0.283948 0.786277 0.523729
O O14 0.283369 0.475724 0.491381
O O15 0.639107 0.611448 0.870684
#
# Coordination Sequence:
#
# PCOD9264885 Si02
#       8
#     4   8   8   8   8   8   8   8
#     4  12  26  40  64  88 118 182 214 248 324 392
#     4   9  19  37  58  92 127 164 208 259 312 391
#     4   8  18  37  60  91 123 159 207 260 325 376
#     4  10  23  43  59  85 133 171 208 264 314 385
#     4   9  20  39  64  93 126 153 207 285 315 373
#     4  10  19  35  68  97 119 162 206 264 331 378
#     4  10  23  43  60  94 125 162 222 263 317 378
#     4  10  21  40  61  90 131 165 211 262 324 390
#
# _framework density 25.48995
#
# number of rings (size 3 to 8) (size 9 to 14) (size 15 to 20)
#    0.000    2.400    0.000    1.600    3.733    2.133 
#    4.800    6.000    0.000    0.000    0.000    0.000 
#    0.000    0.000    0.000    0.000    0.000    0.000 
#
# Total GULP energy -167420.844311 kJ/mol
# GULP energy per Si atom -5580.694810 kJ/mol
# Density = 2.543193 g / cm^3
# Si number density = 25.489950 Si / 1000 Ang^3
#
#
#
# Elastic Constant Matrix: (Units=GPa)
#
#
# Indices 1 2 3 4 5 6 
#
# 1 112.0653 14.5591 33.0099 0.0057 3.2577 -0.0040
# 2 14.5591 59.0264 26.6420 0.0040 -14.9131 -0.0025
# 3 33.0099 26.6420 188.0148 0.0206 -33.0562 -0.0207
# 4 0.0057 0.0040 0.0206 9.3634 -0.0297 2.7420
# 5 3.2577 -14.9131 -33.0562 -0.0297 40.2723 0.0318
# 6 -0.0040 -0.0025 -0.0207 2.7420 0.0318 33.8677
#
#
#
# Elastic Compliance Matrix: (Units=1/GPa)
#
#
# Indices 1 2 3 4 5 6 
#
# 1 0.009915 -0.002387 -0.001985 -0.000012 -0.003316 0.000004
# 2 -0.002387 0.019726 -0.001236 0.000018 0.006483 -0.000007
# 3 -0.001985 -0.001236 0.006767 0.000004 0.005257 -0.000001
# 4 -0.000012 0.000018 0.000004 0.109393 0.000099 -0.008857
# 5 -0.003316 0.006483 0.005257 0.000099 0.031815 -0.000035
# 6 0.000004 -0.000007 -0.000001 -0.008857 -0.000035 0.030244
#
#
# Mechanical properties :
#
#
# Convention : Reuss Voigt Hill
#
# Bulk Modulus (GPa) = 39.69799 56.39206 48.04502
# Shear Modulus (GPa) = 21.98057 35.69372 28.83714
#
# Velocity S-wave (km/s) = 2.93972 3.74613 3.36715
# Velocity P-wave (km/s) = 5.20868 6.39395 5.83151
#
# Compressibility (1/GPa) = 0.02519020
#
# Stress axis : x y z
#
# Youngs Moduli (GPa) = 100.86033 50.69370 147.78069
#
# Poissons Ratio (x) = 0.12101 0.29341
# Poissons Ratio (y) = 0.24076 0.18270
# Poissons Ratio (z) = 0.20025 0.06267
#
# Static dielectric constant tensor:
#      x y z
#    x 2.087870 -0.000040 -0.036320 
#    y -0.000040 2.010050 0.000040 
#    z -0.036320 0.000040 2.099190 
# 
# From -- ./inp_files/302042.got.cif
#   From: 2010.05.17/outbox.cif.g08.bks.cpg/sg15_152_cif.got.tgz:302042.got - 2010.06.03 18:47:42.
