data_PCOD9264736
_publ_section_title
;
Structure prediction by ZEFSAII (Michael W. Deem and Ramdas Pophale) SiO2 
 PCOD9264736
Probable space group: C 2/C
;
_chemical_formula_sum "Si O2"
_cell_formula_units_Z 56
_cell_length_a 10.158755
_cell_length_b 14.738193
_cell_length_c 26.714273
_cell_angle_alpha 90.000000
_cell_angle_beta 140.913495
_cell_angle_gamma 90.000000
_cell_volume 2521.786753
_symmetry_space_group_name_H-M "C 2/C"
_symmetry_group_IT_number 15
_symmetry_cell_setting 'monoclinic'
loop_
_space_group_symop_operation_xyz
x,y,z
-x,y,1/2-z
-x,-y,-z
x,-y,1/2+z
1/2+x,1/2+y,z
1/2-x,1/2+y,1/2-z
1/2-x,1/2-y,-z
1/2+x,1/2-y,1/2+z
loop_
_atom_site_type_symbol
_atom_site_label
_atom_site_fract_x
_atom_site_fract_y
_atom_site_fract_z
Si Si1 0.856805 0.691782 0.402028
Si Si2 0.548023 0.475286 0.928898
Si Si3 0.589035 0.628561 0.535555
Si Si4 0.316359 0.097358 0.932605
Si Si5 0.126547 0.285993 0.883032
Si Si6 0.731182 0.512743 0.317930
Si Si7 0.350350 0.069303 0.246855
O O1 0.714760 0.615879 0.334325
O O2 0.784331 0.785870 0.405127
O O3 0.981408 0.638389 0.481568
O O4 0.020009 0.717113 0.406196
O O5 0.657561 0.411256 0.002328
O O6 0.696045 0.531096 0.935464
O O7 0.376664 0.421396 0.845379
O O8 0.428075 0.549334 0.928332
O O9 0.348764 0.662716 0.455063
O O10 0.172072 0.184432 0.879508
O O11 0.363044 0.043698 0.896175
O O12 0.972942 0.340621 0.801029
O O13 0.500000 0.473736 0.250000
O O14 0.822970 0.514176 0.289862
O O15 0.500000 0.024634 0.250000
#
# Coordination Sequence:
#
# PCOD9264736 Si02
#       7
#     8   8   8   8   8   8   8
#     4  10  20  39  62  92 126 161 212 261 307 363
#     4  11  20  35  62  90 128 153 211 255 309 355
#     4  10  19  35  62  91 115 169 209 255 298 369
#     4  11  20  39  64  97 120 164 211 265 299 376
#     4  10  19  37  65  90 120 160 222 253 299 362
#     4  11  24  39  63  93 132 166 199 261 328 371
#     4  11  23  41  61  89 126 167 207 261 311 372
#
# _framework density 22.206475999999999
#
# number of rings (size 3 to 8) (size 9 to 14) (size 15 to 20)
#    0.000    1.429    5.714    1.286    0.000    0.571 
#    0.000    1.429    0.000    1.714    0.000    0.000 
#    0.000    0.000    0.000    0.000    0.000    0.000 
#
# Total GULP energy -156479.219678 kJ/mol
# GULP energy per Si atom -5588.543560 kJ/mol
# Density = 2.215593 g / cm^3
# Si number density = 22.206476 Si / 1000 Ang^3
#
#
#
# Elastic Constant Matrix: (Units=GPa)
#
#
# Indices 1 2 3 4 5 6 
#
# 1 88.8195 30.3078 37.1481 0.0000 -37.4420 0.0000
# 2 30.3078 89.5706 38.3559 0.0000 -13.2344 0.0000
# 3 37.1481 38.3559 84.6233 0.0000 -25.1996 0.0000
# 4 0.0000 0.0000 0.0000 26.8947 0.0000 0.8000
# 5 -37.4420 -13.2344 -25.1996 0.0000 40.9797 0.0000
# 6 0.0000 0.0000 0.0000 0.8000 0.0000 6.7352
#
#
#
# Elastic Compliance Matrix: (Units=1/GPa)
#
#
# Indices 1 2 3 4 5 6 
#
# 1 0.020116 -0.003360 -0.002641 0.000000 0.015670 0.000000
# 2 -0.003360 0.014433 -0.005623 0.000000 -0.001866 0.000000
# 3 -0.002641 -0.005623 0.017464 0.000000 0.006510 0.000000
# 4 0.000000 0.000000 0.000000 0.037314 0.000000 -0.004432
# 5 0.015670 -0.001866 0.006510 0.000000 0.042120 0.000000
# 6 0.000000 0.000000 0.000000 -0.004432 0.000000 0.149000
#
#
# Mechanical properties :
#
#
# Convention : Reuss Voigt Hill
#
# Bulk Modulus (GPa) = 34.76515 52.73745 43.75130
# Shear Modulus (GPa) = 15.96001 25.40202 20.68101
#
# Velocity S-wave (km/s) = 2.68378 3.38583 3.05504
# Velocity P-wave (km/s) = 5.02921 6.25183 5.67355
#
# Compressibility (1/GPa) = 0.02876444
#
# Stress axis : x y z
#
# Youngs Moduli (GPa) = 49.71242 69.28397 57.26217
#
# Poissons Ratio (x) = 0.23281 0.15124
# Poissons Ratio (y) = 0.16705 0.32197
# Poissons Ratio (z) = 0.13130 0.38956
#
# Static dielectric constant tensor:
#      x y z
#    x 1.814430 0.000000 0.005150 
#    y 0.000000 1.831160 0.000000 
#    z 0.005150 0.000000 1.840550 
# 
# From -- ./inp_files/292890.got.cif
#   From: 2010.05.17/outbox.cif.g08.bks.cpg/sg15_147_cif.got.tgz:292890.got - 2010.06.03 18:47:42.
