data_PCOD9264085
_publ_section_title
;
Structure prediction by ZEFSAII (Michael W. Deem and Ramdas Pophale) SiO2 
 PCOD9264085
Probable space group: C 2/C
;
_chemical_formula_sum "Si O2"
_cell_formula_units_Z 52
_cell_length_a 14.890495
_cell_length_b 16.158697
_cell_length_c 16.346517
_cell_angle_alpha 90.000000
_cell_angle_beta 38.396364
_cell_angle_gamma 90.000000
_cell_volume 2442.872866
_symmetry_space_group_name_H-M "C 2/C"
_symmetry_group_IT_number 15
_symmetry_cell_setting 'monoclinic'
loop_
_space_group_symop_operation_xyz
x,y,z
-x,y,1/2-z
-x,-y,-z
x,-y,1/2+z
1/2+x,1/2+y,z
1/2-x,1/2+y,1/2-z
1/2-x,1/2-y,-z
1/2+x,1/2-y,1/2+z
loop_
_atom_site_type_symbol
_atom_site_label
_atom_site_fract_x
_atom_site_fract_y
_atom_site_fract_z
Si Si1 0.338013 0.547872 0.788337
Si Si2 0.500000 0.692013 0.750000
Si Si3 0.034341 0.940427 0.552928
Si Si4 0.650942 0.726416 0.334274
Si Si5 0.057002 0.506547 0.052440
Si Si6 0.816157 0.392469 0.272515
Si Si7 0.005056 0.303534 0.894816
O O1 0.375350 0.631923 0.807271
O O2 0.481677 0.497057 0.664909
O O3 0.262423 0.576396 0.756475
O O4 0.226947 0.493933 0.920201
O O5 0.449761 0.747846 0.860341
O O6 0.200054 0.913258 0.425101
O O7 0.934198 0.858708 0.621415
O O8 0.000000 0.000000 0.500000
O O9 0.651364 0.795856 0.263067
O O10 0.820395 0.706443 0.227476
O O11 0.569453 0.769893 0.469245
O O12 0.963450 0.444014 0.172154
O O13 0.030158 0.601133 0.095779
O O14 0.000000 0.500000 0.000000
#
# Coordination Sequence:
#
# PCOD9264085 Si02
#       7
#     8   4   8   8   8   8   8
#     4  10  20  37  53  78 116 159 194 233 289 357
#     4  12  24  38  56  86 128 166 200 222 284 382
#     4  10  20  34  55  80 115 149 192 251 300 345
#     4  12  20  35  57  87 115 149 195 254 301 344
#     4  10  19  35  55  78 113 152 196 248 298 340
#     4  10  19  36  55  85 113 145 199 248 306 346
#     4  12  22  35  54  82 123 158 195 238 288 359
#
# _framework density 21.286411999999999
#
# number of rings (size 3 to 8) (size 9 to 14) (size 15 to 20)
#    0.000    1.231    6.154    3.692    0.000    2.462 
#    0.000    0.000    0.000    0.000    0.000    5.385 
#    0.000    0.000    0.000    0.000    0.000    0.000 
#
# Total GULP energy -145245.436090 kJ/mol
# GULP energy per Si atom -5586.362927 kJ/mol
# Density = 2.123796 g / cm^3
# Si number density = 21.286412 Si / 1000 Ang^3
#
#
#
# Elastic Constant Matrix: (Units=GPa)
#
#
# Indices 1 2 3 4 5 6 
#
# 1 24.6935 10.9857 18.9068 0.0001 0.9222 0.0000
# 2 10.9857 125.6769 53.6727 0.0001 9.5593 0.0000
# 3 18.9068 53.6727 157.9188 -0.0002 -7.7197 0.0000
# 4 0.0001 0.0001 -0.0002 45.2936 0.0000 3.6256
# 5 0.9222 9.5593 -7.7197 0.0000 11.2508 0.0000
# 6 0.0000 0.0000 0.0000 3.6256 0.0000 21.8722
#
#
#
# Elastic Compliance Matrix: (Units=1/GPa)
#
#
# Indices 1 2 3 4 5 6 
#
# 1 0.045351 -0.001205 -0.005331 0.000000 -0.006352 0.000000
# 2 -0.001205 0.010695 -0.004066 0.000000 -0.011778 0.000000
# 3 -0.005331 -0.004066 0.008839 0.000000 0.009957 0.000000
# 4 0.000000 0.000000 0.000000 0.022375 0.000000 -0.003709
# 5 -0.006352 -0.011778 0.009957 0.000000 0.106243 0.000000
# 6 0.000000 0.000000 0.000000 -0.003709 0.000000 0.046335
#
#
# Mechanical properties :
#
#
# Convention : Reuss Voigt Hill
#
# Bulk Modulus (GPa) = 22.89281 52.82440 37.85861
# Shear Modulus (GPa) = 18.14209 30.66492 24.40350
#
# Velocity S-wave (km/s) = 2.92256 3.79962 3.38958
# Velocity P-wave (km/s) = 4.70813 6.64224 5.75699
#
# Compressibility (1/GPa) = 0.04368184
#
# Stress axis : x y z
#
# Youngs Moduli (GPa) = 22.05018 93.50385 113.12963
#
# Poissons Ratio (x) = 0.11263 0.60307
# Poissons Ratio (y) = 0.02656 0.46003
# Poissons Ratio (z) = 0.11754 0.38023
#
# Static dielectric constant tensor:
#      x y z
#    x 1.786450 0.000000 -0.023650 
#    y 0.000000 1.759330 0.000000 
#    z -0.023650 0.000000 1.793860 
# 
# From -- ./inp_files/249085.got.cif
#   From: 2010.05.17/outbox.cif.g08.bks.cpg/sg15_125_cif.got.tgz:249085.got - 2010.06.03 18:47:42.
