data_PCOD9264550
_publ_section_title
;
Structure prediction by ZEFSAII (Michael W. Deem and Ramdas Pophale) SiO2 
 PCOD9264550
Probable space group: C 2/C
;
_chemical_formula_sum "Si O2"
_cell_formula_units_Z 48
_cell_length_a 19.737677
_cell_length_b 9.471200
_cell_length_c 22.670878
_cell_angle_alpha 90.000000
_cell_angle_beta 41.122634
_cell_angle_gamma 90.000000
_cell_volume 2787.271787
_symmetry_space_group_name_H-M "C 2/C"
_symmetry_group_IT_number 15
_symmetry_cell_setting 'monoclinic'
loop_
_space_group_symop_operation_xyz
x,y,z
-x,y,1/2-z
-x,-y,-z
x,-y,1/2+z
1/2+x,1/2+y,z
1/2-x,1/2+y,1/2-z
1/2-x,1/2-y,-z
1/2+x,1/2-y,1/2+z
loop_
_atom_site_type_symbol
_atom_site_label
_atom_site_fract_x
_atom_site_fract_y
_atom_site_fract_z
Si Si1 0.380089 0.584427 0.327434
Si Si2 0.936353 0.556843 0.985233
Si Si3 0.216494 0.407811 0.503566
Si Si4 0.761447 0.374785 0.681922
Si Si5 0.353461 0.898558 0.210485
Si Si6 0.378951 0.918661 0.328195
O O1 0.500000 0.553563 0.250000
O O2 0.316012 0.488361 0.413404
O O3 0.333240 0.561901 0.293139
O O4 0.365105 0.751526 0.350102
O O5 0.872742 0.440044 0.988144
O O6 0.025404 0.624447 0.885580
O O7 0.848250 0.653458 0.073986
O O8 0.000000 0.500000 0.000000
O O9 0.250000 0.250000 0.500000
O O10 0.177383 0.487626 0.587151
O O11 0.716018 0.241258 0.745828
O O12 0.809437 0.485380 0.695360
O O13 0.344846 0.946311 0.283759
O O14 0.500000 0.948296 0.250000
#
# Coordination Sequence:
#
# PCOD9264550 Si02
#       6
#     8   8   8   8   8   8
#     4   9  20  39  57  80 113 154 190 236 284 343
#     4   9  19  38  58  79 116 158 186 229 299 353
#     4  11  22  36  57  89 117 145 194 244 293 343
#     4   9  20  36  59  84 110 152 192 236 285 348
#     4  10  19  37  59  83 114 151 192 236 287 349
#     4  10  19  35  60  83 107 151 192 224 286 349
#
# _framework density 17.221139999999998
#
# number of rings (size 3 to 8) (size 9 to 14) (size 15 to 20)
#    0.000    2.333    1.667    0.500    0.000    4.667 
#    6.000    0.833    0.000    0.000    0.000    0.000 
#    0.000    0.000    0.000    0.000    0.000    0.000 
#
# Total GULP energy -133607.761614 kJ/mol
# GULP energy per Si atom -5566.990067 kJ/mol
# Density = 1.718194 g / cm^3
# Si number density = 17.221140 Si / 1000 Ang^3
#
#
#
# Elastic Constant Matrix: (Units=GPa)
#
#
# Indices 1 2 3 4 5 6 
#
# 1 93.8486 55.0059 71.2627 0.0000 -11.0058 0.0000
# 2 55.0059 91.9773 87.6806 0.0000 0.7286 0.0000
# 3 71.2627 87.6806 123.0803 0.0000 -1.0760 0.0000
# 4 0.0000 0.0000 0.0000 11.7090 0.0000 8.4260
# 5 -11.0058 0.7286 -1.0760 0.0000 31.0526 0.0000
# 6 0.0000 0.0000 0.0000 8.4260 0.0000 20.0616
#
#
#
# Elastic Compliance Matrix: (Units=1/GPa)
#
#
# Indices 1 2 3 4 5 6 
#
# 1 0.020682 -0.003329 -0.009541 0.000000 0.007078 0.000000
# 2 -0.003329 0.034500 -0.022674 0.000000 -0.002775 0.000000
# 3 -0.009541 -0.022674 0.029786 0.000000 -0.001817 0.000000
# 4 0.000000 0.000000 0.000000 0.122398 0.000000 -0.051408
# 5 0.007078 -0.002775 -0.001817 0.000000 0.034714 0.000000
# 6 0.000000 0.000000 0.000000 -0.051408 0.000000 0.071438
#
#
# Mechanical properties :
#
#
# Convention : Reuss Voigt Hill
#
# Bulk Modulus (GPa) = 72.05140 81.86719 76.95930
# Shear Modulus (GPa) = 12.84583 18.89510 15.87046
#
# Velocity S-wave (km/s) = 2.73414 3.31600 3.03903
# Velocity P-wave (km/s) = 7.20397 7.89323 7.55646
#
# Compressibility (1/GPa) = 0.01387898
#
# Stress axis : x y z
#
# Youngs Moduli (GPa) = 48.35234 28.98550 33.57311
#
# Poissons Ratio (x) = 0.09650 0.32032
# Poissons Ratio (y) = 0.16097 0.76124
# Poissons Ratio (z) = 0.46133 0.65722
#
# Static dielectric constant tensor:
#      x y z
#    x 1.650580 0.000000 -0.001890 
#    y 0.000000 1.571610 0.000000 
#    z -0.001890 0.000000 1.604280 
# 
# From -- ./inp_files/279310.got.cif
#   From: 2010.05.17/outbox.cif.g08.bks.cpg/sg15_140_cif.got.tgz:279310.got - 2010.06.03 18:47:42.
