data_PCOD9264727
_publ_section_title
;
Structure prediction by ZEFSAII (Michael W. Deem and Ramdas Pophale) SiO2 
 PCOD9264727
Probable space group: C 2/C
;
_chemical_formula_sum "Si O2"
_cell_formula_units_Z 56
_cell_length_a 16.071021
_cell_length_b 13.368061
_cell_length_c 16.540438
_cell_angle_alpha 90.000000
_cell_angle_beta 129.378413
_cell_angle_gamma 90.000000
_cell_volume 2746.774630
_symmetry_space_group_name_H-M "C 2/C"
_symmetry_group_IT_number 15
_symmetry_cell_setting 'monoclinic'
loop_
_space_group_symop_operation_xyz
x,y,z
-x,y,1/2-z
-x,-y,-z
x,-y,1/2+z
1/2+x,1/2+y,z
1/2-x,1/2+y,1/2-z
1/2-x,1/2-y,-z
1/2+x,1/2-y,1/2+z
loop_
_atom_site_type_symbol
_atom_site_label
_atom_site_fract_x
_atom_site_fract_y
_atom_site_fract_z
Si Si1 0.323026 0.187762 0.901207
Si Si2 0.608737 0.031676 0.455374
Si Si3 0.749067 0.355987 0.185625
Si Si4 0.893922 0.337834 0.129842
Si Si5 0.866013 0.445148 0.815591
Si Si6 0.569240 0.229670 0.027097
Si Si7 0.617654 0.202360 0.327669
O O1 0.288501 0.203145 0.788248
O O2 0.224762 0.231754 0.891994
O O3 0.333334 0.069455 0.928560
O O4 0.445798 0.225533 0.981105
O O5 0.484386 0.003069 0.393019
O O6 0.613664 0.129530 0.402129
O O7 0.655424 0.940719 0.434988
O O8 0.807453 0.307386 0.143549
O O9 0.783280 0.469630 0.230793
O O10 0.625308 0.329903 0.094250
O O11 0.000000 0.356201 0.250000
O O12 0.922118 0.277733 0.065474
O O13 0.869650 0.367083 0.894381
O O14 0.873779 0.369168 0.744666
O O15 0.500000 0.254735 0.250000
#
# Coordination Sequence:
#
# PCOD9264727 Si02
#       7
#     8   8   8   8   8   8   8
#     4  11  22  37  61  94 123 156 203 256 312 369
#     4  10  19  35  62  90 115 151 206 260 308 348
#     4  12  22  38  61  90 125 163 206 255 303 357
#     4  12  20  37  61  89 124 162 208 253 296 357
#     4  10  19  37  62  88 121 156 203 257 302 356
#     4  11  24  38  60  93 127 164 205 252 306 364
#     4  10  19  37  63  88 120 156 197 257 314 366
#
# _framework density 20.387547000000001
#
# number of rings (size 3 to 8) (size 9 to 14) (size 15 to 20)
#    0.000    1.143    5.714    2.143    0.000    2.286 
#    0.000    0.714    0.000    0.000    0.000    0.000 
#    0.000    0.000    0.000    0.000    0.000    0.000 
#
# Total GULP energy -155917.769831 kJ/mol
# GULP energy per Si atom -5568.491780 kJ/mol
# Density = 2.034114 g / cm^3
# Si number density = 20.387547 Si / 1000 Ang^3
#
#
#
# Elastic Constant Matrix: (Units=GPa)
#
#
# Indices 1 2 3 4 5 6 
#
# 1 100.6600 35.9483 50.9002 0.0000 6.2520 0.0000
# 2 35.9483 53.2503 34.5538 0.0000 18.5477 0.0000
# 3 50.9002 34.5538 113.2659 0.0000 -5.0404 0.0000
# 4 0.0000 0.0000 0.0000 27.8467 0.0000 5.6973
# 5 6.2520 18.5477 -5.0404 0.0000 43.7905 0.0000
# 6 0.0000 0.0000 0.0000 5.6973 0.0000 30.2754
#
#
#
# Elastic Compliance Matrix: (Units=1/GPa)
#
#
# Indices 1 2 3 4 5 6 
#
# 1 0.014708 -0.007253 -0.004376 0.000000 0.000468 0.000000
# 2 -0.007253 0.033472 -0.007576 0.000000 -0.014014 0.000000
# 3 -0.004376 -0.007576 0.013346 0.000000 0.005370 0.000000
# 4 0.000000 0.000000 0.000000 0.037349 0.000000 -0.007028
# 5 0.000468 -0.014014 0.005370 0.000000 0.029323 0.000000
# 6 0.000000 0.000000 0.000000 -0.007028 0.000000 0.034353
#
#
# Mechanical properties :
#
#
# Convention : Reuss Voigt Hill
#
# Bulk Modulus (GPa) = 43.25855 56.66453 49.96154
# Shear Modulus (GPa) = 23.96172 30.10078 27.03125
#
# Velocity S-wave (km/s) = 3.43200 3.84660 3.64520
# Velocity P-wave (km/s) = 6.08022 6.89801 6.50198
#
# Compressibility (1/GPa) = 0.02311682
#
# Stress axis : x y z
#
# Youngs Moduli (GPa) = 67.98807 29.87536 74.93145
#
# Poissons Ratio (x) = 0.21668 0.32793
# Poissons Ratio (y) = 0.49310 0.56766
# Poissons Ratio (z) = 0.29754 0.22633
#
# Static dielectric constant tensor:
#      x y z
#    x 1.800730 0.000000 -0.054910 
#    y 0.000000 1.756590 0.000000 
#    z -0.054910 0.000000 1.796070 
# 
# From -- ./inp_files/210703.got.cif
#   From: 2010.05.17/outbox.cif.g08.bks.cpg/sg15_106_cif.got.tgz:210703.got - 2010.06.03 18:47:42.
