data_PCOD9264551
_publ_section_title
;
Structure prediction by ZEFSAII (Michael W. Deem and Ramdas Pophale) SiO2 
 PCOD9264551
Probable space group: C 2/C
;
_chemical_formula_sum "Si O2"
_cell_formula_units_Z 52
_cell_length_a 13.112865
_cell_length_b 30.530716
_cell_length_c 11.268184
_cell_angle_alpha 90.000000
_cell_angle_beta 32.615550
_cell_angle_gamma 90.000000
_cell_volume 2431.514119
_symmetry_space_group_name_H-M "C 2/C"
_symmetry_group_IT_number 15
_symmetry_cell_setting 'monoclinic'
loop_
_space_group_symop_operation_xyz
x,y,z
-x,y,1/2-z
-x,-y,-z
x,-y,1/2+z
1/2+x,1/2+y,z
1/2-x,1/2+y,1/2-z
1/2-x,1/2-y,-z
1/2+x,1/2-y,1/2+z
loop_
_atom_site_type_symbol
_atom_site_label
_atom_site_fract_x
_atom_site_fract_y
_atom_site_fract_z
Si Si1 0.209416 0.557754 0.984851
Si Si2 0.000000 0.582562 0.750000
Si Si3 0.643323 0.207828 0.958976
Si Si4 0.151149 0.963869 0.705287
Si Si5 0.799794 0.805005 0.554773
Si Si6 0.324954 0.601722 0.112067
Si Si7 0.104046 0.376735 0.382221
O O1 0.313487 0.576933 0.998004
O O2 0.000000 0.548545 0.250000
O O3 0.305456 0.515639 0.829843
O O4 0.200740 0.594345 0.890626
O O5 0.882167 0.609092 0.767379
O O6 0.147043 0.553440 0.535502
O O7 0.429015 0.194228 0.203521
O O8 0.796165 0.200271 0.914922
O O9 0.637912 0.259772 0.945180
O O10 0.675864 0.172909 0.824275
O O11 0.095075 0.933282 0.871617
O O12 0.000000 0.958096 0.750000
O O13 0.892344 0.848988 0.515273
O O14 0.116002 0.613614 0.368588
#
# Coordination Sequence:
#
# PCOD9264551 Si02
#       7
#     8   4   8   8   8   8   8
#     4  10  19  35  60  83 109 148 194 233 285 334
#     4  10  22  40  60  78 114 154 196 228 282 338
#     4   9  16  30  54  81 111 140 181 230 283 333
#     4  11  24  39  57  83 115 154 191 233 281 336
#     4   9  16  31  53  83 110 142 180 229 285 332
#     4   9  19  35  58  80 114 150 184 234 283 331
#     4   9  18  34  59  83 107 150 192 230 278 344
#
# _framework density 21.385850999999999
#
# number of rings (size 3 to 8) (size 9 to 14) (size 15 to 20)
#    0.000    2.462    2.308    0.000    2.154    2.462 
#    2.769    0.000    1.692    2.769    0.000    0.000 
#    0.000    0.000    0.000    0.000    0.000    0.000 
#
# Total GULP energy -144880.969025 kJ/mol
# GULP energy per Si atom -5572.344962 kJ/mol
# Density = 2.133718 g / cm^3
# Si number density = 21.385851 Si / 1000 Ang^3
#
#
#
# Elastic Constant Matrix: (Units=GPa)
#
#
# Indices 1 2 3 4 5 6 
#
# 1 91.0668 65.8137 4.3276 0.0000 12.5334 0.0000
# 2 65.8137 191.3986 20.7486 0.0000 15.1499 0.0000
# 3 4.3276 20.7486 50.0898 0.0000 -2.4818 0.0000
# 4 0.0000 0.0000 0.0000 15.3060 0.0000 -21.5523
# 5 12.5334 15.1499 -2.4818 0.0000 24.5441 0.0000
# 6 0.0000 0.0000 0.0000 -21.5523 0.0000 -4.8075
#
#
#
# Elastic Compliance Matrix: (Units=1/GPa)
#
#
# Indices 1 2 3 4 5 6 
#
# 1 0.015131 -0.004887 0.000486 0.000000 -0.004661 0.000000
# 2 -0.004887 0.007389 -0.002755 0.000000 -0.002344 0.000000
# 3 0.000486 -0.002755 0.021242 0.000000 0.003600 0.000000
# 4 0.000000 0.000000 0.000000 0.008934 0.000000 -0.040054
# 5 -0.004661 -0.002344 0.003600 0.000000 0.044934 0.000000
# 6 0.000000 0.000000 0.000000 -0.040054 0.000000 -0.028445
#
#
# Mechanical properties :
#
#
# Convention : Reuss Voigt Hill
#
# Bulk Modulus (GPa) = 33.95483 57.14833 45.55158
# Shear Modulus (GPa) = 53.58326 23.11956 38.35141
#
# Velocity S-wave (km/s) = 5.01097 3.29153 4.23934
# Velocity P-wave (km/s) = 7.02791 6.42075 6.73118
#
# Compressibility (1/GPa) = 0.02945089
#
# Stress axis : x y z
#
# Youngs Moduli (GPa) = 66.08995 135.33325 47.07737
#
# Poissons Ratio (x) = 0.66132 -0.02288
# Poissons Ratio (y) = 0.32295 0.12969
# Poissons Ratio (z) = -0.03212 0.37281
#
# Static dielectric constant tensor:
#      x y z
#    x 1.877600 0.000000 -0.087580 
#    y 0.000000 1.801910 0.000000 
#    z -0.087580 0.000000 1.915210 
# 
# From -- ./inp_files/35120.got.cif
#   From: 2010.05.17/outbox.cif.g08.bks.cpg/sg15_18_cif.got.tgz:35120.got - 2010.06.03 18:47:42.
