data_PCOD9264230
_publ_section_title
;
Structure prediction by ZEFSAII (Michael W. Deem and Ramdas Pophale) SiO2 
 PCOD9264230
Probable space group: C 2/C
;
_chemical_formula_sum "Si O2"
_cell_formula_units_Z 56
_cell_length_a 17.348883
_cell_length_b 13.505249
_cell_length_c 13.831795
_cell_angle_alpha 90.000000
_cell_angle_beta 114.921053
_cell_angle_gamma 90.000000
_cell_volume 2939.049561
_symmetry_space_group_name_H-M "C 2/C"
_symmetry_group_IT_number 15
_symmetry_cell_setting 'monoclinic'
loop_
_space_group_symop_operation_xyz
x,y,z
-x,y,1/2-z
-x,-y,-z
x,-y,1/2+z
1/2+x,1/2+y,z
1/2-x,1/2+y,1/2-z
1/2-x,1/2-y,-z
1/2+x,1/2-y,1/2+z
loop_
_atom_site_type_symbol
_atom_site_label
_atom_site_fract_x
_atom_site_fract_y
_atom_site_fract_z
Si Si1 0.896628 0.515766 0.331245
Si Si2 0.255181 0.866879 0.000344
Si Si3 0.210659 0.005951 0.289234
Si Si4 0.929194 0.453116 0.063199
Si Si5 0.828487 0.957805 0.941592
Si Si6 0.407695 0.360599 0.152807
Si Si7 0.645836 0.864972 0.879336
O O1 0.803437 0.471093 0.300158
O O2 0.923029 0.567030 0.445993
O O3 0.888835 0.593749 0.241107
O O4 0.974596 0.442387 0.351382
O O5 0.231031 0.912147 0.882193
O O6 0.250000 0.750000 0.000000
O O7 0.353333 0.894845 0.073834
O O8 0.195981 0.929575 0.041754
O O9 0.156614 0.920873 0.311669
O O10 0.164063 0.047835 0.169601
O O11 0.900920 0.567406 0.065819
O O12 0.745444 0.893514 0.930547
O O13 0.903929 0.917153 0.047785
O O14 0.500000 0.359784 0.250000
O O15 0.374585 0.249222 0.121440
#
# Coordination Sequence:
#
# PCOD9264230 Si02
#       7
#     8   8   8   8   8   8   8
#     4   9  17  31  52  75 105 138 170 220 273 309
#     4   9  18  34  55  79 111 152 186 218 269 328
#     4   9  20  36  54  78 109 145 184 227 273 322
#     4   9  17  30  51  80 109 134 174 224 265 312
#     4   9  20  36  56  80 110 142 177 227 273 320
#     4  11  22  36  58  82 108 144 181 221 272 330
#     4  10  19  35  57  82 109 137 177 224 272 321
#
# _framework density 19.053778000000001
#
# number of rings (size 3 to 8) (size 9 to 14) (size 15 to 20)
#    0.000    2.571    0.000    2.571    0.000    4.000 
#    0.000    2.857    0.000   29.143    0.000    0.000 
#    0.000    0.000    0.000    0.000    0.000    0.000 
#
# Total GULP energy -156094.925956 kJ/mol
# GULP energy per Si atom -5574.818784 kJ/mol
# Density = 1.901041 g / cm^3
# Si number density = 19.053778 Si / 1000 Ang^3
#
#
#
# Elastic Constant Matrix: (Units=GPa)
#
#
# Indices 1 2 3 4 5 6 
#
# 1 28.0605 32.2230 2.0189 0.0000 -1.7732 0.0000
# 2 32.2230 123.7956 27.2108 0.0000 12.6460 0.0000
# 3 2.0189 27.2108 93.9073 0.0000 -4.9740 0.0000
# 4 0.0000 0.0000 0.0000 15.2566 0.0000 3.1858
# 5 -1.7732 12.6460 -4.9740 0.0000 30.8148 0.0000
# 6 0.0000 0.0000 0.0000 3.1858 0.0000 5.0200
#
#
#
# Elastic Compliance Matrix: (Units=1/GPa)
#
#
# Indices 1 2 3 4 5 6 
#
# 1 0.054561 -0.016160 0.004062 0.000000 0.010427 0.000000
# 2 -0.016160 0.013926 -0.004074 0.000000 -0.007302 0.000000
# 3 0.004062 -0.004074 0.011945 0.000000 0.003834 0.000000
# 4 0.000000 0.000000 0.000000 0.075558 0.000000 -0.047951
# 5 0.010427 -0.007302 0.003834 0.000000 0.036668 0.000000
# 6 0.000000 0.000000 0.000000 -0.047951 0.000000 0.229635
#
#
# Mechanical properties :
#
#
# Convention : Reuss Voigt Hill
#
# Bulk Modulus (GPa) = 20.79574 40.96320 30.87947
# Shear Modulus (GPa) = 10.62323 22.50565 16.56444
#
# Velocity S-wave (km/s) = 2.36379 3.44054 2.95168
# Velocity P-wave (km/s) = 4.28811 6.10970 5.27809
#
# Compressibility (1/GPa) = 0.04808677
#
# Stress axis : x y z
#
# Youngs Moduli (GPa) = 18.32817 71.81005 83.71571
#
# Poissons Ratio (x) = 1.16043 -0.34003
# Poissons Ratio (y) = 0.29618 0.34110
# Poissons Ratio (z) = -0.07444 0.29259
#
# Static dielectric constant tensor:
#      x y z
#    x 1.701360 0.000000 0.009390 
#    y 0.000000 1.622280 0.000000 
#    z 0.009390 0.000000 1.717530 
# 
# From -- ./inp_files/161425.got.cif
#   From: 2010.05.17/outbox.cif.g08.bks.cpg/sg15_81_cif.got.tgz:161425.got - 2010.06.03 18:47:42.
