data_PCOD9264472
_publ_section_title
;
Structure prediction by ZEFSAII (Michael W. Deem and Ramdas Pophale) SiO2 
 PCOD9264472
Probable space group: C 2/C
;
_chemical_formula_sum "Si O2"
_cell_formula_units_Z 48
_cell_length_a 28.730163
_cell_length_b 12.900836
_cell_length_c 9.372864
_cell_angle_alpha 90.000000
_cell_angle_beta 143.290313
_cell_angle_gamma 90.000000
_cell_volume 2076.613221
_symmetry_space_group_name_H-M "C 2/C"
_symmetry_group_IT_number 15
_symmetry_cell_setting 'monoclinic'
loop_
_space_group_symop_operation_xyz
x,y,z
-x,y,1/2-z
-x,-y,-z
x,-y,1/2+z
1/2+x,1/2+y,z
1/2-x,1/2+y,1/2-z
1/2-x,1/2-y,-z
1/2+x,1/2-y,1/2+z
loop_
_atom_site_type_symbol
_atom_site_label
_atom_site_fract_x
_atom_site_fract_y
_atom_site_fract_z
Si Si1 0.363297 0.653941 0.802192
Si Si2 0.085304 0.208777 0.270884
Si Si3 0.832102 0.570454 0.481465
Si Si4 0.445811 0.356881 0.242165
Si Si5 0.308550 0.664688 0.203398
Si Si6 0.683491 0.885730 0.882298
O O1 0.400039 0.589063 0.761717
O O2 0.351086 0.770782 0.712044
O O3 0.276097 0.624597 0.635528
O O4 0.414647 0.662909 0.070301
O O5 0.117336 0.326810 0.360434
O O6 0.144918 0.138539 0.325358
O O7 0.006680 0.208535 0.986360
O O8 0.747927 0.589827 0.348161
O O9 0.858364 0.461535 0.610333
O O10 0.824498 0.565426 0.294062
O O11 0.500000 0.408141 0.250000
O O12 0.377077 0.303603 0.981171
O O13 0.250000 0.750000 0.000000
#
# Coordination Sequence:
#
# PCOD9264472 Si02
#       6
#     8   8   8   8   8   8
#     4  10  20  38  57  89 115 160 209 244 297 357
#     4   9  20  34  59  86 115 154 196 244 302 364
#     4  10  20  36  53  90 118 152 202 247 298 346
#     4  10  19  35  59  85 118 156 196 245 293 365
#     4   9  18  33  56  84 116 148 200 239 289 359
#     4  10  22  34  60  85 124 152 204 259 290 349
#
# _framework density 23.114559
#
# number of rings (size 3 to 8) (size 9 to 14) (size 15 to 20)
#    0.000    2.333    1.667    0.500    4.667    2.667 
#    0.000    0.833    0.000   17.000    0.000    0.000 
#    0.000    0.000    0.000    0.000    0.000    0.000 
#
# Total GULP energy -133726.880185 kJ/mol
# GULP energy per Si atom -5571.953341 kJ/mol
# Density = 2.306195 g / cm^3
# Si number density = 23.114559 Si / 1000 Ang^3
#
#
#
# Elastic Constant Matrix: (Units=GPa)
#
#
# Indices 1 2 3 4 5 6 
#
# 1 100.2343 24.0842 33.8154 0.0000 -13.8495 0.0000
# 2 24.0842 81.8493 36.7807 0.0000 -15.7444 0.0000
# 3 33.8154 36.7807 146.6283 0.0000 -6.6097 0.0000
# 4 0.0000 0.0000 0.0000 4.1910 0.0000 -7.9219
# 5 -13.8495 -15.7444 -6.6097 0.0000 41.8370 0.0000
# 6 0.0000 0.0000 0.0000 -7.9219 0.0000 14.6806
#
#
#
# Elastic Compliance Matrix: (Units=1/GPa)
#
#
# Indices 1 2 3 4 5 6 
#
# 1 0.011513 -0.001938 -0.002045 0.000000 0.002759 0.000000
# 2 -0.001938 0.015066 -0.003128 0.000000 0.004534 0.000000
# 3 -0.002045 -0.003128 0.008050 0.000000 -0.000582 0.000000
# 4 0.000000 0.000000 0.000000-11.936721 0.000000 -6.441265
# 5 0.002759 0.004534 -0.000582 0.000000 0.026430 0.000000
# 6 0.000000 0.000000 0.000000 -6.441265 0.000000 -3.407703
#
#
# Mechanical properties :
#
#
# Convention : Reuss Voigt Hill
#
# Bulk Modulus (GPa) = 49.00183 57.56363 53.28273
# Shear Modulus (GPa) = -0.32760 27.74384 13.70812
#
# Velocity S-wave (km/s) = -0.37688 3.46826 2.43791
# Velocity P-wave (km/s) = 4.58870 6.40282 5.57011
#
# Compressibility (1/GPa) = 0.02040740
#
# Stress axis : x y z
#
# Youngs Moduli (GPa) = 86.85577 66.37662 124.22644
#
# Poissons Ratio (x) = 0.12866 0.25400
# Poissons Ratio (y) = 0.16835 0.38854
# Poissons Ratio (z) = 0.17759 0.20761
#
# Static dielectric constant tensor:
#      x y z
#    x 1.968330 0.000000 0.050700 
#    y 0.000000 1.881520 0.000000 
#    z 0.050700 0.000000 1.875260 
# 
# From -- ./inp_files/70018.got.cif
#   From: 2010.05.17/outbox.cif.g08.bks.cpg/sg15_36_cif.got.tgz:70018.got - 2010.06.03 18:47:42.
