data_PCOD9264542
_publ_section_title
;
Structure prediction by ZEFSAII (Michael W. Deem and Ramdas Pophale) SiO2 
 PCOD9264542
Probable space group: C 2/C
;
_chemical_formula_sum "Si O2"
_cell_formula_units_Z 48
_cell_length_a 17.150058
_cell_length_b 19.053512
_cell_length_c 8.624324
_cell_angle_alpha 90.000000
_cell_angle_beta 54.685352
_cell_angle_gamma 90.000000
_cell_volume 2299.590158
_symmetry_space_group_name_H-M "C 2/C"
_symmetry_group_IT_number 15
_symmetry_cell_setting 'monoclinic'
loop_
_space_group_symop_operation_xyz
x,y,z
-x,y,1/2-z
-x,-y,-z
x,-y,1/2+z
1/2+x,1/2+y,z
1/2-x,1/2+y,1/2-z
1/2-x,1/2-y,-z
1/2+x,1/2-y,1/2+z
loop_
_atom_site_type_symbol
_atom_site_label
_atom_site_fract_x
_atom_site_fract_y
_atom_site_fract_z
Si Si1 0.310018 0.153053 0.551326
Si Si2 0.407555 0.563270 0.963471
Si Si3 0.965247 0.580612 0.550283
Si Si4 0.701650 0.479761 0.194013
Si Si5 0.651755 0.103934 0.502479
Si Si6 0.284412 0.691103 0.170092
O O1 0.409748 0.112441 0.466641
O O2 0.309107 0.227513 0.637375
O O3 0.279512 0.171336 0.409586
O O4 0.231795 0.098219 0.708938
O O5 0.500000 0.564752 0.750000
O O6 0.321456 0.530795 0.959434
O O7 0.394183 0.512854 0.125033
O O8 0.377292 0.641579 0.046639
O O9 0.891989 0.590986 0.778158
O O10 0.000000 0.500000 0.500000
O O11 0.062376 0.617996 0.492092
O O12 0.788679 0.534024 0.111822
O O13 0.726327 0.166188 0.387415
#
# Coordination Sequence:
#
# PCOD9264542 Si02
#       6
#     8   8   8   8   8   8
#     4  10  20  39  59  86 116 164 200 242 304 365
#     4  10  20  36  57  84 109 145 196 244 289 346
#     4  11  22  35  60  92 120 154 203 255 305 366
#     4  10  19  35  60  80 114 151 191 244 297 350
#     4  10  22  37  57  89 122 154 199 249 307 365
#     4   9  22  40  57  83 121 161 198 244 304 366
#
# _framework density 20.873284999999999
#
# number of rings (size 3 to 8) (size 9 to 14) (size 15 to 20)
#    0.000    2.000    1.667    1.500    4.667    1.333 
#    9.000    0.000    3.667    0.000    0.000    0.000 
#    0.000    0.000    0.000    0.000    0.000    0.000 
#
# Total GULP energy -133759.659833 kJ/mol
# GULP energy per Si atom -5573.319160 kJ/mol
# Density = 2.082578 g / cm^3
# Si number density = 20.873285 Si / 1000 Ang^3
#
#
#
# Elastic Constant Matrix: (Units=GPa)
#
#
# Indices 1 2 3 4 5 6 
#
# 1 40.9805 2.8359 -14.2642 0.0000 -12.4226 0.0000
# 2 2.8359 138.4043 47.2194 0.0000 -3.5693 0.0000
# 3 -14.2642 47.2194 121.9707 0.0000 -20.6660 0.0000
# 4 0.0000 0.0000 0.0000 20.0512 0.0000 3.1954
# 5 -12.4226 -3.5693 -20.6660 0.0000 18.8512 0.0000
# 6 0.0000 0.0000 0.0000 3.1954 0.0000 23.1667
#
#
#
# Elastic Compliance Matrix: (Units=1/GPa)
#
#
# Indices 1 2 3 4 5 6 
#
# 1 0.042335 -0.004503 0.013849 0.000000 0.042228 0.000000
# 2 -0.004503 0.008893 -0.005142 0.000000 -0.006921 0.000000
# 3 0.013849 -0.005142 0.016199 0.000000 0.025912 0.000000
# 4 0.000000 0.000000 0.000000 0.050993 0.000000 -0.007034
# 5 0.042228 -0.006921 0.025912 0.000000 0.107971 0.000000
# 6 0.000000 0.000000 0.000000 -0.007034 0.000000 0.044136
#
#
# Mechanical properties :
#
#
# Convention : Reuss Voigt Hill
#
# Bulk Modulus (GPa) = 13.18654 41.43753 27.31203
# Shear Modulus (GPa) = 17.39743 30.11809 23.75776
#
# Velocity S-wave (km/s) = 2.89013 3.80268 3.37737
# Velocity P-wave (km/s) = 4.17951 6.25903 5.32183
#
# Compressibility (1/GPa) = 0.07583493
#
# Stress axis : x y z
#
# Youngs Moduli (GPa) = 23.62118 112.44288 61.73031
#
# Poissons Ratio (x) = 0.50638 -0.85492
# Poissons Ratio (y) = 0.10638 0.31744
# Poissons Ratio (z) = -0.32714 0.57822
#
# Static dielectric constant tensor:
#      x y z
#    x 1.847580 0.000000 0.018130 
#    y 0.000000 1.754520 0.000000 
#    z 0.018130 0.000000 1.764960 
# 
# From -- ./inp_files/113404.got.cif
#   From: 2010.05.17/outbox.cif.g08.bks.cpg/sg15_57_cif.got.tgz:113404.got - 2010.06.03 18:47:42.
