data_PCOD9264789
_publ_section_title
;
Structure prediction by ZEFSAII (Michael W. Deem and Ramdas Pophale) SiO2 
 PCOD9264789
Probable space group: C 2/C
;
_chemical_formula_sum "Si O2"
_cell_formula_units_Z 52
_cell_length_a 6.499701
_cell_length_b 22.371355
_cell_length_c 21.343638
_cell_angle_alpha 90.000000
_cell_angle_beta 57.443798
_cell_angle_gamma 90.000000
_cell_volume 2615.842660
_symmetry_space_group_name_H-M "C 2/C"
_symmetry_group_IT_number 15
_symmetry_cell_setting 'monoclinic'
loop_
_space_group_symop_operation_xyz
x,y,z
-x,y,1/2-z
-x,-y,-z
x,-y,1/2+z
1/2+x,1/2+y,z
1/2-x,1/2+y,1/2-z
1/2-x,1/2-y,-z
1/2+x,1/2-y,1/2+z
loop_
_atom_site_type_symbol
_atom_site_label
_atom_site_fract_x
_atom_site_fract_y
_atom_site_fract_z
Si Si1 0.844923 0.535159 0.574325
Si Si2 0.969700 0.859447 0.434101
Si Si3 0.002909 0.609234 0.845201
Si Si4 0.500000 0.008672 0.750000
Si Si5 0.989100 0.064952 0.178166
Si Si6 0.410354 0.664312 0.444048
Si Si7 0.388428 0.207193 0.584217
O O1 0.674373 0.583507 0.568398
O O2 0.682159 0.488642 0.638943
O O3 0.000000 0.500000 0.500000
O O4 0.035780 0.569688 0.586420
O O5 0.835193 0.802469 0.426290
O O6 0.246915 0.864494 0.364941
O O7 0.977618 0.857660 0.507931
O O8 0.097049 0.557889 0.784177
O O9 0.154731 0.664661 0.847898
O O10 0.270795 0.964847 0.799040
O O11 0.000000 0.083723 0.250000
O O12 0.060590 0.116912 0.116799
O O13 0.551226 0.725899 0.405787
O O14 0.131085 0.683154 0.507393
#
# Coordination Sequence:
#
# PCOD9264789 Si02
#       7
#     8   8   8   4   8   8   8
#     4  11  22  36  60  93 122 155 209 260 315 373
#     4  10  19  35  63  92 118 153 201 262 308 363
#     4  10  21  37  59  88 117 163 203 251 303 368
#     4  12  24  40  60  84 128 170 210 246 320 396
#     4  12  25  41  60  89 135 170 202 263 325 390
#     4  10  22  39  65  93 123 164 205 261 320 378
#     4   9  20  41  64  95 123 152 216 264 314 367
#
# _framework density 19.878869999999999
#
# number of rings (size 3 to 8) (size 9 to 14) (size 15 to 20)
#    0.000    1.538    3.077    3.231    2.154    2.462 
#    1.385    0.000    0.000    0.000    0.000    0.000 
#    0.000    0.000    0.000    0.000    0.000    0.000 
#
# Total GULP energy -144867.132945 kJ/mol
# GULP energy per Si atom -5571.812806 kJ/mol
# Density = 1.983362 g / cm^3
# Si number density = 19.878870 Si / 1000 Ang^3
#
#
#
# Elastic Constant Matrix: (Units=GPa)
#
#
# Indices 1 2 3 4 5 6 
#
# 1 77.9689 17.1044 8.5589 0.0000 1.1040 0.0000
# 2 17.1044 104.2221 22.6997 0.0000 7.2031 0.0000
# 3 8.5589 22.6997 32.9014 0.0000 10.7327 0.0000
# 4 0.0000 0.0000 0.0000 34.2267 0.0000 -0.2864
# 5 1.1040 7.2031 10.7327 0.0000 27.2042 0.0000
# 6 0.0000 0.0000 0.0000 -0.2864 0.0000 28.0755
#
#
#
# Elastic Compliance Matrix: (Units=1/GPa)
#
#
# Indices 1 2 3 4 5 6 
#
# 1 0.013475 -0.001702 -0.002640 0.000000 0.000945 0.000000
# 2 -0.001702 0.011507 -0.007489 0.000000 -0.000023 0.000000
# 3 -0.002640 -0.007489 0.040819 0.000000 -0.014014 0.000000
# 4 0.000000 0.000000 0.000000 0.029219 0.000000 0.000298
# 5 0.000945 -0.000023 -0.014014 0.000000 0.042256 0.000000
# 6 0.000000 0.000000 0.000000 0.000298 0.000000 0.035621
#
#
# Mechanical properties :
#
#
# Convention : Reuss Voigt Hill
#
# Bulk Modulus (GPa) = 23.73010 34.64650 29.18830
# Shear Modulus (GPa) = 23.74121 29.01656 26.37889
#
# Velocity S-wave (km/s) = 3.45960 3.82471 3.64673
# Velocity P-wave (km/s) = 5.28410 6.08039 5.69618
#
# Compressibility (1/GPa) = 0.04214058
#
# Stress axis : x y z
#
# Youngs Moduli (GPa) = 74.20951 86.90484 24.49865
#
# Poissons Ratio (x) = 0.14790 0.06467
# Poissons Ratio (y) = 0.12630 0.18346
# Poissons Ratio (z) = 0.19588 0.65080
#
# Static dielectric constant tensor:
#      x y z
#    x 0.643390 0.000000 1.560980 
#    y 0.000000 1.560770 0.000000 
#    z 1.560980 0.000000 -0.422110 
# 
# From -- ./inp_files/227832.got.cif
#   From: 2010.05.17/outbox.cif.g08.bks.cpg/sg15_114_cif.got.tgz:227832.got - 2010.06.03 18:47:42.
