data_PCOD9264981
_publ_section_title
;
Structure prediction by ZEFSAII (Michael W. Deem and Ramdas Pophale) SiO2 
 PCOD9264981
Probable space group: C 2/C
;
_chemical_formula_sum "Si O2"
_cell_formula_units_Z 64
_cell_length_a 9.405771
_cell_length_b 13.621042
_cell_length_c 27.352055
_cell_angle_alpha 90.000000
_cell_angle_beta 68.085720
_cell_angle_gamma 90.000000
_cell_volume 3251.041429
_symmetry_space_group_name_H-M "C 2/C"
_symmetry_group_IT_number 15
_symmetry_cell_setting 'monoclinic'
loop_
_space_group_symop_operation_xyz
x,y,z
-x,y,1/2-z
-x,-y,-z
x,-y,1/2+z
1/2+x,1/2+y,z
1/2-x,1/2+y,1/2-z
1/2-x,1/2-y,-z
1/2+x,1/2-y,1/2+z
loop_
_atom_site_type_symbol
_atom_site_label
_atom_site_fract_x
_atom_site_fract_y
_atom_site_fract_z
Si Si1 0.155360 0.400471 0.262289
Si Si2 0.200765 0.228430 0.832981
Si Si3 0.985493 0.769631 0.660649
Si Si4 0.301137 0.408506 0.623947
Si Si5 0.964789 0.597382 0.198965
Si Si6 0.375968 0.815784 0.456486
Si Si7 0.880044 0.900338 0.063748
Si Si8 0.371616 0.721246 0.024672
O O1 0.281248 0.359186 0.208945
O O2 0.124224 0.317382 0.306571
O O3 0.159293 0.509198 0.283889
O O4 0.000000 0.406191 0.250000
O O5 0.371215 0.273720 0.820600
O O6 0.093844 0.312642 0.825505
O O7 0.144818 0.181550 0.890897
O O8 0.884144 0.864193 0.661087
O O9 0.061666 0.738731 0.599579
O O10 0.397411 0.497737 0.589249
O O11 0.296730 0.324257 0.582970
O O12 0.128313 0.441117 0.657929
O O13 0.000000 0.629893 0.250000
O O14 0.250000 0.750000 0.500000
O O15 0.276350 0.905850 0.448748
O O16 0.521545 0.814127 0.473566
O O17 0.016947 0.862044 0.012553
O O18 0.250000 0.750000 0.000000
#
# Coordination Sequence:
#
# PCOD9264981 Si02
#       8
#     8   8   8   8   8   8   8   8
#     4   9  18  34  56  77 104 143 179 213 265 330
#     4  10  20  36  57  78 105 141 181 222 262 318
#     4   9  18  34  53  75 104 141 179 217 260 316
#     4  11  21  35  56  81 109 144 180 221 273 325
#     4  11  21  35  56  83 109 140 180 224 271 323
#     4   8  16  31  53  72  99 143 180 209 258 323
#     4  10  19  36  56  78 108 149 185 214 267 337
#     4  10  20  35  54  80 111 141 180 234 276 308
#
# _framework density 19.685998999999999
#
# number of rings (size 3 to 8) (size 9 to 14) (size 15 to 20)
#    0.000    2.250    0.000    4.875    0.000    0.000 
#    0.000    6.875    0.000    0.000    0.000    0.000 
#    0.000    0.000    0.000    0.000    0.000    0.000 
#
# Total GULP energy -178330.834702 kJ/mol
# GULP energy per Si atom -5572.838584 kJ/mol
# Density = 1.964119 g / cm^3
# Si number density = 19.685999 Si / 1000 Ang^3
#
#
#
# Elastic Constant Matrix: (Units=GPa)
#
#
# Indices 1 2 3 4 5 6 
#
# 1 74.4626 22.8485 12.1109 0.0000 12.9117 0.0000
# 2 22.8485 59.5816 4.3563 0.0000 15.4013 0.0000
# 3 12.1109 4.3563 85.2362 0.0000 -4.8935 0.0000
# 4 0.0000 0.0000 0.0000 33.2339 0.0000 6.4805
# 5 12.9117 15.4013 -4.8935 0.0000 26.9311 0.0000
# 6 0.0000 0.0000 0.0000 6.4805 0.0000 23.3996
#
#
#
# Elastic Compliance Matrix: (Units=1/GPa)
#
#
# Indices 1 2 3 4 5 6 
#
# 1 0.016193 -0.004596 -0.002386 0.000000 -0.005569 0.000000
# 2 -0.004596 0.021238 -0.001014 0.000000 -0.010126 0.000000
# 3 -0.002386 -0.001014 0.012351 0.000000 0.003968 0.000000
# 4 0.000000 0.000000 0.000000 0.031808 0.000000 -0.008809
# 5 -0.005569 -0.010126 0.003968 0.000000 0.046314 0.000000
# 6 0.000000 0.000000 0.000000 -0.008809 0.000000 0.045175
#
#
# Mechanical properties :
#
#
# Convention : Reuss Voigt Hill
#
# Bulk Modulus (GPa) = 29.59357 33.10132 31.34744
# Shear Modulus (GPa) = 24.95842 28.71056 26.83449
#
# Velocity S-wave (km/s) = 3.56452 3.82308 3.69606
# Velocity P-wave (km/s) = 5.65743 6.02819 5.84575
#
# Compressibility (1/GPa) = 0.03379112
#
# Stress axis : x y z
#
# Youngs Moduli (GPa) = 61.75333 47.08576 80.96718
#
# Poissons Ratio (x) = 0.21641 0.19316
# Poissons Ratio (y) = 0.28382 0.08208
# Poissons Ratio (z) = 0.14733 0.04773
#
# Static dielectric constant tensor:
#      x y z
#    x 1.714200 0.000000 -0.002800 
#    y 0.000000 1.709030 0.000000 
#    z -0.002800 0.000000 1.713400 
# 
# From -- ./inp_files/288713.got.cif
#   From: 2010.05.17/outbox.cif.g08.bks.cpg/sg15_145_cif.got.tgz:288713.got - 2010.06.03 18:47:42.
