data_PCOD9264023
_publ_section_title
;
Structure prediction by ZEFSAII (Michael W. Deem and Ramdas Pophale) SiO2 
 PCOD9264023
Probable space group: C 2/C
;
_chemical_formula_sum "Si O2"
_cell_formula_units_Z 64
_cell_length_a 27.673081
_cell_length_b 14.493925
_cell_length_c 10.177346
_cell_angle_alpha 90.000000
_cell_angle_beta 112.286980
_cell_angle_gamma 90.000000
_cell_volume 3777.101991
_symmetry_space_group_name_H-M "C 2/C"
_symmetry_group_IT_number 15
_symmetry_cell_setting 'monoclinic'
loop_
_space_group_symop_operation_xyz
x,y,z
-x,y,1/2-z
-x,-y,-z
x,-y,1/2+z
1/2+x,1/2+y,z
1/2-x,1/2+y,1/2-z
1/2-x,1/2-y,-z
1/2+x,1/2-y,1/2+z
loop_
_atom_site_type_symbol
_atom_site_label
_atom_site_fract_x
_atom_site_fract_y
_atom_site_fract_z
Si Si1 0.239080 0.388628 0.634360
Si Si2 0.864853 0.721628 0.078549
Si Si3 0.813029 0.102848 0.462407
Si Si4 0.234758 0.605335 0.616544
Si Si5 0.966406 0.616363 0.584047
Si Si6 0.196539 0.112801 0.558125
Si Si7 0.960194 0.403408 0.588603
Si Si8 0.864165 0.724265 0.396606
O O1 0.275633 0.379818 0.799768
O O2 0.223786 0.495940 0.596343
O O3 0.275035 0.360200 0.548104
O O4 0.186048 0.334010 0.605931
O O5 0.913148 0.664691 0.071015
O O6 0.866209 0.721998 0.239368
O O7 0.860592 0.825806 0.018674
O O8 0.813716 0.667689 0.973638
O O9 0.780190 0.125089 0.559167
O O10 0.822441 0.993231 0.471828
O O11 0.258433 0.621514 0.784615
O O12 0.944291 0.511164 0.562440
O O13 0.917729 0.683075 0.508525
O O14 0.000000 0.632376 0.750000
O O15 0.007679 0.621435 0.508063
O O16 0.149204 0.175634 0.558540
O O17 0.000000 0.398231 0.750000
#
# Coordination Sequence:
#
# PCOD9264023 Si02
#       8
#     8   8   8   8   8   8   8   8
#     4  10  21  34  53  83 123 147 183 228 279 330
#     4  12  21  34  63  83 108 150 202 224 267 343
#     4  10  20  36  54  81 114 154 183 227 275 329
#     4  10  19  35  53  83 116 152 181 225 274 332
#     4  10  23  40  60  83 120 140 177 237 294 331
#     4  10  22  35  54  81 121 149 184 230 281 322
#     4  10  21  40  59  86 111 146 180 230 286 340
#     4  12  21  36  59  85 108 151 193 232 275 334
#
# _framework density 16.944206999999999
#
# number of rings (size 3 to 8) (size 9 to 14) (size 15 to 20)
#    0.000    1.500    3.750    2.250    0.000    2.000 
#    0.000    0.000    0.000    1.500    0.000    0.000 
#    0.000    0.000    0.000    0.000    0.000    0.000 
#
# Total GULP energy -178592.369723 kJ/mol
# GULP energy per Si atom -5581.011554 kJ/mol
# Density = 1.690564 g / cm^3
# Si number density = 16.944207 Si / 1000 Ang^3
#
#
#
# Elastic Constant Matrix: (Units=GPa)
#
#
# Indices 1 2 3 4 5 6 
#
# 1 82.8509 68.5522 40.4488 0.0000 4.0096 0.0000
# 2 68.5522 95.7787 33.1798 0.0000 10.3723 0.0000
# 3 40.4488 33.1798 87.2852 0.0000 -16.0789 0.0000
# 4 0.0000 0.0000 0.0000 20.9126 0.0000 0.5301
# 5 4.0096 10.3723 -16.0789 0.0000 23.0835 0.0000
# 6 0.0000 0.0000 0.0000 0.5301 0.0000 33.6388
#
#
#
# Elastic Compliance Matrix: (Units=1/GPa)
#
#
# Indices 1 2 3 4 5 6 
#
# 1 0.033272 -0.020914 -0.007803 0.000000 -0.001817 0.000000
# 2 -0.020914 0.027501 -0.002718 0.000000 -0.010618 0.000000
# 3 -0.007803 -0.002718 0.019022 0.000000 0.015826 0.000000
# 4 0.000000 0.000000 0.000000 0.047837 0.000000 -0.000754
# 5 -0.001817 -0.010618 0.015826 0.000000 0.059432 0.000000
# 6 0.000000 0.000000 0.000000 -0.000754 0.000000 0.029739
#
#
# Mechanical properties :
#
#
# Convention : Reuss Voigt Hill
#
# Bulk Modulus (GPa) = 59.08895 61.14183 60.11539
# Shear Modulus (GPa) = 17.52448 23.77590 20.65019
#
# Velocity S-wave (km/s) = 3.21946 3.74998 3.49480
# Velocity P-wave (km/s) = 6.98343 7.41029 7.20002
#
# Compressibility (1/GPa) = 0.01692364
#
# Stress axis : x y z
#
# Youngs Moduli (GPa) = 30.05524 36.36224 52.57206
#
# Poissons Ratio (x) = 0.76048 0.41024
# Poissons Ratio (y) = 0.62857 0.14290
# Poissons Ratio (z) = 0.23453 0.09884
#
# Static dielectric constant tensor:
#      x y z
#    x 1.531620 0.000000 -0.013580 
#    y 0.000000 1.624900 0.000000 
#    z -0.013580 0.000000 1.568350 
# 
# From -- ./inp_files/66266.got.cif
#   From: 2010.05.17/outbox.cif.g08.bks.cpg/sg15_34_cif.got.tgz:66266.got - 2010.06.03 18:47:42.
