data_PCOD9264064
_publ_section_title
;
Structure prediction by ZEFSAII (Michael W. Deem and Ramdas Pophale) SiO2 
 PCOD9264064
Probable space group: C 2/C
;
_chemical_formula_sum "Si O2"
_cell_formula_units_Z 64
_cell_length_a 25.415575
_cell_length_b 14.496220
_cell_length_c 10.208762
_cell_angle_alpha 90.000000
_cell_angle_beta 88.996899
_cell_angle_gamma 90.000000
_cell_volume 3760.635392
_symmetry_space_group_name_H-M "C 2/C"
_symmetry_group_IT_number 15
_symmetry_cell_setting 'monoclinic'
loop_
_space_group_symop_operation_xyz
x,y,z
-x,y,1/2-z
-x,-y,-z
x,-y,1/2+z
1/2+x,1/2+y,z
1/2-x,1/2+y,1/2-z
1/2-x,1/2-y,-z
1/2+x,1/2-y,1/2+z
loop_
_atom_site_type_symbol
_atom_site_label
_atom_site_fract_x
_atom_site_fract_y
_atom_site_fract_z
Si Si1 0.187852 0.900199 0.876314
Si Si2 0.268230 0.896796 0.105951
Si Si3 0.243101 0.387726 0.878306
Si Si4 0.541848 0.906494 0.863815
Si Si5 0.694838 0.615221 0.863806
Si Si6 0.140520 0.716245 0.280191
Si Si7 0.867647 0.273751 0.034836
Si Si8 0.529775 0.879848 0.381559
O O1 0.210796 0.884788 0.731171
O O2 0.141871 0.830290 0.915555
O O3 0.177465 0.009364 0.887236
O O4 0.234091 0.876964 0.977951
O O5 0.231945 0.877970 0.233768
O O6 0.320708 0.836564 0.097205
O O7 0.277484 0.006872 0.106685
O O8 0.194964 0.329358 0.825459
O O9 0.268733 0.358807 0.014371
O O10 0.500000 0.889336 0.750000
O O11 0.592763 0.844784 0.836325
O O12 0.552911 0.016336 0.862483
O O13 0.513165 0.884915 0.001267
O O14 0.645610 0.681567 0.840253
O O15 0.136806 0.720449 0.122790
O O16 0.923021 0.313718 0.079376
O O17 0.500000 0.853652 0.250000
#
# Coordination Sequence:
#
# PCOD9264064 Si02
#       8
#     8   8   8   8   8   8   8   8
#     4  10  20  36  55  79 116 152 184 225 274 328
#     4  10  19  35  54  83 118 152 183 222 275 333
#     4  10  21  34  52  83 121 146 181 230 273 322
#     4  10  21  40  60  84 116 144 177 231 288 332
#     4  10  22  35  53  83 119 150 182 231 275 317
#     4  12  21  35  60  85 108 150 195 225 269 336
#     4  12  21  35  62  83 106 152 195 223 272 340
#     4  10  23  40  59  85 115 141 178 234 287 329
#
# _framework density 17.018401999999998
#
# number of rings (size 3 to 8) (size 9 to 14) (size 15 to 20)
#    0.000    1.500    3.750    2.250    0.000    2.000 
#    0.000    0.000    0.000    1.500    0.000    0.000 
#    0.000    0.000    0.000    0.000    0.000    0.000 
#
# Total GULP energy -178657.454429 kJ/mol
# GULP energy per Si atom -5583.045451 kJ/mol
# Density = 1.697967 g / cm^3
# Si number density = 17.018402 Si / 1000 Ang^3
#
#
#
# Elastic Constant Matrix: (Units=GPa)
#
#
# Indices 1 2 3 4 5 6 
#
# 1 76.7221 65.5341 29.7433 0.0000 9.0091 0.0000
# 2 65.5341 96.4478 35.2962 0.0000 3.7896 0.0000
# 3 29.7433 35.2962 109.6037 0.0000 11.9248 0.0000
# 4 0.0000 0.0000 0.0000 18.6361 0.0000 1.1656
# 5 9.0091 3.7896 11.9248 0.0000 21.8746 0.0000
# 6 0.0000 0.0000 0.0000 1.1656 0.0000 33.1298
#
#
#
# Elastic Compliance Matrix: (Units=1/GPa)
#
#
# Indices 1 2 3 4 5 6 
#
# 1 0.033100 -0.021774 -0.000954 0.000000 -0.009340 0.000000
# 2 -0.021774 0.026078 -0.003161 0.000000 0.006173 0.000000
# 3 -0.000954 -0.003161 0.010947 0.000000 -0.005027 0.000000
# 4 0.000000 0.000000 0.000000 0.053778 0.000000 -0.001892
# 5 -0.009340 0.006173 -0.005027 0.000000 0.051233 0.000000
# 6 0.000000 0.000000 0.000000 -0.001892 0.000000 0.030251
#
#
# Mechanical properties :
#
#
# Convention : Reuss Voigt Hill
#
# Bulk Modulus (GPa) = 54.50537 60.43565 57.47051
# Shear Modulus (GPa) = 18.99119 24.87477 21.93298
#
# Velocity S-wave (km/s) = 3.34416 3.82729 3.59385
# Velocity P-wave (km/s) = 6.85624 7.42428 7.14591
#
# Compressibility (1/GPa) = 0.01834682
#
# Stress axis : x y z
#
# Youngs Moduli (GPa) = 30.21169 38.34708 91.34527
#
# Poissons Ratio (x) = 0.83498 0.08715
# Poissons Ratio (y) = 0.65784 0.28870
# Poissons Ratio (z) = 0.02882 0.12120
#
# Static dielectric constant tensor:
#      x y z
#    x 1.531980 0.000000 -0.003040 
#    y 0.000000 1.621140 0.000000 
#    z -0.003040 0.000000 1.572530 
# 
# From -- ./inp_files/61939.got.cif
#   From: 2010.05.17/outbox.cif.g08.bks.cpg/sg15_31_cif.got.tgz:61939.got - 2010.06.03 18:47:42.
