data_PCOD9264281
_publ_section_title
;
Structure prediction by ZEFSAII (Michael W. Deem and Ramdas Pophale) SiO2 
 PCOD9264281
Probable space group: C 2/C
;
_chemical_formula_sum "Si O2"
_cell_formula_units_Z 52
_cell_length_a 19.830261
_cell_length_b 12.797240
_cell_length_c 9.739337
_cell_angle_alpha 90.000000
_cell_angle_beta 97.903697
_cell_angle_gamma 90.000000
_cell_volume 2448.098447
_symmetry_space_group_name_H-M "C 2/C"
_symmetry_group_IT_number 15
_symmetry_cell_setting 'monoclinic'
loop_
_space_group_symop_operation_xyz
x,y,z
-x,y,1/2-z
-x,-y,-z
x,-y,1/2+z
1/2+x,1/2+y,z
1/2-x,1/2+y,1/2-z
1/2-x,1/2-y,-z
1/2+x,1/2-y,1/2+z
loop_
_atom_site_type_symbol
_atom_site_label
_atom_site_fract_x
_atom_site_fract_y
_atom_site_fract_z
Si Si1 0.000000 0.235418 0.250000
Si Si2 0.076382 0.606068 0.974325
Si Si3 0.248638 0.622745 0.762622
Si Si4 0.937768 0.380085 0.584819
Si Si5 0.743338 0.416984 0.556824
Si Si6 0.851300 0.706152 0.272100
Si Si7 0.631156 0.729372 0.150721
O O1 0.043659 0.310352 0.362879
O O2 0.063425 0.176909 0.196995
O O3 0.138725 0.645247 0.083117
O O4 0.015248 0.594275 0.068286
O O5 0.091450 0.497083 0.903804
O O6 0.249968 0.529313 0.870693
O O7 0.245299 0.583167 0.603317
O O8 0.320279 0.682477 0.795196
O O9 0.187207 0.708250 0.759525
O O10 0.920424 0.302963 0.704214
O O11 0.902374 0.323134 0.446752
O O12 0.798751 0.346411 0.651414
O O13 0.673341 0.355165 0.574505
#
# Coordination Sequence:
#
# PCOD9264281 Si02
#       7
#     4   8   8   8   8   8   8
#     4  10  24  38  60  92 138 154 202 266 314 384
#     4  10  23  32  57  95 121 163 189 255 308 384
#     4  11  23  40  65  93 124 168 212 266 313 374
#     4  10  19  35  57  86 126 153 202 237 308 383
#     4  11  23  40  65  89 125 166 214 263 308 377
#     4  11  21  38  61  86 124 163 208 247 315 375
#     4  10  20  41  61  88 125 166 202 252 326 366
#
# _framework density 21.240976
#
# number of rings (size 3 to 8) (size 9 to 14) (size 15 to 20)
#    0.000    1.538    3.077    2.308    8.615    1.231 
#    0.000    3.077    3.385    2.769    0.000    0.000 
#    0.000    0.000    0.000    0.000    0.000    0.000 
#
# Total GULP energy -144970.243665 kJ/mol
# GULP energy per Si atom -5575.778603 kJ/mol
# Density = 2.119263 g / cm^3
# Si number density = 21.240976 Si / 1000 Ang^3
#
#
#
# Elastic Constant Matrix: (Units=GPa)
#
#
# Indices 1 2 3 4 5 6 
#
# 1 116.6786 23.5270 22.6949 0.0000 -18.2115 0.0000
# 2 23.5270 47.6508 4.0662 0.0000 -6.3911 0.0000
# 3 22.6949 4.0662 56.6699 0.0000 7.3743 0.0000
# 4 0.0000 0.0000 0.0000 19.1093 0.0000 0.4173
# 5 -18.2115 -6.3911 7.3743 0.0000 29.0264 0.0000
# 6 0.0000 0.0000 0.0000 0.4173 0.0000 18.0352
#
#
#
# Elastic Compliance Matrix: (Units=1/GPa)
#
#
# Indices 1 2 3 4 5 6 
#
# 1 0.011691 -0.004272 -0.005386 0.000000 0.007763 0.000000
# 2 -0.004272 0.023465 -0.000307 0.000000 0.002565 0.000000
# 3 -0.005386 -0.000307 0.020967 0.000000 -0.008773 0.000000
# 4 0.000000 0.000000 0.000000 0.052357 0.000000 -0.001211
# 5 0.007763 0.002565 -0.008773 0.000000 0.042115 0.000000
# 6 0.000000 0.000000 0.000000 -0.001211 0.000000 0.055475
#
#
# Mechanical properties :
#
#
# Convention : Reuss Voigt Hill
#
# Bulk Modulus (GPa) = 27.62825 35.73063 31.67944
# Shear Modulus (GPa) = 21.00279 24.61490 22.80884
#
# Velocity S-wave (km/s) = 3.14791 3.40787 3.28046
# Velocity P-wave (km/s) = 5.12325 5.68707 5.41251
#
# Compressibility (1/GPa) = 0.03619484
#
# Stress axis : x y z
#
# Youngs Moduli (GPa) = 85.53530 42.61635 47.69503
#
# Poissons Ratio (x) = 0.18204 0.25687
# Poissons Ratio (y) = 0.36537 0.01463
# Poissons Ratio (z) = 0.46066 0.01307
#
# Static dielectric constant tensor:
#      x y z
#    x 1.905100 0.000000 -0.051860 
#    y 0.000000 1.736050 0.000000 
#    z -0.051860 0.000000 1.828340 
# 
# From -- ./inp_files/55374.got.cif
#   From: 2010.05.17/outbox.cif.g08.bks.cpg/sg15_28_cif.got.tgz:55374.got - 2010.06.03 18:47:42.
