data_PCOD9264528
_publ_section_title
;
Structure prediction by ZEFSAII (Michael W. Deem and Ramdas Pophale) SiO2 
 PCOD9264528
Probable space group: C 2/C
;
_chemical_formula_sum "Si O2"
_cell_formula_units_Z 56
_cell_length_a 14.611724
_cell_length_b 20.632714
_cell_length_c 17.863545
_cell_angle_alpha 90.000000
_cell_angle_beta 32.796909
_cell_angle_gamma 90.000000
_cell_volume 2917.121562
_symmetry_space_group_name_H-M "C 2/C"
_symmetry_group_IT_number 15
_symmetry_cell_setting 'monoclinic'
loop_
_space_group_symop_operation_xyz
x,y,z
-x,y,1/2-z
-x,-y,-z
x,-y,1/2+z
1/2+x,1/2+y,z
1/2-x,1/2+y,1/2-z
1/2-x,1/2-y,-z
1/2+x,1/2-y,1/2+z
loop_
_atom_site_type_symbol
_atom_site_label
_atom_site_fract_x
_atom_site_fract_y
_atom_site_fract_z
Si Si1 0.580461 0.678996 0.519546
Si Si2 0.493649 0.908177 0.945949
Si Si3 0.848866 0.096451 0.898598
Si Si4 0.089836 0.291398 0.770242
Si Si5 0.631345 0.552504 0.094837
Si Si6 0.521237 0.945565 0.380378
Si Si7 0.106479 0.067213 0.942753
O O1 0.693823 0.638267 0.500534
O O2 0.711169 0.716429 0.378279
O O3 0.479339 0.731214 0.635890
O O4 0.472777 0.625361 0.550780
O O5 0.567973 0.855122 0.837981
O O6 0.556179 0.980414 0.883476
O O7 0.298239 0.910025 0.058884
O O8 0.501073 0.901237 0.030118
O O9 0.000000 0.128805 0.750000
O O10 0.900449 0.024973 0.889121
O O11 0.000000 0.294364 0.750000
O O12 0.500000 0.575152 0.250000
O O13 0.589649 0.580996 0.042695
O O14 0.833989 0.558014 0.971486
O O15 0.692075 0.933445 0.215523
O O16 0.000000 0.000000 0.000000
#
# Coordination Sequence:
#
# PCOD9264528 Si02
#       7
#     8   8   8   8   8   8   8
#     4  12  26  40  63  93 133 173 221 258 318 394
#     4  10  22  37  62  93 130 173 217 263 320 379
#     4  10  19  35  59  91 134 169 207 256 314 382
#     4  12  26  42  61  92 136 182 214 258 320 397
#     4  10  23  40  64  98 131 164 210 275 335 388
#     4  10  23  39  67  94 131 169 218 273 330 381
#     4  12  24  41  67  97 129 170 220 272 330 386
#
# _framework density 19.197005000000001
#
# number of rings (size 3 to 8) (size 9 to 14) (size 15 to 20)
#    0.000    1.143    2.857    3.000   12.000    0.000 
#    0.000    0.000    0.000    0.857    0.000    0.000 
#    0.000    0.000    0.000    0.000    0.000    0.000 
#
# Total GULP energy -156090.380281 kJ/mol
# GULP energy per Si atom -5574.656439 kJ/mol
# Density = 1.915331 g / cm^3
# Si number density = 19.197005 Si / 1000 Ang^3
#
#
#
# Elastic Constant Matrix: (Units=GPa)
#
#
# Indices 1 2 3 4 5 6 
#
# 1 88.5705 40.4190 43.9972 -0.0031 25.3807 0.0017
# 2 40.4190 77.2772 45.2745 -0.0016 12.9267 0.0033
# 3 43.9972 45.2745 147.9352 0.0020 6.3791 0.0040
# 4 -0.0031 -0.0016 0.0020 20.8699 0.0042 14.8342
# 5 25.3807 12.9267 6.3791 0.0042 25.9647 -0.0025
# 6 0.0017 0.0033 0.0040 14.8342 -0.0025 16.7429
#
#
#
# Elastic Compliance Matrix: (Units=1/GPa)
#
#
# Indices 1 2 3 4 5 6 
#
# 1 0.020349 -0.005863 -0.003564 0.000021 -0.016097 -0.000021
# 2 -0.005863 0.018715 -0.003870 0.000009 -0.002636 -0.000010
# 3 -0.003564 -0.003870 0.008865 -0.000005 0.003232 0.000004
# 4 0.000021 0.000009 -0.000005 0.129419 -0.000056 -0.114665
# 5 -0.016097 -0.002636 0.003232 -0.000056 0.054767 0.000059
# 6 -0.000021 -0.000010 0.000004 -0.114665 0.000059 0.161320
#
#
# Mechanical properties :
#
#
# Convention : Reuss Voigt Hill
#
# Bulk Modulus (GPa) = 46.87061 63.68493 55.27777
# Shear Modulus (GPa) = 11.70575 24.98831 18.34703
#
# Velocity S-wave (km/s) = 2.47203 3.61179 3.09483
# Velocity P-wave (km/s) = 5.71109 7.11617 6.45199
#
# Compressibility (1/GPa) = 0.02133533
#
# Stress axis : x y z
#
# Youngs Moduli (GPa) = 49.14294 53.43202 112.80746
#
# Poissons Ratio (x) = 0.31326 0.40199
# Poissons Ratio (y) = 0.28812 0.43661
# Poissons Ratio (z) = 0.17512 0.20680
#
# Static dielectric constant tensor:
#      x y z
#    x 1.748130 -0.000010 0.022680 
#    y -0.000010 1.663080 0.000000 
#    z 0.022680 0.000000 1.725330 
# 
# From -- ./inp_files/206897.got.cif
#   From: 2010.05.17/outbox.cif.g08.bks.cpg/sg15_104_cif.got.tgz:206897.got - 2010.06.03 18:47:42.
