data_PCOD9264913
_publ_section_title
;
Structure prediction by ZEFSAII (Michael W. Deem and Ramdas Pophale) SiO2 
 PCOD9264913
Probable space group: C 2/C
;
_chemical_formula_sum "Si O2"
_cell_formula_units_Z 56
_cell_length_a 16.065476
_cell_length_b 9.897754
_cell_length_c 29.820251
_cell_angle_alpha 90.000000
_cell_angle_beta 143.089512
_cell_angle_gamma 90.000000
_cell_volume 2847.755648
_symmetry_space_group_name_H-M "C 2/C"
_symmetry_group_IT_number 15
_symmetry_cell_setting 'monoclinic'
loop_
_space_group_symop_operation_xyz
x,y,z
-x,y,1/2-z
-x,-y,-z
x,-y,1/2+z
1/2+x,1/2+y,z
1/2-x,1/2+y,1/2-z
1/2-x,1/2-y,-z
1/2+x,1/2-y,1/2+z
loop_
_atom_site_type_symbol
_atom_site_label
_atom_site_fract_x
_atom_site_fract_y
_atom_site_fract_z
Si Si1 0.121428 0.959791 0.990318
Si Si2 0.104729 0.038940 0.674864
Si Si3 0.361234 0.921386 0.531112
Si Si4 0.500573 0.779739 0.675425
Si Si5 0.290565 0.712496 0.423393
Si Si6 0.499307 0.819600 0.441057
Si Si7 0.705853 0.263843 0.721842
O O1 0.239738 0.999160 0.005144
O O2 0.111505 0.800696 0.995824
O O3 0.975386 0.996842 0.904094
O O4 0.149240 0.062520 0.042826
O O5 0.226228 0.147603 0.718812
O O6 0.001744 0.121740 0.662355
O O7 0.160013 0.905156 0.722645
O O8 0.436944 0.032140 0.532918
O O9 0.460906 0.862460 0.613101
O O10 0.310903 0.796516 0.478789
O O11 0.374416 0.801181 0.654685
O O12 0.663339 0.804194 0.754231
O O13 0.379571 0.791921 0.425546
O O14 0.422624 0.796414 0.360433
#
# Coordination Sequence:
#
# PCOD9264913 Si02
#       7
#     8   8   8   8   8   8   8
#     4  10  19  36  53  73 101 135 170 203 243 294
#     4   9  16  32  52  73  94 128 170 211 232 292
#     4  11  18  35  54  75  97 136 173 201 239 297
#     4   9  18  33  56  70  95 133 174 197 238 299
#     4  11  19  35  52  74 103 136 164 200 252 300
#     4  11  23  29  50  82 108 125 158 216 255 284
#     4   9  18  31  48  75  99 124 167 203 250 283
#
# _framework density 19.664608999999999
#
# number of rings (size 3 to 8) (size 9 to 14) (size 15 to 20)
#    0.857    1.143    2.857    3.000    0.000    0.571 
#    0.000    0.000    0.000    0.000    0.000    2.000 
#    0.000    0.000    0.000    0.000    0.000    0.000 
#
# Total GULP energy -155872.602259 kJ/mol
# GULP energy per Si atom -5566.878652 kJ/mol
# Density = 1.961985 g / cm^3
# Si number density = 19.664609 Si / 1000 Ang^3
#
#
#
# Elastic Constant Matrix: (Units=GPa)
#
#
# Indices 1 2 3 4 5 6 
#
# 1 32.0707 -10.6129 -11.6937 0.0000 -4.8365 0.0000
# 2 -10.6129 71.4267 12.4862 0.0000 5.4816 0.0000
# 3 -11.6937 12.4862 26.9902 0.0000 13.7244 0.0000
# 4 0.0000 0.0000 0.0000 17.7467 0.0000 4.4551
# 5 -4.8365 5.4816 13.7244 0.0000 17.9239 0.0000
# 6 0.0000 0.0000 0.0000 4.4551 0.0000 28.8514
#
#
#
# Elastic Compliance Matrix: (Units=1/GPa)
#
#
# Indices 1 2 3 4 5 6 
#
# 1 0.037746 0.002944 0.016819 0.000000 -0.003594 0.000000
# 2 0.002944 0.015478 -0.006357 0.000000 0.000928 0.000000
# 3 0.016819 -0.006357 0.072025 0.000000 -0.048668 0.000000
# 4 0.000000 0.000000 0.000000 0.058621 0.000000 -0.009052
# 5 -0.003594 0.000928 -0.048668 0.000000 0.091803 0.000000
# 6 0.000000 0.000000 0.000000 -0.009052 0.000000 0.036058
#
#
# Mechanical properties :
#
#
# Convention : Reuss Voigt Hill
#
# Bulk Modulus (GPa) = 6.57627 12.31633 9.44630
# Shear Modulus (GPa) = 14.89843 22.25827 18.57835
#
# Velocity S-wave (km/s) = 2.75549 3.36801 3.07703
# Velocity P-wave (km/s) = 3.67084 4.62617 4.17592
#
# Compressibility (1/GPa) = 0.15206178
#
# Stress axis : x y z
#
# Youngs Moduli (GPa) = 26.49285 64.60851 13.88397
#
# Poissons Ratio (x) = -0.19021 -0.23352
# Poissons Ratio (y) = -0.07800 0.08826
# Poissons Ratio (z) = -0.44558 0.41071
#
# Static dielectric constant tensor:
#      x y z
#    x 1.729480 0.000000 0.005090 
#    y 0.000000 1.707950 0.000000 
#    z 0.005090 0.000000 1.708350 
# 
# From -- ./inp_files/315532.got.cif
#   From: 2010.05.17/outbox.cif.g08.bks.cpg/sg15_158_cif.got.tgz:315532.got - 2010.06.03 18:47:42.
