data_PCOD9264845
_publ_section_title
;
Structure prediction by ZEFSAII (Michael W. Deem and Ramdas Pophale) SiO2 
 PCOD9264845
Probable space group: C 2/C
;
_chemical_formula_sum "Si O2"
_cell_formula_units_Z 52
_cell_length_a 8.417941
_cell_length_b 13.149880
_cell_length_c 24.183813
_cell_angle_alpha 90.000000
_cell_angle_beta 61.429519
_cell_angle_gamma 90.000000
_cell_volume 2351.042369
_symmetry_space_group_name_H-M "C 2/C"
_symmetry_group_IT_number 15
_symmetry_cell_setting 'monoclinic'
loop_
_space_group_symop_operation_xyz
x,y,z
-x,y,1/2-z
-x,-y,-z
x,-y,1/2+z
1/2+x,1/2+y,z
1/2-x,1/2+y,1/2-z
1/2-x,1/2-y,-z
1/2+x,1/2-y,1/2+z
loop_
_atom_site_type_symbol
_atom_site_label
_atom_site_fract_x
_atom_site_fract_y
_atom_site_fract_z
Si Si1 0.851432 0.893282 0.171337
Si Si2 0.949115 0.478165 0.922202
Si Si3 0.246005 0.408865 0.438006
Si Si4 0.960544 0.795419 0.554322
Si Si5 0.500000 0.273622 0.250000
Si Si6 0.180594 0.591059 0.161267
Si Si7 0.262131 0.810600 0.417703
O O1 0.900661 0.843495 0.221393
O O2 0.756327 0.814790 0.144785
O O3 0.043968 0.918214 0.110255
O O4 0.726803 0.994364 0.191413
O O5 0.975707 0.425680 0.858442
O O6 0.849643 0.583569 0.923469
O O7 0.133722 0.506239 0.922608
O O8 0.823062 0.420656 0.987607
O O9 0.175156 0.299450 0.428950
O O10 0.851336 0.892148 0.592561
O O11 0.068571 0.802640 0.479343
O O12 0.110041 0.773496 0.576558
O O13 0.642248 0.194470 0.199705
#
# Coordination Sequence:
#
# PCOD9264845 Si02
#       7
#     8   8   8   8   4   8   8
#     4  11  24  45  66  89 129 172 219 279 321 385
#     4   9  20  36  62  99 131 166 203 265 340 402
#     4  10  19  35  65 100 134 163 205 267 334 406
#     4  10  19  36  64  99 133 160 205 258 336 409
#     4  12  28  48  64  94 126 178 246 272 310 382
#     4  11  24  45  66  89 128 175 215 278 328 381
#     4   9  20  37  61  98 132 163 203 261 335 405
#
# _framework density 22.117849
#
# number of rings (size 3 to 8) (size 9 to 14) (size 15 to 20)
#    0.000    1.846    1.538    1.846    2.154    6.154 
#    5.538    0.000    0.000    0.000    0.000    0.000 
#    0.000    0.000    0.000    0.000    0.000    0.000 
#
# Total GULP energy -145288.028558 kJ/mol
# GULP energy per Si atom -5588.001098 kJ/mol
# Density = 2.206751 g / cm^3
# Si number density = 22.117849 Si / 1000 Ang^3
#
#
#
# Elastic Constant Matrix: (Units=GPa)
#
#
# Indices 1 2 3 4 5 6 
#
# 1 83.7108 33.1013 41.4146 0.0000 35.7826 0.0000
# 2 33.1013 61.2291 31.9520 0.0000 31.3830 0.0000
# 3 41.4146 31.9520 60.2814 0.0000 36.2537 0.0000
# 4 0.0000 0.0000 0.0000 31.4519 0.0000 4.8301
# 5 35.7826 31.3830 36.2537 0.0000 46.4263 0.0000
# 6 0.0000 0.0000 0.0000 4.8301 0.0000 25.6764
#
#
#
# Elastic Compliance Matrix: (Units=1/GPa)
#
#
# Indices 1 2 3 4 5 6 
#
# 1 0.020168 -0.003043 -0.007790 0.000000 -0.007404 0.000000
# 2 -0.003043 0.026582 -0.004908 0.000000 -0.011791 0.000000
# 3 -0.007790 -0.004908 0.035704 0.000000 -0.018559 0.000000
# 4 0.000000 0.000000 0.000000 0.032740 0.000000 -0.006159
# 5 -0.007404 -0.011791 -0.018559 0.000000 0.049709 0.000000
# 6 0.000000 0.000000 0.000000 -0.006159 0.000000 0.040105
#
#
# Mechanical properties :
#
#
# Convention : Reuss Voigt Hill
#
# Bulk Modulus (GPa) = 19.61883 46.46193 33.04038
# Shear Modulus (GPa) = 19.72543 27.29447 23.50995
#
# Velocity S-wave (km/s) = 2.98960 3.51671 3.26381
# Velocity P-wave (km/s) = 4.56139 6.12714 5.40130
#
# Compressibility (1/GPa) = 0.05097143
#
# Stress axis : x y z
#
# Youngs Moduli (GPa) = 49.58315 37.61994 28.00838
#
# Poissons Ratio (x) = 0.11447 0.21819
# Poissons Ratio (y) = 0.15088 0.13747
# Poissons Ratio (z) = 0.38626 0.18464
#
# Static dielectric constant tensor:
#      x y z
#    x 1.825660 0.000000 0.010030 
#    y 0.000000 1.821870 0.000000 
#    z 0.010030 0.000000 1.833460 
# 
# From -- ./inp_files/287899.got.cif
#   From: 2010.05.17/outbox.cif.g08.bks.cpg/sg15_144_cif.got.tgz:287899.got - 2010.06.03 18:47:42.
