data_PCOD9264075
_publ_section_title
;
Structure prediction by ZEFSAII (Michael W. Deem and Ramdas Pophale) SiO2 
 PCOD9264075
Probable space group: C 2/C
;
_chemical_formula_sum "Si O2"
_cell_formula_units_Z 40
_cell_length_a 24.733844
_cell_length_b 13.389626
_cell_length_c 9.343935
_cell_angle_alpha 90.000000
_cell_angle_beta 30.731526
_cell_angle_gamma 90.000000
_cell_volume 1581.336648
_symmetry_space_group_name_H-M "C 2/C"
_symmetry_group_IT_number 15
_symmetry_cell_setting 'monoclinic'
loop_
_space_group_symop_operation_xyz
x,y,z
-x,y,1/2-z
-x,-y,-z
x,-y,1/2+z
1/2+x,1/2+y,z
1/2-x,1/2+y,1/2-z
1/2-x,1/2-y,-z
1/2+x,1/2-y,1/2+z
loop_
_atom_site_type_symbol
_atom_site_label
_atom_site_fract_x
_atom_site_fract_y
_atom_site_fract_z
Si Si1 0.142265 0.296997 0.810098
Si Si2 0.234219 0.490679 0.039682
Si Si3 0.074620 0.187312 0.702938
Si Si4 0.703395 0.197325 0.466034
Si Si5 0.895809 0.036125 0.416582
O O1 0.250000 0.250000 0.500000
O O2 0.164421 0.416385 0.752946
O O3 0.063701 0.251814 0.870126
O O4 0.128901 0.265747 0.006251
O O5 0.164727 0.407654 0.118028
O O6 0.316930 0.527106 0.731434
O O7 0.310246 0.439046 0.986642
O O8 0.190427 0.184521 0.370214
O O9 0.055048 0.068675 0.760089
O O10 0.000000 0.229455 0.750000
O O11 0.750000 0.250000 0.500000
O O12 0.000000 0.084578 0.250000
#
# Coordination Sequence:
#
# PCOD9264075 Si02
#       5
#     8   8   8   8   8
#     4  10  19  35  55  76 108 148 183 221 272 324
#     4  11  19  34  53  81 111 147 180 225 276 327
#     4   9  19  37  57  80 115 148 180 225 282 327
#     4  10  22  35  56  84 108 144 192 229 266 330
#     4  10  20  32  51  84 116 143 178 219 283 342
#
# _framework density 25.295055999999999
#
# number of rings (size 3 to 8) (size 9 to 14) (size 15 to 20)
#    0.000    2.000    6.000    0.600    5.600    0.000 
#    0.000    1.000    0.000    4.800    0.000    0.000 
#    0.000    0.000    0.000    0.000    0.000    0.000 
#
# Total GULP energy -111436.134514 kJ/mol
# GULP energy per Si atom -5571.806726 kJ/mol
# Density = 2.523748 g / cm^3
# Si number density = 25.295056 Si / 1000 Ang^3
#
#
#
# Elastic Constant Matrix: (Units=GPa)
#
#
# Indices 1 2 3 4 5 6 
#
# 1 248.9543 76.8683 23.0593 0.0000 48.8329 0.0000
# 2 76.8683 100.6056 19.4641 0.0000 16.5378 0.0000
# 3 23.0593 19.4641 61.2968 0.0000 21.8844 0.0000
# 4 0.0000 0.0000 0.0000 20.0826 0.0000 6.2553
# 5 48.8329 16.5378 21.8844 0.0000 40.1119 0.0000
# 6 0.0000 0.0000 0.0000 6.2553 0.0000 47.4969
#
#
#
# Elastic Compliance Matrix: (Units=1/GPa)
#
#
# Indices 1 2 3 4 5 6 
#
# 1 0.006530 -0.004099 0.001341 0.000000 -0.006991 0.000000
# 2 -0.004099 0.013493 -0.003152 0.000000 0.001147 0.000000
# 3 0.001341 -0.003152 0.021025 0.000000 -0.011804 0.000000
# 4 0.000000 0.000000 0.000000 0.051924 0.000000 -0.006838
# 5 -0.006991 0.001147 -0.011804 0.000000 0.039408 0.000000
# 6 0.000000 0.000000 0.000000 -0.006838 0.000000 0.021955
#
#
# Mechanical properties :
#
#
# Convention : Reuss Voigt Hill
#
# Bulk Modulus (GPa) = 34.21472 72.18226 53.19849
# Shear Modulus (GPa) = 28.42574 40.96929 34.69751
#
# Velocity S-wave (km/s) = 3.35590 4.02886 3.70768
# Velocity P-wave (km/s) = 5.34525 7.08804 6.27742
#
# Compressibility (1/GPa) = 0.02922719
#
# Stress axis : x y z
#
# Youngs Moduli (GPa) = 153.15021 74.11188 47.56316
#
# Poissons Ratio (x) = 0.30380 -0.06379
# Poissons Ratio (y) = 0.62780 0.14992
# Poissons Ratio (z) = -0.20540 0.23360
#
# Static dielectric constant tensor:
#      x y z
#    x 5.455990 0.000000 -0.324120 
#    y 0.000000 2.150880 0.000000 
#    z -0.324120 0.000000 2.003520 
# 
# From -- ./inp_files/38079.got.cif
#   From: 2010.05.17/outbox.cif.g08.bks.cpg/sg15_20_cif.got.tgz:38079.got - 2010.06.03 18:47:42.
