data_PCOD9264964
_publ_section_title
;
Structure prediction by ZEFSAII (Michael W. Deem and Ramdas Pophale) SiO2 
 PCOD9264964
Probable space group: C 2/C
;
_chemical_formula_sum "Si O2"
_cell_formula_units_Z 52
_cell_length_a 21.660802
_cell_length_b 7.361744
_cell_length_c 12.131860
_cell_angle_alpha 90.000000
_cell_angle_beta 69.555769
_cell_angle_gamma 90.000000
_cell_volume 1812.708929
_symmetry_space_group_name_H-M "C 2/C"
_symmetry_group_IT_number 15
_symmetry_cell_setting 'monoclinic'
loop_
_space_group_symop_operation_xyz
x,y,z
-x,y,1/2-z
-x,-y,-z
x,-y,1/2+z
1/2+x,1/2+y,z
1/2-x,1/2+y,1/2-z
1/2-x,1/2-y,-z
1/2+x,1/2-y,1/2+z
loop_
_atom_site_type_symbol
_atom_site_label
_atom_site_fract_x
_atom_site_fract_y
_atom_site_fract_z
Si Si1 0.083677 0.210325 0.372571
Si Si2 0.890666 0.294092 0.812792
Si Si3 0.892428 0.957709 0.941726
Si Si4 0.219024 0.183195 0.204077
Si Si5 0.246649 0.436371 0.581063
Si Si6 0.000000 0.599716 0.750000
Si Si7 0.364099 0.098120 0.079252
O O1 0.078820 0.054226 0.465542
O O2 0.141569 0.143528 0.253412
O O3 0.023145 0.269214 0.334426
O O4 0.103685 0.400359 0.422015
O O5 0.820175 0.339657 0.916479
O O6 0.940307 0.458455 0.805970
O O7 0.875974 0.303989 0.691172
O O8 0.919716 0.103714 0.835921
O O9 0.813078 0.996675 0.981625
O O10 0.890303 0.742688 0.972638
O O11 0.221204 0.380289 0.152148
O O12 0.231024 0.182496 0.327936
O O13 0.284333 0.086410 0.115966
#
# Coordination Sequence:
#
# PCOD9264964 Si02
#       7
#     8   8   8   8   8   4   8
#     4  10  19  36  55  84 111 150 196 226 288 337
#     4  10  19  37  56  84 117 153 193 227 290 343
#     4  10  21  34  62  87 112 148 193 245 282 336
#     4   9  13  28  53  78 105 143 186 222 276 338
#     4   9  16  28  55  80 110 144 180 234 283 329
#     4  10  20  36  60  78 116 162 186 230 282 346
#     4   9  19  36  58  84 116 151 184 239 294 333
#
# _framework density 28.686350000000001
#
# number of rings (size 3 to 8) (size 9 to 14) (size 15 to 20)
#    0.000    2.462    4.615    0.462    0.000    0.615 
#    0.000    9.231    3.385    6.462    0.000    0.000 
#    0.000    0.000    0.000    0.000    0.000    0.000 
#
# Total GULP energy -145411.196456 kJ/mol
# GULP energy per Si atom -5592.738325 kJ/mol
# Density = 2.862106 g / cm^3
# Si number density = 28.686350 Si / 1000 Ang^3
#
#
#
# Elastic Constant Matrix: (Units=GPa)
#
#
# Indices 1 2 3 4 5 6 
#
# 1 187.6078 27.4671 28.6604 0.0000 0.6679 0.0000
# 2 27.4671 164.5332 29.2668 0.0000 7.9479 0.0000
# 3 28.6604 29.2668 64.8233 0.0000 -3.6240 0.0000
# 4 0.0000 0.0000 0.0000 58.8370 0.0000 -2.5013
# 5 0.6679 7.9479 -3.6240 0.0000 32.1003 0.0000
# 6 0.0000 0.0000 0.0000 -2.5013 0.0000 68.3667
#
#
#
# Elastic Compliance Matrix: (Units=1/GPa)
#
#
# Indices 1 2 3 4 5 6 
#
# 1 0.005764 -0.000538 -0.002320 0.000000 -0.000249 0.000000
# 2 -0.000538 0.006787 -0.002938 0.000000 -0.002001 0.000000
# 3 -0.002320 -0.002938 0.017935 0.000000 0.002801 0.000000
# 4 0.000000 0.000000 0.000000 0.017023 0.000000 0.000623
# 5 -0.000249 -0.002001 0.002801 0.000000 0.031969 0.000000
# 6 0.000000 0.000000 0.000000 0.000623 0.000000 0.014650
#
#
# Mechanical properties :
#
#
# Convention : Reuss Voigt Hill
#
# Bulk Modulus (GPa) = 52.92377 65.30586 59.11482
# Shear Modulus (GPa) = 44.63579 53.96548 49.30063
#
# Velocity S-wave (km/s) = 3.94889 4.34201 4.15011
# Velocity P-wave (km/s) = 6.26744 6.92476 6.60428
#
# Compressibility (1/GPa) = 0.01889510
#
# Stress axis : x y z
#
# Youngs Moduli (GPa) = 173.48324 147.34317 55.75573
#
# Poissons Ratio (x) = 0.07922 0.12934
# Poissons Ratio (y) = 0.09327 0.16383
# Poissons Ratio (z) = 0.40243 0.43294
#
# Static dielectric constant tensor:
#      x y z
#    x 2.206700 0.000000 -0.006660 
#    y 0.000000 2.140620 0.000000 
#    z -0.006660 0.000000 2.340830 
# 
# From -- ./inp_files/166242.got.cif
#   From: 2010.05.17/outbox.cif.g08.bks.cpg/sg15_84_cif.got.tgz:166242.got - 2010.06.03 18:47:42.
