data_PCOD9264712
_publ_section_title
;
Structure prediction by ZEFSAII (Michael W. Deem and Ramdas Pophale) SiO2 
 PCOD9264712
Probable space group: C 2/C
;
_chemical_formula_sum "Si O2"
_cell_formula_units_Z 56
_cell_length_a 4.996383
_cell_length_b 29.653028
_cell_length_c 20.096355
_cell_angle_alpha 90.000000
_cell_angle_beta 115.703531
_cell_angle_gamma 90.000000
_cell_volume 2682.817289
_symmetry_space_group_name_H-M "C 2/C"
_symmetry_group_IT_number 15
_symmetry_cell_setting 'monoclinic'
loop_
_space_group_symop_operation_xyz
x,y,z
-x,y,1/2-z
-x,-y,-z
x,-y,1/2+z
1/2+x,1/2+y,z
1/2-x,1/2+y,1/2-z
1/2-x,1/2-y,-z
1/2+x,1/2-y,1/2+z
loop_
_atom_site_type_symbol
_atom_site_label
_atom_site_fract_x
_atom_site_fract_y
_atom_site_fract_z
Si Si1 0.397303 0.325944 0.036170
Si Si2 0.265637 0.919510 0.415440
Si Si3 0.851760 0.261963 0.936196
Si Si4 0.607132 0.375765 0.592473
Si Si5 0.213934 0.469343 0.952317
Si Si6 0.236603 0.159153 0.333535
Si Si7 0.896681 0.542067 0.662906
O O1 0.285699 0.368251 0.066185
O O2 0.596591 0.287300 0.090588
O O3 0.532526 0.348162 0.984318
O O4 0.133325 0.294470 0.979732
O O5 0.415045 0.949529 0.491465
O O6 0.438886 0.920693 0.364791
O O7 0.946623 0.943295 0.371948
O O8 0.678554 0.293756 0.866503
O O9 0.750000 0.250000 0.000000
O O10 0.682053 0.424376 0.573245
O O11 0.368219 0.377828 0.624433
O O12 0.919340 0.351300 0.646673
O O13 0.044821 0.498212 0.877664
O O14 0.500000 0.500000 0.000000
O O15 0.000000 0.156619 0.250000
O O16 0.000000 0.536992 0.750000
#
# Coordination Sequence:
#
# PCOD9264712 Si02
#       7
#     8   8   8   8   8   8   8
#     4   9  20  35  60  89 110 149 195 252 290 348
#     4  10  22  39  63  86 118 156 206 247 296 357
#     4  10  19  35  62  87 115 147 199 246 300 344
#     4  10  21  38  59  87 117 154 196 245 302 355
#     4   9  21  39  64  92 118 155 209 253 297 357
#     4  11  23  38  57  85 125 160 192 240 306 368
#     4  11  23  39  59  85 123 162 197 249 304 353
#
# _framework density 20.87358
#
# number of rings (size 3 to 8) (size 9 to 14) (size 15 to 20)
#    0.000    2.000    1.429    1.286    2.000   10.286 
#    0.000    0.714    3.143    0.000    0.000    0.000 
#    0.000    0.000    0.000    0.000    0.000    0.000 
#
# Total GULP energy -156054.432457 kJ/mol
# GULP energy per Si atom -5573.372588 kJ/mol
# Density = 2.082607 g / cm^3
# Si number density = 20.873580 Si / 1000 Ang^3
#
#
#
# Elastic Constant Matrix: (Units=GPa)
#
#
# Indices 1 2 3 4 5 6 
#
# 1 62.2673 -6.8235 18.1922 0.0000 -5.1975 0.0000
# 2 -6.8235 109.7761 41.3339 0.0000 3.1313 0.0000
# 3 18.1922 41.3339 111.5431 0.0000 -10.8635 0.0000
# 4 0.0000 0.0000 0.0000 16.4308 0.0000 -2.4680
# 5 -5.1975 3.1313 -10.8635 0.0000 27.9668 0.0000
# 6 0.0000 0.0000 0.0000 -2.4680 0.0000 18.0042
#
#
#
# Elastic Compliance Matrix: (Units=1/GPa)
#
#
# Indices 1 2 3 4 5 6 
#
# 1 0.017503 0.002393 -0.003586 0.000000 0.001592 0.000000
# 2 0.002393 0.011131 -0.004774 0.000000 -0.002656 0.000000
# 3 -0.003586 -0.004774 0.011751 0.000000 0.004433 0.000000
# 4 0.000000 0.000000 0.000000 0.062141 0.000000 0.008518
# 5 0.001592 -0.002656 0.004433 0.000000 0.038072 0.000000
# 6 0.000000 0.000000 0.000000 0.008518 0.000000 0.056710
#
#
# Mechanical properties :
#
#
# Convention : Reuss Voigt Hill
#
# Bulk Modulus (GPa) = 35.14898 43.22130 39.18514
# Shear Modulus (GPa) = 22.85969 27.87262 25.36615
#
# Velocity S-wave (km/s) = 3.31289 3.65815 3.48979
# Velocity P-wave (km/s) = 5.61331 6.21240 5.92044
#
# Compressibility (1/GPa) = 0.02845033
#
# Stress axis : x y z
#
# Youngs Moduli (GPa) = 57.13412 89.83546 85.10071
#
# Poissons Ratio (x) = -0.21497 0.30520
# Poissons Ratio (y) = -0.13672 0.40626
# Poissons Ratio (z) = 0.20490 0.42886
#
# Static dielectric constant tensor:
#      x y z
#    x 1.845380 0.000000 0.013780 
#    y 0.000000 1.831780 0.000000 
#    z 0.013780 0.000000 1.783850 
# 
# From -- ./inp_files/186485.got.cif
#   From: 2010.05.17/outbox.cif.g08.bks.cpg/sg15_94_cif.got.tgz:186485.got - 2010.06.03 18:47:42.
