data_PCOD9264401
_publ_section_title
;
Structure prediction by ZEFSAII (Michael W. Deem and Ramdas Pophale) SiO2 
 PCOD9264401
Probable space group: C 2/C
;
_chemical_formula_sum "Si O2"
_cell_formula_units_Z 60
_cell_length_a 30.563312
_cell_length_b 19.385824
_cell_length_c 15.753023
_cell_angle_alpha 90.000000
_cell_angle_beta 160.694501
_cell_angle_gamma 90.000000
_cell_volume 3085.730333
_symmetry_space_group_name_H-M "C 2/C"
_symmetry_group_IT_number 15
_symmetry_cell_setting 'monoclinic'
loop_
_space_group_symop_operation_xyz
x,y,z
-x,y,1/2-z
-x,-y,-z
x,-y,1/2+z
1/2+x,1/2+y,z
1/2-x,1/2+y,1/2-z
1/2-x,1/2-y,-z
1/2+x,1/2-y,1/2+z
loop_
_atom_site_type_symbol
_atom_site_label
_atom_site_fract_x
_atom_site_fract_y
_atom_site_fract_z
Si Si1 0.120923 0.707927 0.901638
Si Si2 0.279692 0.097837 0.294067
Si Si3 0.342960 0.958158 0.640407
Si Si4 0.000000 0.935603 0.250000
Si Si5 0.986592 0.395059 0.411752
Si Si6 0.581483 0.511233 0.235249
Si Si7 0.659811 0.939165 0.049500
Si Si8 0.359320 0.364605 0.543128
O O1 0.170698 0.785649 0.989034
O O2 0.000000 0.710990 0.750000
O O3 0.088632 0.674795 0.750638
O O4 0.209503 0.649408 0.107618
O O5 0.389749 0.111295 0.425346
O O6 0.308495 0.018855 0.372015
O O7 0.133791 0.106121 0.991319
O O8 0.293193 0.927521 0.460847
O O9 0.407396 0.034323 0.744594
O O10 0.219592 0.970830 0.476176
O O11 0.454099 0.910315 0.887157
O O12 0.000176 0.981588 0.334939
O O13 0.621398 0.587962 0.338217
O O14 0.500000 0.500000 0.000000
O O15 0.742732 0.895736 0.270089
O O16 0.500000 0.929473 0.750000
O O17 0.500000 0.367200 0.750000
#
# Coordination Sequence:
#
# PCOD9264401 Si02
#       8
#     8   8   8   4   8   8   8   8
#     4   9  20  37  66  84 116 164 211 244 308 380
#     4  11  18  38  60  90 114 160 212 252 306 367
#     4  11  21  34  62  92 124 148 206 262 303 360
#     4  12  22  38  62  84 132 164 200 264 310 368
#     4  10  19  35  58  90 116 153 202 260 302 362
#     4  12  24  38  62  96 125 162 210 256 315 374
#     4  12  21  37  66  93 123 160 209 265 310 359
#     4  11  22  42  63  89 125 171 206 249 314 382
#
# _framework density 19.444343
#
# number of rings (size 3 to 8) (size 9 to 14) (size 15 to 20)
#    0.000    1.067    6.000    2.000    1.867    0.000 
#    1.200    0.667    2.933    3.200    0.000    0.000 
#    0.000    0.000    0.000    0.000    0.000    0.000 
#
# Total GULP energy -167302.703923 kJ/mol
# GULP energy per Si atom -5576.756797 kJ/mol
# Density = 1.940009 g / cm^3
# Si number density = 19.444343 Si / 1000 Ang^3
#
#
#
# Elastic Constant Matrix: (Units=GPa)
#
#
# Indices 1 2 3 4 5 6 
#
# 1 68.7045 28.1868 23.4298 0.0000 -13.2666 0.0000
# 2 28.1868 133.6740 57.1471 0.0000 -32.2849 0.0000
# 3 23.4298 57.1471 113.1865 0.0000 -15.5006 0.0000
# 4 0.0000 0.0000 0.0000 22.3735 0.0000 -6.5108
# 5 -13.2666 -32.2849 -15.5006 0.0000 45.3158 0.0000
# 6 0.0000 0.0000 0.0000 -6.5108 0.0000 19.0397
#
#
#
# Elastic Compliance Matrix: (Units=1/GPa)
#
#
# Indices 1 2 3 4 5 6 
#
# 1 0.016594 -0.001945 -0.002075 0.000000 0.002763 0.000000
# 2 -0.001945 0.011220 -0.004454 0.000000 0.005901 0.000000
# 3 -0.002075 -0.004454 0.011536 0.000000 0.000165 0.000000
# 4 0.000000 0.000000 0.000000 0.049635 0.000000 0.016973
# 5 0.002763 0.005901 0.000165 0.000000 0.027137 0.000000
# 6 0.000000 0.000000 0.000000 0.016973 0.000000 0.058326
#
#
# Mechanical properties :
#
#
# Convention : Reuss Voigt Hill
#
# Bulk Modulus (GPa) = 44.63770 59.23249 51.93510
# Shear Modulus (GPa) = 25.14285 31.13256 28.13771
#
# Velocity S-wave (km/s) = 3.59983 4.00573 3.80819
# Velocity P-wave (km/s) = 6.34703 7.20578 6.78999
#
# Compressibility (1/GPa) = 0.02240259
#
# Stress axis : x y z
#
# Youngs Moduli (GPa) = 60.26283 89.12275 86.68460
#
# Poissons Ratio (x) = 0.17333 0.17985
# Poissons Ratio (y) = 0.11720 0.38613
# Poissons Ratio (z) = 0.12503 0.39699
#
# Static dielectric constant tensor:
#      x y z
#    x 1.720620 0.000000 0.012980 
#    y 0.000000 1.675520 0.000000 
#    z 0.012980 0.000000 1.735830 
# 
# From -- ./inp_files/183092.got.cif
#   From: 2010.05.17/outbox.cif.g08.bks.cpg/sg15_92_cif.got.tgz:183092.got - 2010.06.03 18:47:42.
