data_PCOD9264044
_publ_section_title
;
Structure prediction by ZEFSAII (Michael W. Deem and Ramdas Pophale) SiO2 
 PCOD9264044
Probable space group: C 2/C
;
_chemical_formula_sum "Si O2"
_cell_formula_units_Z 56
_cell_length_a 11.587976
_cell_length_b 13.723935
_cell_length_c 14.536542
_cell_angle_alpha 90.000000
_cell_angle_beta 73.023134
_cell_angle_gamma 90.000000
_cell_volume 2211.043233
_symmetry_space_group_name_H-M "C 2/C"
_symmetry_group_IT_number 15
_symmetry_cell_setting 'monoclinic'
loop_
_space_group_symop_operation_xyz
x,y,z
-x,y,1/2-z
-x,-y,-z
x,-y,1/2+z
1/2+x,1/2+y,z
1/2-x,1/2+y,1/2-z
1/2-x,1/2-y,-z
1/2+x,1/2-y,1/2+z
loop_
_atom_site_type_symbol
_atom_site_label
_atom_site_fract_x
_atom_site_fract_y
_atom_site_fract_z
Si Si1 0.571902 0.860930 0.146579
Si Si2 0.982862 0.059627 0.387095
Si Si3 0.777723 0.811023 0.219843
Si Si4 0.838639 0.697101 0.576891
Si Si5 0.704594 0.540084 0.232972
Si Si6 0.858364 0.518548 0.034529
Si Si7 0.998670 0.837497 0.445213
O O1 0.500000 0.910940 0.250000
O O2 0.665417 0.790077 0.178043
O O3 0.461758 0.820571 0.110410
O O4 0.655943 0.922245 0.056796
O O5 0.896261 0.058342 0.320950
O O6 0.125328 0.081478 0.336404
O O7 0.972451 0.947165 0.419653
O O8 0.939577 0.137348 0.471345
O O9 0.757228 0.767620 0.325261
O O10 0.775532 0.928202 0.239943
O O11 0.905029 0.789930 0.144693
O O12 0.803880 0.590217 0.547444
O O13 0.883682 0.770376 0.489050
O O14 0.820006 0.565514 0.142036
O O15 0.000000 0.500000 0.000000
#
# Coordination Sequence:
#
# PCOD9264044 Si02
#       7
#     8   8   8   8   8   8   8
#     4   9  17  32  53  75 105 138 172 214 263 314
#     4   9  19  34  56  80 101 142 179 224 264 310
#     4   9  18  33  54  74 107 142 168 218 271 308
#     4   9  19  34  50  79 106 138 170 216 269 317
#     4   9  17  34  54  77 101 136 180 215 266 309
#     4   9  17  32  54  74 104 139 173 211 263 322
#     4  10  19  35  54  77 110 133 180 221 262 319
#
# _framework density 25.327411000000001
#
# number of rings (size 3 to 8) (size 9 to 14) (size 15 to 20)
#    0.000    2.857    0.000    1.714    0.000    0.571 
#   12.857    2.857    6.286    0.000    0.000    0.000 
#    0.000    0.000    0.000    0.000    0.000    0.000 
#
# Total GULP energy -156023.502354 kJ/mol
# GULP energy per Si atom -5572.267941 kJ/mol
# Density = 2.526976 g / cm^3
# Si number density = 25.327411 Si / 1000 Ang^3
#
#
#
# Elastic Constant Matrix: (Units=GPa)
#
#
# Indices 1 2 3 4 5 6 
#
# 1 59.8671 1.7771 31.4338 0.0000 -21.2372 0.0000
# 2 1.7771 77.7415 37.7452 0.0000 -5.0465 0.0000
# 3 31.4338 37.7452 169.6539 0.0000 -48.9670 0.0000
# 4 0.0000 0.0000 0.0000 -21.2767 0.0000 17.5294
# 5 -21.2372 -5.0465 -48.9670 0.0000 53.6028 0.0000
# 6 0.0000 0.0000 0.0000 17.5294 0.0000 7.8122
#
#
#
# Elastic Compliance Matrix: (Units=1/GPa)
#
#
# Indices 1 2 3 4 5 6 
#
# 1 0.019951 0.000995 -0.002186 0.000000 0.006001 0.000000
# 2 0.000995 0.014653 -0.003982 0.000000 -0.001864 0.000000
# 3 -0.002186 -0.003982 0.009272 0.000000 0.007229 0.000000
# 4 0.000000 0.000000 0.000000 -0.016499 0.000000 0.037021
# 5 0.006001 -0.001864 0.007229 0.000000 0.027462 0.000000
# 6 0.000000 0.000000 0.000000 0.037021 0.000000 0.044935
#
#
# Mechanical properties :
#
#
# Convention : Reuss Voigt Hill
#
# Bulk Modulus (GPa) = 29.82518 49.90828 39.86673
# Shear Modulus (GPa) = 41.22130 23.78143 32.50136
#
# Velocity S-wave (km/s) = 4.03865 3.06757 3.58613
# Velocity P-wave (km/s) = 5.79215 5.68284 5.73776
#
# Compressibility (1/GPa) = 0.03352872
#
# Stress axis : x y z
#
# Youngs Moduli (GPa) = 50.12365 68.24561 107.85290
#
# Poissons Ratio (x) = -0.06788 0.23573
# Poissons Ratio (y) = -0.04986 0.42952
# Poissons Ratio (z) = 0.10955 0.27179
#
# Static dielectric constant tensor:
#      x y z
#    x 2.050270 0.000000 0.034070 
#    y 0.000000 2.069630 0.000000 
#    z 0.034070 0.000000 2.474250 
# 
# From -- ./inp_files/154766.got.cif
#   From: 2010.05.17/outbox.cif.g08.bks.cpg/sg15_78_cif.got.tgz:154766.got - 2010.06.03 18:47:42.
