data_PCOD9264355
_publ_section_title
;
Structure prediction by ZEFSAII (Michael W. Deem and Ramdas Pophale) SiO2 
 PCOD9264355
Probable space group: C 2/C
;
_chemical_formula_sum "Si O2"
_cell_formula_units_Z 40
_cell_length_a 13.480329
_cell_length_b 10.408264
_cell_length_c 19.022286
_cell_angle_alpha 90.000000
_cell_angle_beta 131.418843
_cell_angle_gamma 90.000000
_cell_volume 2001.433255
_symmetry_space_group_name_H-M "C 2/C"
_symmetry_group_IT_number 15
_symmetry_cell_setting 'monoclinic'
loop_
_space_group_symop_operation_xyz
x,y,z
-x,y,1/2-z
-x,-y,-z
x,-y,1/2+z
1/2+x,1/2+y,z
1/2-x,1/2+y,1/2-z
1/2-x,1/2-y,-z
1/2+x,1/2-y,1/2+z
loop_
_atom_site_type_symbol
_atom_site_label
_atom_site_fract_x
_atom_site_fract_y
_atom_site_fract_z
Si Si1 0.424039 0.843974 0.888735
Si Si2 0.135865 0.174215 0.213254
Si Si3 0.557502 0.883096 0.440145
Si Si4 0.575109 0.439887 0.100878
Si Si5 0.855711 0.366763 0.167519
O O1 0.293108 0.844579 0.779390
O O2 0.480626 0.700568 0.906907
O O3 0.511293 0.968813 0.914983
O O4 0.393903 0.854860 0.958620
O O5 0.127430 0.228375 0.287875
O O6 0.065939 0.286545 0.134399
O O7 0.070324 0.040516 0.162041
O O8 0.657196 0.861782 0.422198
O O9 0.727765 0.422963 0.146469
O O10 0.500000 0.500000 0.000000
O O11 0.000000 0.431650 0.250000
#
# Coordination Sequence:
#
# PCOD9264355 Si02
#       5
#     8   8   8   8   8
#     4  10  20  35  62  84 121 158 194 243 303 366
#     4  10  19  35  58  84 113 157 200 239 301 347
#     4  10  20  38  58  87 116 160 204 236 301 365
#     4  11  21  37  59  89 120 155 196 257 298 344
#     4   9  20  37  60  84 116 157 201 240 289 365
#
# _framework density 19.985678
#
# number of rings (size 3 to 8) (size 9 to 14) (size 15 to 20)
#    0.000    2.000    2.000    3.600    0.000    3.200 
#    3.600    1.000    0.000   25.200    0.000    0.000 
#    0.000    0.000    0.000    0.000    0.000    0.000 
#
# Total GULP energy -111352.908737 kJ/mol
# GULP energy per Si atom -5567.645437 kJ/mol
# Density = 1.994019 g / cm^3
# Si number density = 19.985678 Si / 1000 Ang^3
#
#
#
# Elastic Constant Matrix: (Units=GPa)
#
#
# Indices 1 2 3 4 5 6 
#
# 1 59.9038 20.2381 17.0097 0.0000 -11.5941 0.0000
# 2 20.2381 176.1347 47.5557 0.0000 -9.3593 0.0000
# 3 17.0097 47.5557 59.4881 0.0000 -3.1924 0.0000
# 4 0.0000 0.0000 0.0000 40.3263 0.0000 0.7844
# 5 -11.5941 -9.3593 -3.1924 0.0000 39.7549 0.0000
# 6 0.0000 0.0000 0.0000 0.7844 0.0000 16.7618
#
#
#
# Elastic Compliance Matrix: (Units=1/GPa)
#
#
# Indices 1 2 3 4 5 6 
#
# 1 0.019235 -0.000675 -0.004688 0.000000 0.005074 0.000000
# 2 -0.000675 0.007326 -0.005606 0.000000 0.001078 0.000000
# 3 -0.004688 -0.005606 0.022585 0.000000 -0.000873 0.000000
# 4 0.000000 0.000000 0.000000 0.024820 0.000000 -0.001162
# 5 0.005074 0.001078 -0.000873 0.000000 0.026818 0.000000
# 6 0.000000 0.000000 0.000000 -0.001162 0.000000 0.059714
#
#
# Mechanical properties :
#
#
# Convention : Reuss Voigt Hill
#
# Bulk Modulus (GPa) = 36.75327 51.68151 44.21739
# Shear Modulus (GPa) = 26.10921 33.41681 29.76301
#
# Velocity S-wave (km/s) = 3.61833 4.09349 3.86322
# Velocity P-wave (km/s) = 5.99051 6.94677 6.48629
#
# Compressibility (1/GPa) = 0.02720847
#
# Stress axis : x y z
#
# Youngs Moduli (GPa) = 51.98941 136.50497 44.27740
#
# Poissons Ratio (x) = 0.09209 0.20758
# Poissons Ratio (y) = 0.03508 0.24820
# Poissons Ratio (z) = 0.24374 0.76519
#
# Static dielectric constant tensor:
#      x y z
#    x 1.759400 0.000000 0.030360 
#    y 0.000000 1.733470 0.000000 
#    z 0.030360 0.000000 1.752730 
# 
# From -- ./inp_files/158769.got.cif
#   From: 2010.05.17/outbox.cif.g08.bks.cpg/sg15_80_cif.got.tgz:158769.got - 2010.06.03 18:47:42.
