data_PCOD9264562
_publ_section_title
;
Structure prediction by ZEFSAII (Michael W. Deem and Ramdas Pophale) SiO2 
 PCOD9264562
Probable space group: C 2/C
;
_chemical_formula_sum "Si O2"
_cell_formula_units_Z 44
_cell_length_a 10.066786
_cell_length_b 16.129798
_cell_length_c 15.074428
_cell_angle_alpha 90.000000
_cell_angle_beta 125.568675
_cell_angle_gamma 90.000000
_cell_volume 1991.016532
_symmetry_space_group_name_H-M "C 2/C"
_symmetry_group_IT_number 15
_symmetry_cell_setting 'monoclinic'
loop_
_space_group_symop_operation_xyz
x,y,z
-x,y,1/2-z
-x,-y,-z
x,-y,1/2+z
1/2+x,1/2+y,z
1/2-x,1/2+y,1/2-z
1/2-x,1/2-y,-z
1/2+x,1/2-y,1/2+z
loop_
_atom_site_type_symbol
_atom_site_label
_atom_site_fract_x
_atom_site_fract_y
_atom_site_fract_z
Si Si1 0.324335 0.963890 0.958518
Si Si2 0.428671 0.366471 0.986714
Si Si3 0.500000 0.129925 0.750000
Si Si4 0.024442 0.697945 0.944736
Si Si5 0.226958 0.984420 0.127318
Si Si6 0.173018 0.873049 0.360108
O O1 0.197112 0.026575 0.863348
O O2 0.351270 0.865326 0.957388
O O3 0.286863 0.976948 0.048315
O O4 0.500000 0.000000 0.000000
O O5 0.522099 0.290836 0.978803
O O6 0.313777 0.419173 0.875187
O O7 0.562970 0.432066 0.072691
O O8 0.332133 0.345654 0.038519
O O9 0.559331 0.185922 0.854087
O O10 0.636523 0.065639 0.767373
O O11 0.836060 0.668715 0.885219
O O12 0.000000 0.849287 0.250000
#
# Coordination Sequence:
#
# PCOD9264562 Si02
#       6
#     8   8   4   8   8   8
#     4   8  17  33  56  83 108 155 189 227 290 350
#     4  10  20  36  61  83 114 158 192 233 297 354
#     4  10  20  36  60  84 120 154 194 246 286 342
#     4  10  20  36  61  84 119 152 194 240 290 346
#     4   9  19  36  59  77 115 158 186 233 298 350
#     4  10  19  35  60  85 118 150 195 244 290 345
#
# _framework density 22.099263000000001
#
# number of rings (size 3 to 8) (size 9 to 14) (size 15 to 20)
#    0.000    2.545    0.000    1.636    0.000    2.909 
#    1.636    0.000   84.000    0.000    0.000    0.000 
#    0.000    0.000    0.000    0.000    0.000    0.000 
#
# Total GULP energy -122601.132672 kJ/mol
# GULP energy per Si atom -5572.778758 kJ/mol
# Density = 2.204896 g / cm^3
# Si number density = 22.099263 Si / 1000 Ang^3
#
#
#
# Elastic Constant Matrix: (Units=GPa)
#
#
# Indices 1 2 3 4 5 6 
#
# 1 72.3290 2.1221 2.1292 0.0000 0.2647 0.0000
# 2 2.1221 125.2930 11.0676 0.0000 -6.9654 0.0000
# 3 2.1292 11.0676 25.7560 0.0000 5.5561 0.0000
# 4 0.0000 0.0000 0.0000 16.5955 0.0000 3.2944
# 5 0.2647 -6.9654 5.5561 0.0000 29.9752 0.0000
# 6 0.0000 0.0000 0.0000 3.2944 0.0000 39.6093
#
#
#
# Elastic Compliance Matrix: (Units=1/GPa)
#
#
# Indices 1 2 3 4 5 6 
#
# 1 0.013862 -0.000135 -0.001099 0.000000 0.000050 0.000000
# 2 -0.000135 0.008512 -0.004243 0.000000 0.002766 0.000000
# 3 -0.001099 -0.004243 0.042656 0.000000 -0.008883 0.000000
# 4 0.000000 0.000000 0.000000 0.061269 0.000000 -0.005096
# 5 0.000050 0.002766 -0.008883 0.000000 0.035650 0.000000
# 6 0.000000 0.000000 0.000000 -0.005096 0.000000 0.025670
#
#
# Mechanical properties :
#
#
# Convention : Reuss Voigt Hill
#
# Bulk Modulus (GPa) = 18.49229 28.22398 23.35814
# Shear Modulus (GPa) = 23.08417 31.10660 27.09538
#
# Velocity S-wave (km/s) = 3.23548 3.75585 3.50534
# Velocity P-wave (km/s) = 4.72692 5.62208 5.19382
#
# Compressibility (1/GPa) = 0.05407659
#
# Stress axis : x y z
#
# Youngs Moduli (GPa) = 72.14058 117.47911 23.44319
#
# Poissons Ratio (x) = 0.01585 0.02576
# Poissons Ratio (y) = 0.00974 0.09947
# Poissons Ratio (z) = 0.07926 0.49849
#
# Static dielectric constant tensor:
#      x y z
#    x 1.939280 0.000000 0.026390 
#    y 0.000000 1.875450 0.000000 
#    z 0.026390 0.000000 1.917760 
# 
# From -- ./inp_files/145447.got.cif
#   From: 2010.05.17/outbox.cif.g08.bks.cpg/sg15_73_cif.got.tgz:145447.got - 2010.06.03 18:47:42.
