data_PCOD9264155
_publ_section_title
;
Structure prediction by ZEFSAII (Michael W. Deem and Ramdas Pophale) SiO2 
 PCOD9264155
Probable space group: C 2/C
;
_chemical_formula_sum "Si O2"
_cell_formula_units_Z 36
_cell_length_a 11.109617
_cell_length_b 17.696420
_cell_length_c 12.640606
_cell_angle_alpha 90.000000
_cell_angle_beta 129.033967
_cell_angle_gamma 90.000000
_cell_volume 1930.395852
_symmetry_space_group_name_H-M "C 2/C"
_symmetry_group_IT_number 15
_symmetry_cell_setting 'monoclinic'
loop_
_space_group_symop_operation_xyz
x,y,z
-x,y,1/2-z
-x,-y,-z
x,-y,1/2+z
1/2+x,1/2+y,z
1/2-x,1/2+y,1/2-z
1/2-x,1/2-y,-z
1/2+x,1/2-y,1/2+z
loop_
_atom_site_type_symbol
_atom_site_label
_atom_site_fract_x
_atom_site_fract_y
_atom_site_fract_z
Si Si1 0.879732 0.300460 0.777057
Si Si2 0.300654 0.050301 0.345236
Si Si3 0.529846 0.746631 0.072694
Si Si4 0.956630 0.581243 0.846408
Si Si5 0.500000 0.640184 0.250000
O O1 0.881806 0.388461 0.812886
O O2 0.703580 0.282772 0.646403
O O3 0.000000 0.285622 0.750000
O O4 0.927397 0.254267 0.909857
O O5 0.402696 0.047461 0.507290
O O6 0.138934 0.087385 0.287882
O O7 0.307210 0.968361 0.295569
O O8 0.552325 0.831144 0.129141
O O9 0.459678 0.694248 0.127429
O O10 0.000000 0.573013 0.750000
#
# Coordination Sequence:
#
# PCOD9264155 Si02
#       5
#     8   8   8   8   4
#     4  10  20  36  55  82 111 149 186 231 276 337
#     4   9  21  35  56  78 113 148 180 224 289 319
#     4  10  21  33  61  82 112 146 189 231 280 318
#     4  10  19  35  56  81 107 148 188 227 265 344
#     4  10  20  38  56  86 114 140 184 234 278 334
#
# _framework density 18.649025000000002
#
# number of rings (size 3 to 8) (size 9 to 14) (size 15 to 20)
#    0.000    2.222    1.111    1.333    3.111    2.667 
#    2.000    1.111    0.000    0.000    0.000    0.000 
#    0.000    0.000    0.000    0.000    0.000    0.000 
#
# Total GULP energy -100376.657253 kJ/mol
# GULP energy per Si atom -5576.480958 kJ/mol
# Density = 1.860658 g / cm^3
# Si number density = 18.649025 Si / 1000 Ang^3
#
#
#
# Elastic Constant Matrix: (Units=GPa)
#
#
# Indices 1 2 3 4 5 6 
#
# 1 76.0803 27.1606 0.3576 0.0000 -17.0610 0.0000
# 2 27.1606 69.2657 5.9709 0.0000 -6.6021 0.0000
# 3 0.3576 5.9709 33.9420 0.0000 -6.5872 0.0000
# 4 0.0000 0.0000 0.0000 -8.0806 0.0000 34.4861
# 5 -17.0610 -6.6021 -6.5872 0.0000 26.0234 0.0000
# 6 0.0000 0.0000 0.0000 34.4861 0.0000 -7.9788
#
#
#
# Elastic Compliance Matrix: (Units=1/GPa)
#
#
# Indices 1 2 3 4 5 6 
#
# 1 0.017773 -0.006195 0.003006 0.000000 0.010841 0.000000
# 2 -0.006195 0.017081 -0.003036 0.000000 -0.000496 0.000000
# 3 0.003006 -0.003036 0.031758 0.000000 0.009240 0.000000
# 4 0.000000 0.000000 0.000000 0.007093 0.000000 0.030659
# 5 0.010841 -0.000496 0.009240 0.000000 0.047747 0.000000
# 6 0.000000 0.000000 0.000000 0.030659 0.000000 0.007184
#
#
# Mechanical properties :
#
#
# Convention : Reuss Voigt Hill
#
# Bulk Modulus (GPa) = 18.46301 27.36292 22.91297
# Shear Modulus (GPa) = 31.41931 11.71273 21.56602
#
# Velocity S-wave (km/s) = 4.10905 2.50883 3.40430
# Velocity P-wave (km/s) = 5.69510 4.80591 5.26929
#
# Compressibility (1/GPa) = 0.05416234
#
# Stress axis : x y z
#
# Youngs Moduli (GPa) = 56.26657 58.54575 31.48861
#
# Poissons Ratio (x) = 0.36268 -0.09467
# Poissons Ratio (y) = 0.34856 0.09559
# Poissons Ratio (z) = -0.16916 0.17773
#
# Static dielectric constant tensor:
#      x y z
#    x 1.650710 0.000000 0.009390 
#    y 0.000000 1.674730 0.000000 
#    z 0.009390 0.000000 1.643920 
# 
# From -- ./inp_files/28817.got.cif
#   From: 2010.05.17/outbox.cif.g08.bks.cpg/sg15_15_cif.got.tgz:28817.got - 2010.06.03 18:47:42.
