data_PCOD9264599
_publ_section_title
;
Structure prediction by ZEFSAII (Michael W. Deem and Ramdas Pophale) SiO2 
 PCOD9264599
Probable space group: C 2/C
;
_chemical_formula_sum "Si O2"
_cell_formula_units_Z 44
_cell_length_a 11.441349
_cell_length_b 22.804165
_cell_length_c 12.056154
_cell_angle_alpha 90.000000
_cell_angle_beta 48.216530
_cell_angle_gamma 90.000000
_cell_volume 2345.556265
_symmetry_space_group_name_H-M "C 2/C"
_symmetry_group_IT_number 15
_symmetry_cell_setting 'monoclinic'
loop_
_space_group_symop_operation_xyz
x,y,z
-x,y,1/2-z
-x,-y,-z
x,-y,1/2+z
1/2+x,1/2+y,z
1/2-x,1/2+y,1/2-z
1/2-x,1/2-y,-z
1/2+x,1/2-y,1/2+z
loop_
_atom_site_type_symbol
_atom_site_label
_atom_site_fract_x
_atom_site_fract_y
_atom_site_fract_z
Si Si1 0.527900 0.287742 0.447329
Si Si2 0.000000 0.294912 0.750000
Si Si3 0.635429 0.086195 0.914421
Si Si4 0.206816 0.117368 0.467496
Si Si5 0.880598 0.522196 0.227154
Si Si6 0.891467 0.702191 0.711421
O O1 0.508968 0.245862 0.352228
O O2 0.450976 0.349625 0.464138
O O3 0.710175 0.293175 0.358797
O O4 0.438676 0.257324 0.605464
O O5 0.847656 0.336007 0.855629
O O6 0.592486 0.144319 0.874494
O O7 0.676195 0.033710 0.805164
O O8 0.770321 0.100297 0.918487
O O9 0.485983 0.063167 0.079858
O O10 0.246085 0.061092 0.367950
O O11 0.000000 0.503648 0.250000
O O12 0.000000 0.698731 0.750000
#
# Coordination Sequence:
#
# PCOD9264599 Si02
#       6
#     8   4   8   8   8   8
#     4  12  24  39  63  92 124 162 202 254 314 362
#     4  12  18  38  62  94 126 154 202 260 294 364
#     4  10  19  35  60  90 118 162 205 249 297 362
#     4  11  19  36  62  92 124 153 206 259 294 357
#     4   9  18  34  60  88 122 161 206 248 297 360
#     4  12  25  41  60  88 126 162 205 250 308 377
#
# _framework density 18.758876999999998
#
# number of rings (size 3 to 8) (size 9 to 14) (size 15 to 20)
#    0.000    1.091    6.364    2.727    0.000    0.000 
#    0.000    0.909    0.000    4.364    0.000    0.000 
#    0.000    0.000    0.000    0.000    0.000    0.000 
#
# Total GULP energy -122991.561036 kJ/mol
# GULP energy per Si atom -5590.525502 kJ/mol
# Density = 1.871618 g / cm^3
# Si number density = 18.758877 Si / 1000 Ang^3
#
#
#
# Elastic Constant Matrix: (Units=GPa)
#
#
# Indices 1 2 3 4 5 6 
#
# 1 125.3560 66.4430 60.6907 0.0000 0.5876 0.0000
# 2 66.4430 99.0921 39.1612 0.0000 16.2131 0.0000
# 3 60.6907 39.1612 60.7835 0.0000 -0.2011 0.0000
# 4 0.0000 0.0000 0.0000 6.3634 0.0000 18.0385
# 5 0.5876 16.2131 -0.2011 0.0000 34.4899 0.0000
# 6 0.0000 0.0000 0.0000 18.0385 0.0000 28.7579
#
#
#
# Elastic Compliance Matrix: (Units=1/GPa)
#
#
# Indices 1 2 3 4 5 6 
#
# 1 0.018608 -0.007590 -0.013679 0.000000 0.003171 0.000000
# 2 -0.007590 0.018220 -0.004189 0.000000 -0.008460 0.000000
# 3 -0.013679 -0.004189 0.032817 0.000000 0.002393 0.000000
# 4 0.000000 0.000000 0.000000 -0.201965 0.000000 0.126683
# 5 0.003171 -0.008460 0.002393 0.000000 0.032931 0.000000
# 6 0.000000 0.000000 0.000000 0.126683 0.000000 -0.044690
#
#
# Mechanical properties :
#
#
# Convention : Reuss Voigt Hill
#
# Bulk Modulus (GPa) = 53.39110 68.64684 61.01897
# Shear Modulus (GPa) = -57.52422 21.85134 -17.83644
#
# Velocity S-wave (km/s) = -5.54361 3.41670 -3.08689
# Velocity P-wave (km/s) = 3.52873 7.22765 4.46021
#
# Compressibility (1/GPa) = 0.01872971
#
# Stress axis : x y z
#
# Youngs Moduli (GPa) = 53.74025 54.88391 30.47233
#
# Poissons Ratio (x) = 0.41656 0.41684
# Poissons Ratio (y) = 0.40788 0.12764
# Poissons Ratio (z) = 0.73512 0.22989
#
# Static dielectric constant tensor:
#      x y z
#    x 1.621820 0.000000 -0.000170 
#    y 0.000000 1.640430 0.000000 
#    z -0.000170 0.000000 1.660370 
# 
# From -- ./inp_files/52086.got.cif
#   From: 2010.05.17/outbox.cif.g08.bks.cpg/sg15_27_cif.got.tgz:52086.got - 2010.06.03 18:47:42.
