data_PCOD9264304
_publ_section_title
;
Structure prediction by ZEFSAII (Michael W. Deem and Ramdas Pophale) SiO2 
 PCOD9264304
Probable space group: C 2/C
;
_chemical_formula_sum "Si O2"
_cell_formula_units_Z 48
_cell_length_a 13.101735
_cell_length_b 11.957336
_cell_length_c 18.801264
_cell_angle_alpha 90.000000
_cell_angle_beta 130.489642
_cell_angle_gamma 90.000000
_cell_volume 2240.076503
_symmetry_space_group_name_H-M "C 2/C"
_symmetry_group_IT_number 15
_symmetry_cell_setting 'monoclinic'
loop_
_space_group_symop_operation_xyz
x,y,z
-x,y,1/2-z
-x,-y,-z
x,-y,1/2+z
1/2+x,1/2+y,z
1/2-x,1/2+y,1/2-z
1/2-x,1/2-y,-z
1/2+x,1/2-y,1/2+z
loop_
_atom_site_type_symbol
_atom_site_label
_atom_site_fract_x
_atom_site_fract_y
_atom_site_fract_z
Si Si1 0.914040 0.649147 0.440826
Si Si2 0.203777 0.538216 0.712438
Si Si3 0.322549 0.392382 0.407470
Si Si4 0.709445 0.407547 0.527881
Si Si5 0.725387 0.829808 0.090936
Si Si6 0.404158 0.089932 0.597165
O O1 0.836901 0.575835 0.346999
O O2 0.902756 0.782043 0.424561
O O3 0.863944 0.621543 0.498318
O O4 0.073041 0.622610 0.513659
O O5 0.287367 0.536175 0.822016
O O6 0.274113 0.617532 0.686044
O O7 0.063086 0.596832 0.671556
O O8 0.376317 0.484226 0.488281
O O9 0.186482 0.347249 0.385710
O O10 0.710416 0.303278 0.580664
O O11 0.687940 0.364503 0.438369
O O12 0.857732 0.463455 0.594187
#
# Coordination Sequence:
#
# PCOD9264304 Si02
#       6
#     8   8   8   8   8   8
#     4  11  19  35  55  75 104 139 174 208 258 308
#     4  11  19  34  54  79 103 132 179 213 254 297
#     4  10  22  30  54  79 108 131 169 218 259 297
#     4   9  19  35  53  79 100 134 175 207 259 302
#     4  10  19  35  58  75 103 138 174 211 250 313
#     4   9  18  36  53  76  99 139 176 207 245 314
#
# _framework density 21.427838000000001
#
# number of rings (size 3 to 8) (size 9 to 14) (size 15 to 20)
#    1.000    1.000    3.333    2.000    2.333    0.667 
#    0.000    0.000    0.000    0.000    0.000    0.000 
#    0.000    0.000    0.000    0.000    0.000    0.000 
#
# Total GULP energy -133611.179590 kJ/mol
# GULP energy per Si atom -5567.132483 kJ/mol
# Density = 2.137907 g / cm^3
# Si number density = 21.427838 Si / 1000 Ang^3
#
#
#
# Elastic Constant Matrix: (Units=GPa)
#
#
# Indices 1 2 3 4 5 6 
#
# 1 47.1916 11.3197 20.8294 0.0000 -20.2423 0.0000
# 2 11.3197 101.5709 23.0795 0.0000 -12.0390 0.0000
# 3 20.8294 23.0795 66.7373 0.0000 -19.8363 0.0000
# 4 0.0000 0.0000 0.0000 15.2127 0.0000 -5.0471
# 5 -20.2423 -12.0390 -19.8363 0.0000 18.5652 0.0000
# 6 0.0000 0.0000 0.0000 -5.0471 0.0000 37.0016
#
#
#
# Elastic Compliance Matrix: (Units=1/GPa)
#
#
# Indices 1 2 3 4 5 6 
#
# 1 0.039876 0.000710 0.000540 0.000000 0.044515 0.000000
# 2 0.000710 0.010945 -0.002443 0.000000 0.005261 0.000000
# 3 0.000540 -0.002443 0.022515 0.000000 0.023061 0.000000
# 4 0.000000 0.000000 0.000000 0.068850 0.000000 0.009391
# 5 0.044515 0.005261 0.023061 0.000000 0.130453 0.000000
# 6 0.000000 0.000000 0.000000 0.009391 0.000000 0.028307
#
#
# Mechanical properties :
#
#
# Convention : Reuss Voigt Hill
#
# Bulk Modulus (GPa) = 14.09450 36.21745 25.15597
# Shear Modulus (GPa) = 15.29141 24.84065 20.06603
#
# Velocity S-wave (km/s) = 2.67427 3.40850 3.06346
# Velocity P-wave (km/s) = 4.01591 5.69467 4.92731
#
# Compressibility (1/GPa) = 0.07094967
#
# Stress axis : x y z
#
# Youngs Moduli (GPa) = 25.07785 91.36672 44.41521
#
# Poissons Ratio (x) = -0.06483 -0.02399
# Poissons Ratio (y) = -0.01779 0.10849
# Poissons Ratio (z) = -0.01355 0.22318
#
# Static dielectric constant tensor:
#      x y z
#    x 1.861540 0.000000 -0.015000 
#    y 0.000000 1.795980 0.000000 
#    z -0.015000 0.000000 1.761490 
# 
# From -- ./inp_files/243141.got.cif
#   From: 2010.05.17/outbox.cif.g08.bks.cpg/sg15_122_cif.got.tgz:243141.got - 2010.06.03 18:47:42.
