data_PCOD9264872
_publ_section_title
;
Structure prediction by ZEFSAII (Michael W. Deem and Ramdas Pophale) SiO2 
 PCOD9264872
Probable space group: C 2/C
;
_chemical_formula_sum "Si O2"
_cell_formula_units_Z 56
_cell_length_a 21.314555
_cell_length_b 16.420829
_cell_length_c 13.826573
_cell_angle_alpha 90.000000
_cell_angle_beta 30.087003
_cell_angle_gamma 90.000000
_cell_volume 2426.029862
_symmetry_space_group_name_H-M "C 2/C"
_symmetry_group_IT_number 15
_symmetry_cell_setting 'monoclinic'
loop_
_space_group_symop_operation_xyz
x,y,z
-x,y,1/2-z
-x,-y,-z
x,-y,1/2+z
1/2+x,1/2+y,z
1/2-x,1/2+y,1/2-z
1/2-x,1/2-y,-z
1/2+x,1/2-y,1/2+z
loop_
_atom_site_type_symbol
_atom_site_label
_atom_site_fract_x
_atom_site_fract_y
_atom_site_fract_z
Si Si1 0.707321 0.940187 0.619085
Si Si2 0.344982 0.894564 0.209591
Si Si3 0.876791 0.651447 0.457858
Si Si4 0.706104 0.316432 0.852796
Si Si5 0.036962 0.924085 0.326668
Si Si6 0.151831 0.772368 0.713603
Si Si7 0.571673 0.397062 0.498841
O O1 0.655458 0.907459 0.587373
O O2 0.700248 0.875979 0.716443
O O3 0.855126 0.940770 0.394546
O O4 0.651203 0.024738 0.731320
O O5 0.403800 0.814392 0.178269
O O6 0.195686 0.878382 0.393544
O O7 0.394979 0.898733 0.033048
O O8 0.790651 0.728179 0.601675
O O9 0.000000 0.692935 0.250000
O O10 0.719982 0.308458 0.718692
O O11 0.566461 0.354414 0.049754
O O12 0.098153 0.900108 0.348350
O O13 0.968236 0.010359 0.428362
O O14 0.250000 0.750000 0.500000
O O15 0.042696 0.835323 0.830452
#
# Coordination Sequence:
#
# PCOD9264872 Si02
#       7
#     8   8   8   8   8   8   8
#     4  12  22  38  70  98 131 171 219 283 343 392
#     4  11  24  42  67  99 130 174 229 273 332 412
#     4  11  25  45  64  91 139 178 220 275 339 407
#     4  10  22  39  65 105 129 165 229 280 335 401
#     4  10  19  35  67 102 129 164 215 291 339 373
#     4  10  23  40  61  92 141 176 211 267 337 400
#     4  10  20  39  66  96 133 171 224 276 329 396
#
# _framework density 23.082981
#
# number of rings (size 3 to 8) (size 9 to 14) (size 15 to 20)
#    0.000    1.429    2.857    2.571    0.000    3.429 
#    7.714    0.000    6.286    0.000    0.000    0.000 
#    0.000    0.000    0.000    0.000    0.000    0.000 
#
# Total GULP energy -156436.003930 kJ/mol
# GULP energy per Si atom -5587.000140 kJ/mol
# Density = 2.303044 g / cm^3
# Si number density = 23.082981 Si / 1000 Ang^3
#
#
#
# Elastic Constant Matrix: (Units=GPa)
#
#
# Indices 1 2 3 4 5 6 
#
# 1 71.5040 48.1391 22.5443 0.0000 25.8724 0.0000
# 2 48.1391 148.4237 33.7654 0.0000 10.5584 0.0000
# 3 22.5443 33.7654 90.0285 0.0000 25.3471 0.0000
# 4 0.0000 0.0000 0.0000 34.9077 0.0000 -0.9176
# 5 25.8724 10.5584 25.3471 0.0000 29.6676 0.0000
# 6 0.0000 0.0000 0.0000 -0.9176 0.0000 30.4141
#
#
#
# Elastic Compliance Matrix: (Units=1/GPa)
#
#
# Indices 1 2 3 4 5 6 
#
# 1 0.026412 -0.007546 0.002561 0.000000 -0.022536 0.000000
# 2 -0.007546 0.009524 -0.003398 0.000000 0.006094 0.000000
# 3 0.002561 -0.003398 0.015839 0.000000 -0.014557 0.000000
# 4 0.000000 0.000000 0.000000 0.028670 0.000000 0.000865
# 5 -0.022536 0.006094 -0.014557 0.000000 0.063628 0.000000
# 6 0.000000 0.000000 0.000000 0.000865 0.000000 0.032906
#
#
# Mechanical properties :
#
#
# Convention : Reuss Voigt Hill
#
# Bulk Modulus (GPa) = 28.56383 57.65043 43.10713
# Shear Modulus (GPa) = 24.34093 32.69835 28.51964
#
# Velocity S-wave (km/s) = 3.25082 3.76780 3.51882
# Velocity P-wave (km/s) = 5.14701 6.63008 5.93505
#
# Compressibility (1/GPa) = 0.03500931
#
# Stress axis : x y z
#
# Youngs Moduli (GPa) = 37.86127 104.99289 63.13449
#
# Poissons Ratio (x) = 0.79227 -0.16169
# Poissons Ratio (y) = 0.28570 0.21456
# Poissons Ratio (z) = -0.09697 0.35681
#
# Static dielectric constant tensor:
#      x y z
#    x 1.930870 0.000000 -0.036900 
#    y 0.000000 1.828040 0.000000 
#    z -0.036900 0.000000 1.908230 
# 
# From -- ./inp_files/173772.got.cif
#   From: 2010.05.17/outbox.cif.g08.bks.cpg/sg15_87_cif.got.tgz:173772.got - 2010.06.03 18:47:42.
