data_PCOD9264636
_publ_section_title
;
Structure prediction by ZEFSAII (Michael W. Deem and Ramdas Pophale) SiO2 
 PCOD9264636
Probable space group: C 2/C
;
_chemical_formula_sum "Si O2"
_cell_formula_units_Z 48
_cell_length_a 15.919026
_cell_length_b 13.543035
_cell_length_c 14.474942
_cell_angle_alpha 90.000000
_cell_angle_beta 58.395799
_cell_angle_gamma 90.000000
_cell_volume 2657.847843
_symmetry_space_group_name_H-M "C 2/C"
_symmetry_group_IT_number 15
_symmetry_cell_setting 'monoclinic'
loop_
_space_group_symop_operation_xyz
x,y,z
-x,y,1/2-z
-x,-y,-z
x,-y,1/2+z
1/2+x,1/2+y,z
1/2-x,1/2+y,1/2-z
1/2-x,1/2-y,-z
1/2+x,1/2-y,1/2+z
loop_
_atom_site_type_symbol
_atom_site_label
_atom_site_fract_x
_atom_site_fract_y
_atom_site_fract_z
Si Si1 0.260368 0.205128 0.216201
Si Si2 0.484222 0.180653 0.153329
Si Si3 0.796923 0.503874 0.137251
Si Si4 0.848666 0.606813 0.781061
Si Si5 0.955131 0.455180 0.399971
Si Si6 0.690140 0.214216 0.945747
O O1 0.377494 0.206725 0.173181
O O2 0.219723 0.297962 0.182587
O O3 0.210845 0.218403 0.345147
O O4 0.235721 0.104777 0.175175
O O5 0.500000 0.216918 0.250000
O O6 0.499902 0.062257 0.148329
O O7 0.575281 0.215411 0.038414
O O8 0.800835 0.475222 0.242857
O O9 0.776641 0.398802 0.099255
O O10 0.899156 0.537091 0.028817
O O11 0.875334 0.570819 0.867418
O O12 0.954468 0.620587 0.666604
O O13 0.750000 0.250000 0.000000
#
# Coordination Sequence:
#
# PCOD9264636 Si02
#       6
#     8   8   8   8   8   8
#     4  11  22  34  56  90 126 150 191 255 311 354
#     4  11  18  34  61  91 112 152 203 262 301 341
#     4  10  21  34  59  87 117 152 199 253 305 344
#     4  10  20  34  54  90 117 146 195 249 300 364
#     4  10  19  35  61  84 115 151 204 262 298 343
#     4  10  22  35  59  93 114 153 207 252 295 358
#
# _framework density 18.059723999999999
#
# number of rings (size 3 to 8) (size 9 to 14) (size 15 to 20)
#    0.000    1.667    5.000    0.500    7.000    0.667 
#    0.000    0.000    0.000   12.000    4.333    0.000 
#    0.000    0.000    0.000    0.000    0.000    0.000 
#
# Total GULP energy -133638.102758 kJ/mol
# GULP energy per Si atom -5568.254282 kJ/mol
# Density = 1.801862 g / cm^3
# Si number density = 18.059724 Si / 1000 Ang^3
#
#
#
# Elastic Constant Matrix: (Units=GPa)
#
#
# Indices 1 2 3 4 5 6 
#
# 1 83.7317 39.8097 19.2116 0.0000 0.0994 0.0000
# 2 39.8097 89.3148 38.6748 0.0000 -10.5368 0.0000
# 3 19.2116 38.6748 77.7586 0.0000 -11.0538 0.0000
# 4 0.0000 0.0000 0.0000 29.5435 0.0000 -4.8713
# 5 0.0994 -10.5368 -11.0538 0.0000 22.4457 0.0000
# 6 0.0000 0.0000 0.0000 -4.8713 0.0000 29.0158
#
#
#
# Elastic Compliance Matrix: (Units=1/GPa)
#
#
# Indices 1 2 3 4 5 6 
#
# 1 0.015455 -0.006944 -0.000901 0.000000 -0.003772 0.000000
# 2 -0.006944 0.017641 -0.006319 0.000000 0.005200 0.000000
# 3 -0.000901 -0.006319 0.016995 0.000000 0.005407 0.000000
# 4 0.000000 0.000000 0.000000 0.034812 0.000000 0.005844
# 5 -0.003772 0.005200 0.005407 0.000000 0.049672 0.000000
# 6 0.000000 0.000000 0.000000 0.005844 0.000000 0.035445
#
#
# Mechanical properties :
#
#
# Convention : Reuss Voigt Hill
#
# Bulk Modulus (GPa) = 45.94988 49.57749 47.76368
# Shear Modulus (GPa) = 24.31863 26.40826 25.36344
#
# Velocity S-wave (km/s) = 3.67354 3.82812 3.75163
# Velocity P-wave (km/s) = 6.59483 6.85936 6.72839
#
# Compressibility (1/GPa) = 0.02176284
#
# Stress axis : x y z
#
# Youngs Moduli (GPa) = 64.70221 56.68563 58.84189
#
# Poissons Ratio (x) = 0.39360 0.05303
# Poissons Ratio (y) = 0.44927 0.37185
# Poissons Ratio (z) = 0.05831 0.35822
#
# Static dielectric constant tensor:
#      x y z
#    x 1.669560 0.000000 0.015080 
#    y 0.000000 1.643450 0.000000 
#    z 0.015080 0.000000 1.640710 
# 
# From -- ./inp_files/153294.got.cif
#   From: 2010.05.17/outbox.cif.g08.bks.cpg/sg15_77_cif.got.tgz:153294.got - 2010.06.03 18:47:42.
