data_PCOD9264309
_publ_section_title
;
Structure prediction by ZEFSAII (Michael W. Deem and Ramdas Pophale) SiO2 
 PCOD9264309
Probable space group: C 2/C
;
_chemical_formula_sum "Si O2"
_cell_formula_units_Z 60
_cell_length_a 14.231801
_cell_length_b 9.485769
_cell_length_c 23.616302
_cell_angle_alpha 90.000000
_cell_angle_beta 74.417004
_cell_angle_gamma 90.000000
_cell_volume 3071.000320
_symmetry_space_group_name_H-M "C 2/C"
_symmetry_group_IT_number 15
_symmetry_cell_setting 'monoclinic'
loop_
_space_group_symop_operation_xyz
x,y,z
-x,y,1/2-z
-x,-y,-z
x,-y,1/2+z
1/2+x,1/2+y,z
1/2-x,1/2+y,1/2-z
1/2-x,1/2-y,-z
1/2+x,1/2-y,1/2+z
loop_
_atom_site_type_symbol
_atom_site_label
_atom_site_fract_x
_atom_site_fract_y
_atom_site_fract_z
Si Si1 0.997789 0.494387 0.875196
Si Si2 0.929832 0.620247 0.033111
Si Si3 0.713488 0.907655 0.105603
Si Si4 0.299287 0.896782 0.177369
Si Si5 0.095376 0.080491 0.005483
Si Si6 0.288762 0.109506 0.284662
Si Si7 0.500000 0.877764 0.750000
Si Si8 0.788858 0.924173 0.902166
O O1 0.031633 0.361310 0.908116
O O2 0.091912 0.594175 0.866876
O O3 0.889168 0.546428 0.906421
O O4 0.996194 0.465721 0.808497
O O5 0.817553 0.576120 0.051522
O O6 0.935873 0.757880 0.995093
O O7 0.000000 0.500000 0.000000
O O8 0.703822 0.739421 0.120326
O O9 0.723011 0.006352 0.159447
O O10 0.808493 0.931459 0.050680
O O11 0.285112 0.738288 0.200524
O O12 0.288711 0.008539 0.230274
O O13 0.222328 0.956165 0.143622
O O14 0.130386 0.047698 0.063370
O O15 0.000000 0.000000 0.000000
O O16 0.393896 0.190480 0.267066
#
# Coordination Sequence:
#
# PCOD9264309 Si02
#       8
#     8   8   8   8   8   8   4   8
#     4   9  18  34  58  82 109 150 195 227 276 348
#     4  10  19  35  58  79 108 153 193 229 284 352
#     4  10  20  38  61  82 114 154 192 235 282 340
#     4  10  21  37  60  88 117 150 189 236 282 339
#     4  11  24  38  56  85 118 147 190 246 293 330
#     4  10  20  37  59  87 116 150 190 232 282 336
#     4   8  18  34  52  78 114 150 182 222 280 346
#     4  10  21  38  56  80 115 153 190 233 285 338
#
# _framework density 19.537609
#
# number of rings (size 3 to 8) (size 9 to 14) (size 15 to 20)
#    0.000    2.133    0.000    4.000    0.000    6.400 
#    0.000    3.333    0.000    0.000    0.000    0.000 
#    0.000    0.000    0.000    0.000    0.000    0.000 
#
# Total GULP energy -167002.729556 kJ/mol
# GULP energy per Si atom -5566.757652 kJ/mol
# Density = 1.949314 g / cm^3
# Si number density = 19.537609 Si / 1000 Ang^3
#
#
#
# Elastic Constant Matrix: (Units=GPa)
#
#
# Indices 1 2 3 4 5 6 
#
# 1 121.2757 42.7023 36.1136 0.0000 10.7287 0.0000
# 2 42.7023 59.2622 33.4730 0.0000 5.8264 0.0000
# 3 36.1136 33.4730 83.4500 0.0000 18.0703 0.0000
# 4 0.0000 0.0000 0.0000 27.2049 0.0000 1.1686
# 5 10.7287 5.8264 18.0703 0.0000 30.9375 0.0000
# 6 0.0000 0.0000 0.0000 1.1686 0.0000 23.6621
#
#
#
# Elastic Compliance Matrix: (Units=1/GPa)
#
#
# Indices 1 2 3 4 5 6 
#
# 1 0.011396 -0.007065 -0.001752 0.000000 -0.001598 0.000000
# 2 -0.007065 0.026233 -0.007928 0.000000 0.002141 0.000000
# 3 -0.001752 -0.007928 0.017706 0.000000 -0.008241 0.000000
# 4 0.000000 0.000000 0.000000 0.036836 0.000000 -0.001819
# 5 -0.001598 0.002141 -0.008241 0.000000 0.037288 0.000000
# 6 0.000000 0.000000 0.000000 -0.001819 0.000000 0.042352
#
#
# Mechanical properties :
#
#
# Convention : Reuss Voigt Hill
#
# Bulk Modulus (GPa) = 45.77811 54.28509 50.03160
# Shear Modulus (GPa) = 23.52013 26.47416 24.99715
#
# Velocity S-wave (km/s) = 3.47340 3.68507 3.58080
# Velocity P-wave (km/s) = 6.29028 6.77876 6.53908
#
# Compressibility (1/GPa) = 0.02184450
#
# Stress axis : x y z
#
# Youngs Moduli (GPa) = 87.74632 38.12006 56.47775
#
# Poissons Ratio (x) = 0.26933 0.09894
# Poissons Ratio (y) = 0.61995 0.44778
# Poissons Ratio (z) = 0.15371 0.30223
#
# Static dielectric constant tensor:
#      x y z
#    x 1.718790 0.000000 0.017650 
#    y 0.000000 1.663770 0.000000 
#    z 0.017650 0.000000 1.767170 
# 
# From -- ./inp_files/272719.got.cif
#   From: 2010.05.17/outbox.cif.g08.bks.cpg/sg15_137_cif.got.tgz:272719.got - 2010.06.03 18:47:42.
