data_PCOD9264400
_publ_section_title
;
Structure prediction by ZEFSAII (Michael W. Deem and Ramdas Pophale) SiO2 
 PCOD9264400
Probable space group: C 2/C
;
_chemical_formula_sum "Si O2"
_cell_formula_units_Z 60
_cell_length_a 11.116176
_cell_length_b 13.500546
_cell_length_c 18.810046
_cell_angle_alpha 90.000000
_cell_angle_beta 77.529826
_cell_angle_gamma 90.000000
_cell_volume 2756.310733
_symmetry_space_group_name_H-M "C 2/C"
_symmetry_group_IT_number 15
_symmetry_cell_setting 'monoclinic'
loop_
_space_group_symop_operation_xyz
x,y,z
-x,y,1/2-z
-x,-y,-z
x,-y,1/2+z
1/2+x,1/2+y,z
1/2-x,1/2+y,1/2-z
1/2-x,1/2-y,-z
1/2+x,1/2-y,1/2+z
loop_
_atom_site_type_symbol
_atom_site_label
_atom_site_fract_x
_atom_site_fract_y
_atom_site_fract_z
Si Si1 0.500000 0.201857 0.750000
Si Si2 0.852597 0.906503 0.643487
Si Si3 0.173873 0.392591 0.531831
Si Si4 0.186178 0.615778 0.515295
Si Si5 0.126486 0.192808 0.597319
Si Si6 0.866059 0.879455 0.129250
Si Si7 0.252523 0.784559 0.230150
Si Si8 0.099302 0.198305 0.096657
O O1 0.618673 0.153198 0.774435
O O2 0.428750 0.262047 0.820702
O O3 0.768147 0.903760 0.585151
O O4 0.803715 0.824131 0.703731
O O5 0.988268 0.877377 0.599799
O O6 0.846816 0.017110 0.672749
O O7 0.132925 0.504773 0.519761
O O8 0.091686 0.302793 0.572492
O O9 0.251860 0.347003 0.457436
O O10 0.281330 0.621344 0.570341
O O11 0.093100 0.704762 0.546259
O O12 0.271183 0.645946 0.437613
O O13 0.164771 0.189799 0.674979
O O14 0.009120 0.127451 0.594034
O O15 0.826219 0.794643 0.188703
#
# Coordination Sequence:
#
# PCOD9264400 Si02
#       8
#     4   8   8   8   8   8   8   8
#     4  10  20  40  60  76 122 158 194 238 306 342
#     4   9  20  37  62  82 119 158 202 239 301 351
#     4   9  19  38  59  87 117 162 192 241 301 364
#     4  10  20  35  62  90 121 152 204 241 301 349
#     4  10  20  35  61  87 123 152 199 245 298 350
#     4  11  20  38  60  92 118 156 198 246 297 365
#     4  10  21  39  56  88 117 160 194 251 293 351
#     4  10  19  35  58  90 111 155 195 256 276 346
#
# _framework density 21.768228000000001
#
# number of rings (size 3 to 8) (size 9 to 14) (size 15 to 20)
#    0.000    2.133    1.333    2.000    0.000    3.200 
#   14.400    2.667    0.000   24.000    0.000    0.000 
#    0.000    0.000    0.000    0.000    0.000    0.000 
#
# Total GULP energy -167205.876116 kJ/mol
# GULP energy per Si atom -5573.529204 kJ/mol
# Density = 2.171868 g / cm^3
# Si number density = 21.768228 Si / 1000 Ang^3
#
#
#
# Elastic Constant Matrix: (Units=GPa)
#
#
# Indices 1 2 3 4 5 6 
#
# 1 57.8333 2.9966 10.5187 0.0000 5.9707 0.0000
# 2 2.9966 87.8935 9.6522 0.0000 1.7027 0.0000
# 3 10.5187 9.6522 92.6647 0.0000 -7.4188 0.0000
# 4 0.0000 0.0000 0.0000 7.3400 0.0000 2.6780
# 5 5.9707 1.7027 -7.4188 0.0000 17.7853 0.0000
# 6 0.0000 0.0000 0.0000 2.6780 0.0000 12.4052
#
#
#
# Elastic Compliance Matrix: (Units=1/GPa)
#
#
# Indices 1 2 3 4 5 6 
#
# 1 0.018543 -0.000197 -0.002670 0.000000 -0.007320 0.000000
# 2 -0.000197 0.011559 -0.001309 0.000000 -0.001586 0.000000
# 3 -0.002670 -0.001309 0.011704 0.000000 0.005904 0.000000
# 4 0.000000 0.000000 0.000000 0.147887 0.000000 -0.031925
# 5 -0.007320 -0.001586 0.005904 0.000000 0.061298 0.000000
# 6 0.000000 0.000000 0.000000 -0.031925 0.000000 0.087503
#
#
# Mechanical properties :
#
#
# Convention : Reuss Voigt Hill
#
# Bulk Modulus (GPa) = 29.89287 31.63627 30.76457
# Shear Modulus (GPa) = 13.96663 21.85438 17.91050
#
# Velocity S-wave (km/s) = 2.53574 3.17197 2.87153
# Velocity P-wave (km/s) = 4.72604 5.28961 5.01575
#
# Compressibility (1/GPa) = 0.03345279
#
# Stress axis : x y z
#
# Youngs Moduli (GPa) = 53.92962 86.51593 85.44326
#
# Poissons Ratio (x) = 0.01705 0.22816
# Poissons Ratio (y) = 0.01063 0.11181
# Poissons Ratio (z) = 0.14401 0.11321
#
# Static dielectric constant tensor:
#      x y z
#    x 1.848810 0.000000 0.018270 
#    y 0.000000 1.881940 0.000000 
#    z 0.018270 0.000000 1.782790 
# 
# From -- ./inp_files/198300.got.cif
#   From: 2010.05.17/outbox.cif.g08.bks.cpg/sg15_100_cif.got.tgz:198300.got - 2010.06.03 18:47:42.
