data_PCOD9264699
_publ_section_title
;
Structure prediction by ZEFSAII (Michael W. Deem and Ramdas Pophale) SiO2 
 PCOD9264699
Probable space group: C 2/C
;
_chemical_formula_sum "Si O2"
_cell_formula_units_Z 32
_cell_length_a 12.142573
_cell_length_b 7.123855
_cell_length_c 14.888656
_cell_angle_alpha 90.000000
_cell_angle_beta 63.742247
_cell_angle_gamma 90.000000
_cell_volume 1155.003045
_symmetry_space_group_name_H-M "C 2/C"
_symmetry_group_IT_number 15
_symmetry_cell_setting 'monoclinic'
loop_
_space_group_symop_operation_xyz
x,y,z
-x,y,1/2-z
-x,-y,-z
x,-y,1/2+z
1/2+x,1/2+y,z
1/2-x,1/2+y,1/2-z
1/2-x,1/2-y,-z
1/2+x,1/2-y,1/2+z
loop_
_atom_site_type_symbol
_atom_site_label
_atom_site_fract_x
_atom_site_fract_y
_atom_site_fract_z
Si Si1 0.712482 0.201392 0.913969
Si Si2 0.590248 0.245512 0.289303
Si Si3 0.494120 0.157996 0.628166
Si Si4 0.787857 0.227897 0.347477
O O1 0.798898 0.319097 0.815918
O O2 0.569175 0.216549 0.941981
O O3 0.748601 0.987498 0.875443
O O4 0.750000 0.250000 0.000000
O O5 0.500000 0.348834 0.250000
O O6 0.665902 0.323239 0.347619
O O7 0.518020 0.063166 0.348742
O O8 0.634703 0.211523 0.592783
O O9 0.396408 0.245870 0.734315
#
# Coordination Sequence:
#
# PCOD9264699 Si02
#       4
#     8   8   8   8
#     4  10  22  36  56  90 120 146 186 242 295 331
#     4  10  19  35  62  83 107 151 199 233 271 347
#     4   9  18  38  61  80 113 153 196 232 272 344
#     4   9  18  35  60  79 112 151 192 233 278 338
#
# _framework density 27.705555
#
# number of rings (size 3 to 8) (size 9 to 14) (size 15 to 20)
#    0.000    2.500    2.500    0.000    3.500    1.000 
#    0.000    6.250    0.000    0.000    0.000    0.000 
#    0.000    0.000    0.000    0.000    0.000    0.000 
#
# Total GULP energy -89411.609777 kJ/mol
# GULP energy per Si atom -5588.225611 kJ/mol
# Density = 2.764250 g / cm^3
# Si number density = 27.705555 Si / 1000 Ang^3
#
#
#
# Elastic Constant Matrix: (Units=GPa)
#
#
# Indices 1 2 3 4 5 6 
#
# 1 349.5137 39.2187 37.8675 0.0000 35.8882 0.0000
# 2 39.2187 85.8125 10.2098 0.0000 -3.6509 0.0000
# 3 37.8675 10.2098 92.0269 0.0000 2.5259 0.0000
# 4 0.0000 0.0000 0.0000 21.9019 0.0000 -0.6289
# 5 35.8882 -3.6509 2.5259 0.0000 46.6310 0.0000
# 6 0.0000 0.0000 0.0000 -0.6289 0.0000 37.0660
#
#
#
# Elastic Compliance Matrix: (Units=1/GPa)
#
#
# Indices 1 2 3 4 5 6 
#
# 1 0.003439 -0.001548 -0.001169 0.000000 -0.002705 0.000000
# 2 -0.001548 0.012552 -0.000817 0.000000 0.002218 0.000000
# 3 -0.001169 -0.000817 0.011432 0.000000 0.000217 0.000000
# 4 0.000000 0.000000 0.000000 0.045680 0.000000 0.000775
# 5 -0.002705 0.002218 0.000217 0.000000 0.023688 0.000000
# 6 0.000000 0.000000 0.000000 0.000775 0.000000 0.026992
#
#
# Mechanical properties :
#
#
# Convention : Reuss Voigt Hill
#
# Bulk Modulus (GPa) = 49.12460 77.99391 63.55926
# Shear Modulus (GPa) = 36.32740 50.45692 43.39216
#
# Velocity S-wave (km/s) = 3.62497 4.27216 3.96180
# Velocity P-wave (km/s) = 5.94054 7.24895 6.62711
#
# Compressibility (1/GPa) = 0.02035640
#
# Stress axis : x y z
#
# Youngs Moduli (GPa) = 290.76619 79.66718 87.47259
#
# Poissons Ratio (x) = 0.12331 0.10227
# Poissons Ratio (y) = 0.45004 0.07143
# Poissons Ratio (z) = 0.33997 0.06506
#
# Static dielectric constant tensor:
#      x y z
#    x 2.263650 0.000000 0.102550 
#    y 0.000000 2.150860 0.000000 
#    z 0.102550 0.000000 2.213170 
# 
# From -- ./inp_files/194660.got.cif
#   From: 2010.05.17/outbox.cif.g08.bks.cpg/sg15_98_cif.got.tgz:194660.got - 2010.06.03 18:47:42.
