data_PCOD9264383
_publ_section_title
;
Structure prediction by ZEFSAII (Michael W. Deem and Ramdas Pophale) SiO2 
 PCOD9264383
Probable space group: C 2/C
;
_chemical_formula_sum "Si O2"
_cell_formula_units_Z 40
_cell_length_a 19.511291
_cell_length_b 15.658798
_cell_length_c 9.201808
_cell_angle_alpha 90.000000
_cell_angle_beta 38.820755
_cell_angle_gamma 90.000000
_cell_volume 1762.407051
_symmetry_space_group_name_H-M "C 2/C"
_symmetry_group_IT_number 15
_symmetry_cell_setting 'monoclinic'
loop_
_space_group_symop_operation_xyz
x,y,z
-x,y,1/2-z
-x,-y,-z
x,-y,1/2+z
1/2+x,1/2+y,z
1/2-x,1/2+y,1/2-z
1/2-x,1/2-y,-z
1/2+x,1/2-y,1/2+z
loop_
_atom_site_type_symbol
_atom_site_label
_atom_site_fract_x
_atom_site_fract_y
_atom_site_fract_z
Si Si1 0.500000 0.504113 0.750000
Si Si2 0.828664 0.153739 0.962431
Si Si3 0.841879 0.568473 0.059952
Si Si4 0.805448 0.912726 0.205909
Si Si5 0.000000 0.703754 0.250000
Si Si6 0.605961 0.912805 0.342423
O O1 0.407640 0.569009 0.841875
O O2 0.571587 0.441153 0.531747
O O3 0.797655 0.155996 0.845133
O O4 0.899213 0.233713 0.891469
O O5 0.727630 0.136532 0.235737
O O6 0.756505 0.498171 0.135512
O O7 0.903290 0.509213 0.077131
O O8 0.901272 0.599957 0.817475
O O9 0.730719 0.889114 0.190310
O O10 0.974887 0.644860 0.429584
#
# Coordination Sequence:
#
# PCOD9264383 Si02
#       6
#     4   8   8   8   4   8
#     4   9  16  28  60  92 111 136 198 251 284 336
#     4  10  19  35  58  87 123 146 188 245 308 338
#     4   9  17  37  63  85 104 156 202 244 271 351
#     4   9  17  33  58  87 108 149 195 247 276 342
#     4  11  26  36  52  92 133 156 180 245 302 354
#     4  10  21  38  60  87 118 156 203 240 288 342
#
# _framework density 22.696232999999999
#
# number of rings (size 3 to 8) (size 9 to 14) (size 15 to 20)
#    1.200    1.200    2.000    0.600    0.000    5.600 
#    0.000    0.000    0.000    4.800    0.000    0.000 
#    0.000    0.000    0.000    0.000    0.000    0.000 
#
# Total GULP energy -111627.513881 kJ/mol
# GULP energy per Si atom -5581.375694 kJ/mol
# Density = 2.264458 g / cm^3
# Si number density = 22.696233 Si / 1000 Ang^3
#
#
#
# Elastic Constant Matrix: (Units=GPa)
#
#
# Indices 1 2 3 4 5 6 
#
# 1 104.5621 38.4660 66.8956 0.0000 25.4661 0.0000
# 2 38.4660 95.7186 68.8259 0.0000 1.8442 0.0000
# 3 66.8956 68.8259 183.0546 0.0000 19.7812 0.0000
# 4 0.0000 0.0000 0.0000 39.6642 0.0000 -12.9057
# 5 25.4661 1.8442 19.7812 0.0000 30.9698 0.0000
# 6 0.0000 0.0000 0.0000 -12.9057 0.0000 29.9149
#
#
#
# Elastic Compliance Matrix: (Units=1/GPa)
#
#
# Indices 1 2 3 4 5 6 
#
# 1 0.015516 -0.003803 -0.003100 0.000000 -0.010552 0.000000
# 2 -0.003803 0.015476 -0.005013 0.000000 0.005408 0.000000
# 3 -0.003100 -0.005013 0.008779 0.000000 -0.002760 0.000000
# 4 0.000000 0.000000 0.000000 0.029329 0.000000 0.012653
# 5 -0.010552 0.005408 -0.002760 0.000000 0.042407 0.000000
# 6 0.000000 0.000000 0.000000 0.012653 0.000000 0.038887
#
#
# Mechanical properties :
#
#
# Convention : Reuss Voigt Hill
#
# Bulk Modulus (GPa) = 62.74211 81.30115 72.02163
# Shear Modulus (GPa) = 27.84903 34.05295 30.95099
#
# Velocity S-wave (km/s) = 3.50670 3.87767 3.69685
# Velocity P-wave (km/s) = 6.64080 7.47982 7.07276
#
# Compressibility (1/GPa) = 0.01593826
#
# Stress axis : x y z
#
# Youngs Moduli (GPa) = 64.44954 64.61490 113.90882
#
# Poissons Ratio (x) = 0.24573 0.35312
# Poissons Ratio (y) = 0.24510 0.57108
# Poissons Ratio (z) = 0.19980 0.32395
#
# Static dielectric constant tensor:
#      x y z
#    x 1.906740 0.000000 -0.022700 
#    y 0.000000 1.844520 0.000000 
#    z -0.022700 0.000000 1.838940 
# 
# From -- ./inp_files/61389.got.cif
#   From: 2010.05.17/outbox.cif.g08.bks.cpg/sg15_31_cif.got.tgz:61389.got - 2010.06.03 18:47:42.
