data_PCOD9264268
_publ_section_title
;
Structure prediction by ZEFSAII (Michael W. Deem and Ramdas Pophale) SiO2 
 PCOD9264268
Probable space group: C 2/C
;
_chemical_formula_sum "Si O2"
_cell_formula_units_Z 48
_cell_length_a 10.167004
_cell_length_b 21.711928
_cell_length_c 10.949340
_cell_angle_alpha 90.000000
_cell_angle_beta 84.496961
_cell_angle_gamma 90.000000
_cell_volume 2405.875144
_symmetry_space_group_name_H-M "C 2/C"
_symmetry_group_IT_number 15
_symmetry_cell_setting 'monoclinic'
loop_
_space_group_symop_operation_xyz
x,y,z
-x,y,1/2-z
-x,-y,-z
x,-y,1/2+z
1/2+x,1/2+y,z
1/2-x,1/2+y,1/2-z
1/2-x,1/2-y,-z
1/2+x,1/2-y,1/2+z
loop_
_atom_site_type_symbol
_atom_site_label
_atom_site_fract_x
_atom_site_fract_y
_atom_site_fract_z
Si Si1 0.160049 0.549435 0.725070
Si Si2 0.295770 0.191996 0.835036
Si Si3 0.379948 0.306939 0.677357
Si Si4 0.609369 0.860184 0.650643
Si Si5 0.465421 0.251471 0.039253
Si Si6 0.350969 0.025333 0.507791
O O1 0.191306 0.621210 0.701461
O O2 0.208982 0.511624 0.602095
O O3 0.000000 0.545392 0.750000
O O4 0.209678 0.523417 0.851309
O O5 0.345045 0.238073 0.725732
O O6 0.146530 0.211281 0.879644
O O7 0.385697 0.211060 0.944320
O O8 0.500000 0.330084 0.750000
O O9 0.248436 0.346558 0.701904
O O10 0.435719 0.298135 0.537055
O O11 0.500000 0.889663 0.750000
O O12 0.546835 0.796208 0.612428
O O13 0.636725 0.904033 0.534610
O O14 0.500000 0.000000 0.500000
#
# Coordination Sequence:
#
# PCOD9264268 Si02
#       6
#     8   8   8   8   8   8
#     4  10  19  36  56  88 125 168 210 269 319 375
#     4  10  19  35  57  85 127 165 210 253 326 387
#     4  10  21  38  54  87 126 162 202 255 327 381
#     4  12  21  35  59  92 122 156 212 268 311 382
#     4  10  20  33  55  88 118 170 205 253 321 385
#     4  10  21  36  58  92 123 162 215 267 323 363
#
# _framework density 19.951160000000002
#
# number of rings (size 3 to 8) (size 9 to 14) (size 15 to 20)
#    0.000    1.667    1.667    6.500    0.000    0.000 
#    0.000    0.000    0.000    1.000    4.333    0.000 
#    0.000    0.000    0.000    0.000    0.000    0.000 
#
# Total GULP energy -133997.727674 kJ/mol
# GULP energy per Si atom -5583.238653 kJ/mol
# Density = 1.990575 g / cm^3
# Si number density = 19.951160 Si / 1000 Ang^3
#
#
#
# Elastic Constant Matrix: (Units=GPa)
#
#
# Indices 1 2 3 4 5 6 
#
# 1 91.6411 29.1331 27.4085 0.0000 -6.0429 0.0000
# 2 29.1331 64.7105 35.6981 0.0000 4.9434 0.0000
# 3 27.4085 35.6981 99.8064 0.0000 -5.1663 0.0000
# 4 0.0000 0.0000 0.0000 28.0534 0.0000 -0.8088
# 5 -6.0429 4.9434 -5.1663 0.0000 21.6811 0.0000
# 6 0.0000 0.0000 0.0000 -0.8088 0.0000 15.1817
#
#
#
# Elastic Compliance Matrix: (Units=1/GPa)
#
#
# Indices 1 2 3 4 5 6 
#
# 1 0.013436 -0.005612 -0.001440 0.000000 0.004681 0.000000
# 2 -0.005612 0.022429 -0.006912 0.000000 -0.008325 0.000000
# 3 -0.001440 -0.006912 0.013110 0.000000 0.004298 0.000000
# 4 0.000000 0.000000 0.000000 0.035701 0.000000 0.001902
# 5 0.004681 -0.008325 0.004298 0.000000 0.050350 0.000000
# 6 0.000000 0.000000 0.000000 0.001902 0.000000 0.065970
#
#
# Mechanical properties :
#
#
# Convention : Reuss Voigt Hill
#
# Bulk Modulus (GPa) = 47.51483 48.95970 48.23726
# Shear Modulus (GPa) = 21.19189 23.91113 22.55151
#
# Velocity S-wave (km/s) = 3.26266 3.46567 3.36569
# Velocity P-wave (km/s) = 6.16932 6.37240 6.27168
#
# Compressibility (1/GPa) = 0.02104606
#
# Stress axis : x y z
#
# Youngs Moduli (GPa) = 74.42914 44.58496 76.27974
#
# Poissons Ratio (x) = 0.25021 0.10985
# Poissons Ratio (y) = 0.41769 0.52725
# Poissons Ratio (z) = 0.10718 0.30818
#
# Static dielectric constant tensor:
#      x y z
#    x 1.684730 0.000000 0.005960 
#    y 0.000000 1.682460 0.000000 
#    z 0.005960 0.000000 1.792110 
# 
# From -- ./inp_files/88483.got.cif
#   From: 2010.05.17/outbox.cif.g08.bks.cpg/sg15_45_cif.got.tgz:88483.got - 2010.06.03 18:47:42.
