data_PCOD9264466
_publ_section_title
;
Structure prediction by ZEFSAII (Michael W. Deem and Ramdas Pophale) SiO2 
 PCOD9264466
Probable space group: C 2/C
;
_chemical_formula_sum "Si O2"
_cell_formula_units_Z 64
_cell_length_a 12.727857
_cell_length_b 21.776333
_cell_length_c 20.002874
_cell_angle_alpha 90.000000
_cell_angle_beta 143.219432
_cell_angle_gamma 90.000000
_cell_volume 3319.551483
_symmetry_space_group_name_H-M "C 2/C"
_symmetry_group_IT_number 15
_symmetry_cell_setting 'monoclinic'
loop_
_space_group_symop_operation_xyz
x,y,z
-x,y,1/2-z
-x,-y,-z
x,-y,1/2+z
1/2+x,1/2+y,z
1/2-x,1/2+y,1/2-z
1/2-x,1/2-y,-z
1/2+x,1/2-y,1/2+z
loop_
_atom_site_type_symbol
_atom_site_label
_atom_site_fract_x
_atom_site_fract_y
_atom_site_fract_z
Si Si1 0.355318 0.128065 0.281106
Si Si2 0.870176 0.948313 0.743341
Si Si3 0.656127 0.844111 0.026535
Si Si4 0.942291 0.025829 0.541871
Si Si5 0.032292 0.499653 0.339542
Si Si6 0.321694 0.248573 0.201719
Si Si7 0.643505 0.941195 0.122718
Si Si8 0.459754 0.359655 0.340700
O O1 0.218736 0.110181 0.268725
O O2 0.529161 0.160963 0.398879
O O3 0.417466 0.062643 0.283224
O O4 0.271967 0.178944 0.191257
O O5 0.000000 0.933789 0.750000
O O6 0.963143 0.986925 0.850816
O O7 0.721814 0.994246 0.638833
O O8 0.678087 0.784871 0.084645
O O9 0.573578 0.900543 0.026467
O O10 0.854172 0.858676 0.103240
O O11 0.735147 0.018054 0.447951
O O12 0.000000 0.000000 0.500000
O O13 0.998195 0.097536 0.574581
O O14 0.000000 0.470785 0.250000
O O15 0.970466 0.457206 0.369884
O O16 0.500000 0.246654 0.250000
O O17 0.375223 0.291830 0.292684
O O18 0.811738 0.899883 0.228393
#
# Coordination Sequence:
#
# PCOD9264466 Si02
#       8
#     8   8   8   8   8   8   8   8
#     4  11  22  36  56  88 113 148 192 242 282 329
#     4  10  22  36  58  82 118 152 188 238 284 346
#     4  10  19  35  59  85 111 149 189 235 283 343
#     4  11  21  37  56  85 121 155 184 230 302 345
#     4  11  22  35  54  86 121 148 186 234 280 352
#     4   9  20  36  56  80 115 147 189 235 285 342
#     4   9  18  32  57  80 114 145 187 223 282 338
#     4   9  17  35  54  82 112 149 183 230 281 343
#
# _framework density 19.279713999999998
#
# number of rings (size 3 to 8) (size 9 to 14) (size 15 to 20)
#    0.000    2.000    1.250    5.250    1.750    3.500 
#    4.500    0.000    0.000    6.750    0.000    0.000 
#    0.000    0.000    0.000    0.000    0.000    0.000 
#
# Total GULP energy -178436.552474 kJ/mol
# GULP energy per Si atom -5576.142265 kJ/mol
# Density = 1.923583 g / cm^3
# Si number density = 19.279714 Si / 1000 Ang^3
#
#
#
# Elastic Constant Matrix: (Units=GPa)
#
#
# Indices 1 2 3 4 5 6 
#
# 1 80.2943 13.4592 2.9188 -0.0005 1.1395 -0.0001
# 2 13.4592 67.9008 -0.7705 -0.0009 -3.4174 -0.0003
# 3 2.9188 -0.7705 40.8822 -0.0027 0.7834 -0.0012
# 4 -0.0005 -0.0009 -0.0027 22.9216 -0.0009 -8.5530
# 5 1.1395 -3.4174 0.7834 -0.0009 24.2658 -0.0003
# 6 -0.0001 -0.0003 -0.0012 -8.5530 -0.0003 25.6227
#
#
#
# Elastic Compliance Matrix: (Units=1/GPa)
#
#
# Indices 1 2 3 4 5 6 
#
# 1 0.012942 -0.002624 -0.000955 0.000000 -0.000946 0.000000
# 2 -0.002624 0.015367 0.000433 0.000001 0.002273 0.000001
# 3 -0.000955 0.000433 0.024550 0.000004 -0.000687 0.000002
# 4 0.000000 0.000001 0.000004 0.049834 0.000002 0.016635
# 5 -0.000946 0.002273 -0.000687 0.000002 0.041597 0.000001
# 6 0.000000 0.000001 0.000002 0.016635 0.000001 0.044581
#
#
# Mechanical properties :
#
#
# Convention : Reuss Voigt Hill
#
# Bulk Modulus (GPa) = 21.47424 24.47693 22.97558
# Shear Modulus (GPa) = 23.73211 26.12667 24.92939
#
# Velocity S-wave (km/s) = 3.51228 3.68521 3.59978
# Velocity P-wave (km/s) = 5.25458 5.55257 5.40562
#
# Compressibility (1/GPa) = 0.04656743
#
# Stress axis : x y z
#
# Youngs Moduli (GPa) = 77.26684 65.07535 40.73306
#
# Poissons Ratio (x) = 0.17075 0.03891
# Poissons Ratio (y) = 0.20274 -0.01765
# Poissons Ratio (z) = 0.07382 -0.02820
#
# Static dielectric constant tensor:
#      x y z
#    x 1.664040 0.000000 -0.034360 
#    y 0.000000 1.695620 0.000000 
#    z -0.034360 0.000000 1.769450 
# 
# From -- ./inp_files/240411.got.cif
#   From: 2010.05.17/outbox.cif.g08.bks.cpg/sg15_121_cif.got.tgz:240411.got - 2010.06.03 18:47:42.
