data_PCOD9264314
_publ_section_title
;
Structure prediction by ZEFSAII (Michael W. Deem and Ramdas Pophale) SiO2 
 PCOD9264314
Probable space group: C 2/C
;
_chemical_formula_sum "Si O2"
_cell_formula_units_Z 56
_cell_length_a 17.223347
_cell_length_b 18.054692
_cell_length_c 13.167909
_cell_angle_alpha 90.000000
_cell_angle_beta 139.892122
_cell_angle_gamma 90.000000
_cell_volume 2637.938016
_symmetry_space_group_name_H-M "C 2/C"
_symmetry_group_IT_number 15
_symmetry_cell_setting 'monoclinic'
loop_
_space_group_symop_operation_xyz
x,y,z
-x,y,1/2-z
-x,-y,-z
x,-y,1/2+z
1/2+x,1/2+y,z
1/2-x,1/2+y,1/2-z
1/2-x,1/2-y,-z
1/2+x,1/2-y,1/2+z
loop_
_atom_site_type_symbol
_atom_site_label
_atom_site_fract_x
_atom_site_fract_y
_atom_site_fract_z
Si Si1 0.750576 0.744585 0.326051
Si Si2 0.233252 0.511196 0.713853
Si Si3 0.319168 0.371998 0.895183
Si Si4 0.870744 0.795461 0.144263
Si Si5 0.582286 0.360288 0.087065
Si Si6 0.914270 0.619084 0.817534
Si Si7 0.681085 0.102818 0.997870
O O1 0.750757 0.697954 0.221573
O O2 0.864056 0.800916 0.439096
O O3 0.635074 0.798529 0.210830
O O4 0.751071 0.680443 0.411500
O O5 0.239114 0.443468 0.798043
O O6 0.347725 0.562704 0.849874
O O7 0.121488 0.565197 0.625899
O O8 0.234381 0.469454 0.606746
O O9 0.361195 0.360625 0.051440
O O10 0.440377 0.373842 0.947955
O O11 0.879485 0.827028 0.265367
O O12 0.000000 0.756310 0.250000
O O13 0.750000 0.750000 0.000000
O O14 0.842728 0.593395 0.644589
O O15 0.052978 0.615645 0.926479
#
# Coordination Sequence:
#
# PCOD9264314 Si02
#       7
#     8   8   8   8   8   8   8
#     4  10  19  35  58  80 106 136 183 226 283 326
#     4  10  22  36  56  78 112 144 184 218 278 330
#     4  10  20  35  56  79 110 144 183 229 277 330
#     4  10  20  36  56  84 114 149 190 235 284 333
#     4  10  20  35  56  79 110 144 183 229 277 330
#     4  10  21  37  56  80 109 143 182 227 275 330
#     4  10  21  37  56  80 109 143 182 227 275 330
#
# _framework density 21.228701999999998
#
# number of rings (size 3 to 8) (size 9 to 14) (size 15 to 20)
#    0.000    2.000    1.429    2.143    2.000    0.000 
#    0.000    1.429    0.000    5.143    0.000    0.000 
#    0.000    0.000    0.000    0.000    0.000    0.000 
#
# Total GULP energy -156183.050778 kJ/mol
# GULP energy per Si atom -5577.966099 kJ/mol
# Density = 2.118038 g / cm^3
# Si number density = 21.228702 Si / 1000 Ang^3
#
#
#
# Elastic Constant Matrix: (Units=GPa)
#
#
# Indices 1 2 3 4 5 6 
#
# 1 28.5865 14.4756 -7.7589 0.0000 2.0994 0.0000
# 2 14.4756 112.5195 14.6415 0.0000 5.8001 0.0000
# 3 -7.7589 14.6415 50.3239 0.0000 -1.9776 0.0000
# 4 0.0000 0.0000 0.0000 17.8082 0.0000 2.7869
# 5 2.0994 5.8001 -1.9776 0.0000 29.0117 0.0000
# 6 0.0000 0.0000 0.0000 2.7869 0.0000 17.2299
#
#
#
# Elastic Compliance Matrix: (Units=1/GPa)
#
#
# Indices 1 2 3 4 5 6 
#
# 1 0.040353 -0.006170 0.007972 0.000000 -0.001143 0.000000
# 2 -0.006170 0.010302 -0.004023 0.000000 -0.001887 0.000000
# 3 0.007972 -0.004023 0.022340 0.000000 0.001750 0.000000
# 4 0.000000 0.000000 0.000000 0.057612 0.000000 -0.009319
# 5 -0.001143 -0.001887 0.001750 0.000000 0.035048 0.000000
# 6 0.000000 0.000000 0.000000 -0.009319 0.000000 0.059546
#
#
# Mechanical properties :
#
#
# Convention : Reuss Voigt Hill
#
# Bulk Modulus (GPa) = 14.58718 26.01626 20.30172
# Shear Modulus (GPa) = 19.80246 24.14806 21.97526
#
# Velocity S-wave (km/s) = 3.05752 3.37637 3.22089
# Velocity P-wave (km/s) = 4.39897 5.24230 4.83904
#
# Compressibility (1/GPa) = 0.06855335
#
# Stress axis : x y z
#
# Youngs Moduli (GPa) = 24.78101 97.06998 44.76367
#
# Poissons Ratio (x) = 0.59891 -0.35685
# Poissons Ratio (y) = 0.15290 0.18007
# Poissons Ratio (z) = -0.19755 0.39048
#
# Static dielectric constant tensor:
#      x y z
#    x 1.728010 0.000000 0.015600 
#    y 0.000000 1.759650 0.000000 
#    z 0.015600 0.000000 1.761530 
# 
# From -- ./inp_files/163108.got.cif
#   From: 2010.05.17/outbox.cif.g08.bks.cpg/sg15_82_cif.got.tgz:163108.got - 2010.06.03 18:47:42.
