data_PCOD9264664
_publ_section_title
;
Structure prediction by ZEFSAII (Michael W. Deem and Ramdas Pophale) SiO2 
 PCOD9264664
Probable space group: C 2/C
;
_chemical_formula_sum "Si O2"
_cell_formula_units_Z 60
_cell_length_a 15.564375
_cell_length_b 10.047617
_cell_length_c 21.923645
_cell_angle_alpha 90.000000
_cell_angle_beta 66.547720
_cell_angle_gamma 90.000000
_cell_volume 3145.302374
_symmetry_space_group_name_H-M "C 2/C"
_symmetry_group_IT_number 15
_symmetry_cell_setting 'monoclinic'
loop_
_space_group_symop_operation_xyz
x,y,z
-x,y,1/2-z
-x,-y,-z
x,-y,1/2+z
1/2+x,1/2+y,z
1/2-x,1/2+y,1/2-z
1/2-x,1/2-y,-z
1/2+x,1/2-y,1/2+z
loop_
_atom_site_type_symbol
_atom_site_label
_atom_site_fract_x
_atom_site_fract_y
_atom_site_fract_z
Si Si1 0.491898 0.317538 0.374151
Si Si2 0.204601 0.698066 0.451538
Si Si3 0.198004 0.809394 0.921492
Si Si4 0.798282 0.569889 0.275142
Si Si5 0.691514 0.566667 0.551869
Si Si6 0.989046 0.659905 0.497958
Si Si7 0.707675 0.304019 0.319399
Si Si8 0.000000 0.346442 0.750000
O O1 0.418571 0.437109 0.401625
O O2 0.472831 0.208907 0.432853
O O3 0.600242 0.354208 0.350108
O O4 0.479958 0.246939 0.313177
O O5 0.250000 0.750000 0.500000
O O6 0.242622 0.547195 0.440000
O O7 0.092260 0.709742 0.487250
O O8 0.234979 0.772212 0.381193
O O9 0.236692 0.872743 0.848705
O O10 0.270753 0.701150 0.927367
O O11 0.194674 0.917551 0.977483
O O12 0.098173 0.731754 0.943623
O O13 0.767213 0.419942 0.272172
O O14 0.788452 0.669039 0.220843
O O15 0.906967 0.571567 0.262933
O O16 0.000000 0.500000 0.500000
#
# Coordination Sequence:
#
# PCOD9264664 Si02
#       8
#     8   8   8   8   8   8   8   4
#     4   9  20  36  57  88 115 156 197 240 299 360
#     4  11  23  38  59  87 125 158 196 249 301 350
#     4  10  20  34  62  89 118 150 196 250 291 357
#     4  11  23  41  61  88 118 158 203 245 305 352
#     4  10  19  35  61  90 115 151 198 242 293 350
#     4  10  20  35  57  88 118 157 202 242 293 355
#     4  10  25  41  61  86 123 161 197 249 302 363
#     4  10  20  36  62  82 114 150 198 250 286 352
#
# _framework density 19.076066999999998
#
# number of rings (size 3 to 8) (size 9 to 14) (size 15 to 20)
#    0.000    1.867    2.667    0.800    1.867    3.200 
#    0.000    5.333    0.000    0.000    0.000    0.000 
#    0.000    0.000    0.000    0.000    0.000    0.000 
#
# Total GULP energy -167355.234758 kJ/mol
# GULP energy per Si atom -5578.507825 kJ/mol
# Density = 1.903265 g / cm^3
# Si number density = 19.076067 Si / 1000 Ang^3
#
#
#
# Elastic Constant Matrix: (Units=GPa)
#
#
# Indices 1 2 3 4 5 6 
#
# 1 98.8799 37.9019 43.6250 0.0000 -0.4867 0.0000
# 2 37.9019 54.5259 11.8264 0.0000 -4.0111 0.0000
# 3 43.6250 11.8264 62.3732 0.0000 -4.8560 0.0000
# 4 0.0000 0.0000 0.0000 20.0569 0.0000 -3.2404
# 5 -0.4867 -4.0111 -4.8560 0.0000 30.1186 0.0000
# 6 0.0000 0.0000 0.0000 -3.2404 0.0000 24.2813
#
#
#
# Elastic Compliance Matrix: (Units=1/GPa)
#
#
# Indices 1 2 3 4 5 6 
#
# 1 0.019669 -0.011330 -0.011850 0.000000 -0.003102 0.000000
# 2 -0.011330 0.025771 0.003333 0.000000 0.003786 0.000000
# 3 -0.011850 0.003333 0.024010 0.000000 0.004124 0.000000
# 4 0.000000 0.000000 0.000000 0.050957 0.000000 0.006800
# 5 -0.003102 0.003786 0.004124 0.000000 0.034321 0.000000
# 6 0.000000 0.000000 0.000000 0.006800 0.000000 0.042091
#
#
# Mechanical properties :
#
#
# Convention : Reuss Voigt Hill
#
# Bulk Modulus (GPa) = 33.60732 44.72062 39.16397
# Shear Modulus (GPa) = 20.28943 23.05307 21.67125
#
# Velocity S-wave (km/s) = 3.26484 3.48009 3.37418
# Velocity P-wave (km/s) = 5.64517 6.29621 5.97956
#
# Compressibility (1/GPa) = 0.02975542
#
# Stress axis : x y z
#
# Youngs Moduli (GPa) = 50.84065 38.80263 41.64956
#
# Poissons Ratio (x) = 0.43965 0.49356
# Poissons Ratio (y) = 0.57604 -0.13882
# Poissons Ratio (z) = 0.60247 -0.12933
#
# Static dielectric constant tensor:
#      x y z
#    x 1.697690 0.000000 -0.030660 
#    y 0.000000 1.713650 0.000000 
#    z -0.030660 0.000000 1.667440 
# 
# From -- ./inp_files/273125.got.cif
#   From: 2010.05.17/outbox.cif.g08.bks.cpg/sg15_137_cif.got.tgz:273125.got - 2010.06.03 18:47:42.
