data_PCOD9264601
_publ_section_title
;
Structure prediction by ZEFSAII (Michael W. Deem and Ramdas Pophale) SiO2 
 PCOD9264601
Probable space group: C 2/C
;
_chemical_formula_sum "Si O2"
_cell_formula_units_Z 56
_cell_length_a 15.516011
_cell_length_b 19.233344
_cell_length_c 15.400163
_cell_angle_alpha 90.000000
_cell_angle_beta 30.445877
_cell_angle_gamma 90.000000
_cell_volume 2328.798212
_symmetry_space_group_name_H-M "C 2/C"
_symmetry_group_IT_number 15
_symmetry_cell_setting 'monoclinic'
loop_
_space_group_symop_operation_xyz
x,y,z
-x,y,1/2-z
-x,-y,-z
x,-y,1/2+z
1/2+x,1/2+y,z
1/2-x,1/2+y,1/2-z
1/2-x,1/2-y,-z
1/2+x,1/2-y,1/2+z
loop_
_atom_site_type_symbol
_atom_site_label
_atom_site_fract_x
_atom_site_fract_y
_atom_site_fract_z
Si Si1 0.908709 0.152548 0.537479
Si Si2 0.237197 0.303970 0.855549
Si Si3 0.921142 0.262719 0.898826
Si Si4 0.168588 0.471247 0.542280
Si Si5 0.467043 0.120106 0.092880
Si Si6 0.697407 0.876701 0.056483
Si Si7 0.112082 0.112987 0.512502
O O1 0.815005 0.227347 0.633125
O O2 0.797125 0.117063 0.560235
O O3 0.085371 0.176714 0.341501
O O4 0.966128 0.100141 0.565630
O O5 0.097618 0.361954 0.946527
O O6 0.253899 0.314997 0.943688
O O7 0.000000 0.304753 0.750000
O O8 0.928213 0.310802 0.973710
O O9 0.750000 0.250000 0.000000
O O10 0.969971 0.185203 0.881012
O O11 0.226067 0.550192 0.483094
O O12 0.318881 0.430402 0.464226
O O13 0.000000 0.471818 0.750000
O O14 0.093035 0.439384 0.518211
O O15 0.289770 0.120759 0.303060
O O16 0.500000 0.866799 0.250000
#
# Coordination Sequence:
#
# PCOD9264601 Si02
#       7
#     8   8   8   8   8   8   8
#     4  11  23  40  64  89 120 151 198 249 300 348
#     4  11  23  39  64  90 119 152 197 249 300 346
#     4  12  19  31  56  87 124 156 188 234 291 355
#     4   9  19  38  62  86 122 162 194 230 293 360
#     4  10  19  35  60  90 120 155 191 236 292 358
#     4  11  24  43  62  83 114 161 209 248 287 346
#     4  10  20  36  58  91 121 155 190 236 297 352
#
# _framework density 24.046738999999999
#
# number of rings (size 3 to 8) (size 9 to 14) (size 15 to 20)
#    0.000    1.429    4.286    2.143    0.000    1.143 
#    2.571    1.429    0.000    0.000    0.000    0.000 
#    0.000    0.000    0.000    0.000    0.000    0.000 
#
# Total GULP energy -155878.186813 kJ/mol
# GULP energy per Si atom -5567.078100 kJ/mol
# Density = 2.399201 g / cm^3
# Si number density = 24.046739 Si / 1000 Ang^3
#
#
#
# Elastic Constant Matrix: (Units=GPa)
#
#
# Indices 1 2 3 4 5 6 
#
# 1 122.4682 22.9724 8.7761 0.0060 -44.5559 -0.0006
# 2 22.9724 71.8624 -0.5217 -0.0007 -10.3942 0.0083
# 3 8.7761 -0.5217 42.3573 -0.0078 -18.9192 -0.0064
# 4 0.0060 -0.0007 -0.0078 9.1858 0.0005 -0.0507
# 5 -44.5559 -10.3942 -18.9192 0.0005 34.8518 -0.0003
# 6 -0.0006 0.0083 -0.0064 -0.0507 -0.0003 16.8971
#
#
#
# Elastic Compliance Matrix: (Units=1/GPa)
#
#
# Indices 1 2 3 4 5 6 
#
# 1 0.017411 -0.001732 0.008029 -0.000006 0.026101 0.000005
# 2 -0.001732 0.014970 0.002044 0.000004 0.003360 -0.000007
# 3 0.008029 0.002044 0.035414 0.000024 0.030099 0.000013
# 4 -0.000006 0.000004 0.000024 0.108865 0.000005 0.000326
# 5 0.026101 0.003360 0.030099 0.000005 0.079402 0.000012
# 6 0.000005 -0.000007 0.000013 0.000326 0.000012 0.059183
#
#
# Mechanical properties :
#
#
# Convention : Reuss Voigt Hill
#
# Bulk Modulus (GPa) = 11.83752 33.23795 22.53773
# Shear Modulus (GPa) = 15.30350 25.88434 20.59392
#
# Velocity S-wave (km/s) = 2.52545 3.28444 2.92963
# Velocity P-wave (km/s) = 3.66568 5.31372 4.56469
#
# Compressibility (1/GPa) = 0.08447715
#
# Stress axis : x y z
#
# Youngs Moduli (GPa) = 57.43551 66.80025 28.23725
#
# Poissons Ratio (x) = 0.11571 -0.22673
# Poissons Ratio (y) = 0.09949 -0.05771
# Poissons Ratio (z) = -0.46117 -0.13653
#
# Static dielectric constant tensor:
#      x y z
#    x 1.970040 0.000000 -0.010260 
#    y 0.000000 1.979510 0.000000 
#    z -0.010260 0.000000 1.957040 
# 
# From -- ./inp_files/41224.got.cif
#   From: 2010.05.17/outbox.cif.g08.bks.cpg/sg15_21_cif.got.tgz:41224.got - 2010.06.03 18:47:42.
