data_PCOD9264586
_publ_section_title
;
Structure prediction by ZEFSAII (Michael W. Deem and Ramdas Pophale) SiO2 
 PCOD9264586
Probable space group: C 2/C
;
_chemical_formula_sum "Si O2"
_cell_formula_units_Z 56
_cell_length_a 16.792324
_cell_length_b 8.158585
_cell_length_c 23.795471
_cell_angle_alpha 90.000000
_cell_angle_beta 131.513976
_cell_angle_gamma 90.000000
_cell_volume 2441.081887
_symmetry_space_group_name_H-M "C 2/C"
_symmetry_group_IT_number 15
_symmetry_cell_setting 'monoclinic'
loop_
_space_group_symop_operation_xyz
x,y,z
-x,y,1/2-z
-x,-y,-z
x,-y,1/2+z
1/2+x,1/2+y,z
1/2-x,1/2+y,1/2-z
1/2-x,1/2-y,-z
1/2+x,1/2-y,1/2+z
loop_
_atom_site_type_symbol
_atom_site_label
_atom_site_fract_x
_atom_site_fract_y
_atom_site_fract_z
Si Si1 0.124930 0.850110 0.503716
Si Si2 0.704706 0.992140 0.559594
Si Si3 0.843393 0.879837 0.270192
Si Si4 0.330582 0.654152 0.355772
Si Si5 0.930890 0.970139 0.637892
Si Si6 0.926010 0.641676 0.397296
Si Si7 0.039185 0.329012 0.411661
O O1 0.187100 0.676452 0.527926
O O2 0.170121 0.926033 0.582499
O O3 0.006059 0.780636 0.456845
O O4 0.115894 0.961991 0.444304
O O5 0.829095 0.976899 0.630109
O O6 0.630115 0.950145 0.577863
O O7 0.655455 0.860955 0.492281
O O8 0.755168 0.801726 0.188176
O O9 0.853337 0.738005 0.321123
O O10 0.812805 0.032676 0.295451
O O11 0.961059 0.927190 0.301349
O O12 0.449662 0.725764 0.403630
O O13 0.955623 0.778072 0.641798
O O14 0.989957 0.509878 0.389909
#
# Coordination Sequence:
#
# PCOD9264586 Si02
#       7
#     8   8   8   8   8   8   8
#     4  10  20  36  60  85 119 157 203 245 292 354
#     4  11  19  36  59  93 121 157 187 253 303 355
#     4  10  24  37  62  85 117 157 207 248 297 365
#     4  11  20  38  59  86 111 160 210 249 290 357
#     4  10  23  36  58  95 125 151 197 250 310 352
#     4  10  19  37  62  90 114 155 201 247 294 354
#     4  10  19  35  60  88 116 153 197 247 294 350
#
# _framework density 22.940649000000001
#
# number of rings (size 3 to 8) (size 9 to 14) (size 15 to 20)
#    0.000    1.714    2.857    2.571    2.000    1.714 
#    0.000    0.714    0.000    0.000    0.000    0.000 
#    0.000    0.000    0.000    0.000    0.000    0.000 
#
# Total GULP energy -156073.875783 kJ/mol
# GULP energy per Si atom -5574.066992 kJ/mol
# Density = 2.288844 g / cm^3
# Si number density = 22.940649 Si / 1000 Ang^3
#
#
#
# Elastic Constant Matrix: (Units=GPa)
#
#
# Indices 1 2 3 4 5 6 
#
# 1 86.0806 18.6591 18.0809 0.0000 17.0001 0.0000
# 2 18.6591 72.3228 12.3644 0.0000 2.2635 0.0000
# 3 18.0809 12.3644 81.1133 0.0000 12.6372 0.0000
# 4 0.0000 0.0000 0.0000 32.9457 0.0000 10.6988
# 5 17.0001 2.2635 12.6372 0.0000 14.4276 0.0000
# 6 0.0000 0.0000 0.0000 10.6988 0.0000 18.0716
#
#
#
# Elastic Compliance Matrix: (Units=1/GPa)
#
#
# Indices 1 2 3 4 5 6 
#
# 1 0.016004 -0.003527 -0.000206 0.000000 -0.018124 0.000000
# 2 -0.003527 0.014976 -0.002059 0.000000 0.003609 0.000000
# 3 -0.000206 -0.002059 0.014591 0.000000 -0.012215 0.000000
# 4 0.000000 0.000000 0.000000 0.037577 0.000000 -0.022247
# 5 -0.018124 0.003609 -0.012215 0.000000 0.100799 0.000000
# 6 0.000000 0.000000 0.000000 -0.022247 0.000000 0.068506
#
#
# Mechanical properties :
#
#
# Convention : Reuss Voigt Hill
#
# Bulk Modulus (GPa) = 29.42264 37.52506 33.47385
# Shear Modulus (GPa) = 18.15763 25.78315 21.97039
#
# Velocity S-wave (km/s) = 2.81642 3.35611 3.09804
# Velocity P-wave (km/s) = 4.84042 5.60454 5.23644
#
# Compressibility (1/GPa) = 0.03398744
#
# Stress axis : x y z
#
# Youngs Moduli (GPa) = 62.48433 66.77446 68.53412
#
# Poissons Ratio (x) = 0.23548 0.01414
# Poissons Ratio (y) = 0.22035 0.14111
# Poissons Ratio (z) = 0.01289 0.13749
#
# Static dielectric constant tensor:
#      x y z
#    x 1.908300 0.000000 -0.017700 
#    y 0.000000 1.841940 0.000000 
#    z -0.017700 0.000000 1.947130 
# 
# From -- ./inp_files/276623.got.cif
#   From: 2010.05.17/outbox.cif.g08.bks.cpg/sg15_139_cif.got.tgz:276623.got - 2010.06.03 18:47:42.
