data_PCOD9264790
_publ_section_title
;
Structure prediction by ZEFSAII (Michael W. Deem and Ramdas Pophale) SiO2 
 PCOD9264790
Probable space group: C 2/C
;
_chemical_formula_sum "Si O2"
_cell_formula_units_Z 40
_cell_length_a 14.057065
_cell_length_b 13.149199
_cell_length_c 10.670410
_cell_angle_alpha 90.000000
_cell_angle_beta 111.255675
_cell_angle_gamma 90.000000
_cell_volume 1838.137127
_symmetry_space_group_name_H-M "C 2/C"
_symmetry_group_IT_number 15
_symmetry_cell_setting 'monoclinic'
loop_
_space_group_symop_operation_xyz
x,y,z
-x,y,1/2-z
-x,-y,-z
x,-y,1/2+z
1/2+x,1/2+y,z
1/2-x,1/2+y,1/2-z
1/2-x,1/2-y,-z
1/2+x,1/2-y,1/2+z
loop_
_atom_site_type_symbol
_atom_site_label
_atom_site_fract_x
_atom_site_fract_y
_atom_site_fract_z
Si Si1 0.762999 0.125086 0.152390
Si Si2 0.451784 0.108714 0.847655
Si Si3 0.746031 0.637492 0.638446
Si Si4 0.066650 0.023586 0.656315
Si Si5 0.532635 0.121839 0.134729
O O1 0.780475 0.245696 0.149299
O O2 0.851825 0.065778 0.268184
O O3 0.652574 0.120492 0.165353
O O4 0.755350 0.090925 0.002489
O O5 0.500000 0.161944 0.750000
O O6 0.333732 0.090417 0.766630
O O7 0.503930 0.996930 0.877937
O O8 0.477069 0.166262 0.986642
O O9 0.637812 0.618782 0.651464
O O10 0.000000 0.039396 0.750000
O O11 0.000000 0.000000 0.500000
O O12 0.500000 0.169184 0.250000
#
# Coordination Sequence:
#
# PCOD9264790 Si02
#       5
#     8   8   8   8   8
#     4  11  24  43  68 100 136 182 232 285 346 421
#     4  10  19  35  63  92 119 163 207 264 331 398
#     4  11  24  42  70 100 134 180 238 283 339 430
#     4  12  26  46  72 101 144 192 236 288 357 425
#     4  10  21  35  62  94 127 158 206 274 342 393
#
# _framework density 21.761161000000001
#
# number of rings (size 3 to 8) (size 9 to 14) (size 15 to 20)
#    0.000    1.200    6.000    0.000    0.000    4.800 
#    0.000    2.000    0.000    0.000    0.000    0.000 
#    0.000    0.000    0.000    0.000    0.000    0.000 
#
# Total GULP energy -111572.043886 kJ/mol
# GULP energy per Si atom -5578.602194 kJ/mol
# Density = 2.171163 g / cm^3
# Si number density = 21.761161 Si / 1000 Ang^3
#
#
#
# Elastic Constant Matrix: (Units=GPa)
#
#
# Indices 1 2 3 4 5 6 
#
# 1 155.9659 -3.0523 83.0210 0.0000 -12.5842 0.0000
# 2 -3.0523 29.6657 8.4092 0.0000 11.9073 0.0000
# 3 83.0210 8.4092 203.3587 0.0000 -8.0031 0.0000
# 4 0.0000 0.0000 0.0000 13.5922 0.0000 1.8204
# 5 -12.5842 11.9073 -8.0031 0.0000 49.5109 0.0000
# 6 0.0000 0.0000 0.0000 1.8204 0.0000 18.6740
#
#
#
# Elastic Compliance Matrix: (Units=1/GPa)
#
#
# Indices 1 2 3 4 5 6 
#
# 1 0.008358 0.001326 -0.003418 0.000000 0.001253 0.000000
# 2 0.001326 0.038271 -0.002489 0.000000 -0.009270 0.000000
# 3 -0.003418 -0.002489 0.006446 0.000000 0.000772 0.000000
# 4 0.000000 0.000000 0.000000 0.074545 0.000000 -0.007267
# 5 0.001253 -0.009270 0.000772 0.000000 0.022870 0.000000
# 6 0.000000 0.000000 0.000000 -0.007267 0.000000 0.054259
#
#
# Mechanical properties :
#
#
# Convention : Reuss Voigt Hill
#
# Bulk Modulus (GPa) = 22.77158 62.86068 42.81613
# Shear Modulus (GPa) = 21.87721 36.39624 29.13673
#
# Velocity S-wave (km/s) = 3.17414 4.09410 3.66311
# Velocity P-wave (km/s) = 4.89087 7.16228 6.13265
#
# Compressibility (1/GPa) = 0.04391438
#
# Stress axis : x y z
#
# Youngs Moduli (GPa) = 119.64701 26.12911 155.13631
#
# Poissons Ratio (x) = -0.03464 0.53020
# Poissons Ratio (y) = -0.15862 0.38608
# Poissons Ratio (z) = 0.40891 0.06503
#
# Static dielectric constant tensor:
#      x y z
#    x 1.809060 0.000000 -0.046130 
#    y 0.000000 1.858520 0.000000 
#    z -0.046130 0.000000 1.938480 
# 
# From -- ./inp_files/38068.got.cif
#   From: 2010.05.17/outbox.cif.g08.bks.cpg/sg15_20_cif.got.tgz:38068.got - 2010.06.03 18:47:42.
