data_PCOD9264910
_publ_section_title
;
Structure prediction by ZEFSAII (Michael W. Deem and Ramdas Pophale) SiO2 
 PCOD9264910
Probable space group: C 2/C
;
_chemical_formula_sum "Si O2"
_cell_formula_units_Z 64
_cell_length_a 29.969936
_cell_length_b 5.261109
_cell_length_c 18.508004
_cell_angle_alpha 90.000000
_cell_angle_beta 79.139598
_cell_angle_gamma 90.000000
_cell_volume 2865.983063
_symmetry_space_group_name_H-M "C 2/C"
_symmetry_group_IT_number 15
_symmetry_cell_setting 'monoclinic'
loop_
_space_group_symop_operation_xyz
x,y,z
-x,y,1/2-z
-x,-y,-z
x,-y,1/2+z
1/2+x,1/2+y,z
1/2-x,1/2+y,1/2-z
1/2-x,1/2-y,-z
1/2+x,1/2-y,1/2+z
loop_
_atom_site_type_symbol
_atom_site_label
_atom_site_fract_x
_atom_site_fract_y
_atom_site_fract_z
Si Si1 0.041470 0.696623 0.966987
Si Si2 0.978031 0.036692 0.652200
Si Si3 0.107498 0.612256 0.347229
Si Si4 0.140051 0.730860 0.181465
Si Si5 0.850649 0.222819 0.521765
Si Si6 0.696773 0.773692 0.530011
Si Si7 0.941332 0.091860 0.303233
Si Si8 0.075911 0.477639 0.087934
O O1 0.020690 0.925709 0.928246
O O2 0.084459 0.612716 0.902450
O O3 0.063690 0.706129 0.038969
O O4 0.000000 0.500000 0.000000
O O5 0.956401 0.845818 0.718263
O O6 0.024779 0.126339 0.675761
O O7 0.939035 0.247197 0.660626
O O8 0.136016 0.612689 0.263118
O O9 0.139453 0.756781 0.395846
O O10 0.185779 0.750142 0.119882
O O11 0.111594 0.551843 0.137418
O O12 0.110041 0.991099 0.185813
O O13 0.821216 0.461850 0.499954
O O14 0.899986 0.272097 0.471652
O O15 0.829171 0.960390 0.501216
O O16 0.750000 0.750000 0.500000
O O17 0.956950 0.307906 0.354312
#
# Coordination Sequence:
#
# PCOD9264910 Si02
#       8
#     8   8   8   8   8   8   8   8
#     4  11  22  34  51  82 115 165 217 273 313 365
#     4  10  22  33  54  80 120 164 223 269 310 366
#     4  10  24  40  57  88 126 173 210 265 319 379
#     4  10  22  40  62  85 123 168 211 262 330 385
#     4  10  23  42  67  98 132 165 205 263 324 386
#     4  11  23  45  74 102 127 162 210 262 324 401
#     4  10  19  36  52  82 117 167 215 270 315 370
#     4  10  20  35  57  81 117 165 210 259 320 379
#
# _framework density 22.330907
#
# number of rings (size 3 to 8) (size 9 to 14) (size 15 to 20)
#    0.000    1.750    2.500    1.125    7.000    0.500 
#    0.000    1.250    0.000    0.000    0.000    0.000 
#    0.000    0.000    0.000    0.000    0.000    0.000 
#
# Total GULP energy -178163.481251 kJ/mol
# GULP energy per Si atom -5567.608789 kJ/mol
# Density = 2.228008 g / cm^3
# Si number density = 22.330907 Si / 1000 Ang^3
#
#
#
# Elastic Constant Matrix: (Units=GPa)
#
#
# Indices 1 2 3 4 5 6 
#
# 1 65.4313 5.1795 32.2297 0.0000 -26.8401 0.0000
# 2 5.1795 61.7692 17.4336 0.0000 -0.5307 0.0000
# 3 32.2297 17.4336 217.2454 0.0000 -17.3590 0.0000
# 4 0.0000 0.0000 0.0000 31.2564 0.0000 1.7734
# 5 -26.8401 -0.5307 -17.3590 0.0000 37.6009 0.0000
# 6 0.0000 0.0000 0.0000 1.7734 0.0000 24.3972
#
#
#
# Elastic Compliance Matrix: (Units=1/GPa)
#
#
# Indices 1 2 3 4 5 6 
#
# 1 0.022612 -0.001188 -0.002046 0.000000 0.015179 0.000000
# 2 -0.001188 0.016633 -0.001254 0.000000 -0.001192 0.000000
# 3 -0.002046 -0.001254 0.005076 0.000000 0.000865 0.000000
# 4 0.000000 0.000000 0.000000 0.032126 0.000000 -0.002335
# 5 0.015179 -0.001192 0.000865 0.000000 0.037813 0.000000
# 6 0.000000 0.000000 0.000000 -0.002335 0.000000 0.041158
#
#
# Mechanical properties :
#
#
# Convention : Reuss Voigt Hill
#
# Bulk Modulus (GPa) = 28.29306 50.45907 39.37606
# Shear Modulus (GPa) = 28.38084 37.95777 33.16931
#
# Velocity S-wave (km/s) = 3.56887 4.12732 3.85821
# Velocity P-wave (km/s) = 5.44792 6.73485 6.12527
#
# Compressibility (1/GPa) = 0.03534436
#
# Stress axis : x y z
#
# Youngs Moduli (GPa) = 44.22484 60.12316 196.98907
#
# Poissons Ratio (x) = 0.07143 0.40311
# Poissons Ratio (y) = 0.05254 0.24697
# Poissons Ratio (z) = 0.09050 0.07538
#
# Static dielectric constant tensor:
#      x y z
#    x 1.957440 0.000000 -0.059340 
#    y 0.000000 2.238460 0.000000 
#    z -0.059340 0.000000 1.893020 
# 
# From -- ./inp_files/223902.got.cif
#   From: 2010.05.17/outbox.cif.g08.bks.cpg/sg15_112_cif.got.tgz:223902.got - 2010.06.03 18:47:42.
