data_PCOD9264100
_publ_section_title
;
Structure prediction by ZEFSAII (Michael W. Deem and Ramdas Pophale) SiO2 
 PCOD9264100
Probable space group: C 2/C
;
_chemical_formula_sum "Si O2"
_cell_formula_units_Z 44
_cell_length_a 12.416602
_cell_length_b 17.185975
_cell_length_c 20.451218
_cell_angle_alpha 90.000000
_cell_angle_beta 30.723604
_cell_angle_gamma 90.000000
_cell_volume 2229.613353
_symmetry_space_group_name_H-M "C 2/C"
_symmetry_group_IT_number 15
_symmetry_cell_setting 'monoclinic'
loop_
_space_group_symop_operation_xyz
x,y,z
-x,y,1/2-z
-x,-y,-z
x,-y,1/2+z
1/2+x,1/2+y,z
1/2-x,1/2+y,1/2-z
1/2-x,1/2-y,-z
1/2+x,1/2-y,1/2+z
loop_
_atom_site_type_symbol
_atom_site_label
_atom_site_fract_x
_atom_site_fract_y
_atom_site_fract_z
Si Si1 0.563346 0.049485 0.057306
Si Si2 0.420871 0.649135 0.900833
Si Si3 0.206714 0.546236 0.601783
Si Si4 0.328199 0.505441 0.794719
Si Si5 0.606743 0.617960 0.443525
Si Si6 0.500000 0.223978 0.250000
O O1 0.634176 0.978209 0.066926
O O2 0.313644 0.045787 0.178944
O O3 0.669015 0.043746 0.930482
O O4 0.675027 0.123600 0.030460
O O5 0.550828 0.574622 0.805316
O O6 0.488749 0.655592 0.940078
O O7 0.441338 0.719066 0.840459
O O8 0.409199 0.602545 0.499206
O O9 0.291211 0.466210 0.591602
O O10 0.000000 0.572295 0.750000
O O11 0.500000 0.462592 0.750000
O O12 0.804704 0.672707 0.326096
#
# Coordination Sequence:
#
# PCOD9264100 Si02
#       6
#     8   8   8   8   8   4
#     4   9  17  30  55  81 110 139 187 231 284 327
#     4  10  19  35  55  82 113 152 185 238 287 338
#     4  10  19  36  55  84 111 145 189 243 288 328
#     4   9  16  31  52  86 105 141 182 233 282 330
#     4  10  22  34  56  83 112 149 195 237 285 336
#     4  12  20  38  54  84 116 152 196 234 284 354
#
# _framework density 19.734362999999998
#
# number of rings (size 3 to 8) (size 9 to 14) (size 15 to 20)
#    0.000    2.182    3.636    1.636    0.000    1.455 
#    0.000    0.000    0.000    5.455    0.000    0.000 
#    0.000    0.000    0.000    0.000    0.000    0.000 
#
# Total GULP energy -122591.818369 kJ/mol
# GULP energy per Si atom -5572.355380 kJ/mol
# Density = 1.968945 g / cm^3
# Si number density = 19.734363 Si / 1000 Ang^3
#
#
#
# Elastic Constant Matrix: (Units=GPa)
#
#
# Indices 1 2 3 4 5 6 
#
# 1 77.6390 23.4215 41.1371 0.0007 -23.9519 -0.0007
# 2 23.4215 56.2251 43.0755 0.0056 -15.8408 -0.0005
# 3 41.1371 43.0755 114.0705 0.0076 -20.9440 -0.0026
# 4 0.0007 0.0056 0.0076 23.2286 -0.0025 -3.4186
# 5 -23.9519 -15.8408 -20.9440 -0.0025 42.4815 -0.0009
# 6 -0.0007 -0.0005 -0.0026 -3.4186 -0.0009 13.8376
#
#
#
# Elastic Compliance Matrix: (Units=1/GPa)
#
#
# Indices 1 2 3 4 5 6 
#
# 1 0.018080 -0.002132 -0.004386 0.000002 0.007236 0.000001
# 2 -0.002132 0.026340 -0.008351 -0.000003 0.004503 -0.000001
# 3 -0.004386 -0.008351 0.013718 -0.000002 0.001176 0.000002
# 4 0.000002 -0.000003 -0.000002 0.044675 0.000002 0.011037
# 5 0.007236 0.004503 0.001176 0.000002 0.029878 0.000003
# 6 0.000001 -0.000001 0.000002 0.011037 0.000003 0.074993
#
#
# Mechanical properties :
#
#
# Convention : Reuss Voigt Hill
#
# Bulk Modulus (GPa) = 35.21284 51.46699 43.33992
# Shear Modulus (GPa) = 20.25194 25.26290 22.75742
#
# Velocity S-wave (km/s) = 3.20695 3.58180 3.39955
# Velocity P-wave (km/s) = 5.62093 6.57588 6.11707
#
# Compressibility (1/GPa) = 0.02839873
#
# Stress axis : x y z
#
# Youngs Moduli (GPa) = 55.31016 37.96450 72.89800
#
# Poissons Ratio (x) = 0.08095 0.31975
# Poissons Ratio (y) = 0.11794 0.60877
# Poissons Ratio (z) = 0.24261 0.31704
#
# Static dielectric constant tensor:
#      x y z
#    x 1.767130 0.000000 0.003780 
#    y 0.000000 1.693010 0.000000 
#    z 0.003780 0.000000 1.767460 
# 
# From -- ./inp_files/270322.got.cif
#   From: 2010.05.17/outbox.cif.g08.bks.cpg/sg15_136_cif.got.tgz:270322.got - 2010.06.03 18:47:42.
