data_PCOD9264426
_publ_section_title
;
Structure prediction by ZEFSAII (Michael W. Deem and Ramdas Pophale) SiO2 
 PCOD9264426
Probable space group: C 2/C
;
_chemical_formula_sum "Si O2"
_cell_formula_units_Z 56
_cell_length_a 8.750341
_cell_length_b 27.701562
_cell_length_c 17.072921
_cell_angle_alpha 90.000000
_cell_angle_beta 135.194302
_cell_angle_gamma 90.000000
_cell_volume 2916.381129
_symmetry_space_group_name_H-M "C 2/C"
_symmetry_group_IT_number 15
_symmetry_cell_setting 'monoclinic'
loop_
_space_group_symop_operation_xyz
x,y,z
-x,y,1/2-z
-x,-y,-z
x,-y,1/2+z
1/2+x,1/2+y,z
1/2-x,1/2+y,1/2-z
1/2-x,1/2-y,-z
1/2+x,1/2-y,1/2+z
loop_
_atom_site_type_symbol
_atom_site_label
_atom_site_fract_x
_atom_site_fract_y
_atom_site_fract_z
Si Si1 0.504938 0.158942 0.845031
Si Si2 0.394455 0.070993 0.913134
Si Si3 0.252649 0.036049 0.338333
Si Si4 0.509075 0.329923 0.547399
Si Si5 0.742247 0.730907 0.855187
Si Si6 0.353741 0.122246 0.273333
Si Si7 0.758698 0.352955 0.485518
O O1 0.500000 0.158111 0.750000
O O2 0.437906 0.108148 0.859247
O O3 0.343320 0.199021 0.821833
O O4 0.751834 0.169446 0.960444
O O5 0.253439 0.100697 0.926175
O O6 0.291027 0.021026 0.847951
O O7 0.615804 0.055826 0.038541
O O8 0.336572 0.067432 0.296138
O O9 0.000000 0.046227 0.250000
O O10 0.602774 0.276016 0.574387
O O11 0.626726 0.354608 0.664856
O O12 0.593373 0.355823 0.498070
O O13 0.500000 0.749110 0.750000
O O14 0.723090 0.694535 0.921233
O O15 0.500000 0.124827 0.250000
O O16 0.495638 0.149132 0.390990
#
# Coordination Sequence:
#
# PCOD9264426 Si02
#       7
#     8   8   8   8   8   8   8
#     4  11  24  39  56  82 117 149 186 234 280 329
#     4   9  21  38  55  82 112 144 187 229 278 338
#     4  10  19  35  59  81 107 145 187 231 279 331
#     4  11  21  37  59  85 113 146 189 233 278 326
#     4  11  22  38  58  83 114 152 191 226 275 334
#     4   9  19  35  56  84 114 145 185 234 281 330
#     4   9  19  36  58  82 113 150 186 228 278 334
#
# _framework density 19.201881
#
# number of rings (size 3 to 8) (size 9 to 14) (size 15 to 20)
#    0.000    2.000    0.000    3.857    0.000    5.143 
#    0.000    2.143    0.000    8.571    0.000    0.000 
#    0.000    0.000    0.000    0.000    0.000    0.000 
#
# Total GULP energy -156330.856212 kJ/mol
# GULP energy per Si atom -5583.244865 kJ/mol
# Density = 1.915818 g / cm^3
# Si number density = 19.201881 Si / 1000 Ang^3
#
#
#
# Elastic Constant Matrix: (Units=GPa)
#
#
# Indices 1 2 3 4 5 6 
#
# 1 50.5952 3.7869 8.6309 0.0000 -0.7501 0.0000
# 2 3.7869 70.8794 -1.3857 0.0000 -2.9975 0.0000
# 3 8.6309 -1.3857 30.4009 0.0000 2.1706 0.0000
# 4 0.0000 0.0000 0.0000 20.7596 0.0000 3.5550
# 5 -0.7501 -2.9975 2.1706 0.0000 21.0707 0.0000
# 6 0.0000 0.0000 0.0000 3.5550 0.0000 11.5106
#
#
#
# Elastic Compliance Matrix: (Units=1/GPa)
#
#
# Indices 1 2 3 4 5 6 
#
# 1 0.020908 -0.001185 -0.006076 0.000000 0.001202 0.000000
# 2 -0.001185 0.014269 0.000851 0.000000 0.001900 0.000000
# 3 -0.006076 0.000851 0.034921 0.000000 -0.003693 0.000000
# 4 0.000000 0.000000 0.000000 0.050861 0.000000 -0.015708
# 5 0.001202 0.001900 -0.003693 0.000000 0.048153 0.000000
# 6 0.000000 0.000000 0.000000 -0.015708 0.000000 0.091728
#
#
# Mechanical properties :
#
#
# Convention : Reuss Voigt Hill
#
# Bulk Modulus (GPa) = 17.45853 19.32666 18.39259
# Shear Modulus (GPa) = 17.07939 20.05772 18.56856
#
# Velocity S-wave (km/s) = 2.98562 3.23549 3.11306
# Velocity P-wave (km/s) = 4.58226 4.90354 4.74562
#
# Compressibility (1/GPa) = 0.05727860
#
# Stress axis : x y z
#
# Youngs Moduli (GPa) = 47.82941 70.08314 28.63601
#
# Poissons Ratio (x) = 0.08305 0.17398
# Poissons Ratio (y) = 0.05668 -0.02437
# Poissons Ratio (z) = 0.29059 -0.05965
#
# Static dielectric constant tensor:
#      x y z
#    x 1.646800 0.000000 -0.001020 
#    y 0.000000 1.644330 0.000000 
#    z -0.001020 0.000000 1.708360 
# 
# From -- ./inp_files/81421.got.cif
#   From: 2010.05.17/outbox.cif.g08.bks.cpg/sg15_41_cif.got.tgz:81421.got - 2010.06.03 18:47:42.
