data_PCOD9264316
_publ_section_title
;
Structure prediction by ZEFSAII (Michael W. Deem and Ramdas Pophale) SiO2 
 PCOD9264316
Probable space group: C 2/C
;
_chemical_formula_sum "Si O2"
_cell_formula_units_Z 48
_cell_length_a 13.256826
_cell_length_b 23.643106
_cell_length_c 13.394733
_cell_angle_alpha 90.000000
_cell_angle_beta 135.643157
_cell_angle_gamma 90.000000
_cell_volume 2935.168011
_symmetry_space_group_name_H-M "C 2/C"
_symmetry_group_IT_number 15
_symmetry_cell_setting 'monoclinic'
loop_
_space_group_symop_operation_xyz
x,y,z
-x,y,1/2-z
-x,-y,-z
x,-y,1/2+z
1/2+x,1/2+y,z
1/2-x,1/2+y,1/2-z
1/2-x,1/2-y,-z
1/2+x,1/2-y,1/2+z
loop_
_atom_site_type_symbol
_atom_site_label
_atom_site_fract_x
_atom_site_fract_y
_atom_site_fract_z
Si Si1 0.377844 0.081668 0.908065
Si Si2 0.092568 0.678584 0.411736
Si Si3 0.413279 0.526044 0.089517
Si Si4 0.925376 0.191673 0.591676
Si Si5 0.415199 0.020458 0.590650
Si Si6 0.451112 0.583139 0.905986
O O1 0.490763 0.068274 0.899329
O O2 0.214143 0.081327 0.750371
O O3 0.410734 0.137455 0.995852
O O4 0.395422 0.030605 0.999097
O O5 0.046205 0.742299 0.409047
O O6 0.255920 0.682881 0.487604
O O7 0.000000 0.659765 0.250000
O O8 0.500000 0.541516 0.250000
O O9 0.452314 0.460498 0.091232
O O10 0.245365 0.536476 0.990286
O O11 0.458492 0.560682 0.023828
O O12 0.000000 0.178464 0.750000
O O13 0.988465 0.146208 0.560564
O O14 0.500000 0.002484 0.750000
#
# Coordination Sequence:
#
# PCOD9264316 Si02
#       6
#     8   8   8   8   8   8
#     4  11  21  35  57  80 111 147 179 218 271 324
#     4  10  21  34  54  86 110 138 177 228 271 312
#     4  11  22  36  55  83 110 141 183 222 265 321
#     4  10  19  35  58  80 110 140 179 223 270 319
#     4  11  22  35  53  83 114 142 179 223 267 317
#     4  11  21  35  60  79 106 151 180 215 271 327
#
# _framework density 16.353408999999999
#
# number of rings (size 3 to 8) (size 9 to 14) (size 15 to 20)
#    0.000    1.333    5.000    2.000    0.000    1.333 
#    0.000    0.000    0.000    2.000    0.000    0.000 
#    0.000    0.000    0.000    0.000    0.000    0.000 
#
# Total GULP energy -133919.248550 kJ/mol
# GULP energy per Si atom -5579.968690 kJ/mol
# Density = 1.631619 g / cm^3
# Si number density = 16.353409 Si / 1000 Ang^3
#
#
#
# Elastic Constant Matrix: (Units=GPa)
#
#
# Indices 1 2 3 4 5 6 
#
# 1 70.4792 24.2218 13.1602 0.0000 0.4880 0.0000
# 2 24.2218 72.4935 10.5509 0.0000 -11.5085 0.0000
# 3 13.1602 10.5509 98.2006 0.0000 -3.2965 0.0000
# 4 0.0000 0.0000 0.0000 19.7834 0.0000 -2.0917
# 5 0.4880 -11.5085 -3.2965 0.0000 29.8741 0.0000
# 6 0.0000 0.0000 0.0000 -2.0917 0.0000 22.1214
#
#
#
# Elastic Compliance Matrix: (Units=1/GPa)
#
#
# Indices 1 2 3 4 5 6 
#
# 1 0.016473 -0.005678 -0.001686 0.000000 -0.002643 0.000000
# 2 -0.005678 0.016843 -0.000831 0.000000 0.006489 0.000000
# 3 -0.001686 -0.000831 0.010528 0.000000 0.000869 0.000000
# 4 0.000000 0.000000 0.000000 0.051058 0.000000 0.004828
# 5 -0.002643 0.006489 0.000869 0.000000 0.036113 0.000000
# 6 0.000000 0.000000 0.000000 0.004828 0.000000 0.045661
#
#
# Mechanical properties :
#
#
# Convention : Reuss Voigt Hill
#
# Bulk Modulus (GPa) = 36.42588 37.44880 36.93734
# Shear Modulus (GPa) = 24.72589 27.23848 25.98218
#
# Velocity S-wave (km/s) = 3.89263 4.08562 3.99029
# Velocity P-wave (km/s) = 6.52119 6.72353 6.62313
#
# Compressibility (1/GPa) = 0.02745301
#
# Stress axis : x y z
#
# Youngs Moduli (GPa) = 60.70472 59.37301 94.98786
#
# Poissons Ratio (x) = 0.33713 0.16017
# Poissons Ratio (y) = 0.34469 0.07892
# Poissons Ratio (z) = 0.10236 0.04933
#
# Static dielectric constant tensor:
#      x y z
#    x 1.617510 0.000000 0.060370 
#    y 0.000000 1.552550 0.000000 
#    z 0.060370 0.000000 1.592270 
# 
# From -- ./inp_files/31903.got.cif
#   From: 2010.05.17/outbox.cif.g08.bks.cpg/sg15_16_cif.got.tgz:31903.got - 2010.06.03 18:47:42.
