data_PCOD9264215
_publ_section_title
;
Structure prediction by ZEFSAII (Michael W. Deem and Ramdas Pophale) SiO2 
 PCOD9264215
Probable space group: C 2/C
;
_chemical_formula_sum "Si O2"
_cell_formula_units_Z 56
_cell_length_a 10.346021
_cell_length_b 11.471516
_cell_length_c 25.269265
_cell_angle_alpha 90.000000
_cell_angle_beta 120.535066
_cell_angle_gamma 90.000000
_cell_volume 2583.155164
_symmetry_space_group_name_H-M "C 2/C"
_symmetry_group_IT_number 15
_symmetry_cell_setting 'monoclinic'
loop_
_space_group_symop_operation_xyz
x,y,z
-x,y,1/2-z
-x,-y,-z
x,-y,1/2+z
1/2+x,1/2+y,z
1/2-x,1/2+y,1/2-z
1/2-x,1/2-y,-z
1/2+x,1/2-y,1/2+z
loop_
_atom_site_type_symbol
_atom_site_label
_atom_site_fract_x
_atom_site_fract_y
_atom_site_fract_z
Si Si1 0.877634 0.174813 0.346092
Si Si2 0.387711 0.762432 0.777446
Si Si3 0.370104 0.890086 0.619231
Si Si4 0.539145 0.221627 0.976979
Si Si5 0.715655 0.558123 0.511022
Si Si6 0.727255 0.358984 0.436140
Si Si7 0.524435 0.468117 0.317351
O O1 0.779187 0.227210 0.278222
O O2 0.750012 0.118857 0.357780
O O3 0.972836 0.257920 0.404037
O O4 0.985431 0.080472 0.342770
O O5 0.500000 0.754792 0.750000
O O6 0.460078 0.869228 0.825233
O O7 0.413156 0.638163 0.810195
O O8 0.336600 0.771804 0.578966
O O9 0.324416 0.003721 0.577754
O O10 0.682497 0.138799 0.005691
O O11 0.404708 0.158574 0.979243
O O12 0.588683 0.352215 0.004558
O O13 0.662827 0.446750 0.466301
O O14 0.683428 0.416357 0.370119
O O15 0.500000 0.490575 0.250000
#
# Coordination Sequence:
#
# PCOD9264215 Si02
#       7
#     8   8   8   8   8   8   8
#     4  10  19  37  56  81 111 148 195 239 297 344
#     4   8  17  34  54  77 105 141 188 233 293 341
#     4   9  20  35  58  84 112 148 187 248 292 344
#     4  10  22  36  57  81 118 158 182 245 294 346
#     4  11  21  38  56  87 118 153 194 235 301 360
#     4  10  20  38  58  83 114 156 199 237 292 363
#     4  10  19  35  57  79 109 151 196 240 284 360
#
# _framework density 21.678915
#
# number of rings (size 3 to 8) (size 9 to 14) (size 15 to 20)
#    0.000    2.286    1.429    3.429    0.000    4.571 
#    5.143    1.429    0.000    0.000    0.000    0.000 
#    0.000    0.000    0.000    0.000    0.000    0.000 
#
# Total GULP energy -156100.016476 kJ/mol
# GULP energy per Si atom -5575.000588 kJ/mol
# Density = 2.162957 g / cm^3
# Si number density = 21.678915 Si / 1000 Ang^3
#
#
#
# Elastic Constant Matrix: (Units=GPa)
#
#
# Indices 1 2 3 4 5 6 
#
# 1 44.8866 24.0228 8.1038 0.0000 3.2579 0.0000
# 2 24.0228 71.8090 4.1019 0.0000 -4.6214 0.0000
# 3 8.1038 4.1019 49.7137 0.0000 2.8708 0.0000
# 4 0.0000 0.0000 0.0000 17.3419 0.0000 0.1213
# 5 3.2579 -4.6214 2.8708 0.0000 26.8423 0.0000
# 6 0.0000 0.0000 0.0000 0.1213 0.0000 13.4219
#
#
#
# Elastic Compliance Matrix: (Units=1/GPa)
#
#
# Indices 1 2 3 4 5 6 
#
# 1 0.028403 -0.009602 -0.003565 0.000000 -0.004719 0.000000
# 2 -0.009602 0.017413 -0.000113 0.000000 0.004175 0.000000
# 3 -0.003565 -0.000113 0.020810 0.000000 -0.001812 0.000000
# 4 0.000000 0.000000 0.000000 0.057668 0.000000 -0.000521
# 5 -0.004719 0.004175 -0.001812 0.000000 0.038740 0.000000
# 6 0.000000 0.000000 0.000000 -0.000521 0.000000 0.074510
#
#
# Mechanical properties :
#
#
# Convention : Reuss Voigt Hill
#
# Bulk Modulus (GPa) = 24.95816 26.54069 25.74942
# Shear Modulus (GPa) = 18.02061 20.19994 19.11027
#
# Velocity S-wave (km/s) = 2.88627 3.05582 2.97225
# Velocity P-wave (km/s) = 4.75868 4.97191 4.86646
#
# Compressibility (1/GPa) = 0.04006706
#
# Stress axis : x y z
#
# Youngs Moduli (GPa) = 35.20696 57.42755 48.05310
#
# Poissons Ratio (x) = 0.55142 0.17132
# Poissons Ratio (y) = 0.33806 0.00541
# Poissons Ratio (z) = 0.12552 0.00647
#
# Static dielectric constant tensor:
#      x y z
#    x 1.781880 0.000000 0.010980 
#    y 0.000000 1.809080 0.000000 
#    z 0.010980 0.000000 1.895340 
# 
# From -- ./inp_files/269000.got.cif
#   From: 2010.05.17/outbox.cif.g08.bks.cpg/sg15_135_cif.got.tgz:269000.got - 2010.06.03 18:47:42.
