data_PCOD9264231
_publ_section_title
;
Structure prediction by ZEFSAII (Michael W. Deem and Ramdas Pophale) SiO2 
 PCOD9264231
Probable space group: C 2/C
;
_chemical_formula_sum "Si O2"
_cell_formula_units_Z 48
_cell_length_a 27.553849
_cell_length_b 15.574494
_cell_length_c 11.206970
_cell_angle_alpha 90.000000
_cell_angle_beta 156.703294
_cell_angle_gamma 90.000000
_cell_volume 1902.054253
_symmetry_space_group_name_H-M "C 2/C"
_symmetry_group_IT_number 15
_symmetry_cell_setting 'monoclinic'
loop_
_space_group_symop_operation_xyz
x,y,z
-x,y,1/2-z
-x,-y,-z
x,-y,1/2+z
1/2+x,1/2+y,z
1/2-x,1/2+y,1/2-z
1/2-x,1/2-y,-z
1/2+x,1/2-y,1/2+z
loop_
_atom_site_type_symbol
_atom_site_label
_atom_site_fract_x
_atom_site_fract_y
_atom_site_fract_z
Si Si1 0.354201 0.056241 0.631472
Si Si2 0.112346 0.715044 0.929352
Si Si3 0.155801 0.177924 0.872616
Si Si4 0.746765 0.633279 0.623167
Si Si5 0.155185 0.363643 0.893929
Si Si6 0.612559 0.477288 0.424916
O O1 0.425079 0.122198 0.706014
O O2 0.326031 0.108970 0.687935
O O3 0.394901 0.958214 0.746576
O O4 0.224990 0.043985 0.267993
O O5 0.000000 0.753868 0.750000
O O6 0.224032 0.696132 0.273375
O O7 0.168303 0.779524 0.956943
O O8 0.095533 0.271751 0.725632
O O9 0.214430 0.142157 0.882948
O O10 0.081863 0.106499 0.776898
O O11 0.829523 0.636538 0.929206
O O12 0.656961 0.552792 0.439828
O O13 0.500000 0.504889 0.250000
#
# Coordination Sequence:
#
# PCOD9264231 Si02
#       6
#     8   8   8   8   8   8
#     4  10  20  36  58  81 110 145 179 230 269 316
#     4  10  21  37  57  81 109 144 185 223 269 323
#     4   9  18  37  58  75 109 147 180 219 272 321
#     4  10  19  35  57  82 111 143 180 224 277 321
#     4   9  18  35  60  75 106 149 179 217 271 324
#     4  10  20  34  54  84 115 142 179 223 273 327
#
# _framework density 25.235873999999999
#
# number of rings (size 3 to 8) (size 9 to 14) (size 15 to 20)
#    0.000    2.333    1.667    1.000    0.000    0.667 
#    9.000    1.667    0.000    0.000    0.000    0.000 
#    0.000    0.000    0.000    0.000    0.000    0.000 
#
# Total GULP energy -134221.833483 kJ/mol
# GULP energy per Si atom -5592.576395 kJ/mol
# Density = 2.517844 g / cm^3
# Si number density = 25.235874 Si / 1000 Ang^3
#
#
#
# Elastic Constant Matrix: (Units=GPa)
#
#
# Indices 1 2 3 4 5 6 
#
# 1 95.5452 44.2984 -11.3916 0.0000 -16.6602 0.0000
# 2 44.2984 168.1640 21.4580 0.0000 -15.7096 0.0000
# 3 -11.3916 21.4580 55.8041 0.0000 -17.2317 0.0000
# 4 0.0000 0.0000 0.0000 23.8249 0.0000 -4.3072
# 5 -16.6602 -15.7096 -17.2317 0.0000 21.4071 0.0000
# 6 0.0000 0.0000 0.0000 -4.3072 0.0000 55.1631
#
#
#
# Elastic Compliance Matrix: (Units=1/GPa)
#
#
# Indices 1 2 3 4 5 6 
#
# 1 0.016970 -0.004088 0.010896 0.000000 0.018978 0.000000
# 2 -0.004088 0.007445 -0.003982 0.000000 -0.000923 0.000000
# 3 0.010896 -0.003982 0.031129 0.000000 0.030615 0.000000
# 4 0.000000 0.000000 0.000000 0.042574 0.000000 0.003324
# 5 0.018978 -0.000923 0.030615 0.000000 0.085449 0.000000
# 6 0.000000 0.000000 0.000000 0.003324 0.000000 0.018388
#
#
# Mechanical properties :
#
#
# Convention : Reuss Voigt Hill
#
# Bulk Modulus (GPa) = 16.34087 47.58255 31.96171
# Shear Modulus (GPa) = 23.07318 37.75559 30.41439
#
# Velocity S-wave (km/s) = 3.02702 3.87215 3.47537
# Velocity P-wave (km/s) = 4.32510 6.23598 5.36628
#
# Compressibility (1/GPa) = 0.06119624
#
# Stress axis : x y z
#
# Youngs Moduli (GPa) = 58.92814 134.31292 32.12430
#
# Poissons Ratio (x) = 0.54904 -0.35003
# Poissons Ratio (y) = 0.24088 0.12793
# Poissons Ratio (z) = -0.64209 0.53489
#
# Static dielectric constant tensor:
#      x y z
#    x 1.900240 0.000000 -0.077270 
#    y 0.000000 2.002330 0.000000 
#    z -0.077270 0.000000 2.091630 
# 
# From -- ./inp_files/87857.got.cif
#   From: 2010.05.17/outbox.cif.g08.bks.cpg/sg15_44_cif.got.tgz:87857.got - 2010.06.03 18:47:42.
