data_PCOD9264286
_publ_section_title
;
Structure prediction by ZEFSAII (Michael W. Deem and Ramdas Pophale) SiO2 
 PCOD9264286
Probable space group: C 2/C
;
_chemical_formula_sum "Si O2"
_cell_formula_units_Z 64
_cell_length_a 13.852635
_cell_length_b 15.717593
_cell_length_c 14.849614
_cell_angle_alpha 90.000000
_cell_angle_beta 85.493960
_cell_angle_gamma 90.000000
_cell_volume 3223.213968
_symmetry_space_group_name_H-M "C 2/C"
_symmetry_group_IT_number 15
_symmetry_cell_setting 'monoclinic'
loop_
_space_group_symop_operation_xyz
x,y,z
-x,y,1/2-z
-x,-y,-z
x,-y,1/2+z
1/2+x,1/2+y,z
1/2-x,1/2+y,1/2-z
1/2-x,1/2-y,-z
1/2+x,1/2-y,1/2+z
loop_
_atom_site_type_symbol
_atom_site_label
_atom_site_fract_x
_atom_site_fract_y
_atom_site_fract_z
Si Si1 0.954316 0.300991 0.665307
Si Si2 0.923396 0.276390 0.019232
Si Si3 0.033485 0.600538 0.646013
Si Si4 0.375035 0.034224 0.136779
Si Si5 0.587266 0.381357 0.307513
Si Si6 0.042144 0.906219 0.019055
Si Si7 0.259774 0.912540 0.014391
Si Si8 0.722667 0.986214 0.168895
O O1 0.884156 0.366187 0.621027
O O2 0.900107 0.219027 0.711418
O O3 0.000000 0.345129 0.750000
O O4 0.037892 0.282534 0.586298
O O5 0.934548 0.176540 0.045670
O O6 0.819283 0.324927 0.026826
O O7 0.991594 0.331622 0.079479
O O8 0.147393 0.583621 0.635765
O O9 0.000000 0.623588 0.750000
O O10 0.980244 0.510888 0.628069
O O11 0.314618 0.983939 0.067604
O O12 0.328575 0.021457 0.238228
O O13 0.500000 0.412870 0.250000
O O14 0.542624 0.376866 0.409710
O O15 0.679838 0.440267 0.305196
O O16 0.148633 0.913162 0.055324
O O17 0.000000 0.000000 0.000000
O O18 0.259613 0.944031 0.910336
#
# Coordination Sequence:
#
# PCOD9264286 Si02
#       8
#     8   8   8   8   8   8   8   8
#     4  10  19  35  57  87 118 147 188 242 293 341
#     4  10  21  37  61  87 115 152 195 243 295 352
#     4   9  19  36  58  85 119 146 182 244 301 343
#     4  10  20  35  58  91 117 141 190 245 291 351
#     4  10  22  39  58  78 116 159 196 235 287 354
#     4  11  22  41  56  80 116 155 197 240 285 349
#     4  11  21  36  62  87 114 153 201 236 293 348
#     4  11  20  36  60  84 116 154 189 237 298 350
#
# _framework density 19.855958000000001
#
# number of rings (size 3 to 8) (size 9 to 14) (size 15 to 20)
#    0.000    1.750    1.250    4.500    0.000    2.000 
#    2.250    7.500    0.000    0.000    0.000    0.000 
#    0.000    0.000    0.000    0.000    0.000    0.000 
#
# Total GULP energy -178199.988936 kJ/mol
# GULP energy per Si atom -5568.749654 kJ/mol
# Density = 1.981077 g / cm^3
# Si number density = 19.855958 Si / 1000 Ang^3
#
#
#
# Elastic Constant Matrix: (Units=GPa)
#
#
# Indices 1 2 3 4 5 6 
#
# 1 105.7691 42.5450 -7.3112 0.0000 11.8347 0.0000
# 2 42.5450 95.2725 4.1685 0.0000 7.5976 0.0000
# 3 -7.3112 4.1685 40.6368 0.0000 5.9047 0.0000
# 4 0.0000 0.0000 0.0000 -71.3260 0.0000 101.3499
# 5 11.8347 7.5976 5.9047 0.0000 20.9457 0.0000
# 6 0.0000 0.0000 0.0000 101.3499 0.0000 -78.3276
#
#
#
# Elastic Compliance Matrix: (Units=1/GPa)
#
#
# Indices 1 2 3 4 5 6 
#
# 1 0.012519 -0.005257 0.003694 0.000000 -0.006208 0.000000
# 2 -0.005257 0.013029 -0.002114 0.000000 -0.001160 0.000000
# 3 0.003694 -0.002114 0.026778 0.000000 -0.008869 0.000000
# 4 0.000000 0.000000 0.000000 0.016719 0.000000 0.021633
# 5 -0.006208 -0.001160 -0.008869 0.000000 0.054171 0.000000
# 6 0.000000 0.000000 0.000000 0.021633 0.000000 0.015224
#
#
# Mechanical properties :
#
#
# Convention : Reuss Voigt Hill
#
# Bulk Modulus (GPa) = 22.23616 35.60923 28.92269
# Shear Modulus (GPa) = 31.09731 -12.25652 9.42040
#
# Velocity S-wave (km/s) = 3.96175 -2.48719 2.18052
# Velocity P-wave (km/s) = 5.67012 3.11842 4.57574
#
# Compressibility (1/GPa) = 0.04497180
#
# Stress axis : x y z
#
# Youngs Moduli (GPa) = 79.87769 76.75300 37.34363
#
# Poissons Ratio (x) = 0.40350 -0.13794
# Poissons Ratio (y) = 0.41993 0.07894
# Poissons Ratio (z) = -0.29504 0.16224
#
# Static dielectric constant tensor:
#      x y z
#    x 1.720810 0.000000 0.008650 
#    y 0.000000 1.846010 0.000000 
#    z 0.008650 0.000000 1.715210 
# 
# From -- ./inp_files/198366.got.cif
#   From: 2010.05.17/outbox.cif.g08.bks.cpg/sg15_100_cif.got.tgz:198366.got - 2010.06.03 18:47:42.
