data_PCOD9264079
_publ_section_title
;
Structure prediction by ZEFSAII (Michael W. Deem and Ramdas Pophale) SiO2 
 PCOD9264079
Probable space group: C 2/C
;
_chemical_formula_sum "Si O2"
_cell_formula_units_Z 56
_cell_length_a 23.169690
_cell_length_b 22.697232
_cell_length_c 18.119484
_cell_angle_alpha 90.000000
_cell_angle_beta 21.003589
_cell_angle_gamma 90.000000
_cell_volume 3415.379523
_symmetry_space_group_name_H-M "C 2/C"
_symmetry_group_IT_number 15
_symmetry_cell_setting 'monoclinic'
loop_
_space_group_symop_operation_xyz
x,y,z
-x,y,1/2-z
-x,-y,-z
x,-y,1/2+z
1/2+x,1/2+y,z
1/2-x,1/2+y,1/2-z
1/2-x,1/2-y,-z
1/2+x,1/2-y,1/2+z
loop_
_atom_site_type_symbol
_atom_site_label
_atom_site_fract_x
_atom_site_fract_y
_atom_site_fract_z
Si Si1 0.124169 0.133644 0.166689
Si Si2 0.130183 0.336201 0.243895
Si Si3 0.029217 0.826968 0.941747
Si Si4 0.000474 0.998920 0.666656
Si Si5 0.816777 0.257657 0.623093
Si Si6 0.115041 0.052325 0.834199
Si Si7 0.155475 0.457400 0.309643
O O1 0.095324 0.166208 0.278316
O O2 0.000000 0.151719 0.250000
O O3 0.083580 0.065533 0.231200
O O4 0.293589 0.144529 0.925123
O O5 0.246056 0.287977 0.146310
O O6 0.123181 0.395215 0.304515
O O7 0.963375 0.301790 0.428995
O O8 0.169403 0.798446 0.820998
O O9 0.881228 0.782998 0.111268
O O10 0.973679 0.888421 0.037960
O O11 0.894095 0.040317 0.741360
O O12 0.000000 0.021659 0.750000
O O13 0.185651 0.986914 0.419077
O O14 0.279631 0.052213 0.684134
O O15 0.000000 0.000000 0.000000
O O16 0.000000 0.500000 0.500000
#
# Coordination Sequence:
#
# PCOD9264079 Si02
#       7
#     8   8   8   8   8   8   8
#     4  11  17  32  54  69 110 153 178 220 263 310
#     4  11  21  36  50  77 116 150 189 222 265 324
#     4  11  20  36  51  77 108 145 191 224 271 326
#     4  10  19  36  58  78 107 150 180 228 291 331
#     4  10  23  33  51  76 113 152 193 217 264 328
#     4  10  19  35  55  77 105 143 185 230 281 328
#     4  11  21  34  56  82 110 145 184 240 279 320
#
# _framework density 16.396421
#
# number of rings (size 3 to 8) (size 9 to 14) (size 15 to 20)
#    0.000    1.429    8.571    0.000    4.000    4.000 
#    0.000    0.714    0.000    0.000    0.000    1.000 
#    0.000    0.000    0.000    0.000    0.000    0.000 
#
# Total GULP energy -155886.543442 kJ/mol
# GULP energy per Si atom -5567.376551 kJ/mol
# Density = 1.635910 g / cm^3
# Si number density = 16.396421 Si / 1000 Ang^3
#
#
#
# Elastic Constant Matrix: (Units=GPa)
#
#
# Indices 1 2 3 4 5 6 
#
# 1 86.7343 42.7666 37.5962 0.0027 -3.5890 -0.0069
# 2 42.7666 108.9494 56.5461 -0.0006 -18.8561 -0.0169
# 3 37.5962 56.5461 66.2512 -0.0072 -19.3843 -0.0122
# 4 0.0027 -0.0006 -0.0072 32.6695 0.0004 -3.1592
# 5 -3.5890 -18.8561 -19.3843 0.0004 23.2227 0.0038
# 6 -0.0069 -0.0169 -0.0122 -3.1592 0.0038 12.6602
#
#
#
# Elastic Compliance Matrix: (Units=1/GPa)
#
#
# Indices 1 2 3 4 5 6 
#
# 1 0.016661 -0.003216 -0.008893 -0.000004 -0.007459 -0.000002
# 2 -0.003216 0.017182 -0.011781 -0.000001 0.003621 0.000008
# 3 -0.008893 -0.011781 0.035718 0.000009 0.018874 0.000010
# 4 -0.000004 -0.000001 0.000009 0.031366 0.000004 0.007827
# 5 -0.007459 0.003621 0.018874 0.000004 0.060603 0.000002
# 6 -0.000002 0.000008 0.000010 0.007827 0.000002 0.080941
#
#
# Mechanical properties :
#
#
# Convention : Reuss Voigt Hill
#
# Bulk Modulus (GPa) = 45.90787 59.52808 52.71797
# Shear Modulus (GPa) = 16.80616 22.04554 19.42585
#
# Velocity S-wave (km/s) = 3.20502 3.67077 3.44577
# Velocity P-wave (km/s) = 6.46186 7.37227 6.93203
#
# Compressibility (1/GPa) = 0.02178276
#
# Stress axis : x y z
#
# Youngs Moduli (GPa) = 60.02047 58.20121 27.99717
#
# Poissons Ratio (x) = 0.18715 0.24897
# Poissons Ratio (y) = 0.19300 0.32983
# Poissons Ratio (z) = 0.53374 0.68565
#
# Static dielectric constant tensor:
#      x y z
#    x 1.620300 -0.000020 -0.014000 
#    y -0.000020 1.558880 0.000010 
#    z -0.014000 0.000010 1.570840 
# 
# From -- ./inp_files/220161.got.cif
#   From: 2010.05.17/outbox.cif.g08.bks.cpg/sg15_111_cif.got.tgz:220161.got - 2010.06.03 18:47:42.
