data_PCOD9264915
_publ_section_title
;
Structure prediction by ZEFSAII (Michael W. Deem and Ramdas Pophale) SiO2 
 PCOD9264915
Probable space group: C 2/C
;
_chemical_formula_sum "Si O2"
_cell_formula_units_Z 60
_cell_length_a 8.381628
_cell_length_b 27.701760
_cell_length_c 21.592222
_cell_angle_alpha 90.000000
_cell_angle_beta 34.973229
_cell_angle_gamma 90.000000
_cell_volume 2873.653743
_symmetry_space_group_name_H-M "C 2/C"
_symmetry_group_IT_number 15
_symmetry_cell_setting 'monoclinic'
loop_
_space_group_symop_operation_xyz
x,y,z
-x,y,1/2-z
-x,-y,-z
x,-y,1/2+z
1/2+x,1/2+y,z
1/2-x,1/2+y,1/2-z
1/2-x,1/2-y,-z
1/2+x,1/2-y,1/2+z
loop_
_atom_site_type_symbol
_atom_site_label
_atom_site_fract_x
_atom_site_fract_y
_atom_site_fract_z
Si Si1 0.888830 0.323932 0.440760
Si Si2 0.673548 0.721317 0.330783
Si Si3 0.982226 0.377602 0.537758
Si Si4 0.131708 0.957289 0.596147
Si Si5 0.000000 0.183211 0.250000
Si Si6 0.634247 0.922209 0.106504
Si Si7 0.937862 0.481332 0.696711
Si Si8 0.383433 0.441753 0.460047
O O1 0.560446 0.309957 0.556097
O O2 0.993274 0.348873 0.470594
O O3 0.932916 0.366012 0.376176
O O4 0.069585 0.276249 0.372846
O O5 0.604075 0.709843 0.280151
O O6 0.000000 0.714638 0.250000
O O7 0.860217 0.431323 0.564496
O O8 0.765236 0.348941 0.647804
O O9 0.278945 0.389996 0.470868
O O10 0.176842 0.933051 0.514568
O O11 0.135558 0.014325 0.582399
O O12 0.835637 0.948943 0.721806
O O13 0.403011 0.964374 0.180248
O O14 0.811667 0.935412 0.109966
O O15 0.000000 0.481194 0.750000
O O16 0.190352 0.458710 0.578509
#
# Coordination Sequence:
#
# PCOD9264915 Si02
#       8
#     8   8   8   8   4   8   8   8
#     4   9  22  45  61  89 127 154 195 270 315 382
#     4  10  22  46  72  90 123 162 199 262 347 388
#     4  10  21  37  57  86 124 149 203 258 296 362
#     4  10  19  36  53  78 119 167 196 244 295 342
#     4  10  22  42  62 102 118 144 218 266 298 400
#     4  10  20  35  57  83 117 156 210 247 291 369
#     4  11  18  33  52  78 119 161 203 247 285 346
#     4  11  20  32  55  85 116 162 208 238 296 358
#
# _framework density 20.879342000000001
#
# number of rings (size 3 to 8) (size 9 to 14) (size 15 to 20)
#    0.000    1.867    2.667    2.000    1.867    0.000 
#    6.000    2.000    0.000    0.000    0.000    0.000 
#    0.000    0.000    0.000    0.000    0.000    0.000 
#
# Total GULP energy -167217.045143 kJ/mol
# GULP energy per Si atom -5573.901505 kJ/mol
# Density = 2.083182 g / cm^3
# Si number density = 20.879342 Si / 1000 Ang^3
#
#
#
# Elastic Constant Matrix: (Units=GPa)
#
#
# Indices 1 2 3 4 5 6 
#
# 1 67.9525 33.2010 29.6332 0.0000 -3.4028 0.0004
# 2 33.2010 88.5082 7.0065 0.0001 4.7465 0.0001
# 3 29.6332 7.0065 49.5151 0.0013 -1.8157 0.0032
# 4 0.0000 0.0001 0.0013 22.4946 -0.0001 2.8014
# 5 -3.4028 4.7465 -1.8157 -0.0001 25.5094 -0.0003
# 6 0.0004 0.0001 0.0032 2.8014 -0.0003 11.7702
#
#
#
# Elastic Compliance Matrix: (Units=1/GPa)
#
#
# Indices 1 2 3 4 5 6 
#
# 1 0.025015 -0.008517 -0.013621 0.000000 0.003952 0.000003
# 2 -0.008517 0.014456 0.002919 0.000000 -0.003618 -0.000001
# 3 -0.013621 0.002919 0.027921 -0.000001 -0.000373 -0.000007
# 4 0.000000 0.000000 -0.000001 0.045813 0.000000 -0.010904
# 5 0.003952 -0.003618 -0.000373 0.000000 0.040375 0.000001
# 6 0.000003 -0.000001 -0.000007 -0.010904 0.000001 0.087556
#
#
# Mechanical properties :
#
#
# Convention : Reuss Voigt Hill
#
# Bulk Modulus (GPa) = 34.53706 38.40632 36.47169
# Shear Modulus (GPa) = 17.28752 21.03052 19.15902
#
# Velocity S-wave (km/s) = 2.88057 3.17715 3.03249
# Velocity P-wave (km/s) = 5.25745 5.64742 5.45592
#
# Compressibility (1/GPa) = 0.02895440
#
# Stress axis : x y z
#
# Youngs Moduli (GPa) = 39.97526 69.17359 35.81565
#
# Poissons Ratio (x) = 0.58918 0.48784
# Poissons Ratio (y) = 0.34049 -0.10455
# Poissons Ratio (z) = 0.54449 -0.20193
#
# Static dielectric constant tensor:
#      x y z
#    x 1.779960 0.000000 -0.009420 
#    y 0.000000 1.753500 0.000000 
#    z -0.009420 0.000000 1.790380 
# 
# From -- ./inp_files/266646.got.cif
#   From: 2010.05.17/outbox.cif.g08.bks.cpg/sg15_134_cif.got.tgz:266646.got - 2010.06.03 18:47:42.
