data_PCOD9264587
_publ_section_title
;
Structure prediction by ZEFSAII (Michael W. Deem and Ramdas Pophale) SiO2 
 PCOD9264587
Probable space group: C 2/C
;
_chemical_formula_sum "Si O2"
_cell_formula_units_Z 40
_cell_length_a 13.887962
_cell_length_b 10.091069
_cell_length_c 11.880823
_cell_angle_alpha 90.000000
_cell_angle_beta 94.317280
_cell_angle_gamma 90.000000
_cell_volume 1660.306041
_symmetry_space_group_name_H-M "C 2/C"
_symmetry_group_IT_number 15
_symmetry_cell_setting 'monoclinic'
loop_
_space_group_symop_operation_xyz
x,y,z
-x,y,1/2-z
-x,-y,-z
x,-y,1/2+z
1/2+x,1/2+y,z
1/2-x,1/2+y,1/2-z
1/2-x,1/2-y,-z
1/2+x,1/2-y,1/2+z
loop_
_atom_site_type_symbol
_atom_site_label
_atom_site_fract_x
_atom_site_fract_y
_atom_site_fract_z
Si Si1 0.773135 0.074952 0.578058
Si Si2 0.672806 0.652981 0.552740
Si Si3 0.115238 0.275996 0.781251
Si Si4 0.113633 0.425613 0.230703
Si Si5 0.903848 0.850203 0.672088
O O1 0.791261 0.997480 0.463442
O O2 0.662863 0.079427 0.611298
O O3 0.828522 0.970018 0.666165
O O4 0.833429 0.207921 0.606690
O O5 0.750000 0.750000 0.500000
O O6 0.653541 0.700917 0.674316
O O7 0.579455 0.666273 0.461264
O O8 0.140116 0.430810 0.779950
O O9 0.000000 0.265095 0.750000
O O10 0.142314 0.285166 0.286539
O O11 0.000000 0.420635 0.250000
O O12 0.000000 0.880308 0.750000
#
# Coordination Sequence:
#
# PCOD9264587 Si02
#       5
#     8   8   8   8   8
#     4  10  20  37  65  83 123 161 202 244 303 363
#     4  10  20  39  66  84 124 168 199 229 325 368
#     4  11  22  38  62  92 119 156 202 258 297 347
#     4  10  19  35  60  88 119 155 200 245 298 349
#     4   9  20  38  62  88 120 166 198 240 303 370
#
# _framework density 24.091942
#
# number of rings (size 3 to 8) (size 9 to 14) (size 15 to 20)
#    1.200    0.800    2.000    3.000    0.000    0.800 
#    0.000    9.000    0.000    3.600    0.000    0.000 
#    0.000    0.000    0.000    0.000    0.000    0.000 
#
# Total GULP energy -111415.682600 kJ/mol
# GULP energy per Si atom -5570.784130 kJ/mol
# Density = 2.403711 g / cm^3
# Si number density = 24.091942 Si / 1000 Ang^3
#
#
#
# Elastic Constant Matrix: (Units=GPa)
#
#
# Indices 1 2 3 4 5 6 
#
# 1 121.1095 -13.3723 26.0641 0.0000 3.4299 0.0000
# 2 -13.3723 86.0246 -8.1355 0.0000 -15.7709 0.0000
# 3 26.0641 -8.1355 62.8589 0.0000 8.6191 0.0000
# 4 0.0000 0.0000 0.0000 21.1665 0.0000 -13.8040
# 5 3.4299 -15.7709 8.6191 0.0000 28.7832 0.0000
# 6 0.0000 0.0000 0.0000 -13.8040 0.0000 -9.0128
#
#
#
# Elastic Compliance Matrix: (Units=1/GPa)
#
#
# Indices 1 2 3 4 5 6 
#
# 1 0.009175 0.001198 -0.003743 0.000000 0.000684 0.000000
# 2 0.001198 0.013111 0.000245 0.000000 0.006968 0.000000
# 3 -0.003743 0.000245 0.018159 0.000000 -0.004857 0.000000
# 4 0.000000 0.000000 0.000000 0.023636 0.000000 -0.036201
# 5 0.000684 0.006968 -0.004857 0.000000 0.039933 0.000000
# 6 0.000000 0.000000 0.000000 -0.036201 0.000000 -0.055509
#
#
# Mechanical properties :
#
#
# Convention : Reuss Voigt Hill
#
# Bulk Modulus (GPa) = 27.89883 31.01174 29.45529
# Shear Modulus (GPa) = 76.85772 25.88317 51.37044
#
# Velocity S-wave (km/s) = 5.65430 3.28128 4.62266
# Velocity P-wave (km/s) = 7.36433 5.22072 6.38316
#
# Compressibility (1/GPa) = 0.03584379
#
# Stress axis : x y z
#
# Youngs Moduli (GPa) = 108.98627 76.26986 55.07059
#
# Poissons Ratio (x) = -0.09134 0.20615
# Poissons Ratio (y) = -0.13053 -0.01349
# Poissons Ratio (z) = 0.40797 -0.01868
#
# Static dielectric constant tensor:
#      x y z
#    x 2.064890 0.000000 0.086910 
#    y 0.000000 1.947750 0.000000 
#    z 0.086910 0.000000 2.002570 
# 
# From -- ./inp_files/150931.got.cif
#   From: 2010.05.17/outbox.cif.g08.bks.cpg/sg15_76_cif.got.tgz:150931.got - 2010.06.03 18:47:42.
