data_PCOD9264405
_publ_section_title
;
Structure prediction by ZEFSAII (Michael W. Deem and Ramdas Pophale) SiO2 
 PCOD9264405
Probable space group: C 2/C
;
_chemical_formula_sum "Si O2"
_cell_formula_units_Z 52
_cell_length_a 5.107026
_cell_length_b 16.016797
_cell_length_c 27.269555
_cell_angle_alpha 90.000000
_cell_angle_beta 99.307990
_cell_angle_gamma 90.000000
_cell_volume 2201.230543
_symmetry_space_group_name_H-M "C 2/C"
_symmetry_group_IT_number 15
_symmetry_cell_setting 'monoclinic'
loop_
_space_group_symop_operation_xyz
x,y,z
-x,y,1/2-z
-x,-y,-z
x,-y,1/2+z
1/2+x,1/2+y,z
1/2-x,1/2+y,1/2-z
1/2-x,1/2-y,-z
1/2+x,1/2-y,1/2+z
loop_
_atom_site_type_symbol
_atom_site_label
_atom_site_fract_x
_atom_site_fract_y
_atom_site_fract_z
Si Si1 0.747567 0.855579 0.424895
Si Si2 0.500000 0.844047 0.250000
Si Si3 0.220698 0.957357 0.393015
Si Si4 0.978899 0.637648 0.192244
Si Si5 0.546103 0.276074 0.844694
Si Si6 0.764651 0.946721 0.517094
Si Si7 0.634403 0.489386 0.209045
O O1 0.518423 0.921828 0.401276
O O2 0.665194 0.770910 0.395429
O O3 0.747697 0.863015 0.484268
O O4 0.031110 0.888854 0.414189
O O5 0.502922 0.789924 0.200894
O O6 0.254200 0.905624 0.234941
O O7 0.085770 0.969443 0.337192
O O8 0.200301 0.043425 0.423736
O O9 0.739840 0.683457 0.156715
O O10 0.873584 0.543162 0.193642
O O11 0.000000 0.667439 0.250000
O O12 0.244003 0.658959 0.171436
O O13 0.500000 0.000000 0.500000
O O14 0.000000 0.000000 0.500000
O O15 0.500000 0.538549 0.250000
#
# Coordination Sequence:
#
# PCOD9264405 Si02
#       7
#     8   4   8   8   8   8   8
#     4  10  19  35  58  91 116 149 198 252 299 347
#     4  12  24  36  64  88 116 150 202 262 292 332
#     4  10  20  35  59  88 120 150 196 251 299 351
#     4  12  25  43  55  79 124 167 196 229 302 369
#     4  12  24  39  61  85 117 159 197 248 293 355
#     4   8  16  31  54  84 119 148 182 245 311 347
#     4  12  26  40  60  89 124 162 201 246 302 359
#
# _framework density 23.623152000000001
#
# number of rings (size 3 to 8) (size 9 to 14) (size 15 to 20)
#    0.000    1.231    3.846    2.769    2.154    0.000 
#    0.000    0.000    0.000    1.846    0.000    0.000 
#    0.000    0.000    0.000    0.000    0.000    0.000 
#
# Total GULP energy -145434.362960 kJ/mol
# GULP energy per Si atom -5593.629345 kJ/mol
# Density = 2.356938 g / cm^3
# Si number density = 23.623152 Si / 1000 Ang^3
#
#
#
# Elastic Constant Matrix: (Units=GPa)
#
#
# Indices 1 2 3 4 5 6 
#
# 1 95.9055 20.8415 10.9319 0.0000 8.7410 0.0000
# 2 20.8415 50.2468 -9.5401 0.0000 -5.6079 0.0000
# 3 10.9319 -9.5401 66.6486 0.0000 5.0237 0.0000
# 4 0.0000 0.0000 0.0000 17.2614 0.0000 -0.0141
# 5 8.7410 -5.6079 5.0237 0.0000 25.9659 0.0000
# 6 0.0000 0.0000 0.0000 -0.0141 0.0000 26.0447
#
#
#
# Elastic Compliance Matrix: (Units=1/GPa)
#
#
# Indices 1 2 3 4 5 6 
#
# 1 0.012542 -0.006257 -0.002570 0.000000 -0.005076 0.000000
# 2 -0.006257 0.023978 0.003967 0.000000 0.006517 0.000000
# 3 -0.002570 0.003967 0.016098 0.000000 -0.001393 0.000000
# 4 0.000000 0.000000 0.000000 0.057933 0.000000 0.000031
# 5 -0.005076 0.006517 -0.001393 0.000000 0.041898 0.000000
# 6 0.000000 0.000000 0.000000 0.000031 0.000000 0.038396
#
#
# Mechanical properties :
#
#
# Convention : Reuss Voigt Hill
#
# Bulk Modulus (GPa) = 23.31077 28.58526 25.94801
# Shear Modulus (GPa) = 23.27058 26.55890 24.91474
#
# Velocity S-wave (km/s) = 3.14200 3.35666 3.25110
# Velocity P-wave (km/s) = 4.80125 5.21053 5.01007
#
# Compressibility (1/GPa) = 0.04289862
#
# Stress axis : x y z
#
# Youngs Moduli (GPa) = 79.73059 41.70562 62.11771
#
# Poissons Ratio (x) = 0.26094 0.15965
# Poissons Ratio (y) = 0.49886 -0.24643
# Poissons Ratio (z) = 0.20492 -0.16545
#
# Static dielectric constant tensor:
#      x y z
#    x 1.891790 0.000000 -0.017710 
#    y 0.000000 1.911090 0.000000 
#    z -0.017710 0.000000 1.922470 
# 
# From -- ./inp_files/285871.got.cif
#   From: 2010.05.17/outbox.cif.g08.bks.cpg/sg15_143_cif.got.tgz:285871.got - 2010.06.03 18:47:42.
