data_PCOD9264380
_publ_section_title
;
Structure prediction by ZEFSAII (Michael W. Deem and Ramdas Pophale) SiO2 
 PCOD9264380
Probable space group: C 2/C
;
_chemical_formula_sum "Si O2"
_cell_formula_units_Z 48
_cell_length_a 9.517596
_cell_length_b 23.527148
_cell_length_c 11.008358
_cell_angle_alpha 90.000000
_cell_angle_beta 83.411749
_cell_angle_gamma 90.000000
_cell_volume 2448.734157
_symmetry_space_group_name_H-M "C 2/C"
_symmetry_group_IT_number 15
_symmetry_cell_setting 'monoclinic'
loop_
_space_group_symop_operation_xyz
x,y,z
-x,y,1/2-z
-x,-y,-z
x,-y,1/2+z
1/2+x,1/2+y,z
1/2-x,1/2+y,1/2-z
1/2-x,1/2-y,-z
1/2+x,1/2-y,1/2+z
loop_
_atom_site_type_symbol
_atom_site_label
_atom_site_fract_x
_atom_site_fract_y
_atom_site_fract_z
Si Si1 0.299161 0.216847 0.821473
Si Si2 0.336749 0.612341 0.764244
Si Si3 0.819279 0.887896 0.546073
Si Si4 0.975642 0.786310 0.979519
Si Si5 0.133510 0.709843 0.151834
Si Si6 0.588833 0.499154 0.864776
O O1 0.285931 0.156844 0.754971
O O2 0.433593 0.241800 0.878267
O O3 0.250581 0.263744 0.729018
O O4 0.171034 0.208121 0.931828
O O5 0.500000 0.637446 0.750000
O O6 0.339506 0.560003 0.670098
O O7 0.319658 0.594112 0.905269
O O8 0.689911 0.846368 0.584406
O O9 0.957708 0.847695 0.558171
O O10 0.815457 0.943755 0.627958
O O11 0.087371 0.756321 0.057690
O O12 0.000000 0.698208 0.250000
O O13 0.500000 0.490515 0.750000
O O14 0.500000 0.500000 0.000000
#
# Coordination Sequence:
#
# PCOD9264380 Si02
#       6
#     8   8   8   8   8   8
#     4  10  19  35  58  86 126 159 199 244 318 382
#     4  11  19  39  61  86 128 166 196 262 316 375
#     4  12  22  38  62  90 128 163 209 264 323 380
#     4  10  20  34  57  91 120 161 197 248 318 386
#     4  10  22  40  56  85 125 164 203 262 319 375
#     4  11  22  38  61  95 125 162 214 263 319 371
#
# _framework density 19.601963999999999
#
# number of rings (size 3 to 8) (size 9 to 14) (size 15 to 20)
#    0.000    1.333    6.667    1.000    2.333    0.000 
#    3.000    0.000    0.000    4.000    0.000    0.000 
#    0.000    0.000    0.000    0.000    0.000    0.000 
#
# Total GULP energy -133911.738926 kJ/mol
# GULP energy per Si atom -5579.655789 kJ/mol
# Density = 1.955735 g / cm^3
# Si number density = 19.601964 Si / 1000 Ang^3
#
#
#
# Elastic Constant Matrix: (Units=GPa)
#
#
# Indices 1 2 3 4 5 6 
#
# 1 48.2486 13.3264 16.4102 0.0000 3.0606 0.0000
# 2 13.3264 103.2948 31.8280 0.0000 -0.3961 0.0000
# 3 16.4102 31.8280 95.9883 0.0000 3.6197 0.0000
# 4 0.0000 0.0000 0.0000 42.5190 0.0000 0.8735
# 5 3.0606 -0.3961 3.6197 0.0000 24.7565 0.0000
# 6 0.0000 0.0000 0.0000 0.8735 0.0000 26.0595
#
#
#
# Elastic Compliance Matrix: (Units=1/GPa)
#
#
# Indices 1 2 3 4 5 6 
#
# 1 0.022471 -0.001951 -0.003106 0.000000 -0.002355 0.000000
# 2 -0.001951 0.010964 -0.003336 0.000000 0.000904 0.000000
# 3 -0.003106 -0.003336 0.012109 0.000000 -0.001440 0.000000
# 4 0.000000 0.000000 0.000000 0.023535 0.000000 -0.000789
# 5 -0.002355 0.000904 -0.001440 0.000000 0.040910 0.000000
# 6 0.000000 0.000000 0.000000 -0.000789 0.000000 0.038400
#
#
# Mechanical properties :
#
#
# Convention : Reuss Voigt Hill
#
# Bulk Modulus (GPa) = 34.77262 41.18453 37.97857
# Shear Modulus (GPa) = 28.61048 31.06480 29.83764
#
# Velocity S-wave (km/s) = 3.82458 3.98525 3.90574
# Velocity P-wave (km/s) = 6.10582 6.49864 6.30529
#
# Compressibility (1/GPa) = 0.02875826
#
# Stress axis : x y z
#
# Youngs Moduli (GPa) = 44.50253 91.20647 82.58055
#
# Poissons Ratio (x) = 0.17795 0.25648
# Poissons Ratio (y) = 0.08683 0.27549
# Poissons Ratio (z) = 0.13822 0.30427
#
# Static dielectric constant tensor:
#      x y z
#    x 1.729150 0.000000 -0.038540 
#    y 0.000000 1.707770 0.000000 
#    z -0.038540 0.000000 1.739340 
# 
# From -- ./inp_files/79281.got.cif
#   From: 2010.05.17/outbox.cif.g08.bks.cpg/sg15_40_cif.got.tgz:79281.got - 2010.06.03 18:47:42.
