data_PCOD9264446
_publ_section_title
;
Structure prediction by ZEFSAII (Michael W. Deem and Ramdas Pophale) SiO2 
 PCOD9264446
Probable space group: C 2/C
;
_chemical_formula_sum "Si O2"
_cell_formula_units_Z 60
_cell_length_a 16.561569
_cell_length_b 9.467828
_cell_length_c 27.157752
_cell_angle_alpha 90.000000
_cell_angle_beta 124.872222
_cell_angle_gamma 90.000000
_cell_volume 3493.709147
_symmetry_space_group_name_H-M "C 2/C"
_symmetry_group_IT_number 15
_symmetry_cell_setting 'monoclinic'
loop_
_space_group_symop_operation_xyz
x,y,z
-x,y,1/2-z
-x,-y,-z
x,-y,1/2+z
1/2+x,1/2+y,z
1/2-x,1/2+y,1/2-z
1/2-x,1/2-y,-z
1/2+x,1/2-y,1/2+z
loop_
_atom_site_type_symbol
_atom_site_label
_atom_site_fract_x
_atom_site_fract_y
_atom_site_fract_z
Si Si1 0.347246 0.308916 0.273172
Si Si2 0.156586 0.952897 0.570367
Si Si3 0.465954 0.269164 0.494012
Si Si4 0.500000 0.188697 0.250000
Si Si5 0.838481 0.887467 0.812524
Si Si6 0.496787 0.825580 0.114469
Si Si7 0.120986 0.452276 0.879720
Si Si8 0.958222 0.374285 0.890697
O O1 0.424958 0.279116 0.256728
O O2 0.248405 0.222782 0.227660
O O3 0.331207 0.473939 0.276646
O O4 0.393898 0.237558 0.338360
O O5 0.111565 0.104827 0.541147
O O6 0.074303 0.838871 0.526263
O O7 0.167314 0.937918 0.632894
O O8 0.263593 0.932033 0.584493
O O9 0.458727 0.210625 0.546677
O O10 0.453439 0.155625 0.446535
O O11 0.435450 0.095778 0.189480
O O12 0.941571 0.804314 0.843281
O O13 0.410524 0.886668 0.118690
O O14 0.567425 0.963700 0.132113
O O15 0.068749 0.366742 0.906243
#
# Coordination Sequence:
#
# PCOD9264446 Si02
#       8
#     8   8   8   4   8   8   8   8
#     4  11  21  36  63  82 114 149 189 243 283 350
#     4  10  20  35  57  86 115 155 186 238 289 334
#     4  10  19  35  59  83 119 149 198 235 275 340
#     4  10  20  38  58  82 120 146 188 236 298 342
#     4  11  21  37  59  87 111 150 198 231 290 343
#     4   9  21  36  59  83 117 151 191 237 280 346
#     4   9  20  36  57  83 116 154 188 231 293 336
#     4   9  19  36  57  85 111 153 190 233 280 337
#
# _framework density 17.173725000000001
#
# number of rings (size 3 to 8) (size 9 to 14) (size 15 to 20)
#    0.800    1.333    2.667    1.200    0.000    1.067 
#    0.000    2.000    0.000    0.000    0.000    0.000 
#    0.000    0.000    0.000    0.000    0.000    0.000 
#
# Total GULP energy -167067.997241 kJ/mol
# GULP energy per Si atom -5568.933241 kJ/mol
# Density = 1.713464 g / cm^3
# Si number density = 17.173725 Si / 1000 Ang^3
#
#
#
# Elastic Constant Matrix: (Units=GPa)
#
#
# Indices 1 2 3 4 5 6 
#
# 1 35.7411 8.1926 30.9107 0.0000 3.7269 0.0000
# 2 8.1926 79.5678 25.8072 0.0000 -8.9885 0.0000
# 3 30.9107 25.8072 60.8692 0.0000 0.4063 0.0000
# 4 0.0000 0.0000 0.0000 31.0991 0.0000 -5.1430
# 5 3.7269 -8.9885 0.4063 0.0000 19.6462 0.0000
# 6 0.0000 0.0000 0.0000 -5.1430 0.0000 16.7891
#
#
#
# Elastic Compliance Matrix: (Units=1/GPa)
#
#
# Indices 1 2 3 4 5 6 
#
# 1 0.051957 0.002641 -0.027451 0.000000 -0.008080 0.000000
# 2 0.002641 0.015673 -0.008032 0.000000 0.006836 0.000000
# 3 -0.027451 -0.008032 0.033768 0.000000 0.000834 0.000000
# 4 0.000000 0.000000 0.000000 0.033871 0.000000 0.010376
# 5 -0.008080 0.006836 0.000834 0.000000 0.055544 0.000000
# 6 0.000000 0.000000 0.000000 0.010376 0.000000 0.062741
#
#
# Mechanical properties :
#
#
# Convention : Reuss Voigt Hill
#
# Bulk Modulus (GPa) = 27.99905 33.99990 30.99948
# Shear Modulus (GPa) = 15.09925 20.92472 18.01199
#
# Velocity S-wave (km/s) = 2.96836 3.49437 3.24205
# Velocity P-wave (km/s) = 5.29972 6.01011 5.66606
#
# Compressibility (1/GPa) = 0.03571549
#
# Stress axis : x y z
#
# Youngs Moduli (GPa) = 19.24676 63.80279 29.61347
#
# Poissons Ratio (x) = -0.16850 0.81291
# Poissons Ratio (y) = -0.05083 0.23785
# Poissons Ratio (z) = 0.52833 0.51246
#
# Static dielectric constant tensor:
#      x y z
#    x 1.563920 0.000000 0.000930 
#    y 0.000000 1.586940 0.000000 
#    z 0.000930 0.000000 1.578030 
# 
# From -- ./inp_files/315364.got.cif
#   From: 2010.05.17/outbox.cif.g08.bks.cpg/sg15_158_cif.got.tgz:315364.got - 2010.06.03 18:47:42.
