data_PCOD9264677
_publ_section_title
;
Structure prediction by ZEFSAII (Michael W. Deem and Ramdas Pophale) SiO2 
 PCOD9264677
Probable space group: C 2/C
;
_chemical_formula_sum "Si O2"
_cell_formula_units_Z 40
_cell_length_a 7.702341
_cell_length_b 25.361915
_cell_length_c 14.505212
_cell_angle_alpha 90.000000
_cell_angle_beta 145.914884
_cell_angle_gamma 90.000000
_cell_volume 1587.981678
_symmetry_space_group_name_H-M "C 2/C"
_symmetry_group_IT_number 15
_symmetry_cell_setting 'monoclinic'
loop_
_space_group_symop_operation_xyz
x,y,z
-x,y,1/2-z
-x,-y,-z
x,-y,1/2+z
1/2+x,1/2+y,z
1/2-x,1/2+y,1/2-z
1/2-x,1/2-y,-z
1/2+x,1/2-y,1/2+z
loop_
_atom_site_type_symbol
_atom_site_label
_atom_site_fract_x
_atom_site_fract_y
_atom_site_fract_z
Si Si1 0.332446 0.747408 0.360026
Si Si2 0.894324 0.950301 0.512360
Si Si3 0.792473 0.144256 0.446061
Si Si4 0.826645 0.674511 0.383878
Si Si5 0.777009 0.484217 0.319708
O O1 0.419246 0.701353 0.471805
O O2 0.267297 0.718636 0.234768
O O3 0.567857 0.795422 0.477022
O O4 0.000000 0.767133 0.250000
O O5 0.978957 0.900185 0.488242
O O6 0.115789 0.965303 0.698155
O O7 0.527526 0.952852 0.369649
O O8 0.000000 0.000000 0.500000
O O9 0.500000 0.136277 0.250000
O O10 0.622818 0.145133 0.470313
O O11 0.500000 0.644243 0.250000
O O12 0.500000 0.454097 0.250000
O O13 0.000000 0.500000 0.500000
#
# Coordination Sequence:
#
# PCOD9264677 Si02
#       5
#     8   8   8   8   8
#     4   9  18  35  60  86 119 163 204 254 316 373
#     4  11  20  37  64  88 121 166 206 249 307 370
#     4   9  19  35  56  87 120 162 210 247 299 384
#     4  10  19  35  61  91 123 162 208 260 315 369
#     4   9  20  38  62  90 115 157 206 256 314 360
#
# _framework density 25.189207
#
# number of rings (size 3 to 8) (size 9 to 14) (size 15 to 20)
#    0.000    2.800    0.000    4.800    0.000    0.000 
#    0.000   27.000    0.000   42.000    0.000    1.400 
#    0.000    0.000    0.000   13.000    0.000    0.000 
#
# Total GULP energy -111511.745834 kJ/mol
# GULP energy per Si atom -5575.587292 kJ/mol
# Density = 2.513187 g / cm^3
# Si number density = 25.189207 Si / 1000 Ang^3
#
#
#
# Elastic Constant Matrix: (Units=GPa)
#
#
# Indices 1 2 3 4 5 6 
#
# 1 135.3004 49.1198 50.1683 0.0000 33.0019 0.0000
# 2 49.1198 89.9613 46.5834 0.0000 27.2318 0.0000
# 3 50.1683 46.5834 105.9270 0.0000 22.7406 0.0000
# 4 0.0000 0.0000 0.0000 18.8532 0.0000 12.1166
# 5 33.0019 27.2318 22.7406 0.0000 60.1261 0.0000
# 6 0.0000 0.0000 0.0000 12.1166 0.0000 35.5987
#
#
#
# Elastic Compliance Matrix: (Units=1/GPa)
#
#
# Indices 1 2 3 4 5 6 
#
# 1 0.010387 -0.003261 -0.002806 0.000000 -0.003163 0.000000
# 2 -0.003261 0.016624 -0.004935 0.000000 -0.003873 0.000000
# 3 -0.002806 -0.004935 0.013201 0.000000 -0.001217 0.000000
# 4 0.000000 0.000000 0.000000 0.067893 0.000000 -0.023108
# 5 -0.003163 -0.003873 -0.001217 0.000000 0.020582 0.000000
# 6 0.000000 0.000000 0.000000 -0.023108 0.000000 0.035956
#
#
# Mechanical properties :
#
#
# Convention : Reuss Voigt Hill
#
# Bulk Modulus (GPa) = 54.92087 69.21462 62.06774
# Shear Modulus (GPa) = 25.94484 35.27007 30.60745
#
# Velocity S-wave (km/s) = 3.21284 3.74599 3.48961
# Velocity P-wave (km/s) = 5.96773 6.80055 6.39771
#
# Compressibility (1/GPa) = 0.01820802
#
# Stress axis : x y z
#
# Youngs Moduli (GPa) = 96.27628 60.15373 75.75072
#
# Poissons Ratio (x) = 0.19614 0.21258
# Poissons Ratio (y) = 0.31393 0.37383
# Poissons Ratio (z) = 0.27018 0.29686
#
# Static dielectric constant tensor:
#      x y z
#    x 2.044880 0.000000 -0.060760 
#    y 0.000000 2.044030 0.000000 
#    z -0.060760 0.000000 2.006050 
# 
# From -- ./inp_files/193793.got.cif
#   From: 2010.05.17/outbox.cif.g08.bks.cpg/sg15_97_cif.got.tgz:193793.got - 2010.06.03 18:47:42.
