data_PCOD9264816
_publ_section_title
;
Structure prediction by ZEFSAII (Michael W. Deem and Ramdas Pophale) SiO2 
 PCOD9264816
Probable space group: C 2/C
;
_chemical_formula_sum "Si O2"
_cell_formula_units_Z 64
_cell_length_a 25.067593
_cell_length_b 12.998644
_cell_length_c 14.638426
_cell_angle_alpha 90.000000
_cell_angle_beta 35.033144
_cell_angle_gamma 90.000000
_cell_volume 2738.135503
_symmetry_space_group_name_H-M "C 2/C"
_symmetry_group_IT_number 15
_symmetry_cell_setting 'monoclinic'
loop_
_space_group_symop_operation_xyz
x,y,z
-x,y,1/2-z
-x,-y,-z
x,-y,1/2+z
1/2+x,1/2+y,z
1/2-x,1/2+y,1/2-z
1/2-x,1/2-y,-z
1/2+x,1/2-y,1/2+z
loop_
_atom_site_type_symbol
_atom_site_label
_atom_site_fract_x
_atom_site_fract_y
_atom_site_fract_z
Si Si1 0.845923 0.312613 0.568989
Si Si2 0.885572 0.486671 0.798442
Si Si3 0.289276 0.648476 0.989424
Si Si4 0.353007 0.267636 0.596753
Si Si5 0.144645 0.286206 0.151821
Si Si6 0.985311 0.860570 0.881838
Si Si7 0.098268 0.462919 0.503198
Si Si8 0.514807 0.409668 0.339309
O O1 0.735413 0.299305 0.719323
O O2 0.884190 0.309750 0.412310
O O3 0.898972 0.211727 0.532904
O O4 0.869810 0.424341 0.576633
O O5 0.872806 0.603094 0.780926
O O6 0.884427 0.471877 0.911043
O O7 0.989663 0.451770 0.630761
O O8 0.796922 0.427845 0.884845
O O9 0.374365 0.603949 0.810227
O O10 0.250000 0.750000 0.000000
O O11 0.324688 0.684390 0.038321
O O12 0.356115 0.144294 0.589578
O O13 0.453412 0.320079 0.470742
O O14 0.077772 0.198793 0.282960
O O15 0.250000 0.250000 0.000000
O O16 0.000000 0.869119 0.750000
O O17 0.980649 0.978302 0.919412
O O18 0.500000 0.404001 0.250000
#
# Coordination Sequence:
#
# PCOD9264816 Si02
#       8
#     8   8   8   8   8   8   8   8
#     4  10  22  38  59  84 114 156 190 234 294 349
#     4  10  19  35  64  87 109 148 202 246 278 342
#     4  11  20  36  58  88 115 148 197 240 284 337
#     4  11  23  37  58  84 119 156 188 237 297 347
#     4  10  19  36  62  87 112 145 192 240 286 335
#     4   9  17  36  57  81 110 146 191 232 274 340
#     4  10  20  38  60  84 114 153 199 237 289 353
#     4   9  20  34  56  84 112 150 193 234 283 344
#
# _framework density 23.373569
#
# number of rings (size 3 to 8) (size 9 to 14) (size 15 to 20)
#    0.000    2.000    2.500    1.500    5.250    1.000 
#    0.000    3.125    0.000    3.000    0.000    0.000 
#    0.000    0.000    0.000    0.000    0.000    0.000 
#
# Total GULP energy -178678.748479 kJ/mol
# GULP energy per Si atom -5583.710890 kJ/mol
# Density = 2.332037 g / cm^3
# Si number density = 23.373569 Si / 1000 Ang^3
#
#
#
# Elastic Constant Matrix: (Units=GPa)
#
#
# Indices 1 2 3 4 5 6 
#
# 1 62.4051 21.1154 34.4987 0.0000 -11.5507 0.0000
# 2 21.1154 114.5494 34.0380 0.0000 -0.2795 0.0000
# 3 34.4987 34.0380 92.6723 0.0000 -13.8352 0.0000
# 4 0.0000 0.0000 0.0000 28.5758 0.0000 -24.9776
# 5 -11.5507 -0.2795 -13.8352 0.0000 34.1328 0.0000
# 6 0.0000 0.0000 0.0000 -24.9776 0.0000 17.3048
#
#
#
# Elastic Compliance Matrix: (Units=1/GPa)
#
#
# Indices 1 2 3 4 5 6 
#
# 1 0.021091 -0.001957 -0.006461 0.000000 0.004503 0.000000
# 2 -0.001957 0.010051 -0.003246 0.000000 -0.001896 0.000000
# 3 -0.006461 -0.003246 0.014963 0.000000 0.003852 0.000000
# 4 0.000000 0.000000 0.000000 -0.133750 0.000000 -0.193053
# 5 0.004503 -0.001896 0.003852 0.000000 0.032367 0.000000
# 6 0.000000 0.000000 0.000000 -0.193053 0.000000 -0.220864
#
#
# Mechanical properties :
#
#
# Convention : Reuss Voigt Hill
#
# Bulk Modulus (GPa) = 43.90243 49.88121 46.89182
# Shear Modulus (GPa) = -20.38968 28.00100 3.80566
#
# Velocity S-wave (km/s) = -2.95674 3.46494 1.27739
# Velocity P-wave (km/s) = 2.67718 6.11514 4.72028
#
# Compressibility (1/GPa) = 0.02277778
#
# Stress axis : x y z
#
# Youngs Moduli (GPa) = 47.41252 99.49736 66.83130
#
# Poissons Ratio (x) = 0.19473 0.43177
# Poissons Ratio (y) = 0.09279 0.21693
# Poissons Ratio (z) = 0.30631 0.32296
#
# Static dielectric constant tensor:
#      x y z
#    x 1.955380 0.000000 0.034260 
#    y 0.000000 1.826040 0.000000 
#    z 0.034260 0.000000 1.791010 
# 
# From -- ./inp_files/225140.got.cif
#   From: 2010.05.17/outbox.cif.g08.bks.cpg/sg15_113_cif.got.tgz:225140.got - 2010.06.03 18:47:42.
