data_PCOD9264021
_publ_section_title
;
Structure prediction by ZEFSAII (Michael W. Deem and Ramdas Pophale) SiO2 
 PCOD9264021
Probable space group: C 2/C
;
_chemical_formula_sum "Si O2"
_cell_formula_units_Z 60
_cell_length_a 23.020400
_cell_length_b 15.374850
_cell_length_c 8.870493
_cell_angle_alpha 90.000000
_cell_angle_beta 84.930544
_cell_angle_gamma 90.000000
_cell_volume 3127.298633
_symmetry_space_group_name_H-M "C 2/C"
_symmetry_group_IT_number 15
_symmetry_cell_setting 'monoclinic'
loop_
_space_group_symop_operation_xyz
x,y,z
-x,y,1/2-z
-x,-y,-z
x,-y,1/2+z
1/2+x,1/2+y,z
1/2-x,1/2+y,1/2-z
1/2-x,1/2-y,-z
1/2+x,1/2-y,1/2+z
loop_
_atom_site_type_symbol
_atom_site_label
_atom_site_fract_x
_atom_site_fract_y
_atom_site_fract_z
Si Si1 0.451037 0.883103 0.029712
Si Si2 0.406092 0.011369 0.295840
Si Si3 0.843192 0.610714 0.049705
Si Si4 0.371159 0.723957 0.353623
Si Si5 0.835091 0.285734 0.039553
Si Si6 0.779317 0.110012 0.989700
Si Si7 0.000000 0.736089 0.750000
Si Si8 0.788590 0.071723 0.340410
O O1 0.398703 0.820751 0.988507
O O2 0.498554 0.823450 0.098620
O O3 0.427917 0.939413 0.174761
O O4 0.457196 0.947590 0.888109
O O5 0.373126 0.081509 0.199484
O O6 0.363814 0.960794 0.421496
O O7 0.773747 0.605344 0.084176
O O8 0.863370 0.704977 0.986553
O O9 0.336855 0.763823 0.217044
O O10 0.438334 0.715233 0.282285
O O11 0.339995 0.632700 0.392492
O O12 0.817010 0.197720 0.958666
O O13 0.786903 0.358778 0.021164
O O14 0.787310 0.081555 0.160587
O O15 0.794640 0.028641 0.883434
#
# Coordination Sequence:
#
# PCOD9264021 Si02
#       8
#     8   8   8   8   8   8   4   8
#     4  10  19  35  53  82 109 155 186 232 274 337
#     4  10  20  32  56  83 122 144 187 224 286 341
#     4  11  19  35  52  86 118 148 175 232 285 347
#     4  10  22  38  57  82 110 155 194 234 279 329
#     4   9  18  35  55  77 115 148 184 217 284 345
#     4  10  21  35  55  84 115 153 182 225 281 345
#     4  10  20  40  60  72 114 154 198 232 282 326
#     4  11  22  35  57  85 117 147 187 229 281 342
#
# _framework density 19.185887999999998
#
# number of rings (size 3 to 8) (size 9 to 14) (size 15 to 20)
#    0.000    1.867    2.667    3.600    1.867    0.533 
#    4.800    0.000    0.000    7.200    0.000    0.000 
#    0.000    0.000    0.000    0.000    0.000    0.000 
#
# Total GULP energy -167503.486360 kJ/mol
# GULP energy per Si atom -5583.449545 kJ/mol
# Density = 1.914222 g / cm^3
# Si number density = 19.185888 Si / 1000 Ang^3
#
#
#
# Elastic Constant Matrix: (Units=GPa)
#
#
# Indices 1 2 3 4 5 6 
#
# 1 85.6755 43.4095 26.1590 0.0000 13.5426 0.0000
# 2 43.4095 112.3782 29.6799 0.0000 7.3974 0.0000
# 3 26.1590 29.6799 68.2305 0.0000 5.9492 0.0000
# 4 0.0000 0.0000 0.0000 24.2928 0.0000 4.7651
# 5 13.5426 7.3974 5.9492 0.0000 22.6508 0.0000
# 6 0.0000 0.0000 0.0000 4.7651 0.0000 18.8867
#
#
#
# Elastic Compliance Matrix: (Units=1/GPa)
#
#
# Indices 1 2 3 4 5 6 
#
# 1 0.016387 -0.004926 -0.003506 0.000000 -0.007268 0.000000
# 2 -0.004926 0.011641 -0.003173 0.000000 -0.000023 0.000000
# 3 -0.003506 -0.003173 0.017509 0.000000 -0.001466 0.000000
# 4 0.000000 0.000000 0.000000 0.043308 0.000000 -0.010927
# 5 -0.007268 -0.000023 -0.001466 0.000000 0.048887 0.000000
# 6 0.000000 0.000000 0.000000 -0.010927 0.000000 0.055704
#
#
# Mechanical properties :
#
#
# Convention : Reuss Voigt Hill
#
# Bulk Modulus (GPa) = 44.79032 51.64233 48.21633
# Shear Modulus (GPa) = 22.31273 24.30177 23.30725
#
# Velocity S-wave (km/s) = 3.41394 3.56286 3.48920
# Velocity P-wave (km/s) = 6.23988 6.62575 6.43571
#
# Compressibility (1/GPa) = 0.02232625
#
# Stress axis : x y z
#
# Youngs Moduli (GPa) = 61.02396 85.90504 57.11457
#
# Poissons Ratio (x) = 0.42313 0.20026
# Poissons Ratio (y) = 0.30057 0.18124
# Poissons Ratio (z) = 0.21397 0.27260
#
# Static dielectric constant tensor:
#      x y z
#    x 1.692430 0.000000 0.007990 
#    y 0.000000 1.692950 0.000000 
#    z 0.007990 0.000000 1.677930 
# 
# From -- ./inp_files/61558.got.cif
#   From: 2010.05.17/outbox.cif.g08.bks.cpg/sg15_31_cif.got.tgz:61558.got - 2010.06.03 18:47:42.
