data_PCOD9264096
_publ_section_title
;
Structure prediction by ZEFSAII (Michael W. Deem and Ramdas Pophale) SiO2 
 PCOD9264096
Probable space group: C 2/C
;
_chemical_formula_sum "Si O2"
_cell_formula_units_Z 36
_cell_length_a 19.562959
_cell_length_b 13.870737
_cell_length_c 8.534459
_cell_angle_alpha 90.000000
_cell_angle_beta 139.564707
_cell_angle_gamma 90.000000
_cell_volume 1502.033331
_symmetry_space_group_name_H-M "C 2/C"
_symmetry_group_IT_number 15
_symmetry_cell_setting 'monoclinic'
loop_
_space_group_symop_operation_xyz
x,y,z
-x,y,1/2-z
-x,-y,-z
x,-y,1/2+z
1/2+x,1/2+y,z
1/2-x,1/2+y,1/2-z
1/2-x,1/2-y,-z
1/2+x,1/2-y,1/2+z
loop_
_atom_site_type_symbol
_atom_site_label
_atom_site_fract_x
_atom_site_fract_y
_atom_site_fract_z
Si Si1 0.399566 0.816710 0.903251
Si Si2 0.068419 0.808370 0.504380
Si Si3 0.811123 0.367809 0.451457
Si Si4 0.117901 0.142605 0.413555
Si Si5 0.500000 0.015181 0.750000
O O1 0.301971 0.841950 0.619915
O O2 0.476800 0.747225 0.941015
O O3 0.375134 0.755746 0.016907
O O4 0.464476 0.912038 0.052705
O O5 0.140810 0.725193 0.555081
O O6 0.130324 0.865062 0.748258
O O7 0.000000 0.860810 0.250000
O O8 0.900225 0.448603 0.604344
O O9 0.707952 0.401868 0.179553
O O10 0.000000 0.109220 0.250000
#
# Coordination Sequence:
#
# PCOD9264096 Si02
#       5
#     8   8   8   8   4
#     4  10  19  35  55  81 113 144 184 226 279 324
#     4   9  17  33  53  80 109 142 184 231 272 320
#     4  11  21  31  55  86 114 140 185 233 276 318
#     4  10  20  36  55  78 113 151 183 223 273 336
#     4  12  20  34  60  88 114 138 186 232 280 318
#
# _framework density 23.967510000000001
#
# number of rings (size 3 to 8) (size 9 to 14) (size 15 to 20)
#    0.000    1.778    6.667    2.000    0.000    0.000 
#    0.000    0.000    0.000    1.333    2.889    0.000 
#    0.000    0.000    0.000    0.000    0.000    0.000 
#
# Total GULP energy -100491.140696 kJ/mol
# GULP energy per Si atom -5582.841150 kJ/mol
# Density = 2.391296 g / cm^3
# Si number density = 23.967510 Si / 1000 Ang^3
#
#
#
# Elastic Constant Matrix: (Units=GPa)
#
#
# Indices 1 2 3 4 5 6 
#
# 1 29.0798 10.7099 44.3884 0.0000 -13.1789 0.0000
# 2 10.7099 49.3231 31.2537 0.0000 8.5847 0.0000
# 3 44.3884 31.2537 253.7404 0.0000 -17.8008 0.0000
# 4 0.0000 0.0000 0.0000 19.6900 0.0000 0.5891
# 5 -13.1789 8.5847 -17.8008 0.0000 43.1341 0.0000
# 6 0.0000 0.0000 0.0000 0.5891 0.0000 -5.2720
#
#
#
# Elastic Compliance Matrix: (Units=1/GPa)
#
#
# Indices 1 2 3 4 5 6 
#
# 1 0.057275 -0.010506 -0.007570 0.000000 0.016466 0.000000
# 2 -0.010506 0.025346 -0.001919 0.000000 -0.009046 0.000000
# 3 -0.007570 -0.001919 0.005526 0.000000 0.000349 0.000000
# 4 0.000000 0.000000 0.000000 0.050618 0.000000 0.005656
# 5 0.016466 -0.009046 0.000349 0.000000 0.030159 0.000000
# 6 0.000000 0.000000 0.000000 0.005656 0.000000 -0.189050
#
#
# Mechanical properties :
#
#
# Convention : Reuss Voigt Hill
#
# Bulk Modulus (GPa) = 20.76496 56.09415 38.42956
# Shear Modulus (GPa) = 139.21045 27.89651 83.55348
#
# Velocity S-wave (km/s) = 7.62949 3.41534 5.91074
# Velocity P-wave (km/s) = 9.28949 6.24562 7.91525
#
# Compressibility (1/GPa) = 0.04815804
#
# Stress axis : x y z
#
# Youngs Moduli (GPa) = 17.45954 39.45406 180.95580
#
# Poissons Ratio (x) = 0.41449 1.36990
# Poissons Ratio (y) = 0.18342 0.34720
# Poissons Ratio (z) = 0.13217 0.07570
#
# Static dielectric constant tensor:
#      x y z
#    x 1.903270 0.000000 -0.041040 
#    y 0.000000 1.916180 0.000000 
#    z -0.041040 0.000000 2.034010 
# 
# From -- ./inp_files/37538.got.cif
#   From: 2010.05.17/outbox.cif.g08.bks.cpg/sg15_19_cif.got.tgz:37538.got - 2010.06.03 18:47:42.
