data_PCOD9264254
_publ_section_title
;
Structure prediction by ZEFSAII (Michael W. Deem and Ramdas Pophale) SiO2 
 PCOD9264254
Probable space group: C 2/C
;
_chemical_formula_sum "Si O2"
_cell_formula_units_Z 56
_cell_length_a 16.623560
_cell_length_b 27.123855
_cell_length_c 10.129078
_cell_angle_alpha 90.000000
_cell_angle_beta 142.392979
_cell_angle_gamma 90.000000
_cell_volume 2787.068448
_symmetry_space_group_name_H-M "C 2/C"
_symmetry_group_IT_number 15
_symmetry_cell_setting 'monoclinic'
loop_
_space_group_symop_operation_xyz
x,y,z
-x,y,1/2-z
-x,-y,-z
x,-y,1/2+z
1/2+x,1/2+y,z
1/2-x,1/2+y,1/2-z
1/2-x,1/2-y,-z
1/2+x,1/2-y,1/2+z
loop_
_atom_site_type_symbol
_atom_site_label
_atom_site_fract_x
_atom_site_fract_y
_atom_site_fract_z
Si Si1 0.789749 0.990522 0.312418
Si Si2 0.354621 0.606214 0.037288
Si Si3 0.598601 0.757407 0.757509
Si Si4 0.330752 0.135882 0.181399
Si Si5 0.627193 0.657841 0.681598
Si Si6 0.126835 0.472204 0.841577
Si Si7 0.853962 0.901112 0.832287
O O1 0.673825 0.000926 0.269318
O O2 0.864177 0.042215 0.392490
O O3 0.868474 0.946378 0.482801
O O4 0.737926 0.974561 0.100825
O O5 0.500000 0.627260 0.250000
O O6 0.299374 0.599630 0.111269
O O7 0.295590 0.642192 0.850935
O O8 0.500000 0.746836 0.750000
O O9 0.583645 0.814508 0.698119
O O10 0.583170 0.714742 0.629150
O O11 0.750000 0.750000 0.000000
O O12 0.400395 0.084510 0.234820
O O13 0.249143 0.126002 0.207757
O O14 0.222785 0.145824 0.927083
O O15 0.495053 0.625293 0.524669
O O16 0.000000 0.494072 0.750000
#
# Coordination Sequence:
#
# PCOD9264254 Si02
#       7
#     8   8   8   8   8   8   8
#     4  11  21  37  55  80 120 152 197 240 297 352
#     4  10  21  35  54  83 119 155 190 240 298 363
#     4  10  20  36  60  91 116 148 196 255 308 353
#     4  10  20  35  58  82 115 146 199 248 294 352
#     4  10  19  35  57  83 114 152 189 246 305 352
#     4  11  22  36  55  81 110 158 197 244 291 357
#     4  10  21  35  56  86 117 153 193 241 297 368
#
# _framework density 20.092797000000001
#
# number of rings (size 3 to 8) (size 9 to 14) (size 15 to 20)
#    0.000    1.714    2.857    3.000    0.000    4.571 
#    0.000    0.714    0.000    1.714    0.000    0.000 
#    0.000    0.000    0.000    0.000    0.000    0.000 
#
# Total GULP energy -156153.406003 kJ/mol
# GULP energy per Si atom -5576.907357 kJ/mol
# Density = 2.004706 g / cm^3
# Si number density = 20.092797 Si / 1000 Ang^3
#
#
#
# Elastic Constant Matrix: (Units=GPa)
#
#
# Indices 1 2 3 4 5 6 
#
# 1 81.0301 11.9588 20.6670 0.0000 -25.7524 0.0000
# 2 11.9588 105.0166 13.1214 0.0000 -17.2775 0.0000
# 3 20.6670 13.1214 44.3019 0.0000 -26.3000 0.0000
# 4 0.0000 0.0000 0.0000 14.5462 0.0000 -2.7289
# 5 -25.7524 -17.2775 -26.3000 0.0000 39.7157 0.0000
# 6 0.0000 0.0000 0.0000 -2.7289 0.0000 17.1503
#
#
#
# Elastic Compliance Matrix: (Units=1/GPa)
#
#
# Indices 1 2 3 4 5 6 
#
# 1 0.015663 -0.000085 -0.002100 0.000000 0.008729 0.000000
# 2 -0.000085 0.010268 -0.000630 0.000000 0.003994 0.000000
# 3 -0.002100 -0.000630 0.037516 0.000000 0.023207 0.000000
# 4 0.000000 0.000000 0.000000 0.070862 0.000000 0.011275
# 5 0.008729 0.003994 0.023207 0.000000 0.047945 0.000000
# 6 0.000000 0.000000 0.000000 0.011275 0.000000 0.060102
#
#
# Mechanical properties :
#
#
# Convention : Reuss Voigt Hill
#
# Bulk Modulus (GPa) = 17.29610 35.76036 26.52823
# Shear Modulus (GPa) = 18.70846 26.58919 22.64882
#
# Velocity S-wave (km/s) = 3.05471 3.64169 3.36104
# Velocity P-wave (km/s) = 4.59004 5.95977 5.31918
#
# Compressibility (1/GPa) = 0.05781651
#
# Stress axis : x y z
#
# Youngs Moduli (GPa) = 63.84316 97.39099 26.65535
#
# Poissons Ratio (x) = 0.00830 0.05597
# Poissons Ratio (y) = 0.00544 0.01680
# Poissons Ratio (z) = 0.13407 0.06138
#
# Static dielectric constant tensor:
#      x y z
#    x 1.750660 0.000000 -0.010450 
#    y 0.000000 1.728070 0.000000 
#    z -0.010450 0.000000 1.730900 
# 
# From -- ./inp_files/43601.got.cif
#   From: 2010.05.17/outbox.cif.g08.bks.cpg/sg15_22_cif.got.tgz:43601.got - 2010.06.03 18:47:42.
