data_PCOD9264139
_publ_section_title
;
Structure prediction by ZEFSAII (Michael W. Deem and Ramdas Pophale) SiO2 
 PCOD9264139
Probable space group: C 2/C
;
_chemical_formula_sum "Si O2"
_cell_formula_units_Z 56
_cell_length_a 15.186250
_cell_length_b 23.293051
_cell_length_c 7.385610
_cell_angle_alpha 90.000000
_cell_angle_beta 98.804758
_cell_angle_gamma 90.000000
_cell_volume 2581.755027
_symmetry_space_group_name_H-M "C 2/C"
_symmetry_group_IT_number 15
_symmetry_cell_setting 'monoclinic'
loop_
_space_group_symop_operation_xyz
x,y,z
-x,y,1/2-z
-x,-y,-z
x,-y,1/2+z
1/2+x,1/2+y,z
1/2-x,1/2+y,1/2-z
1/2-x,1/2-y,-z
1/2+x,1/2-y,1/2+z
loop_
_atom_site_type_symbol
_atom_site_label
_atom_site_fract_x
_atom_site_fract_y
_atom_site_fract_z
Si Si1 0.079958 0.445098 0.411809
Si Si2 0.739838 0.863552 0.466751
Si Si3 0.375827 0.068873 0.179247
Si Si4 0.828809 0.812121 0.156700
Si Si5 0.091599 0.064655 0.877807
Si Si6 0.826976 0.687353 0.178283
Si Si7 0.175152 0.951231 0.769566
O O1 0.165545 0.408767 0.375696
O O2 0.101042 0.512813 0.424824
O O3 0.067513 0.429242 0.617420
O O4 0.000000 0.434751 0.250000
O O5 0.770072 0.821678 0.318451
O O6 0.697282 0.829504 0.623060
O O7 0.819886 0.903967 0.568969
O O8 0.377855 0.133242 0.106276
O O9 0.272531 0.057489 0.208858
O O10 0.885385 0.869942 0.163084
O O11 0.872370 0.749330 0.181775
O O12 0.765401 0.810346 0.961259
O O13 0.000000 0.049964 0.750000
O O14 0.161474 0.015812 0.834602
O O15 0.099368 0.060977 0.097493
#
# Coordination Sequence:
#
# PCOD9264139 Si02
#       7
#     8   8   8   8   8   8   8
#     4  10  20  32  53  86 115 140 175 230 294 330
#     4  10  21  36  65  83 112 146 194 242 272 341
#     4  10  19  35  56  77 112 144 186 233 266 342
#     4  11  20  38  62  81 110 156 195 233 279 325
#     4  12  22  35  57  85 124 147 184 241 292 343
#     4   9  21  37  59  85 108 143 205 235 260 338
#     4  10  20  37  54  86 112 145 196 228 284 349
#
# _framework density 21.690670000000001
#
# number of rings (size 3 to 8) (size 9 to 14) (size 15 to 20)
#    0.000    2.000    2.857    4.714    2.000    0.000 
#    0.000    0.714    9.429    0.000    0.000    0.000 
#    0.000    0.000    0.000    0.000    0.000    0.000 
#
# Total GULP energy -156359.281539 kJ/mol
# GULP energy per Si atom -5584.260055 kJ/mol
# Density = 2.164130 g / cm^3
# Si number density = 21.690670 Si / 1000 Ang^3
#
#
#
# Elastic Constant Matrix: (Units=GPa)
#
#
# Indices 1 2 3 4 5 6 
#
# 1 16.4481 17.3958 13.4013 0.0000 6.4734 0.0000
# 2 17.3958 175.6536 29.9135 0.0000 4.5014 0.0000
# 3 13.4013 29.9135 84.9544 0.0000 12.4247 0.0000
# 4 0.0000 0.0000 0.0000 28.3870 0.0000 -0.1502
# 5 6.4734 4.5014 12.4247 0.0000 24.2118 0.0000
# 6 0.0000 0.0000 0.0000 -0.1502 0.0000 18.3996
#
#
#
# Elastic Compliance Matrix: (Units=1/GPa)
#
#
# Indices 1 2 3 4 5 6 
#
# 1 0.080288 -0.006152 -0.008138 0.000000 -0.016147 0.000000
# 2 -0.006152 0.006528 -0.001504 0.000000 0.001203 0.000000
# 3 -0.008138 -0.001504 0.014298 0.000000 -0.004882 0.000000
# 4 0.000000 0.000000 0.000000 0.035229 0.000000 0.000288
# 5 -0.016147 0.001203 -0.004882 0.000000 0.047901 0.000000
# 6 0.000000 0.000000 0.000000 0.000288 0.000000 0.054352
#
#
# Mechanical properties :
#
#
# Convention : Reuss Voigt Hill
#
# Bulk Modulus (GPa) = 14.38281 44.27527 29.32904
# Shear Modulus (GPa) = 17.04403 28.62271 22.83337
#
# Velocity S-wave (km/s) = 2.80621 3.63655 3.24803
# Velocity P-wave (km/s) = 4.14066 6.17164 5.25520
#
# Compressibility (1/GPa) = 0.06952744
#
# Stress axis : x y z
#
# Youngs Moduli (GPa) = 12.45511 153.19682 69.93847
#
# Poissons Ratio (x) = 0.94242 0.56914
# Poissons Ratio (y) = 0.07662 0.10518
# Poissons Ratio (z) = 0.10136 0.23040
#
# Static dielectric constant tensor:
#      x y z
#    x 1.869030 0.000000 -0.019060 
#    y 0.000000 1.804720 0.000000 
#    z -0.019060 0.000000 1.809920 
# 
# From -- ./inp_files/50318.got.cif
#   From: 2010.05.17/outbox.cif.g08.bks.cpg/sg15_26_cif.got.tgz:50318.got - 2010.06.03 18:47:42.
