data_PCOD9264623
_publ_section_title
;
Structure prediction by ZEFSAII (Michael W. Deem and Ramdas Pophale) SiO2 
 PCOD9264623
Probable space group: C 2/C
;
_chemical_formula_sum "Si O2"
_cell_formula_units_Z 64
_cell_length_a 28.193395
_cell_length_b 12.312064
_cell_length_c 14.755657
_cell_angle_alpha 90.000000
_cell_angle_beta 142.539559
_cell_angle_gamma 90.000000
_cell_volume 3115.249717
_symmetry_space_group_name_H-M "C 2/C"
_symmetry_group_IT_number 15
_symmetry_cell_setting 'monoclinic'
loop_
_space_group_symop_operation_xyz
x,y,z
-x,y,1/2-z
-x,-y,-z
x,-y,1/2+z
1/2+x,1/2+y,z
1/2-x,1/2+y,1/2-z
1/2-x,1/2-y,-z
1/2+x,1/2-y,1/2+z
loop_
_atom_site_type_symbol
_atom_site_label
_atom_site_fract_x
_atom_site_fract_y
_atom_site_fract_z
Si Si1 0.327019 0.324388 0.118191
Si Si2 0.375337 0.084059 0.398960
Si Si3 0.382570 0.077183 0.608535
Si Si4 0.839794 0.234896 0.164932
Si Si5 0.871711 0.340286 0.406455
Si Si6 0.704775 0.357420 0.624200
Si Si7 0.553709 0.129417 0.184451
Si Si8 0.303239 0.526740 0.198712
O O1 0.398281 0.239870 0.225989
O O2 0.324252 0.405943 0.199090
O O3 0.250000 0.250000 0.000000
O O4 0.321019 0.392832 0.015127
O O5 0.414153 0.097193 0.555399
O O6 0.298266 0.155702 0.270359
O O7 0.430351 0.097910 0.396429
O O8 0.341494 0.962045 0.352661
O O9 0.388535 0.190603 0.670746
O O10 0.289556 0.048716 0.457541
O O11 0.417709 0.972661 0.712297
O O12 0.854429 0.287933 0.284092
O O13 0.849261 0.107824 0.200028
O O14 0.750000 0.250000 0.000000
O O15 0.832026 0.261503 0.417669
O O16 0.963203 0.349997 0.563460
O O17 0.681173 0.433851 0.673953
#
# Coordination Sequence:
#
# PCOD9264623 Si02
#       8
#     8   8   8   8   8   8   8   8
#     4  12  22  40  64  96 137 173 234 272 325 405
#     4  11  22  37  63  98 132 170 221 272 331 401
#     4  10  19  35  60  95 129 169 219 263 342 388
#     4   9  19  38  62  85 130 174 218 264 325 400
#     4  11  24  42  64  98 137 168 221 279 343 396
#     4  10  23  40  64  93 130 177 227 265 324 400
#     4  12  24  41  64 100 139 177 208 294 341 388
#     4   9  20  39  59  94 124 174 223 274 314 391
#
# _framework density 20.544098999999999
#
# number of rings (size 3 to 8) (size 9 to 14) (size 15 to 20)
#    0.000    1.500    3.750    1.875    3.500    2.000 
#    2.250    2.500    0.000    0.000    0.000    0.000 
#    0.000    0.000    0.000    0.000    0.000    0.000 
#
# Total GULP energy -178669.742309 kJ/mol
# GULP energy per Si atom -5583.429447 kJ/mol
# Density = 2.049734 g / cm^3
# Si number density = 20.544099 Si / 1000 Ang^3
#
#
#
# Elastic Constant Matrix: (Units=GPa)
#
#
# Indices 1 2 3 4 5 6 
#
# 1 80.0913 40.7113 36.2399 0.0000 -5.9552 0.0000
# 2 40.7113 105.0401 27.9906 0.0000 0.5049 0.0000
# 3 36.2399 27.9906 67.5559 0.0000 -9.5515 0.0000
# 4 0.0000 0.0000 0.0000 29.6819 0.0000 0.5602
# 5 -5.9552 0.5049 -9.5515 0.0000 36.6413 0.0000
# 6 0.0000 0.0000 0.0000 0.5602 0.0000 29.2679
#
#
#
# Elastic Compliance Matrix: (Units=1/GPa)
#
#
# Indices 1 2 3 4 5 6 
#
# 1 0.018704 -0.005196 -0.007726 0.000000 0.001098 0.000000
# 2 -0.005196 0.012210 -0.002507 0.000000 -0.001666 0.000000
# 3 -0.007726 -0.002507 0.020571 0.000000 0.004141 0.000000
# 4 0.000000 0.000000 0.000000 0.033703 0.000000 -0.000645
# 5 0.001098 -0.001666 0.004141 0.000000 0.028572 0.000000
# 6 0.000000 0.000000 0.000000 -0.000645 0.000000 0.034179
#
#
# Mechanical properties :
#
#
# Convention : Reuss Voigt Hill
#
# Bulk Modulus (GPa) = 48.47830 51.39676 49.93753
# Shear Modulus (GPa) = 26.92886 28.96793 27.94840
#
# Velocity S-wave (km/s) = 3.62440 3.75912 3.69237
# Velocity P-wave (km/s) = 6.41588 6.62672 6.52215
#
# Compressibility (1/GPa) = 0.02062778
#
# Stress axis : x y z
#
# Youngs Moduli (GPa) = 53.46376 81.89902 48.61122
#
# Poissons Ratio (x) = 0.42554 0.37556
# Poissons Ratio (y) = 0.27779 0.12189
# Poissons Ratio (z) = 0.41305 0.20535
#
# Static dielectric constant tensor:
#      x y z
#    x 1.776220 0.000000 -0.045210 
#    y 0.000000 1.781270 0.000000 
#    z -0.045210 0.000000 1.747330 
# 
# From -- ./inp_files/181791.got.cif
#   From: 2010.05.17/outbox.cif.g08.bks.cpg/sg15_91_cif.got.tgz:181791.got - 2010.06.03 18:47:42.
