data_PCOD9264890
_publ_section_title
;
Structure prediction by ZEFSAII (Michael W. Deem and Ramdas Pophale) SiO2 
 PCOD9264890
Probable space group: C 2/C
;
_chemical_formula_sum "Si O2"
_cell_formula_units_Z 52
_cell_length_a 11.309756
_cell_length_b 26.697564
_cell_length_c 8.931987
_cell_angle_alpha 90.000000
_cell_angle_beta 109.385391
_cell_angle_gamma 90.000000
_cell_volume 2544.053023
_symmetry_space_group_name_H-M "C 2/C"
_symmetry_group_IT_number 15
_symmetry_cell_setting 'monoclinic'
loop_
_space_group_symop_operation_xyz
x,y,z
-x,y,1/2-z
-x,-y,-z
x,-y,1/2+z
1/2+x,1/2+y,z
1/2-x,1/2+y,1/2-z
1/2-x,1/2-y,-z
1/2+x,1/2-y,1/2+z
loop_
_atom_site_type_symbol
_atom_site_label
_atom_site_fract_x
_atom_site_fract_y
_atom_site_fract_z
Si Si1 0.305690 0.829117 0.631640
Si Si2 0.000000 0.378736 0.250000
Si Si3 0.287920 0.043179 0.756775
Si Si4 0.043732 0.301870 0.527006
Si Si5 0.524604 0.697431 0.937497
Si Si6 0.243607 0.944415 0.589171
Si Si7 0.026857 0.915617 0.081825
O O1 0.415567 0.815609 0.562251
O O2 0.344295 0.808160 0.808505
O O3 0.173422 0.808059 0.521210
O O4 0.294896 0.888971 0.638959
O O5 0.892788 0.415800 0.265541
O O6 0.053467 0.341142 0.397829
O O7 0.160236 0.058885 0.617101
O O8 0.311617 0.986679 0.714027
O O9 0.264343 0.043765 0.923585
O O10 0.029314 0.243001 0.488502
O O11 0.500000 0.707255 0.750000
O O12 0.468383 0.643263 0.954122
O O13 0.092431 0.940772 0.548748
O O14 0.000000 0.917133 0.250000
#
# Coordination Sequence:
#
# PCOD9264890 Si02
#       7
#     8   4   8   8   8   8   8
#     4  10  21  40  64  92 119 155 218 256 293 367
#     4  12  28  40  56  88 136 168 200 248 314 372
#     4  11  23  40  60  88 121 163 203 253 309 369
#     4  11  23  39  61  89 126 166 202 255 301 365
#     4  10  19  35  70  95 114 158 210 253 300 362
#     4  10  21  39  65  88 117 154 207 259 308 358
#     4   8  18  37  63  91 116 150 203 260 305 355
#
# _framework density 20.439827000000001
#
# number of rings (size 3 to 8) (size 9 to 14) (size 15 to 20)
#    0.000    1.846    3.077    1.846    2.154    1.846 
#    0.000    3.077    0.000    0.000    0.000    0.000 
#    0.000    0.000    0.000    0.000    0.000    0.000 
#
# Total GULP energy -145246.496890 kJ/mol
# GULP energy per Si atom -5586.403727 kJ/mol
# Density = 2.039331 g / cm^3
# Si number density = 20.439827 Si / 1000 Ang^3
#
#
#
# Elastic Constant Matrix: (Units=GPa)
#
#
# Indices 1 2 3 4 5 6 
#
# 1 31.8685 16.0978 14.4931 0.0000 6.8515 0.0000
# 2 16.0978 126.3625 30.0548 0.0000 6.4186 0.0000
# 3 14.4931 30.0548 49.7703 0.0000 14.6360 0.0000
# 4 0.0000 0.0000 0.0000 -3.2002 0.0000 -1.5319
# 5 6.8515 6.4186 14.6360 0.0000 18.7105 0.0000
# 6 0.0000 0.0000 0.0000 -1.5319 0.0000 -1.4751
#
#
#
# Elastic Compliance Matrix: (Units=1/GPa)
#
#
# Indices 1 2 3 4 5 6 
#
# 1 0.037564 -0.002711 -0.007182 0.000000 -0.007207 0.000000
# 2 -0.002711 0.009472 -0.005541 0.000000 0.002078 0.000000
# 3 -0.007182 -0.005541 0.031427 0.000000 -0.020052 0.000000
# 4 0.000000 0.000000 0.000000 -0.621357 0.000000 0.645272
# 5 -0.007207 0.002078 -0.020052 0.000000 0.071058 0.000000
# 6 0.000000 0.000000 0.000000 0.645272 0.000000 -1.348024
#
#
# Mechanical properties :
#
#
# Convention : Reuss Voigt Hill
#
# Bulk Modulus (GPa) = 21.01123 36.58805 28.79964
# Shear Modulus (GPa) = -2.81988 12.63074 4.90543
#
# Velocity S-wave (km/s) = -1.17584 2.48855 1.55085
# Velocity P-wave (km/s) = 2.90833 5.11824 4.16262
#
# Compressibility (1/GPa) = 0.04759360
#
# Stress axis : x y z
#
# Youngs Moduli (GPa) = 26.62114 105.57974 31.82011
#
# Poissons Ratio (x) = 0.28624 0.22853
# Poissons Ratio (y) = 0.07217 0.17632
# Poissons Ratio (z) = 0.19119 0.58504
#
# Static dielectric constant tensor:
#      x y z
#    x 1.709440 0.000000 0.013500 
#    y 0.000000 1.723670 0.000000 
#    z 0.013500 0.000000 1.705520 
# 
# From -- ./inp_files/33738.got.cif
#   From: 2010.05.17/outbox.cif.g08.bks.cpg/sg15_17_cif.got.tgz:33738.got - 2010.06.03 18:47:42.
