data_PCOD9265255
_publ_section_title
;
Structure prediction by ZEFSAII (Michael W. Deem and Ramdas Pophale) SiO2 
 PCOD9265255
Probable space group: C 2/C
;
_chemical_formula_sum "Si O2"
_cell_formula_units_Z 56
_cell_length_a 12.318748
_cell_length_b 14.801124
_cell_length_c 14.999472
_cell_angle_alpha 90.000000
_cell_angle_beta 75.566178
_cell_angle_gamma 90.000000
_cell_volume 2648.550451
_symmetry_space_group_name_H-M "C 2/C"
_symmetry_group_IT_number 15
_symmetry_cell_setting 'monoclinic'
loop_
_space_group_symop_operation_xyz
x,y,z
-x,y,1/2-z
-x,-y,-z
x,-y,1/2+z
1/2+x,1/2+y,z
1/2-x,1/2+y,1/2-z
1/2-x,1/2-y,-z
1/2+x,1/2-y,1/2+z
loop_
_atom_site_type_symbol
_atom_site_label
_atom_site_fract_x
_atom_site_fract_y
_atom_site_fract_z
Si Si1 0.240393 0.939077 0.634004
Si Si2 0.142303 0.118183 0.653583
Si Si3 0.917167 0.294328 0.535153
Si Si4 0.196286 0.071800 0.352466
Si Si5 0.474667 0.316943 0.855969
Si Si6 0.589337 0.391435 0.371076
Si Si7 0.343493 0.199186 0.422887
O O1 0.335320 0.877715 0.569868
O O2 0.243120 0.931797 0.741414
O O3 0.120230 0.894831 0.631850
O O4 0.239073 0.046153 0.611936
O O5 0.110821 0.095768 0.761377
O O6 0.148921 0.226263 0.656717
O O7 0.045391 0.103174 0.599701
O O8 0.932278 0.261104 0.430529
O O9 0.874586 0.204085 0.596194
O O10 0.039945 0.312721 0.551010
O O11 0.292806 0.109301 0.394586
O O12 0.088682 0.138618 0.370456
O O13 0.152338 0.976399 0.398002
O O14 0.500000 0.285707 0.750000
O O15 0.250000 0.250000 0.500000
#
# Coordination Sequence:
#
# PCOD9265255 Si02
#       7
#     8   8   8   8   8   8   8
#     4  10  20  36  60  86 116 153 196 252 289 344
#     4   9  18  35  58  86 120 154 196 239 295 344
#     4  11  22  36  60  92 116 151 206 248 295 349
#     4  10  19  36  59  85 121 155 190 239 305 350
#     4  10  20  36  58  83 115 154 197 245 299 349
#     4   9  18  34  60  90 114 151 199 249 285 348
#     4  11  22  36  57  88 122 159 192 242 302 358
#
# _framework density 21.143640000000001
#
# number of rings (size 3 to 8) (size 9 to 14) (size 15 to 20)
#    0.000    2.000    2.857    1.286    0.000    3.429 
#    0.000    0.714    3.143    0.000    0.000    0.000 
#    0.000    0.000    0.000    0.000    0.000    0.000 
#
# Total GULP energy -156245.551383 kJ/mol
# GULP energy per Si atom -5580.198264 kJ/mol
# Density = 2.109552 g / cm^3
# Si number density = 21.143640 Si / 1000 Ang^3
#
#
#
# Elastic Constant Matrix: (Units=GPa)
#
#
# Indices 1 2 3 4 5 6 
#
# 1 56.9936 28.2920 15.0677 0.0000 2.0019 0.0000
# 2 28.2920 73.2338 12.7015 0.0000 5.9287 0.0000
# 3 15.0677 12.7015 67.2838 0.0000 5.3011 0.0000
# 4 0.0000 0.0000 0.0000 20.2205 0.0000 0.3172
# 5 2.0019 5.9287 5.3011 0.0000 18.8667 0.0000
# 6 0.0000 0.0000 0.0000 0.3172 0.0000 32.7571
#
#
#
# Elastic Compliance Matrix: (Units=1/GPa)
#
#
# Indices 1 2 3 4 5 6 
#
# 1 0.022509 -0.008169 -0.003592 0.000000 0.001188 0.000000
# 2 -0.008169 0.017349 -0.001109 0.000000 -0.004273 0.000000
# 3 -0.003592 -0.001109 0.016177 0.000000 -0.003816 0.000000
# 4 0.000000 0.000000 0.000000 0.049462 0.000000 -0.000479
# 5 0.001188 -0.004273 -0.003816 0.000000 0.055292 0.000000
# 6 0.000000 0.000000 0.000000 -0.000479 0.000000 0.030532
#
#
# Mechanical properties :
#
#
# Convention : Reuss Voigt Hill
#
# Bulk Modulus (GPa) = 33.00924 34.40374 33.70649
# Shear Modulus (GPa) = 22.01091 23.79886 22.90488
#
# Velocity S-wave (km/s) = 3.22998 3.35861 3.29492
# Velocity P-wave (km/s) = 5.43656 5.59885 5.51830
#
# Compressibility (1/GPa) = 0.03029455
#
# Stress axis : x y z
#
# Youngs Moduli (GPa) = 44.42690 57.64012 61.81679
#
# Poissons Ratio (x) = 0.47086 0.22206
# Poissons Ratio (y) = 0.36292 0.06856
# Poissons Ratio (z) = 0.15959 0.06392
#
# Static dielectric constant tensor:
#      x y z
#    x 1.757570 0.000000 -0.014240 
#    y 0.000000 1.562380 0.000000 
#    z -0.014240 0.000000 1.727650 
# 
# From -- ./inp_files/144266.got.cif
#   From: 2010.05.17/outbox.cif.g08.bks.cpg/sg15_73_cif.got.tgz:144266.got - 2010.06.03 18:47:42.
