data_PCOD9265590
_publ_section_title
;
Structure prediction by ZEFSAII (Michael W. Deem and Ramdas Pophale) SiO2 
 PCOD9265590
Probable space group: C 2/C
;
_chemical_formula_sum "Si O2"
_cell_formula_units_Z 44
_cell_length_a 9.397268
_cell_length_b 22.855853
_cell_length_c 11.891336
_cell_angle_alpha 90.000000
_cell_angle_beta 59.199866
_cell_angle_gamma 90.000000
_cell_volume 2193.824994
_symmetry_space_group_name_H-M "C 2/C"
_symmetry_group_IT_number 15
_symmetry_cell_setting 'monoclinic'
loop_
_space_group_symop_operation_xyz
x,y,z
-x,y,1/2-z
-x,-y,-z
x,-y,1/2+z
1/2+x,1/2+y,z
1/2-x,1/2+y,1/2-z
1/2-x,1/2-y,-z
1/2+x,1/2-y,1/2+z
loop_
_atom_site_type_symbol
_atom_site_label
_atom_site_fract_x
_atom_site_fract_y
_atom_site_fract_z
Si Si1 0.000000 0.784366 0.250000
Si Si2 0.893704 0.814707 0.891002
Si Si3 0.313339 0.420544 0.082734
Si Si4 0.961304 0.278796 0.532302
Si Si5 0.305108 0.875193 0.146548
Si Si6 0.883747 0.974147 0.401480
O O1 0.982195 0.745106 0.369536
O O2 0.156821 0.827014 0.205998
O O3 0.737147 0.783929 0.895695
O O4 0.000000 0.843072 0.750000
O O5 0.833782 0.862560 0.002352
O O6 0.000477 0.767886 0.918229
O O7 0.186371 0.404015 0.233293
O O8 0.486065 0.438383 0.074033
O O9 0.292142 0.474928 0.007088
O O10 0.039577 0.340378 0.464796
O O11 0.247128 0.927919 0.091447
O O12 0.000000 0.995782 0.250000
#
# Coordination Sequence:
#
# PCOD9265590 Si02
#       6
#     4   8   8   8   8   8
#     4  12  20  42  58  92 124 166 206 254 310 384
#     4  11  23  40  58  90 121 165 211 255 315 389
#     4  10  19  36  62  90 123 164 208 257 305 376
#     4  11  25  37  62  89 127 163 206 259 323 371
#     4  11  20  38  61  94 125 160 211 260 313 371
#     4   9  18  35  61  91 120 164 218 255 303 369
#
# _framework density 20.056294000000001
#
# number of rings (size 3 to 8) (size 9 to 14) (size 15 to 20)
#    0.000    1.455    4.545    2.182    2.545    1.455 
#    0.000    0.909    0.000    4.364    0.000    0.000 
#    0.000    0.000    0.000    0.000    0.000    0.000 
#
# Total GULP energy -122802.149062 kJ/mol
# GULP energy per Si atom -5581.915866 kJ/mol
# Density = 2.001065 g / cm^3
# Si number density = 20.056294 Si / 1000 Ang^3
#
#
#
# Elastic Constant Matrix: (Units=GPa)
#
#
# Indices 1 2 3 4 5 6 
#
# 1 47.2794 30.4098 42.0890 0.0000 18.4267 0.0000
# 2 30.4098 112.3767 56.3951 0.0000 25.6903 0.0000
# 3 42.0890 56.3951 96.0011 0.0000 27.4204 0.0000
# 4 0.0000 0.0000 0.0000 28.8182 0.0000 46.7629
# 5 18.4267 25.6903 27.4204 0.0000 20.7469 0.0000
# 6 0.0000 0.0000 0.0000 46.7629 0.0000 -38.5448
#
#
#
# Elastic Compliance Matrix: (Units=1/GPa)
#
#
# Indices 1 2 3 4 5 6 
#
# 1 0.039004 -0.000504 -0.011386 0.000000 -0.018970 0.000000
# 2 -0.000504 0.013869 -0.005058 0.000000 -0.010040 0.000000
# 3 -0.011386 -0.005058 0.022012 0.000000 -0.012716 0.000000
# 4 0.000000 0.000000 0.000000 0.011689 0.000000 0.014181
# 5 -0.018970 -0.010040 -0.012716 0.000000 0.094287 0.000000
# 6 0.000000 0.000000 0.000000 0.014181 0.000000 -0.008739
#
#
# Mechanical properties :
#
#
# Convention : Reuss Voigt Hill
#
# Bulk Modulus (GPa) = 24.39729 57.04942 40.72336
# Shear Modulus (GPa) = 22.76022 10.65496 16.70759
#
# Velocity S-wave (km/s) = 3.37236 2.30739 2.88937
# Velocity P-wave (km/s) = 5.23016 5.96700 5.61069
#
# Compressibility (1/GPa) = 0.04098815
#
# Stress axis : x y z
#
# Youngs Moduli (GPa) = 25.63809 72.10416 45.42993
#
# Poissons Ratio (x) = 0.03636 0.51726
# Poissons Ratio (y) = 0.01293 0.22980
# Poissons Ratio (z) = 0.29191 0.36473
#
# Static dielectric constant tensor:
#      x y z
#    x 1.743720 0.000000 0.035810 
#    y 0.000000 1.680280 0.000000 
#    z 0.035810 0.000000 1.750200 
# 
# From -- ./inp_files/78312.got.cif
#   From: 2010.05.17/outbox.cif.g08.bks.cpg/sg15_40_cif.got.tgz:78312.got - 2010.06.03 18:47:42.
