data_PCOD9265477
_publ_section_title
;
Structure prediction by ZEFSAII (Michael W. Deem and Ramdas Pophale) SiO2 
 PCOD9265477
Probable space group: C 2/C
;
_chemical_formula_sum "Si O2"
_cell_formula_units_Z 44
_cell_length_a 11.073972
_cell_length_b 22.866268
_cell_length_c 11.905999
_cell_angle_alpha 90.000000
_cell_angle_beta 43.959486
_cell_angle_gamma 90.000000
_cell_volume 2092.751194
_symmetry_space_group_name_H-M "C 2/C"
_symmetry_group_IT_number 15
_symmetry_cell_setting 'monoclinic'
loop_
_space_group_symop_operation_xyz
x,y,z
-x,y,1/2-z
-x,-y,-z
x,-y,1/2+z
1/2+x,1/2+y,z
1/2-x,1/2+y,1/2-z
1/2-x,1/2-y,-z
1/2+x,1/2-y,1/2+z
loop_
_atom_site_type_symbol
_atom_site_label
_atom_site_fract_x
_atom_site_fract_y
_atom_site_fract_z
Si Si1 0.824800 0.115830 0.061488
Si Si2 0.109415 0.791222 0.366481
Si Si3 0.000000 0.702318 0.250000
Si Si4 0.491023 0.204388 0.889763
Si Si5 0.855404 0.412343 0.591984
Si Si6 0.363594 0.975634 0.943326
O O1 0.669418 0.161194 0.133402
O O2 0.785093 0.098245 0.216449
O O3 0.794940 0.060326 0.002731
O O4 0.004969 0.148880 0.928605
O O5 0.309611 0.798071 0.202414
O O6 0.022198 0.744057 0.341903
O O7 0.090994 0.762664 0.502039
O O8 0.500000 0.204704 0.750000
O O9 0.392317 0.147840 0.003323
O O10 0.810583 0.464402 0.537367
O O11 0.029270 0.435286 0.540392
O O12 0.500000 0.986902 0.750000
#
# Coordination Sequence:
#
# PCOD9265477 Si02
#       6
#     8   8   4   8   8   8
#     4  11  20  38  63  97 129 162 217 271 320 380
#     4  12  25  38  64  98 131 172 210 269 330 384
#     4  12  20  38  64  96 136 158 210 270 328 380
#     4  12  24  41  61  91 135 170 216 255 330 403
#     4  10  19  36  61  88 120 170 214 257 314 381
#     4   9  18  34  62  89 119 162 220 265 311 369
#
# _framework density 21.024954999999999
#
# number of rings (size 3 to 8) (size 9 to 14) (size 15 to 20)
#    0.000    1.091    6.364    1.636    2.545    0.000 
#    0.000    0.000    0.000   26.182    0.000    0.000 
#    0.000    0.000    0.000    0.000    0.000    0.000 
#
# Total GULP energy -123106.237145 kJ/mol
# GULP energy per Si atom -5595.738052 kJ/mol
# Density = 2.097710 g / cm^3
# Si number density = 21.024955 Si / 1000 Ang^3
#
#
#
# Elastic Constant Matrix: (Units=GPa)
#
#
# Indices 1 2 3 4 5 6 
#
# 1 47.0591 36.9910 30.0248 0.0000 22.0498 0.0000
# 2 36.9910 102.0621 32.8005 0.0000 8.6797 0.0000
# 3 30.0248 32.8005 44.3382 0.0000 4.3490 0.0000
# 4 0.0000 0.0000 0.0000 36.1034 0.0000 16.2231
# 5 22.0498 8.6797 4.3490 0.0000 40.0243 0.0000
# 6 0.0000 0.0000 0.0000 16.2231 0.0000 26.1720
#
#
#
# Elastic Compliance Matrix: (Units=1/GPa)
#
#
# Indices 1 2 3 4 5 6 
#
# 1 0.064122 -0.010107 -0.033047 0.000000 -0.029543 0.000000
# 2 -0.010107 0.014573 -0.004217 0.000000 0.002866 0.000000
# 3 -0.033047 -0.004217 0.046675 0.000000 0.014049 0.000000
# 4 0.000000 0.000000 0.000000 0.038392 0.000000 -0.023798
# 5 -0.029543 0.002866 0.014049 0.000000 0.039112 0.000000
# 6 0.000000 0.000000 0.000000 -0.023798 0.000000 0.052960
#
#
# Mechanical properties :
#
#
# Convention : Reuss Voigt Hill
#
# Bulk Modulus (GPa) = 32.65203 43.67688 38.16445
# Shear Modulus (GPa) = 13.85867 26.70282 20.28074
#
# Velocity S-wave (km/s) = 2.57018 3.56765 3.10918
# Velocity P-wave (km/s) = 4.93676 6.14734 5.57501
#
# Compressibility (1/GPa) = 0.03062597
#
# Stress axis : x y z
#
# Youngs Moduli (GPa) = 15.59531 68.62105 21.42494
#
# Poissons Ratio (x) = 0.69356 0.70803
# Poissons Ratio (y) = 0.15762 0.09036
# Poissons Ratio (z) = 0.51538 0.28941
#
# Static dielectric constant tensor:
#      x y z
#    x 1.773200 0.000000 0.033650 
#    y 0.000000 1.731080 0.000000 
#    z 0.033650 0.000000 1.724580 
# 
# From -- ./inp_files/30705.got.cif
#   From: 2010.05.17/outbox.cif.g08.bks.cpg/sg15_16_cif.got.tgz:30705.got - 2010.06.03 18:47:42.
