data_PCOD9265032
_publ_section_title
;
Structure prediction by ZEFSAII (Michael W. Deem and Ramdas Pophale) SiO2 
 PCOD9265032
Probable space group: C 2/C
;
_chemical_formula_sum "Si O2"
_cell_formula_units_Z 40
_cell_length_a 21.260906
_cell_length_b 5.600761
_cell_length_c 22.299100
_cell_angle_alpha 90.000000
_cell_angle_beta 146.659030
_cell_angle_gamma 90.000000
_cell_volume 1459.415426
_symmetry_space_group_name_H-M "C 2/C"
_symmetry_group_IT_number 15
_symmetry_cell_setting 'monoclinic'
loop_
_space_group_symop_operation_xyz
x,y,z
-x,y,1/2-z
-x,-y,-z
x,-y,1/2+z
1/2+x,1/2+y,z
1/2-x,1/2+y,1/2-z
1/2-x,1/2-y,-z
1/2+x,1/2-y,1/2+z
loop_
_atom_site_type_symbol
_atom_site_label
_atom_site_fract_x
_atom_site_fract_y
_atom_site_fract_z
Si Si1 0.346327 0.598704 0.200733
Si Si2 0.911036 0.627640 0.380364
Si Si3 0.150248 0.879879 0.652843
Si Si4 0.632881 0.125995 0.478132
Si Si5 0.651060 0.901526 0.850690
O O1 0.361245 0.606777 0.283943
O O2 0.396028 0.352370 0.212325
O O3 0.388446 0.850159 0.208826
O O4 0.214003 0.570720 0.074458
O O5 0.904934 0.371856 0.408766
O O6 0.785395 0.625700 0.247118
O O7 0.010796 0.637180 0.411490
O O8 0.898962 0.870686 0.408541
O O9 0.630962 0.085075 0.405702
O O10 0.711427 0.363027 0.549543
#
# Coordination Sequence:
#
# PCOD9265032 Si02
#       5
#     8   8   8   8   8
#     4  10  19  36  57  80 111 139 177 231 260 313
#     4  10  22  38  57  77 109 151 175 221 272 328
#     4  10  22  39  54  79 114 140 182 223 272 311
#     4   9  21  35  61  78 110 142 186 211 277 316
#     4   9  20  34  58  81 110 137 177 227 267 315
#
# _framework density 27.408234
#
# number of rings (size 3 to 8) (size 9 to 14) (size 15 to 20)
#    1.200    1.200    0.000    1.800    2.800    0.800 
#    0.000    7.000    0.000    0.000    0.000    0.000 
#    0.000    0.000    0.000    0.000    0.000    0.000 
#
# Total GULP energy -112030.555507 kJ/mol
# GULP energy per Si atom -5601.527775 kJ/mol
# Density = 2.734585 g / cm^3
# Si number density = 27.408234 Si / 1000 Ang^3
#
#
#
# Elastic Constant Matrix: (Units=GPa)
#
#
# Indices 1 2 3 4 5 6 
#
# 1 143.4026 61.7955 60.6007 0.0003 -0.3860 0.0002
# 2 61.7955 258.6146 56.1435 0.0008 -1.2391 0.0008
# 3 60.6007 56.1435 74.5934 -0.0002 10.3914 -0.0001
# 4 0.0003 0.0008 -0.0002 60.1896 -0.0001 -4.1240
# 5 -0.3860 -1.2391 10.3914 -0.0001 80.9940 0.0001
# 6 0.0002 0.0008 -0.0001 -4.1240 0.0001 29.9620
#
#
#
# Elastic Compliance Matrix: (Units=1/GPa)
#
#
# Indices 1 2 3 4 5 6 
#
# 1 0.010855 -0.000765 -0.008399 0.000000 0.001118 0.000000
# 2 -0.000765 0.004698 -0.002977 0.000000 0.000450 0.000000
# 3 -0.008399 -0.002977 0.022891 0.000000 -0.003022 0.000000
# 4 0.000000 0.000000 0.000000 0.016772 0.000000 0.002309
# 5 0.001118 0.000450 -0.003022 0.000000 0.012747 0.000000
# 6 0.000000 0.000000 0.000000 0.002309 0.000000 0.033693
#
#
# Mechanical properties :
#
#
# Convention : Reuss Voigt Hill
#
# Bulk Modulus (GPa) = 70.60983 92.63222 81.62103
# Shear Modulus (GPa) = 38.26729 54.10049 46.18389
#
# Velocity S-wave (km/s) = 3.74063 4.44765 4.10937
# Velocity P-wave (km/s) = 6.66893 7.76184 7.23604
#
# Compressibility (1/GPa) = 0.01416233
#
# Stress axis : x y z
#
# Youngs Moduli (GPa) = 92.12017 212.85343 43.68508
#
# Poissons Ratio (x) = 0.16287 0.36690
# Poissons Ratio (y) = 0.07049 0.13006
# Poissons Ratio (z) = 0.77370 0.63369
#
# Static dielectric constant tensor:
#      x y z
#    x 2.041340 0.000000 0.012940 
#    y 0.000000 2.148250 0.000000 
#    z 0.012940 0.000000 2.239450 
# 
# From -- ./inp_files/170756.got.cif
#   From: 2010.05.17/outbox.cif.g08.bks.cpg/sg15_86_cif.got.tgz:170756.got - 2010.06.03 18:47:42.
