data_PCOD9265298
_publ_section_title
;
Structure prediction by ZEFSAII (Michael W. Deem and Ramdas Pophale) SiO2 
 PCOD9265298
Probable space group: C 2/C
;
_chemical_formula_sum "Si O2"
_cell_formula_units_Z 40
_cell_length_a 19.280683
_cell_length_b 13.904204
_cell_length_c 14.591761
_cell_angle_alpha 90.000000
_cell_angle_beta 30.155702
_cell_angle_gamma 90.000000
_cell_volume 1965.097172
_symmetry_space_group_name_H-M "C 2/C"
_symmetry_group_IT_number 15
_symmetry_cell_setting 'monoclinic'
loop_
_space_group_symop_operation_xyz
x,y,z
-x,y,1/2-z
-x,-y,-z
x,-y,1/2+z
1/2+x,1/2+y,z
1/2-x,1/2+y,1/2-z
1/2-x,1/2-y,-z
1/2+x,1/2-y,1/2+z
loop_
_atom_site_type_symbol
_atom_site_label
_atom_site_fract_x
_atom_site_fract_y
_atom_site_fract_z
Si Si1 0.907100 0.424916 0.768784
Si Si2 0.646458 0.339478 0.133952
Si Si3 0.365383 0.133978 0.858616
Si Si4 0.450877 0.748896 0.581263
Si Si5 0.238384 0.213334 0.164796
O O1 0.926062 0.539322 0.739691
O O2 0.946981 0.349724 0.643660
O O3 0.000000 0.395747 0.750000
O O4 0.744428 0.420505 0.980427
O O5 0.500000 0.333212 0.250000
O O6 0.616881 0.331455 0.275357
O O7 0.750000 0.250000 0.000000
O O8 0.500000 0.184681 0.750000
O O9 0.287460 0.196718 0.873078
O O10 0.268017 0.125923 0.060197
O O11 0.363269 0.768379 0.590986
O O12 0.601412 0.711274 0.382771
#
# Coordination Sequence:
#
# PCOD9265298 Si02
#       5
#     8   8   8   8   8
#     4  10  21  40  63  88 123 159 197 249 306 359
#     4  10  19  36  59  90 125 159 192 244 312 360
#     4  10  22  43  60  84 122 167 196 241 315 362
#     4  11  20  36  64  92 114 152 209 246 292 360
#     4  11  22  39  62  88 117 159 205 247 295 364
#
# _framework density 20.355226999999999
#
# number of rings (size 3 to 8) (size 9 to 14) (size 15 to 20)
#    0.000    1.600    2.000    6.000    0.000    0.800 
#    7.200    1.000    0.000    0.000    0.000    0.000 
#    0.000    0.000    0.000    0.000    0.000    0.000 
#
# Total GULP energy -111347.682943 kJ/mol
# GULP energy per Si atom -5567.384147 kJ/mol
# Density = 2.030890 g / cm^3
# Si number density = 20.355227 Si / 1000 Ang^3
#
#
#
# Elastic Constant Matrix: (Units=GPa)
#
#
# Indices 1 2 3 4 5 6 
#
# 1 117.6314 19.4045 7.4081 0.0000 -13.0683 0.0000
# 2 19.4045 32.8751 1.2262 0.0000 -3.8944 0.0000
# 3 7.4081 1.2262 104.9161 0.0000 3.3709 0.0000
# 4 0.0000 0.0000 0.0000 18.0609 0.0000 -1.5441
# 5 -13.0683 -3.8944 3.3709 0.0000 45.6390 0.0000
# 6 0.0000 0.0000 0.0000 -1.5441 0.0000 23.6195
#
#
#
# Elastic Compliance Matrix: (Units=1/GPa)
#
#
# Indices 1 2 3 4 5 6 
#
# 1 0.009702 -0.005420 -0.000698 0.000000 0.002367 0.000000
# 2 -0.005420 0.033778 -0.000055 0.000000 0.001334 0.000000
# 3 -0.000698 -0.000055 0.009611 0.000000 -0.000914 0.000000
# 4 0.000000 0.000000 0.000000 0.055680 0.000000 0.003640
# 5 0.002367 0.001334 -0.000914 0.000000 0.022770 0.000000
# 6 0.000000 0.000000 0.000000 0.003640 0.000000 0.042576
#
#
# Mechanical properties :
#
#
# Convention : Reuss Voigt Hill
#
# Bulk Modulus (GPa) = 24.54318 34.61114 29.57716
# Shear Modulus (GPa) = 24.99456 32.62279 28.80867
#
# Velocity S-wave (km/s) = 3.50797 4.00768 3.76612
# Velocity P-wave (km/s) = 5.33773 6.20128 5.78564
#
# Compressibility (1/GPa) = 0.04074452
#
# Stress axis : x y z
#
# Youngs Moduli (GPa) = 103.06969 29.60549 104.05052
#
# Poissons Ratio (x) = 0.16047 0.07260
# Poissons Ratio (y) = 0.55866 0.00572
# Poissons Ratio (z) = 0.07192 0.00163
#
# Static dielectric constant tensor:
#      x y z
#    x 1.698110 0.000000 0.023570 
#    y 0.000000 1.833050 0.000000 
#    z 0.023570 0.000000 1.858100 
# 
# From -- ./inp_files/38064.got.cif
#   From: 2010.05.17/outbox.cif.g08.bks.cpg/sg15_20_cif.got.tgz:38064.got - 2010.06.03 18:47:42.
