data_PCOD9265367
_publ_section_title
;
Structure prediction by ZEFSAII (Michael W. Deem and Ramdas Pophale) SiO2 
 PCOD9265367
Probable space group: C 2/C
;
_chemical_formula_sum "Si O2"
_cell_formula_units_Z 56
_cell_length_a 18.482571
_cell_length_b 13.986988
_cell_length_c 12.673187
_cell_angle_alpha 90.000000
_cell_angle_beta 63.373891
_cell_angle_gamma 90.000000
_cell_volume 2928.772976
_symmetry_space_group_name_H-M "C 2/C"
_symmetry_group_IT_number 15
_symmetry_cell_setting 'monoclinic'
loop_
_space_group_symop_operation_xyz
x,y,z
-x,y,1/2-z
-x,-y,-z
x,-y,1/2+z
1/2+x,1/2+y,z
1/2-x,1/2+y,1/2-z
1/2-x,1/2-y,-z
1/2+x,1/2-y,1/2+z
loop_
_atom_site_type_symbol
_atom_site_label
_atom_site_fract_x
_atom_site_fract_y
_atom_site_fract_z
Si Si1 0.369159 0.619327 0.817717
Si Si2 0.193604 0.433491 0.480517
Si Si3 0.878374 0.741736 0.599461
Si Si4 0.013512 0.907043 0.064225
Si Si5 0.040456 0.599755 0.836422
Si Si6 0.701626 0.179141 0.180815
Si Si7 0.600759 0.084859 0.419972
O O1 0.282471 0.567657 0.869476
O O2 0.420646 0.581921 0.883823
O O3 0.428390 0.612968 0.678910
O O4 0.340481 0.729646 0.847979
O O5 0.138178 0.348359 0.468199
O O6 0.201788 0.407707 0.597682
O O7 0.151490 0.531308 0.477212
O O8 0.948351 0.816795 0.523258
O O9 0.895798 0.686032 0.697138
O O10 0.793362 0.796631 0.650508
O O11 0.000000 0.000000 0.000000
O O12 0.073604 0.498058 0.855354
O O13 0.000000 0.590667 0.750000
O O14 0.975416 0.626843 0.969485
O O15 0.651897 0.157143 0.317888
#
# Coordination Sequence:
#
# PCOD9265367 Si02
#       7
#     8   8   8   8   8   8   8
#     4  10  21  37  58  85 112 158 199 234 297 343
#     4  10  19  36  60  87 117 146 196 256 294 338
#     4  10  20  38  58  82 114 158 193 239 299 345
#     4  11  22  37  56  84 118 152 197 240 279 351
#     4  10  21  41  55  84 120 150 186 242 296 351
#     4  11  19  38  63  87 115 152 198 247 289 357
#     4  10  22  34  63  90 112 148 198 240 300 349
#
# _framework density 19.120635
#
# number of rings (size 3 to 8) (size 9 to 14) (size 15 to 20)
#    0.000    1.714    2.857    2.571    2.000    0.000 
#    5.143    0.714    0.000    0.000    0.000    0.000 
#    0.000    0.000    0.000    0.000    0.000    0.000 
#
# Total GULP energy -156108.209406 kJ/mol
# GULP energy per Si atom -5575.293193 kJ/mol
# Density = 1.907712 g / cm^3
# Si number density = 19.120635 Si / 1000 Ang^3
#
#
#
# Elastic Constant Matrix: (Units=GPa)
#
#
# Indices 1 2 3 4 5 6 
#
# 1 94.6128 39.4198 37.9737 0.0000 -0.4728 0.0000
# 2 39.4198 54.2653 17.4276 0.0000 5.3343 0.0000
# 3 37.9737 17.4276 59.7871 0.0000 -5.9940 0.0000
# 4 0.0000 0.0000 0.0000 22.8397 0.0000 0.1240
# 5 -0.4728 5.3343 -5.9940 0.0000 34.7629 0.0000
# 6 0.0000 0.0000 0.0000 0.1240 0.0000 24.2705
#
#
#
# Elastic Compliance Matrix: (Units=1/GPa)
#
#
# Indices 1 2 3 4 5 6 
#
# 1 0.018472 -0.010707 -0.008570 0.000000 0.000417 0.000000
# 2 -0.010707 0.027163 -0.001577 0.000000 -0.004586 0.000000
# 3 -0.008570 -0.001577 0.023040 0.000000 0.004098 0.000000
# 4 0.000000 0.000000 0.000000 0.043785 0.000000 -0.000224
# 5 0.000417 -0.004586 0.004098 0.000000 0.030182 0.000000
# 6 0.000000 0.000000 0.000000 -0.000224 0.000000 0.041203
#
#
# Mechanical properties :
#
#
# Convention : Reuss Voigt Hill
#
# Bulk Modulus (GPa) = 37.08224 44.25639 40.66932
# Shear Modulus (GPa) = 21.31811 23.96423 22.64117
#
# Velocity S-wave (km/s) = 3.34267 3.54406 3.44484
# Velocity P-wave (km/s) = 5.85951 6.32007 6.09414
#
# Compressibility (1/GPa) = 0.02696709
#
# Stress axis : x y z
#
# Youngs Moduli (GPa) = 54.13547 36.81420 43.40370
#
# Poissons Ratio (x) = 0.39419 0.37195
# Poissons Ratio (y) = 0.57965 0.06844
# Poissons Ratio (z) = 0.46392 0.05805
#
# Static dielectric constant tensor:
#      x y z
#    x 1.690180 0.000000 -0.003830 
#    y 0.000000 1.659820 0.000000 
#    z -0.003830 0.000000 1.670050 
# 
# From -- ./inp_files/105293.got.cif
#   From: 2010.05.17/outbox.cif.g08.bks.cpg/sg15_53_cif.got.tgz:105293.got - 2010.06.03 18:47:42.
