data_PCOD9265719
_publ_section_title
;
Structure prediction by ZEFSAII (Michael W. Deem and Ramdas Pophale) SiO2 
 PCOD9265719
Probable space group: C 2/C
;
_chemical_formula_sum "Si O2"
_cell_formula_units_Z 52
_cell_length_a 17.257651
_cell_length_b 8.512384
_cell_length_c 14.580451
_cell_angle_alpha 90.000000
_cell_angle_beta 116.326273
_cell_angle_gamma 90.000000
_cell_volume 1919.769492
_symmetry_space_group_name_H-M "C 2/C"
_symmetry_group_IT_number 15
_symmetry_cell_setting 'monoclinic'
loop_
_space_group_symop_operation_xyz
x,y,z
-x,y,1/2-z
-x,-y,-z
x,-y,1/2+z
1/2+x,1/2+y,z
1/2-x,1/2+y,1/2-z
1/2-x,1/2-y,-z
1/2+x,1/2-y,1/2+z
loop_
_atom_site_type_symbol
_atom_site_label
_atom_site_fract_x
_atom_site_fract_y
_atom_site_fract_z
Si Si1 0.978017 0.671844 0.581738
Si Si2 0.926370 0.848030 0.102620
Si Si3 0.328080 0.961256 0.564557
Si Si4 0.679542 0.575986 0.127050
Si Si5 0.000000 0.104534 0.250000
Si Si6 0.835761 0.567825 0.861471
Si Si7 0.114449 0.239695 0.651043
O O1 0.913327 0.569330 0.611148
O O2 0.022955 0.792711 0.674665
O O3 0.916801 0.745407 0.471879
O O4 0.059257 0.585628 0.578347
O O5 0.859148 0.716404 0.095745
O O6 0.022829 0.775157 0.154682
O O7 0.901675 0.897452 0.986152
O O8 0.926021 0.995102 0.169233
O O9 0.252605 0.989827 0.595692
O O10 0.299210 0.968922 0.443258
O O11 0.692312 0.752924 0.172817
O O12 0.660775 0.429390 0.183799
O O13 0.834540 0.403826 0.804113
#
# Coordination Sequence:
#
# PCOD9265719 Si02
#       7
#     8   8   8   8   4   8   8
#     4  11  20  40  61  94 123 160 212 257 311 366
#     4  11  20  40  61  95 121 164 208 254 315 369
#     4  10  21  38  64  97 123 154 204 272 315 350
#     4  11  21  35  65 103 124 147 205 275 308 358
#     4  12  26  34  62  94 128 166 208 258 306 382
#     4  10  19  36  64  92 120 157 208 256 307 357
#     4  11  19  38  68  93 118 161 219 258 301 364
#
# _framework density 27.086583999999998
#
# number of rings (size 3 to 8) (size 9 to 14) (size 15 to 20)
#    0.000    1.231    6.154    4.154    0.000    3.077 
#    2.769    0.000    0.000   11.077    0.000    0.000 
#    0.000    0.000    0.000    0.000    0.000    0.000 
#
# Total GULP energy -145459.141067 kJ/mol
# GULP energy per Si atom -5594.582349 kJ/mol
# Density = 2.702493 g / cm^3
# Si number density = 27.086584 Si / 1000 Ang^3
#
#
#
# Elastic Constant Matrix: (Units=GPa)
#
#
# Indices 1 2 3 4 5 6 
#
# 1 146.5765 38.4994 -1.4311 0.0000 -14.4361 0.0000
# 2 38.4994 157.1720 36.3557 0.0000 8.4429 0.0000
# 3 -1.4311 36.3557 87.9892 0.0000 -4.0013 0.0000
# 4 0.0000 0.0000 0.0000 53.6628 0.0000 6.3591
# 5 -14.4361 8.4429 -4.0013 0.0000 22.8719 0.0000
# 6 0.0000 0.0000 0.0000 6.3591 0.0000 32.0188
#
#
#
# Elastic Compliance Matrix: (Units=1/GPa)
#
#
# Indices 1 2 3 4 5 6 
#
# 1 0.008182 -0.002707 0.001544 0.000000 0.006434 0.000000
# 2 -0.002707 0.008160 -0.003659 0.000000 -0.005361 0.000000
# 3 0.001544 -0.003659 0.013112 0.000000 0.004619 0.000000
# 4 0.000000 0.000000 0.000000 0.019084 0.000000 -0.003790
# 5 0.006434 -0.005361 0.004619 0.000000 0.050569 0.000000
# 6 0.000000 0.000000 0.000000 -0.003790 0.000000 0.031984
#
#
# Mechanical properties :
#
#
# Convention : Reuss Voigt Hill
#
# Bulk Modulus (GPa) = 50.48007 59.84287 55.16147
# Shear Modulus (GPa) = 33.93514 42.93163 38.43339
#
# Velocity S-wave (km/s) = 3.54339 3.98550 3.77093
# Velocity P-wave (km/s) = 5.95129 6.58180 6.27447
#
# Compressibility (1/GPa) = 0.01980980
#
# Stress axis : x y z
#
# Youngs Moduli (GPa) = 122.21788 122.54953 76.26485
#
# Poissons Ratio (x) = 0.33174 -0.11776
# Poissons Ratio (y) = 0.33084 0.27908
# Poissons Ratio (z) = -0.18872 0.44846
#
# Static dielectric constant tensor:
#      x y z
#    x 2.066480 0.000000 0.034690 
#    y 0.000000 2.157000 0.000000 
#    z 0.034690 0.000000 2.146040 
# 
# From -- ./inp_files/209234.got.cif
#   From: 2010.05.17/outbox.cif.g08.bks.cpg/sg15_105_cif.got.tgz:209234.got - 2010.06.03 18:47:42.
