data_PCOD9265851
_publ_section_title
;
Structure prediction by ZEFSAII (Michael W. Deem and Ramdas Pophale) SiO2 
 PCOD9265851
Probable space group: C 2/C
;
_chemical_formula_sum "Si O2"
_cell_formula_units_Z 60
_cell_length_a 18.052143
_cell_length_b 18.605249
_cell_length_c 8.037622
_cell_angle_alpha 90.000000
_cell_angle_beta 75.558980
_cell_angle_gamma 90.000000
_cell_volume 2614.260093
_symmetry_space_group_name_H-M "C 2/C"
_symmetry_group_IT_number 15
_symmetry_cell_setting 'monoclinic'
loop_
_space_group_symop_operation_xyz
x,y,z
-x,y,1/2-z
-x,-y,-z
x,-y,1/2+z
1/2+x,1/2+y,z
1/2-x,1/2+y,1/2-z
1/2-x,1/2-y,-z
1/2+x,1/2-y,1/2+z
loop_
_atom_site_type_symbol
_atom_site_label
_atom_site_fract_x
_atom_site_fract_y
_atom_site_fract_z
Si Si1 0.238470 0.116602 0.624832
Si Si2 0.945544 0.339044 0.631990
Si Si3 0.718604 0.147803 0.371473
Si Si4 0.719447 0.482683 0.462887
Si Si5 0.947060 0.945969 0.928014
Si Si6 0.576320 0.670348 0.797623
Si Si7 0.000000 0.692155 0.750000
Si Si8 0.666164 0.770049 0.240188
O O1 0.157278 0.158788 0.661361
O O2 0.304122 0.173558 0.636835
O O3 0.250187 0.063350 0.463776
O O4 0.230356 0.059543 0.783375
O O5 0.857795 0.361234 0.691813
O O6 0.939862 0.252554 0.652418
O O7 0.000000 0.365494 0.750000
O O8 0.975868 0.353035 0.427561
O O9 0.744635 0.072074 0.426299
O O10 0.692127 0.194256 0.550136
O O11 0.787899 0.195913 0.261355
O O12 0.630334 0.488639 0.564940
O O13 0.000000 0.921907 0.750000
O O14 0.918513 0.876005 0.039493
O O15 0.000000 0.000000 0.000000
O O16 0.500000 0.642021 0.750000
O O17 0.925328 0.735565 0.726846
#
# Coordination Sequence:
#
# PCOD9265851 Si02
#       8
#     8   8   8   8   8   8   4   8
#     4  10  19  37  55  81 111 156 188 244 295 356
#     4  10  21  39  62  88 121 155 197 251 306 352
#     4   9  18  37  60  85 112 157 197 247 296 363
#     4  10  21  33  57  79 111 155 197 232 300 355
#     4  11  21  32  48  77 117 153 194 239 279 353
#     4  10  20  33  55  78 113 158 190 233 299 349
#     4  10  22  36  62  90 114 152 204 250 292 370
#     4   9  18  35  62  82 114 150 198 244 301 349
#
# _framework density 22.951046000000002
#
# number of rings (size 3 to 8) (size 9 to 14) (size 15 to 20)
#    0.000    2.133    1.333    2.800    6.533    0.000 
#    2.400    2.000    1.467    2.400    0.000    0.000 
#    0.000    0.000    0.000    0.000    0.000    0.000 
#
# Total GULP energy -167651.629244 kJ/mol
# GULP energy per Si atom -5588.387641 kJ/mol
# Density = 2.289881 g / cm^3
# Si number density = 22.951046 Si / 1000 Ang^3
#
#
#
# Elastic Constant Matrix: (Units=GPa)
#
#
# Indices 1 2 3 4 5 6 
#
# 1 195.3177 36.9566 29.5262 0.0000 8.6871 0.0000
# 2 36.9566 52.2418 10.6197 0.0000 -6.7069 0.0000
# 3 29.5262 10.6197 77.7274 0.0000 -4.0092 0.0000
# 4 0.0000 0.0000 0.0000 22.3282 0.0000 2.5203
# 5 8.6871 -6.7069 -4.0092 0.0000 30.8846 0.0000
# 6 0.0000 0.0000 0.0000 2.5203 0.0000 28.7373
#
#
#
# Elastic Compliance Matrix: (Units=1/GPa)
#
#
# Indices 1 2 3 4 5 6 
#
# 1 0.006409 -0.004523 -0.001974 0.000000 -0.003041 0.000000
# 2 -0.004523 0.023372 -0.001155 0.000000 0.006198 0.000000
# 3 -0.001974 -0.001155 0.013882 0.000000 0.002106 0.000000
# 4 0.000000 0.000000 0.000000 0.045234 0.000000 -0.003967
# 5 -0.003041 0.006198 0.002106 0.000000 0.034853 0.000000
# 6 0.000000 0.000000 0.000000 -0.003967 0.000000 0.035146
#
#
# Mechanical properties :
#
#
# Convention : Reuss Voigt Hill
#
# Bulk Modulus (GPa) = 35.26252 53.27689 44.26970
# Shear Modulus (GPa) = 27.22511 32.93564 30.08037
#
# Velocity S-wave (km/s) = 3.44790 3.79230 3.62419
# Velocity P-wave (km/s) = 5.59001 6.51453 6.06990
#
# Compressibility (1/GPa) = 0.02835873
#
# Stress axis : x y z
#
# Youngs Moduli (GPa) = 156.02219 42.78595 72.03751
#
# Poissons Ratio (x) = 0.19353 0.14217
# Poissons Ratio (y) = 0.70574 0.08323
# Poissons Ratio (z) = 0.30792 0.04943
#
# Static dielectric constant tensor:
#      x y z
#    x 1.869170 0.000000 0.065630 
#    y 0.000000 1.582990 0.000000 
#    z 0.065630 0.000000 2.003310 
# 
# From -- ./inp_files/42198.got.cif
#   From: 2010.05.17/outbox.cif.g08.bks.cpg/sg15_22_cif.got.tgz:42198.got - 2010.06.03 18:47:42.
