data_PCOD9265740
_publ_section_title
;
Structure prediction by ZEFSAII (Michael W. Deem and Ramdas Pophale) SiO2 
 PCOD9265740
Probable space group: C 2/C
;
_chemical_formula_sum "Si O2"
_cell_formula_units_Z 40
_cell_length_a 13.992272
_cell_length_b 10.811202
_cell_length_c 15.393819
_cell_angle_alpha 90.000000
_cell_angle_beta 137.756165
_cell_angle_gamma 90.000000
_cell_volume 1565.537270
_symmetry_space_group_name_H-M "C 2/C"
_symmetry_group_IT_number 15
_symmetry_cell_setting 'monoclinic'
loop_
_space_group_symop_operation_xyz
x,y,z
-x,y,1/2-z
-x,-y,-z
x,-y,1/2+z
1/2+x,1/2+y,z
1/2-x,1/2+y,1/2-z
1/2-x,1/2-y,-z
1/2+x,1/2-y,1/2+z
loop_
_atom_site_type_symbol
_atom_site_label
_atom_site_fract_x
_atom_site_fract_y
_atom_site_fract_z
Si Si1 0.152215 0.886380 0.795345
Si Si2 0.000000 0.876266 0.250000
Si Si3 0.276142 0.527891 0.339351
Si Si4 0.500000 0.985789 0.250000
Si Si5 0.417935 0.214931 0.555191
Si Si6 0.529495 0.685126 0.581142
O O1 0.235537 0.905614 0.760898
O O2 0.001868 0.827933 0.660105
O O3 0.126274 0.021662 0.820092
O O4 0.250024 0.798110 0.919722
O O5 0.990427 0.794442 0.330319
O O6 0.141173 0.546397 0.308367
O O7 0.406752 0.585152 0.479596
O O8 0.324954 0.388394 0.346579
O O9 0.545438 0.901190 0.361811
O O10 0.488675 0.214085 0.506329
#
# Coordination Sequence:
#
# PCOD9265740 Si02
#       6
#     8   4   8   4   8   8
#     4  10  22  39  61  90 123 161 200 249 302 362
#     4  10  19  36  65  86 116 166 208 238 299 372
#     4   9  20  37  58  86 125 162 199 244 304 370
#     4  12  23  36  63  94 122 156 202 260 307 348
#     4  11  23  37  61  93 124 151 200 258 303 345
#     4   9  19  38  59  87 123 163 202 244 301 373
#
# _framework density 25.550333999999999
#
# number of rings (size 3 to 8) (size 9 to 14) (size 15 to 20)
#    0.000    2.000    0.000    4.200    0.000    6.400 
#    0.000    3.000    0.000   14.400    0.000    0.000 
#    0.000    0.000    0.000    0.000    0.000    0.000 
#
# Total GULP energy -111662.041633 kJ/mol
# GULP energy per Si atom -5583.102082 kJ/mol
# Density = 2.549218 g / cm^3
# Si number density = 25.550334 Si / 1000 Ang^3
#
#
#
# Elastic Constant Matrix: (Units=GPa)
#
#
# Indices 1 2 3 4 5 6 
#
# 1 206.8114 36.4620 68.3307 0.0000 -17.2881 0.0000
# 2 36.4620 45.3162 41.0742 0.0000 -10.1177 0.0000
# 3 68.3307 41.0742 132.5504 0.0000 -21.1602 0.0000
# 4 0.0000 0.0000 0.0000 6.5279 0.0000 -20.3097
# 5 -17.2881 -10.1177 -21.1602 0.0000 63.9123 0.0000
# 6 0.0000 0.0000 0.0000 -20.3097 0.0000 21.3252
#
#
#
# Elastic Compliance Matrix: (Units=1/GPa)
#
#
# Indices 1 2 3 4 5 6 
#
# 1 0.006096 -0.002808 -0.002196 0.000000 0.000477 0.000000
# 2 -0.002808 0.032177 -0.008269 0.000000 0.001597 0.000000
# 3 -0.002196 -0.008269 0.011545 0.000000 0.001919 0.000000
# 4 0.000000 0.000000 0.000000 -0.078036 0.000000 -0.074320
# 5 0.000477 0.001597 0.001919 0.000000 0.016664 0.000000
# 6 0.000000 0.000000 0.000000 -0.074320 0.000000 -0.023888
#
#
# Mechanical properties :
#
#
# Convention : Reuss Voigt Hill
#
# Bulk Modulus (GPa) = 42.96778 75.15687 59.06233
# Shear Modulus (GPa) = -4391.53957 34.27382 -2178.63287
#
# Velocity S-wave (km/s) = -41.50315 3.66652 -29.23241
# Velocity P-wave (km/s) = 47.74754 6.88502 33.40976
#
# Compressibility (1/GPa) = 0.02327325
#
# Stress axis : x y z
#
# Youngs Moduli (GPa) = 164.04569 31.07770 86.61619
#
# Poissons Ratio (x) = 0.08725 0.19023
# Poissons Ratio (y) = 0.46057 0.71621
# Poissons Ratio (z) = 0.36029 0.25697
#
# Static dielectric constant tensor:
#      x y z
#    x 2.136550 0.000000 0.015930 
#    y 0.000000 2.068000 0.000000 
#    z 0.015930 0.000000 2.016660 
# 
# From -- ./inp_files/143321.got.cif
#   From: 2010.05.17/outbox.cif.g08.bks.cpg/sg15_72_cif.got.tgz:143321.got - 2010.06.03 18:47:42.
