data_PCOD9265774
_publ_section_title
;
Structure prediction by ZEFSAII (Michael W. Deem and Ramdas Pophale) SiO2 
 PCOD9265774
Probable space group: C 2/C
;
_chemical_formula_sum "Si O2"
_cell_formula_units_Z 44
_cell_length_a 23.363546
_cell_length_b 15.232357
_cell_length_c 14.075277
_cell_angle_alpha 90.000000
_cell_angle_beta 159.202474
_cell_angle_gamma 90.000000
_cell_volume 1778.576854
_symmetry_space_group_name_H-M "C 2/C"
_symmetry_group_IT_number 15
_symmetry_cell_setting 'monoclinic'
loop_
_space_group_symop_operation_xyz
x,y,z
-x,y,1/2-z
-x,-y,-z
x,-y,1/2+z
1/2+x,1/2+y,z
1/2-x,1/2+y,1/2-z
1/2-x,1/2-y,-z
1/2+x,1/2-y,1/2+z
loop_
_atom_site_type_symbol
_atom_site_label
_atom_site_fract_x
_atom_site_fract_y
_atom_site_fract_z
Si Si1 0.257748 0.065315 0.521012
Si Si2 0.000000 0.915953 0.250000
Si Si3 0.443877 0.810448 0.027120
Si Si4 0.000000 0.399056 0.750000
Si Si5 0.228594 0.965786 0.767147
Si Si6 0.686401 0.867043 0.862506
Si Si7 0.500000 0.655137 0.250000
O O1 0.171487 0.041603 0.287509
O O2 0.145309 0.104712 0.426254
O O3 0.335823 0.973859 0.678097
O O4 0.388511 0.138804 0.698292
O O5 0.093894 0.971729 0.477015
O O6 0.128873 0.861604 0.386797
O O7 0.312106 0.874521 0.867934
O O8 0.413710 0.811736 0.868371
O O9 0.437684 0.718429 0.069046
O O10 0.870738 0.461066 0.492967
O O11 0.885246 0.347621 0.645113
#
# Coordination Sequence:
#
# PCOD9265774 Si02
#       7
#     8   4   8   4   8   8   4
#     4  11  21  38  63  97 130 174 234 284 332 414
#     4  10  23  34  60  94 141 168 216 288 355 384
#     4  11  20  38  64  94 130 179 218 283 342 409
#     4  10  19  36  66  92 132 181 230 284 339 416
#     4  10  19  38  61  91 131 179 220 275 353 399
#     4  10  22  40  64  98 137 177 227 286 347 402
#     4  12  24  38  66 108 137 173 228 298 342 402
#
# _framework density 24.738880999999999
#
# number of rings (size 3 to 8) (size 9 to 14) (size 15 to 20)
#    0.000    1.455    5.455    1.636    2.545    2.909 
#    3.273    0.000    0.000    5.455    0.000    0.000 
#    0.000    0.000    0.000    0.000    0.000    0.000 
#
# Total GULP energy -122964.565567 kJ/mol
# GULP energy per Si atom -5589.298435 kJ/mol
# Density = 2.468257 g / cm^3
# Si number density = 24.738881 Si / 1000 Ang^3
#
#
#
# Elastic Constant Matrix: (Units=GPa)
#
#
# Indices 1 2 3 4 5 6 
#
# 1 187.1667 53.4882 57.4815 0.0000 15.2384 0.0000
# 2 53.4882 70.4993 23.4977 0.0000 -0.9277 0.0000
# 3 57.4815 23.4977 118.4151 0.0000 -20.7964 0.0000
# 4 0.0000 0.0000 0.0000 5.0586 0.0000 -10.0496
# 5 15.2384 -0.9277 -20.7964 0.0000 44.5302 0.0000
# 6 0.0000 0.0000 0.0000 -10.0496 0.0000 -13.6440
#
#
#
# Elastic Compliance Matrix: (Units=1/GPa)
#
#
# Indices 1 2 3 4 5 6 
#
# 1 0.008400 -0.005136 -0.003902 0.000000 -0.004804 0.000000
# 2 -0.005136 0.018387 -0.000849 0.000000 0.001744 0.000000
# 3 -0.003902 -0.000849 0.011699 0.000000 0.006781 0.000000
# 4 0.000000 0.000000 0.000000 0.080252 0.000000 -0.059110
# 5 -0.004804 0.001744 0.006781 0.000000 0.027304 0.000000
# 6 0.000000 0.000000 0.000000 -0.059110 0.000000 -0.029754
#
#
# Mechanical properties :
#
#
# Convention : Reuss Voigt Hill
#
# Bulk Modulus (GPa) = 53.44411 71.66844 62.55627
# Shear Modulus (GPa) = 35.13732 23.29654 29.21693
#
# Velocity S-wave (km/s) = 3.77281 3.07204 3.44031
# Velocity P-wave (km/s) = 6.37409 6.45105 6.41269
#
# Compressibility (1/GPa) = 0.01871114
#
# Stress axis : x y z
#
# Youngs Moduli (GPa) = 119.04710 54.38588 85.48095
#
# Poissons Ratio (x) = 0.27931 0.33356
# Poissons Ratio (y) = 0.61140 0.07260
# Poissons Ratio (z) = 0.46454 0.04619
#
# Static dielectric constant tensor:
#      x y z
#    x 1.991270 0.000000 -0.021830 
#    y 0.000000 1.944040 0.000000 
#    z -0.021830 0.000000 2.022140 
# 
# From -- ./inp_files/174309.got.cif
#   From: 2010.05.17/outbox.cif.g08.bks.cpg/sg15_88_cif.got.tgz:174309.got - 2010.06.03 18:47:42.
