data_PCOD9265859
_publ_section_title
;
Structure prediction by ZEFSAII (Michael W. Deem and Ramdas Pophale) SiO2 
 PCOD9265859
Probable space group: C 2/C
;
_chemical_formula_sum "Si O2"
_cell_formula_units_Z 64
_cell_length_a 20.374330
_cell_length_b 13.280964
_cell_length_c 29.246426
_cell_angle_alpha 90.000000
_cell_angle_beta 157.044871
_cell_angle_gamma 90.000000
_cell_volume 3086.466813
_symmetry_space_group_name_H-M "C 2/C"
_symmetry_group_IT_number 15
_symmetry_cell_setting 'monoclinic'
loop_
_space_group_symop_operation_xyz
x,y,z
-x,y,1/2-z
-x,-y,-z
x,-y,1/2+z
1/2+x,1/2+y,z
1/2-x,1/2+y,1/2-z
1/2-x,1/2-y,-z
1/2+x,1/2-y,1/2+z
loop_
_atom_site_type_symbol
_atom_site_label
_atom_site_fract_x
_atom_site_fract_y
_atom_site_fract_z
Si Si1 0.283834 0.590605 0.810259
Si Si2 0.359674 0.644902 0.253090
Si Si3 0.529773 0.711182 0.899975
Si Si4 0.268146 0.354719 0.800933
Si Si5 0.101499 0.764183 0.038327
Si Si6 0.614361 0.443728 0.864112
Si Si7 0.344161 0.667564 0.619595
Si Si8 0.431588 0.187494 0.579454
O O1 0.419321 0.635827 0.860778
O O2 0.289142 0.472465 0.824071
O O3 0.316704 0.648075 0.879071
O O4 0.097181 0.621635 0.673017
O O5 0.306229 0.650096 0.271122
O O6 0.191610 0.665157 0.116393
O O7 0.469584 0.549182 0.309986
O O8 0.494406 0.737536 0.334697
O O9 0.411209 0.803907 0.808406
O O10 0.607521 0.668623 0.903127
O O11 0.684173 0.762586 0.025684
O O12 0.403287 0.286041 0.914132
O O13 0.128559 0.756862 0.001512
O O14 0.500000 0.394597 0.750000
O O15 0.679982 0.549058 0.886254
O O16 0.775254 0.385445 0.986936
O O17 0.500000 0.702560 0.750000
#
# Coordination Sequence:
#
# PCOD9265859 Si02
#       8
#     8   8   8   8   8   8   8   8
#     4  11  22  38  63  90 118 158 199 245 297 356
#     4  10  20  36  57  86 122 154 194 239 299 341
#     4  11  22  42  62  83 122 152 198 247 298 348
#     4  11  22  38  63  90 118 158 199 245 297 356
#     4  10  19  37  55  89 120 152 196 241 296 353
#     4  11  20  36  60  86 119 154 199 237 290 359
#     4  10  25  40  59  86 113 157 196 241 296 347
#     4  10  20  36  57  86 122 154 194 239 299 341
#
# _framework density 20.735683999999999
#
# number of rings (size 3 to 8) (size 9 to 14) (size 15 to 20)
#    0.000    1.500    5.000    2.250    1.750    0.000 
#    0.000    0.625    0.000    0.000    0.000    0.000 
#    0.000    0.000    0.000    0.000    0.000    0.000 
#
# Total GULP energy -178202.267842 kJ/mol
# GULP energy per Si atom -5568.820870 kJ/mol
# Density = 2.068849 g / cm^3
# Si number density = 20.735684 Si / 1000 Ang^3
#
#
#
# Elastic Constant Matrix: (Units=GPa)
#
#
# Indices 1 2 3 4 5 6 
#
# 1 32.8095 -2.2453 14.7012 0.0003 1.5903 -0.0002
# 2 -2.2453 48.2429 26.3680 0.0037 11.1100 0.0000
# 3 14.7012 26.3680 135.3979 0.0141 4.5340 0.0008
# 4 0.0003 0.0037 0.0141 -0.2824 0.0007 -5.8991
# 5 1.5903 11.1100 4.5340 0.0007 30.3251 -0.0002
# 6 -0.0002 0.0000 0.0008 -5.8991 -0.0002 18.8609
#
#
#
# Elastic Compliance Matrix: (Units=1/GPa)
#
#
# Indices 1 2 3 4 5 6 
#
# 1 0.032878 0.004545 -0.004363 -0.000018 -0.002737 -0.000005
# 2 0.004545 0.025854 -0.005230 0.000008 -0.008929 0.000003
# 3 -0.004363 -0.005230 0.008850 0.000050 0.000821 0.000015
# 4 -0.000018 0.000008 0.000050 -0.470034 0.000001 -0.147012
# 5 -0.002737 -0.008929 0.000821 0.000001 0.036268 0.000001
# 6 -0.000005 0.000003 0.000015 -0.147012 0.000001 0.007039
#
#
# Mechanical properties :
#
#
# Convention : Reuss Voigt Hill
#
# Bulk Modulus (GPa) = 17.39509 32.67759 25.03634
# Shear Modulus (GPa) = -15.15670 21.62248 3.23289
#
# Velocity S-wave (km/s) = -2.70654 3.23269 1.24999
# Velocity P-wave (km/s) = 1.16617 5.45225 3.76611
#
# Compressibility (1/GPa) = 0.05748749
#
# Stress axis : x y z
#
# Youngs Moduli (GPa) = 30.41568 38.67804 112.99035
#
# Poissons Ratio (x) = -0.17581 0.49301
# Poissons Ratio (y) = -0.13825 0.59089
# Poissons Ratio (z) = 0.13271 0.20227
#
# Static dielectric constant tensor:
#      x y z
#    x 1.795790 0.000000 0.008800 
#    y 0.000000 1.821170 0.000000 
#    z 0.008800 0.000000 1.760580 
# 
# From -- ./inp_files/318027.got.cif
#   From: 2010.05.17/outbox.cif.g08.bks.cpg/sg15_160_cif.got.tgz:318027.got - 2010.06.03 18:47:42.
