data_PCOD9265362
_publ_section_title
;
Structure prediction by ZEFSAII (Michael W. Deem and Ramdas Pophale) SiO2 
 PCOD9265362
Probable space group: C 2/C
;
_chemical_formula_sum "Si O2"
_cell_formula_units_Z 64
_cell_length_a 19.340091
_cell_length_b 18.345011
_cell_length_c 26.295618
_cell_angle_alpha 90.000000
_cell_angle_beta 160.350584
_cell_angle_gamma 90.000000
_cell_volume 3137.185311
_symmetry_space_group_name_H-M "C 2/C"
_symmetry_group_IT_number 15
_symmetry_cell_setting 'monoclinic'
loop_
_space_group_symop_operation_xyz
x,y,z
-x,y,1/2-z
-x,-y,-z
x,-y,1/2+z
1/2+x,1/2+y,z
1/2-x,1/2+y,1/2-z
1/2-x,1/2-y,-z
1/2+x,1/2-y,1/2+z
loop_
_atom_site_type_symbol
_atom_site_label
_atom_site_fract_x
_atom_site_fract_y
_atom_site_fract_z
Si Si1 0.859014 0.801881 0.910378
Si Si2 0.193613 0.819096 0.226558
Si Si3 0.631181 0.017039 0.639982
Si Si4 0.854940 0.429799 0.692218
Si Si5 0.464286 0.201794 0.622922
Si Si6 0.929692 0.972508 0.567051
Si Si7 0.290113 0.319243 0.432595
Si Si8 0.357670 0.035665 0.548164
O O1 0.735630 0.730817 0.805304
O O2 0.710085 0.871572 0.811069
O O3 0.978261 0.802588 0.047798
O O4 0.030438 0.813700 0.985677
O O5 0.259582 0.902851 0.284075
O O6 0.357529 0.798239 0.296703
O O7 0.464876 0.011382 0.570036
O O8 0.500000 0.000000 0.500000
O O9 0.829345 0.963965 0.776605
O O10 0.655427 0.462569 0.526806
O O11 0.000000 0.394220 0.750000
O O12 0.983459 0.498141 0.802474
O O13 0.329164 0.267984 0.508219
O O14 0.588907 0.203049 0.761815
O O15 0.359850 0.122921 0.546835
O O16 0.805226 0.901322 0.462988
O O17 0.862267 0.985823 0.579198
#
# Coordination Sequence:
#
# PCOD9265362 Si02
#       8
#     8   8   8   8   8   8   8   8
#     4  10  19  36  60  86 124 158 209 262 310 370
#     4   9  20  36  60  87 118 160 203 255 310 372
#     4  11  24  41  64  90 125 163 205 251 318 376
#     4  10  20  36  62  89 117 157 209 263 311 366
#     4   9  19  35  54  87 125 160 205 254 305 370
#     4  11  22  38  64  91 120 162 211 256 311 367
#     4  10  20  33  59  89 121 168 208 254 313 372
#     4  10  22  39  61  91 124 158 208 261 302 374
#
# _framework density 20.400452000000001
#
# number of rings (size 3 to 8) (size 9 to 14) (size 15 to 20)
#    0.000    2.000    2.500    0.750    0.000    8.000 
#    0.000    0.625    2.750    0.000    0.000    0.000 
#    0.000    0.000    0.000    0.000    0.000    0.000 
#
# Total GULP energy -178265.961303 kJ/mol
# GULP energy per Si atom -5570.811291 kJ/mol
# Density = 2.035402 g / cm^3
# Si number density = 20.400452 Si / 1000 Ang^3
#
#
#
# Elastic Constant Matrix: (Units=GPa)
#
#
# Indices 1 2 3 4 5 6 
#
# 1 112.5487 34.4573 32.4420 0.0804 -11.7340 0.0392
# 2 34.4573 79.4061 35.2762 -0.0610 -11.8874 0.0626
# 3 32.4420 35.2762 71.8642 0.0182 -15.8828 0.0747
# 4 0.0804 -0.0610 0.0182 24.7121 0.0474 -6.3846
# 5 -11.7340 -11.8874 -15.8828 0.0474 27.3053 0.0320
# 6 0.0392 0.0626 0.0747 -6.3846 0.0320 34.8949
#
#
#
# Elastic Compliance Matrix: (Units=1/GPa)
#
#
# Indices 1 2 3 4 5 6 
#
# 1 0.010882 -0.003146 -0.003026 -0.000047 0.001546 -0.000010
# 2 -0.003146 0.017200 -0.006503 0.000051 0.002354 -0.000006
# 3 -0.003026 -0.006503 0.020151 -0.000047 0.007590 -0.000044
# 4 -0.000047 0.000051 -0.000047 0.042474 -0.000108 0.007772
# 5 0.001546 0.002354 0.007590 -0.000108 0.042727 -0.000081
# 6 -0.000010 -0.000006 -0.000044 0.007772 -0.000081 0.030080
#
#
# Mechanical properties :
#
#
# Convention : Reuss Voigt Hill
#
# Bulk Modulus (GPa) = 43.70147 52.01889 47.86018
# Shear Modulus (GPa) = 25.44647 28.15871 26.80259
#
# Velocity S-wave (km/s) = 3.53561 3.71927 3.62860
# Velocity P-wave (km/s) = 6.17541 6.63311 6.40835
#
# Compressibility (1/GPa) = 0.02288253
#
# Stress axis : x y z
#
# Youngs Moduli (GPa) = 91.89636 58.14009 49.62600
#
# Poissons Ratio (x) = 0.18292 0.15018
# Poissons Ratio (y) = 0.28912 0.32269
# Poissons Ratio (z) = 0.27810 0.37806
#
# Static dielectric constant tensor:
#      x y z
#    x 1.792570 -0.000010 0.026850 
#    y -0.000010 1.716930 -0.000040 
#    z 0.026850 -0.000040 1.741260 
# 
# From -- ./inp_files/301366.got.cif
#   From: 2010.05.17/outbox.cif.g08.bks.cpg/sg15_151_cif.got.tgz:301366.got - 2010.06.03 18:47:42.
