data_PCOD9265827
_publ_section_title
;
Structure prediction by ZEFSAII (Michael W. Deem and Ramdas Pophale) SiO2 
 PCOD9265827
Probable space group: C 2/C
;
_chemical_formula_sum "Si O2"
_cell_formula_units_Z 60
_cell_length_a 27.432216
_cell_length_b 12.306196
_cell_length_c 9.078777
_cell_angle_alpha 90.000000
_cell_angle_beta 102.120242
_cell_angle_gamma 90.000000
_cell_volume 2996.551420
_symmetry_space_group_name_H-M "C 2/C"
_symmetry_group_IT_number 15
_symmetry_cell_setting 'monoclinic'
loop_
_space_group_symop_operation_xyz
x,y,z
-x,y,1/2-z
-x,-y,-z
x,-y,1/2+z
1/2+x,1/2+y,z
1/2-x,1/2+y,1/2-z
1/2-x,1/2-y,-z
1/2+x,1/2-y,1/2+z
loop_
_atom_site_type_symbol
_atom_site_label
_atom_site_fract_x
_atom_site_fract_y
_atom_site_fract_z
Si Si1 0.000000 0.990477 0.250000
Si Si2 0.790573 0.898821 0.220375
Si Si3 0.382645 0.841363 0.410180
Si Si4 0.856553 0.519272 0.178625
Si Si5 0.277626 0.717421 0.307749
Si Si6 0.711457 0.919856 0.604614
Si Si7 0.562269 0.614616 0.049076
Si Si8 0.665944 0.517636 0.020914
O O1 0.962616 0.068308 0.318155
O O2 0.973437 0.915243 0.110767
O O3 0.769896 0.782851 0.160243
O O4 0.742113 0.972051 0.164272
O O5 0.812386 0.907043 0.398632
O O6 0.832331 0.959562 0.150445
O O7 0.379376 0.902267 0.567076
O O8 0.328055 0.787653 0.342065
O O9 0.421219 0.740979 0.433262
O O10 0.390710 0.933875 0.290791
O O11 0.828937 0.587878 0.289056
O O12 0.816713 0.445104 0.063637
O O13 0.252805 0.673721 0.141133
O O14 0.294052 0.607776 0.399364
O O15 0.612545 0.547681 0.048068
#
# Coordination Sequence:
#
# PCOD9265827 Si02
#       8
#     4   8   8   8   8   8   8   8
#     4  10  22  46  78  90 124 140 186 250 346 406
#     4  11  19  32  47  72 118 162 199 248 270 324
#     4  10  22  37  60  85 128 158 217 249 302 347
#     4  10  19  37  52  78 118 168 202 266 277 353
#     4  10  20  29  49  74 113 168 205 246 275 329
#     4  10  20  31  47  73 109 169 228 237 297 315
#     4  10  22  44  66  99 116 155 188 258 325 387
#     4  10  22  33  51  80 116 148 201 243 281 347
#
# _framework density 20.023016999999999
#
# number of rings (size 3 to 8) (size 9 to 14) (size 15 to 20)
#    0.000    1.867    2.667    2.800    3.733    0.533 
#    7.200    4.000    0.000    2.400    0.000    0.000 
#    0.000    0.000    0.000    0.000    0.000    0.000 
#
# Total GULP energy -167058.657226 kJ/mol
# GULP energy per Si atom -5568.621908 kJ/mol
# Density = 1.997744 g / cm^3
# Si number density = 20.023017 Si / 1000 Ang^3
#
#
#
# Elastic Constant Matrix: (Units=GPa)
#
#
# Indices 1 2 3 4 5 6 
#
# 1 74.0341 35.5694 33.5737 0.0000 -12.5024 0.0000
# 2 35.5694 79.6554 37.1414 0.0000 4.8458 0.0000
# 3 33.5737 37.1414 100.6917 0.0000 -12.5834 0.0000
# 4 0.0000 0.0000 0.0000 20.9492 0.0000 6.5543
# 5 -12.5024 4.8458 -12.5834 0.0000 24.4354 0.0000
# 6 0.0000 0.0000 0.0000 6.5543 0.0000 28.5677
#
#
#
# Elastic Compliance Matrix: (Units=1/GPa)
#
#
# Indices 1 2 3 4 5 6 
#
# 1 0.020668 -0.008875 -0.002219 0.000000 0.011192 0.000000
# 2 -0.008875 0.019935 -0.005831 0.000000 -0.011497 0.000000
# 3 -0.002219 -0.005831 0.013707 0.000000 0.007080 0.000000
# 4 0.000000 0.000000 0.000000 0.051426 0.000000 -0.011799
# 5 0.011192 -0.011497 0.007080 0.000000 0.052576 0.000000
# 6 0.000000 0.000000 0.000000 -0.011799 0.000000 0.037712
#
#
# Mechanical properties :
#
#
# Convention : Reuss Voigt Hill
#
# Bulk Modulus (GPa) = 48.87647 51.88336 50.37991
# Shear Modulus (GPa) = 21.12437 24.66359 22.89398
#
# Velocity S-wave (km/s) = 3.25161 3.51345 3.38506
# Velocity P-wave (km/s) = 6.20970 6.51362 6.36348
#
# Compressibility (1/GPa) = 0.02045974
#
# Stress axis : x y z
#
# Youngs Moduli (GPa) = 48.38500 50.16178 72.95708
#
# Poissons Ratio (x) = 0.44520 0.16188
# Poissons Ratio (y) = 0.42943 0.42541
# Poissons Ratio (z) = 0.10736 0.29249
#
# Static dielectric constant tensor:
#      x y z
#    x 1.696530 0.000000 -0.051430 
#    y 0.000000 1.766960 0.000000 
#    z -0.051430 0.000000 1.831820 
# 
# From -- ./inp_files/69144.got.cif
#   From: 2010.05.17/outbox.cif.g08.bks.cpg/sg15_35_cif.got.tgz:69144.got - 2010.06.03 18:47:42.
