data_PCOD9265233
_publ_section_title
;
Structure prediction by ZEFSAII (Michael W. Deem and Ramdas Pophale) SiO2 
 PCOD9265233
Probable space group: C 2/C
;
_chemical_formula_sum "Si O2"
_cell_formula_units_Z 60
_cell_length_a 9.023206
_cell_length_b 10.809773
_cell_length_c 31.782479
_cell_angle_alpha 90.000000
_cell_angle_beta 80.937179
_cell_angle_gamma 90.000000
_cell_volume 3061.325126
_symmetry_space_group_name_H-M "C 2/C"
_symmetry_group_IT_number 15
_symmetry_cell_setting 'monoclinic'
loop_
_space_group_symop_operation_xyz
x,y,z
-x,y,1/2-z
-x,-y,-z
x,-y,1/2+z
1/2+x,1/2+y,z
1/2-x,1/2+y,1/2-z
1/2-x,1/2-y,-z
1/2+x,1/2-y,1/2+z
loop_
_atom_site_type_symbol
_atom_site_label
_atom_site_fract_x
_atom_site_fract_y
_atom_site_fract_z
Si Si1 0.751474 0.269965 0.223061
Si Si2 0.939513 0.213343 0.691331
Si Si3 0.000000 0.548773 0.750000
Si Si4 0.212011 0.978685 0.418538
Si Si5 0.760447 0.032888 0.180074
Si Si6 0.548708 0.223762 0.404648
Si Si7 0.286763 0.268364 0.547542
Si Si8 0.471942 0.974529 0.050480
O O1 0.668039 0.222949 0.269326
O O2 0.608204 0.307604 0.200803
O O3 0.875676 0.368969 0.230961
O O4 0.827955 0.159982 0.194006
O O5 0.931790 0.277801 0.646475
O O6 0.863778 0.079542 0.689834
O O7 0.098200 0.478541 0.710186
O O8 0.121949 0.850178 0.419117
O O9 0.247057 0.023048 0.369521
O O10 0.140242 0.097493 0.445657
O O11 0.367718 0.954776 0.435061
O O12 0.372579 0.230803 0.422188
O O13 0.600561 0.096893 0.424908
O O14 0.250000 0.250000 0.500000
O O15 0.379107 0.150785 0.558729
O O16 0.500000 0.000000 0.000000
#
# Coordination Sequence:
#
# PCOD9265233 Si02
#       8
#     8   8   4   8   8   8   8   8
#     4  10  19  36  59  83 118 157 190 236 291 338
#     4   9  20  38  57  84 119 154 195 240 291 349
#     4  10  22  34  58  90 114 154 200 234 280 356
#     4  10  23  40  61  88 123 157 195 253 297 358
#     4  10  21  38  57  85 119 153 197 240 292 344
#     4  10  22  41  62  87 120 157 200 246 301 357
#     4  11  22  41  59  87 119 149 197 247 300 356
#     4  11  22  41  60  87 117 151 196 251 298 355
#
# _framework density 19.599357000000001
#
# number of rings (size 3 to 8) (size 9 to 14) (size 15 to 20)
#    0.000    1.867    2.667    2.400    0.000    6.400 
#    0.000   10.667    0.000    0.000    0.000    0.000 
#    0.000    0.000    0.000    0.000    0.000    0.000 
#
# Total GULP energy -167356.343039 kJ/mol
# GULP energy per Si atom -5578.544768 kJ/mol
# Density = 1.955475 g / cm^3
# Si number density = 19.599357 Si / 1000 Ang^3
#
#
#
# Elastic Constant Matrix: (Units=GPa)
#
#
# Indices 1 2 3 4 5 6 
#
# 1 42.8388 47.2256 22.9105 0.0000 11.1653 0.0000
# 2 47.2256 120.5170 35.4279 0.0000 18.5384 0.0000
# 3 22.9105 35.4279 92.3469 0.0000 21.1978 0.0000
# 4 0.0000 0.0000 0.0000 38.2854 0.0000 3.9153
# 5 11.1653 18.5384 21.1978 0.0000 23.1866 0.0000
# 6 0.0000 0.0000 0.0000 3.9153 0.0000 37.3238
#
#
#
# Elastic Compliance Matrix: (Units=1/GPa)
#
#
# Indices 1 2 3 4 5 6 
#
# 1 0.043351 -0.015056 -0.003734 0.000000 -0.005424 0.000000
# 2 -0.015056 0.015128 -0.001210 0.000000 -0.003739 0.000000
# 3 -0.003734 -0.001210 0.014661 0.000000 -0.010638 0.000000
# 4 0.000000 0.000000 0.000000 0.026403 0.000000 -0.002770
# 5 -0.005424 -0.003739 -0.010638 0.000000 0.058455 0.000000
# 6 0.000000 0.000000 0.000000 -0.002770 0.000000 0.027083
#
#
# Mechanical properties :
#
#
# Convention : Reuss Voigt Hill
#
# Bulk Modulus (GPa) = 30.17412 51.87010 41.02211
# Shear Modulus (GPa) = 21.17487 29.76841 25.47164
#
# Velocity S-wave (km/s) = 3.29049 3.90147 3.60893
# Velocity P-wave (km/s) = 5.46492 6.84236 6.19206
#
# Compressibility (1/GPa) = 0.03314098
#
# Stress axis : x y z
#
# Youngs Moduli (GPa) = 23.06733 66.10182 68.20656
#
# Poissons Ratio (x) = 0.99520 0.25469
# Poissons Ratio (y) = 0.34729 0.08255
# Poissons Ratio (z) = 0.08614 0.08001
#
# Static dielectric constant tensor:
#      x y z
#    x 1.668490 0.000000 0.018360 
#    y 0.000000 1.741570 0.000000 
#    z 0.018360 0.000000 1.768600 
# 
# From -- ./inp_files/307155.got.cif
#   From: 2010.05.17/outbox.cif.g08.bks.cpg/sg15_154_cif.got.tgz:307155.got - 2010.06.03 18:47:42.
