data_PCOD9265237
_publ_section_title
;
Structure prediction by ZEFSAII (Michael W. Deem and Ramdas Pophale) SiO2 
 PCOD9265237
Probable space group: C 2/C
;
_chemical_formula_sum "Si O2"
_cell_formula_units_Z 60
_cell_length_a 26.314448
_cell_length_b 9.072538
_cell_length_c 11.367252
_cell_angle_alpha 90.000000
_cell_angle_beta 76.070869
_cell_angle_gamma 90.000000
_cell_volume 2634.002891
_symmetry_space_group_name_H-M "C 2/C"
_symmetry_group_IT_number 15
_symmetry_cell_setting 'monoclinic'
loop_
_space_group_symop_operation_xyz
x,y,z
-x,y,1/2-z
-x,-y,-z
x,-y,1/2+z
1/2+x,1/2+y,z
1/2-x,1/2+y,1/2-z
1/2-x,1/2-y,-z
1/2+x,1/2-y,1/2+z
loop_
_atom_site_type_symbol
_atom_site_label
_atom_site_fract_x
_atom_site_fract_y
_atom_site_fract_z
Si Si1 0.257996 0.150407 0.280525
Si Si2 0.456976 0.617499 0.877759
Si Si3 0.526904 0.708053 0.036109
Si Si4 0.653914 0.741531 0.619794
Si Si5 0.722547 0.146023 0.611110
Si Si6 0.085124 0.399298 0.841729
Si Si7 0.000000 0.572564 0.750000
Si Si8 0.332361 0.987440 0.047748
O O1 0.294366 0.273180 0.327606
O O2 0.217236 0.247307 0.227066
O O3 0.246980 0.008825 0.372311
O O4 0.292925 0.063036 0.162461
O O5 0.500000 0.649286 0.750000
O O6 0.466701 0.450666 0.911385
O O7 0.395297 0.635039 0.880140
O O8 0.474694 0.710617 0.983259
O O9 0.528520 0.823284 0.140613
O O10 0.572116 0.750215 0.919111
O O11 0.622986 0.860966 0.714892
O O12 0.675437 0.820731 0.491148
O O13 0.750000 0.250000 0.500000
O O14 0.672696 0.087846 0.566620
O O15 0.035644 0.472122 0.811145
O O16 0.112228 0.504289 0.920299
#
# Coordination Sequence:
#
# PCOD9265237 Si02
#       8
#     8   8   8   8   8   8   4   8
#     4   9  19  36  66  91 124 158 200 249 310 369
#     4  11  21  40  59  79 124 168 202 255 311 371
#     4  11  23  36  56  82 116 162 203 255 314 359
#     4  10  19  36  59  84 115 158 204 249 305 357
#     4   9  18  38  62  92 124 161 196 248 310 371
#     4  11  20  34  56  82 114 153 202 256 297 359
#     4  12  22  34  56  90 116 150 220 256 310 364
#     4   9  19  36  60  87 120 157 198 252 302 359
#
# _framework density 22.779018000000001
#
# number of rings (size 3 to 8) (size 9 to 14) (size 15 to 20)
#    0.000    1.867    2.000    2.800    0.000    0.000 
#    2.400    6.000    5.867    0.000    0.000    0.000 
#    0.000    0.000    0.000    0.000    0.000    0.000 
#
# Total GULP energy -167037.819848 kJ/mol
# GULP energy per Si atom -5567.927328 kJ/mol
# Density = 2.272717 g / cm^3
# Si number density = 22.779018 Si / 1000 Ang^3
#
#
#
# Elastic Constant Matrix: (Units=GPa)
#
#
# Indices 1 2 3 4 5 6 
#
# 1 66.1427 24.4206 35.9998 0.0000 23.0599 0.0000
# 2 24.4206 67.6705 41.1282 0.0000 18.0624 0.0000
# 3 35.9998 41.1282 105.4533 0.0000 18.7607 0.0000
# 4 0.0000 0.0000 0.0000 45.0747 0.0000 0.2150
# 5 23.0599 18.0624 18.7607 0.0000 37.2965 0.0000
# 6 0.0000 0.0000 0.0000 0.2150 0.0000 23.0732
#
#
#
# Elastic Compliance Matrix: (Units=1/GPa)
#
#
# Indices 1 2 3 4 5 6 
#
# 1 0.022152 -0.002347 -0.004846 0.000000 -0.010122 0.000000
# 2 -0.002347 0.020983 -0.006406 0.000000 -0.005488 0.000000
# 3 -0.004846 -0.006406 0.013784 0.000000 -0.000835 0.000000
# 4 0.000000 0.000000 0.000000 0.022186 0.000000 -0.000207
# 5 -0.010122 -0.005488 -0.000835 0.000000 0.036148 0.000000
# 6 0.000000 0.000000 0.000000 -0.000207 0.000000 0.043342
#
#
# Mechanical properties :
#
#
# Convention : Reuss Voigt Hill
#
# Bulk Modulus (GPa) = 33.64659 49.15153 41.39906
# Shear Modulus (GPa) = 25.54921 30.27009 27.90965
#
# Velocity S-wave (km/s) = 3.35268 3.64931 3.50413
# Velocity P-wave (km/s) = 5.45804 6.27543 5.88095
#
# Compressibility (1/GPa) = 0.02972069
#
# Stress axis : x y z
#
# Youngs Moduli (GPa) = 45.14291 47.65826 72.54690
#
# Poissons Ratio (x) = 0.11185 0.35157
# Poissons Ratio (y) = 0.10595 0.46473
# Poissons Ratio (z) = 0.21877 0.30529
#
# Static dielectric constant tensor:
#      x y z
#    x 1.944170 0.000000 0.010140 
#    y 0.000000 1.848440 0.000000 
#    z 0.010140 0.000000 1.895560 
# 
# From -- ./inp_files/125568.got.cif
#   From: 2010.05.17/outbox.cif.g08.bks.cpg/sg15_63_cif.got.tgz:125568.got - 2010.06.03 18:47:42.
