data_PCOD9265548
_publ_section_title
;
Structure prediction by ZEFSAII (Michael W. Deem and Ramdas Pophale) SiO2 
 PCOD9265548
Probable space group: C 2/C
;
_chemical_formula_sum "Si O2"
_cell_formula_units_Z 40
_cell_length_a 19.455834
_cell_length_b 15.250464
_cell_length_c 13.537145
_cell_angle_alpha 90.000000
_cell_angle_beta 154.202003
_cell_angle_gamma 90.000000
_cell_volume 1748.028474
_symmetry_space_group_name_H-M "C 2/C"
_symmetry_group_IT_number 15
_symmetry_cell_setting 'monoclinic'
loop_
_space_group_symop_operation_xyz
x,y,z
-x,y,1/2-z
-x,-y,-z
x,-y,1/2+z
1/2+x,1/2+y,z
1/2-x,1/2+y,1/2-z
1/2-x,1/2-y,-z
1/2+x,1/2-y,1/2+z
loop_
_atom_site_type_symbol
_atom_site_label
_atom_site_fract_x
_atom_site_fract_y
_atom_site_fract_z
Si Si1 0.227116 0.662640 0.205556
Si Si2 0.967739 0.830693 0.316348
Si Si3 0.952806 0.460438 0.333124
Si Si4 0.814248 0.814422 0.496807
Si Si5 0.133781 0.648255 0.316894
O O1 0.412171 0.636127 0.445561
O O2 0.204957 0.757011 0.127496
O O3 0.187501 0.659356 0.271143
O O4 0.102232 0.597719 0.992225
O O5 0.994006 0.725581 0.342393
O O6 0.000000 0.871948 0.250000
O O7 0.780208 0.837010 0.080630
O O8 0.800652 0.398127 0.148404
O O9 0.915787 0.549399 0.229391
O O10 0.000000 0.500000 0.500000
O O11 0.750000 0.750000 0.500000
O O12 0.000000 0.834766 0.750000
#
# Coordination Sequence:
#
# PCOD9265548 Si02
#       5
#     8   8   8   8   8
#     4  10  19  36  62  85 124 164 216 257 326 381
#     4   9  18  34  61  91 123 165 205 264 332 396
#     4  10  21  38  63  93 124 171 217 270 320 387
#     4  12  25  43  66  93 132 184 218 269 332 398
#     4   9  19  37  61  92 126 164 212 270 329 387
#
# _framework density 22.882923000000002
#
# number of rings (size 3 to 8) (size 9 to 14) (size 15 to 20)
#    0.000    2.000    2.000    2.400    0.000    4.000 
#    3.600    0.000    4.400    6.000    0.000    0.000 
#    0.000    0.000    0.000    0.000    0.000    0.000 
#
# Total GULP energy -111530.915680 kJ/mol
# GULP energy per Si atom -5576.545784 kJ/mol
# Density = 2.283084 g / cm^3
# Si number density = 22.882923 Si / 1000 Ang^3
#
#
#
# Elastic Constant Matrix: (Units=GPa)
#
#
# Indices 1 2 3 4 5 6 
#
# 1 69.8299 30.6510 27.7423 0.0000 6.0131 0.0000
# 2 30.6510 130.3898 71.5281 0.0000 0.8279 0.0000
# 3 27.7423 71.5281 200.4707 0.0000 12.9975 0.0000
# 4 0.0000 0.0000 0.0000 34.7363 0.0000 -9.8347
# 5 6.0131 0.8279 12.9975 0.0000 18.1214 0.0000
# 6 0.0000 0.0000 0.0000 -9.8347 0.0000 13.7682
#
#
#
# Elastic Compliance Matrix: (Units=1/GPa)
#
#
# Indices 1 2 3 4 5 6 
#
# 1 0.016544 -0.003448 -0.000748 0.000000 -0.004796 0.000000
# 2 -0.003448 0.010331 -0.003411 0.000000 0.003119 0.000000
# 3 -0.000748 -0.003411 0.006589 0.000000 -0.004322 0.000000
# 4 0.000000 0.000000 0.000000 0.036086 0.000000 0.025777
# 5 -0.004796 0.003119 -0.004322 0.000000 0.059732 0.000000
# 6 0.000000 0.000000 0.000000 0.025777 0.000000 0.091044
#
#
# Mechanical properties :
#
#
# Convention : Reuss Voigt Hill
#
# Bulk Modulus (GPa) = 54.79636 73.39259 64.09448
# Shear Modulus (GPa) = 20.69317 31.37644 26.03480
#
# Velocity S-wave (km/s) = 3.01043 3.70695 3.37670
# Velocity P-wave (km/s) = 6.00683 7.10385 6.57825
#
# Compressibility (1/GPa) = 0.01824939
#
# Stress axis : x y z
#
# Youngs Moduli (GPa) = 60.44392 96.79210 151.76404
#
# Poissons Ratio (x) = 0.33376 0.11356
# Poissons Ratio (y) = 0.20842 0.51771
# Poissons Ratio (z) = 0.04523 0.33019
#
# Static dielectric constant tensor:
#      x y z
#    x 2.298660 0.000000 -0.320360 
#    y 0.000000 1.939540 0.000000 
#    z -0.320360 0.000000 2.268660 
# 
# From -- ./inp_files/222728.got.cif
#   From: 2010.05.17/outbox.cif.g08.bks.cpg/sg15_112_cif.got.tgz:222728.got - 2010.06.03 18:47:42.
