data_PCOD9265209
_publ_section_title
;
Structure prediction by ZEFSAII (Michael W. Deem and Ramdas Pophale) SiO2 
 PCOD9265209
Probable space group: C 2/C
;
_chemical_formula_sum "Si O2"
_cell_formula_units_Z 52
_cell_length_a 12.272793
_cell_length_b 14.848995
_cell_length_c 18.972846
_cell_angle_alpha 90.000000
_cell_angle_beta 34.913188
_cell_angle_gamma 90.000000
_cell_volume 1978.896046
_symmetry_space_group_name_H-M "C 2/C"
_symmetry_group_IT_number 15
_symmetry_cell_setting 'monoclinic'
loop_
_space_group_symop_operation_xyz
x,y,z
-x,y,1/2-z
-x,-y,-z
x,-y,1/2+z
1/2+x,1/2+y,z
1/2-x,1/2+y,1/2-z
1/2-x,1/2-y,-z
1/2+x,1/2-y,1/2+z
loop_
_atom_site_type_symbol
_atom_site_label
_atom_site_fract_x
_atom_site_fract_y
_atom_site_fract_z
Si Si1 0.507738 0.647867 0.134742
Si Si2 0.477275 0.326961 0.040349
Si Si3 0.500000 0.295090 0.250000
Si Si4 0.028595 0.949918 0.132017
Si Si5 0.569682 0.170059 0.345654
Si Si6 0.070045 0.480774 0.385171
Si Si7 0.034953 0.334557 0.303918
O O1 0.591489 0.551973 0.111985
O O2 0.279214 0.649329 0.266162
O O3 0.570590 0.738817 0.140032
O O4 0.524940 0.661511 0.041483
O O5 0.568541 0.411839 0.032407
O O6 0.547499 0.232699 0.036976
O O7 0.261024 0.324133 0.182619
O O8 0.596228 0.370788 0.147806
O O9 0.584573 0.226582 0.264590
O O10 0.797753 0.961130 0.262388
O O11 0.503887 0.066819 0.373452
O O12 0.983077 0.390112 0.399404
O O13 0.000000 0.500000 0.500000
O O14 0.000000 0.385941 0.250000
#
# Coordination Sequence:
#
# PCOD9265209 Si02
#       7
#     8   8   4   8   8   8   8
#     4  10  19  36  59  77 109 155 188 220 289 350
#     4   9  18  37  57  78 109 151 185 225 287 342
#     4  10  20  38  56  86 120 138 184 250 286 318
#     4   9  20  36  57  81 113 144 189 236 281 346
#     4   9  20  35  58  81 110 148 186 236 281 341
#     4  10  20  39  59  78 112 158 189 224 292 356
#     4  10  22  35  53  85 116 140 189 244 272 329
#
# _framework density 26.277277999999999
#
# number of rings (size 3 to 8) (size 9 to 14) (size 15 to 20)
#    0.000    2.462    0.000    2.308    2.154    0.615 
#    2.769    6.923    0.000    0.000    0.000    0.000 
#    0.000    0.000    0.000    0.000    0.000    0.000 
#
# Total GULP energy -145132.172074 kJ/mol
# GULP energy per Si atom -5582.006618 kJ/mol
# Density = 2.621747 g / cm^3
# Si number density = 26.277278 Si / 1000 Ang^3
#
#
#
# Elastic Constant Matrix: (Units=GPa)
#
#
# Indices 1 2 3 4 5 6 
#
# 1 62.6377 41.0724 17.8184 -0.0004 10.5446 0.0000
# 2 41.0724 188.1062 38.8862 -0.0010 11.0219 0.0005
# 3 17.8184 38.8862 75.2294 -0.0014 23.3279 0.0006
# 4 -0.0004 -0.0010 -0.0014 24.2823 0.0009 16.8218
# 5 10.5446 11.0219 23.3279 0.0009 55.0688 -0.0003
# 6 0.0000 0.0005 0.0006 16.8218 -0.0003 29.5231
#
#
#
# Elastic Compliance Matrix: (Units=1/GPa)
#
#
# Indices 1 2 3 4 5 6 
#
# 1 0.019303 -0.003674 -0.002020 0.000000 -0.002105 0.000000
# 2 -0.003674 0.006652 -0.002733 0.000000 0.000530 0.000000
# 3 -0.002020 -0.002733 0.017146 0.000002 -0.006330 -0.000002
# 4 0.000000 0.000000 0.000002 0.068039 -0.000002 -0.038768
# 5 -0.002105 0.000530 -0.006330 -0.000002 0.021138 0.000002
# 6 0.000000 0.000000 -0.000002 -0.038768 0.000002 0.055961
#
#
# Mechanical properties :
#
#
# Convention : Reuss Voigt Hill
#
# Bulk Modulus (GPa) = 38.09775 57.94746 48.02261
# Shear Modulus (GPa) = 23.38182 36.98793 30.18487
#
# Velocity S-wave (km/s) = 2.98621 3.75587 3.39293
# Velocity P-wave (km/s) = 5.14001 6.39601 5.80210
#
# Compressibility (1/GPa) = 0.02624827
#
# Stress axis : x y z
#
# Youngs Moduli (GPa) = 51.80594 150.32719 58.32118
#
# Poissons Ratio (x) = 0.55226 0.11782
# Poissons Ratio (y) = 0.19032 0.15937
# Poissons Ratio (z) = 0.10466 0.41078
#
# Static dielectric constant tensor:
#      x y z
#    x 2.103110 0.000000 -0.071880 
#    y 0.000000 2.132760 0.000000 
#    z -0.071880 0.000000 2.051760 
# 
# From -- ./inp_files/97129.got.cif
#   From: 2010.05.17/outbox.cif.g08.bks.cpg/sg15_49_cif.got.tgz:97129.got - 2010.06.03 18:47:42.
