data_PCOD9265642
_publ_section_title
;
Structure prediction by ZEFSAII (Michael W. Deem and Ramdas Pophale) SiO2 
 PCOD9265642
Probable space group: C 2/C
;
_chemical_formula_sum "Si O2"
_cell_formula_units_Z 52
_cell_length_a 12.514068
_cell_length_b 13.757782
_cell_length_c 12.939545
_cell_angle_alpha 90.000000
_cell_angle_beta 112.798795
_cell_angle_gamma 90.000000
_cell_volume 2053.696366
_symmetry_space_group_name_H-M "C 2/C"
_symmetry_group_IT_number 15
_symmetry_cell_setting 'monoclinic'
loop_
_space_group_symop_operation_xyz
x,y,z
-x,y,1/2-z
-x,-y,-z
x,-y,1/2+z
1/2+x,1/2+y,z
1/2-x,1/2+y,1/2-z
1/2-x,1/2-y,-z
1/2+x,1/2-y,1/2+z
loop_
_atom_site_type_symbol
_atom_site_label
_atom_site_fract_x
_atom_site_fract_y
_atom_site_fract_z
Si Si1 0.719807 0.677893 0.374235
Si Si2 0.179982 0.383745 0.385086
Si Si3 0.000000 0.100378 0.750000
Si Si4 0.476595 0.253616 0.429716
Si Si5 0.801390 0.181459 0.365616
Si Si6 0.256298 0.594278 0.683292
Si Si7 0.381703 0.069450 0.061130
O O1 0.730159 0.617051 0.483577
O O2 0.638503 0.773012 0.355923
O O3 0.700836 0.639809 0.251396
O O4 0.848128 0.727861 0.416968
O O5 0.232281 0.414786 0.295007
O O6 0.087950 0.465153 0.381821
O O7 0.979346 0.166424 0.842051
O O8 0.122153 0.048144 0.806167
O O9 0.569371 0.293725 0.547215
O O10 0.523499 0.152614 0.400441
O O11 0.741488 0.288806 0.340450
O O12 0.728642 0.114320 0.416993
O O13 0.155625 0.555692 0.571825
#
# Coordination Sequence:
#
# PCOD9265642 Si02
#       7
#     8   8   4   8   8   8   8
#     4  10  22  43  62  84 128 177 196 242 334 387
#     4  10  23  39  60  86 132 168 196 255 326 374
#     4  12  16  36  66  90 112 164 210 250 300 380
#     4  11  19  36  66  93 115 159 217 257 297 377
#     4  10  19  36  63  89 116 157 208 258 306 369
#     4  10  20  38  60  87 120 163 202 253 315 378
#     4  11  21  35  62  95 118 151 214 270 301 349
#
# _framework density 25.320197
#
# number of rings (size 3 to 8) (size 9 to 14) (size 15 to 20)
#    0.000    1.538    6.154    0.923    2.154    0.615 
#    0.000   15.385   13.538    0.000    0.000    0.000 
#    0.000    0.000    0.000    0.000    0.000    0.000 
#
# Total GULP energy -145382.965143 kJ/mol
# GULP energy per Si atom -5591.652505 kJ/mol
# Density = 2.526257 g / cm^3
# Si number density = 25.320197 Si / 1000 Ang^3
#
#
#
# Elastic Constant Matrix: (Units=GPa)
#
#
# Indices 1 2 3 4 5 6 
#
# 1 70.9876 24.4463 41.9294 0.0000 -6.5726 0.0000
# 2 24.4463 72.1130 14.9208 0.0000 -14.7906 0.0000
# 3 41.9294 14.9208 151.6710 0.0000 -27.6421 0.0000
# 4 0.0000 0.0000 0.0000 19.5123 0.0000 -17.6836
# 5 -6.5726 -14.7906 -27.6421 0.0000 41.3565 0.0000
# 6 0.0000 0.0000 0.0000 -17.6836 0.0000 22.6742
#
#
#
# Elastic Compliance Matrix: (Units=1/GPa)
#
#
# Indices 1 2 3 4 5 6 
#
# 1 0.018886 -0.005861 -0.005101 0.000000 -0.002504 0.000000
# 2 -0.005861 0.016826 0.001016 0.000000 0.005765 0.000000
# 3 -0.005101 0.001016 0.008907 0.000000 0.005506 0.000000
# 4 0.000000 0.000000 0.000000 0.174800 0.000000 0.136326
# 5 -0.002504 0.005765 0.005506 0.000000 0.029524 0.000000
# 6 0.000000 0.000000 0.000000 0.136326 0.000000 0.150424
#
#
# Mechanical properties :
#
#
# Convention : Reuss Voigt Hill
#
# Bulk Modulus (GPa) = 40.44084 50.81831 45.62957
# Shear Modulus (GPa) = 11.69588 30.94026 21.31807
#
# Velocity S-wave (km/s) = 2.15156 3.49945 2.90477
# Velocity P-wave (km/s) = 4.70943 6.03672 5.41391
#
# Compressibility (1/GPa) = 0.02472748
#
# Stress axis : x y z
#
# Youngs Moduli (GPa) = 52.94854 59.43128 112.27279
#
# Poissons Ratio (x) = 0.34830 0.57269
# Poissons Ratio (y) = 0.31031 -0.11402
# Poissons Ratio (z) = 0.27008 -0.06035
#
# Static dielectric constant tensor:
#      x y z
#    x 1.999840 0.000000 0.031530 
#    y 0.000000 2.043540 0.000000 
#    z 0.031530 0.000000 2.019300 
# 
# From -- ./inp_files/154054.got.cif
#   From: 2010.05.17/outbox.cif.g08.bks.cpg/sg15_78_cif.got.tgz:154054.got - 2010.06.03 18:47:42.
