data_PCOD9265069
_publ_section_title
;
Structure prediction by ZEFSAII (Michael W. Deem and Ramdas Pophale) SiO2 
 PCOD9265069
Probable space group: C 2/C
;
_chemical_formula_sum "Si O2"
_cell_formula_units_Z 56
_cell_length_a 9.921104
_cell_length_b 23.871421
_cell_length_c 10.819773
_cell_angle_alpha 90.000000
_cell_angle_beta 96.985916
_cell_angle_gamma 90.000000
_cell_volume 2543.432568
_symmetry_space_group_name_H-M "C 2/C"
_symmetry_group_IT_number 15
_symmetry_cell_setting 'monoclinic'
loop_
_space_group_symop_operation_xyz
x,y,z
-x,y,1/2-z
-x,-y,-z
x,-y,1/2+z
1/2+x,1/2+y,z
1/2-x,1/2+y,1/2-z
1/2-x,1/2-y,-z
1/2+x,1/2-y,1/2+z
loop_
_atom_site_type_symbol
_atom_site_label
_atom_site_fract_x
_atom_site_fract_y
_atom_site_fract_z
Si Si1 0.694516 0.492993 0.478902
Si Si2 0.450736 0.702163 0.030211
Si Si3 0.287502 0.925379 0.816274
Si Si4 0.917939 0.585367 0.060389
Si Si5 0.545644 0.415767 0.109341
Si Si6 0.191446 0.193145 0.261230
Si Si7 0.628165 0.213394 0.428355
O O1 0.686856 0.526910 0.350102
O O2 0.838218 0.461596 0.477657
O O3 0.583142 0.444307 0.474274
O O4 0.665121 0.539865 0.582155
O O5 0.576932 0.692488 0.141533
O O6 0.342887 0.725623 0.118128
O O7 0.427596 0.645670 0.947372
O O8 0.496799 0.751575 0.946037
O O9 0.420561 0.920806 0.917900
O O10 0.352154 0.927307 0.687954
O O11 0.202985 0.869185 0.812519
O O12 0.881218 0.649602 0.024092
O O13 0.500000 0.412076 0.250000
O O14 0.330672 0.207988 0.209368
O O15 0.750000 0.250000 0.500000
#
# Coordination Sequence:
#
# PCOD9265069 Si02
#       7
#     8   8   8   8   8   8   8
#     4  11  21  37  58  81 120 163 197 249 297 353
#     4  10  19  37  61  88 121 157 196 254 303 360
#     4  10  19  36  57  86 115 149 201 245 287 358
#     4  10  21  36  59  85 115 156 204 242 295 357
#     4  11  23  36  55  90 123 155 199 249 309 356
#     4   9  18  35  62  87 115 150 205 244 299 364
#     4   9  18  35  59  84 115 153 201 245 291 356
#
# _framework density 22.017489999999999
#
# number of rings (size 3 to 8) (size 9 to 14) (size 15 to 20)
#    0.000    2.000    1.429    3.857    0.000    1.143 
#    5.143    2.143    0.000   13.714    0.000    0.000 
#    0.000    0.000    0.000    0.000    0.000    0.000 
#
# Total GULP energy -155953.659838 kJ/mol
# GULP energy per Si atom -5569.773566 kJ/mol
# Density = 2.196738 g / cm^3
# Si number density = 22.017490 Si / 1000 Ang^3
#
#
#
# Elastic Constant Matrix: (Units=GPa)
#
#
# Indices 1 2 3 4 5 6 
#
# 1 25.2058 5.8476 5.7520 0.0000 -3.2286 0.0000
# 2 5.8476 119.4177 46.5135 0.0000 -12.5388 0.0000
# 3 5.7520 46.5135 81.5703 0.0000 -19.1711 0.0000
# 4 0.0000 0.0000 0.0000 35.9541 0.0000 -6.4652
# 5 -3.2286 -12.5388 -19.1711 0.0000 36.2459 0.0000
# 6 0.0000 0.0000 0.0000 -6.4652 0.0000 26.5860
#
#
#
# Elastic Compliance Matrix: (Units=1/GPa)
#
#
# Indices 1 2 3 4 5 6 
#
# 1 0.040612 -0.001082 -0.001695 0.000000 0.002346 0.000000
# 2 -0.001082 0.010803 -0.005970 0.000000 0.000483 0.000000
# 3 -0.001695 -0.005970 0.017429 0.000000 0.007002 0.000000
# 4 0.000000 0.000000 0.000000 0.029085 0.000000 0.007073
# 5 0.002346 0.000483 0.007002 0.000000 0.031669 0.000000
# 6 0.000000 0.000000 0.000000 0.007073 0.000000 0.039334
#
#
# Mechanical properties :
#
#
# Convention : Reuss Voigt Hill
#
# Bulk Modulus (GPa) = 19.47472 38.04667 28.76070
# Shear Modulus (GPa) = 24.56478 30.96258 27.76368
#
# Velocity S-wave (km/s) = 3.34382 3.75410 3.55488
# Velocity P-wave (km/s) = 4.87571 6.00905 5.47180
#
# Compressibility (1/GPa) = 0.05134863
#
# Stress axis : x y z
#
# Youngs Moduli (GPa) = 24.62338 92.56544 57.37537
#
# Poissons Ratio (x) = 0.10015 0.09727
# Poissons Ratio (y) = 0.02664 0.34256
# Poissons Ratio (z) = 0.04174 0.55266
#
# Static dielectric constant tensor:
#      x y z
#    x 1.906720 0.000000 -0.050110 
#    y 0.000000 1.803750 0.000000 
#    z -0.050110 0.000000 2.021080 
# 
# From -- ./inp_files/88960.got.cif
#   From: 2010.05.17/outbox.cif.g08.bks.cpg/sg15_45_cif.got.tgz:88960.got - 2010.06.03 18:47:42.
