data_PCOD9265138
_publ_section_title
;
Structure prediction by ZEFSAII (Michael W. Deem and Ramdas Pophale) SiO2 
 PCOD9265138
Probable space group: C 2/C
;
_chemical_formula_sum "Si O2"
_cell_formula_units_Z 52
_cell_length_a 10.915693
_cell_length_b 25.080758
_cell_length_c 12.839712
_cell_angle_alpha 90.000000
_cell_angle_beta 37.916997
_cell_angle_gamma 90.000000
_cell_volume 2160.144234
_symmetry_space_group_name_H-M "C 2/C"
_symmetry_group_IT_number 15
_symmetry_cell_setting 'monoclinic'
loop_
_space_group_symop_operation_xyz
x,y,z
-x,y,1/2-z
-x,-y,-z
x,-y,1/2+z
1/2+x,1/2+y,z
1/2-x,1/2+y,1/2-z
1/2-x,1/2-y,-z
1/2+x,1/2-y,1/2+z
loop_
_atom_site_type_symbol
_atom_site_label
_atom_site_fract_x
_atom_site_fract_y
_atom_site_fract_z
Si Si1 0.692730 0.911373 0.475474
Si Si2 0.000000 0.722450 0.250000
Si Si3 0.383083 0.320599 0.457275
Si Si4 0.818730 0.942906 0.042641
Si Si5 0.220727 0.549703 0.196946
Si Si6 0.000000 0.235247 0.250000
Si Si7 0.308752 0.674424 0.572082
Si Si8 0.000000 0.009823 0.750000
O O1 0.792468 0.852772 0.418054
O O2 0.459112 0.923840 0.616607
O O3 0.717448 0.928194 0.580888
O O4 0.841937 0.947732 0.307409
O O5 0.054101 0.761999 0.121363
O O6 0.815968 0.686486 0.340872
O O7 0.557339 0.337844 0.416397
O O8 0.055031 0.940613 0.914838
O O9 0.849053 0.971937 0.912069
O O10 0.729824 0.884355 0.097449
O O11 0.703091 0.985792 0.191650
O O12 0.156499 0.277344 0.194910
O O13 0.922660 0.197745 0.394608
#
# Coordination Sequence:
#
# PCOD9265138 Si02
#       8
#     8   4   8   8   8   4   8   4
#     4  10  19  36  58  83 120 156 192 247 304 361
#     4  10  23  36  58  92 126 152 207 250 310 374
#     4  11  21  38  62  89 121 165 199 255 313 370
#     4  10  20  37  60  84 118 161 199 252 305 364
#     4   9  19  35  58  86 114 158 203 235 300 384
#     4  10  25  42  64  94 122 160 217 270 302 354
#     4  11  22  42  66  88 123 163 211 260 310 364
#     4  10  22  34  56  86 122 150 202 254 290 364
#
# _framework density 24.072465000000001
#
# number of rings (size 3 to 8) (size 9 to 14) (size 15 to 20)
#    0.000    1.846    1.538    2.769    0.000    3.077 
#    0.000    0.000   10.154    0.000    0.000    0.000 
#    0.000    0.000    0.000    0.000    0.000    0.000 
#
# Total GULP energy -144846.149278 kJ/mol
# GULP energy per Si atom -5571.005741 kJ/mol
# Density = 2.401768 g / cm^3
# Si number density = 24.072465 Si / 1000 Ang^3
#
#
#
# Elastic Constant Matrix: (Units=GPa)
#
#
# Indices 1 2 3 4 5 6 
#
# 1 52.1304 21.9591 11.9937 0.0000 -15.2269 0.0000
# 2 21.9591 157.8398 26.9217 0.0000 1.0694 0.0000
# 3 11.9937 26.9217 68.0086 0.0000 -23.2045 0.0000
# 4 0.0000 0.0000 0.0000 -21.4027 0.0000 -10.3241
# 5 -15.2269 1.0694 -23.2045 0.0000 27.8271 0.0000
# 6 0.0000 0.0000 0.0000 -10.3241 0.0000 16.8339
#
#
#
# Elastic Compliance Matrix: (Units=1/GPa)
#
#
# Indices 1 2 3 4 5 6 
#
# 1 0.024952 -0.004035 0.002667 0.000000 0.016033 0.000000
# 2 -0.004035 0.007700 -0.004459 0.000000 -0.006222 0.000000
# 3 0.002667 -0.004459 0.023139 0.000000 0.020926 0.000000
# 4 0.000000 0.000000 0.000000 -0.036056 0.000000 -0.022113
# 5 0.016033 -0.006222 0.020926 0.000000 0.062398 0.000000
# 6 0.000000 0.000000 0.000000 -0.022113 0.000000 0.045842
#
#
# Mechanical properties :
#
#
# Convention : Reuss Voigt Hill
#
# Bulk Modulus (GPa) = 22.65732 44.41421 33.53577
# Shear Modulus (GPa) = 32.39590 19.12527 25.76059
#
# Velocity S-wave (km/s) = 3.67245 2.82172 3.27483
# Velocity P-wave (km/s) = 5.23594 5.39504 5.31608
#
# Compressibility (1/GPa) = 0.04413584
#
# Stress axis : x y z
#
# Youngs Moduli (GPa) = 40.07746 129.87587 43.21735
#
# Poissons Ratio (x) = 0.52404 -0.11527
# Poissons Ratio (y) = 0.16171 0.19273
# Poissons Ratio (z) = -0.10689 0.57918
#
# Static dielectric constant tensor:
#      x y z
#    x 2.025970 0.000000 -0.014510 
#    y 0.000000 1.961980 0.000000 
#    z -0.014510 0.000000 2.012770 
# 
# From -- ./inp_files/148072.got.cif
#   From: 2010.05.17/outbox.cif.g08.bks.cpg/sg15_75_cif.got.tgz:148072.got - 2010.06.03 18:47:42.
