data_PCOD9265044
_publ_section_title
;
Structure prediction by ZEFSAII (Michael W. Deem and Ramdas Pophale) SiO2 
 PCOD9265044
Probable space group: C 2/C
;
_chemical_formula_sum "Si O2"
_cell_formula_units_Z 40
_cell_length_a 10.381130
_cell_length_b 9.688410
_cell_length_c 17.591811
_cell_angle_alpha 90.000000
_cell_angle_beta 71.441633
_cell_angle_gamma 90.000000
_cell_volume 1677.320260
_symmetry_space_group_name_H-M "C 2/C"
_symmetry_group_IT_number 15
_symmetry_cell_setting 'monoclinic'
loop_
_space_group_symop_operation_xyz
x,y,z
-x,y,1/2-z
-x,-y,-z
x,-y,1/2+z
1/2+x,1/2+y,z
1/2-x,1/2+y,1/2-z
1/2-x,1/2-y,-z
1/2+x,1/2-y,1/2+z
loop_
_atom_site_type_symbol
_atom_site_label
_atom_site_fract_x
_atom_site_fract_y
_atom_site_fract_z
Si Si1 0.648893 0.196827 0.952712
Si Si2 0.694260 0.797253 0.090207
Si Si3 0.813866 0.049736 0.141966
Si Si4 0.963125 0.436443 0.882968
Si Si5 0.763597 0.040541 0.320431
O O1 0.599663 0.331669 0.915355
O O2 0.728998 0.088571 0.882569
O O3 0.750000 0.250000 0.000000
O O4 0.545121 0.123133 0.030296
O O5 0.669865 0.665254 0.146426
O O6 0.808523 0.900582 0.103660
O O7 0.565318 0.898693 0.107959
O O8 0.750000 0.750000 0.000000
O O9 0.660686 0.106057 0.148947
O O10 0.837018 0.022550 0.226168
O O11 0.112034 0.409965 0.825638
#
# Coordination Sequence:
#
# PCOD9265044 Si02
#       5
#     8   8   8   8   8
#     4  10  19  36  57  82 118 153 189 239 295 349
#     4  10  20  35  57  84 114 149 199 233 289 356
#     4   9  21  36  56  89 116 146 193 245 293 344
#     4   9  21  36  59  87 112 149 201 237 277 366
#     4  12  19  36  64  84 113 157 196 240 299 337
#
# _framework density 23.847560999999999
#
# number of rings (size 3 to 8) (size 9 to 14) (size 15 to 20)
#    1.200    0.800    2.000    2.400    0.000    0.000 
#    0.000    1.000    8.800    0.000   10.400    0.000 
#    0.000    0.000    0.000    0.000    0.000    0.000 
#
# Total GULP energy -111500.667006 kJ/mol
# GULP energy per Si atom -5575.033350 kJ/mol
# Density = 2.379328 g / cm^3
# Si number density = 23.847561 Si / 1000 Ang^3
#
#
#
# Elastic Constant Matrix: (Units=GPa)
#
#
# Indices 1 2 3 4 5 6 
#
# 1 37.2631 -7.1590 -8.2608 0.0000 6.4897 0.0000
# 2 -7.1590 135.1616 85.6140 0.0000 8.2365 0.0000
# 3 -8.2608 85.6140 206.2878 0.0000 22.6031 0.0000
# 4 0.0000 0.0000 0.0000 33.3414 0.0000 13.7904
# 5 6.4897 8.2365 22.6031 0.0000 19.8195 0.0000
# 6 0.0000 0.0000 0.0000 13.7904 0.0000 38.2444
#
#
#
# Elastic Compliance Matrix: (Units=1/GPa)
#
#
# Indices 1 2 3 4 5 6 
#
# 1 0.029697 0.000967 0.002168 0.000000 -0.012599 0.000000
# 2 0.000967 0.010076 -0.004171 0.000000 0.000252 0.000000
# 3 0.002168 -0.004171 0.007489 0.000000 -0.007518 0.000000
# 4 0.000000 0.000000 0.000000 0.035250 0.000000 -0.012711
# 5 -0.012599 0.000252 -0.007518 0.000000 0.063049 0.000000
# 6 0.000000 0.000000 0.000000 -0.012711 0.000000 0.030731
#
#
# Mechanical properties :
#
#
# Convention : Reuss Voigt Hill
#
# Bulk Modulus (GPa) = 22.12798 57.67786 39.90292
# Shear Modulus (GPa) = 25.84956 38.84894 32.34925
#
# Velocity S-wave (km/s) = 3.29591 4.04053 3.68707
# Velocity P-wave (km/s) = 4.87679 6.78280 5.90718
#
# Compressibility (1/GPa) = 0.04519166
#
# Stress axis : x y z
#
# Youngs Moduli (GPa) = 33.67357 99.24313 133.52726
#
# Poissons Ratio (x) = -0.09600 -0.28951
# Poissons Ratio (y) = -0.03257 0.55691
# Poissons Ratio (z) = -0.07301 0.41392
#
# Static dielectric constant tensor:
#      x y z
#    x 5.002300 0.000000 3.374340 
#    y 0.000000 1.973490 0.000000 
#    z 3.374340 0.000000 5.668200 
# 
# From -- ./inp_files/202217.got.cif
#   From: 2010.05.17/outbox.cif.g08.bks.cpg/sg15_102_cif.got.tgz:202217.got - 2010.06.03 18:47:42.
