data_PCOD9265448
_publ_section_title
;
Structure prediction by ZEFSAII (Michael W. Deem and Ramdas Pophale) SiO2 
 PCOD9265448
Probable space group: C 2/C
;
_chemical_formula_sum "Si O2"
_cell_formula_units_Z 24
_cell_length_a 18.417241
_cell_length_b 10.791071
_cell_length_c 12.848607
_cell_angle_alpha 90.000000
_cell_angle_beta 159.179672
_cell_angle_gamma 90.000000
_cell_volume 907.631929
_symmetry_space_group_name_H-M "C 2/C"
_symmetry_group_IT_number 15
_symmetry_cell_setting 'monoclinic'
loop_
_space_group_symop_operation_xyz
x,y,z
-x,y,1/2-z
-x,-y,-z
x,-y,1/2+z
1/2+x,1/2+y,z
1/2-x,1/2+y,1/2-z
1/2-x,1/2-y,-z
1/2+x,1/2-y,1/2+z
loop_
_atom_site_type_symbol
_atom_site_label
_atom_site_fract_x
_atom_site_fract_y
_atom_site_fract_z
Si Si1 0.348598 0.440999 0.636220
Si Si2 0.435381 0.661727 0.901728
Si Si3 0.505852 0.102444 0.379045
O O1 0.500000 0.398794 0.750000
O O2 0.432993 0.571641 0.798282
O O3 0.122395 0.475884 0.293466
O O4 0.365865 0.352244 0.759527
O O5 0.405692 0.799569 0.821789
O O6 0.247612 0.609416 0.719065
O O7 0.500000 0.144934 0.250000
#
# Coordination Sequence:
#
# PCOD9265448 Si02
#       3
#     8   8   8
#     4  10  20  35  57  88 118 151 200 243 290 355
#     4  10  20  35  60  88 115 156 198 240 298 352
#     4  10  19  36  61  86 117 155 195 245 296 349
#
# _framework density 26.442437999999999
#
# number of rings (size 3 to 8) (size 9 to 14) (size 15 to 20)
#    0.000    2.000    0.000    7.000    0.000    1.333 
#    0.000    8.333    0.000    2.000    0.000    7.000 
#    0.000    0.000    0.000    0.000    0.000    0.000 
#
# Total GULP energy -67063.550209 kJ/mol
# GULP energy per Si atom -5588.629184 kJ/mol
# Density = 2.638225 g / cm^3
# Si number density = 26.442438 Si / 1000 Ang^3
#
#
#
# Elastic Constant Matrix: (Units=GPa)
#
#
# Indices 1 2 3 4 5 6 
#
# 1 70.1886 22.6479 17.4239 0.0001 -3.6952 0.0002
# 2 22.6479 42.9594 35.9788 0.0001 -6.0086 0.0002
# 3 17.4239 35.9788 101.2266 0.0001 6.9549 0.0002
# 4 0.0001 0.0001 0.0001 32.6962 0.0001 -5.5634
# 5 -3.6952 -6.0086 6.9549 0.0001 38.3207 0.0002
# 6 0.0002 0.0002 0.0002 -5.5634 0.0002 24.6273
#
#
#
# Elastic Compliance Matrix: (Units=1/GPa)
#
#
# Indices 1 2 3 4 5 6 
#
# 1 0.017178 -0.009332 0.000351 0.000000 0.000129 0.000000
# 2 -0.009332 0.040442 -0.013308 0.000000 0.007857 0.000000
# 3 0.000351 -0.013308 0.014875 0.000000 -0.004752 0.000000
# 4 0.000000 0.000000 0.000000 0.031807 0.000000 0.007185
# 5 0.000129 0.007857 -0.004752 0.000000 0.028202 0.000000
# 6 0.000000 0.000000 0.000000 0.007185 0.000000 0.042229
#
#
# Mechanical properties :
#
#
# Convention : Reuss Voigt Hill
#
# Bulk Modulus (GPa) = 35.81986 40.71953 38.26969
# Shear Modulus (GPa) = 21.87070 28.35044 25.11057
#
# Velocity S-wave (km/s) = 2.87907 3.27793 3.08495
# Velocity P-wave (km/s) = 4.96264 5.45520 5.21474
#
# Compressibility (1/GPa) = 0.02791748
#
# Stress axis : x y z
#
# Youngs Moduli (GPa) = 58.21324 24.72684 67.22771
#
# Poissons Ratio (x) = 0.23076 -0.02361
# Poissons Ratio (y) = 0.54326 0.89464
# Poissons Ratio (z) = -0.02045 0.32906
#
# Static dielectric constant tensor:
#      x y z
#    x 2.020670 0.000000 0.043620 
#    y 0.000000 2.005550 0.000000 
#    z 0.043620 0.000000 2.262150 
# 
# From -- ./inp_files/20904.got.cif
#   From: 2010.05.17/outbox.cif.g08.bks.cpg/sg15_11_cif.got.tgz:20904.got - 2010.06.03 18:47:42.
