data_PCOD9265805
_publ_section_title
;
Structure prediction by ZEFSAII (Michael W. Deem and Ramdas Pophale) SiO2 
 PCOD9265805
Probable space group: C 2/C
;
_chemical_formula_sum "Si O2"
_cell_formula_units_Z 52
_cell_length_a 20.307071
_cell_length_b 7.537423
_cell_length_c 19.226754
_cell_angle_alpha 90.000000
_cell_angle_beta 137.977885
_cell_angle_gamma 90.000000
_cell_volume 1970.031358
_symmetry_space_group_name_H-M "C 2/C"
_symmetry_group_IT_number 15
_symmetry_cell_setting 'monoclinic'
loop_
_space_group_symop_operation_xyz
x,y,z
-x,y,1/2-z
-x,-y,-z
x,-y,1/2+z
1/2+x,1/2+y,z
1/2-x,1/2+y,1/2-z
1/2-x,1/2-y,-z
1/2+x,1/2-y,1/2+z
loop_
_atom_site_type_symbol
_atom_site_label
_atom_site_fract_x
_atom_site_fract_y
_atom_site_fract_z
Si Si1 0.858355 0.190281 0.786962
Si Si2 0.031801 0.989228 0.350895
Si Si3 0.244613 0.534382 0.989636
Si Si4 0.198261 0.433450 0.605655
Si Si5 0.993457 0.293289 0.432121
Si Si6 0.500000 0.500000 0.000000
Si Si7 0.675855 0.064991 0.789034
O O1 0.817993 0.388403 0.752719
O O2 0.947325 0.154622 0.800825
O O3 0.767536 0.064839 0.700581
O O4 0.909614 0.117855 0.896127
O O5 0.000000 0.070977 0.250000
O O6 0.146753 0.952570 0.432900
O O7 0.031641 0.104249 0.424728
O O8 0.181486 0.496607 0.872380
O O9 0.250000 0.750000 0.000000
O O10 0.201788 0.489381 0.030042
O O11 0.081864 0.415454 0.525095
O O12 0.252932 0.239004 0.654676
O O13 0.929062 0.365817 0.319544
O O14 0.934082 0.191904 0.444663
#
# Coordination Sequence:
#
# PCOD9265805 Si02
#       7
#     8   8   8   8   8   4   8
#     4  11  25  44  67  99 144 178 237 287 339 419
#     4  11  18  37  66  95 139 183 215 288 349 402
#     4  10  19  36  67  97 137 178 220 276 343 423
#     4  11  22  44  65 102 136 180 229 285 348 414
#     4  11  23  42  70  96 133 184 233 283 352 406
#     4  10  24  50  68  90 132 184 228 300 334 396
#     4  11  23  42  66 103 134 184 229 278 352 419
#
# _framework density 26.395517000000002
#
# number of rings (size 3 to 8) (size 9 to 14) (size 15 to 20)
#    0.000    1.231    7.692    0.923    0.000    2.462 
#    5.538    0.000    0.000    0.000    0.000    0.000 
#    0.000    0.000    0.000    0.000    0.000    0.000 
#
# Total GULP energy -144777.724006 kJ/mol
# GULP energy per Si atom -5568.374000 kJ/mol
# Density = 2.633544 g / cm^3
# Si number density = 26.395517 Si / 1000 Ang^3
#
#
#
# Elastic Constant Matrix: (Units=GPa)
#
#
# Indices 1 2 3 4 5 6 
#
# 1 84.5983 39.8220 35.4635 0.0000 21.2510 0.0000
# 2 39.8220 64.9266 30.8573 0.0000 15.2192 -0.0001
# 3 35.4635 30.8573 213.1625 0.0000 -3.4563 0.0000
# 4 0.0000 0.0000 0.0000 19.6513 0.0000 -1.2220
# 5 21.2510 15.2192 -3.4563 0.0000 39.5110 0.0000
# 6 0.0000 -0.0001 0.0000 -1.2220 0.0000 14.6719
#
#
#
# Elastic Compliance Matrix: (Units=1/GPa)
#
#
# Indices 1 2 3 4 5 6 
#
# 1 0.018464 -0.008855 -0.001898 0.000000 -0.006686 0.000000
# 2 -0.008855 0.022698 -0.001880 0.000000 -0.004145 0.000000
# 3 -0.001898 -0.001880 0.005315 0.000000 0.002210 0.000000
# 4 0.000000 0.000000 0.000000 0.051152 0.000000 0.004260
# 5 -0.006686 -0.004145 0.002210 0.000000 0.030695 0.000000
# 6 0.000000 0.000000 0.000000 0.004260 0.000000 0.068512
#
#
# Mechanical properties :
#
#
# Convention : Reuss Voigt Hill
#
# Bulk Modulus (GPa) = 47.14620 63.88588 55.51604
# Shear Modulus (GPa) = 21.81745 31.86982 26.84364
#
# Velocity S-wave (km/s) = 2.87811 3.47853 3.19247
# Velocity P-wave (km/s) = 5.38005 6.35527 5.88788
#
# Compressibility (1/GPa) = 0.02121062
#
# Stress axis : x y z
#
# Youngs Moduli (GPa) = 54.15855 44.05624 188.14559
#
# Poissons Ratio (x) = 0.39013 0.35717
# Poissons Ratio (y) = 0.47959 0.35367
# Poissons Ratio (z) = 0.10281 0.08281
#
# Static dielectric constant tensor:
#      x y z
#    x 1.928500 0.000000 0.087280 
#    y 0.000000 2.373980 0.000000 
#    z 0.087280 0.000000 1.924460 
# 
# From -- ./inp_files/283320.got.cif
#   From: 2010.05.17/outbox.cif.g08.bks.cpg/sg15_142_cif.got.tgz:283320.got - 2010.06.03 18:47:42.
