data_PCOD9265894
_publ_section_title
;
Structure prediction by ZEFSAII (Michael W. Deem and Ramdas Pophale) SiO2 
 PCOD9265894
Probable space group: C 2/C
;
_chemical_formula_sum "Si O2"
_cell_formula_units_Z 56
_cell_length_a 19.463109
_cell_length_b 14.725836
_cell_length_c 18.561800
_cell_angle_alpha 90.000000
_cell_angle_beta 36.044789
_cell_angle_gamma 90.000000
_cell_volume 3130.385615
_symmetry_space_group_name_H-M "C 2/C"
_symmetry_group_IT_number 15
_symmetry_cell_setting 'monoclinic'
loop_
_space_group_symop_operation_xyz
x,y,z
-x,y,1/2-z
-x,-y,-z
x,-y,1/2+z
1/2+x,1/2+y,z
1/2-x,1/2+y,1/2-z
1/2-x,1/2-y,-z
1/2+x,1/2-y,1/2+z
loop_
_atom_site_type_symbol
_atom_site_label
_atom_site_fract_x
_atom_site_fract_y
_atom_site_fract_z
Si Si1 0.774134 0.475366 0.377129
Si Si2 0.508695 0.109894 0.322169
Si Si3 0.588675 0.575449 0.450674
Si Si4 0.141231 0.432629 0.040340
Si Si5 0.730884 0.342216 0.700035
Si Si6 0.471239 0.229699 0.055254
Si Si7 0.913183 0.327934 0.187363
O O1 0.657014 0.529545 0.459152
O O2 0.790374 0.430527 0.441993
O O3 0.807294 0.396731 0.292365
O O4 0.875320 0.549441 0.280877
O O5 0.500000 0.152202 0.250000
O O6 0.515823 0.179820 0.380182
O O7 0.407860 0.035346 0.422571
O O8 0.500000 0.500000 0.500000
O O9 0.679922 0.599607 0.309346
O O10 0.518672 0.668549 0.522935
O O11 0.026022 0.367214 0.134694
O O12 0.219411 0.403128 0.906689
O O13 0.838775 0.282399 0.639500
O O14 0.631557 0.272831 0.756268
O O15 0.548035 0.179034 0.928714
#
# Coordination Sequence:
#
# PCOD9265894 Si02
#       7
#     8   8   8   8   8   8   8
#     4  10  19  37  57  82 118 151 186 243 293 335
#     4   9  18  35  58  84 114 148 197 239 279 346
#     4  11  23  38  58  84 117 148 187 245 295 342
#     4   9  20  35  58  86 112 152 196 236 292 349
#     4  10  20  37  57  85 116 152 192 238 289 348
#     4  10  20  36  57  85 114 152 199 233 283 354
#     4   9  19  32  58  84 113 148 197 236 281 345
#
# _framework density 17.88917
#
# number of rings (size 3 to 8) (size 9 to 14) (size 15 to 20)
#    0.000    2.286    1.429    2.143    2.000    2.286 
#    0.000    7.857    0.000    0.000    0.000    0.000 
#    0.000    0.000    0.000    0.000    0.000    0.000 
#
# Total GULP energy -156040.519723 kJ/mol
# GULP energy per Si atom -5572.875704 kJ/mol
# Density = 1.784845 g / cm^3
# Si number density = 17.889170 Si / 1000 Ang^3
#
#
#
# Elastic Constant Matrix: (Units=GPa)
#
#
# Indices 1 2 3 4 5 6 
#
# 1 111.1184 66.9655 47.8393 0.0000 16.7588 0.0000
# 2 66.9655 75.2322 36.6862 0.0000 18.5112 0.0000
# 3 47.8393 36.6862 76.6420 0.0000 12.3522 0.0000
# 4 0.0000 0.0000 0.0000 23.5107 0.0000 3.7728
# 5 16.7588 18.5112 12.3522 0.0000 19.1633 0.0000
# 6 0.0000 0.0000 0.0000 3.7728 0.0000 20.9758
#
#
#
# Elastic Compliance Matrix: (Units=1/GPa)
#
#
# Indices 1 2 3 4 5 6 
#
# 1 0.021024 -0.016249 -0.005481 0.000000 0.000842 0.000000
# 2 -0.016249 0.033206 -0.003206 0.000000 -0.015800 0.000000
# 3 -0.005481 -0.003206 0.018672 0.000000 -0.004145 0.000000
# 4 0.000000 0.000000 0.000000 0.043798 0.000000 -0.007878
# 5 0.000842 -0.015800 -0.004145 0.000000 0.069381 0.000000
# 6 0.000000 0.000000 0.000000 -0.007878 0.000000 0.049091
#
#
# Mechanical properties :
#
#
# Convention : Reuss Voigt Hill
#
# Bulk Modulus (GPa) = 43.42084 62.88607 53.15345
# Shear Modulus (GPa) = 17.08111 20.16341 18.62226
#
# Velocity S-wave (km/s) = 3.09338 3.36092 3.22992
# Velocity P-wave (km/s) = 6.08962 7.09158 6.60961
#
# Compressibility (1/GPa) = 0.02303042
#
# Stress axis : x y z
#
# Youngs Moduli (GPa) = 47.56385 30.11460 53.55663
#
# Poissons Ratio (x) = 0.48932 0.29356
# Poissons Ratio (y) = 0.77284 0.17172
# Poissons Ratio (z) = 0.26071 0.09656
#
# Static dielectric constant tensor:
#      x y z
#    x 1.660500 0.000000 -0.027830 
#    y 0.000000 1.595640 0.000000 
#    z -0.027830 0.000000 1.621710 
# 
# From -- ./inp_files/211190.got.cif
#   From: 2010.05.17/outbox.cif.g08.bks.cpg/sg15_106_cif.got.tgz:211190.got - 2010.06.03 18:47:42.
