data_PCOD9265357
_publ_section_title
;
Structure prediction by ZEFSAII (Michael W. Deem and Ramdas Pophale) SiO2 
 PCOD9265357
Probable space group: C 2/C
;
_chemical_formula_sum "Si O2"
_cell_formula_units_Z 52
_cell_length_a 13.828251
_cell_length_b 23.836098
_cell_length_c 12.513433
_cell_angle_alpha 90.000000
_cell_angle_beta 146.066521
_cell_angle_gamma 90.000000
_cell_volume 2302.459849
_symmetry_space_group_name_H-M "C 2/C"
_symmetry_group_IT_number 15
_symmetry_cell_setting 'monoclinic'
loop_
_space_group_symop_operation_xyz
x,y,z
-x,y,1/2-z
-x,-y,-z
x,-y,1/2+z
1/2+x,1/2+y,z
1/2-x,1/2+y,1/2-z
1/2-x,1/2-y,-z
1/2+x,1/2-y,1/2+z
loop_
_atom_site_type_symbol
_atom_site_label
_atom_site_fract_x
_atom_site_fract_y
_atom_site_fract_z
Si Si1 0.805053 0.481603 0.023223
Si Si2 0.694906 0.281985 0.718009
Si Si3 0.896895 0.173119 0.826289
Si Si4 0.000000 0.199678 0.250000
Si Si5 0.929098 0.388862 0.986708
Si Si6 0.215421 0.886435 0.077529
Si Si7 0.353388 0.104839 0.028567
O O1 0.692894 0.447403 0.005911
O O2 0.759093 0.545887 0.964635
O O3 0.000000 0.485307 0.250000
O O4 0.819467 0.440981 0.933022
O O5 0.785278 0.224777 0.769549
O O6 0.589019 0.303567 0.517028
O O7 0.576088 0.270672 0.714515
O O8 0.820920 0.332922 0.865321
O O9 0.885194 0.123971 0.904777
O O10 0.795748 0.150474 0.631110
O O11 0.148422 0.159260 0.432742
O O12 0.032887 0.404008 0.974501
O O13 0.082871 0.377939 0.211970
O O14 0.500000 0.119849 0.250000
#
# Coordination Sequence:
#
# PCOD9265357 Si02
#       7
#     8   8   8   4   8   8   8
#     4   9  17  33  60  87 115 154 194 236 288 354
#     4  11  22  39  61  89 125 152 191 237 302 360
#     4  10  22  39  57  89 123 154 192 243 296 349
#     4  10  20  34  58  92 130 156 184 222 298 374
#     4  10  19  36  60  86 122 152 197 243 293 344
#     4   9  18  33  57  89 123 153 186 230 290 358
#     4  10  21  39  62  81 111 157 210 247 287 336
#
# _framework density 22.584543
#
# number of rings (size 3 to 8) (size 9 to 14) (size 15 to 20)
#    0.000    2.154    1.538    2.308    0.000    3.692 
#    6.923    4.615   10.154    0.000    0.000    0.000 
#    0.000    0.000    0.000    0.000    0.000    0.000 
#
# Total GULP energy -145171.552915 kJ/mol
# GULP energy per Si atom -5583.521266 kJ/mol
# Density = 2.253314 g / cm^3
# Si number density = 22.584543 Si / 1000 Ang^3
#
#
#
# Elastic Constant Matrix: (Units=GPa)
#
#
# Indices 1 2 3 4 5 6 
#
# 1 25.7063 11.2889 17.3991 0.0000 -11.9712 0.0000
# 2 11.2889 107.9019 54.5271 0.0000 -4.0076 0.0000
# 3 17.3991 54.5271 133.7210 0.0000 -19.8466 0.0000
# 4 0.0000 0.0000 0.0000 29.6934 0.0000 -8.5566
# 5 -11.9712 -4.0076 -19.8466 0.0000 23.8814 0.0000
# 6 0.0000 0.0000 0.0000 -8.5566 0.0000 10.9107
#
#
#
# Elastic Compliance Matrix: (Units=1/GPa)
#
#
# Indices 1 2 3 4 5 6 
#
# 1 0.053180 -0.003776 -0.001731 0.000000 0.024586 0.000000
# 2 -0.003776 0.012051 -0.005023 0.000000 -0.004045 0.000000
# 3 -0.001731 -0.005023 0.010834 0.000000 0.007293 0.000000
# 4 0.000000 0.000000 0.000000 0.043511 0.000000 0.034123
# 5 0.024586 -0.004045 0.007293 0.000000 0.059580 0.000000
# 6 0.000000 0.000000 0.000000 0.034123 0.000000 0.118413
#
#
# Mechanical properties :
#
#
# Convention : Reuss Voigt Hill
#
# Bulk Modulus (GPa) = 18.17999 48.19547 33.18773
# Shear Modulus (GPa) = 14.83840 25.17138 20.00489
#
# Velocity S-wave (km/s) = 2.56601 3.34209 2.97943
# Velocity P-wave (km/s) = 4.10444 6.02322 5.15391
#
# Compressibility (1/GPa) = 0.05500553
#
# Stress axis : x y z
#
# Youngs Moduli (GPa) = 18.80402 82.98208 92.30136
#
# Poissons Ratio (x) = 0.31334 0.15975
# Poissons Ratio (y) = 0.07100 0.46362
# Poissons Ratio (z) = 0.03255 0.41681
#
# Static dielectric constant tensor:
#      x y z
#    x 1.878320 0.000000 -0.007290 
#    y 0.000000 1.819090 0.000000 
#    z -0.007290 0.000000 1.882300 
# 
# From -- ./inp_files/164037.got.cif
#   From: 2010.05.17/outbox.cif.g08.bks.cpg/sg15_83_cif.got.tgz:164037.got - 2010.06.03 18:47:42.
