data_PCOD9265837
_publ_section_title
;
Structure prediction by ZEFSAII (Michael W. Deem and Ramdas Pophale) SiO2 
 PCOD9265837
Probable space group: C 2/C
;
_chemical_formula_sum "Si O2"
_cell_formula_units_Z 48
_cell_length_a 12.945506
_cell_length_b 23.820716
_cell_length_c 10.000251
_cell_angle_alpha 90.000000
_cell_angle_beta 123.170790
_cell_angle_gamma 90.000000
_cell_volume 2581.265620
_symmetry_space_group_name_H-M "C 2/C"
_symmetry_group_IT_number 15
_symmetry_cell_setting 'monoclinic'
loop_
_space_group_symop_operation_xyz
x,y,z
-x,y,1/2-z
-x,-y,-z
x,-y,1/2+z
1/2+x,1/2+y,z
1/2-x,1/2+y,1/2-z
1/2-x,1/2-y,-z
1/2+x,1/2-y,1/2+z
loop_
_atom_site_type_symbol
_atom_site_label
_atom_site_fract_x
_atom_site_fract_y
_atom_site_fract_z
Si Si1 0.383491 0.369594 0.267275
Si Si2 0.367537 0.915035 0.532296
Si Si3 0.883413 0.371103 0.842343
Si Si4 0.355538 0.243962 0.193535
Si Si5 0.874795 0.031034 0.946323
Si Si6 0.226196 0.525706 0.107055
O O1 0.500000 0.376068 0.250000
O O2 0.359442 0.303842 0.268697
O O3 0.394284 0.405284 0.409924
O O4 0.266251 0.395936 0.110223
O O5 0.372098 0.902180 0.691571
O O6 0.469723 0.877145 0.530324
O O7 0.378491 0.981381 0.513299
O O8 0.833195 0.309074 0.775161
O O9 0.816437 0.410745 0.900491
O O10 0.500000 0.234725 0.250000
O O11 0.250000 0.250000 0.000000
O O12 0.775852 0.000485 0.780188
O O13 0.830535 0.025191 0.066436
O O14 0.000000 0.000000 0.000000
#
# Coordination Sequence:
#
# PCOD9265837 Si02
#       6
#     8   8   8   8   8   8
#     4  10  21  35  58  83 115 150 199 243 292 347
#     4  10  19  37  53  86 115 148 188 243 293 348
#     4  11  20  35  59  82 120 146 196 241 294 349
#     4  11  20  35  58  87 116 156 205 251 290 355
#     4  11  22  38  56  85 118 156 191 247 297 356
#     4  11  22  36  58  84 117 151 196 238 302 357
#
# _framework density 18.59553
#
# number of rings (size 3 to 8) (size 9 to 14) (size 15 to 20)
#    0.000    1.333    5.000    3.000    0.000    0.000 
#    0.000    0.833    0.000    0.000    0.000    2.333 
#    0.000    0.000    0.000    0.000    0.000    0.000 
#
# Total GULP energy -133724.275379 kJ/mol
# GULP energy per Si atom -5571.844807 kJ/mol
# Density = 1.855321 g / cm^3
# Si number density = 18.595530 Si / 1000 Ang^3
#
#
#
# Elastic Constant Matrix: (Units=GPa)
#
#
# Indices 1 2 3 4 5 6 
#
# 1 77.8502 32.7677 16.5763 0.0000 0.3033 0.0000
# 2 32.7677 160.1194 18.7992 0.0000 -3.3765 0.0000
# 3 16.5763 18.7992 23.6542 0.0000 6.9932 0.0000
# 4 0.0000 0.0000 0.0000 34.7423 0.0000 -7.5121
# 5 0.3033 -3.3765 6.9932 0.0000 29.9784 0.0000
# 6 0.0000 0.0000 0.0000 -7.5121 0.0000 28.6214
#
#
#
# Elastic Compliance Matrix: (Units=1/GPa)
#
#
# Indices 1 2 3 4 5 6 
#
# 1 0.015831 -0.002016 -0.010072 0.000000 0.001962 0.000000
# 2 -0.002016 0.007283 -0.004967 0.000000 0.001999 0.000000
# 3 -0.010072 -0.004967 0.057373 0.000000 -0.013841 0.000000
# 4 0.000000 0.000000 0.000000 0.030515 0.000000 0.008009
# 5 0.001962 0.001999 -0.013841 0.000000 0.036792 0.000000
# 6 0.000000 0.000000 0.000000 0.008009 0.000000 0.037041
#
#
# Mechanical properties :
#
#
# Convention : Reuss Voigt Hill
#
# Bulk Modulus (GPa) = 21.56181 44.21225 32.88703
# Shear Modulus (GPa) = 21.33083 31.56713 26.44898
#
# Velocity S-wave (km/s) = 3.39055 4.12462 3.77547
# Velocity P-wave (km/s) = 5.19116 6.81988 6.06048
#
# Compressibility (1/GPa) = 0.04637830
#
# Stress axis : x y z
#
# Youngs Moduli (GPa) = 63.16917 137.30309 17.42974
#
# Poissons Ratio (x) = 0.27677 0.17555
# Poissons Ratio (y) = 0.12733 0.08657
# Poissons Ratio (z) = 0.63622 0.68196
#
# Static dielectric constant tensor:
#      x y z
#    x 1.685680 0.000000 0.067750 
#    y 0.000000 1.695800 0.000000 
#    z 0.067750 0.000000 1.690860 
# 
# From -- ./inp_files/32658.got.cif
#   From: 2010.05.17/outbox.cif.g08.bks.cpg/sg15_17_cif.got.tgz:32658.got - 2010.06.03 18:47:42.
