data_PCOD9265055
_publ_section_title
;
Structure prediction by ZEFSAII (Michael W. Deem and Ramdas Pophale) SiO2 
 PCOD9265055
Probable space group: C 2/C
;
_chemical_formula_sum "Si O2"
_cell_formula_units_Z 48
_cell_length_a 12.706715
_cell_length_b 23.489294
_cell_length_c 9.261695
_cell_angle_alpha 90.000000
_cell_angle_beta 109.185541
_cell_angle_gamma 90.000000
_cell_volume 2610.820355
_symmetry_space_group_name_H-M "C 2/C"
_symmetry_group_IT_number 15
_symmetry_cell_setting 'monoclinic'
loop_
_space_group_symop_operation_xyz
x,y,z
-x,y,1/2-z
-x,-y,-z
x,-y,1/2+z
1/2+x,1/2+y,z
1/2-x,1/2+y,1/2-z
1/2-x,1/2-y,-z
1/2+x,1/2-y,1/2+z
loop_
_atom_site_type_symbol
_atom_site_label
_atom_site_fract_x
_atom_site_fract_y
_atom_site_fract_z
Si Si1 0.879034 0.781868 0.141666
Si Si2 0.625041 0.291762 0.850896
Si Si3 0.761603 0.323504 0.171447
Si Si4 0.379335 0.058175 0.118783
Si Si5 0.741256 0.170813 0.344016
Si Si6 0.620660 0.941199 0.232204
O O1 0.779859 0.811171 0.186512
O O2 0.856516 0.715192 0.158948
O O3 0.000000 0.797754 0.250000
O O4 0.851385 0.802991 0.970033
O O5 0.500000 0.305950 0.750000
O O6 0.648970 0.224561 0.835014
O O7 0.722547 0.324208 0.805427
O O8 0.653856 0.309045 0.026275
O O9 0.806145 0.387061 0.189703
O O10 0.500000 0.069090 0.250000
O O11 0.296854 0.109294 0.123106
O O12 0.338625 0.999597 0.174827
O O13 0.388328 0.053861 0.947452
O O14 0.500000 0.931946 0.250000
#
# Coordination Sequence:
#
# PCOD9265055 Si02
#       6
#     8   8   8   8   8   8
#     4  10  19  36  57  84 114 150 186 233 282 338
#     4  10  21  36  57  88 118 152 189 230 286 339
#     4  10  21  37  58  85 118 152 187 236 284 339
#     4  11  23  39  60  88 113 150 189 237 289 340
#     4  10  21  35  58  85 116 146 189 231 284 340
#     4  11  23  39  61  86 115 149 190 236 289 339
#
# _framework density 18.385024999999999
#
# number of rings (size 3 to 8) (size 9 to 14) (size 15 to 20)
#    0.000    1.667    1.667    4.000    4.667    0.000 
#    6.000    0.000    0.000    6.000    0.000    0.000 
#    0.000    0.000    0.000    0.000    0.000    0.000 
#
# Total GULP energy -133802.489393 kJ/mol
# GULP energy per Si atom -5575.103725 kJ/mol
# Density = 1.834318 g / cm^3
# Si number density = 18.385025 Si / 1000 Ang^3
#
#
#
# Elastic Constant Matrix: (Units=GPa)
#
#
# Indices 1 2 3 4 5 6 
#
# 1 45.5385 42.9421 18.1076 0.0000 1.8992 0.0000
# 2 42.9421 139.0253 15.9138 0.0000 -4.4715 0.0000
# 3 18.1076 15.9138 60.3261 0.0000 -8.9192 0.0000
# 4 0.0000 0.0000 0.0000 22.6764 0.0000 -3.7888
# 5 1.8992 -4.4715 -8.9192 0.0000 31.8674 0.0000
# 6 0.0000 0.0000 0.0000 -3.7888 0.0000 16.9289
#
#
#
# Elastic Compliance Matrix: (Units=1/GPa)
#
#
# Indices 1 2 3 4 5 6 
#
# 1 0.035184 -0.010053 -0.008791 0.000000 -0.005968 0.000000
# 2 -0.010053 0.010298 0.000629 0.000000 0.002220 0.000000
# 3 -0.008791 0.000629 0.019966 0.000000 0.006200 0.000000
# 4 0.000000 0.000000 0.000000 0.045812 0.000000 0.010253
# 5 -0.005968 0.002220 0.006200 0.000000 0.033783 0.000000
# 6 0.000000 0.000000 0.000000 0.010253 0.000000 0.061366
#
#
# Mechanical properties :
#
#
# Convention : Reuss Voigt Hill
#
# Bulk Modulus (GPa) = 34.46204 44.31298 39.38751
# Shear Modulus (GPa) = 19.80113 25.48962 22.64538
#
# Velocity S-wave (km/s) = 3.28537 3.72752 3.51341
# Velocity P-wave (km/s) = 5.75993 6.53307 6.15865
#
# Compressibility (1/GPa) = 0.02901744
#
# Stress axis : x y z
#
# Youngs Moduli (GPa) = 28.42187 97.11045 50.08484
#
# Poissons Ratio (x) = 0.97628 0.44031
# Poissons Ratio (y) = 0.28573 -0.03152
# Poissons Ratio (z) = 0.24987 -0.06112
#
# Static dielectric constant tensor:
#      x y z
#    x 1.603860 0.000000 -0.002970 
#    y 0.000000 1.634420 0.000000 
#    z -0.002970 0.000000 1.646270 
# 
# From -- ./inp_files/32554.got.cif
#   From: 2010.05.17/outbox.cif.g08.bks.cpg/sg15_17_cif.got.tgz:32554.got - 2010.06.03 18:47:42.
