data_PCOD9265824
_publ_section_title
;
Structure prediction by ZEFSAII (Michael W. Deem and Ramdas Pophale) SiO2 
 PCOD9265824
Probable space group: C 2/C
;
_chemical_formula_sum "Si O2"
_cell_formula_units_Z 64
_cell_length_a 27.218307
_cell_length_b 17.780481
_cell_length_c 9.130400
_cell_angle_alpha 90.000000
_cell_angle_beta 66.657155
_cell_angle_gamma 90.000000
_cell_volume 4057.029987
_symmetry_space_group_name_H-M "C 2/C"
_symmetry_group_IT_number 15
_symmetry_cell_setting 'monoclinic'
loop_
_space_group_symop_operation_xyz
x,y,z
-x,y,1/2-z
-x,-y,-z
x,-y,1/2+z
1/2+x,1/2+y,z
1/2-x,1/2+y,1/2-z
1/2-x,1/2-y,-z
1/2+x,1/2-y,1/2+z
loop_
_atom_site_type_symbol
_atom_site_label
_atom_site_fract_x
_atom_site_fract_y
_atom_site_fract_z
Si Si1 0.057739 0.085040 0.749687
Si Si2 0.056399 0.924135 0.606345
Si Si3 0.155586 0.180196 0.515467
Si Si4 0.742964 0.922796 0.075765
Si Si5 0.186503 0.717250 0.751837
Si Si6 0.750034 0.416145 0.784141
Si Si7 0.297479 0.235750 0.274943
Si Si8 0.844793 0.820602 0.981817
O O1 0.103900 0.143290 0.649313
O O2 0.000000 0.106753 0.750000
O O3 0.071519 0.005687 0.654662
O O4 0.053855 0.074703 0.931051
O O5 0.100066 0.863352 0.602308
O O6 0.000000 0.906492 0.750000
O O7 0.145126 0.251482 0.421385
O O8 0.190554 0.116846 0.389382
O O9 0.195151 0.215173 0.589927
O O10 0.742579 0.923374 0.899427
O O11 0.799168 0.884156 0.056371
O O12 0.695874 0.868424 0.192811
O O13 0.741479 0.005193 0.145726
O O14 0.244039 0.741487 0.749689
O O15 0.174447 0.768505 0.627146
O O16 0.791323 0.353295 0.796442
O O17 0.345895 0.264329 0.117456
#
# Coordination Sequence:
#
# PCOD9265824 Si02
#       8
#     8   8   8   8   8   8   8   8
#     4  11  24  39  53  78 107 137 180 223 264 306
#     4  11  24  37  56  76 106 140 178 224 263 305
#     4  11  22  34  56  74 100 143 178 215 259 308
#     4  11  22  32  48  75 105 140 173 210 251 309
#     4  10  20  35  53  71 103 140 174 217 256 308
#     4  11  22  32  48  74 107 138 174 209 253 308
#     4  10  19  37  49  75 102 135 177 217 256 305
#     4  11  19  36  56  70 103 141 183 209 261 308
#
# _framework density 15.775086
#
# number of rings (size 3 to 8) (size 9 to 14) (size 15 to 20)
#    0.000    1.250    5.000    4.500    8.750    2.000 
#    0.000    0.000    0.000    0.000    0.000    0.000 
#    0.000    6.000    0.000    0.000    0.000    0.000 
#
# Total GULP energy -178317.930454 kJ/mol
# GULP energy per Si atom -5572.435327 kJ/mol
# Density = 1.573918 g / cm^3
# Si number density = 15.775086 Si / 1000 Ang^3
#
#
#
# Elastic Constant Matrix: (Units=GPa)
#
#
# Indices 1 2 3 4 5 6 
#
# 1 38.9647 41.2372 27.3918 0.0000 -1.0737 0.0000
# 2 41.2372 116.8650 52.3133 0.0000 -2.0704 0.0000
# 3 27.3918 52.3133 111.5664 0.0000 7.2662 0.0000
# 4 0.0000 0.0000 0.0000 35.0888 0.0000 1.4321
# 5 -1.0737 -2.0704 7.2662 0.0000 25.0535 0.0000
# 6 0.0000 0.0000 0.0000 1.4321 0.0000 25.1259
#
#
#
# Elastic Compliance Matrix: (Units=1/GPa)
#
#
# Indices 1 2 3 4 5 6 
#
# 1 0.042641 -0.012990 -0.004513 0.000000 0.002063 0.000000
# 2 -0.012990 0.014932 -0.003931 0.000000 0.001817 0.000000
# 3 -0.004513 -0.003931 0.012178 0.000000 -0.004050 0.000000
# 4 0.000000 0.000000 0.000000 0.028566 0.000000 -0.001628
# 5 0.002063 0.001817 -0.004050 0.000000 0.041328 0.000000
# 6 0.000000 0.000000 0.000000 -0.001628 0.000000 0.039892
#
#
# Mechanical properties :
#
#
# Convention : Reuss Voigt Hill
#
# Bulk Modulus (GPa) = 37.19583 56.58677 46.89130
# Shear Modulus (GPa) = 21.61089 26.81722 24.21406
#
# Velocity S-wave (km/s) = 3.70528 4.12755 3.92210
# Velocity P-wave (km/s) = 6.47576 7.65927 7.09225
#
# Compressibility (1/GPa) = 0.02688473
#
# Stress axis : x y z
#
# Youngs Moduli (GPa) = 23.45178 66.96916 82.11411
#
# Poissons Ratio (x) = 0.86991 0.37055
# Poissons Ratio (y) = 0.30463 0.32278
# Poissons Ratio (z) = 0.10583 0.26324
#
# Static dielectric constant tensor:
#      x y z
#    x 1.520360 0.000000 0.018140 
#    y 0.000000 1.534790 0.000000 
#    z 0.018140 0.000000 1.622320 
# 
# From -- ./inp_files/69937.got.cif
#   From: 2010.05.17/outbox.cif.g08.bks.cpg/sg15_35_cif.got.tgz:69937.got - 2010.06.03 18:47:42.
