data_PCOD9265697
_publ_section_title
;
Structure prediction by ZEFSAII (Michael W. Deem and Ramdas Pophale) SiO2 
 PCOD9265697
Probable space group: C 2/C
;
_chemical_formula_sum "Si O2"
_cell_formula_units_Z 40
_cell_length_a 8.990368
_cell_length_b 23.262218
_cell_length_c 9.294252
_cell_angle_alpha 90.000000
_cell_angle_beta 89.005289
_cell_angle_gamma 90.000000
_cell_volume 1943.468839
_symmetry_space_group_name_H-M "C 2/C"
_symmetry_group_IT_number 15
_symmetry_cell_setting 'monoclinic'
loop_
_space_group_symop_operation_xyz
x,y,z
-x,y,1/2-z
-x,-y,-z
x,-y,1/2+z
1/2+x,1/2+y,z
1/2-x,1/2+y,1/2-z
1/2-x,1/2-y,-z
1/2+x,1/2-y,1/2+z
loop_
_atom_site_type_symbol
_atom_site_label
_atom_site_fract_x
_atom_site_fract_y
_atom_site_fract_z
Si Si1 0.251449 0.672184 0.438178
Si Si2 0.000000 0.264930 0.750000
Si Si3 0.880255 0.569062 0.635959
Si Si4 0.751316 0.817392 0.289142
Si Si5 0.390834 0.060247 0.128113
Si Si6 0.000000 0.763534 0.750000
O O1 0.251872 0.679808 0.611865
O O2 0.237563 0.604606 0.406505
O O3 0.394216 0.699421 0.356468
O O4 0.106534 0.699855 0.358510
O O5 0.109664 0.220845 0.667048
O O6 0.759122 0.619325 0.641273
O O7 0.831305 0.503515 0.667299
O O8 0.000000 0.589627 0.750000
O O9 0.988218 0.561254 0.500205
O O10 0.608170 0.779870 0.332898
O O11 0.500000 0.081105 0.250000
#
# Coordination Sequence:
#
# PCOD9265697 Si02
#       6
#     8   4   8   8   8   4
#     4  11  21  40  58  86 122 156 193 248 291 352
#     4  10  22  36  58  88 120 150 200 238 286 352
#     4  10  19  36  64  84 114 158 196 243 295 350
#     4  11  21  41  60  86 119 161 192 242 297 354
#     4  10  20  36  59  92 115 148 203 246 288 347
#     4  10  20  34  58  82 114 156 190 230 296 338
#
# _framework density 20.581755999999999
#
# number of rings (size 3 to 8) (size 9 to 14) (size 15 to 20)
#    0.000    1.600    4.000    2.400    0.000    0.000 
#    7.200   10.000    0.000    2.400    0.000    0.000 
#    0.000    0.000    0.000    0.000    0.000    0.000 
#
# Total GULP energy -111438.553929 kJ/mol
# GULP energy per Si atom -5571.927696 kJ/mol
# Density = 2.053491 g / cm^3
# Si number density = 20.581756 Si / 1000 Ang^3
#
#
#
# Elastic Constant Matrix: (Units=GPa)
#
#
# Indices 1 2 3 4 5 6 
#
# 1 91.4886 46.1808 12.9061 0.0000 -10.2985 0.0000
# 2 46.1808 144.3558 5.1333 0.0000 -14.2556 0.0000
# 3 12.9061 5.1333 69.4321 0.0000 -8.7699 0.0000
# 4 0.0000 0.0000 0.0000 20.6194 0.0000 -14.0027
# 5 -10.2985 -14.2556 -8.7699 0.0000 17.5961 0.0000
# 6 0.0000 0.0000 0.0000 -14.0027 0.0000 22.4947
#
#
#
# Elastic Compliance Matrix: (Units=1/GPa)
#
#
# Indices 1 2 3 4 5 6 
#
# 1 0.013585 -0.003896 -0.001741 0.000000 0.003926 0.000000
# 2 -0.003896 0.008651 0.000728 0.000000 0.005091 0.000000
# 3 -0.001741 0.000728 0.015600 0.000000 0.007346 0.000000
# 4 0.000000 0.000000 0.000000 0.084013 0.000000 0.052297
# 5 0.003926 0.005091 0.007346 0.000000 0.066914 0.000000
# 6 0.000000 0.000000 0.000000 0.052297 0.000000 0.077009
#
#
# Mechanical properties :
#
#
# Convention : Reuss Voigt Hill
#
# Bulk Modulus (GPa) = 35.69375 48.19078 41.94227
# Shear Modulus (GPa) = 17.54818 28.21247 22.88032
#
# Velocity S-wave (km/s) = 2.92311 3.70638 3.33780
# Velocity P-wave (km/s) = 5.36403 6.46386 5.93946
#
# Compressibility (1/GPa) = 0.02801611
#
# Stress axis : x y z
#
# Youngs Moduli (GPa) = 73.61279 115.59900 64.10171
#
# Poissons Ratio (x) = 0.45039 0.11161
# Poissons Ratio (y) = 0.28681 -0.04664
# Poissons Ratio (z) = 0.12817 -0.08412
#
# Static dielectric constant tensor:
#      x y z
#    x 1.736700 0.000000 0.001290 
#    y 0.000000 1.800100 0.000000 
#    z 0.001290 0.000000 1.768450 
# 
# From -- ./inp_files/23529.got.cif
#   From: 2010.05.17/outbox.cif.g08.bks.cpg/sg15_12_cif.got.tgz:23529.got - 2010.06.03 18:47:42.
