data_PCOD9265914
_publ_section_title
;
Structure prediction by ZEFSAII (Michael W. Deem and Ramdas Pophale) SiO2 
 PCOD9265914
Probable space group: C 2/C
;
_chemical_formula_sum "Si O2"
_cell_formula_units_Z 40
_cell_length_a 16.507306
_cell_length_b 7.097065
_cell_length_c 24.076183
_cell_angle_alpha 90.000000
_cell_angle_beta 33.006149
_cell_angle_gamma 90.000000
_cell_volume 1536.466684
_symmetry_space_group_name_H-M "C 2/C"
_symmetry_group_IT_number 15
_symmetry_cell_setting 'monoclinic'
loop_
_space_group_symop_operation_xyz
x,y,z
-x,y,1/2-z
-x,-y,-z
x,-y,1/2+z
1/2+x,1/2+y,z
1/2-x,1/2+y,1/2-z
1/2-x,1/2-y,-z
1/2+x,1/2-y,1/2+z
loop_
_atom_site_type_symbol
_atom_site_label
_atom_site_fract_x
_atom_site_fract_y
_atom_site_fract_z
Si Si1 0.850969 0.426322 0.766651
Si Si2 0.610594 0.432781 0.983971
Si Si3 0.183055 0.506747 0.427679
Si Si4 0.108931 0.350515 0.361029
Si Si5 0.609393 0.372228 0.104046
O O1 0.777030 0.487219 0.867348
O O2 0.895647 0.591427 0.700089
O O3 0.716797 0.321860 0.811193
O O4 0.981068 0.272216 0.695674
O O5 0.614665 0.203502 0.978223
O O6 0.500000 0.500000 0.000000
O O7 0.566008 0.480101 0.072474
O O8 0.184481 0.507294 0.360138
O O9 0.331114 0.498808 0.379429
O O10 0.062466 0.650378 0.520427
O O11 0.750000 0.250000 0.000000
#
# Coordination Sequence:
#
# PCOD9265914 Si02
#       5
#     8   8   8   8   8
#     4  11  21  34  63  90 115 159 202 244 300 352
#     4  10  20  34  57  90 120 149 193 252 292 343
#     4   9  20  38  59  81 118 155 196 250 293 343
#     4  10  20  36  57  89 114 155 196 245 298 359
#     4  10  19  37  57  89 114 150 206 253 277 344
#
# _framework density 26.033756
#
# number of rings (size 3 to 8) (size 9 to 14) (size 15 to 20)
#    0.000    2.000    4.000    1.200    0.000    7.200 
#    0.000    0.000    0.000   21.600    0.000    0.000 
#    0.000    0.000    0.000    0.000    0.000    0.000 
#
# Total GULP energy -111724.711776 kJ/mol
# GULP energy per Si atom -5586.235589 kJ/mol
# Density = 2.597450 g / cm^3
# Si number density = 26.033756 Si / 1000 Ang^3
#
#
#
# Elastic Constant Matrix: (Units=GPa)
#
#
# Indices 1 2 3 4 5 6 
#
# 1 159.2432 12.8719 37.4062 -0.0020 -2.1261 0.0093
# 2 12.8719 34.1675 7.5395 -0.0029 0.4265 0.0093
# 3 37.4062 7.5395 130.2490 -0.0004 -2.1648 -0.0005
# 4 -0.0020 -0.0029 -0.0004 36.8531 -0.0001 -0.8290
# 5 -2.1261 0.4265 -2.1648 -0.0001 41.6682 -0.0021
# 6 0.0093 0.0093 -0.0005 -0.8290 -0.0021 40.2975
#
#
#
# Elastic Compliance Matrix: (Units=1/GPa)
#
#
# Indices 1 2 3 4 5 6 
#
# 1 0.006895 -0.002193 -0.001849 0.000000 0.000278 -0.000001
# 2 -0.002193 0.030350 -0.001135 0.000002 -0.000482 -0.000006
# 3 -0.001849 -0.001135 0.008280 0.000000 0.000347 0.000001
# 4 0.000000 0.000002 0.000000 0.027147 0.000000 0.000558
# 5 0.000278 -0.000482 0.000347 0.000000 0.024036 0.000001
# 6 -0.000001 -0.000006 0.000001 0.000558 0.000001 0.024827
#
#
# Mechanical properties :
#
#
# Convention : Reuss Voigt Hill
#
# Bulk Modulus (GPa) = 28.43184 48.81053 38.62118
# Shear Modulus (GPa) = 34.81581 41.48658 38.15120
#
# Velocity S-wave (km/s) = 3.66092 3.99628 3.83227
# Velocity P-wave (km/s) = 5.36793 6.33114 5.86933
#
# Compressibility (1/GPa) = 0.03517184
#
# Stress axis : x y z
#
# Youngs Moduli (GPa) = 145.03428 32.94865 120.77339
#
# Poissons Ratio (x) = 0.07226 0.22326
# Poissons Ratio (y) = 0.31807 0.13708
# Poissons Ratio (z) = 0.26811 0.03740
#
# Static dielectric constant tensor:
#      x y z
#    x 2.144460 0.000000 0.040650 
#    y 0.000000 2.147960 0.000000 
#    z 0.040650 0.000000 2.135000 
# 
# From -- ./inp_files/224299.got.cif
#   From: 2010.05.17/outbox.cif.g08.bks.cpg/sg15_113_cif.got.tgz:224299.got - 2010.06.03 18:47:42.
