data_PCOD9265428
_publ_section_title
;
Structure prediction by ZEFSAII (Michael W. Deem and Ramdas Pophale) SiO2 
 PCOD9265428
Probable space group: C 2/C
;
_chemical_formula_sum "Si O2"
_cell_formula_units_Z 60
_cell_length_a 11.475002
_cell_length_b 15.957890
_cell_length_c 26.308716
_cell_angle_alpha 90.000000
_cell_angle_beta 33.083317
_cell_angle_gamma 90.000000
_cell_volume 2629.708333
_symmetry_space_group_name_H-M "C 2/C"
_symmetry_group_IT_number 15
_symmetry_cell_setting 'monoclinic'
loop_
_space_group_symop_operation_xyz
x,y,z
-x,y,1/2-z
-x,-y,-z
x,-y,1/2+z
1/2+x,1/2+y,z
1/2-x,1/2+y,1/2-z
1/2-x,1/2-y,-z
1/2+x,1/2-y,1/2+z
loop_
_atom_site_type_symbol
_atom_site_label
_atom_site_fract_x
_atom_site_fract_y
_atom_site_fract_z
Si Si1 0.000000 0.853270 0.250000
Si Si2 0.127613 0.168422 0.997399
Si Si3 0.501357 0.296249 0.354694
Si Si4 0.191718 0.344631 0.916371
Si Si5 0.168872 0.859798 0.978161
Si Si6 0.453696 0.113820 0.598249
Si Si7 0.920673 0.564392 0.144438
Si Si8 0.375332 0.672880 0.195588
O O1 0.976620 0.866674 0.320129
O O2 0.251376 0.825947 0.163067
O O3 0.143608 0.252865 0.957517
O O4 0.365102 0.141553 0.927779
O O5 0.980729 0.114726 0.013752
O O6 0.000537 0.179410 0.096789
O O7 0.326036 0.221132 0.409514
O O8 0.462692 0.333364 0.424062
O O9 0.731998 0.251863 0.264825
O O10 0.111627 0.369902 0.890304
O O11 0.444864 0.350246 0.828977
O O12 0.076006 0.401609 0.000657
O O13 0.330435 0.933565 0.933840
O O14 0.349709 0.026129 0.652353
O O15 0.791368 0.596623 0.240319
#
# Coordination Sequence:
#
# PCOD9265428 Si02
#       8
#     4   8   8   8   8   8   8   8
#     4  12  22  38  66  90 132 154 210 282 322 382
#     4  11  22  42  67  92 124 175 218 270 325 392
#     4  10  19  36  61 100 122 162 211 276 325 375
#     4  11  21  40  68  95 125 166 218 278 323 388
#     4  10  21  37  62  86 130 166 211 259 321 395
#     4  11  25  40  62  91 133 168 216 259 339 398
#     4  11  24  40  59  97 128 173 214 263 330 394
#     4  10  21  36  64  91 129 161 211 263 326 382
#
# _framework density 22.816219
#
# number of rings (size 3 to 8) (size 9 to 14) (size 15 to 20)
#    0.000    1.333    0.000    8.800    1.867    2.133 
#    2.400    2.000    2.933    0.000    0.000    0.000 
#    0.000    0.000    0.000    0.000    0.000    0.000 
#
# Total GULP energy -167038.802200 kJ/mol
# GULP energy per Si atom -5567.960073 kJ/mol
# Density = 2.276429 g / cm^3
# Si number density = 22.816219 Si / 1000 Ang^3
#
#
#
# Elastic Constant Matrix: (Units=GPa)
#
#
# Indices 1 2 3 4 5 6 
#
# 1 159.9576 -3.8122 47.0782 -0.0010 -15.4745 0.0003
# 2 -3.8122 36.5208 4.4056 0.0023 7.6066 0.0002
# 3 47.0782 4.4056 121.6407 0.0053 -16.3357 0.0033
# 4 -0.0010 0.0023 0.0053 9.6762 0.0038 5.0547
# 5 -15.4745 7.6066 -16.3357 0.0038 40.2552 -0.0022
# 6 0.0003 0.0002 0.0033 5.0547 -0.0022 9.4677
#
#
#
# Elastic Compliance Matrix: (Units=1/GPa)
#
#
# Indices 1 2 3 4 5 6 
#
# 1 0.007185 0.000736 -0.002597 0.000001 0.001569 0.000000
# 2 0.000736 0.028981 -0.002149 -0.000004 -0.006065 0.000001
# 3 -0.002597 -0.002149 0.009756 -0.000007 0.003367 0.000001
# 4 0.000001 -0.000004 -0.000007 0.143317 -0.000019 -0.076515
# 5 0.001569 -0.006065 0.003367 -0.000019 0.027957 0.000016
# 6 0.000000 0.000001 0.000001 -0.076515 0.000016 0.146473
#
#
# Mechanical properties :
#
#
# Convention : Reuss Voigt Hill
#
# Bulk Modulus (GPa) = 26.38298 45.94025 36.16161
# Shear Modulus (GPa) = 13.00989 29.90966 21.45977
#
# Velocity S-wave (km/s) = 2.39048 3.62456 3.07016
# Velocity P-wave (km/s) = 4.38264 6.13964 5.33398
#
# Compressibility (1/GPa) = 0.03790323
#
# Stress axis : x y z
#
# Youngs Moduli (GPa) = 139.17300 34.50519 102.50131
#
# Poissons Ratio (x) = -0.02541 0.26618
# Poissons Ratio (y) = -0.10250 0.22030
# Poissons Ratio (z) = 0.36141 0.07416
#
# Static dielectric constant tensor:
#      x y z
#    x 1.859360 0.000000 -0.032670 
#    y 0.000000 1.956040 0.000000 
#    z -0.032670 0.000000 1.863350 
# 
# From -- ./inp_files/293515.got.cif
#   From: 2010.05.17/outbox.cif.g08.bks.cpg/sg15_147_cif.got.tgz:293515.got - 2010.06.03 18:47:42.
