data_PCOD9265622
_publ_section_title
;
Structure prediction by ZEFSAII (Michael W. Deem and Ramdas Pophale) SiO2 
 PCOD9265622
Probable space group: C 2/C
;
_chemical_formula_sum "Si O2"
_cell_formula_units_Z 52
_cell_length_a 24.983795
_cell_length_b 14.661265
_cell_length_c 7.257935
_cell_angle_alpha 90.000000
_cell_angle_beta 118.526805
_cell_angle_gamma 90.000000
_cell_volume 2335.775251
_symmetry_space_group_name_H-M "C 2/C"
_symmetry_group_IT_number 15
_symmetry_cell_setting 'monoclinic'
loop_
_space_group_symop_operation_xyz
x,y,z
-x,y,1/2-z
-x,-y,-z
x,-y,1/2+z
1/2+x,1/2+y,z
1/2-x,1/2+y,1/2-z
1/2-x,1/2-y,-z
1/2+x,1/2-y,1/2+z
loop_
_atom_site_type_symbol
_atom_site_label
_atom_site_fract_x
_atom_site_fract_y
_atom_site_fract_z
Si Si1 0.000000 0.737286 0.750000
Si Si2 0.091635 0.750517 0.208037
Si Si3 0.196199 0.884969 0.420329
Si Si4 0.196942 0.384853 0.369514
Si Si5 0.904794 0.749967 0.868155
Si Si6 0.328010 0.592055 0.188224
Si Si7 0.327679 0.907283 0.741587
O O1 0.051166 0.694832 0.697981
O O2 0.958477 0.781420 0.521534
O O3 0.154275 0.805277 0.275266
O O4 0.071846 0.763928 0.386722
O O5 0.111351 0.644822 0.216838
O O6 0.187025 0.884520 0.625426
O O7 0.269131 0.880799 0.518193
O O8 0.170055 0.982943 0.315983
O O9 0.158337 0.304676 0.218792
O O10 0.269949 0.381034 0.467189
O O11 0.185332 0.379965 0.569590
O O12 0.172522 0.483155 0.265079
O O13 0.887375 0.847406 0.748341
#
# Coordination Sequence:
#
# PCOD9265622 Si02
#       7
#     4   8   8   8   8   8   8
#     4  12  26  44  64  82 120 170 216 252 300 352
#     4  11  23  42  64  88 124 161 210 252 302 358
#     4   9  20  35  62  96 128 157 195 249 311 369
#     4  10  19  36  62  97 129 158 194 249 312 369
#     4  11  23  42  64  88 124 161 210 252 302 358
#     4   9  20  35  62  96 128 157 195 249 311 369
#     4  10  19  36  62  97 129 158 194 249 312 369
#
# _framework density 22.262414
#
# number of rings (size 3 to 8) (size 9 to 14) (size 15 to 20)
#    0.000    1.846    1.538    2.308    2.154    1.231 
#    0.000    1.538    0.000    0.000    0.000    0.000 
#    0.000    0.000    0.000    0.000    0.000    0.000 
#
# Total GULP energy -145097.242817 kJ/mol
# GULP energy per Si atom -5580.663185 kJ/mol
# Density = 2.221174 g / cm^3
# Si number density = 22.262414 Si / 1000 Ang^3
#
#
#
# Elastic Constant Matrix: (Units=GPa)
#
#
# Indices 1 2 3 4 5 6 
#
# 1 62.4951 20.2300 16.8631 0.0000 -11.8808 0.0000
# 2 20.2300 76.1133 45.9450 0.0000 15.9093 0.0000
# 3 16.8631 45.9450 126.1954 0.0000 -6.1948 0.0000
# 4 0.0000 0.0000 0.0000 -11.2084 0.0000 -13.1413
# 5 -11.8808 15.9093 -6.1948 0.0000 28.3577 0.0000
# 6 0.0000 0.0000 0.0000 -13.1413 0.0000 7.9974
#
#
#
# Elastic Compliance Matrix: (Units=1/GPa)
#
#
# Indices 1 2 3 4 5 6 
#
# 1 0.021548 -0.009614 0.001343 0.000000 0.014715 0.000000
# 2 -0.009614 0.025287 -0.008911 0.000000 -0.020161 0.000000
# 3 0.001343 -0.008911 0.011384 0.000000 0.008049 0.000000
# 4 0.000000 0.000000 0.000000 -0.030486 0.000000 -0.050094
# 5 0.014715 -0.020161 0.008049 0.000000 0.054498 0.000000
# 6 0.000000 0.000000 0.000000 -0.050094 0.000000 0.042726
#
#
# Mechanical properties :
#
#
# Convention : Reuss Voigt Hill
#
# Bulk Modulus (GPa) = 41.91939 47.87556 44.89748
# Shear Modulus (GPa) = 29.89112 17.14704 23.51908
#
# Velocity S-wave (km/s) = 3.66822 2.77830 3.25383
# Velocity P-wave (km/s) = 6.06726 5.64303 5.85899
#
# Compressibility (1/GPa) = 0.02385531
#
# Stress axis : x y z
#
# Youngs Moduli (GPa) = 46.40743 39.54615 87.83995
#
# Poissons Ratio (x) = 0.38018 -0.11797
# Poissons Ratio (y) = 0.44615 0.78278
# Poissons Ratio (z) = -0.06233 0.35241
#
# Static dielectric constant tensor:
#      x y z
#    x 1.889760 0.000000 0.002620 
#    y 0.000000 1.804290 0.000000 
#    z 0.002620 0.000000 1.848410 
# 
# From -- ./inp_files/66326.got.cif
#   From: 2010.05.17/outbox.cif.g08.bks.cpg/sg15_34_cif.got.tgz:66326.got - 2010.06.03 18:47:42.
