data_PCOD9265539
_publ_section_title
;
Structure prediction by ZEFSAII (Michael W. Deem and Ramdas Pophale) SiO2 
 PCOD9265539
Probable space group: C 2/C
;
_chemical_formula_sum "Si O2"
_cell_formula_units_Z 56
_cell_length_a 5.329524
_cell_length_b 21.231199
_cell_length_c 25.321751
_cell_angle_alpha 90.000000
_cell_angle_beta 62.967261
_cell_angle_gamma 90.000000
_cell_volume 2552.178404
_symmetry_space_group_name_H-M "C 2/C"
_symmetry_group_IT_number 15
_symmetry_cell_setting 'monoclinic'
loop_
_space_group_symop_operation_xyz
x,y,z
-x,y,1/2-z
-x,-y,-z
x,-y,1/2+z
1/2+x,1/2+y,z
1/2-x,1/2+y,1/2-z
1/2-x,1/2-y,-z
1/2+x,1/2-y,1/2+z
loop_
_atom_site_type_symbol
_atom_site_label
_atom_site_fract_x
_atom_site_fract_y
_atom_site_fract_z
Si Si1 0.855137 0.927981 0.183957
Si Si2 0.850393 0.479615 0.182479
Si Si3 0.821173 0.783879 0.213819
Si Si4 0.495825 0.561651 0.036272
Si Si5 0.672633 0.086239 0.390212
Si Si6 0.922267 0.805386 0.011711
Si Si7 0.475075 0.777357 0.597999
O O1 0.679237 0.962194 0.155229
O O2 0.756491 0.960768 0.248801
O O3 0.789686 0.854693 0.194358
O O4 0.189592 0.936922 0.154784
O O5 0.772943 0.549373 0.169889
O O6 0.500000 0.759669 0.250000
O O7 0.000000 0.788365 0.250000
O O8 0.994083 0.740793 0.156859
O O9 0.652958 0.557124 0.077788
O O10 0.644966 0.622544 0.994646
O O11 0.163294 0.576635 0.072576
O O12 0.500000 0.500000 0.000000
O O13 0.723292 0.161310 0.386866
O O14 0.236957 0.795611 0.958881
O O15 0.750000 0.750000 0.000000
O O16 0.885079 0.785859 0.075966
#
# Coordination Sequence:
#
# PCOD9265539 Si02
#       7
#     8   8   8   8   8   8   8
#     4  10  19  40  59  88 126 165 219 264 329 393
#     4  10  19  36  62  83 119 171 202 265 325 381
#     4  12  24  44  65  97 140 168 226 289 326 410
#     4  11  24  43  64 100 132 165 220 287 333 405
#     4  11  23  42  63  91 136 167 222 269 338 409
#     4  10  21  46  72  94 137 180 232 280 349 412
#     4  10  25  42  69 100 129 190 225 282 342 417
#
# _framework density 21.942039999999999
#
# number of rings (size 3 to 8) (size 9 to 14) (size 15 to 20)
#    0.000    1.429    4.286    1.286    2.000    2.286 
#    7.714    0.000    0.000    0.000    0.000    0.000 
#    0.000    0.000    0.000    0.000    0.000    0.000 
#
# Total GULP energy -156081.282360 kJ/mol
# GULP energy per Si atom -5574.331513 kJ/mol
# Density = 2.189210 g / cm^3
# Si number density = 21.942040 Si / 1000 Ang^3
#
#
#
# Elastic Constant Matrix: (Units=GPa)
#
#
# Indices 1 2 3 4 5 6 
#
# 1 128.2314 8.2725 17.9242 0.0000 33.0085 0.0000
# 2 8.2725 105.7148 54.1682 0.0000 23.6789 0.0000
# 3 17.9242 54.1682 66.7569 0.0000 22.6443 0.0000
# 4 0.0000 0.0000 0.0000 10.3488 0.0000 5.3623
# 5 33.0085 23.6789 22.6443 0.0000 26.1162 0.0000
# 6 0.0000 0.0000 0.0000 5.3623 0.0000 24.2918
#
#
#
# Elastic Compliance Matrix: (Units=1/GPa)
#
#
# Indices 1 2 3 4 5 6 
#
# 1 0.012373 0.002880 0.000753 0.000000 -0.018902 0.000000
# 2 0.002880 0.017272 -0.011675 0.000000 -0.009177 0.000000
# 3 0.000753 -0.011675 0.029726 0.000000 -0.016140 0.000000
# 4 0.000000 0.000000 0.000000 0.109110 0.000000 -0.024086
# 5 -0.018902 -0.009177 -0.016140 0.000000 0.084495 0.000000
# 6 0.000000 0.000000 0.000000 -0.024086 0.000000 0.046483
#
#
# Mechanical properties :
#
#
# Convention : Reuss Voigt Hill
#
# Bulk Modulus (GPa) = 23.10240 51.27034 37.18637
# Shear Modulus (GPa) = 15.15273 26.84057 20.99665
#
# Velocity S-wave (km/s) = 2.63074 3.50129 3.09676
# Velocity P-wave (km/s) = 4.44740 6.30574 5.45627
#
# Compressibility (1/GPa) = 0.04328555
#
# Stress axis : x y z
#
# Youngs Moduli (GPa) = 80.82063 57.89712 33.64062
#
# Poissons Ratio (x) = -0.16674 -0.02532
# Poissons Ratio (y) = -0.23276 0.39277
# Poissons Ratio (z) = -0.06083 0.67597
#
# Static dielectric constant tensor:
#      x y z
#    x 1.696080 0.000000 -0.049110 
#    y 0.000000 1.890670 0.000000 
#    z -0.049110 0.000000 1.959280 
# 
# From -- ./inp_files/286013.got.cif
#   From: 2010.05.17/outbox.cif.g08.bks.cpg/sg15_144_cif.got.tgz:286013.got - 2010.06.03 18:47:42.
