data_PCOD9265551
_publ_section_title
;
Structure prediction by ZEFSAII (Michael W. Deem and Ramdas Pophale) SiO2 
 PCOD9265551
Probable space group: C 2/C
;
_chemical_formula_sum "Si O2"
_cell_formula_units_Z 56
_cell_length_a 14.332292
_cell_length_b 15.146803
_cell_length_c 18.107602
_cell_angle_alpha 90.000000
_cell_angle_beta 46.499771
_cell_angle_gamma 90.000000
_cell_volume 2851.399865
_symmetry_space_group_name_H-M "C 2/C"
_symmetry_group_IT_number 15
_symmetry_cell_setting 'monoclinic'
loop_
_space_group_symop_operation_xyz
x,y,z
-x,y,1/2-z
-x,-y,-z
x,-y,1/2+z
1/2+x,1/2+y,z
1/2-x,1/2+y,1/2-z
1/2-x,1/2-y,-z
1/2+x,1/2-y,1/2+z
loop_
_atom_site_type_symbol
_atom_site_label
_atom_site_fract_x
_atom_site_fract_y
_atom_site_fract_z
Si Si1 0.593699 0.747815 0.388785
Si Si2 0.493293 0.596382 0.972317
Si Si3 0.279194 0.156314 0.794816
Si Si4 0.593608 0.668131 0.629440
Si Si5 0.501937 0.018574 0.835831
Si Si6 0.397652 0.153866 0.470438
Si Si7 0.873272 0.701471 0.901441
O O1 0.601265 0.655476 0.426162
O O2 0.719438 0.781059 0.277519
O O3 0.553423 0.815001 0.475919
O O4 0.488341 0.749519 0.381571
O O5 0.636088 0.636790 0.898210
O O6 0.449183 0.602176 0.912204
O O7 0.500000 0.500000 0.000000
O O8 0.360956 0.068658 0.727938
O O9 0.354762 0.198859 0.823094
O O10 0.500000 0.661736 0.750000
O O11 0.583470 0.765812 0.598002
O O12 0.742965 0.647600 0.564226
O O13 0.500000 0.993846 0.750000
O O14 0.398573 0.097654 0.904824
O O15 0.465273 0.934463 0.904438
O O16 0.750000 0.750000 0.000000
#
# Coordination Sequence:
#
# PCOD9265551 Si02
#       7
#     8   8   8   8   8   8   8
#     4  10  21  40  61  89 120 158 202 249 304 363
#     4  11  24  41  63  92 124 161 201 253 310 366
#     4  10  21  40  61  89 123 153 205 250 300 372
#     4  10  22  40  61  87 127 165 199 251 308 366
#     4   9  20  35  62  90 114 159 201 252 297 359
#     4  10  21  38  62  91 121 160 208 249 302 363
#     4  10  19  36  62  86 121 159 192 252 306 353
#
# _framework density 19.639476999999999
#
# number of rings (size 3 to 8) (size 9 to 14) (size 15 to 20)
#    0.000    2.000    1.429    2.571    4.000    2.286 
#    7.714    4.286    0.000    0.857    0.000    0.000 
#    0.000    0.000    0.000    0.000    0.000    0.000 
#
# Total GULP energy -156139.313850 kJ/mol
# GULP energy per Si atom -5576.404066 kJ/mol
# Density = 1.959478 g / cm^3
# Si number density = 19.639477 Si / 1000 Ang^3
#
#
#
# Elastic Constant Matrix: (Units=GPa)
#
#
# Indices 1 2 3 4 5 6 
#
# 1 63.5890 -6.1654 24.3150 0.0000 6.0577 0.0000
# 2 -6.1654 71.3021 47.0034 0.0000 16.0812 0.0000
# 3 24.3150 47.0034 102.2556 0.0000 13.6378 0.0000
# 4 0.0000 0.0000 0.0000 21.9330 0.0000 1.5804
# 5 6.0577 16.0812 13.6378 0.0000 28.4860 0.0000
# 6 0.0000 0.0000 0.0000 1.5804 0.0000 16.5834
#
#
#
# Elastic Compliance Matrix: (Units=1/GPa)
#
#
# Indices 1 2 3 4 5 6 
#
# 1 0.019928 0.007947 -0.007721 0.000000 -0.005027 0.000000
# 2 0.007947 0.024868 -0.011988 0.000000 -0.009989 0.000000
# 3 -0.007721 -0.011988 0.017096 0.000000 0.000225 0.000000
# 4 0.000000 0.000000 0.000000 0.045909 0.000000 -0.004375
# 5 -0.005027 -0.009989 0.000225 0.000000 0.041705 0.000000
# 6 0.000000 0.000000 0.000000 -0.004375 0.000000 0.060718
#
#
# Mechanical properties :
#
#
# Convention : Reuss Voigt Hill
#
# Bulk Modulus (GPa) = 26.06441 40.82809 33.44625
# Shear Modulus (GPa) = 20.28092 24.86672 22.57382
#
# Velocity S-wave (km/s) = 3.21699 3.56217 3.39397
# Velocity P-wave (km/s) = 5.20567 6.14432 5.69437
#
# Compressibility (1/GPa) = 0.03836649
#
# Stress axis : x y z
#
# Youngs Moduli (GPa) = 50.18145 40.21299 58.49364
#
# Poissons Ratio (x) = -0.31956 0.45162
# Poissons Ratio (y) = -0.39877 0.70123
# Poissons Ratio (z) = 0.38744 0.48208
#
# Static dielectric constant tensor:
#      x y z
#    x 1.722600 0.000000 -0.025300 
#    y 0.000000 1.675780 0.000000 
#    z -0.025300 0.000000 1.728050 
# 
# From -- ./inp_files/205328.got.cif
#   From: 2010.05.17/outbox.cif.g08.bks.cpg/sg15_103_cif.got.tgz:205328.got - 2010.06.03 18:47:42.
