data_PCOD9265456
_publ_section_title
;
Structure prediction by ZEFSAII (Michael W. Deem and Ramdas Pophale) SiO2 
 PCOD9265456
Probable space group: C 2/C
;
_chemical_formula_sum "Si O2"
_cell_formula_units_Z 64
_cell_length_a 13.294220
_cell_length_b 13.835369
_cell_length_c 14.397052
_cell_angle_alpha 90.000000
_cell_angle_beta 105.003305
_cell_angle_gamma 90.000000
_cell_volume 2557.786237
_symmetry_space_group_name_H-M "C 2/C"
_symmetry_group_IT_number 15
_symmetry_cell_setting 'monoclinic'
loop_
_space_group_symop_operation_xyz
x,y,z
-x,y,1/2-z
-x,-y,-z
x,-y,1/2+z
1/2+x,1/2+y,z
1/2-x,1/2+y,1/2-z
1/2-x,1/2-y,-z
1/2+x,1/2-y,1/2+z
loop_
_atom_site_type_symbol
_atom_site_label
_atom_site_fract_x
_atom_site_fract_y
_atom_site_fract_z
Si Si1 0.495343 0.359997 0.099553
Si Si2 0.914681 0.498839 0.096307
Si Si3 0.513053 0.590096 0.388258
Si Si4 0.782391 0.850784 0.308773
Si Si5 0.301170 0.339041 0.751811
Si Si6 0.238588 0.133765 0.492746
Si Si7 0.826620 0.292616 0.592318
Si Si8 0.353302 0.004827 0.802801
O O1 0.491686 0.474017 0.119792
O O2 0.600450 0.315540 0.168302
O O3 0.407952 0.293603 0.122542
O O4 0.489973 0.362769 0.984984
O O5 0.847654 0.424459 0.017710
O O6 0.883288 0.609834 0.070642
O O7 0.886244 0.489741 0.200608
O O8 0.038450 0.481775 0.118772
O O9 0.417351 0.625364 0.301491
O O10 0.636376 0.613049 0.405864
O O11 0.701494 0.764075 0.298380
O O12 0.793906 0.904025 0.411042
O O13 0.736896 0.914597 0.215682
O O14 0.244262 0.317904 0.836829
O O15 0.211981 0.409321 0.689275
O O16 0.250000 0.250000 0.500000
O O17 0.750000 0.250000 0.500000
#
# Coordination Sequence:
#
# PCOD9265456 Si02
#       8
#     8   8   8   8   8   8   8   8
#     4  10  19  36  61  87 114 153 195 244 288 360
#     4   9  19  34  57  82 112 149 195 246 281 342
#     4  10  20  36  61  85 118 154 198 239 297 358
#     4  10  21  36  60  82 114 152 195 236 300 359
#     4  11  21  36  59  88 118 154 192 246 300 358
#     4  10  22  39  59  84 112 156 205 243 289 357
#     4  11  20  34  59  90 116 147 197 244 299 351
#     4   9  18  36  55  81 110 149 195 234 285 351
#
# _framework density 25.021636999999998
#
# number of rings (size 3 to 8) (size 9 to 14) (size 15 to 20)
#    0.000    2.000    2.500    1.500    5.250    1.500 
#    0.000    2.500    2.750    3.000    0.000    0.000 
#    0.000    0.000    0.000    0.000    0.000    0.000 
#
# Total GULP energy -178632.624732 kJ/mol
# GULP energy per Si atom -5582.269523 kJ/mol
# Density = 2.496469 g / cm^3
# Si number density = 25.021637 Si / 1000 Ang^3
#
#
#
# Elastic Constant Matrix: (Units=GPa)
#
#
# Indices 1 2 3 4 5 6 
#
# 1 110.1480 7.2051 48.6701 0.0000 37.0590 0.0000
# 2 7.2051 95.6355 41.9405 0.0000 24.4463 0.0000
# 3 48.6701 41.9405 176.7063 0.0000 55.1358 0.0000
# 4 0.0000 0.0000 0.0000 35.9836 0.0000 13.5136
# 5 37.0590 24.4463 55.1358 0.0000 55.1113 0.0000
# 6 0.0000 0.0000 0.0000 13.5136 0.0000 30.5580
#
#
#
# Elastic Compliance Matrix: (Units=1/GPa)
#
#
# Indices 1 2 3 4 5 6 
#
# 1 0.012095 0.001603 -0.001384 0.000000 -0.007459 0.000000
# 2 0.001603 0.012366 -0.001932 0.000000 -0.004631 0.000000
# 3 -0.001384 -0.001932 0.008637 0.000000 -0.006853 0.000000
# 4 0.000000 0.000000 0.000000 0.033325 0.000000 -0.014737
# 5 -0.007459 -0.004631 -0.006853 0.000000 0.032071 0.000000
# 6 0.000000 0.000000 0.000000 -0.014737 0.000000 0.039242
#
#
# Mechanical properties :
#
#
# Convention : Reuss Voigt Hill
#
# Bulk Modulus (GPa) = 33.70184 64.23568 48.96876
# Shear Modulus (GPa) = 33.10063 43.30887 38.20475
#
# Velocity S-wave (km/s) = 3.64109 4.16487 3.91176
# Velocity P-wave (km/s) = 5.58346 6.98971 6.32578
#
# Compressibility (1/GPa) = 0.02967197
#
# Stress axis : x y z
#
# Youngs Moduli (GPa) = 82.67774 80.86407 115.77776
#
# Poissons Ratio (x) = -0.12959 0.16027
# Poissons Ratio (y) = -0.13250 0.22365
# Poissons Ratio (z) = 0.11445 0.15620
#
# Static dielectric constant tensor:
#      x y z
#    x 2.317310 0.000000 0.271010 
#    y 0.000000 2.042550 0.000000 
#    z 0.271010 0.000000 2.643190 
# 
# From -- ./inp_files/277103.got.cif
#   From: 2010.05.17/outbox.cif.g08.bks.cpg/sg15_139_cif.got.tgz:277103.got - 2010.06.03 18:47:42.
