data_PCOD9265243
_publ_section_title
;
Structure prediction by ZEFSAII (Michael W. Deem and Ramdas Pophale) SiO2 
 PCOD9265243
Probable space group: C 2/C
;
_chemical_formula_sum "Si O2"
_cell_formula_units_Z 56
_cell_length_a 19.291440
_cell_length_b 9.138742
_cell_length_c 21.606140
_cell_angle_alpha 90.000000
_cell_angle_beta 50.270347
_cell_angle_gamma 90.000000
_cell_volume 2929.499832
_symmetry_space_group_name_H-M "C 2/C"
_symmetry_group_IT_number 15
_symmetry_cell_setting 'monoclinic'
loop_
_space_group_symop_operation_xyz
x,y,z
-x,y,1/2-z
-x,-y,-z
x,-y,1/2+z
1/2+x,1/2+y,z
1/2-x,1/2+y,1/2-z
1/2-x,1/2-y,-z
1/2+x,1/2-y,1/2+z
loop_
_atom_site_type_symbol
_atom_site_label
_atom_site_fract_x
_atom_site_fract_y
_atom_site_fract_z
Si Si1 0.667537 0.763128 0.805223
Si Si2 0.750375 0.580061 0.922212
Si Si3 0.305937 0.608240 0.413303
Si Si4 0.085482 0.069787 0.744175
Si Si5 0.431567 0.373667 0.024556
Si Si6 0.158697 0.576070 0.752032
Si Si7 0.496096 0.712428 0.358766
O O1 0.627237 0.686200 0.766895
O O2 0.599994 0.721366 0.899476
O O3 0.764433 0.692412 0.769073
O O4 0.670200 0.934810 0.788791
O O5 0.748880 0.757913 0.919577
O O6 0.654543 0.536078 0.950686
O O7 0.821915 0.531604 0.830680
O O8 0.747016 0.545833 0.996905
O O9 0.337627 0.490924 0.345773
O O10 0.398883 0.691531 0.381272
O O11 0.000000 0.116512 0.750000
O O12 0.049717 0.932504 0.805623
O O13 0.500000 0.500000 0.000000
O O14 0.473049 0.284623 0.944107
O O15 0.061170 0.652398 0.807651
#
# Coordination Sequence:
#
# PCOD9265243 Si02
#       7
#     8   8   8   8   8   8   8
#     4  11  24  39  59  85 119 156 194 247 295 345
#     4   9  19  34  58  90 112 150 191 239 286 344
#     4   9  18  35  62  85 114 151 195 231 285 354
#     4  10  19  36  59  85 113 155 192 233 290 353
#     4  10  20  35  61  84 116 152 198 239 289 348
#     4  11  23  38  60  88 118 152 199 247 293 342
#     4  10  19  36  62  87 113 152 194 238 286 348
#
# _framework density 19.11589
#
# number of rings (size 3 to 8) (size 9 to 14) (size 15 to 20)
#    0.000    2.000    2.857    0.857    4.000    0.571 
#    2.571    0.714    0.000    0.000    0.000    0.000 
#    0.000    0.000    0.000    0.000    0.000    0.000 
#
# Total GULP energy -156038.703693 kJ/mol
# GULP energy per Si atom -5572.810846 kJ/mol
# Density = 1.907238 g / cm^3
# Si number density = 19.115890 Si / 1000 Ang^3
#
#
#
# Elastic Constant Matrix: (Units=GPa)
#
#
# Indices 1 2 3 4 5 6 
#
# 1 59.0364 22.1641 22.0788 0.0000 6.7898 0.0000
# 2 22.1641 52.4898 24.5878 0.0000 -1.5813 0.0001
# 3 22.0788 24.5878 150.1834 0.0000 11.7544 0.0000
# 4 0.0000 0.0000 0.0000 14.1027 0.0000 0.3375
# 5 6.7898 -1.5813 11.7544 0.0000 26.6218 0.0000
# 6 0.0000 0.0001 0.0000 0.3375 0.0000 27.0298
#
#
#
# Elastic Compliance Matrix: (Units=1/GPa)
#
#
# Indices 1 2 3 4 5 6 
#
# 1 0.021241 -0.008516 -0.001310 0.000000 -0.005345 0.000000
# 2 -0.008516 0.024254 -0.003109 0.000000 0.004985 0.000000
# 3 -0.001310 -0.003109 0.007611 0.000000 -0.003211 0.000000
# 4 0.000000 0.000000 0.000000 0.070930 0.000000 -0.000886
# 5 -0.005345 0.004985 -0.003211 0.000000 0.040640 0.000000
# 6 0.000000 0.000000 0.000000 -0.000886 0.000000 0.037007
#
#
# Mechanical properties :
#
#
# Convention : Reuss Voigt Hill
#
# Bulk Modulus (GPa) = 36.71712 44.37459 40.54585
# Shear Modulus (GPa) = 21.12981 26.40945 23.76963
#
# Velocity S-wave (km/s) = 3.32829 3.72095 3.53008
# Velocity P-wave (km/s) = 5.83261 6.45945 6.15402
#
# Compressibility (1/GPa) = 0.02723525
#
# Stress axis : x y z
#
# Youngs Moduli (GPa) = 47.07956 41.23041 131.38091
#
# Poissons Ratio (x) = 0.35113 0.17211
# Poissons Ratio (y) = 0.40095 0.40847
# Poissons Ratio (z) = 0.06168 0.12819
#
# Static dielectric constant tensor:
#      x y z
#    x 1.743080 0.000000 0.001760 
#    y 0.000000 1.691760 0.000000 
#    z 0.001760 0.000000 1.714350 
# 
# From -- ./inp_files/251813.got.cif
#   From: 2010.05.17/outbox.cif.g08.bks.cpg/sg15_126_cif.got.tgz:251813.got - 2010.06.03 18:47:42.
