data_PCOD9265352
_publ_section_title
;
Structure prediction by ZEFSAII (Michael W. Deem and Ramdas Pophale) SiO2 
 PCOD9265352
Probable space group: C 2/C
;
_chemical_formula_sum "Si O2"
_cell_formula_units_Z 56
_cell_length_a 9.033682
_cell_length_b 16.551975
_cell_length_c 17.731667
_cell_angle_alpha 90.000000
_cell_angle_beta 72.201639
_cell_angle_gamma 90.000000
_cell_volume 2524.434738
_symmetry_space_group_name_H-M "C 2/C"
_symmetry_group_IT_number 15
_symmetry_cell_setting 'monoclinic'
loop_
_space_group_symop_operation_xyz
x,y,z
-x,y,1/2-z
-x,-y,-z
x,-y,1/2+z
1/2+x,1/2+y,z
1/2-x,1/2+y,1/2-z
1/2-x,1/2-y,-z
1/2+x,1/2-y,1/2+z
loop_
_atom_site_type_symbol
_atom_site_label
_atom_site_fract_x
_atom_site_fract_y
_atom_site_fract_z
Si Si1 0.394068 0.935818 0.427258
Si Si2 0.526265 0.821312 0.948910
Si Si3 0.000000 0.001283 0.750000
Si Si4 0.912298 0.864336 0.037347
Si Si5 0.754517 0.091093 0.975797
Si Si6 0.000000 0.722340 0.750000
Si Si7 0.697897 0.094509 0.810088
Si Si8 0.149225 0.137339 0.130865
O O1 0.448570 0.860844 0.471555
O O2 0.540099 0.957178 0.352044
O O3 0.243195 0.905031 0.406275
O O4 0.335864 0.008177 0.490116
O O5 0.666008 0.863206 0.881536
O O6 0.557338 0.726692 0.940628
O O7 0.347743 0.843671 0.961698
O O8 0.935550 0.941242 0.824096
O O9 0.849221 0.053173 0.750493
O O10 0.878661 0.858830 0.953565
O O11 0.068978 0.913308 0.026198
O O12 0.756039 0.111973 0.886893
O O13 0.872651 0.668400 0.726199
O O14 0.919282 0.782255 0.821691
#
# Coordination Sequence:
#
# PCOD9265352 Si02
#       8
#     8   8   4   8   8   4   8   8
#     4  10  20  38  62  86 118 153 191 242 296 351
#     4  10  19  36  60  86 117 152 192 246 293 340
#     4  11  24  40  60  83 124 160 194 245 276 352
#     4  11  21  36  64  94 116 146 192 255 301 339
#     4  11  22  37  63  94 120 143 189 262 304 328
#     4  11  24  40  62  79 120 170 200 229 272 376
#     4  11  23  40  58  88 116 157 201 235 293 345
#     4  10  21  41  60  85 117 162 201 226 293 360
#
# _framework density 22.183183
#
# number of rings (size 3 to 8) (size 9 to 14) (size 15 to 20)
#    0.000    1.429    0.000    9.429    0.000    3.429 
#    0.000    0.000    0.000    3.429    0.000    0.000 
#    0.000    0.000    0.000    0.000    0.000    0.000 
#
# Total GULP energy -156374.217677 kJ/mol
# GULP energy per Si atom -5584.793488 kJ/mol
# Density = 2.213269 g / cm^3
# Si number density = 22.183183 Si / 1000 Ang^3
#
#
#
# Elastic Constant Matrix: (Units=GPa)
#
#
# Indices 1 2 3 4 5 6 
#
# 1 113.9626 45.9034 31.6573 0.0000 -37.0048 0.0000
# 2 45.9034 95.5395 23.8215 0.0000 -9.8114 0.0000
# 3 31.6573 23.8215 72.6552 0.0000 -19.7894 0.0000
# 4 0.0000 0.0000 0.0000 20.5500 0.0000 -10.8811
# 5 -37.0048 -9.8114 -19.7894 0.0000 46.9779 0.0000
# 6 0.0000 0.0000 0.0000 -10.8811 0.0000 37.1810
#
#
#
# Elastic Compliance Matrix: (Units=1/GPa)
#
#
# Indices 1 2 3 4 5 6 
#
# 1 0.014673 -0.005579 -0.001958 0.000000 0.009568 0.000000
# 2 -0.005579 0.013555 -0.002755 0.000000 -0.002724 0.000000
# 3 -0.001958 -0.002755 0.016880 0.000000 0.004993 0.000000
# 4 0.000000 0.000000 0.000000 0.057585 0.000000 0.016852
# 5 0.009568 -0.002724 0.004993 0.000000 0.030357 0.000000
# 6 0.000000 0.000000 0.000000 0.016852 0.000000 0.031827
#
#
# Mechanical properties :
#
#
# Convention : Reuss Voigt Hill
#
# Bulk Modulus (GPa) = 40.77833 53.88018 47.32926
# Shear Modulus (GPa) = 25.82166 32.99347 29.40756
#
# Velocity S-wave (km/s) = 3.41547 3.86076 3.64492
# Velocity P-wave (km/s) = 5.82893 6.64947 6.25267
#
# Compressibility (1/GPa) = 0.02452283
#
# Stress axis : x y z
#
# Youngs Moduli (GPa) = 68.15428 73.77586 59.24131
#
# Poissons Ratio (x) = 0.41159 0.11599
# Poissons Ratio (y) = 0.38023 0.16323
# Poissons Ratio (z) = 0.13344 0.20328
#
# Static dielectric constant tensor:
#      x y z
#    x 1.855140 0.000000 -0.038470 
#    y 0.000000 1.840420 0.000000 
#    z -0.038470 0.000000 1.864790 
# 
# From -- ./inp_files/232845.got.cif
#   From: 2010.05.17/outbox.cif.g08.bks.cpg/sg15_117_cif.got.tgz:232845.got - 2010.06.03 18:47:42.
