data_PCOD9265572
_publ_section_title
;
Structure prediction by ZEFSAII (Michael W. Deem and Ramdas Pophale) SiO2 
 PCOD9265572
Probable space group: C 2/C
;
_chemical_formula_sum "Si O2"
_cell_formula_units_Z 32
_cell_length_a 12.832019
_cell_length_b 4.891393
_cell_length_c 25.833495
_cell_angle_alpha 90.000000
_cell_angle_beta 128.778674
_cell_angle_gamma 90.000000
_cell_volume 1264.056451
_symmetry_space_group_name_H-M "C 2/C"
_symmetry_group_IT_number 15
_symmetry_cell_setting 'monoclinic'
loop_
_space_group_symop_operation_xyz
x,y,z
-x,y,1/2-z
-x,-y,-z
x,-y,1/2+z
1/2+x,1/2+y,z
1/2-x,1/2+y,1/2-z
1/2-x,1/2-y,-z
1/2+x,1/2-y,1/2+z
loop_
_atom_site_type_symbol
_atom_site_label
_atom_site_fract_x
_atom_site_fract_y
_atom_site_fract_z
Si Si1 0.170589 0.965447 0.466268
Si Si2 0.719992 0.091772 0.676927
Si Si3 0.919032 0.078881 0.820505
Si Si4 0.417793 0.722225 0.468043
O O1 0.250000 0.250000 0.500000
O O2 0.302445 0.777904 0.480353
O O3 0.039332 0.029736 0.472944
O O4 0.069598 0.918582 0.386868
O O5 0.867306 0.137364 0.746349
O O6 0.626496 0.267803 0.685901
O O7 0.685820 0.223419 0.611694
O O8 0.664912 0.784045 0.667671
O O9 0.500000 0.000000 0.500000
#
# Coordination Sequence:
#
# PCOD9265572 Si02
#       4
#     8   8   8   8
#     4  12  24  38  58  92 131 165 198 254 329 383
#     4  10  19  36  62  89 114 152 215 268 295 356
#     4  10  20  36  60  88 119 157 203 260 317 360
#     4  12  21  38  63  91 119 159 220 260 299 371
#
# _framework density 25.315328000000001
#
# number of rings (size 3 to 8) (size 9 to 14) (size 15 to 20)
#    0.000    1.000    5.000    3.000    0.000    0.000 
#    0.000    1.250    0.000    3.000    0.000    0.000 
#    0.000    0.000    0.000    0.000    0.000    0.000 
#
# Total GULP energy -89209.117064 kJ/mol
# GULP energy per Si atom -5575.569817 kJ/mol
# Density = 2.525771 g / cm^3
# Si number density = 25.315328 Si / 1000 Ang^3
#
#
#
# Elastic Constant Matrix: (Units=GPa)
#
#
# Indices 1 2 3 4 5 6 
#
# 1 157.6978 29.2381 111.8938 0.0000 16.0305 0.0000
# 2 29.2381 151.9823 100.0346 -0.0001 19.0316 0.0000
# 3 111.8938 100.0346 307.2184 0.0000 38.9987 0.0000
# 4 0.0000 -0.0001 0.0000 36.7723 0.0000 6.4073
# 5 16.0305 19.0316 38.9987 0.0000 54.3575 0.0000
# 6 0.0000 0.0000 0.0000 6.4073 0.0000 51.3903
#
#
#
# Elastic Compliance Matrix: (Units=1/GPa)
#
#
# Indices 1 2 3 4 5 6 
#
# 1 0.008590 0.000538 -0.003255 0.000000 -0.000387 0.000000
# 2 0.000538 0.008466 -0.002812 0.000000 -0.001105 0.000000
# 3 -0.003255 -0.002812 0.005621 0.000000 -0.002088 0.000000
# 4 0.000000 0.000000 0.000000 0.027798 0.000000 -0.003466
# 5 -0.000387 -0.001105 -0.002088 0.000000 0.020396 0.000000
# 6 0.000000 0.000000 0.000000 -0.003466 0.000000 0.019891
#
#
# Mechanical properties :
#
#
# Convention : Reuss Voigt Hill
#
# Bulk Modulus (GPa) = 86.06409 122.13684 104.10047
# Shear Modulus (GPa) = 47.30666 53.55283 50.42975
#
# Velocity S-wave (km/s) = 4.32753 4.60437 4.46810
# Velocity P-wave (km/s) = 7.68379 8.75317 8.23585
#
# Compressibility (1/GPa) = 0.01161925
#
# Stress axis : x y z
#
# Youngs Moduli (GPa) = 116.41130 118.12547 177.89454
#
# Poissons Ratio (x) = -0.06357 0.57902
# Poissons Ratio (y) = -0.06265 0.50028
# Poissons Ratio (z) = 0.37890 0.33220
#
# Static dielectric constant tensor:
#      x y z
#    x 2.333890 0.000010 0.045910 
#    y 0.000010 3.416680 0.000010 
#    z 0.045910 0.000010 2.262110 
# 
# From -- ./inp_files/241275.got.cif
#   From: 2010.05.17/outbox.cif.g08.bks.cpg/sg15_121_cif.got.tgz:241275.got - 2010.06.03 18:47:42.
