data_PCOD9265576
_publ_section_title
;
Structure prediction by ZEFSAII (Michael W. Deem and Ramdas Pophale) SiO2 
 PCOD9265576
Probable space group: C 2/C
;
_chemical_formula_sum "Si O2"
_cell_formula_units_Z 48
_cell_length_a 13.223861
_cell_length_b 34.110671
_cell_length_c 8.399033
_cell_angle_alpha 90.000000
_cell_angle_beta 142.981129
_cell_angle_gamma 90.000000
_cell_volume 2281.027944
_symmetry_space_group_name_H-M "C 2/C"
_symmetry_group_IT_number 15
_symmetry_cell_setting 'monoclinic'
loop_
_space_group_symop_operation_xyz
x,y,z
-x,y,1/2-z
-x,-y,-z
x,-y,1/2+z
1/2+x,1/2+y,z
1/2-x,1/2+y,1/2-z
1/2-x,1/2-y,-z
1/2+x,1/2-y,1/2+z
loop_
_atom_site_type_symbol
_atom_site_label
_atom_site_fract_x
_atom_site_fract_y
_atom_site_fract_z
Si Si1 0.537698 0.635432 0.113062
Si Si2 0.881758 0.669383 0.405300
Si Si3 0.360365 0.744288 0.983321
Si Si4 0.000000 0.007330 0.750000
Si Si5 0.000000 0.397829 0.250000
Si Si6 0.829395 0.053607 0.272950
Si Si7 0.835888 0.806721 0.153963
O O1 0.500000 0.634537 0.250000
O O2 0.713989 0.656528 0.291238
O O3 0.548906 0.590861 0.072008
O O4 0.399833 0.657449 0.838658
O O5 0.929740 0.713210 0.517459
O O6 0.008778 0.634238 0.613381
O O7 0.814658 0.677350 0.143393
O O8 0.293820 0.725669 0.735994
O O9 0.500000 0.718346 0.250000
O O10 0.250000 0.750000 0.000000
O O11 0.860319 0.033196 0.481923
O O12 0.103988 0.978902 0.764763
O O13 0.154440 0.426493 0.492920
O O14 0.000000 0.794803 0.250000
#
# Coordination Sequence:
#
# PCOD9265576 Si02
#       7
#     8   8   8   4   4   8   8
#     4  10  19  36  62  89 120 163 209 263 312 387
#     4  10  21  37  58  86 125 165 215 259 330 374
#     4  12  23  39  61  86 126 172 217 278 327 378
#     4  10  22  42  66 101 116 164 210 257 308 398
#     4  10  22  40  62  93 132 174 196 267 336 384
#     4  10  22  39  68  91 129 158 209 257 319 392
#     4  10  21  37  62  93 120 167 227 276 316 381
#
# _framework density 21.043144000000002
#
# number of rings (size 3 to 8) (size 9 to 14) (size 15 to 20)
#    0.000    1.667    1.667    4.000    5.833    0.667 
#    0.000    0.000    0.000    8.000    0.000    0.000 
#    0.000    0.000    0.000    0.000    0.000    0.000 
#
# Total GULP energy -133606.243988 kJ/mol
# GULP energy per Si atom -5566.926833 kJ/mol
# Density = 2.099525 g / cm^3
# Si number density = 21.043144 Si / 1000 Ang^3
#
#
#
# Elastic Constant Matrix: (Units=GPa)
#
#
# Indices 1 2 3 4 5 6 
#
# 1 57.4108 14.5481 11.6621 0.0000 -19.0931 0.0000
# 2 14.5481 138.0647 49.5723 0.0000 -4.6620 0.0000
# 3 11.6621 49.5723 142.5945 0.0000 -15.2902 0.0000
# 4 0.0000 0.0000 0.0000 101.3293 0.0000 -0.1310
# 5 -19.0931 -4.6620 -15.2902 0.0000 21.1253 0.0000
# 6 0.0000 0.0000 0.0000 -0.1310 0.0000 15.2729
#
#
#
# Elastic Compliance Matrix: (Units=1/GPa)
#
#
# Indices 1 2 3 4 5 6 
#
# 1 0.025575 -0.002348 0.001244 0.000000 0.023497 0.000000
# 2 -0.002348 0.008493 -0.003022 0.000000 -0.002435 0.000000
# 3 0.001244 -0.003022 0.008685 0.000000 0.006744 0.000000
# 4 0.000000 0.000000 0.000000 0.009869 0.000000 0.000085
# 5 0.023497 -0.002435 0.006744 0.000000 0.072917 0.000000
# 6 0.000000 0.000000 0.000000 0.000085 0.000000 0.065476
#
#
# Mechanical properties :
#
#
# Convention : Reuss Voigt Hill
#
# Bulk Modulus (GPa) = 28.98414 54.40389 41.69401
# Shear Modulus (GPa) = 23.72293 45.03133 34.37713
#
# Velocity S-wave (km/s) = 3.36124 4.63098 4.04623
# Velocity P-wave (km/s) = 5.37285 7.38270 6.45646
#
# Compressibility (1/GPa) = 0.03450163
#
# Stress axis : x y z
#
# Youngs Moduli (GPa) = 39.10067 117.74234 115.14498
#
# Poissons Ratio (x) = 0.27648 -0.14327
# Poissons Ratio (y) = 0.09182 0.34793
# Poissons Ratio (z) = -0.04865 0.35578
#
# Static dielectric constant tensor:
#      x y z
#    x 1.868270 0.000000 0.040530 
#    y 0.000000 1.759800 0.000000 
#    z 0.040530 0.000000 1.917480 
# 
# From -- ./inp_files/44001.got.cif
#   From: 2010.05.17/outbox.cif.g08.bks.cpg/sg15_23_cif.got.tgz:44001.got - 2010.06.03 18:47:42.
