data_PCOD9265322
_publ_section_title
;
Structure prediction by ZEFSAII (Michael W. Deem and Ramdas Pophale) SiO2 
 PCOD9265322
Probable space group: C 2/C
;
_chemical_formula_sum "Si O2"
_cell_formula_units_Z 56
_cell_length_a 12.711336
_cell_length_b 9.357579
_cell_length_c 23.716280
_cell_angle_alpha 90.000000
_cell_angle_beta 114.205353
_cell_angle_gamma 90.000000
_cell_volume 2572.972038
_symmetry_space_group_name_H-M "C 2/C"
_symmetry_group_IT_number 15
_symmetry_cell_setting 'monoclinic'
loop_
_space_group_symop_operation_xyz
x,y,z
-x,y,1/2-z
-x,-y,-z
x,-y,1/2+z
1/2+x,1/2+y,z
1/2-x,1/2+y,1/2-z
1/2-x,1/2-y,-z
1/2+x,1/2-y,1/2+z
loop_
_atom_site_type_symbol
_atom_site_label
_atom_site_fract_x
_atom_site_fract_y
_atom_site_fract_z
Si Si1 0.410727 0.577949 0.055888
Si Si2 0.560442 0.988369 0.107715
Si Si3 0.150993 0.526938 0.007080
Si Si4 0.596690 0.818961 0.723406
Si Si5 0.252105 0.747966 0.649997
Si Si6 0.025088 0.960723 0.317036
Si Si7 0.108332 0.193947 0.022465
O O1 0.274089 0.600019 0.028376
O O2 0.462373 0.570332 0.129784
O O3 0.490005 0.671338 0.032073
O O4 0.411025 0.414655 0.032407
O O5 0.600895 0.065287 0.058166
O O6 0.642927 0.853751 0.134057
O O7 0.576815 0.084084 0.165588
O O8 0.430823 0.943957 0.063986
O O9 0.145504 0.352003 0.010491
O O10 0.500000 0.848937 0.750000
O O11 0.713330 0.827728 0.785187
O O12 0.575842 0.656326 0.698403
O O13 0.358399 0.639151 0.659095
O O14 0.212901 0.845683 0.588739
O O15 0.000000 0.025618 0.250000
#
# Coordination Sequence:
#
# PCOD9265322 Si02
#       7
#     8   8   8   8   8   8   8
#     4  11  20  34  58  85 115 146 191 255 291 342
#     4  10  19  36  60  83 110 157 191 220 308 342
#     4  10  21  36  60  78 118 157 189 242 289 364
#     4   9  20  33  59  83 108 148 195 234 280 349
#     4   9  19  36  54  81 114 145 187 244 274 355
#     4   9  18  34  56  81 106 148 189 234 295 342
#     4  10  21  33  56  89 109 142 200 241 298 343
#
# _framework density 21.764713
#
# number of rings (size 3 to 8) (size 9 to 14) (size 15 to 20)
#    0.000    2.571    2.857    1.286    4.000    2.286 
#    0.000    6.429    6.286    0.000    0.000    0.000 
#    0.000    0.000    0.000    0.000    0.000    0.000 
#
# Total GULP energy -156111.183502 kJ/mol
# GULP energy per Si atom -5575.399411 kJ/mol
# Density = 2.171518 g / cm^3
# Si number density = 21.764713 Si / 1000 Ang^3
#
#
#
# Elastic Constant Matrix: (Units=GPa)
#
#
# Indices 1 2 3 4 5 6 
#
# 1 70.2944 3.3504 32.6585 0.0000 7.1799 0.0000
# 2 3.3504 48.7644 28.3162 0.0000 -11.0700 0.0000
# 3 32.6585 28.3162 173.9074 0.0000 9.3307 0.0000
# 4 0.0000 0.0000 0.0000 25.3915 0.0000 -6.5976
# 5 7.1799 -11.0700 9.3307 0.0000 31.9787 0.0000
# 6 0.0000 0.0000 0.0000 -6.5976 0.0000 15.9117
#
#
#
# Elastic Compliance Matrix: (Units=1/GPa)
#
#
# Indices 1 2 3 4 5 6 
#
# 1 0.015817 -0.000082 -0.002809 0.000000 -0.002760 0.000000
# 2 -0.000082 0.025563 -0.004696 0.000000 0.010238 0.000000
# 3 -0.002809 -0.004696 0.007209 0.000000 -0.003098 0.000000
# 4 0.000000 0.000000 0.000000 0.044139 0.000000 0.018302
# 5 -0.002760 0.010238 -0.003098 0.000000 0.036339 0.000000
# 6 0.000000 0.000000 0.000000 0.018302 0.000000 0.070435
#
#
# Mechanical properties :
#
#
# Convention : Reuss Voigt Hill
#
# Bulk Modulus (GPa) = 29.92739 46.84628 38.38684
# Shear Modulus (GPa) = 22.14215 29.89913 26.02064
#
# Velocity S-wave (km/s) = 3.19304 3.71043 3.46141
# Velocity P-wave (km/s) = 5.23204 6.31878 5.80092
#
# Compressibility (1/GPa) = 0.03341421
#
# Stress axis : x y z
#
# Youngs Moduli (GPa) = 63.22444 39.11830 138.72438
#
# Poissons Ratio (x) = 0.00322 0.38964
# Poissons Ratio (y) = 0.00520 0.65148
# Poissons Ratio (z) = 0.17758 0.18371
#
# Static dielectric constant tensor:
#      x y z
#    x 1.869010 0.000000 0.023520 
#    y 0.000000 1.845210 0.000000 
#    z 0.023520 0.000000 1.841420 
# 
# From -- ./inp_files/292069.got.cif
#   From: 2010.05.17/outbox.cif.g08.bks.cpg/sg15_147_cif.got.tgz:292069.got - 2010.06.03 18:47:42.
