data_PCOD9265391
_publ_section_title
;
Structure prediction by ZEFSAII (Michael W. Deem and Ramdas Pophale) SiO2 
 PCOD9265391
Probable space group: C 2/C
;
_chemical_formula_sum "Si O2"
_cell_formula_units_Z 60
_cell_length_a 11.098794
_cell_length_b 17.213474
_cell_length_c 21.326510
_cell_angle_alpha 90.000000
_cell_angle_beta 132.182772
_cell_angle_gamma 90.000000
_cell_volume 3019.160145
_symmetry_space_group_name_H-M "C 2/C"
_symmetry_group_IT_number 15
_symmetry_cell_setting 'monoclinic'
loop_
_space_group_symop_operation_xyz
x,y,z
-x,y,1/2-z
-x,-y,-z
x,-y,1/2+z
1/2+x,1/2+y,z
1/2-x,1/2+y,1/2-z
1/2-x,1/2-y,-z
1/2+x,1/2-y,1/2+z
loop_
_atom_site_type_symbol
_atom_site_label
_atom_site_fract_x
_atom_site_fract_y
_atom_site_fract_z
Si Si1 0.162153 0.604444 0.578867
Si Si2 0.760886 0.457578 0.080695
Si Si3 0.856958 0.347180 0.749954
Si Si4 0.000000 0.644226 0.750000
Si Si5 0.736907 0.815398 0.229228
Si Si6 0.552532 0.424481 0.592203
Si Si7 0.496350 0.553113 0.822199
Si Si8 0.031110 0.547763 0.097268
O O1 0.159624 0.666628 0.633860
O O2 0.340386 0.603021 0.610582
O O3 0.137303 0.519555 0.602306
O O4 0.029335 0.606525 0.477792
O O5 0.877951 0.409996 0.167503
O O6 0.661226 0.522914 0.083517
O O7 0.875584 0.501285 0.070808
O O8 0.619352 0.405138 0.000040
O O9 0.856959 0.257455 0.769488
O O10 0.677699 0.359558 0.658375
O O11 0.883490 0.406459 0.816595
O O12 0.000000 0.362531 0.750000
O O13 0.102302 0.692923 0.735536
O O14 0.841465 0.892599 0.280346
O O15 0.508604 0.479261 0.635451
O O16 0.500000 0.533014 0.750000
#
# Coordination Sequence:
#
# PCOD9265391 Si02
#       8
#     8   8   8   4   8   8   8   8
#     4  10  21  39  64  93 125 164 207 261 311 373
#     4  11  21  39  68  94 121 153 213 270 310 367
#     4  12  24  43  62  93 129 168 210 259 315 372
#     4  12  22  44  66  86 122 176 210 252 318 378
#     4  11  24  42  61  89 128 173 211 246 316 385
#     4  11  22  38  64  97 122 151 211 270 306 364
#     4  10  19  36  60  88 122 161 205 252 305 365
#     4  11  21  39  68  96 124 159 213 263 318 370
#
# _framework density 19.873076000000001
#
# number of rings (size 3 to 8) (size 9 to 14) (size 15 to 20)
#    0.000    1.067    5.333    3.600    0.000    0.000 
#    6.000    2.000    0.000    0.000    0.000    0.000 
#    0.000    0.000    0.000    0.000    0.000    0.000 
#
# Total GULP energy -167513.376230 kJ/mol
# GULP energy per Si atom -5583.779208 kJ/mol
# Density = 1.982784 g / cm^3
# Si number density = 19.873076 Si / 1000 Ang^3
#
#
#
# Elastic Constant Matrix: (Units=GPa)
#
#
# Indices 1 2 3 4 5 6 
#
# 1 73.9703 0.9254 11.0254 0.0000 0.1075 0.0000
# 2 0.9254 26.5159 22.0694 0.0000 -5.1839 0.0000
# 3 11.0254 22.0694 117.7787 0.0000 10.6090 0.0000
# 4 0.0000 0.0000 0.0000 0.6222 0.0000 12.7882
# 5 0.1075 -5.1839 10.6090 0.0000 20.2235 0.0000
# 6 0.0000 0.0000 0.0000 12.7882 0.0000 16.1805
#
#
#
# Elastic Compliance Matrix: (Units=1/GPa)
#
#
# Indices 1 2 3 4 5 6 
#
# 1 0.013739 0.001025 -0.001569 0.000000 0.001013 0.000000
# 2 0.001025 0.050809 -0.011324 0.000000 0.018959 0.000000
# 3 -0.001569 -0.011324 0.011567 0.000000 -0.008962 0.000000
# 4 0.000000 0.000000 0.000000 -0.105430 0.000000 0.083326
# 5 0.001013 0.018959 -0.008962 0.000000 0.059003 0.000000
# 6 0.000000 0.000000 0.000000 0.083326 0.000000 -0.004054
#
#
# Mechanical properties :
#
#
# Convention : Reuss Voigt Hill
#
# Bulk Modulus (GPa) = 19.09247 31.81170 25.45208
# Shear Modulus (GPa) = 74.81610 19.68822 47.25216
#
# Velocity S-wave (km/s) = 6.14237 3.15095 4.88145
# Velocity P-wave (km/s) = 7.74164 5.41112 6.67882
#
# Compressibility (1/GPa) = 0.05237668
#
# Stress axis : x y z
#
# Youngs Moduli (GPa) = 72.78785 19.68139 86.45539
#
# Poissons Ratio (x) = -0.02017 0.13568
# Poissons Ratio (y) = -0.07459 0.97906
# Poissons Ratio (z) = 0.11423 0.22288
#
# Static dielectric constant tensor:
#      x y z
#    x 1.699920 0.000000 -0.000180 
#    y 0.000000 1.659580 0.000000 
#    z -0.000180 0.000000 1.755510 
# 
# From -- ./inp_files/270604.got.cif
#   From: 2010.05.17/outbox.cif.g08.bks.cpg/sg15_136_cif.got.tgz:270604.got - 2010.06.03 18:47:42.
