data_PCOD9265845
_publ_section_title
;
Structure prediction by ZEFSAII (Michael W. Deem and Ramdas Pophale) SiO2 
 PCOD9265845
Probable space group: C 2/C
;
_chemical_formula_sum "Si O2"
_cell_formula_units_Z 32
_cell_length_a 7.194301
_cell_length_b 24.968217
_cell_length_c 10.307941
_cell_angle_alpha 90.000000
_cell_angle_beta 47.826514
_cell_angle_gamma 90.000000
_cell_volume 1372.252001
_symmetry_space_group_name_H-M "C 2/C"
_symmetry_group_IT_number 15
_symmetry_cell_setting 'monoclinic'
loop_
_space_group_symop_operation_xyz
x,y,z
-x,y,1/2-z
-x,-y,-z
x,-y,1/2+z
1/2+x,1/2+y,z
1/2-x,1/2+y,1/2-z
1/2-x,1/2-y,-z
1/2+x,1/2-y,1/2+z
loop_
_atom_site_type_symbol
_atom_site_label
_atom_site_fract_x
_atom_site_fract_y
_atom_site_fract_z
Si Si1 0.873687 0.590990 0.486813
Si Si2 0.500000 0.816794 0.250000
Si Si3 0.163252 0.914415 0.375920
Si Si4 0.000000 0.506764 0.250000
Si Si5 0.786503 0.703214 0.585256
O O1 0.629457 0.586571 0.509580
O O2 0.788501 0.581506 0.673737
O O3 0.942075 0.653616 0.452937
O O4 0.053189 0.545906 0.346442
O O5 0.272217 0.859074 0.383155
O O6 0.582377 0.784182 0.338494
O O7 0.272534 0.966866 0.392770
O O8 0.500000 0.684112 0.750000
O O9 0.750000 0.750000 0.500000
#
# Coordination Sequence:
#
# PCOD9265845 Si02
#       5
#     8   4   8   4   8
#     4  10  19  37  54  83 124 155 197 251 295 352
#     4   9  18  40  64  86 116 160 198 241 308 362
#     4   9  18  36  57  79 120 164 189 235 310 358
#     4  11  20  28  60  90 112 156 206 241 288 362
#     4  11  23  41  65  86 120 161 202 252 305 353
#
# _framework density 23.319331999999999
#
# number of rings (size 3 to 8) (size 9 to 14) (size 15 to 20)
#    0.000    2.000    5.000    1.500    1.750    1.000 
#    0.000    0.000    0.000    0.000    0.000    0.000 
#    0.000    0.000    0.000    0.000    0.000    0.000 
#
# Total GULP energy -89270.672655 kJ/mol
# GULP energy per Si atom -5579.417041 kJ/mol
# Density = 2.326626 g / cm^3
# Si number density = 23.319332 Si / 1000 Ang^3
#
#
#
# Elastic Constant Matrix: (Units=GPa)
#
#
# Indices 1 2 3 4 5 6 
#
# 1 141.7490 27.1400 14.2787 0.0000 27.1451 0.0000
# 2 27.1400 117.8437 21.4020 0.0000 36.6619 0.0000
# 3 14.2787 21.4020 44.2278 0.0000 23.0993 0.0000
# 4 0.0000 0.0000 0.0000 29.2108 0.0000 18.8114
# 5 27.1451 36.6619 23.0993 0.0000 31.1668 0.0000
# 6 0.0000 0.0000 0.0000 18.8114 0.0000 29.1460
#
#
#
# Elastic Compliance Matrix: (Units=1/GPa)
#
#
# Indices 1 2 3 4 5 6 
#
# 1 0.008595 0.000706 0.002002 0.000000 -0.009799 0.000000
# 2 0.000706 0.013665 0.003061 0.000000 -0.018958 0.000000
# 3 0.002002 0.003061 0.037972 0.000000 -0.033487 0.000000
# 4 0.000000 0.000000 0.000000 0.058584 0.000000 -0.037811
# 5 -0.009799 -0.018958 -0.033487 0.000000 0.087739 0.000000
# 6 0.000000 0.000000 0.000000 -0.037811 0.000000 0.058714
#
#
# Mechanical properties :
#
#
# Convention : Reuss Voigt Hill
#
# Bulk Modulus (GPa) = 13.93371 47.71800 30.82586
# Shear Modulus (GPa) = 18.00788 33.97136 25.98962
#
# Velocity S-wave (km/s) = 2.78192 3.82093 3.34205
# Velocity P-wave (km/s) = 4.03818 6.32244 5.30472
#
# Compressibility (1/GPa) = 0.07176839
#
# Stress axis : x y z
#
# Youngs Moduli (GPa) = 116.35320 73.17799 26.33493
#
# Poissons Ratio (x) = -0.05164 -0.05271
# Poissons Ratio (y) = -0.08211 -0.08060
# Poissons Ratio (z) = -0.23291 -0.22398
#
# Static dielectric constant tensor:
#      x y z
#    x 1.935910 0.000000 -0.027150 
#    y 0.000000 1.974120 0.000000 
#    z -0.027150 0.000000 1.945540 
# 
# From -- ./inp_files/22835.got.cif
#   From: 2010.05.17/outbox.cif.g08.bks.cpg/sg15_12_cif.got.tgz:22835.got - 2010.06.03 18:47:42.
