data_PCOD9265320
_publ_section_title
;
Structure prediction by ZEFSAII (Michael W. Deem and Ramdas Pophale) SiO2 
 PCOD9265320
Probable space group: C 2/C
;
_chemical_formula_sum "Si O2"
_cell_formula_units_Z 48
_cell_length_a 15.917143
_cell_length_b 13.885787
_cell_length_c 13.155036
_cell_angle_alpha 90.000000
_cell_angle_beta 44.110966
_cell_angle_gamma 90.000000
_cell_volume 2023.803013
_symmetry_space_group_name_H-M "C 2/C"
_symmetry_group_IT_number 15
_symmetry_cell_setting 'monoclinic'
loop_
_space_group_symop_operation_xyz
x,y,z
-x,y,1/2-z
-x,-y,-z
x,-y,1/2+z
1/2+x,1/2+y,z
1/2-x,1/2+y,1/2-z
1/2-x,1/2-y,-z
1/2+x,1/2-y,1/2+z
loop_
_atom_site_type_symbol
_atom_site_label
_atom_site_fract_x
_atom_site_fract_y
_atom_site_fract_z
Si Si1 0.439519 0.201917 0.007398
Si Si2 0.277910 0.776869 0.827479
Si Si3 0.500000 0.148703 0.250000
Si Si4 0.446674 0.617319 0.966035
Si Si5 0.000000 0.194682 0.250000
Si Si6 0.129250 0.417961 0.446011
Si Si7 0.363868 0.468415 0.744359
O O1 0.495807 0.292843 0.022218
O O2 0.440586 0.239408 0.890606
O O3 0.529450 0.110508 0.946762
O O4 0.316689 0.189561 0.179556
O O5 0.397217 0.786576 0.789775
O O6 0.177062 0.841441 0.971940
O O7 0.218715 0.673789 0.866254
O O8 0.445840 0.085308 0.385823
O O9 0.392816 0.550295 0.101289
O O10 0.544098 0.558624 0.817351
O O11 0.094664 0.121531 0.222423
O O12 0.224129 0.503675 0.370685
#
# Coordination Sequence:
#
# PCOD9265320 Si02
#       7
#     8   8   4   8   4   8   8
#     4   9  19  39  58  89 122 166 204 257 310 376
#     4  10  19  36  60  82 124 162 206 257 311 374
#     4  10  22  33  50  87 116 150 202 252 308 367
#     4   9  19  36  59  84 120 164 204 255 319 369
#     4  10  22  37  66  99 126 156 222 262 310 371
#     4  10  20  36  59  87 124 160 203 259 323 365
#     4  10  20  36  61  92 121 159 207 263 318 368
#
# _framework density 23.717724
#
# number of rings (size 3 to 8) (size 9 to 14) (size 15 to 20)
#    0.000    2.333    1.667    0.500    2.333    0.667 
#    0.000   10.833    0.000    4.000    0.000    0.000 
#    0.000    0.000    0.000    0.000    0.000    0.000 
#
# Total GULP energy -133924.355689 kJ/mol
# GULP energy per Si atom -5580.181487 kJ/mol
# Density = 2.366374 g / cm^3
# Si number density = 23.717724 Si / 1000 Ang^3
#
#
#
# Elastic Constant Matrix: (Units=GPa)
#
#
# Indices 1 2 3 4 5 6 
#
# 1 71.1806 26.5518 54.1911 0.0000 7.9634 0.0000
# 2 26.5518 60.2786 42.7188 0.0000 7.3362 0.0000
# 3 54.1911 42.7188 154.0449 0.0000 0.3657 0.0000
# 4 0.0000 0.0000 0.0000 21.0490 0.0000 -4.5978
# 5 7.9634 7.3362 0.3657 0.0000 37.7069 0.0000
# 6 0.0000 0.0000 0.0000 -4.5978 0.0000 28.3593
#
#
#
# Elastic Compliance Matrix: (Units=1/GPa)
#
#
# Indices 1 2 3 4 5 6 
#
# 1 0.020681 -0.004405 -0.006045 0.000000 -0.003452 0.000000
# 2 -0.004405 0.022195 -0.004597 0.000000 -0.003343 0.000000
# 3 -0.006045 -0.004597 0.009888 0.000000 0.002075 0.000000
# 4 0.000000 0.000000 0.000000 0.049252 0.000000 0.007985
# 5 -0.003452 -0.003343 0.002075 0.000000 0.027880 0.000000
# 6 0.000000 0.000000 0.000000 0.007985 0.000000 0.036556
#
#
# Mechanical properties :
#
#
# Convention : Reuss Voigt Hill
#
# Bulk Modulus (GPa) = 44.11468 59.15862 51.63665
# Shear Modulus (GPa) = 24.49729 28.22588 26.36159
#
# Velocity S-wave (km/s) = 3.21731 3.45349 3.33749
# Velocity P-wave (km/s) = 5.69576 6.39524 6.05561
#
# Compressibility (1/GPa) = 0.02266819
#
# Stress axis : x y z
#
# Youngs Moduli (GPa) = 48.35444 45.05513 101.12946
#
# Poissons Ratio (x) = 0.19847 0.61137
# Poissons Ratio (y) = 0.21300 0.46493
# Poissons Ratio (z) = 0.29232 0.20714
#
# Static dielectric constant tensor:
#      x y z
#    x 1.960030 0.000000 -0.021620 
#    y 0.000000 1.987530 0.000000 
#    z -0.021620 0.000000 1.912000 
# 
# From -- ./inp_files/162172.got.cif
#   From: 2010.05.17/outbox.cif.g08.bks.cpg/sg15_82_cif.got.tgz:162172.got - 2010.06.03 18:47:42.
