data_PCOD9265617
_publ_section_title
;
Structure prediction by ZEFSAII (Michael W. Deem and Ramdas Pophale) SiO2 
 PCOD9265617
Probable space group: C 2/C
;
_chemical_formula_sum "Si O2"
_cell_formula_units_Z 52
_cell_length_a 15.815069
_cell_length_b 26.040275
_cell_length_c 5.382928
_cell_angle_alpha 90.000000
_cell_angle_beta 63.985356
_cell_angle_gamma 90.000000
_cell_volume 1992.238183
_symmetry_space_group_name_H-M "C 2/C"
_symmetry_group_IT_number 15
_symmetry_cell_setting 'monoclinic'
loop_
_space_group_symop_operation_xyz
x,y,z
-x,y,1/2-z
-x,-y,-z
x,-y,1/2+z
1/2+x,1/2+y,z
1/2-x,1/2+y,1/2-z
1/2-x,1/2-y,-z
1/2+x,1/2-y,1/2+z
loop_
_atom_site_type_symbol
_atom_site_label
_atom_site_fract_x
_atom_site_fract_y
_atom_site_fract_z
Si Si1 0.390195 0.639322 0.824550
Si Si2 0.600226 0.735157 0.981927
Si Si3 0.500000 0.201344 0.250000
Si Si4 0.660193 0.478494 0.094734
Si Si5 0.377940 0.015154 0.745270
Si Si6 0.221964 0.331871 0.833521
Si Si7 0.864564 0.626043 0.578341
O O1 0.500000 0.636458 0.750000
O O2 0.376140 0.676641 0.607210
O O3 0.349432 0.582058 0.844212
O O4 0.330651 0.666505 0.119507
O O5 0.578443 0.760214 0.741455
O O6 0.678835 0.776221 0.958136
O O7 0.500000 0.738355 0.250000
O O8 0.454995 0.162415 0.504664
O O9 0.616816 0.508328 0.383657
O O10 0.767890 0.499080 0.928896
O O11 0.387882 0.066751 0.568852
O O12 0.414148 0.976765 0.481283
O O13 0.173883 0.355838 0.642560
O O14 0.201694 0.365708 0.099703
#
# Coordination Sequence:
#
# PCOD9265617 Si02
#       7
#     8   8   4   8   8   8   8
#     4  12  27  45  71 106 144 192 244 297 352 421
#     4  11  23  46  70 105 144 184 236 299 359 429
#     4  10  22  44  68 106 140 186 226 300 364 432
#     4  10  22  43  67  95 136 184 238 290 350 402
#     4  10  19  36  62  95 135 179 228 288 343 407
#     4  11  24  44  72 104 141 190 238 289 364 429
#     4  11  22  42  75 104 141 185 243 288 364 424
#
# _framework density 26.101299000000001
#
# number of rings (size 3 to 8) (size 9 to 14) (size 15 to 20)
#    0.000    1.231    2.308    5.077    0.000    3.077 
#    0.000    3.846    0.000    0.000    0.000    0.000 
#    0.000    0.000    0.000    0.000    0.000    0.000 
#
# Total GULP energy -145272.250738 kJ/mol
# GULP energy per Si atom -5587.394259 kJ/mol
# Density = 2.604189 g / cm^3
# Si number density = 26.101299 Si / 1000 Ang^3
#
#
#
# Elastic Constant Matrix: (Units=GPa)
#
#
# Indices 1 2 3 4 5 6 
#
# 1 54.2327 12.6526 34.6560 0.0000 4.0902 0.0000
# 2 12.6526 164.2483 49.2045 0.0000 -11.3657 0.0000
# 3 34.6560 49.2045 159.7818 0.0000 12.6786 0.0000
# 4 0.0000 0.0000 0.0000 92.5938 0.0000 11.9669
# 5 4.0902 -11.3657 12.6786 0.0000 50.5282 0.0000
# 6 0.0000 0.0000 0.0000 11.9669 0.0000 24.5556
#
#
#
# Elastic Compliance Matrix: (Units=1/GPa)
#
#
# Indices 1 2 3 4 5 6 
#
# 1 0.021441 -0.000355 -0.004486 0.000000 -0.000690 0.000000
# 2 -0.000355 0.006932 -0.002228 0.000000 0.002147 0.000000
# 3 -0.004486 -0.002228 0.008090 0.000000 -0.002168 0.000000
# 4 0.000000 0.000000 0.000000 0.011526 0.000000 -0.005617
# 5 -0.000690 0.002147 -0.002168 0.000000 0.020874 0.000000
# 6 0.000000 0.000000 0.000000 -0.005617 0.000000 0.043461
#
#
# Mechanical properties :
#
#
# Convention : Reuss Voigt Hill
#
# Bulk Modulus (GPa) = 44.79665 63.47656 54.13660
# Shear Modulus (GPa) = 37.34047 52.31884 44.82966
#
# Velocity S-wave (km/s) = 3.78643 4.48197 4.14880
# Velocity P-wave (km/s) = 6.02627 7.15235 6.61332
#
# Compressibility (1/GPa) = 0.02232310
#
# Stress axis : x y z
#
# Youngs Moduli (GPa) = 46.64006 144.26462 123.61446
#
# Poissons Ratio (x) = 0.05128 0.55456
# Poissons Ratio (y) = 0.01658 0.27540
# Poissons Ratio (z) = 0.20924 0.32140
#
# Static dielectric constant tensor:
#      x y z
#    x 2.382640 0.000000 0.050260 
#    y 0.000000 2.040690 0.000000 
#    z 0.050260 0.000000 2.067620 
# 
# From -- ./inp_files/14378.got.cif
#   From: 2010.05.17/outbox.cif.g08.bks.cpg/sg15_8_cif.got.tgz:14378.got - 2010.06.03 18:47:42.
