data_PCOD9265343
_publ_section_title
;
Structure prediction by ZEFSAII (Michael W. Deem and Ramdas Pophale) SiO2 
 PCOD9265343
Probable space group: C 2/C
;
_chemical_formula_sum "Si O2"
_cell_formula_units_Z 36
_cell_length_a 9.445365
_cell_length_b 12.236825
_cell_length_c 19.210166
_cell_angle_alpha 90.000000
_cell_angle_beta 42.720146
_cell_angle_gamma 90.000000
_cell_volume 1506.315678
_symmetry_space_group_name_H-M "C 2/C"
_symmetry_group_IT_number 15
_symmetry_cell_setting 'monoclinic'
loop_
_space_group_symop_operation_xyz
x,y,z
-x,y,1/2-z
-x,-y,-z
x,-y,1/2+z
1/2+x,1/2+y,z
1/2-x,1/2+y,1/2-z
1/2-x,1/2-y,-z
1/2+x,1/2-y,1/2+z
loop_
_atom_site_type_symbol
_atom_site_label
_atom_site_fract_x
_atom_site_fract_y
_atom_site_fract_z
Si Si1 0.347907 0.011537 0.898147
Si Si2 0.592342 0.461365 0.861661
Si Si3 0.543548 0.112698 0.441538
Si Si4 0.500000 0.557793 0.250000
Si Si5 0.496023 0.776099 0.410202
O O1 0.451570 0.906942 0.898407
O O2 0.275369 0.002179 0.845037
O O3 0.494236 0.114874 0.864194
O O4 0.127098 0.023817 0.019164
O O5 0.293142 0.375846 0.845836
O O6 0.564198 0.509978 0.795044
O O7 0.450053 0.200938 0.528092
O O8 0.500000 0.000000 0.500000
O O9 0.615952 0.669346 0.342276
O O10 0.250000 0.750000 0.500000
#
# Coordination Sequence:
#
# PCOD9265343 Si02
#       5
#     8   8   8   4   8
#     4   9  19  37  60  85 116 162 195 242 308 361
#     4  10  20  35  62  85 116 158 204 240 301 367
#     4  10  19  36  60  85 119 157 194 250 303 356
#     4  12  20  34  62  88 118 156 198 252 298 362
#     4   9  16  35  59  82 110 159 195 234 306 361
#
# _framework density 23.899374999999999
#
# number of rings (size 3 to 8) (size 9 to 14) (size 15 to 20)
#    0.000    2.222    6.667    0.000    0.000    1.778 
#    0.000    4.444    0.000    0.000    0.000    0.000 
#    0.000    0.000    0.000    0.000    0.000    0.000 
#
# Total GULP energy -100430.811095 kJ/mol
# GULP energy per Si atom -5579.489505 kJ/mol
# Density = 2.384498 g / cm^3
# Si number density = 23.899375 Si / 1000 Ang^3
#
#
#
# Elastic Constant Matrix: (Units=GPa)
#
#
# Indices 1 2 3 4 5 6 
#
# 1 142.3675 37.3712 63.7811 0.0001 34.0386 -0.0001
# 2 37.3712 42.3940 24.4646 0.0000 5.8910 0.0000
# 3 63.7811 24.4646 112.5667 0.0002 31.4836 -0.0001
# 4 0.0001 0.0000 0.0002 16.4580 -0.0001 6.8363
# 5 34.0386 5.8910 31.4836 -0.0001 65.0460 0.0000
# 6 -0.0001 0.0000 -0.0001 6.8363 0.0000 23.1677
#
#
#
# Elastic Compliance Matrix: (Units=1/GPa)
#
#
# Indices 1 2 3 4 5 6 
#
# 1 0.011588 -0.007436 -0.003981 0.000000 -0.003464 0.000000
# 2 -0.007436 0.031755 -0.003437 0.000000 0.002679 0.000000
# 3 -0.003981 -0.003437 0.012973 0.000000 -0.003885 0.000000
# 4 0.000000 0.000000 0.000000 0.069248 0.000000 -0.020434
# 5 -0.003464 0.002679 -0.003885 0.000000 0.018824 0.000000
# 6 0.000000 0.000000 0.000000 -0.020434 0.000000 0.049193
#
#
# Mechanical properties :
#
#
# Convention : Reuss Voigt Hill
#
# Bulk Modulus (GPa) = 37.58490 60.95135 49.26813
# Shear Modulus (GPa) = 21.53710 32.38177 26.95943
#
# Velocity S-wave (km/s) = 3.00519 3.68492 3.36227
# Velocity P-wave (km/s) = 5.27276 6.60784 5.97769
#
# Compressibility (1/GPa) = 0.02660643
#
# Stress axis : x y z
#
# Youngs Moduli (GPa) = 86.29966 31.49135 77.08512
#
# Poissons Ratio (x) = 0.23418 0.30686
# Poissons Ratio (y) = 0.64174 0.26497
# Poissons Ratio (z) = 0.34354 0.10825
#
# Static dielectric constant tensor:
#      x y z
#    x 1.945950 0.000000 0.036920 
#    y 0.000000 1.942720 0.000000 
#    z 0.036920 0.000000 2.006870 
# 
# From -- ./inp_files/188147.got.cif
#   From: 2010.05.17/outbox.cif.g08.bks.cpg/sg15_95_cif.got.tgz:188147.got - 2010.06.03 18:47:42.
