data_PCOD9265195
_publ_section_title
;
Structure prediction by ZEFSAII (Michael W. Deem and Ramdas Pophale) SiO2 
 PCOD9265195
Probable space group: C 2/C
;
_chemical_formula_sum "Si O2"
_cell_formula_units_Z 48
_cell_length_a 24.038488
_cell_length_b 12.585763
_cell_length_c 7.216044
_cell_angle_alpha 90.000000
_cell_angle_beta 94.247837
_cell_angle_gamma 90.000000
_cell_volume 2177.164344
_symmetry_space_group_name_H-M "C 2/C"
_symmetry_group_IT_number 15
_symmetry_cell_setting 'monoclinic'
loop_
_space_group_symop_operation_xyz
x,y,z
-x,y,1/2-z
-x,-y,-z
x,-y,1/2+z
1/2+x,1/2+y,z
1/2-x,1/2+y,1/2-z
1/2-x,1/2-y,-z
1/2+x,1/2-y,1/2+z
loop_
_atom_site_type_symbol
_atom_site_label
_atom_site_fract_x
_atom_site_fract_y
_atom_site_fract_z
Si Si1 0.589762 0.203679 0.265217
Si Si2 0.005691 0.627297 0.533151
Si Si3 0.686536 0.624738 0.252064
Si Si4 0.688154 0.076660 0.107153
Si Si5 0.663482 0.388183 0.172891
Si Si6 0.208606 0.650260 0.699124
O O1 0.562541 0.168916 0.452611
O O2 0.638794 0.125825 0.211514
O O3 0.614870 0.322007 0.258250
O O4 0.542346 0.185121 0.097144
O O5 0.000000 0.647707 0.750000
O O6 0.000000 0.500000 0.500000
O O7 0.752513 0.600333 0.283464
O O8 0.659259 0.516198 0.174728
O O9 0.666136 0.642283 0.457173
O O10 0.684675 0.735180 0.142104
O O11 0.685834 0.950323 0.084643
O O12 0.690630 0.128219 0.906230
O O13 0.723749 0.356708 0.276541
#
# Coordination Sequence:
#
# PCOD9265195 Si02
#       6
#     8   8   8   8   8   8
#     4  11  22  42  70  94 141 171 222 281 346 400
#     4  11  25  45  68 102 132 164 227 301 354 399
#     4  10  19  39  57  89 146 175 222 261 307 410
#     4  10  20  34  60  96 130 180 213 262 333 394
#     4  10  20  39  60  93 131 190 223 263 330 397
#     4  10  19  36  58  92 144 177 220 266 315 406
#
# _framework density 22.047025999999999
#
# number of rings (size 3 to 8) (size 9 to 14) (size 15 to 20)
#    0.000    1.667    5.000    1.000    2.333    0.000 
#    6.000    3.333    0.000    4.000    0.000    4.667 
#    0.000    0.000    0.000    0.000    0.000    0.000 
#
# Total GULP energy -134319.474130 kJ/mol
# GULP energy per Si atom -5596.644755 kJ/mol
# Density = 2.199685 g / cm^3
# Si number density = 22.047026 Si / 1000 Ang^3
#
#
#
# Elastic Constant Matrix: (Units=GPa)
#
#
# Indices 1 2 3 4 5 6 
#
# 1 93.7610 39.3392 30.8890 0.0000 -29.5780 0.0000
# 2 39.3392 203.8541 35.3343 0.0000 -14.1052 0.0000
# 3 30.8890 35.3343 77.6237 0.0000 -27.3765 0.0000
# 4 0.0000 0.0000 0.0000 35.5922 0.0000 -11.8553
# 5 -29.5780 -14.1052 -27.3765 0.0000 37.5916 0.0000
# 6 0.0000 0.0000 0.0000 -11.8553 0.0000 47.4037
#
#
#
# Elastic Compliance Matrix: (Units=1/GPa)
#
#
# Indices 1 2 3 4 5 6 
#
# 1 0.015184 -0.001956 -0.001611 0.000000 0.010040 0.000000
# 2 -0.001956 0.005580 -0.002107 0.000000 -0.000980 0.000000
# 3 -0.001611 -0.002107 0.018512 0.000000 0.011423 0.000000
# 4 0.000000 0.000000 0.000000 0.030649 0.000000 0.007665
# 5 0.010040 -0.000980 0.011423 0.000000 0.042453 0.000000
# 6 0.000000 0.000000 0.000000 0.007665 0.000000 0.023012
#
#
# Mechanical properties :
#
#
# Convention : Reuss Voigt Hill
#
# Bulk Modulus (GPa) = 35.80718 65.15155 50.47936
# Shear Modulus (GPa) = 32.04124 42.09592 37.06858
#
# Velocity S-wave (km/s) = 3.81637 4.37437 4.10486
# Velocity P-wave (km/s) = 5.97462 7.42488 6.73888
#
# Compressibility (1/GPa) = 0.02792736
#
# Stress axis : x y z
#
# Youngs Moduli (GPa) = 65.85816 179.19688 54.01984
#
# Poissons Ratio (x) = 0.35056 0.08701
# Poissons Ratio (y) = 0.12884 0.11384
# Poissons Ratio (z) = 0.10608 0.37764
#
# Static dielectric constant tensor:
#      x y z
#    x 1.803520 0.000000 -0.014050 
#    y 0.000000 1.832600 0.000000 
#    z -0.014050 0.000000 1.923410 
# 
# From -- ./inp_files/68752.got.cif
#   From: 2010.05.17/outbox.cif.g08.bks.cpg/sg15_35_cif.got.tgz:68752.got - 2010.06.03 18:47:42.
