data_PCOD9265902
_publ_section_title
;
Structure prediction by ZEFSAII (Michael W. Deem and Ramdas Pophale) SiO2 
 PCOD9265902
Probable space group: C 2/C
;
_chemical_formula_sum "Si O2"
_cell_formula_units_Z 48
_cell_length_a 22.069700
_cell_length_b 11.713565
_cell_length_c 13.818973
_cell_angle_alpha 90.000000
_cell_angle_beta 42.767598
_cell_angle_gamma 90.000000
_cell_volume 2425.760149
_symmetry_space_group_name_H-M "C 2/C"
_symmetry_group_IT_number 15
_symmetry_cell_setting 'monoclinic'
loop_
_space_group_symop_operation_xyz
x,y,z
-x,y,1/2-z
-x,-y,-z
x,-y,1/2+z
1/2+x,1/2+y,z
1/2-x,1/2+y,1/2-z
1/2-x,1/2-y,-z
1/2+x,1/2-y,1/2+z
loop_
_atom_site_type_symbol
_atom_site_label
_atom_site_fract_x
_atom_site_fract_y
_atom_site_fract_z
Si Si1 0.107537 0.523063 0.958039
Si Si2 0.007191 0.315154 0.431407
Si Si3 0.268585 0.478798 0.400427
Si Si4 0.258599 0.529390 0.639364
Si Si5 0.085832 0.080621 0.909313
Si Si6 0.303303 0.264426 0.839269
O O1 0.047778 0.622940 0.980292
O O2 0.174730 0.559892 0.964276
O O3 0.173673 0.477644 0.794631
O O4 0.045513 0.416831 0.059663
O O5 0.093100 0.267587 0.273459
O O6 0.946194 0.206564 0.523972
O O7 0.263223 0.492152 0.522338
O O8 0.352222 0.410272 0.259247
O O9 0.287869 0.604985 0.333017
O O10 0.352552 0.519902 0.581803
O O11 0.237916 0.665276 0.677493
O O12 0.000000 0.000000 0.000000
O O13 0.250000 0.250000 0.000000
#
# Coordination Sequence:
#
# PCOD9265902 Si02
#       6
#     8   8   8   8   8   8
#     4   9  20  37  62  79 114 158 189 235 276 348
#     4  10  19  37  57  86 115 148 196 231 286 341
#     4  10  19  37  57  84 116 149 190 234 295 342
#     4   9  20  36  56  84 114 147 191 234 287 340
#     4  11  21  35  58  83 114 150 183 243 290 341
#     4   9  17  33  56  85 113 140 184 241 294 331
#
# _framework density 19.787610999999998
#
# number of rings (size 3 to 8) (size 9 to 14) (size 15 to 20)
#    0.000    2.333    1.667    1.000    0.000    0.667 
#    0.000   22.500    3.667    0.000    0.000    0.000 
#    0.000    0.000    0.000    0.000    0.000    0.000 
#
# Total GULP energy -133681.819727 kJ/mol
# GULP energy per Si atom -5570.075822 kJ/mol
# Density = 1.974257 g / cm^3
# Si number density = 19.787611 Si / 1000 Ang^3
#
#
#
# Elastic Constant Matrix: (Units=GPa)
#
#
# Indices 1 2 3 4 5 6 
#
# 1 98.3650 -10.8499 35.3860 0.0000 -2.9216 0.0000
# 2 -10.8499 30.9280 10.1578 0.0000 -1.3475 0.0000
# 3 35.3860 10.1578 64.2800 0.0000 0.6511 0.0000
# 4 0.0000 0.0000 0.0000 25.9569 0.0000 -12.0819
# 5 -2.9216 -1.3475 0.6511 0.0000 32.6867 0.0000
# 6 0.0000 0.0000 0.0000 -12.0819 0.0000 16.8125
#
#
#
# Elastic Compliance Matrix: (Units=1/GPa)
#
#
# Indices 1 2 3 4 5 6 
#
# 1 0.014461 0.008198 -0.009275 0.000000 0.001815 0.000000
# 2 0.008198 0.038826 -0.010674 0.000000 0.002546 0.000000
# 3 -0.009275 -0.010674 0.022367 0.000000 -0.001715 0.000000
# 4 0.000000 0.000000 0.000000 0.057889 0.000000 0.041600
# 5 0.001815 0.002546 -0.001715 0.000000 0.030895 0.000000
# 6 0.000000 0.000000 0.000000 0.041600 0.000000 0.089374
#
#
# Mechanical properties :
#
#
# Convention : Reuss Voigt Hill
#
# Bulk Modulus (GPa) = 19.17466 29.21786 24.19626
# Shear Modulus (GPa) = 16.96661 25.68317 21.32489
#
# Velocity S-wave (km/s) = 2.93138 3.60660 3.28638
# Velocity P-wave (km/s) = 4.60093 5.66933 5.16284
#
# Compressibility (1/GPa) = 0.05215217
#
# Stress axis : x y z
#
# Youngs Moduli (GPa) = 69.15216 25.75599 44.70929
#
# Poissons Ratio (x) = -0.21115 0.41466
# Poissons Ratio (y) = -0.56692 0.47724
# Poissons Ratio (z) = 0.64136 0.27493
#
# Static dielectric constant tensor:
#      x y z
#    x 1.725760 0.000000 -0.013440 
#    y 0.000000 1.774330 0.000000 
#    z -0.013440 0.000000 1.740990 
# 
# From -- ./inp_files/167131.got.cif
#   From: 2010.05.17/outbox.cif.g08.bks.cpg/sg15_84_cif.got.tgz:167131.got - 2010.06.03 18:47:42.
