data_PCOD9265779
_publ_section_title
;
Structure prediction by ZEFSAII (Michael W. Deem and Ramdas Pophale) SiO2 
 PCOD9265779
Probable space group: C 2/C
;
_chemical_formula_sum "Si O2"
_cell_formula_units_Z 48
_cell_length_a 8.014254
_cell_length_b 22.765452
_cell_length_c 23.302762
_cell_angle_alpha 90.000000
_cell_angle_beta 149.671182
_cell_angle_gamma 90.000000
_cell_volume 2146.867904
_symmetry_space_group_name_H-M "C 2/C"
_symmetry_group_IT_number 15
_symmetry_cell_setting 'monoclinic'
loop_
_space_group_symop_operation_xyz
x,y,z
-x,y,1/2-z
-x,-y,-z
x,-y,1/2+z
1/2+x,1/2+y,z
1/2-x,1/2+y,1/2-z
1/2-x,1/2-y,-z
1/2+x,1/2-y,1/2+z
loop_
_atom_site_type_symbol
_atom_site_label
_atom_site_fract_x
_atom_site_fract_y
_atom_site_fract_z
Si Si1 0.385573 0.994946 0.598016
Si Si2 0.559349 0.889224 0.331973
Si Si3 0.794790 0.393061 0.743951
Si Si4 0.817306 0.624268 0.033970
Si Si5 0.351570 0.782034 0.328368
Si Si6 0.319424 0.826279 0.958800
O O1 0.596855 0.959009 0.707991
O O2 0.385146 0.946649 0.546669
O O3 0.506846 0.061483 0.639110
O O4 0.000000 0.000000 0.500000
O O5 0.500000 0.912976 0.250000
O O6 0.335994 0.832425 0.276035
O O7 0.946095 0.870823 0.447476
O O8 0.416260 0.382842 0.617522
O O9 0.000000 0.373927 0.750000
O O10 0.924920 0.359183 0.839020
O O11 0.895165 0.663087 0.002438
O O12 0.543511 0.813542 0.437884
O O13 0.573139 0.727963 0.373328
O O14 0.000000 0.764073 0.250000
#
# Coordination Sequence:
#
# PCOD9265779 Si02
#       6
#     8   8   8   8   8   8
#     4   8  19  37  63  96 133 165 219 274 332 396
#     4  11  21  40  65  92 139 180 216 270 354 410
#     4  10  19  36  66  94 130 172 219 275 330 394
#     4   9  21  39  64  97 128 171 229 277 331 400
#     4  11  26  44  63  98 137 179 225 288 344 398
#     4  11  23  43  67  92 135 176 238 280 336 400
#
# _framework density 22.358153999999999
#
# number of rings (size 3 to 8) (size 9 to 14) (size 15 to 20)
#    1.000    1.000    0.000    3.500    0.000    3.333 
#    3.000    0.833    0.000    0.000    0.000    0.000 
#    0.000    0.000    0.000    0.000    0.000    0.000 
#
# Total GULP energy -133732.780014 kJ/mol
# GULP energy per Si atom -5572.199167 kJ/mol
# Density = 2.230727 g / cm^3
# Si number density = 22.358154 Si / 1000 Ang^3
#
#
#
# Elastic Constant Matrix: (Units=GPa)
#
#
# Indices 1 2 3 4 5 6 
#
# 1 74.3484 42.5221 2.6960 0.0047 8.8573 -0.0014
# 2 42.5221 111.7137 13.2492 0.0006 10.5963 -0.0010
# 3 2.6960 13.2492 75.3077 0.0081 13.4492 0.0000
# 4 0.0047 0.0006 0.0081 26.2692 0.0043 4.8929
# 5 8.8573 10.5963 13.4492 0.0043 21.2327 -0.0010
# 6 -0.0014 -0.0010 0.0000 4.8929 -0.0010 33.5085
#
#
#
# Elastic Compliance Matrix: (Units=1/GPa)
#
#
# Indices 1 2 3 4 5 6 
#
# 1 0.017669 -0.006412 0.001399 -0.000003 -0.005057 0.000001
# 2 -0.006412 0.011780 -0.001433 0.000002 -0.002297 0.000000
# 3 0.001399 -0.001433 0.015174 -0.000003 -0.009480 0.000000
# 4 -0.000003 0.000002 -0.000003 0.039132 -0.000006 -0.005714
# 5 -0.005057 -0.002297 -0.009480 -0.000006 0.056357 0.000002
# 6 0.000001 0.000000 0.000000 -0.005714 0.000002 0.030678
#
#
# Mechanical properties :
#
#
# Convention : Reuss Voigt Hill
#
# Bulk Modulus (GPa) = 31.51517 42.03382 36.77450
# Shear Modulus (GPa) = 25.73904 29.72893 27.73399
#
# Velocity S-wave (km/s) = 3.39664 3.65042 3.52581
# Velocity P-wave (km/s) = 5.43222 6.05049 5.74967
#
# Compressibility (1/GPa) = 0.03173075
#
# Stress axis : x y z
#
# Youngs Moduli (GPa) = 56.59664 84.89190 65.90294
#
# Poissons Ratio (x) = 0.54429 -0.09217
# Poissons Ratio (y) = 0.36288 0.09442
# Poissons Ratio (z) = -0.07915 0.12163
#
# Static dielectric constant tensor:
#      x y z
#    x 1.958610 0.000000 -0.087250 
#    y 0.000000 1.926580 -0.000010 
#    z -0.087250 -0.000010 1.920120 
# 
# From -- ./inp_files/266548.got.cif
#   From: 2010.05.17/outbox.cif.g08.bks.cpg/sg15_134_cif.got.tgz:266548.got - 2010.06.03 18:47:42.
