data_PCOD9265908
_publ_section_title
;
Structure prediction by ZEFSAII (Michael W. Deem and Ramdas Pophale) SiO2 
 PCOD9265908
Probable space group: C 2/C
;
_chemical_formula_sum "Si O2"
_cell_formula_units_Z 60
_cell_length_a 24.519019
_cell_length_b 21.579756
_cell_length_c 8.564351
_cell_angle_alpha 90.000000
_cell_angle_beta 41.320196
_cell_angle_gamma 90.000000
_cell_volume 2992.011786
_symmetry_space_group_name_H-M "C 2/C"
_symmetry_group_IT_number 15
_symmetry_cell_setting 'monoclinic'
loop_
_space_group_symop_operation_xyz
x,y,z
-x,y,1/2-z
-x,-y,-z
x,-y,1/2+z
1/2+x,1/2+y,z
1/2-x,1/2+y,1/2-z
1/2-x,1/2-y,-z
1/2+x,1/2-y,1/2+z
loop_
_atom_site_type_symbol
_atom_site_label
_atom_site_fract_x
_atom_site_fract_y
_atom_site_fract_z
Si Si1 0.412812 0.290093 0.529433
Si Si2 0.003999 0.712638 0.557530
Si Si3 0.762944 0.089029 0.894216
Si Si4 0.325168 0.507233 0.492095
Si Si5 0.000000 0.510469 0.750000
Si Si6 0.669166 0.286371 0.115466
Si Si7 0.580206 0.567552 0.468996
Si Si8 0.424232 0.912497 0.680298
O O1 0.424004 0.245138 0.652591
O O2 0.343029 0.282639 0.546694
O O3 0.411074 0.360688 0.589634
O O4 0.500000 0.281883 0.250000
O O5 0.084864 0.756128 0.361692
O O6 0.018675 0.647976 0.437231
O O7 0.000000 0.700611 0.750000
O O8 0.790884 0.065368 0.663466
O O9 0.819786 0.143157 0.845136
O O10 0.668708 0.110261 0.097119
O O11 0.766566 0.028285 0.997483
O O12 0.405077 0.528377 0.219439
O O13 0.348623 0.456127 0.569102
O O14 0.946870 0.464901 0.756161
O O15 0.058803 0.553957 0.520726
O O16 0.750000 0.250000 0.000000
O O17 0.500000 0.559914 0.750000
#
# Coordination Sequence:
#
# PCOD9265908 Si02
#       8
#     8   8   8   8   4   8   8   8
#     4   9  21  39  61  87 123 164 204 261 318 371
#     4  11  24  41  65  92 127 168 217 263 319 383
#     4  11  22  40  62  91 128 165 206 257 320 376
#     4  10  22  36  60  89 126 163 204 251 315 376
#     4  10  24  40  66  98 118 162 208 266 322 382
#     4  11  22  41  66  89 123 168 215 263 320 381
#     4  10  19  37  57  87 122 158 209 254 300 360
#     4  11  22  42  66  91 125 157 212 260 322 381
#
# _framework density 20.053398000000001
#
# number of rings (size 3 to 8) (size 9 to 14) (size 15 to 20)
#    0.000    1.600    3.333    1.200    4.667    0.000 
#    0.000    0.667    5.867    0.000    0.000    0.000 
#    0.000    0.000    0.000    0.000    0.000    0.000 
#
# Total GULP energy -167258.032446 kJ/mol
# GULP energy per Si atom -5575.267748 kJ/mol
# Density = 2.000776 g / cm^3
# Si number density = 20.053398 Si / 1000 Ang^3
#
#
#
# Elastic Constant Matrix: (Units=GPa)
#
#
# Indices 1 2 3 4 5 6 
#
# 1 65.1103 25.2311 14.2310 0.0000 7.2254 0.0000
# 2 25.2311 90.8083 18.5315 0.0000 10.4936 0.0000
# 3 14.2310 18.5315 49.2921 0.0000 6.7971 0.0000
# 4 0.0000 0.0000 0.0000 17.7124 0.0000 -6.3234
# 5 7.2254 10.4936 6.7971 0.0000 23.8277 0.0000
# 6 0.0000 0.0000 0.0000 -6.3234 0.0000 25.8015
#
#
#
# Elastic Compliance Matrix: (Units=1/GPa)
#
#
# Indices 1 2 3 4 5 6 
#
# 1 0.017930 -0.003993 -0.003298 0.000000 -0.002738 0.000000
# 2 -0.003993 0.013221 -0.003312 0.000000 -0.003667 0.000000
# 3 -0.003298 -0.003312 0.023052 0.000000 -0.004117 0.000000
# 4 0.000000 0.000000 0.000000 0.061871 0.000000 0.015163
# 5 -0.002738 -0.003667 -0.004117 0.000000 0.045588 0.000000
# 6 0.000000 0.000000 0.000000 0.015163 0.000000 0.042474
#
#
# Mechanical properties :
#
#
# Convention : Reuss Voigt Hill
#
# Bulk Modulus (GPa) = 30.30453 35.68864 32.99659
# Shear Modulus (GPa) = 21.15583 23.28278 22.21931
#
# Velocity S-wave (km/s) = 3.25156 3.41110 3.33229
# Velocity P-wave (km/s) = 5.40755 5.77491 5.59425
#
# Compressibility (1/GPa) = 0.03299836
#
# Stress axis : x y z
#
# Youngs Moduli (GPa) = 55.77119 75.63601 43.37945
#
# Poissons Ratio (x) = 0.30198 0.14307
# Poissons Ratio (y) = 0.22267 0.14368
# Poissons Ratio (z) = 0.18394 0.25052
#
# Static dielectric constant tensor:
#      x y z
#    x 1.730310 0.000000 0.015420 
#    y 0.000000 1.706410 0.000000 
#    z 0.015420 0.000000 1.710110 
# 
# From -- ./inp_files/63497.got.cif
#   From: 2010.05.17/outbox.cif.g08.bks.cpg/sg15_32_cif.got.tgz:63497.got - 2010.06.03 18:47:42.
