data_PCOD9265109
_publ_section_title
;
Structure prediction by ZEFSAII (Michael W. Deem and Ramdas Pophale) SiO2 
 PCOD9265109
Probable space group: C 2/C
;
_chemical_formula_sum "Si O2"
_cell_formula_units_Z 40
_cell_length_a 11.505039
_cell_length_b 24.022873
_cell_length_c 10.543365
_cell_angle_alpha 90.000000
_cell_angle_beta 40.072987
_cell_angle_gamma 90.000000
_cell_volume 1875.936973
_symmetry_space_group_name_H-M "C 2/C"
_symmetry_group_IT_number 15
_symmetry_cell_setting 'monoclinic'
loop_
_space_group_symop_operation_xyz
x,y,z
-x,y,1/2-z
-x,-y,-z
x,-y,1/2+z
1/2+x,1/2+y,z
1/2-x,1/2+y,1/2-z
1/2-x,1/2-y,-z
1/2+x,1/2-y,1/2+z
loop_
_atom_site_type_symbol
_atom_site_label
_atom_site_fract_x
_atom_site_fract_y
_atom_site_fract_z
Si Si1 0.251570 0.903068 0.201431
Si Si2 0.123913 0.894328 0.889687
Si Si3 0.791868 0.524447 0.434249
Si Si4 0.707598 0.814888 0.540133
Si Si5 0.612027 0.095232 0.547009
O O1 0.446818 0.919989 0.090734
O O2 0.091009 0.898960 0.436101
O O3 0.203951 0.946105 0.129333
O O4 0.264727 0.844240 0.118178
O O5 0.196400 0.953076 0.887617
O O6 0.176276 0.848556 0.952522
O O7 0.230355 0.880660 0.672151
O O8 0.807941 0.459792 0.453337
O O9 0.000000 0.544594 0.250000
O O10 0.500000 0.822402 0.750000
O O11 0.750000 0.750000 0.500000
O O12 0.500000 0.128039 0.750000
#
# Coordination Sequence:
#
# PCOD9265109 Si02
#       5
#     8   8   8   8   8
#     4  11  21  39  59  87 124 153 199 257 297 356
#     4  11  22  40  58  88 125 151 204 260 289 357
#     4  10  19  36  58  79 117 161 197 247 303 338
#     4  11  20  38  68  98 117 145 190 255 322 349
#     4  11  24  39  56  81 124 171 205 237 298 355
#
# _framework density 21.322678
#
# number of rings (size 3 to 8) (size 9 to 14) (size 15 to 20)
#    0.000    1.200    4.000    5.400    2.800    1.600 
#    7.200    0.000    0.000    1.200    0.000    0.000 
#    0.000    0.000    0.000    0.000    0.000    0.000 
#
# Total GULP energy -111729.571843 kJ/mol
# GULP energy per Si atom -5586.478592 kJ/mol
# Density = 2.127415 g / cm^3
# Si number density = 21.322678 Si / 1000 Ang^3
#
#
#
# Elastic Constant Matrix: (Units=GPa)
#
#
# Indices 1 2 3 4 5 6 
#
# 1 51.6227 37.7512 27.3985 0.0000 2.0882 0.0000
# 2 37.7512 96.3873 11.5526 0.0000 -2.7504 0.0000
# 3 27.3985 11.5526 179.3545 0.0000 -1.2212 0.0000
# 4 0.0000 0.0000 0.0000 21.9826 0.0000 -5.9574
# 5 2.0882 -2.7504 -1.2212 0.0000 41.0712 0.0000
# 6 0.0000 0.0000 0.0000 -5.9574 0.0000 3.1422
#
#
#
# Elastic Compliance Matrix: (Units=1/GPa)
#
#
# Indices 1 2 3 4 5 6 
#
# 1 0.029731 -0.011253 -0.003833 0.000000 -0.002379 0.000000
# 2 -0.011253 0.014734 0.000781 0.000000 0.001582 0.000000
# 3 -0.003833 0.000781 0.006114 0.000000 0.000429 0.000000
# 4 0.000000 0.000000 0.000000 0.093565 0.000000 0.177392
# 5 -0.002379 0.001582 0.000429 0.000000 0.024588 0.000000
# 6 0.000000 0.000000 0.000000 0.177392 0.000000 0.654572
#
#
# Mechanical properties :
#
#
# Convention : Reuss Voigt Hill
#
# Bulk Modulus (GPa) = 45.52099 53.41876 49.46988
# Shear Modulus (GPa) = 5.81912 29.95001 17.88456
#
# Velocity S-wave (km/s) = 1.65378 3.75188 2.89927
# Velocity P-wave (km/s) = 5.00416 6.62387 5.87015
#
# Compressibility (1/GPa) = 0.02196789
#
# Stress axis : x y z
#
# Youngs Moduli (GPa) = 33.63468 67.87136 163.56609
#
# Poissons Ratio (x) = 0.76376 0.62697
# Poissons Ratio (y) = 0.37849 -0.12771
# Poissons Ratio (z) = 0.12893 -0.05299
#
# Static dielectric constant tensor:
#      x y z
#    x 1.812370 0.000000 0.025780 
#    y 0.000000 1.749390 0.000000 
#    z 0.025780 0.000000 1.835100 
# 
# From -- ./inp_files/90564.got.cif
#   From: 2010.05.17/outbox.cif.g08.bks.cpg/sg15_46_cif.got.tgz:90564.got - 2010.06.03 18:47:42.
