data_PCOD9265887
_publ_section_title
;
Structure prediction by ZEFSAII (Michael W. Deem and Ramdas Pophale) SiO2 
 PCOD9265887
Probable space group: C 2/C
;
_chemical_formula_sum "Si O2"
_cell_formula_units_Z 56
_cell_length_a 8.484383
_cell_length_b 28.137128
_cell_length_c 14.272576
_cell_angle_alpha 90.000000
_cell_angle_beta 61.361518
_cell_angle_gamma 90.000000
_cell_volume 2990.400313
_symmetry_space_group_name_H-M "C 2/C"
_symmetry_group_IT_number 15
_symmetry_cell_setting 'monoclinic'
loop_
_space_group_symop_operation_xyz
x,y,z
-x,y,1/2-z
-x,-y,-z
x,-y,1/2+z
1/2+x,1/2+y,z
1/2-x,1/2+y,1/2-z
1/2-x,1/2-y,-z
1/2+x,1/2-y,1/2+z
loop_
_atom_site_type_symbol
_atom_site_label
_atom_site_fract_x
_atom_site_fract_y
_atom_site_fract_z
Si Si1 0.858819 0.939198 0.205745
Si Si2 0.325740 0.453734 0.734415
Si Si3 0.399056 0.304607 0.044427
Si Si4 0.058083 0.695192 0.500974
Si Si5 0.831799 0.341978 0.228820
Si Si6 0.612971 0.601035 0.473858
Si Si7 0.984200 0.618049 0.142454
O O1 0.718191 0.897221 0.262996
O O2 0.000000 0.938139 0.250000
O O3 0.777395 0.991804 0.224571
O O4 0.973961 0.925240 0.081586
O O5 0.500000 0.454342 0.750000
O O6 0.382677 0.426190 0.625003
O O7 0.160468 0.424236 0.824396
O O8 0.235886 0.310614 0.015782
O O9 0.326467 0.315447 0.169927
O O10 0.460839 0.250503 0.018369
O O11 0.546120 0.344764 0.981651
O O12 0.072791 0.662480 0.405038
O O13 0.890744 0.678722 0.612668
O O14 0.000000 0.336539 0.250000
O O15 0.819198 0.601827 0.448189
O O16 0.000000 0.629041 0.250000
#
# Coordination Sequence:
#
# PCOD9265887 Si02
#       7
#     8   8   8   8   8   8   8
#     4  10  20  36  56  79 106 141 180 222 273 324
#     4  10  21  37  56  79 107 144 184 221 266 322
#     4   9  20  35  58  82 106 144 186 221 267 321
#     4  10  19  37  57  80 111 146 182 224 267 316
#     4   9  19  34  54  81 108 138 181 226 267 318
#     4  10  20  37  55  79 111 142 177 226 275 320
#     4  10  22  36  54  82 113 142 179 222 270 323
#
# _framework density 18.726590999999999
#
# number of rings (size 3 to 8) (size 9 to 14) (size 15 to 20)
#    0.000    2.286    0.000    2.143    0.000    4.571 
#    0.000   15.000    0.000    0.000    0.000    0.000 
#    0.000    0.000    0.000    0.000    0.000    0.000 
#
# Total GULP energy -156220.631028 kJ/mol
# GULP energy per Si atom -5579.308251 kJ/mol
# Density = 1.868397 g / cm^3
# Si number density = 18.726591 Si / 1000 Ang^3
#
#
#
# Elastic Constant Matrix: (Units=GPa)
#
#
# Indices 1 2 3 4 5 6 
#
# 1 35.0298 39.1329 20.3558 0.0000 -4.3915 0.0000
# 2 39.1329 177.0769 78.0008 0.0000 -11.0949 0.0000
# 3 20.3558 78.0008 72.1419 0.0000 -7.5231 0.0000
# 4 0.0000 0.0000 0.0000 15.7634 0.0000 -0.8038
# 5 -4.3915 -11.0949 -7.5231 0.0000 19.0523 0.0000
# 6 0.0000 0.0000 0.0000 -0.8038 0.0000 28.4654
#
#
#
# Elastic Compliance Matrix: (Units=1/GPa)
#
#
# Indices 1 2 3 4 5 6 
#
# 1 0.038519 -0.006996 -0.002924 0.000000 0.003650 0.000000
# 2 -0.006996 0.012109 -0.011005 0.000000 0.001094 0.000000
# 3 -0.002924 -0.011005 0.026957 0.000000 0.003562 0.000000
# 4 0.000000 0.000000 0.000000 0.063530 0.000000 0.001794
# 5 0.003650 0.001094 0.003562 0.000000 0.055372 0.000000
# 6 0.000000 0.000000 0.000000 0.001794 0.000000 0.035181
#
#
# Mechanical properties :
#
#
# Convention : Reuss Voigt Hill
#
# Bulk Modulus (GPa) = 27.98325 62.13641 45.05983
# Shear Modulus (GPa) = 17.51752 22.44015 19.97884
#
# Velocity S-wave (km/s) = 3.06181 3.46541 3.26984
# Velocity P-wave (km/s) = 5.24166 7.01890 6.19435
#
# Compressibility (1/GPa) = 0.03573567
#
# Stress axis : x y z
#
# Youngs Moduli (GPa) = 25.96116 82.58116 37.09667
#
# Poissons Ratio (x) = 0.57771 0.10848
# Poissons Ratio (y) = 0.18162 0.40824
# Poissons Ratio (z) = 0.07592 0.90879
#
# Static dielectric constant tensor:
#      x y z
#    x 1.663930 0.000000 -0.005290 
#    y 0.000000 1.623430 0.000000 
#    z -0.005290 0.000000 1.651080 
# 
# From -- ./inp_files/137692.got.cif
#   From: 2010.05.17/outbox.cif.g08.bks.cpg/sg15_69_cif.got.tgz:137692.got - 2010.06.03 18:47:42.
