data_PCOD9265588
_publ_section_title
;
Structure prediction by ZEFSAII (Michael W. Deem and Ramdas Pophale) SiO2 
 PCOD9265588
Probable space group: C 2/C
;
_chemical_formula_sum "Si O2"
_cell_formula_units_Z 60
_cell_length_a 25.658804
_cell_length_b 18.887561
_cell_length_c 8.916901
_cell_angle_alpha 90.000000
_cell_angle_beta 134.918033
_cell_angle_gamma 90.000000
_cell_volume 3060.072017
_symmetry_space_group_name_H-M "C 2/C"
_symmetry_group_IT_number 15
_symmetry_cell_setting 'monoclinic'
loop_
_space_group_symop_operation_xyz
x,y,z
-x,y,1/2-z
-x,-y,-z
x,-y,1/2+z
1/2+x,1/2+y,z
1/2-x,1/2+y,1/2-z
1/2-x,1/2-y,-z
1/2+x,1/2-y,1/2+z
loop_
_atom_site_type_symbol
_atom_site_label
_atom_site_fract_x
_atom_site_fract_y
_atom_site_fract_z
Si Si1 0.000000 0.532393 0.250000
Si Si2 0.075404 0.860121 0.489394
Si Si3 0.922436 0.863078 0.649820
Si Si4 0.700493 0.292999 0.559581
Si Si5 0.839595 0.001399 0.875488
Si Si6 0.137618 0.273088 0.640491
Si Si7 0.088267 0.423668 0.640457
Si Si8 0.244954 0.055868 0.053508
O O1 0.052028 0.480733 0.454590
O O2 0.044700 0.575774 0.211382
O O3 0.070745 0.853005 0.658364
O O4 0.142288 0.811441 0.568159
O O5 0.099479 0.940165 0.492643
O O6 0.000000 0.842635 0.250000
O O7 0.863534 0.923231 0.488966
O O8 0.906485 0.790567 0.526445
O O9 0.000000 0.892029 0.750000
O O10 0.782501 0.273935 0.780203
O O11 0.662211 0.241984 0.362281
O O12 0.716992 0.363998 0.498339
O O13 0.816732 0.012718 0.658867
O O14 0.764804 0.972599 0.799195
O O15 0.095422 0.347909 0.568609
O O16 0.172950 0.446565 0.838835
#
# Coordination Sequence:
#
# PCOD9265588 Si02
#       8
#     4   8   8   8   8   8   8   8
#     4  10  22  44  64  94 124 154 202 262 322 376
#     4  11  24  40  59  90 128 167 211 258 307 366
#     4  12  25  38  60  90 128 172 210 256 307 374
#     4   9  20  40  62  86 122 164 206 253 310 372
#     4  11  21  36  61  91 123 165 212 256 299 363
#     4  10  21  41  65  89 123 165 205 255 313 371
#     4  10  22  41  67  93 122 159 202 262 320 377
#     4  10  19  36  62  90 121 161 211 256 305 360
#
# _framework density 19.607382999999999
#
# number of rings (size 3 to 8) (size 9 to 14) (size 15 to 20)
#    0.000    1.600    2.667    2.000    2.800    1.600 
#    3.600    0.000    0.000    0.000    0.000    0.000 
#    0.000    0.000    0.000    0.000    0.000    0.000 
#
# Total GULP energy -167186.136756 kJ/mol
# GULP energy per Si atom -5572.871225 kJ/mol
# Density = 1.956276 g / cm^3
# Si number density = 19.607383 Si / 1000 Ang^3
#
#
#
# Elastic Constant Matrix: (Units=GPa)
#
#
# Indices 1 2 3 4 5 6 
#
# 1 110.0998 12.9955 17.4731 0.0000 -4.0342 0.0000
# 2 12.9955 69.3986 8.4017 0.0000 1.1661 0.0000
# 3 17.4731 8.4017 38.2785 0.0000 -8.0133 0.0000
# 4 0.0000 0.0000 0.0000 -11.5793 0.0000 16.7941
# 5 -4.0342 1.1661 -8.0133 0.0000 26.7803 0.0000
# 6 0.0000 0.0000 0.0000 16.7941 0.0000 16.0630
#
#
#
# Elastic Compliance Matrix: (Units=1/GPa)
#
#
# Indices 1 2 3 4 5 6 
#
# 1 0.009915 -0.001358 -0.004164 0.000000 0.000307 0.000000
# 2 -0.001358 0.015064 -0.003058 0.000000 -0.001776 0.000000
# 3 -0.004164 -0.003058 0.030503 0.000000 0.008633 0.000000
# 4 0.000000 0.000000 0.000000 -0.034320 0.000000 0.035882
# 5 0.000307 -0.001776 0.008633 0.000000 0.040048 0.000000
# 6 0.000000 0.000000 0.000000 0.035882 0.000000 0.024740
#
#
# Mechanical properties :
#
#
# Convention : Reuss Voigt Hill
#
# Bulk Modulus (GPa) = 26.09401 32.83527 29.46464
# Shear Modulus (GPa) = 43.14657 18.17989 30.66323
#
# Velocity S-wave (km/s) = 4.69607 3.04829 3.95886
# Velocity P-wave (km/s) = 6.53768 5.40113 5.99639
#
# Compressibility (1/GPa) = 0.03832297
#
# Stress axis : x y z
#
# Youngs Moduli (GPa) = 100.85778 66.38409 32.78312
#
# Poissons Ratio (x) = 0.09013 0.13650
# Poissons Ratio (y) = 0.13694 0.10026
# Poissons Ratio (z) = 0.41994 0.20302
#
# Static dielectric constant tensor:
#      x y z
#    x 1.712820 0.000000 0.022320 
#    y 0.000000 1.693570 0.000000 
#    z 0.022320 0.000000 1.725940 
# 
# From -- ./inp_files/67045.got.cif
#   From: 2010.05.17/outbox.cif.g08.bks.cpg/sg15_34_cif.got.tgz:67045.got - 2010.06.03 18:47:42.
