data_PCOD9265303
_publ_section_title
;
Structure prediction by ZEFSAII (Michael W. Deem and Ramdas Pophale) SiO2 
 PCOD9265303
Probable space group: C 2/C
;
_chemical_formula_sum "Si O2"
_cell_formula_units_Z 52
_cell_length_a 9.735009
_cell_length_b 17.942518
_cell_length_c 18.654666
_cell_angle_alpha 90.000000
_cell_angle_beta 125.658735
_cell_angle_gamma 90.000000
_cell_volume 2647.478936
_symmetry_space_group_name_H-M "C 2/C"
_symmetry_group_IT_number 15
_symmetry_cell_setting 'monoclinic'
loop_
_space_group_symop_operation_xyz
x,y,z
-x,y,1/2-z
-x,-y,-z
x,-y,1/2+z
1/2+x,1/2+y,z
1/2-x,1/2+y,1/2-z
1/2-x,1/2-y,-z
1/2+x,1/2-y,1/2+z
loop_
_atom_site_type_symbol
_atom_site_label
_atom_site_fract_x
_atom_site_fract_y
_atom_site_fract_z
Si Si1 0.495430 0.436042 0.663919
Si Si2 0.362013 0.966321 0.768669
Si Si3 0.758071 0.813066 0.562508
Si Si4 0.020662 0.580695 0.465802
Si Si5 0.241847 0.135615 0.756669
Si Si6 0.878549 0.107538 0.620272
Si Si7 0.500000 0.764102 0.250000
O O1 0.500000 0.416710 0.750000
O O2 0.685373 0.428930 0.694437
O O3 0.375406 0.384289 0.580667
O O4 0.429406 0.520598 0.644023
O O5 0.500000 0.960292 0.750000
O O6 0.432617 0.932022 0.863057
O O7 0.312696 0.052361 0.766611
O O8 0.750000 0.750000 0.500000
O O9 0.580535 0.852614 0.526086
O O10 0.857517 0.778700 0.660731
O O11 0.216441 0.604753 0.519721
O O12 0.000000 0.500000 0.500000
O O13 0.192353 0.138671 0.825535
O O14 0.388084 0.188762 0.772444
O O15 0.060552 0.145334 0.660660
#
# Coordination Sequence:
#
# PCOD9265303 Si02
#       7
#     8   8   8   8   8   8   4
#     4  11  17  41  64  88 120 167 215 260 316 379
#     4  11  21  35  63  96 125 159 216 275 324 372
#     4  12  25  39  67  93 126 172 217 258 329 406
#     4  12  20  39  68  95 124 165 225 274 323 381
#     4  10  19  36  59  91 124 163 205 257 319 381
#     4  10  19  36  68  92 116 161 220 266 311 376
#     4  12  24  40  60  88 140 164 198 266 334 384
#
# _framework density 19.641327
#
# number of rings (size 3 to 8) (size 9 to 14) (size 15 to 20)
#    0.000    0.923    9.231    0.923    0.000    0.000 
#    2.769    2.308   16.923    0.000    0.000    0.000 
#    0.000    0.000    0.000    0.000    0.000    0.000 
#
# Total GULP energy -144982.589366 kJ/mol
# GULP energy per Si atom -5576.253437 kJ/mol
# Density = 1.959662 g / cm^3
# Si number density = 19.641327 Si / 1000 Ang^3
#
#
#
# Elastic Constant Matrix: (Units=GPa)
#
#
# Indices 1 2 3 4 5 6 
#
# 1 111.5566 25.1755 20.9078 0.0000 27.3505 0.0000
# 2 25.1755 55.8922 20.7268 0.0000 4.7481 0.0000
# 3 20.9078 20.7268 81.5478 0.0000 29.4745 0.0000
# 4 0.0000 0.0000 0.0000 27.6916 0.0000 12.9682
# 5 27.3505 4.7481 29.4745 0.0000 36.2908 0.0000
# 6 0.0000 0.0000 0.0000 12.9682 0.0000 14.1526
#
#
#
# Elastic Compliance Matrix: (Units=1/GPa)
#
#
# Indices 1 2 3 4 5 6 
#
# 1 0.012298 -0.005370 0.001851 0.000000 -0.010069 0.000000
# 2 -0.005370 0.022214 -0.006627 0.000000 0.006523 0.000000
# 3 0.001851 -0.006627 0.019341 0.000000 -0.016236 0.000000
# 4 0.000000 0.000000 0.000000 0.063257 0.000000 -0.057963
# 5 -0.010069 0.006523 -0.016236 0.000000 0.047477 0.000000
# 6 0.000000 0.000000 0.000000 -0.057963 0.000000 0.123771
#
#
# Mechanical properties :
#
#
# Convention : Reuss Voigt Hill
#
# Bulk Modulus (GPa) = 29.79679 42.51297 36.15488
# Shear Modulus (GPa) = 15.63301 27.77276 21.70288
#
# Velocity S-wave (km/s) = 2.82427 3.76439 3.32770
# Velocity P-wave (km/s) = 5.08318 6.37070 5.76301
#
# Compressibility (1/GPa) = 0.03356066
#
# Stress axis : x y z
#
# Youngs Moduli (GPa) = 81.31587 45.01685 51.70396
#
# Poissons Ratio (x) = 0.24176 -0.09572
# Poissons Ratio (y) = 0.43670 0.34264
# Poissons Ratio (z) = -0.15055 0.29832
#
# Static dielectric constant tensor:
#      x y z
#    x 1.697380 0.000000 0.028410 
#    y 0.000000 1.723280 0.000000 
#    z 0.028410 0.000000 1.710190 
# 
# From -- ./inp_files/233124.got.cif
#   From: 2010.05.17/outbox.cif.g08.bks.cpg/sg15_117_cif.got.tgz:233124.got - 2010.06.03 18:47:42.
