data_PCOD9265745
_publ_section_title
;
Structure prediction by ZEFSAII (Michael W. Deem and Ramdas Pophale) SiO2 
 PCOD9265745
Probable space group: C 2/C
;
_chemical_formula_sum "Si O2"
_cell_formula_units_Z 64
_cell_length_a 21.164766
_cell_length_b 19.907166
_cell_length_c 18.170823
_cell_angle_alpha 90.000000
_cell_angle_beta 157.881693
_cell_angle_gamma 90.000000
_cell_volume 2882.609987
_symmetry_space_group_name_H-M "C 2/C"
_symmetry_group_IT_number 15
_symmetry_cell_setting 'monoclinic'
loop_
_space_group_symop_operation_xyz
x,y,z
-x,y,1/2-z
-x,-y,-z
x,-y,1/2+z
1/2+x,1/2+y,z
1/2-x,1/2+y,1/2-z
1/2-x,1/2-y,-z
1/2+x,1/2-y,1/2+z
loop_
_atom_site_type_symbol
_atom_site_label
_atom_site_fract_x
_atom_site_fract_y
_atom_site_fract_z
Si Si1 0.125580 0.705135 0.568714
Si Si2 0.623647 0.799200 0.821724
Si Si3 0.822629 0.464718 0.032209
Si Si4 0.242214 0.048179 0.208495
Si Si5 0.669697 0.644158 0.268543
Si Si6 0.619077 0.942033 0.045821
Si Si7 0.417021 0.238412 0.470482
Si Si8 0.161762 0.071890 0.969207
O O1 0.172701 0.633356 0.587608
O O2 0.281248 0.749642 0.759118
O O3 0.995518 0.734248 0.368766
O O4 0.050235 0.694101 0.569359
O O5 0.500000 0.827130 0.750000
O O6 0.750000 0.750000 0.000000
O O7 0.722414 0.862631 0.897287
O O8 0.000000 0.434284 0.250000
O O9 0.697740 0.408281 0.864828
O O10 0.872608 0.513122 0.017976
O O11 0.745286 0.511562 0.012620
O O12 0.191688 0.102224 0.215892
O O13 0.431930 0.058169 0.379923
O O14 0.254458 0.976476 0.260726
O O15 0.121949 0.048624 0.008733
O O16 0.824640 0.697209 0.433751
O O17 0.505472 0.691770 0.088801
O O18 0.000000 0.093611 0.750000
#
# Coordination Sequence:
#
# PCOD9265745 Si02
#       8
#     8   8   8   8   8   8   8   8
#     4  11  20  37  57  82 113 158 199 255 301 363
#     4  12  24  38  55  83 122 169 210 247 305 377
#     4  11  22  41  66  91 124 169 210 259 320 386
#     4  10  20  37  61  92 118 152 203 256 307 374
#     4  10  22  41  65  96 125 159 211 266 320 378
#     4  10  19  36  65  88 114 155 208 254 307 368
#     4  10  22  37  61  88 120 155 207 262 315 367
#     4  12  25  40  59  92 132 167 208 262 317 380
#
# _framework density 22.202102
#
# number of rings (size 3 to 8) (size 9 to 14) (size 15 to 20)
#    0.000    1.250    3.750    2.250    0.000    6.000 
#    0.000    4.375    0.000    0.000    0.000    0.000 
#    0.000    0.000    0.000    0.000    0.000    0.000 
#
# Total GULP energy -178694.000987 kJ/mol
# GULP energy per Si atom -5584.187531 kJ/mol
# Density = 2.215157 g / cm^3
# Si number density = 22.202102 Si / 1000 Ang^3
#
#
#
# Elastic Constant Matrix: (Units=GPa)
#
#
# Indices 1 2 3 4 5 6 
#
# 1 42.2555 15.9916 8.9323 -0.0002 -15.6046 -0.0002
# 2 15.9916 93.0874 29.4783 -0.0001 -17.0606 -0.0001
# 3 8.9323 29.4783 61.5864 -0.0002 -20.3225 -0.0007
# 4 -0.0002 -0.0001 -0.0002 26.0966 0.0003 -0.2571
# 5 -15.6046 -17.0606 -20.3225 0.0003 32.2448 -0.0002
# 6 -0.0002 -0.0001 -0.0007 -0.2571 -0.0002 16.3611
#
#
#
# Elastic Compliance Matrix: (Units=1/GPa)
#
#
# Indices 1 2 3 4 5 6 
#
# 1 0.029553 -0.003107 0.001740 0.000000 0.013754 0.000001
# 2 -0.003107 0.013335 -0.005177 0.000000 0.002289 0.000000
# 3 0.001740 -0.005177 0.022521 0.000000 0.012297 0.000001
# 4 0.000000 0.000000 0.000000 0.038325 0.000000 0.000602
# 5 0.013754 0.002289 0.012297 0.000000 0.046630 0.000001
# 6 0.000001 0.000000 0.000001 0.000602 0.000001 0.061130
#
#
# Mechanical properties :
#
#
# Convention : Reuss Voigt Hill
#
# Bulk Modulus (GPa) = 19.11300 33.97042 26.54171
# Shear Modulus (GPa) = 20.65918 24.44231 22.55075
#
# Velocity S-wave (km/s) = 3.05373 3.32158 3.19047
# Velocity P-wave (km/s) = 4.58923 5.48127 5.05496
#
# Compressibility (1/GPa) = 0.05232041
#
# Stress axis : x y z
#
# Youngs Moduli (GPa) = 33.83744 74.98893 44.40376
#
# Poissons Ratio (x) = 0.23299 -0.07725
# Poissons Ratio (y) = 0.10513 0.22987
# Poissons Ratio (z) = -0.05886 0.38821
#
# Static dielectric constant tensor:
#      x y z
#    x 1.855980 0.000000 0.034760 
#    y 0.000000 1.805570 0.000000 
#    z 0.034760 0.000000 1.911460 
# 
# From -- ./inp_files/256017.got.cif
#   From: 2010.05.17/outbox.cif.g08.bks.cpg/sg15_129_cif.got.tgz:256017.got - 2010.06.03 18:47:42.
