data_PCOD9265369
_publ_section_title
;
Structure prediction by ZEFSAII (Michael W. Deem and Ramdas Pophale) SiO2 
 PCOD9265369
Probable space group: C 2/C
;
_chemical_formula_sum "Si O2"
_cell_formula_units_Z 52
_cell_length_a 8.148376
_cell_length_b 18.972575
_cell_length_c 19.693754
_cell_angle_alpha 90.000000
_cell_angle_beta 116.774832
_cell_angle_gamma 90.000000
_cell_volume 2718.142010
_symmetry_space_group_name_H-M "C 2/C"
_symmetry_group_IT_number 15
_symmetry_cell_setting 'monoclinic'
loop_
_space_group_symop_operation_xyz
x,y,z
-x,y,1/2-z
-x,-y,-z
x,-y,1/2+z
1/2+x,1/2+y,z
1/2-x,1/2+y,1/2-z
1/2-x,1/2-y,-z
1/2+x,1/2-y,1/2+z
loop_
_atom_site_type_symbol
_atom_site_label
_atom_site_fract_x
_atom_site_fract_y
_atom_site_fract_z
Si Si1 0.290401 0.850296 0.451689
Si Si2 0.503321 0.780003 0.892951
Si Si3 0.155631 0.388293 0.192512
Si Si4 0.000000 0.637995 0.250000
Si Si5 0.249545 0.336547 0.345756
Si Si6 0.331483 0.533694 0.269221
Si Si7 0.003076 0.957366 0.432171
O O1 0.446473 0.830143 0.534742
O O2 0.333227 0.861890 0.381384
O O3 0.144104 0.785921 0.424338
O O4 0.201321 0.923900 0.457464
O O5 0.526791 0.816640 0.824071
O O6 0.303493 0.744258 0.866218
O O7 0.286569 0.350540 0.272401
O O8 0.213060 0.470100 0.212140
O O9 0.952125 0.364768 0.176254
O O10 0.181327 0.590865 0.266217
O O11 0.374544 0.388608 0.412657
O O12 0.500000 0.555235 0.250000
O O13 0.428776 0.501354 0.354311
O O14 0.000000 0.000000 0.500000
#
# Coordination Sequence:
#
# PCOD9265369 Si02
#       7
#     8   8   8   4   8   8   8
#     4  10  20  37  63  85 119 158 204 248 308 369
#     4  10  22  39  57  88 120 163 200 246 309 375
#     4  10  19  38  62  87 112 156 202 259 299 361
#     4  12  24  42  60  86 132 166 198 264 318 358
#     4   9  20  36  61  88 117 157 203 241 308 366
#     4  11  22  40  62  90 122 162 211 257 312 373
#     4  10  19  36  60  87 118 156 200 253 309 362
#
# _framework density 19.130716
#
# number of rings (size 3 to 8) (size 9 to 14) (size 15 to 20)
#    0.000    1.846    1.538    3.692    0.000    0.615 
#    8.308    1.538    0.000    0.000    0.000    0.000 
#    0.000    0.000    0.000    0.000    0.000    0.000 
#
# Total GULP energy -144797.018869 kJ/mol
# GULP energy per Si atom -5569.116110 kJ/mol
# Density = 1.908717 g / cm^3
# Si number density = 19.130716 Si / 1000 Ang^3
#
#
#
# Elastic Constant Matrix: (Units=GPa)
#
#
# Indices 1 2 3 4 5 6 
#
# 1 96.0108 46.6238 39.9849 0.0000 -10.0535 0.0000
# 2 46.6238 80.7288 61.5274 0.0000 -4.3658 0.0000
# 3 39.9849 61.5274 134.3880 0.0000 -20.4238 0.0000
# 4 0.0000 0.0000 0.0000 4.0868 0.0000 -16.6172
# 5 -10.0535 -4.3658 -20.4238 0.0000 26.8019 0.0000
# 6 0.0000 0.0000 0.0000 -16.6172 0.0000 14.9507
#
#
#
# Elastic Compliance Matrix: (Units=1/GPa)
#
#
# Indices 1 2 3 4 5 6 
#
# 1 0.014937 -0.008454 0.000077 0.000000 0.004285 0.000000
# 2 -0.008454 0.024198 -0.009553 0.000000 -0.006509 0.000000
# 3 0.000077 -0.009553 0.013074 0.000000 0.008435 0.000000
# 4 0.000000 0.000000 0.000000 -0.069528 0.000000 -0.077278
# 5 0.004285 -0.006509 0.008435 0.000000 0.044286 0.000000
# 6 0.000000 0.000000 0.000000 -0.077278 0.000000 -0.019006
#
#
# Mechanical properties :
#
#
# Convention : Reuss Voigt Hill
#
# Bulk Modulus (GPa) = 61.15979 67.48885 64.32432
# Shear Modulus (GPa) = 101.48266 20.03399 60.75832
#
# Velocity S-wave (km/s) = 7.29124 3.23958 5.64168
# Velocity P-wave (km/s) = 10.14503 7.02478 8.72551
#
# Compressibility (1/GPa) = 0.01635061
#
# Stress axis : x y z
#
# Youngs Moduli (GPa) = 66.94630 41.32532 76.49016
#
# Poissons Ratio (x) = 0.34937 -0.00593
# Poissons Ratio (y) = 0.56597 0.73068
# Poissons Ratio (z) = -0.00519 0.39476
#
# Static dielectric constant tensor:
#      x y z
#    x 1.669010 0.000000 0.051820 
#    y 0.000000 1.677750 0.000000 
#    z 0.051820 0.000000 1.680160 
# 
# From -- ./inp_files/191126.got.cif
#   From: 2010.05.17/outbox.cif.g08.bks.cpg/sg15_96_cif.got.tgz:191126.got - 2010.06.03 18:47:42.
