data_PCOD9265884
_publ_section_title
;
Structure prediction by ZEFSAII (Michael W. Deem and Ramdas Pophale) SiO2 
 PCOD9265884
Probable space group: C 2/C
;
_chemical_formula_sum "Si O2"
_cell_formula_units_Z 60
_cell_length_a 15.173732
_cell_length_b 12.996076
_cell_length_c 24.656565
_cell_angle_alpha 90.000000
_cell_angle_beta 36.477284
_cell_angle_gamma 90.000000
_cell_volume 2890.626848
_symmetry_space_group_name_H-M "C 2/C"
_symmetry_group_IT_number 15
_symmetry_cell_setting 'monoclinic'
loop_
_space_group_symop_operation_xyz
x,y,z
-x,y,1/2-z
-x,-y,-z
x,-y,1/2+z
1/2+x,1/2+y,z
1/2-x,1/2+y,1/2-z
1/2-x,1/2-y,-z
1/2+x,1/2-y,1/2+z
loop_
_atom_site_type_symbol
_atom_site_label
_atom_site_fract_x
_atom_site_fract_y
_atom_site_fract_z
Si Si1 0.551985 0.093827 0.784496
Si Si2 0.506577 0.488806 0.862015
Si Si3 0.242270 0.826489 0.229642
Si Si4 0.718317 0.907780 0.403485
Si Si5 0.763665 0.895220 0.674485
Si Si6 0.500000 0.446619 0.750000
Si Si7 0.660386 0.965914 0.541340
Si Si8 0.642202 0.803447 0.638967
O O1 0.500000 0.125007 0.750000
O O2 0.658003 0.167657 0.766276
O O3 0.648546 0.988964 0.732915
O O4 0.415489 0.059930 0.889691
O O5 0.602660 0.594718 0.804304
O O6 0.586370 0.433243 0.872333
O O7 0.513385 0.411644 0.806089
O O8 0.336582 0.516501 0.955537
O O9 0.327964 0.868269 0.133032
O O10 0.209485 0.707874 0.232469
O O11 0.612004 0.952799 0.502372
O O12 0.800426 0.811735 0.391960
O O13 0.848712 0.988653 0.329166
O O14 0.770224 0.863982 0.608587
O O15 0.620674 0.862816 0.594157
O O16 0.500000 0.806024 0.750000
#
# Coordination Sequence:
#
# PCOD9265884 Si02
#       8
#     8   8   8   8   8   4   8   8
#     4  11  21  40  60  85 116 155 190 234 288 349
#     4   9  20  34  55  82 110 144 191 231 282 338
#     4   9  21  38  58  80 117 152 186 230 295 337
#     4   9  18  30  53  80 109 142 179 239 281 337
#     4  10  19  37  57  77 110 157 185 230 282 340
#     4   8  14  32  48  70 102 140 174 222 278 324
#     4  11  20  31  55  86 112 146 186 239 288 335
#     4  11  18  31  52  80 117 145 182 234 295 340
#
# _framework density 20.756744000000001
#
# number of rings (size 3 to 8) (size 9 to 14) (size 15 to 20)
#    0.000    2.133    3.333    0.400    1.867    2.133 
#    2.400    0.667    0.000    0.000    0.000    0.000 
#    0.000    0.000    0.000    0.000    0.000    0.000 
#
# Total GULP energy -167036.406116 kJ/mol
# GULP energy per Si atom -5567.880204 kJ/mol
# Density = 2.070950 g / cm^3
# Si number density = 20.756744 Si / 1000 Ang^3
#
#
#
# Elastic Constant Matrix: (Units=GPa)
#
#
# Indices 1 2 3 4 5 6 
#
# 1 115.1218 7.0544 17.8204 0.0000 16.5804 0.0000
# 2 7.0544 20.0962 -6.3720 0.0000 -0.4041 0.0000
# 3 17.8204 -6.3720 73.8388 -0.0001 8.4475 0.0000
# 4 0.0000 0.0000 -0.0001 14.2108 0.0000 5.2054
# 5 16.5804 -0.4041 8.4475 0.0000 27.7368 0.0000
# 6 0.0000 0.0000 0.0000 5.2054 0.0000 38.5660
#
#
#
# Elastic Compliance Matrix: (Units=1/GPa)
#
#
# Indices 1 2 3 4 5 6 
#
# 1 0.010071 -0.004337 -0.002185 0.000000 -0.005418 0.000000
# 2 -0.004337 0.053038 0.005428 0.000000 0.001712 0.000000
# 3 -0.002185 0.005428 0.014899 0.000000 -0.003153 0.000000
# 4 0.000000 0.000000 0.000000 0.074029 0.000000 -0.009992
# 5 -0.005418 0.001712 -0.003153 0.000000 0.040277 0.000000
# 6 0.000000 0.000000 0.000000 -0.009992 0.000000 0.027278
#
#
# Mechanical properties :
#
#
# Convention : Reuss Voigt Hill
#
# Bulk Modulus (GPa) = 13.18905 27.34028 20.26466
# Shear Modulus (GPa) = 20.23849 28.80633 24.52241
#
# Velocity S-wave (km/s) = 3.12594 3.72937 3.44091
# Velocity P-wave (km/s) = 4.40415 5.63423 5.05674
#
# Compressibility (1/GPa) = 0.07582048
#
# Stress axis : x y z
#
# Youngs Moduli (GPa) = 99.29771 18.85428 67.11679
#
# Poissons Ratio (x) = 0.08177 0.14665
# Poissons Ratio (y) = 0.43064 -0.36430
# Poissons Ratio (z) = 0.21696 -0.10234
#
# Static dielectric constant tensor:
#      x y z
#    x 1.806220 0.000000 0.044050 
#    y 0.000000 1.770100 0.000000 
#    z 0.044050 0.000000 1.790620 
# 
# From -- ./inp_files/244675.got.cif
#   From: 2010.05.17/outbox.cif.g08.bks.cpg/sg15_123_cif.got.tgz:244675.got - 2010.06.03 18:47:42.
