data_PCOD9265421
_publ_section_title
;
Structure prediction by ZEFSAII (Michael W. Deem and Ramdas Pophale) SiO2 
 PCOD9265421
Probable space group: C 2/C
;
_chemical_formula_sum "Si O2"
_cell_formula_units_Z 56
_cell_length_a 12.621091
_cell_length_b 21.234201
_cell_length_c 10.853835
_cell_angle_alpha 90.000000
_cell_angle_beta 112.248140
_cell_angle_gamma 90.000000
_cell_volume 2692.261459
_symmetry_space_group_name_H-M "C 2/C"
_symmetry_group_IT_number 15
_symmetry_cell_setting 'monoclinic'
loop_
_space_group_symop_operation_xyz
x,y,z
-x,y,1/2-z
-x,-y,-z
x,-y,1/2+z
1/2+x,1/2+y,z
1/2-x,1/2+y,1/2-z
1/2-x,1/2-y,-z
1/2+x,1/2-y,1/2+z
loop_
_atom_site_type_symbol
_atom_site_label
_atom_site_fract_x
_atom_site_fract_y
_atom_site_fract_z
Si Si1 0.749312 0.066405 0.879853
Si Si2 0.769617 0.851246 0.973733
Si Si3 0.499834 0.396146 0.553897
Si Si4 0.780705 0.288704 0.135112
Si Si5 0.000000 0.001937 0.750000
Si Si6 0.752542 0.530887 0.897007
Si Si7 0.365550 0.748435 0.710084
Si Si8 0.500000 0.289488 0.750000
O O1 0.697487 0.136731 0.868717
O O2 0.714474 0.032479 0.734519
O O3 0.886474 0.080804 0.933905
O O4 0.727291 0.026512 0.996620
O O5 0.703851 0.906558 0.016119
O O6 0.809662 0.800137 0.090204
O O7 0.885616 0.876516 0.964002
O O8 0.690726 0.816210 0.840096
O O9 0.532399 0.454711 0.654426
O O10 0.466528 0.336939 0.625287
O O11 0.673155 0.277609 0.176304
O O12 0.893214 0.254206 0.238873
O O13 0.750000 0.250000 0.000000
O O14 0.885882 0.038095 0.666043
O O15 0.500000 0.750176 0.750000
#
# Coordination Sequence:
#
# PCOD9265421 Si02
#       8
#     8   8   8   8   4   8   8   4
#     4  11  23  40  63  96 135 175 218 273 336 399
#     4  11  22  37  63  91 129 173 215 273 324 404
#     4  10  19  36  60  94 131 169 214 266 340 390
#     4  12  24  42  67  98 131 177 220 276 334 396
#     4   9  20  32  56  96 130 167 206 270 330 395
#     4  11  22  37  61  93 134 174 221 266 334 404
#     4  11  25  41  63  95 133 172 220 272 337 397
#     4  11  22  38  66  94 136 167 222 280 328 393
#
# _framework density 20.800357999999999
#
# number of rings (size 3 to 8) (size 9 to 14) (size 15 to 20)
#    0.000    1.143    4.286    2.571    1.000    3.429 
#    0.000    0.000    1.571    0.857    0.000    0.000 
#    0.000    0.000    0.000    0.000    0.000    0.000 
#
# Total GULP energy -156305.695292 kJ/mol
# GULP energy per Si atom -5582.346260 kJ/mol
# Density = 2.075302 g / cm^3
# Si number density = 20.800358 Si / 1000 Ang^3
#
#
#
# Elastic Constant Matrix: (Units=GPa)
#
#
# Indices 1 2 3 4 5 6 
#
# 1 46.9006 20.1653 14.5480 0.0000 -15.3746 0.0000
# 2 20.1653 118.0255 63.2491 0.0000 -2.7491 0.0000
# 3 14.5480 63.2491 96.7333 0.0000 -31.9358 0.0000
# 4 0.0000 0.0000 0.0000 36.8526 0.0000 0.9538
# 5 -15.3746 -2.7491 -31.9358 0.0000 24.6019 0.0000
# 6 0.0000 0.0000 0.0000 0.9538 0.0000 15.1843
#
#
#
# Elastic Compliance Matrix: (Units=1/GPa)
#
#
# Indices 1 2 3 4 5 6 
#
# 1 0.038923 -0.017742 0.022964 0.000000 0.052152 0.000000
# 2 -0.017742 0.026855 -0.030730 0.000000 -0.047978 0.000000
# 3 0.022964 -0.030730 0.053516 0.000000 0.080387 0.000000
# 4 0.000000 0.000000 0.000000 0.027179 0.000000 -0.001707
# 5 0.052152 -0.047978 0.080387 0.000000 0.172228 0.000000
# 6 0.000000 0.000000 0.000000 -0.001707 0.000000 0.065965
#
#
# Mechanical properties :
#
#
# Convention : Reuss Voigt Hill
#
# Bulk Modulus (GPa) = 14.64595 50.84271 32.74433
# Shear Modulus (GPa) = 10.90655 26.24090 18.57373
#
# Velocity S-wave (km/s) = 2.29234 3.55570 2.99147
# Velocity P-wave (km/s) = 3.75006 6.43067 5.26386
#
# Compressibility (1/GPa) = 0.06827828
#
# Stress axis : x y z
#
# Youngs Moduli (GPa) = 25.69190 37.23759 18.68600
#
# Poissons Ratio (x) = 0.66067 -0.42911
# Poissons Ratio (y) = 0.45582 0.57422
# Poissons Ratio (z) = -0.59000 1.14431
#
# Static dielectric constant tensor:
#      x y z
#    x 1.742490 0.000000 -0.006240 
#    y 0.000000 1.805640 0.000000 
#    z -0.006240 0.000000 1.811980 
# 
# From -- ./inp_files/89692.got.cif
#   From: 2010.05.17/outbox.cif.g08.bks.cpg/sg15_45_cif.got.tgz:89692.got - 2010.06.03 18:47:42.
