data_PCOD9265559
_publ_section_title
;
Structure prediction by ZEFSAII (Michael W. Deem and Ramdas Pophale) SiO2 
 PCOD9265559
Probable space group: C 2/C
;
_chemical_formula_sum "Si O2"
_cell_formula_units_Z 56
_cell_length_a 12.345155
_cell_length_b 10.732132
_cell_length_c 24.597584
_cell_angle_alpha 90.000000
_cell_angle_beta 43.357925
_cell_angle_gamma 90.000000
_cell_volume 2237.430530
_symmetry_space_group_name_H-M "C 2/C"
_symmetry_group_IT_number 15
_symmetry_cell_setting 'monoclinic'
loop_
_space_group_symop_operation_xyz
x,y,z
-x,y,1/2-z
-x,-y,-z
x,-y,1/2+z
1/2+x,1/2+y,z
1/2-x,1/2+y,1/2-z
1/2-x,1/2-y,-z
1/2+x,1/2-y,1/2+z
loop_
_atom_site_type_symbol
_atom_site_label
_atom_site_fract_x
_atom_site_fract_y
_atom_site_fract_z
Si Si1 0.048686 0.560721 0.605756
Si Si2 0.390499 0.484212 0.121522
Si Si3 0.845564 0.772845 0.742435
Si Si4 0.084132 0.383302 0.769172
Si Si5 0.455939 0.526479 0.827219
Si Si6 0.344646 0.098803 0.092195
Si Si7 0.616041 0.333080 0.488010
O O1 0.941751 0.661575 0.678280
O O2 0.053904 0.445595 0.645903
O O3 0.958561 0.484949 0.589468
O O4 0.220198 0.626465 0.542147
O O5 0.210802 0.511802 0.203776
O O6 0.483703 0.418636 0.137421
O O7 0.393756 0.407464 0.065170
O O8 0.475990 0.614596 0.076171
O O9 0.693833 0.790780 0.760747
O O10 0.764382 0.803695 0.831494
O O11 0.958820 0.892078 0.699136
O O12 0.000000 0.323416 0.750000
O O13 0.500000 0.568920 0.750000
O O14 0.271003 0.501018 0.893333
O O15 0.407110 0.190483 0.022203
#
# Coordination Sequence:
#
# PCOD9265559 Si02
#       7
#     8   8   8   8   8   8   8
#     4  11  21  38  65  94 123 171 222 265 322 398
#     4  10  22  38  63  95 127 172 213 267 339 392
#     4   9  19  34  58  90 119 159 214 267 317 371
#     4  10  19  36  62  87 119 159 217 263 308 383
#     4   9  18  37  61  90 123 161 215 268 317 384
#     4  10  21  36  62  95 121 169 221 268 325 394
#     4  11  22  40  65  93 131 174 213 268 340 409
#
# _framework density 25.028711000000001
#
# number of rings (size 3 to 8) (size 9 to 14) (size 15 to 20)
#    0.000    2.000    2.857    1.714    0.000    0.571 
#    0.000   11.429    3.143    0.000    0.000    0.000 
#    0.000    0.000    0.000    0.000    0.000    0.000 
#
# Total GULP energy -156048.991391 kJ/mol
# GULP energy per Si atom -5573.178264 kJ/mol
# Density = 2.497174 g / cm^3
# Si number density = 25.028711 Si / 1000 Ang^3
#
#
#
# Elastic Constant Matrix: (Units=GPa)
#
#
# Indices 1 2 3 4 5 6 
#
# 1 178.5621 32.3776 18.1077 0.0000 23.3442 0.0000
# 2 32.3776 92.3338 34.9324 0.0000 -1.3697 0.0000
# 3 18.1077 34.9324 70.1478 0.0000 3.3501 0.0000
# 4 0.0000 0.0000 0.0000 33.2885 0.0000 4.3429
# 5 23.3442 -1.3697 3.3501 0.0000 33.3745 0.0000
# 6 0.0000 0.0000 0.0000 4.3429 0.0000 5.5112
#
#
#
# Elastic Compliance Matrix: (Units=1/GPa)
#
#
# Indices 1 2 3 4 5 6 
#
# 1 0.006666 -0.002269 -0.000365 0.000000 -0.004719 0.000000
# 2 -0.002269 0.014167 -0.006604 0.000000 0.002832 0.000000
# 3 -0.000365 -0.006604 0.017724 0.000000 -0.001795 0.000000
# 4 0.000000 0.000000 0.000000 0.033483 0.000000 -0.026385
# 5 -0.004719 0.002832 -0.001795 0.000000 0.033560 0.000000
# 6 0.000000 0.000000 0.000000 -0.026385 0.000000 0.202240
#
#
# Mechanical properties :
#
#
# Convention : Reuss Voigt Hill
#
# Bulk Modulus (GPa) = 49.80240 56.87546 53.33893
# Shear Modulus (GPa) = 15.01458 31.47657 23.24557
#
# Velocity S-wave (km/s) = 2.45193 3.55014 3.05086
# Velocity P-wave (km/s) = 5.28746 6.29111 5.81100
#
# Compressibility (1/GPa) = 0.02007935
#
# Stress axis : x y z
#
# Youngs Moduli (GPa) = 150.02138 70.58892 56.41949
#
# Poissons Ratio (x) = 0.16018 0.02061
# Poissons Ratio (y) = 0.34043 0.37260
# Poissons Ratio (z) = 0.05480 0.46618
#
# Static dielectric constant tensor:
#      x y z
#    x 2.023300 0.000000 0.021640 
#    y 0.000000 2.050910 0.000000 
#    z 0.021640 0.000000 2.039720 
# 
# From -- ./inp_files/292210.got.cif
#   From: 2010.05.17/outbox.cif.g08.bks.cpg/sg15_147_cif.got.tgz:292210.got - 2010.06.03 18:47:42.
