data_PCOD9265490
_publ_section_title
;
Structure prediction by ZEFSAII (Michael W. Deem and Ramdas Pophale) SiO2 
 PCOD9265490
Probable space group: C 2/C
;
_chemical_formula_sum "Si O2"
_cell_formula_units_Z 56
_cell_length_a 15.690168
_cell_length_b 17.802470
_cell_length_c 8.298001
_cell_angle_alpha 90.000000
_cell_angle_beta 99.005597
_cell_angle_gamma 90.000000
_cell_volume 2289.256968
_symmetry_space_group_name_H-M "C 2/C"
_symmetry_group_IT_number 15
_symmetry_cell_setting 'monoclinic'
loop_
_space_group_symop_operation_xyz
x,y,z
-x,y,1/2-z
-x,-y,-z
x,-y,1/2+z
1/2+x,1/2+y,z
1/2-x,1/2+y,1/2-z
1/2-x,1/2-y,-z
1/2+x,1/2-y,1/2+z
loop_
_atom_site_type_symbol
_atom_site_label
_atom_site_fract_x
_atom_site_fract_y
_atom_site_fract_z
Si Si1 0.000000 0.946845 0.750000
Si Si2 0.349713 0.245413 0.584740
Si Si3 0.604291 0.570545 0.976080
Si Si4 0.702636 0.799624 0.119390
Si Si5 0.309657 0.059142 0.081734
Si Si6 0.611867 0.913616 0.550452
Si Si7 0.388009 0.694228 0.783796
Si Si8 0.500000 0.162725 0.250000
O O1 0.062664 0.910669 0.636261
O O2 0.938168 0.997809 0.618658
O O3 0.250000 0.250000 0.500000
O O4 0.354808 0.250225 0.778666
O O5 0.373849 0.159978 0.551378
O O6 0.403505 0.299900 0.481372
O O7 0.706249 0.554589 0.026841
O O8 0.581968 0.635974 0.841831
O O9 0.663372 0.872719 0.027939
O O10 0.786210 0.823989 0.246246
O O11 0.750000 0.750000 0.000000
O O12 0.363100 0.985483 0.047776
O O13 0.327425 0.079517 0.272803
O O14 0.520614 0.893899 0.609109
O O15 0.578669 0.776088 0.767995
#
# Coordination Sequence:
#
# PCOD9265490 Si02
#       8
#     4   8   8   8   8   8   8   4
#     4  10  21  38  60  90 129 166 198 258 334 404
#     4   9  18  34  57  84 113 156 207 257 318 373
#     4  10  21  38  61  93 129 165 209 258 327 400
#     4  10  19  36  61  90 119 149 200 265 320 377
#     4  11  22  38  61  92 126 163 210 266 318 381
#     4  11  23  39  61  88 126 170 216 268 322 380
#     4   9  19  36  58  82 116 160 207 258 311 384
#     4  10  21  40  60  84 123 172 220 262 318 372
#
# _framework density 24.462085999999999
#
# number of rings (size 3 to 8) (size 9 to 14) (size 15 to 20)
#    0.000    2.000    0.000    4.714    0.000    2.857 
#    0.000   17.143    0.000    6.857    0.000    0.000 
#    0.000    0.000    0.000    0.000    0.000    0.000 
#
# Total GULP energy -156092.376467 kJ/mol
# GULP energy per Si atom -5574.727731 kJ/mol
# Density = 2.440641 g / cm^3
# Si number density = 24.462086 Si / 1000 Ang^3
#
#
#
# Elastic Constant Matrix: (Units=GPa)
#
#
# Indices 1 2 3 4 5 6 
#
# 1 103.3211 25.5644 24.4518 0.0000 -10.5248 0.0000
# 2 25.5644 92.3353 32.7564 0.0000 -28.1476 0.0000
# 3 24.4518 32.7564 133.3195 0.0000 -51.4362 0.0000
# 4 0.0000 0.0000 0.0000 24.4851 0.0000 -1.9097
# 5 -10.5248 -28.1476 -51.4362 0.0000 56.6070 0.0000
# 6 0.0000 0.0000 0.0000 -1.9097 0.0000 33.3996
#
#
#
# Elastic Compliance Matrix: (Units=1/GPa)
#
#
# Indices 1 2 3 4 5 6 
#
# 1 0.010625 -0.002610 -0.001611 0.000000 -0.000786 0.000000
# 2 -0.002610 0.013504 -0.000671 0.000000 0.005620 0.000000
# 3 -0.001611 -0.000671 0.011882 0.000000 0.010164 0.000000
# 4 0.000000 0.000000 0.000000 0.041024 0.000000 0.002346
# 5 -0.000786 0.005620 0.010164 0.000000 0.029549 0.000000
# 6 0.000000 0.000000 0.000000 0.002346 0.000000 0.030075
#
#
# Mechanical properties :
#
#
# Convention : Reuss Voigt Hill
#
# Bulk Modulus (GPa) = 38.12663 54.94680 46.53672
# Shear Modulus (GPa) = 32.21940 39.31189 35.76564
#
# Velocity S-wave (km/s) = 3.63315 4.01316 3.82787
# Velocity P-wave (km/s) = 5.76364 6.63210 6.21306
#
# Compressibility (1/GPa) = 0.02622839
#
# Stress axis : x y z
#
# Youngs Moduli (GPa) = 94.11335 74.05276 84.15813
#
# Poissons Ratio (x) = 0.19327 0.13555
# Poissons Ratio (y) = 0.24563 0.05647
# Poissons Ratio (z) = 0.15159 0.04969
#
# Static dielectric constant tensor:
#      x y z
#    x 2.034470 0.000000 0.009230 
#    y 0.000000 1.951230 0.000000 
#    z 0.009230 0.000000 2.028220 
# 
# From -- ./inp_files/49765.got.cif
#   From: 2010.05.17/outbox.cif.g08.bks.cpg/sg15_25_cif.got.tgz:49765.got - 2010.06.03 18:47:42.
