data_PCOD9265486
_publ_section_title
;
Structure prediction by ZEFSAII (Michael W. Deem and Ramdas Pophale) SiO2 
 PCOD9265486
Probable space group: C 2/C
;
_chemical_formula_sum "Si O2"
_cell_formula_units_Z 32
_cell_length_a 6.825611
_cell_length_b 18.485223
_cell_length_c 10.618173
_cell_angle_alpha 90.000000
_cell_angle_beta 63.894910
_cell_angle_gamma 90.000000
_cell_volume 1203.058635
_symmetry_space_group_name_H-M "C 2/C"
_symmetry_group_IT_number 15
_symmetry_cell_setting 'monoclinic'
loop_
_space_group_symop_operation_xyz
x,y,z
-x,y,1/2-z
-x,-y,-z
x,-y,1/2+z
1/2+x,1/2+y,z
1/2-x,1/2+y,1/2-z
1/2-x,1/2-y,-z
1/2+x,1/2-y,1/2+z
loop_
_atom_site_type_symbol
_atom_site_label
_atom_site_fract_x
_atom_site_fract_y
_atom_site_fract_z
Si Si1 0.292669 0.321526 0.710752
Si Si2 0.569371 0.958630 0.109074
Si Si3 0.542261 0.797730 0.016991
Si Si4 0.596102 0.519666 0.363710
O O1 0.500000 0.324443 0.750000
O O2 0.082683 0.314441 0.859115
O O3 0.339285 0.251508 0.613452
O O4 0.307883 0.398820 0.639880
O O5 0.336379 0.975239 0.262429
O O6 0.548749 0.872906 0.088194
O O7 0.848532 0.974955 0.010345
O O8 0.500000 0.000000 0.000000
O O9 0.750000 0.750000 0.000000
O O10 0.500000 0.513165 0.250000
#
# Coordination Sequence:
#
# PCOD9265486 Si02
#       4
#     8   8   8   8
#     4   9  18  34  59  89 121 166 212 259 314 378
#     4  12  24  40  64  96 130 167 212 268 326 382
#     4  10  19  36  61  89 124 167 210 261 319 380
#     4  11  22  40  65  94 129 170 215 264 320 386
#
# _framework density 26.598870000000002
#
# number of rings (size 3 to 8) (size 9 to 14) (size 15 to 20)
#    0.000    1.500    0.000    9.750    0.000    0.000 
#    0.000    1.250    0.000   24.000    0.000    1.750 
#    0.000    0.000    0.000    0.000    0.000    0.000 
#
# Total GULP energy -89508.193366 kJ/mol
# GULP energy per Si atom -5594.262085 kJ/mol
# Density = 2.653833 g / cm^3
# Si number density = 26.598870 Si / 1000 Ang^3
#
#
#
# Elastic Constant Matrix: (Units=GPa)
#
#
# Indices 1 2 3 4 5 6 
#
# 1 170.2019 79.1496 84.7228 0.0000 -15.6742 0.0000
# 2 79.1496 284.1935 134.2738 0.0000 -0.6861 0.0000
# 3 84.7228 134.2738 359.8770 0.0000 25.4596 0.0000
# 4 0.0000 0.0000 0.0000 68.4130 0.0000 -6.6434
# 5 -15.6742 -0.6861 25.4596 0.0000 61.5175 0.0000
# 6 0.0000 0.0000 0.0000 -6.6434 0.0000 37.9984
#
#
#
# Elastic Compliance Matrix: (Units=1/GPa)
#
#
# Indices 1 2 3 4 5 6 
#
# 1 0.007456 -0.001407 -0.001405 0.000000 0.002465 0.000000
# 2 -0.001407 0.004569 -0.001393 0.000000 0.000269 0.000000
# 3 -0.001405 -0.001393 0.003766 0.000000 -0.001932 0.000000
# 4 0.000000 0.000000 0.000000 0.014870 0.000000 0.002600
# 5 0.002465 0.000269 -0.001932 0.000000 0.017686 0.000000
# 6 0.000000 0.000000 0.000000 0.002600 0.000000 0.026771
#
#
# Mechanical properties :
#
#
# Convention : Reuss Voigt Hill
#
# Bulk Modulus (GPa) = 135.45914 156.72941 146.09428
# Shear Modulus (GPa) = 58.14810 67.99419 63.07115
#
# Velocity S-wave (km/s) = 4.68066 5.06145 4.87478
# Velocity P-wave (km/s) = 8.95816 9.65448 9.31283
#
# Compressibility (1/GPa) = 0.00738230
#
# Stress axis : x y z
#
# Youngs Moduli (GPa) = 134.12160 218.85821 265.55315
#
# Poissons Ratio (x) = 0.30790 0.37305
# Poissons Ratio (y) = 0.18869 0.36982
# Poissons Ratio (z) = 0.18841 0.30479
#
# Static dielectric constant tensor:
#      x y z
#    x 2.093450 0.000000 -0.092430 
#    y 0.000000 1.960320 0.000000 
#    z -0.092430 0.000000 2.229750 
# 
# From -- ./inp_files/136591.got.cif
#   From: 2010.05.17/outbox.cif.g08.bks.cpg/sg15_69_cif.got.tgz:136591.got - 2010.06.03 18:47:42.
