data_PCOD9265773
_publ_section_title
;
Structure prediction by ZEFSAII (Michael W. Deem and Ramdas Pophale) SiO2 
 PCOD9265773
Probable space group: C 2/C
;
_chemical_formula_sum "Si O2"
_cell_formula_units_Z 48
_cell_length_a 8.047440
_cell_length_b 29.865781
_cell_length_c 14.488119
_cell_angle_alpha 90.000000
_cell_angle_beta 37.984184
_cell_angle_gamma 90.000000
_cell_volume 2143.049091
_symmetry_space_group_name_H-M "C 2/C"
_symmetry_group_IT_number 15
_symmetry_cell_setting 'monoclinic'
loop_
_space_group_symop_operation_xyz
x,y,z
-x,y,1/2-z
-x,-y,-z
x,-y,1/2+z
1/2+x,1/2+y,z
1/2-x,1/2+y,1/2-z
1/2-x,1/2-y,-z
1/2+x,1/2-y,1/2+z
loop_
_atom_site_type_symbol
_atom_site_label
_atom_site_fract_x
_atom_site_fract_y
_atom_site_fract_z
Si Si1 0.180643 0.106092 0.085106
Si Si2 0.970868 0.947404 0.499698
Si Si3 0.000000 0.385683 0.750000
Si Si4 0.000000 0.830259 0.250000
Si Si5 0.624421 0.310029 0.820945
Si Si6 0.181730 0.611966 0.761812
Si Si7 0.548492 0.236200 0.007055
O O1 0.000000 0.091424 0.250000
O O2 0.123278 0.159091 0.100386
O O3 0.075437 0.077051 0.046069
O O4 0.499992 0.103510 0.931827
O O5 0.179666 0.933575 0.329752
O O6 0.688311 0.920546 0.610391
O O7 0.000000 0.000000 0.500000
O O8 0.828728 0.349908 0.764528
O O9 0.927537 0.856787 0.187672
O O10 0.728147 0.801585 0.379853
O O11 0.527621 0.277248 0.944867
O O12 0.780689 0.280702 0.676260
O O13 0.000000 0.626911 0.750000
O O14 0.750000 0.250000 0.000000
#
# Coordination Sequence:
#
# PCOD9265773 Si02
#       7
#     8   8   4   4   8   8   8
#     4  10  23  45  65  92 141 188 224 285 357 416
#     4  10  23  41  70  99 133 176 228 290 349 417
#     4  10  19  36  66  92 124 170 224 270 345 416
#     4  12  23  40  72  98 134 182 238 280 349 414
#     4  11  22  38  63  94 129 182 226 282 349 395
#     4  10  24  44  72  99 136 183 230 282 350 419
#     4  12  21  36  64  95 136 172 234 293 327 408
#
# _framework density 22.397991999999999
#
# number of rings (size 3 to 8) (size 9 to 14) (size 15 to 20)
#    0.000    1.333    3.333    2.000    8.167    1.333 
#    1.500    5.000    0.000    0.000    0.000    0.000 
#    0.000    0.000    0.000    0.000    0.000    0.000 
#
# Total GULP energy -133801.015341 kJ/mol
# GULP energy per Si atom -5575.042306 kJ/mol
# Density = 2.234701 g / cm^3
# Si number density = 22.397992 Si / 1000 Ang^3
#
#
#
# Elastic Constant Matrix: (Units=GPa)
#
#
# Indices 1 2 3 4 5 6 
#
# 1 42.5403 23.0903 6.1371 0.0000 -5.5805 0.0000
# 2 23.0903 148.3669 67.4929 0.0000 6.7318 0.0000
# 3 6.1371 67.4929 177.1035 0.0000 -2.4463 0.0000
# 4 0.0000 0.0000 0.0000 43.3718 0.0000 3.2593
# 5 -5.5805 6.7318 -2.4463 0.0000 26.9623 0.0000
# 6 0.0000 0.0000 0.0000 3.2593 0.0000 15.9952
#
#
#
# Elastic Compliance Matrix: (Units=1/GPa)
#
#
# Indices 1 2 3 4 5 6 
#
# 1 0.026974 -0.004997 0.001065 0.000000 0.006927 0.000000
# 2 -0.004997 0.009227 -0.003393 0.000000 -0.003646 0.000000
# 3 0.001065 -0.003393 0.006926 0.000000 0.001696 0.000000
# 4 0.000000 0.000000 0.000000 0.023415 0.000000 -0.004771
# 5 0.006927 -0.003646 0.001696 0.000000 0.039587 0.000000
# 6 0.000000 0.000000 0.000000 -0.004771 0.000000 0.063491
#
#
# Mechanical properties :
#
#
# Convention : Reuss Voigt Hill
#
# Bulk Modulus (GPa) = 35.11591 62.38346 48.74969
# Shear Modulus (GPa) = 25.80472 35.35188 30.57830
#
# Velocity S-wave (km/s) = 3.39794 3.97716 3.69890
# Velocity P-wave (km/s) = 5.57735 7.00022 6.32890
#
# Compressibility (1/GPa) = 0.02847712
#
# Stress axis : x y z
#
# Youngs Moduli (GPa) = 37.07214 108.37922 144.37999
#
# Poissons Ratio (x) = 0.54156 -0.15380
# Poissons Ratio (y) = 0.18525 0.48995
# Poissons Ratio (z) = -0.03949 0.36778
#
# Static dielectric constant tensor:
#      x y z
#    x 2.146560 0.000000 -0.457270 
#    y 0.000000 1.751210 0.000000 
#    z -0.457270 0.000000 3.560180 
# 
# From -- ./inp_files/138962.got.cif
#   From: 2010.05.17/outbox.cif.g08.bks.cpg/sg15_70_cif.got.tgz:138962.got - 2010.06.03 18:47:42.
