data_PCOD9265080
_publ_section_title
;
Structure prediction by ZEFSAII (Michael W. Deem and Ramdas Pophale) SiO2 
 PCOD9265080
Probable space group: C 2/C
;
_chemical_formula_sum "Si O2"
_cell_formula_units_Z 60
_cell_length_a 18.913968
_cell_length_b 21.579411
_cell_length_c 12.342918
_cell_angle_alpha 90.000000
_cell_angle_beta 35.633119
_cell_angle_gamma 90.000000
_cell_volume 2934.980693
_symmetry_space_group_name_H-M "C 2/C"
_symmetry_group_IT_number 15
_symmetry_cell_setting 'monoclinic'
loop_
_space_group_symop_operation_xyz
x,y,z
-x,y,1/2-z
-x,-y,-z
x,-y,1/2+z
1/2+x,1/2+y,z
1/2-x,1/2+y,1/2-z
1/2-x,1/2-y,-z
1/2+x,1/2-y,1/2+z
loop_
_atom_site_type_symbol
_atom_site_label
_atom_site_fract_x
_atom_site_fract_y
_atom_site_fract_z
Si Si1 0.760917 0.351137 0.907248
Si Si2 0.570777 0.738430 0.269217
Si Si3 0.065836 0.745837 0.339578
Si Si4 0.340890 0.059871 0.728102
Si Si5 0.378879 0.068191 0.081460
Si Si6 0.717509 0.858712 0.009033
Si Si7 0.500000 0.347353 0.250000
Si Si8 0.901245 0.636055 0.445530
O O1 0.796803 0.280558 0.831433
O O2 0.854174 0.387154 0.713745
O O3 0.796408 0.356021 0.988251
O O4 0.626326 0.376393 0.053501
O O5 0.500000 0.719395 0.250000
O O6 0.481551 0.744461 0.481159
O O7 0.627192 0.806477 0.172658
O O8 0.671183 0.685508 0.165010
O O9 0.048321 0.805553 0.288197
O O10 0.976418 0.696098 0.391805
O O11 0.477590 0.054654 0.607343
O O12 0.261043 0.090599 0.922483
O O13 0.350341 0.106297 0.616151
O O14 0.313792 0.994764 0.702964
O O15 0.332800 0.103417 0.031672
O O16 0.000000 0.597894 0.250000
#
# Coordination Sequence:
#
# PCOD9265080 Si02
#       8
#     8   8   8   8   8   8   4   8
#     4  11  22  39  59  88 128 159 214 255 308 385
#     4  11  23  39  66  90 132 172 207 262 322 394
#     4  11  20  37  58  92 124 165 203 260 312 377
#     4  11  22  38  66  93 121 166 204 268 326 370
#     4  11  23  38  65  92 126 159 212 269 321 380
#     4  11  23  40  60 100 131 164 213 265 325 388
#     4  12  24  36  60  90 122 172 202 250 318 374
#     4  10  19  36  57  87 125 157 204 253 314 372
#
# _framework density 20.443065000000001
#
# number of rings (size 3 to 8) (size 9 to 14) (size 15 to 20)
#    0.000    1.067    6.000    3.200    1.867    2.133 
#    0.000    0.000    1.467    1.600    0.000    0.000 
#    0.000    0.000    0.000    0.000    0.000    0.000 
#
# Total GULP energy -167263.319905 kJ/mol
# GULP energy per Si atom -5575.443997 kJ/mol
# Density = 2.039654 g / cm^3
# Si number density = 20.443065 Si / 1000 Ang^3
#
#
#
# Elastic Constant Matrix: (Units=GPa)
#
#
# Indices 1 2 3 4 5 6 
#
# 1 87.9548 19.7205 39.8029 0.0000 24.6703 0.0000
# 2 19.7205 69.3752 14.4691 0.0000 13.2830 0.0000
# 3 39.8029 14.4691 71.0120 -0.0002 13.9467 0.0000
# 4 0.0000 0.0000 -0.0002 13.9828 0.0000 3.1132
# 5 24.6703 13.2830 13.9467 0.0000 45.9347 0.0000
# 6 0.0000 0.0000 0.0000 3.1132 0.0000 24.2184
#
#
#
# Elastic Compliance Matrix: (Units=1/GPa)
#
#
# Indices 1 2 3 4 5 6 
#
# 1 0.017188 -0.002027 -0.008000 0.000000 -0.006216 0.000000
# 2 -0.002027 0.015888 -0.001502 0.000000 -0.003050 0.000000
# 3 -0.008000 -0.001502 0.019081 0.000000 -0.001062 0.000000
# 4 0.000000 0.000000 0.000000 0.073624 0.000000 -0.009464
# 5 -0.006216 -0.003050 -0.001062 0.000000 0.026313 0.000000
# 6 0.000000 0.000000 0.000000 -0.009464 0.000000 0.042508
#
#
# Mechanical properties :
#
#
# Convention : Reuss Voigt Hill
#
# Bulk Modulus (GPa) = 34.36667 41.81411 38.09039
# Shear Modulus (GPa) = 21.99171 27.11714 24.55443
#
# Velocity S-wave (km/s) = 3.28343 3.64603 3.46947
# Velocity P-wave (km/s) = 5.58766 6.18248 5.89258
#
# Compressibility (1/GPa) = 0.02909796
#
# Stress axis : x y z
#
# Youngs Moduli (GPa) = 58.18072 62.94153 52.40826
#
# Poissons Ratio (x) = 0.12759 0.41927
# Poissons Ratio (y) = 0.11794 0.07872
# Poissons Ratio (z) = 0.46545 0.09454
#
# Static dielectric constant tensor:
#      x y z
#    x 1.748090 0.000000 -0.065440 
#    y 0.000000 1.814890 0.000000 
#    z -0.065440 0.000000 1.835050 
# 
# From -- ./inp_files/107604.got.cif
#   From: 2010.05.17/outbox.cif.g08.bks.cpg/sg15_54_cif.got.tgz:107604.got - 2010.06.03 18:47:42.
