data_PCOD9265878
_publ_section_title
;
Structure prediction by ZEFSAII (Michael W. Deem and Ramdas Pophale) SiO2 
 PCOD9265878
Probable space group: C 2/C
;
_chemical_formula_sum "Si O2"
_cell_formula_units_Z 52
_cell_length_a 7.119045
_cell_length_b 14.540771
_cell_length_c 20.337463
_cell_angle_alpha 90.000000
_cell_angle_beta 98.372373
_cell_angle_gamma 90.000000
_cell_volume 2082.824528
_symmetry_space_group_name_H-M "C 2/C"
_symmetry_group_IT_number 15
_symmetry_cell_setting 'monoclinic'
loop_
_space_group_symop_operation_xyz
x,y,z
-x,y,1/2-z
-x,-y,-z
x,-y,1/2+z
1/2+x,1/2+y,z
1/2-x,1/2+y,1/2-z
1/2-x,1/2-y,-z
1/2+x,1/2-y,1/2+z
loop_
_atom_site_type_symbol
_atom_site_label
_atom_site_fract_x
_atom_site_fract_y
_atom_site_fract_z
Si Si1 0.750000 0.750000 0.500000
Si Si2 0.264895 0.887079 0.733085
Si Si3 0.760515 0.721384 0.354068
Si Si4 0.799850 0.426011 0.037261
Si Si5 0.701885 0.122118 0.519375
Si Si6 0.795326 0.273435 0.611279
Si Si7 0.829486 0.424859 0.189349
O O1 0.673555 0.720369 0.421868
O O2 0.649444 0.655178 0.529654
O O3 0.500000 0.888189 0.750000
O O4 0.191036 0.854951 0.799557
O O5 0.214353 0.812283 0.674653
O O6 0.206952 0.989284 0.708598
O O7 0.744761 0.821515 0.319809
O O8 0.983257 0.704663 0.373763
O O9 0.867246 0.451177 0.113984
O O10 0.969121 0.366176 0.011224
O O11 0.763114 0.514678 0.991674
O O12 0.765543 0.167079 0.590814
O O13 0.768142 0.173643 0.457614
O O14 0.000000 0.419804 0.250000
#
# Coordination Sequence:
#
# PCOD9265878 Si02
#       7
#     4   8   8   8   8   8   8
#     4  10  20  38  56  82 116 150 184 240 296 340
#     4   9  19  36  59  82 111 149 192 236 282 340
#     4  10  21  38  60  82 118 150 191 239 298 333
#     4  10  20  36  57  86 113 151 191 235 282 351
#     4  10  20  33  61  86 115 147 198 227 282 347
#     4  10  19  37  56  90 113 151 188 244 281 342
#     4  10  21  36  59  84 112 151 193 233 285 345
#
# _framework density 24.966097000000001
#
# number of rings (size 3 to 8) (size 9 to 14) (size 15 to 20)
#    0.000    2.154    3.077    0.000    2.154    0.000 
#    0.000    4.615    0.000    0.000    0.000    0.000 
#    0.000    0.000    0.000    0.000    0.000    0.000 
#
# Total GULP energy -144808.905095 kJ/mol
# GULP energy per Si atom -5569.573273 kJ/mol
# Density = 2.490927 g / cm^3
# Si number density = 24.966097 Si / 1000 Ang^3
#
#
#
# Elastic Constant Matrix: (Units=GPa)
#
#
# Indices 1 2 3 4 5 6 
#
# 1 51.7387 1.0918 24.9639 0.0000 0.2500 0.0000
# 2 1.0918 97.5299 91.4394 0.0000 -4.4881 0.0000
# 3 24.9639 91.4394 188.1288 0.0000 1.2660 0.0000
# 4 0.0000 0.0000 0.0000 51.3353 0.0000 4.9373
# 5 0.2500 -4.4881 1.2660 0.0000 34.7858 0.0000
# 6 0.0000 0.0000 0.0000 4.9373 0.0000 21.0219
#
#
#
# Elastic Compliance Matrix: (Units=1/GPa)
#
#
# Indices 1 2 3 4 5 6 
#
# 1 0.021691 0.004571 -0.005104 0.000000 0.000620 0.000000
# 2 0.004571 0.020070 -0.010381 0.000000 0.002934 0.000000
# 3 -0.005104 -0.010381 0.011050 0.000000 -0.001705 0.000000
# 4 0.000000 0.000000 0.000000 0.019930 0.000000 -0.004681
# 5 0.000620 0.002934 -0.001705 0.000000 0.029184 0.000000
# 6 0.000000 0.000000 0.000000 -0.004681 0.000000 0.048669
#
#
# Mechanical properties :
#
#
# Convention : Reuss Voigt Hill
#
# Bulk Modulus (GPa) = 32.27604 63.59862 47.93733
# Shear Modulus (GPa) = 27.35966 36.08874 31.72420
#
# Velocity S-wave (km/s) = 3.31399 3.80611 3.56854
# Velocity P-wave (km/s) = 5.25351 6.69661 6.01847
#
# Compressibility (1/GPa) = 0.03098274
#
# Stress axis : x y z
#
# Youngs Moduli (GPa) = 46.10143 49.82491 90.49626
#
# Poissons Ratio (x) = -0.22777 0.46193
# Poissons Ratio (y) = -0.21074 0.93948
# Poissons Ratio (z) = 0.23532 0.51725
#
# Static dielectric constant tensor:
#      x y z
#    x 1.644850 0.000000 0.085960 
#    y 0.000000 1.618180 0.000000 
#    z 0.085960 0.000000 1.929530 
# 
# From -- ./inp_files/197343.got.cif
#   From: 2010.05.17/outbox.cif.g08.bks.cpg/sg15_99_cif.got.tgz:197343.got - 2010.06.03 18:47:42.
