data_PCOD9265558
_publ_section_title
;
Structure prediction by ZEFSAII (Michael W. Deem and Ramdas Pophale) SiO2 
 PCOD9265558
Probable space group: C 2/C
;
_chemical_formula_sum "Si O2"
_cell_formula_units_Z 44
_cell_length_a 7.568943
_cell_length_b 28.093335
_cell_length_c 15.120579
_cell_angle_alpha 90.000000
_cell_angle_beta 35.134578
_cell_angle_gamma 90.000000
_cell_volume 1850.339639
_symmetry_space_group_name_H-M "C 2/C"
_symmetry_group_IT_number 15
_symmetry_cell_setting 'monoclinic'
loop_
_space_group_symop_operation_xyz
x,y,z
-x,y,1/2-z
-x,-y,-z
x,-y,1/2+z
1/2+x,1/2+y,z
1/2-x,1/2+y,1/2-z
1/2-x,1/2-y,-z
1/2+x,1/2-y,1/2+z
loop_
_atom_site_type_symbol
_atom_site_label
_atom_site_fract_x
_atom_site_fract_y
_atom_site_fract_z
Si Si1 0.134524 0.850882 0.482561
Si Si2 0.000000 0.430640 0.250000
Si Si3 0.178543 0.748449 0.424957
Si Si4 0.740496 0.391174 0.722861
Si Si5 0.203415 0.017212 0.333072
Si Si6 0.653733 0.844818 0.424440
O O1 0.223766 0.897433 0.391684
O O2 0.112004 0.803819 0.432844
O O3 0.421711 0.849578 0.434926
O O4 0.827437 0.859600 0.663485
O O5 0.140492 0.467986 0.264018
O O6 0.500000 0.735188 0.250000
O O7 0.250000 0.750000 0.500000
O O8 0.923507 0.708910 0.510689
O O9 0.500000 0.371837 0.750000
O O10 0.609759 0.444145 0.800310
O O11 0.057145 0.382063 0.541539
O O12 0.500000 0.044886 0.250000
O O13 0.000000 0.000000 0.500000
O O14 0.000000 0.850084 0.250000
#
# Coordination Sequence:
#
# PCOD9265558 Si02
#       6
#     8   4   8   8   8   8
#     4  10  19  38  64  87 117 172 207 254 314 381
#     4  10  20  36  64  86 122 148 218 248 312 368
#     4  10  19  36  62  87 118 167 214 250 312 382
#     4  10  20  41  65  90 129 172 211 260 318 384
#     4  10  21  38  61  90 125 157 211 261 313 376
#     4  10  22  38  58  90 131 160 211 259 310 372
#
# _framework density 23.779418
#
# number of rings (size 3 to 8) (size 9 to 14) (size 15 to 20)
#    0.545    1.455    2.727    2.727    0.000    1.455 
#    0.000   18.182    0.000    0.000    0.000    0.000 
#    0.000    0.000    0.000    0.000    0.000    0.000 
#
# Total GULP energy -122525.353171 kJ/mol
# GULP energy per Si atom -5569.334235 kJ/mol
# Density = 2.372529 g / cm^3
# Si number density = 23.779418 Si / 1000 Ang^3
#
#
#
# Elastic Constant Matrix: (Units=GPa)
#
#
# Indices 1 2 3 4 5 6 
#
# 1 41.1724 8.8290 25.7168 0.0000 -1.4965 0.0000
# 2 8.8290 168.9740 51.3984 0.0000 13.5597 0.0000
# 3 25.7168 51.3984 210.3286 0.0000 4.5368 0.0000
# 4 0.0000 0.0000 0.0000 31.8761 0.0000 15.6178
# 5 -1.4965 13.5597 4.5368 0.0000 24.6688 0.0000
# 6 0.0000 0.0000 0.0000 15.6178 0.0000 14.4047
#
#
#
# Elastic Compliance Matrix: (Units=1/GPa)
#
#
# Indices 1 2 3 4 5 6 
#
# 1 0.026475 -0.000632 -0.003137 0.000000 0.002531 0.000000
# 2 -0.000632 0.006677 -0.001480 0.000000 -0.003436 0.000000
# 3 -0.003137 -0.001480 0.005508 0.000000 -0.000390 0.000000
# 4 0.000000 0.000000 0.000000 0.066921 0.000000 -0.072557
# 5 0.002531 -0.003436 -0.000390 0.000000 0.042651 0.000000
# 6 0.000000 0.000000 0.000000 -0.072557 0.000000 0.148089
#
#
# Mechanical properties :
#
#
# Convention : Reuss Voigt Hill
#
# Bulk Modulus (GPa) = 35.50981 65.81816 50.66398
# Shear Modulus (GPa) = 15.81240 36.49196 26.15218
#
# Velocity S-wave (km/s) = 2.58148 3.92165 3.31989
# Velocity P-wave (km/s) = 4.88373 6.94583 6.00397
#
# Compressibility (1/GPa) = 0.02816123
#
# Stress axis : x y z
#
# Youngs Moduli (GPa) = 37.77119 149.76489 181.54753
#
# Poissons Ratio (x) = 0.09467 0.56956
# Poissons Ratio (y) = 0.02388 0.26874
# Poissons Ratio (z) = 0.11850 0.22170
#
# Static dielectric constant tensor:
#      x y z
#    x 2.271980 0.000000 0.014290 
#    y 0.000000 2.030950 0.000000 
#    z 0.014290 0.000000 1.992180 
# 
# From -- ./inp_files/194045.got.cif
#   From: 2010.05.17/outbox.cif.g08.bks.cpg/sg15_98_cif.got.tgz:194045.got - 2010.06.03 18:47:42.
