data_PCOD9265542
_publ_section_title
;
Structure prediction by ZEFSAII (Michael W. Deem and Ramdas Pophale) SiO2 
 PCOD9265542
Probable space group: C 2/C
;
_chemical_formula_sum "Si O2"
_cell_formula_units_Z 48
_cell_length_a 18.471846
_cell_length_b 9.431065
_cell_length_c 12.690066
_cell_angle_alpha 90.000000
_cell_angle_beta 97.322830
_cell_angle_gamma 90.000000
_cell_volume 2192.694726
_symmetry_space_group_name_H-M "C 2/C"
_symmetry_group_IT_number 15
_symmetry_cell_setting 'monoclinic'
loop_
_space_group_symop_operation_xyz
x,y,z
-x,y,1/2-z
-x,-y,-z
x,-y,1/2+z
1/2+x,1/2+y,z
1/2-x,1/2+y,1/2-z
1/2-x,1/2-y,-z
1/2+x,1/2-y,1/2+z
loop_
_atom_site_type_symbol
_atom_site_label
_atom_site_fract_x
_atom_site_fract_y
_atom_site_fract_z
Si Si1 0.049572 0.129863 0.102537
Si Si2 0.226776 0.483204 0.342626
Si Si3 0.618337 0.783508 0.799083
Si Si4 0.668694 0.322126 0.783024
Si Si5 0.975515 0.192895 0.894414
Si Si6 0.672454 0.452697 0.453280
O O1 0.093596 0.203052 0.204591
O O2 0.020377 0.975512 0.130059
O O3 0.111541 0.091339 0.026837
O O4 0.988957 0.209783 0.021599
O O5 0.150438 0.561881 0.312676
O O6 0.282526 0.567463 0.276399
O O7 0.214198 0.319481 0.313683
O O8 0.255767 0.513481 0.465977
O O9 0.543109 0.767181 0.849134
O O10 0.598667 0.742183 0.675366
O O11 0.673384 0.675054 0.868633
O O12 0.651854 0.406822 0.886140
#
# Coordination Sequence:
#
# PCOD9265542 Si02
#       6
#     8   8   8   8   8   8
#     4   9  19  36  63  92 112 153 204 243 291 353
#     4  11  24  37  60  90 122 157 196 245 303 356
#     4  10  19  36  62  84 116 159 197 241 292 349
#     4  11  22  39  59  90 123 154 196 251 298 353
#     4   9  18  35  63  83 111 156 202 236 287 350
#     4  10  20  37  62  89 118 155 198 243 299 356
#
# _framework density 21.890872000000002
#
# number of rings (size 3 to 8) (size 9 to 14) (size 15 to 20)
#    0.000    2.000    1.667    2.000    2.333    2.667 
#    0.000    0.833   22.000    0.000    0.000    0.000 
#    0.000    0.000    0.000    0.000    0.000    0.000 
#
# Total GULP energy -133982.304315 kJ/mol
# GULP energy per Si atom -5582.596013 kJ/mol
# Density = 2.184105 g / cm^3
# Si number density = 21.890872 Si / 1000 Ang^3
#
#
#
# Elastic Constant Matrix: (Units=GPa)
#
#
# Indices 1 2 3 4 5 6 
#
# 1 20.8704 -2.1636 14.5143 0.0000 7.8959 0.0000
# 2 -2.1636 75.7881 34.5091 0.0000 9.3345 0.0000
# 3 14.5143 34.5091 142.9997 0.0000 48.6746 0.0000
# 4 0.0000 0.0000 0.0000 3.1282 0.0000 9.5845
# 5 7.8959 9.3345 48.6746 0.0000 34.3391 0.0000
# 6 0.0000 0.0000 0.0000 9.5845 0.0000 38.1049
#
#
#
# Elastic Compliance Matrix: (Units=1/GPa)
#
#
# Indices 1 2 3 4 5 6 
#
# 1 0.054075 0.004241 -0.003647 0.000000 -0.008417 0.000000
# 2 0.004241 0.015228 -0.004569 0.000000 0.001361 0.000000
# 3 -0.003647 -0.004569 0.014990 0.000000 -0.019167 0.000000
# 4 0.000000 0.000000 0.000000 1.393914 0.000000 -0.350611
# 5 -0.008417 0.001361 -0.019167 0.000000 0.057856 0.000000
# 6 0.000000 0.000000 0.000000 -0.350611 0.000000 0.114433
#
#
# Mechanical properties :
#
#
# Convention : Reuss Voigt Hill
#
# Bulk Modulus (GPa) = 13.09858 37.04199 25.07028
# Shear Modulus (GPa) = 2.96931 27.96767 15.46849
#
# Velocity S-wave (km/s) = 1.16592 3.57822 2.66111
# Velocity P-wave (km/s) = 2.79447 5.83348 4.57376
#
# Compressibility (1/GPa) = 0.07634414
#
# Stress axis : x y z
#
# Youngs Moduli (GPa) = 18.49279 65.66669 66.71138
#
# Poissons Ratio (x) = -0.27849 0.24329
# Poissons Ratio (y) = -0.07843 0.30479
# Poissons Ratio (z) = 0.06744 0.30002
#
# Static dielectric constant tensor:
#      x y z
#    x 1.844810 0.000000 0.017430 
#    y 0.000000 1.748360 0.000000 
#    z 0.017430 0.000000 1.876930 
# 
# From -- ./inp_files/166409.got.cif
#   From: 2010.05.17/outbox.cif.g08.bks.cpg/sg15_84_cif.got.tgz:166409.got - 2010.06.03 18:47:42.
