data_PCOD9265718
_publ_section_title
;
Structure prediction by ZEFSAII (Michael W. Deem and Ramdas Pophale) SiO2 
 PCOD9265718
Probable space group: C 2/C
;
_chemical_formula_sum "Si O2"
_cell_formula_units_Z 64
_cell_length_a 9.987272
_cell_length_b 17.507154
_cell_length_c 19.520930
_cell_angle_alpha 90.000000
_cell_angle_beta 103.856422
_cell_angle_gamma 90.000000
_cell_volume 3313.881305
_symmetry_space_group_name_H-M "C 2/C"
_symmetry_group_IT_number 15
_symmetry_cell_setting 'monoclinic'
loop_
_space_group_symop_operation_xyz
x,y,z
-x,y,1/2-z
-x,-y,-z
x,-y,1/2+z
1/2+x,1/2+y,z
1/2-x,1/2+y,1/2-z
1/2-x,1/2-y,-z
1/2+x,1/2-y,1/2+z
loop_
_atom_site_type_symbol
_atom_site_label
_atom_site_fract_x
_atom_site_fract_y
_atom_site_fract_z
Si Si1 0.139256 0.185268 0.470027
Si Si2 0.677366 0.020140 0.196433
Si Si3 0.704607 0.447187 0.648409
Si Si4 0.595384 0.082295 0.573998
Si Si5 0.431351 0.620318 0.172009
Si Si6 0.088785 0.268671 0.982518
Si Si7 0.545259 0.156292 0.330449
Si Si8 0.783510 0.525898 0.519889
O O1 0.250000 0.250000 0.500000
O O2 0.106388 0.186267 0.385439
O O3 0.203226 0.101865 0.489614
O O4 0.006202 0.200741 0.500581
O O5 0.721714 0.008776 0.280121
O O6 0.801802 0.067938 0.176711
O O7 0.547851 0.078906 0.174709
O O8 0.648871 0.940359 0.155538
O O9 0.548910 0.429657 0.649510
O O10 0.795602 0.369826 0.655040
O O11 0.717768 0.489662 0.578865
O O12 0.578254 0.164888 0.538613
O O13 0.442276 0.047513 0.553129
O O14 0.700774 0.036653 0.537533
O O15 0.500000 0.649843 0.250000
O O16 0.035497 0.297238 0.900809
O O17 0.250000 0.250000 0.000000
O O18 0.500000 0.189801 0.250000
#
# Coordination Sequence:
#
# PCOD9265718 Si02
#       8
#     8   8   8   8   8   8   8   8
#     4  12  24  40  61  91 126 168 208 251 310 377
#     4  10  19  36  64  92 118 156 204 261 311 359
#     4  10  20  35  62  95 120 150 211 263 303 363
#     4  11  20  38  64  88 120 157 205 255 311 359
#     4  10  22  39  59  90 126 159 201 258 317 368
#     4  12  25  40  59  91 128 163 205 252 309 374
#     4  10  19  37  63  86 113 161 211 247 296 375
#     4  11  21  37  64  91 117 155 210 256 307 363
#
# _framework density 19.312701000000001
#
# number of rings (size 3 to 8) (size 9 to 14) (size 15 to 20)
#    0.000    1.250    5.000    2.250    0.000    1.500 
#    0.000    2.500    0.000    0.000    0.000    0.000 
#    0.000    0.000    0.000    0.000    0.000    0.000 
#
# Total GULP energy -178548.134934 kJ/mol
# GULP energy per Si atom -5579.629217 kJ/mol
# Density = 1.926874 g / cm^3
# Si number density = 19.312701 Si / 1000 Ang^3
#
#
#
# Elastic Constant Matrix: (Units=GPa)
#
#
# Indices 1 2 3 4 5 6 
#
# 1 92.0531 4.0822 17.6937 0.0000 -12.3276 0.0000
# 2 4.0822 33.6058 27.6285 0.0000 2.4870 0.0000
# 3 17.6937 27.6285 126.3885 0.0000 0.7764 0.0000
# 4 0.0000 0.0000 0.0000 29.3746 0.0000 -5.9861
# 5 -12.3276 2.4870 0.7764 0.0000 29.2721 0.0000
# 6 0.0000 0.0000 0.0000 -5.9861 0.0000 30.0004
#
#
#
# Elastic Compliance Matrix: (Units=1/GPa)
#
#
# Indices 1 2 3 4 5 6 
#
# 1 0.011871 -0.000520 -0.001579 0.000000 0.005085 0.000000
# 2 -0.000520 0.036542 -0.007896 0.000000 -0.003114 0.000000
# 3 -0.001579 -0.007896 0.009861 0.000000 -0.000256 0.000000
# 4 0.000000 0.000000 0.000000 0.035486 0.000000 0.007081
# 5 0.005085 -0.003114 -0.000256 0.000000 0.036575 0.000000
# 6 0.000000 0.000000 0.000000 0.007081 0.000000 0.034746
#
#
# Mechanical properties :
#
#
# Convention : Reuss Voigt Hill
#
# Bulk Modulus (GPa) = 26.12124 38.98402 32.55263
# Shear Modulus (GPa) = 25.27385 31.23895 28.25640
#
# Velocity S-wave (km/s) = 3.62147 4.02622 3.82920
# Velocity P-wave (km/s) = 5.57149 6.46865 6.03676
#
# Compressibility (1/GPa) = 0.03828302
#
# Stress axis : x y z
#
# Youngs Moduli (GPa) = 84.23910 27.36568 101.41051
#
# Poissons Ratio (x) = 0.01423 0.16018
# Poissons Ratio (y) = 0.04379 0.80076
# Poissons Ratio (z) = 0.13305 0.21608
#
# Static dielectric constant tensor:
#      x y z
#    x 1.684080 0.000000 0.002830 
#    y 0.000000 1.652040 0.000000 
#    z 0.002830 0.000000 1.722700 
# 
# From -- ./inp_files/232713.got.cif
#   From: 2010.05.17/outbox.cif.g08.bks.cpg/sg15_117_cif.got.tgz:232713.got - 2010.06.03 18:47:42.
