data_PCOD9265350
_publ_section_title
;
Structure prediction by ZEFSAII (Michael W. Deem and Ramdas Pophale) SiO2 
 PCOD9265350
Probable space group: C 2/C
;
_chemical_formula_sum "Si O2"
_cell_formula_units_Z 48
_cell_length_a 13.115148
_cell_length_b 12.985507
_cell_length_c 10.724225
_cell_angle_alpha 90.000000
_cell_angle_beta 93.697911
_cell_angle_gamma 90.000000
_cell_volume 1822.606300
_symmetry_space_group_name_H-M "C 2/C"
_symmetry_group_IT_number 15
_symmetry_cell_setting 'monoclinic'
loop_
_space_group_symop_operation_xyz
x,y,z
-x,y,1/2-z
-x,-y,-z
x,-y,1/2+z
1/2+x,1/2+y,z
1/2-x,1/2+y,1/2-z
1/2-x,1/2-y,-z
1/2+x,1/2-y,1/2+z
loop_
_atom_site_type_symbol
_atom_site_label
_atom_site_fract_x
_atom_site_fract_y
_atom_site_fract_z
Si Si1 0.899516 0.028832 0.656222
Si Si2 0.560845 0.113011 0.122936
Si Si3 0.704835 0.618677 0.065797
Si Si4 0.398552 0.882608 0.426217
Si Si5 0.720005 0.903131 0.316833
Si Si6 0.711347 0.315808 0.835051
O O1 0.851492 0.915279 0.622750
O O2 0.000000 0.021500 0.750000
O O3 0.894222 0.087317 0.523442
O O4 0.817959 0.094299 0.731984
O O5 0.500000 0.103275 0.250000
O O6 0.668645 0.161366 0.163717
O O7 0.591048 0.006269 0.058002
O O8 0.490846 0.166306 0.011652
O O9 0.757966 0.511801 0.118723
O O10 0.676835 0.682662 0.185876
O O11 0.797555 0.657130 0.987857
O O12 0.379890 0.889945 0.277080
O O13 0.708952 0.798431 0.392355
#
# Coordination Sequence:
#
# PCOD9265350 Si02
#       6
#     8   8   8   8   8   8
#     4  10  23  44  62  87 123 172 212 249 313 375
#     4  11  19  35  60  87 118 152 196 251 310 364
#     4  10  19  42  64  79 126 162 200 261 310 361
#     4  10  19  36  60  86 116 158 198 246 314 364
#     4  10  22  39  61  91 120 160 207 258 306 364
#     4  11  22  39  60  93 125 155 211 256 305 368
#
# _framework density 26.335912
#
# number of rings (size 3 to 8) (size 9 to 14) (size 15 to 20)
#    0.000    1.667    6.667    0.000    0.000    6.667 
#    6.000    2.500    0.000    0.000    0.000    0.000 
#    0.000    0.000    0.000    0.000    0.000    0.000 
#
# Total GULP energy -133834.234877 kJ/mol
# GULP energy per Si atom -5576.426453 kJ/mol
# Density = 2.627597 g / cm^3
# Si number density = 26.335912 Si / 1000 Ang^3
#
#
#
# Elastic Constant Matrix: (Units=GPa)
#
#
# Indices 1 2 3 4 5 6 
#
# 1 86.7976 11.5053 15.0025 0.0000 27.1223 0.0000
# 2 11.5053 92.2028 -2.0420 0.0000 9.0850 0.0000
# 3 15.0025 -2.0420 83.3293 0.0000 24.5208 0.0000
# 4 0.0000 0.0000 0.0000 24.3981 0.0000 -12.8670
# 5 27.1223 9.0850 24.5208 0.0000 52.2146 0.0000
# 6 0.0000 0.0000 0.0000 -12.8670 0.0000 10.5562
#
#
#
# Elastic Compliance Matrix: (Units=1/GPa)
#
#
# Indices 1 2 3 4 5 6 
#
# 1 0.013870 -0.001076 -0.000532 0.000000 -0.006768 0.000000
# 2 -0.001076 0.011186 0.001017 0.000000 -0.001865 0.000000
# 3 -0.000532 0.001017 0.014031 0.000000 -0.006490 0.000000
# 4 0.000000 0.000000 0.000000 0.114753 0.000000 0.139874
# 5 -0.006768 -0.001865 -0.006490 0.000000 0.026039 0.000000
# 6 0.000000 0.000000 0.000000 0.139874 0.000000 0.265226
#
#
# Mechanical properties :
#
#
# Convention : Reuss Voigt Hill
#
# Bulk Modulus (GPa) = 26.38166 34.58459 30.48312
# Shear Modulus (GPa) = 10.89507 33.29136 22.09322
#
# Velocity S-wave (km/s) = 2.03616 3.55928 2.89952
# Velocity P-wave (km/s) = 3.94551 5.48196 4.77593
#
# Compressibility (1/GPa) = 0.03790513
#
# Stress axis : x y z
#
# Youngs Moduli (GPa) = 72.09600 89.39616 71.27098
#
# Poissons Ratio (x) = 0.09617 0.03792
# Poissons Ratio (y) = 0.07756 -0.07245
# Poissons Ratio (z) = 0.03836 -0.09088
#
# Static dielectric constant tensor:
#      x y z
#    x 2.120060 0.000000 0.109110 
#    y 0.000000 2.135840 0.000000 
#    z 0.109110 0.000000 2.256060 
# 
# From -- ./inp_files/96533.got.cif
#   From: 2010.05.17/outbox.cif.g08.bks.cpg/sg15_49_cif.got.tgz:96533.got - 2010.06.03 18:47:42.
