data_PCOD9265716
_publ_section_title
;
Structure prediction by ZEFSAII (Michael W. Deem and Ramdas Pophale) SiO2 
 PCOD9265716
Probable space group: C 2/C
;
_chemical_formula_sum "Si O2"
_cell_formula_units_Z 40
_cell_length_a 29.232617
_cell_length_b 7.971520
_cell_length_c 13.879274
_cell_angle_alpha 90.000000
_cell_angle_beta 26.055098
_cell_angle_gamma 90.000000
_cell_volume 1420.603185
_symmetry_space_group_name_H-M "C 2/C"
_symmetry_group_IT_number 15
_symmetry_cell_setting 'monoclinic'
loop_
_space_group_symop_operation_xyz
x,y,z
-x,y,1/2-z
-x,-y,-z
x,-y,1/2+z
1/2+x,1/2+y,z
1/2-x,1/2+y,1/2-z
1/2-x,1/2-y,-z
1/2+x,1/2-y,1/2+z
loop_
_atom_site_type_symbol
_atom_site_label
_atom_site_fract_x
_atom_site_fract_y
_atom_site_fract_z
Si Si1 0.848631 0.433636 0.247794
Si Si2 0.579916 0.854223 0.174561
Si Si3 0.181376 0.120873 0.322482
Si Si4 0.853926 0.797396 0.240408
Si Si5 0.889058 0.005288 0.840129
O O1 0.894770 0.426923 0.267739
O O2 0.868438 0.274843 0.142326
O O3 0.883394 0.615874 0.144490
O O4 0.721826 0.434301 0.490333
O O5 0.500000 0.933553 0.250000
O O6 0.547018 0.660830 0.257861
O O7 0.694674 0.849333 0.908365
O O8 0.168414 0.942804 0.293298
O O9 0.750000 0.750000 0.500000
O O10 0.928045 0.873736 0.182600
O O11 0.634616 0.604122 0.517334
#
# Coordination Sequence:
#
# PCOD9265716 Si02
#       5
#     8   8   8   8   8
#     4  10  21  38  65  90 127 170 221 268 314 392
#     4  11  22  41  64  94 137 175 207 283 347 371
#     4  11  21  40  66  96 122 171 235 267 310 397
#     4  10  19  36  64  91 122 161 227 272 315 367
#     4  10  21  38  68  95 122 175 229 261 314 404
#
# _framework density 28.157053000000001
#
# number of rings (size 3 to 8) (size 9 to 14) (size 15 to 20)
#    0.000    1.600    6.000    1.200   11.200    0.000 
#    0.000    3.000    0.000    0.000    0.000    0.000 
#    0.000    0.000    0.000    0.000    0.000    0.000 
#
# Total GULP energy -112191.818923 kJ/mol
# GULP energy per Si atom -5609.590946 kJ/mol
# Density = 2.809297 g / cm^3
# Si number density = 28.157053 Si / 1000 Ang^3
#
#
#
# Elastic Constant Matrix: (Units=GPa)
#
#
# Indices 1 2 3 4 5 6 
#
# 1 253.9008 99.5907 50.2364 0.0000 9.4219 0.0000
# 2 99.5907 199.5307 22.6361 0.0000 2.2181 0.0000
# 3 50.2364 22.6361 89.9174 0.0000 -19.4603 0.0000
# 4 0.0000 0.0000 0.0000 37.8212 0.0000 12.1835
# 5 9.4219 2.2181 -19.4603 0.0000 55.5064 0.0000
# 6 0.0000 0.0000 0.0000 12.1835 0.0000 41.3807
#
#
#
# Elastic Compliance Matrix: (Units=1/GPa)
#
#
# Indices 1 2 3 4 5 6 
#
# 1 0.005522 -0.002409 -0.002879 0.000000 -0.001850 0.000000
# 2 -0.002409 0.006236 -0.000205 0.000000 0.000088 0.000000
# 3 -0.002879 -0.000205 0.013947 0.000000 0.005387 0.000000
# 4 0.000000 0.000000 0.000000 0.029211 0.000000 -0.008600
# 5 -0.001850 0.000088 0.005387 0.000000 0.020215 0.000000
# 6 0.000000 0.000000 0.000000 -0.008600 0.000000 0.026698
#
#
# Mechanical properties :
#
#
# Convention : Reuss Voigt Hill
#
# Bulk Modulus (GPa) = 67.93791 98.69725 83.31758
# Shear Modulus (GPa) = 42.47309 51.66737 47.07023
#
# Velocity S-wave (km/s) = 3.88807 4.28830 4.09308
# Velocity P-wave (km/s) = 6.65858 7.72320 7.21057
#
# Compressibility (1/GPa) = 0.01471932
#
# Stress axis : x y z
#
# Youngs Moduli (GPa) = 181.10397 160.34984 71.69859
#
# Poissons Ratio (x) = 0.38626 0.20642
# Poissons Ratio (y) = 0.43625 0.01471
# Poissons Ratio (z) = 0.52140 0.03290
#
# Static dielectric constant tensor:
#      x y z
#    x 2.189800 0.000000 0.010210 
#    y 0.000000 2.252510 0.000000 
#    z 0.010210 0.000000 2.329840 
# 
# From -- ./inp_files/171653.got.cif
#   From: 2010.05.17/outbox.cif.g08.bks.cpg/sg15_86_cif.got.tgz:171653.got - 2010.06.03 18:47:42.
