data_PCOD9265250
_publ_section_title
;
Structure prediction by ZEFSAII (Michael W. Deem and Ramdas Pophale) SiO2 
 PCOD9265250
Probable space group: C 2/C
;
_chemical_formula_sum "Si O2"
_cell_formula_units_Z 48
_cell_length_a 14.542771
_cell_length_b 29.979504
_cell_length_c 14.631488
_cell_angle_alpha 90.000000
_cell_angle_beta 160.532386
_cell_angle_gamma 90.000000
_cell_volume 2125.991475
_symmetry_space_group_name_H-M "C 2/C"
_symmetry_group_IT_number 15
_symmetry_cell_setting 'monoclinic'
loop_
_space_group_symop_operation_xyz
x,y,z
-x,y,1/2-z
-x,-y,-z
x,-y,1/2+z
1/2+x,1/2+y,z
1/2-x,1/2+y,1/2-z
1/2-x,1/2-y,-z
1/2+x,1/2-y,1/2+z
loop_
_atom_site_type_symbol
_atom_site_label
_atom_site_fract_x
_atom_site_fract_y
_atom_site_fract_z
Si Si1 0.766383 0.220798 0.332259
Si Si2 0.000000 0.715833 0.250000
Si Si3 0.548692 0.604922 0.528569
Si Si4 0.575918 0.841780 0.501554
Si Si5 0.000000 0.284451 0.250000
Si Si6 0.715849 0.987265 0.280608
Si Si7 0.771819 0.931368 0.956825
O O1 0.613069 0.191593 0.266900
O O2 0.074312 0.235073 0.644275
O O3 0.725251 0.196450 0.199905
O O4 0.250000 0.750000 0.500000
O O5 0.735505 0.565145 0.660623
O O6 0.399997 0.591849 0.485505
O O7 0.783102 0.641812 0.766870
O O8 0.308061 0.619579 0.232436
O O9 0.502322 0.818439 0.337504
O O10 0.250000 0.250000 0.500000
O O11 0.684009 0.019534 0.336958
O O12 0.000000 0.000000 0.500000
O O13 0.500000 0.000000 0.000000
O O14 0.500000 0.910970 0.750000
O O15 0.000000 0.934167 0.250000
#
# Coordination Sequence:
#
# PCOD9265250 Si02
#       7
#     8   4   8   8   4   8   8
#     4  10  19  36  59  85 117 164 217 258 314 399
#     4   8  16  30  52  76 108 143 196 253 284 356
#     4  11  24  43  64  97 145 175 218 288 355 411
#     4  12  24  42  66  98 135 178 220 289 369 407
#     4  12  26  48  74 102 136 181 248 305 356 444
#     4  10  20  40  67  89 128 183 227 272 329 399
#     4  11  22  41  68  99 133 180 239 270 327 420
#
# _framework density 22.577701000000001
#
# number of rings (size 3 to 8) (size 9 to 14) (size 15 to 20)
#    0.000    1.333    0.000    8.000    0.000    0.000 
#    9.000    0.000    0.000    0.000    0.000    0.000 
#    0.000    0.000    0.000    0.000    0.000    0.000 
#
# Total GULP energy -133806.167769 kJ/mol
# GULP energy per Si atom -5575.256990 kJ/mol
# Density = 2.252631 g / cm^3
# Si number density = 22.577701 Si / 1000 Ang^3
#
#
#
# Elastic Constant Matrix: (Units=GPa)
#
#
# Indices 1 2 3 4 5 6 
#
# 1 96.5092 45.3730 37.4450 0.0025 -19.1446 0.0006
# 2 45.3730 91.1240 44.0928 -0.0003 -2.1694 0.0005
# 3 37.4450 44.0928 191.6399 -0.0046 -2.9808 0.0023
# 4 0.0025 -0.0003 -0.0046 34.6693 0.0005 2.3548
# 5 -19.1446 -2.1694 -2.9808 0.0005 37.5974 0.0009
# 6 0.0006 0.0005 0.0023 2.3548 0.0009 30.0820
#
#
#
# Elastic Compliance Matrix: (Units=1/GPa)
#
#
# Indices 1 2 3 4 5 6 
#
# 1 0.015630 -0.006958 -0.001337 -0.000001 0.007451 0.000000
# 2 -0.006958 0.015455 -0.002240 0.000000 -0.002829 0.000000
# 3 -0.001337 -0.002240 0.005990 0.000001 -0.000335 0.000000
# 4 -0.000001 0.000000 0.000001 0.028998 -0.000001 -0.002270
# 5 0.007451 -0.002829 -0.000335 -0.000001 0.030202 -0.000001
# 6 0.000000 0.000000 0.000000 -0.002270 -0.000001 0.033420
#
#
# Mechanical properties :
#
#
# Convention : Reuss Voigt Hill
#
# Bulk Modulus (GPa) = 62.48601 70.34386 66.41493
# Shear Modulus (GPa) = 32.03048 37.29388 34.66218
#
# Velocity S-wave (km/s) = 3.77062 4.06865 3.92246
# Velocity P-wave (km/s) = 6.83322 7.30040 7.07067
#
# Compressibility (1/GPa) = 0.01600358
#
# Stress axis : x y z
#
# Youngs Moduli (GPa) = 63.97979 64.70214 166.95447
#
# Poissons Ratio (x) = 0.45021 0.22324
# Poissons Ratio (y) = 0.44518 0.37405
# Poissons Ratio (z) = 0.08555 0.14496
#
# Static dielectric constant tensor:
#      x y z
#    x 1.891280 -0.000060 0.056630 
#    y -0.000060 2.313030 0.000060 
#    z 0.056630 0.000060 1.740680 
# 
# From -- ./inp_files/157765.got.cif
#   From: 2010.05.17/outbox.cif.g08.bks.cpg/sg15_79_cif.got.tgz:157765.got - 2010.06.03 18:47:42.
