data_PCOD9265868
_publ_section_title
;
Structure prediction by ZEFSAII (Michael W. Deem and Ramdas Pophale) SiO2 
 PCOD9265868
Probable space group: C 2/C
;
_chemical_formula_sum "Si O2"
_cell_formula_units_Z 56
_cell_length_a 6.218334
_cell_length_b 29.144270
_cell_length_c 15.343483
_cell_angle_alpha 90.000000
_cell_angle_beta 80.352894
_cell_angle_gamma 90.000000
_cell_volume 2741.358349
_symmetry_space_group_name_H-M "C 2/C"
_symmetry_group_IT_number 15
_symmetry_cell_setting 'monoclinic'
loop_
_space_group_symop_operation_xyz
x,y,z
-x,y,1/2-z
-x,-y,-z
x,-y,1/2+z
1/2+x,1/2+y,z
1/2-x,1/2+y,1/2-z
1/2-x,1/2-y,-z
1/2+x,1/2-y,1/2+z
loop_
_atom_site_type_symbol
_atom_site_label
_atom_site_fract_x
_atom_site_fract_y
_atom_site_fract_z
Si Si1 0.375336 0.563690 0.042591
Si Si2 0.500000 0.790453 0.750000
Si Si3 0.616110 0.902461 0.393402
Si Si4 0.825838 0.165978 0.099259
Si Si5 0.000000 0.916032 0.250000
Si Si6 0.533527 0.194487 0.968116
Si Si7 0.815882 0.766951 0.870419
Si Si8 0.730209 0.467181 0.390218
O O1 0.376307 0.612657 0.088168
O O2 0.275053 0.521968 0.104050
O O3 0.229201 0.573421 0.967785
O O4 0.610598 0.549047 0.988062
O O5 0.382124 0.822691 0.827970
O O6 0.683380 0.761750 0.789722
O O7 0.492544 0.857480 0.438270
O O8 0.457151 0.940931 0.366956
O O9 0.802368 0.888864 0.310341
O O10 0.026565 0.189598 0.133441
O O11 0.761765 0.188266 0.007810
O O12 0.093156 0.948277 0.319028
O O13 0.477800 0.225902 0.888227
O O14 0.371233 0.219331 0.046978
#
# Coordination Sequence:
#
# PCOD9265868 Si02
#       8
#     8   4   8   8   4   8   8   8
#     4   9  20  35  60  85 105 146 205 234 286 347
#     4  10  22  36  51  82 124 150 188 227 300 340
#     4  10  19  37  59  82 116 150 190 247 291 346
#     4  10  19  37  56  83 113 150 189 245 283 343
#     4  10  22  36  51  82 122 150 190 233 294 354
#     4   9  20  35  61  87 104 150 204 234 292 346
#     4  10  19  37  59  83 117 151 192 245 285 352
#     4  10  19  37  56  82 112 151 189 244 288 343
#
# _framework density 20.42783
#
# number of rings (size 3 to 8) (size 9 to 14) (size 15 to 20)
#    0.000    2.286    0.000    2.571    0.000    0.000 
#    5.143    4.286    0.000    0.000    0.000    0.000 
#    0.000    0.000    0.000    0.000    0.000    0.000 
#
# Total GULP energy -155932.182437 kJ/mol
# GULP energy per Si atom -5569.006516 kJ/mol
# Density = 2.038133 g / cm^3
# Si number density = 20.427830 Si / 1000 Ang^3
#
#
#
# Elastic Constant Matrix: (Units=GPa)
#
#
# Indices 1 2 3 4 5 6 
#
# 1 58.1613 26.2453 10.6184 0.0000 18.5308 0.0000
# 2 26.2453 78.5888 13.5555 0.0000 19.8820 0.0000
# 3 10.6184 13.5555 44.5855 0.0000 19.7800 0.0000
# 4 0.0000 0.0000 0.0000 10.0446 0.0000 36.2832
# 5 18.5308 19.8820 19.7800 0.0000 21.1018 0.0000
# 6 0.0000 0.0000 0.0000 36.2832 0.0000 53.5900
#
#
#
# Elastic Compliance Matrix: (Units=1/GPa)
#
#
# Indices 1 2 3 4 5 6 
#
# 1 0.025516 -0.003237 0.005983 0.000000 -0.024965 0.000000
# 2 -0.003237 0.017399 0.002555 0.000000 -0.015945 0.000000
# 3 0.005983 0.002555 0.040445 0.000000 -0.045573 0.000000
# 4 0.000000 0.000000 0.000000 -0.068866 0.000000 0.046626
# 5 -0.024965 -0.015945 -0.045573 0.000000 0.127055 0.000000
# 6 0.000000 0.000000 0.000000 0.046626 0.000000 -0.012908
#
#
# Mechanical properties :
#
#
# Convention : Reuss Voigt Hill
#
# Bulk Modulus (GPa) = 10.64263 31.35268 20.99765
# Shear Modulus (GPa) = 33.47606 25.67503 29.57554
#
# Velocity S-wave (km/s) = 4.05254 3.54908 3.80913
# Velocity P-wave (km/s) = 5.20755 5.67238 5.44493
#
# Compressibility (1/GPa) = 0.09396178
#
# Stress axis : x y z
#
# Youngs Moduli (GPa) = 39.19052 57.47516 24.72479
#
# Poissons Ratio (x) = 0.18607 -0.14793
# Poissons Ratio (y) = 0.12688 -0.06317
# Poissons Ratio (z) = -0.23448 -0.14685
#
# Static dielectric constant tensor:
#      x y z
#    x 1.786260 0.000000 -0.016570 
#    y 0.000000 1.704000 0.000000 
#    z -0.016570 0.000000 1.801450 
# 
# From -- ./inp_files/130810.got.cif
#   From: 2010.05.17/outbox.cif.g08.bks.cpg/sg15_66_cif.got.tgz:130810.got - 2010.06.03 18:47:42.
