data_PCOD9265944
_publ_section_title
;
Structure prediction by ZEFSAII (Michael W. Deem and Ramdas Pophale) SiO2 
 PCOD9265944
Probable space group: C 2/C
;
_chemical_formula_sum "Si O2"
_cell_formula_units_Z 40
_cell_length_a 15.513965
_cell_length_b 22.605558
_cell_length_c 7.005350
_cell_angle_alpha 90.000000
_cell_angle_beta 42.300735
_cell_angle_gamma 90.000000
_cell_volume 1653.473120
_symmetry_space_group_name_H-M "C 2/C"
_symmetry_group_IT_number 15
_symmetry_cell_setting 'monoclinic'
loop_
_space_group_symop_operation_xyz
x,y,z
-x,y,1/2-z
-x,-y,-z
x,-y,1/2+z
1/2+x,1/2+y,z
1/2-x,1/2+y,1/2-z
1/2-x,1/2-y,-z
1/2+x,1/2-y,1/2+z
loop_
_atom_site_type_symbol
_atom_site_label
_atom_site_fract_x
_atom_site_fract_y
_atom_site_fract_z
Si Si1 0.264641 0.080875 0.966028
Si Si2 0.994159 0.877708 0.546554
Si Si3 0.533365 0.122376 0.425220
Si Si4 0.726146 0.443780 0.086022
Si Si5 0.595243 0.747558 0.779172
O O1 0.411700 0.099056 0.740010
O O2 0.249547 0.080716 0.760466
O O3 0.158050 0.122594 0.238154
O O4 0.234362 0.014073 0.077347
O O5 0.000000 0.904222 0.750000
O O6 0.086311 0.918431 0.268439
O O7 0.056929 0.812936 0.446288
O O8 0.500000 0.121952 0.250000
O O9 0.561810 0.190096 0.429346
O O10 0.659807 0.081884 0.230033
O O11 0.500000 0.744886 0.750000
O O12 0.750000 0.750000 0.500000
#
# Coordination Sequence:
#
# PCOD9265944 Si02
#       5
#     8   8   8   8   8
#     4  10  21  35  58  88 120 163 202 262 308 371
#     4  10  22  39  60  89 126 161 208 260 318 367
#     4   9  19  37  60  84 121 161 202 251 318 365
#     4  10  19  37  58  83 123 162 206 252 315 371
#     4  11  23  43  69  92 126 170 211 256 318 381
#
# _framework density 24.191500999999999
#
# number of rings (size 3 to 8) (size 9 to 14) (size 15 to 20)
#    0.000    2.000    2.000    1.200    2.800    2.400 
#    0.000    0.000    0.000    0.000    0.000    0.000 
#    0.000    0.000    0.000    0.000    0.000    0.000 
#
# Total GULP energy -111742.498445 kJ/mol
# GULP energy per Si atom -5587.124922 kJ/mol
# Density = 2.413644 g / cm^3
# Si number density = 24.191501 Si / 1000 Ang^3
#
#
#
# Elastic Constant Matrix: (Units=GPa)
#
#
# Indices 1 2 3 4 5 6 
#
# 1 96.6095 -6.6158 45.5437 0.0000 -22.6583 0.0000
# 2 -6.6158 135.6855 86.8637 0.0000 -24.6786 0.0000
# 3 45.5437 86.8637 251.8377 0.0000 -45.0474 0.0000
# 4 0.0000 0.0000 0.0000 -101.6113 0.0000 101.5940
# 5 -22.6583 -24.6786 -45.0474 0.0000 39.8074 0.0000
# 6 0.0000 0.0000 0.0000 101.5940 0.0000 -90.8666
#
#
#
# Elastic Compliance Matrix: (Units=1/GPa)
#
#
# Indices 1 2 3 4 5 6 
#
# 1 0.013346 0.003431 -0.002329 0.000000 0.007088 0.000000
# 2 0.003431 0.010582 -0.003445 0.000000 0.004615 0.000000
# 3 -0.002329 -0.003445 0.006220 0.000000 0.003578 0.000000
# 4 0.000000 0.000000 0.000000 0.083496 0.000000 0.093354
# 5 0.007088 0.004615 0.003578 0.000000 0.036065 0.000000
# 6 0.000000 0.000000 0.000000 0.093354 0.000000 0.093370
#
#
# Mechanical properties :
#
#
# Convention : Reuss Voigt Hill
#
# Bulk Modulus (GPa) = 39.27379 81.74623 60.51001
# Shear Modulus (GPa) = 19.51197 -6.64470 6.43363
#
# Velocity S-wave (km/s) = 2.84309 -1.65912 1.63255
# Velocity P-wave (km/s) = 5.20070 5.49495 5.34985
#
# Compressibility (1/GPa) = 0.02546228
#
# Stress axis : x y z
#
# Youngs Moduli (GPa) = 74.92711 94.49985 160.76681
#
# Poissons Ratio (x) = -0.32423 0.37446
# Poissons Ratio (y) = -0.25708 0.55383
# Poissons Ratio (z) = 0.17452 0.32555
#
# Static dielectric constant tensor:
#      x y z
#    x 1.977060 0.000000 -0.001200 
#    y 0.000000 1.850560 0.000000 
#    z -0.001200 0.000000 1.924980 
# 
# From -- ./inp_files/23458.got.cif
#   From: 2010.05.17/outbox.cif.g08.bks.cpg/sg15_12_cif.got.tgz:23458.got - 2010.06.03 18:47:42.
