data_PCOD9265772
_publ_section_title
;
Structure prediction by ZEFSAII (Michael W. Deem and Ramdas Pophale) SiO2 
 PCOD9265772
Probable space group: C 2/C
;
_chemical_formula_sum "Si O2"
_cell_formula_units_Z 40
_cell_length_a 26.268214
_cell_length_b 7.323737
_cell_length_c 11.234734
_cell_angle_alpha 90.000000
_cell_angle_beta 127.657779
_cell_angle_gamma 90.000000
_cell_volume 1711.088351
_symmetry_space_group_name_H-M "C 2/C"
_symmetry_group_IT_number 15
_symmetry_cell_setting 'monoclinic'
loop_
_space_group_symop_operation_xyz
x,y,z
-x,y,1/2-z
-x,-y,-z
x,-y,1/2+z
1/2+x,1/2+y,z
1/2-x,1/2+y,1/2-z
1/2-x,1/2-y,-z
1/2+x,1/2-y,1/2+z
loop_
_atom_site_type_symbol
_atom_site_label
_atom_site_fract_x
_atom_site_fract_y
_atom_site_fract_z
Si Si1 0.986735 0.807579 0.857619
Si Si2 0.538074 0.289589 0.423561
Si Si3 0.659262 0.568774 0.379081
Si Si4 0.770948 0.672058 0.364985
Si Si5 0.679414 0.226134 0.536667
O O1 0.913590 0.880040 0.748619
O O2 0.000000 0.709706 0.750000
O O3 0.991576 0.717661 0.994554
O O4 0.030681 0.989463 0.919729
O O5 0.500000 0.233773 0.250000
O O6 0.612683 0.246187 0.512983
O O7 0.706453 0.661257 0.352145
O O8 0.683386 0.659891 0.536644
O O9 0.668923 0.351866 0.405799
O O10 0.742396 0.694661 0.193320
O O11 0.807970 0.488294 0.452536
#
# Coordination Sequence:
#
# PCOD9265772 Si02
#       5
#     8   8   8   8   8
#     4  10  19  36  66  92 123 183 221 265 337 391
#     4  10  20  36  64  93 126 168 224 275 324 397
#     4  11  22  43  62  93 133 170 222 275 331 410
#     4  11  25  38  66  96 131 169 216 278 341 397
#     4  12  21  41  64  95 128 171 220 274 337 399
#
# _framework density 23.376936000000001
#
# number of rings (size 3 to 8) (size 9 to 14) (size 15 to 20)
#    0.000    1.200    8.000    0.600    0.000    0.000 
#    0.000    1.000    0.000    2.400    0.000    0.000 
#    0.000    0.000    0.000    0.000    0.000    0.000 
#
# Total GULP energy -111703.878771 kJ/mol
# GULP energy per Si atom -5585.193939 kJ/mol
# Density = 2.332373 g / cm^3
# Si number density = 23.376936 Si / 1000 Ang^3
#
#
#
# Elastic Constant Matrix: (Units=GPa)
#
#
# Indices 1 2 3 4 5 6 
#
# 1 99.6754 8.3745 48.1302 0.0000 1.6901 0.0000
# 2 8.3745 86.3194 14.9645 0.0000 11.7082 0.0000
# 3 48.1302 14.9645 114.7445 0.0000 -12.6678 0.0000
# 4 0.0000 0.0000 0.0000 -17.1377 0.0000 -10.1643
# 5 1.6901 11.7082 -12.6678 0.0000 50.8209 0.0000
# 6 0.0000 0.0000 0.0000 -10.1643 0.0000 3.5665
#
#
#
# Elastic Compliance Matrix: (Units=1/GPa)
#
#
# Indices 1 2 3 4 5 6 
#
# 1 0.012740 -0.000032 -0.005538 0.000000 -0.001797 0.000000
# 2 -0.000032 0.012383 -0.001970 0.000000 -0.003343 0.000000
# 3 -0.005538 -0.001970 0.011687 0.000000 0.003551 0.000000
# 4 0.000000 0.000000 0.000000 -0.021689 0.000000 -0.061813
# 5 -0.001797 -0.003343 0.003551 0.000000 0.021392 0.000000
# 6 0.000000 0.000000 0.000000 -0.061813 0.000000 0.104221
#
#
# Mechanical properties :
#
#
# Convention : Reuss Voigt Hill
#
# Bulk Modulus (GPa) = 46.02239 49.29752 47.65995
# Shear Modulus (GPa) = 30.66403 22.73462 26.69933
#
# Velocity S-wave (km/s) = 3.62570 3.12191 3.38320
# Velocity P-wave (km/s) = 6.10389 5.84200 5.97438
#
# Compressibility (1/GPa) = 0.02172856
#
# Stress axis : x y z
#
# Youngs Moduli (GPa) = 78.49391 80.75559 85.56533
#
# Poissons Ratio (x) = 0.00260 0.47386
# Poissons Ratio (y) = 0.00253 0.16860
# Poissons Ratio (z) = 0.43469 0.15913
#
# Static dielectric constant tensor:
#      x y z
#    x 1.897710 0.000000 -0.117920 
#    y 0.000000 1.850290 0.000000 
#    z -0.117920 0.000000 2.002140 
# 
# From -- ./inp_files/109731.got.cif
#   From: 2010.05.17/outbox.cif.g08.bks.cpg/sg15_55_cif.got.tgz:109731.got - 2010.06.03 18:47:42.
