data_PCOD9265938
_publ_section_title
;
Structure prediction by ZEFSAII (Michael W. Deem and Ramdas Pophale) SiO2 
 PCOD9265938
Probable space group: C 2/C
;
_chemical_formula_sum "Si O2"
_cell_formula_units_Z 64
_cell_length_a 13.549034
_cell_length_b 11.427528
_cell_length_c 21.750082
_cell_angle_alpha 90.000000
_cell_angle_beta 99.127186
_cell_angle_gamma 90.000000
_cell_volume 3324.969488
_symmetry_space_group_name_H-M "C 2/C"
_symmetry_group_IT_number 15
_symmetry_cell_setting 'monoclinic'
loop_
_space_group_symop_operation_xyz
x,y,z
-x,y,1/2-z
-x,-y,-z
x,-y,1/2+z
1/2+x,1/2+y,z
1/2-x,1/2+y,1/2-z
1/2-x,1/2-y,-z
1/2+x,1/2-y,1/2+z
loop_
_atom_site_type_symbol
_atom_site_label
_atom_site_fract_x
_atom_site_fract_y
_atom_site_fract_z
Si Si1 0.014301 0.197980 0.514380
Si Si2 0.928924 0.842074 0.682560
Si Si3 0.231932 0.909272 0.143721
Si Si4 0.892831 0.657072 0.573356
Si Si5 0.104586 0.546953 0.286632
Si Si6 0.493788 0.084093 0.095951
Si Si7 0.054023 0.036493 0.096107
Si Si8 0.808501 0.342547 0.821139
O O1 0.948129 0.140474 0.453725
O O2 0.104546 0.256095 0.484012
O O3 0.973843 0.306771 0.549356
O O4 0.038121 0.086849 0.559389
O O5 0.931242 0.728676 0.637319
O O6 0.810762 0.865633 0.684173
O O7 0.000000 0.831865 0.750000
O O8 0.974234 0.940952 0.641722
O O9 0.284083 0.887251 0.083171
O O10 0.178136 0.792355 0.159163
O O11 0.320588 0.939873 0.198687
O O12 0.161860 0.021130 0.136298
O O13 0.961562 0.543569 0.568231
O O14 0.153838 0.635615 0.243957
O O15 0.000000 0.503807 0.250000
O O16 0.074978 0.598214 0.349902
O O17 0.610882 0.088466 0.128240
#
# Coordination Sequence:
#
# PCOD9265938 Si02
#       8
#     8   8   8   8   8   8   8   8
#     4  10  20  39  59  82 119 154 194 243 289 338
#     4  10  21  39  60  87 116 152 196 235 287 350
#     4  10  19  37  58  83 113 151 199 229 289 353
#     4   9  21  36  64  84 110 155 196 239 285 339
#     4   9  20  37  57  83 117 148 183 244 297 337
#     4  10  19  38  60  85 115 147 200 239 289 340
#     4  10  21  38  59  86 121 154 189 241 295 337
#     4  10  20  36  57  86 110 152 195 231 287 354
#
# _framework density 19.248297000000001
#
# number of rings (size 3 to 8) (size 9 to 14) (size 15 to 20)
#    0.000    2.250    1.250    1.125    0.000    8.000 
#    9.000    2.500    5.500    0.000    0.000    0.000 
#    0.000    0.000    0.000    0.000    0.000    0.000 
#
# Total GULP energy -178161.655428 kJ/mol
# GULP energy per Si atom -5567.551732 kJ/mol
# Density = 1.920449 g / cm^3
# Si number density = 19.248297 Si / 1000 Ang^3
#
#
#
# Elastic Constant Matrix: (Units=GPa)
#
#
# Indices 1 2 3 4 5 6 
#
# 1 74.8818 41.8216 24.1414 0.0000 7.3389 0.0000
# 2 41.8216 75.4053 29.9154 0.0000 -2.6169 0.0000
# 3 24.1414 29.9154 66.5401 0.0000 -6.3413 0.0000
# 4 0.0000 0.0000 0.0000 26.5721 0.0000 -5.6438
# 5 7.3389 -2.6169 -6.3413 0.0000 17.2316 0.0000
# 6 0.0000 0.0000 0.0000 -5.6438 0.0000 31.9907
#
#
#
# Elastic Compliance Matrix: (Units=1/GPa)
#
#
# Indices 1 2 3 4 5 6 
#
# 1 0.022129 -0.011013 -0.004285 0.000000 -0.012674 0.000000
# 2 -0.011013 0.021622 -0.005146 0.000000 0.006080 0.000000
# 3 -0.004285 -0.005146 0.019687 0.000000 0.008288 0.000000
# 4 0.000000 0.000000 0.000000 0.039099 0.000000 0.006898
# 5 -0.012674 0.006080 0.008288 0.000000 0.067404 0.000000
# 6 0.000000 0.000000 0.000000 0.006898 0.000000 0.032476
#
#
# Mechanical properties :
#
#
# Convention : Reuss Voigt Hill
#
# Bulk Modulus (GPa) = 44.34670 45.39821 44.87246
# Shear Modulus (GPa) = 19.93453 23.22214 21.57833
#
# Velocity S-wave (km/s) = 3.22165 3.47717 3.35184
# Velocity P-wave (km/s) = 6.07684 6.30537 6.19216
#
# Compressibility (1/GPa) = 0.02254959
#
# Stress axis : x y z
#
# Youngs Moduli (GPa) = 45.19010 46.24856 50.79589
#
# Poissons Ratio (x) = 0.50933 0.21766
# Poissons Ratio (y) = 0.49768 0.26140
# Poissons Ratio (z) = 0.19364 0.23799
#
# Static dielectric constant tensor:
#      x y z
#    x 1.706140 0.000000 0.032290 
#    y 0.000000 1.671000 0.000000 
#    z 0.032290 0.000000 1.740450 
# 
# From -- ./inp_files/268906.got.cif
#   From: 2010.05.17/outbox.cif.g08.bks.cpg/sg15_135_cif.got.tgz:268906.got - 2010.06.03 18:47:42.
