data_PCOD9265107
_publ_section_title
;
Structure prediction by ZEFSAII (Michael W. Deem and Ramdas Pophale) SiO2 
 PCOD9265107
Probable space group: C 2/C
;
_chemical_formula_sum "Si O2"
_cell_formula_units_Z 40
_cell_length_a 8.837869
_cell_length_b 16.873698
_cell_length_c 11.916990
_cell_angle_alpha 90.000000
_cell_angle_beta 49.671779
_cell_angle_gamma 90.000000
_cell_volume 1354.810702
_symmetry_space_group_name_H-M "C 2/C"
_symmetry_group_IT_number 15
_symmetry_cell_setting 'monoclinic'
loop_
_space_group_symop_operation_xyz
x,y,z
-x,y,1/2-z
-x,-y,-z
x,-y,1/2+z
1/2+x,1/2+y,z
1/2-x,1/2+y,1/2-z
1/2-x,1/2-y,-z
1/2+x,1/2-y,1/2+z
loop_
_atom_site_type_symbol
_atom_site_label
_atom_site_fract_x
_atom_site_fract_y
_atom_site_fract_z
Si Si1 0.366146 0.008701 0.975503
Si Si2 0.281632 0.700831 0.211862
Si Si3 0.871449 0.975552 0.726772
Si Si4 0.329216 0.873923 0.222781
Si Si5 0.672162 0.157672 0.039509
O O1 0.445076 0.091197 0.883909
O O2 0.616924 0.979162 0.887939
O O3 0.332020 0.933064 0.911238
O O4 0.121582 0.015685 0.128710
O O5 0.381022 0.618343 0.194880
O O6 0.329335 0.781782 0.253980
O O7 0.303575 0.706032 0.065119
O O8 0.049923 0.688240 0.344317
O O9 0.831252 0.057124 0.671009
O O10 0.273599 0.862363 0.114899
#
# Coordination Sequence:
#
# PCOD9265107 Si02
#       5
#     8   8   8   8   8
#     4   8  15  37  54  70 107 150 171 210 271 328
#     4  11  19  32  59  85 105 140 184 228 256 328
#     4  10  20  37  55  79 110 144 180 219 273 319
#     4  10  19  36  58  79 111 144 179 217 281 315
#     4   9  18  34  57  81 109 135 185 226 269 311
#
# _framework density 29.524419000000002
#
# number of rings (size 3 to 8) (size 9 to 14) (size 15 to 20)
#    0.000    2.800    6.000    0.600    2.800    0.000 
#    0.000    7.000    0.000    0.000    0.000    0.000 
#    0.000    0.000    0.000    0.000    0.000    0.000 
#
# Total GULP energy -111483.173554 kJ/mol
# GULP energy per Si atom -5574.158678 kJ/mol
# Density = 2.945722 g / cm^3
# Si number density = 29.524419 Si / 1000 Ang^3
#
#
#
# Elastic Constant Matrix: (Units=GPa)
#
#
# Indices 1 2 3 4 5 6 
#
# 1 145.6972 68.3590 27.9609 0.0000 -47.9313 0.0000
# 2 68.3590 200.9984 24.0614 0.0000 -57.1946 0.0000
# 3 27.9609 24.0614 116.1812 0.0000 -34.6835 0.0000
# 4 0.0000 0.0000 0.0000 40.5941 0.0000 -8.6448
# 5 -47.9313 -57.1946 -34.6835 0.0000 47.3705 0.0000
# 6 0.0000 0.0000 0.0000 -8.6448 0.0000 67.0743
#
#
#
# Elastic Compliance Matrix: (Units=1/GPa)
#
#
# Indices 1 2 3 4 5 6 
#
# 1 0.010417 -0.000737 0.000674 0.000000 0.010144 0.000000
# 2 -0.000737 0.007837 0.001480 0.000000 0.009801 0.000000
# 3 0.000674 0.001480 0.011358 0.000000 0.010785 0.000000
# 4 0.000000 0.000000 0.000000 0.025329 0.000000 0.003265
# 5 0.010144 0.009801 0.010785 0.000000 0.051104 0.000000
# 6 0.000000 0.000000 0.000000 0.003265 0.000000 0.015330
#
#
# Mechanical properties :
#
#
# Convention : Reuss Voigt Hill
#
# Bulk Modulus (GPa) = 30.81982 78.18217 54.50099
# Shear Modulus (GPa) = 38.65247 53.84081 46.24664
#
# Velocity S-wave (km/s) = 3.62217 4.27500 3.96205
# Velocity P-wave (km/s) = 5.28724 7.13481 6.27935
#
# Compressibility (1/GPa) = 0.03244665
#
# Stress axis : x y z
#
# Youngs Moduli (GPa) = 95.99509 127.59176 88.04226
#
# Poissons Ratio (x) = 0.09404 -0.05933
# Poissons Ratio (y) = 0.07075 -0.13031
# Poissons Ratio (z) = -0.06469 -0.18884
#
# Static dielectric constant tensor:
#      x y z
#    x 2.494820 0.000000 0.103750 
#    y 0.000000 2.328100 0.000000 
#    z 0.103750 0.000000 2.439040 
# 
# From -- ./inp_files/205861.got.cif
#   From: 2010.05.17/outbox.cif.g08.bks.cpg/sg15_103_cif.got.tgz:205861.got - 2010.06.03 18:47:42.
