data_PCOD9265060
_publ_section_title
;
Structure prediction by ZEFSAII (Michael W. Deem and Ramdas Pophale) SiO2 
 PCOD9265060
Probable space group: C 2/C
;
_chemical_formula_sum "Si O2"
_cell_formula_units_Z 44
_cell_length_a 24.368114
_cell_length_b 24.238938
_cell_length_c 11.004076
_cell_angle_alpha 90.000000
_cell_angle_beta 160.115911
_cell_angle_gamma 90.000000
_cell_volume 2210.646186
_symmetry_space_group_name_H-M "C 2/C"
_symmetry_group_IT_number 15
_symmetry_cell_setting 'monoclinic'
loop_
_space_group_symop_operation_xyz
x,y,z
-x,y,1/2-z
-x,-y,-z
x,-y,1/2+z
1/2+x,1/2+y,z
1/2-x,1/2+y,1/2-z
1/2-x,1/2-y,-z
1/2+x,1/2-y,1/2+z
loop_
_atom_site_type_symbol
_atom_site_label
_atom_site_fract_x
_atom_site_fract_y
_atom_site_fract_z
Si Si1 0.000000 0.747411 0.250000
Si Si2 0.253708 0.176565 0.847552
Si Si3 0.897351 0.562975 0.661348
Si Si4 0.755437 0.680011 0.381832
Si Si5 0.943316 0.781821 0.797943
Si Si6 0.104420 0.439379 0.842503
O O1 0.068728 0.704278 0.292548
O O2 0.149303 0.789530 0.560359
O O3 0.159730 0.190148 0.525827
O O4 0.128476 0.200978 0.682900
O O5 0.274205 0.111531 0.904938
O O6 0.782237 0.615852 0.423897
O O7 0.824123 0.501298 0.507978
O O8 0.000000 0.567333 0.750000
O O9 0.000322 0.565835 0.001303
O O10 0.918243 0.716245 0.728139
O O11 0.649494 0.696891 0.277697
O O12 0.000000 0.434398 0.750000
#
# Coordination Sequence:
#
# PCOD9265060 Si02
#       6
#     4   8   8   8   8   8
#     4  10  22  32  56  84 116 146 192 238 294 350
#     4  10  19  36  57  85 108 149 199 240 275 355
#     4  10  23  37  59  87 120 154 192 249 297 342
#     4  10  21  38  52  84 120 153 187 242 298 354
#     4   9  21  35  57  83 116 153 190 241 298 338
#     4  10  20  39  62  85 112 157 206 238 283 357
#
# _framework density 19.903680999999999
#
# number of rings (size 3 to 8) (size 9 to 14) (size 15 to 20)
#    0.000    2.182    0.909    1.091   10.182    2.182 
#    0.000    2.727    0.000    0.000    0.000    0.000 
#    0.000    0.000    0.000    0.000    0.000    0.000 
#
# Total GULP energy -122479.412609 kJ/mol
# GULP energy per Si atom -5567.246028 kJ/mol
# Density = 1.985838 g / cm^3
# Si number density = 19.903681 Si / 1000 Ang^3
#
#
#
# Elastic Constant Matrix: (Units=GPa)
#
#
# Indices 1 2 3 4 5 6 
#
# 1 63.3963 4.5932 -1.8738 0.0000 0.6978 0.0000
# 2 4.5932 177.0195 50.7897 0.0000 18.3935 0.0000
# 3 -1.8738 50.7897 50.5545 0.0000 16.5779 0.0000
# 4 0.0000 0.0000 0.0000 31.7660 0.0000 7.1761
# 5 0.6978 18.3935 16.5779 0.0000 33.5675 0.0000
# 6 0.0000 0.0000 0.0000 7.1761 0.0000 3.1983
#
#
#
# Elastic Compliance Matrix: (Units=1/GPa)
#
#
# Indices 1 2 3 4 5 6 
#
# 1 0.015888 -0.000807 0.001626 0.000000 -0.000691 0.000000
# 2 -0.000807 0.007985 -0.007902 0.000000 -0.000456 0.000000
# 3 0.001626 -0.007902 0.031467 0.000000 -0.011244 0.000000
# 4 0.000000 0.000000 0.000000 0.063839 0.000000 -0.143240
# 5 -0.000691 -0.000456 -0.011244 0.000000 0.035608 0.000000
# 6 0.000000 0.000000 0.000000 -0.143240 0.000000 0.634068
#
#
# Mechanical properties :
#
#
# Convention : Reuss Voigt Hill
#
# Bulk Modulus (GPa) = 24.28723 44.22094 34.25408
# Shear Modulus (GPa) = 6.12185 29.53708 17.82947
#
# Velocity S-wave (km/s) = 1.75568 3.85645 2.99622
# Velocity P-wave (km/s) = 4.04212 6.48809 5.40528
#
# Compressibility (1/GPa) = 0.04117390
#
# Stress axis : x y z
#
# Youngs Moduli (GPa) = 62.94078 125.23977 31.77910
#
# Poissons Ratio (x) = 0.10108 -0.05168
# Poissons Ratio (y) = 0.05080 0.25113
# Poissons Ratio (z) = -0.10236 0.98968
#
# Static dielectric constant tensor:
#      x y z
#    x 1.825160 0.000000 -0.064680 
#    y 0.000000 1.680990 0.000000 
#    z -0.064680 0.000000 1.772860 
# 
# From -- ./inp_files/120274.got.cif
#   From: 2010.05.17/outbox.cif.g08.bks.cpg/sg15_61_cif.got.tgz:120274.got - 2010.06.03 18:47:42.
