data_PCOD9265390
_publ_section_title
;
Structure prediction by ZEFSAII (Michael W. Deem and Ramdas Pophale) SiO2 
 PCOD9265390
Probable space group: C 2/C
;
_chemical_formula_sum "Si O2"
_cell_formula_units_Z 56
_cell_length_a 23.590675
_cell_length_b 16.915088
_cell_length_c 20.227664
_cell_angle_alpha 90.000000
_cell_angle_beta 159.010789
_cell_angle_gamma 90.000000
_cell_volume 2891.188580
_symmetry_space_group_name_H-M "C 2/C"
_symmetry_group_IT_number 15
_symmetry_cell_setting 'monoclinic'
loop_
_space_group_symop_operation_xyz
x,y,z
-x,y,1/2-z
-x,-y,-z
x,-y,1/2+z
1/2+x,1/2+y,z
1/2-x,1/2+y,1/2-z
1/2-x,1/2-y,-z
1/2+x,1/2-y,1/2+z
loop_
_atom_site_type_symbol
_atom_site_label
_atom_site_fract_x
_atom_site_fract_y
_atom_site_fract_z
Si Si1 0.782548 0.230566 0.883110
Si Si2 0.206906 0.738218 0.306940
Si Si3 0.006611 0.346581 0.835308
Si Si4 0.495525 0.333755 0.980308
Si Si5 0.541221 0.008489 0.644712
Si Si6 0.728147 0.922719 0.745313
Si Si7 0.052022 0.661592 0.731698
O O1 0.634728 0.268399 0.683571
O O2 0.710710 0.200192 0.874081
O O3 0.874466 0.166928 0.937324
O O4 0.907905 0.299104 0.034274
O O5 0.360825 0.787482 0.492571
O O6 0.210292 0.664478 0.259096
O O7 0.152552 0.696438 0.314787
O O8 0.085902 0.800564 0.142571
O O9 0.000000 0.359051 0.750000
O O10 0.023492 0.428125 0.893922
O O11 0.394471 0.411994 0.888012
O O12 0.412167 0.051184 0.457013
O O13 0.572217 0.070079 0.736392
O O14 0.695621 0.984076 0.769808
O O15 0.000000 0.673719 0.750000
#
# Coordination Sequence:
#
# PCOD9265390 Si02
#       7
#     8   8   8   8   8   8   8
#     4  10  21  33  62  92 119 157 208 256 317 373
#     4  11  20  36  64  90 119 156 211 260 309 364
#     4  11  23  39  60  88 119 167 210 251 303 380
#     4  11  17  35  60  92 124 147 198 269 316 358
#     4  10  22  38  60  88 122 161 204 249 326 377
#     4  10  19  36  60  88 122 154 199 257 312 378
#     4  11  21  39  59  85 120 164 210 256 305 382
#
# _framework density 19.369195999999999
#
# number of rings (size 3 to 8) (size 9 to 14) (size 15 to 20)
#    0.000    1.429    4.286    2.143    0.000    2.286 
#    0.000    2.857    0.000    0.000   11.143    0.000 
#    0.000    0.000    0.000    0.000    0.000    0.000 
#
# Total GULP energy -155962.456248 kJ/mol
# GULP energy per Si atom -5570.087723 kJ/mol
# Density = 1.932511 g / cm^3
# Si number density = 19.369196 Si / 1000 Ang^3
#
#
#
# Elastic Constant Matrix: (Units=GPa)
#
#
# Indices 1 2 3 4 5 6 
#
# 1 151.4951 40.7667 28.1174 0.0016 19.9203 0.0006
# 2 40.7667 101.7560 32.1495 0.0079 13.7163 0.0062
# 3 28.1174 32.1495 53.5824 0.0038 9.8147 0.0035
# 4 0.0016 0.0079 0.0038 18.5692 0.0029 -6.1602
# 5 19.9203 13.7163 9.8147 0.0029 31.5793 0.0022
# 6 0.0006 0.0062 0.0035 -6.1602 0.0022 16.3475
#
#
#
# Elastic Compliance Matrix: (Units=1/GPa)
#
#
# Indices 1 2 3 4 5 6 
#
# 1 0.008036 -0.002000 -0.002383 0.000002 -0.003460 0.000002
# 2 -0.002000 0.012934 -0.006270 -0.000005 -0.002407 -0.000005
# 3 -0.002383 -0.006270 0.024284 -0.000003 -0.003321 -0.000003
# 4 0.000002 -0.000005 -0.000003 0.061546 -0.000005 0.023192
# 5 -0.003460 -0.002407 -0.003321 -0.000005 0.035926 -0.000005
# 6 0.000002 -0.000005 -0.000003 0.023192 -0.000005 0.069911
#
#
# Mechanical properties :
#
#
# Convention : Reuss Voigt Hill
#
# Bulk Modulus (GPa) = 41.75805 56.54453 49.15129
# Shear Modulus (GPa) = 20.66732 27.01919 23.84326
#
# Velocity S-wave (km/s) = 3.27007 3.73896 3.51235
# Velocity P-wave (km/s) = 5.98862 6.92071 6.47147
#
# Compressibility (1/GPa) = 0.02394748
#
# Stress axis : x y z
#
# Youngs Moduli (GPa) = 124.43368 77.31378 41.17992
#
# Poissons Ratio (x) = 0.15465 0.09814
# Poissons Ratio (y) = 0.24891 0.25820
# Poissons Ratio (z) = 0.29655 0.48475
#
# Static dielectric constant tensor:
#      x y z
#    x 1.750070 0.000000 0.040440 
#    y 0.000000 1.678390 0.000000 
#    z 0.040440 0.000000 1.663290 
# 
# From -- ./inp_files/255945.got.cif
#   From: 2010.05.17/outbox.cif.g08.bks.cpg/sg15_128_cif.got.tgz:255945.got - 2010.06.03 18:47:42.
