data_PCOD9265744
_publ_section_title
;
Structure prediction by ZEFSAII (Michael W. Deem and Ramdas Pophale) SiO2 
 PCOD9265744
Probable space group: C 2/C
;
_chemical_formula_sum "Si O2"
_cell_formula_units_Z 64
_cell_length_a 7.935097
_cell_length_b 19.757477
_cell_length_c 18.042795
_cell_angle_alpha 90.000000
_cell_angle_beta 82.168863
_cell_angle_gamma 90.000000
_cell_volume 2802.323565
_symmetry_space_group_name_H-M "C 2/C"
_symmetry_group_IT_number 15
_symmetry_cell_setting 'monoclinic'
loop_
_space_group_symop_operation_xyz
x,y,z
-x,y,1/2-z
-x,-y,-z
x,-y,1/2+z
1/2+x,1/2+y,z
1/2-x,1/2+y,1/2-z
1/2-x,1/2-y,-z
1/2+x,1/2-y,1/2+z
loop_
_atom_site_type_symbol
_atom_site_label
_atom_site_fract_x
_atom_site_fract_y
_atom_site_fract_z
Si Si1 0.610466 0.584516 0.046385
Si Si2 0.612426 0.066011 0.670903
Si Si3 0.128002 0.309866 0.919070
Si Si4 0.781892 0.257636 0.909143
Si Si5 0.574014 0.787534 0.097908
Si Si6 0.153119 0.525013 0.039452
Si Si7 0.636283 0.382929 0.061962
Si Si8 0.026966 0.990115 0.332348
O O1 0.759733 0.621760 0.082343
O O2 0.473348 0.554914 0.112703
O O3 0.691582 0.524965 0.991821
O O4 0.517762 0.627427 0.987577
O O5 0.500000 0.063587 0.750000
O O6 0.569367 0.136143 0.630823
O O7 0.811809 0.059745 0.676971
O O8 0.594060 0.996839 0.624148
O O9 0.260687 0.252702 0.883709
O O10 0.946623 0.305195 0.888213
O O11 0.093180 0.295461 0.008190
O O12 0.596538 0.258800 0.881685
O O13 0.843841 0.181779 0.889085
O O14 0.750000 0.250000 0.000000
O O15 0.211365 0.596834 0.003472
O O16 0.000000 0.500000 0.000000
O O17 0.617691 0.444974 0.119890
O O18 0.000000 0.011388 0.250000
#
# Coordination Sequence:
#
# PCOD9265744 Si02
#       8
#     8   8   8   8   8   8   8   8
#     4  11  20  40  63  87 122 167 213 269 315 384
#     4  12  24  40  59  93 135 168 211 272 338 403
#     4  10  19  36  65  87 123 162 208 265 319 378
#     4  10  21  33  59  98 122 149 207 268 318 377
#     4  10  20  38  58  94 124 161 209 265 325 379
#     4  11  22  36  59  91 123 163 215 265 322 385
#     4  11  20  39  63  85 123 164 208 270 320 379
#     4  11  24  40  59  90 124 171 216 261 330 395
#
# _framework density 22.838190999999998
#
# number of rings (size 3 to 8) (size 9 to 14) (size 15 to 20)
#    0.000    1.250    3.750    4.500    7.000    0.000 
#    0.000    0.625    0.000    0.000    0.000    0.000 
#    0.000    0.000    0.000    0.000    0.000    0.000 
#
# Total GULP energy -178416.859213 kJ/mol
# GULP energy per Si atom -5575.526850 kJ/mol
# Density = 2.278621 g / cm^3
# Si number density = 22.838191 Si / 1000 Ang^3
#
#
#
# Elastic Constant Matrix: (Units=GPa)
#
#
# Indices 1 2 3 4 5 6 
#
# 1 135.6322 26.2357 21.7624 0.0000 -9.6147 0.0000
# 2 26.2357 65.3586 18.4032 0.0000 -15.1981 0.0000
# 3 21.7624 18.4032 89.6958 0.0000 -15.7336 0.0000
# 4 0.0000 0.0000 0.0000 15.9788 0.0000 -0.7230
# 5 -9.6147 -15.1981 -15.7336 0.0000 19.7447 0.0000
# 6 0.0000 0.0000 0.0000 -0.7230 0.0000 44.7653
#
#
#
# Elastic Compliance Matrix: (Units=1/GPa)
#
#
# Indices 1 2 3 4 5 6 
#
# 1 0.008164 -0.002717 -0.001270 0.000000 0.000872 0.000000
# 2 -0.002717 0.019720 -0.001112 0.000000 0.012970 0.000000
# 3 -0.001270 -0.001112 0.013283 0.000000 0.009110 0.000000
# 4 0.000000 0.000000 0.000000 0.062629 0.000000 0.001011
# 5 0.000872 0.012970 0.009110 0.000000 0.068314 0.000000
# 6 0.000000 0.000000 0.000000 0.001011 0.000000 0.022355
#
#
# Mechanical properties :
#
#
# Convention : Reuss Voigt Hill
#
# Bulk Modulus (GPa) = 32.29012 47.05436 39.67224
# Shear Modulus (GPa) = 23.25738 31.05012 27.15375
#
# Velocity S-wave (km/s) = 3.19463 3.69124 3.45187
# Velocity P-wave (km/s) = 5.27038 6.23017 5.77027
#
# Compressibility (1/GPa) = 0.03096922
#
# Stress axis : x y z
#
# Youngs Moduli (GPa) = 122.48859 50.71073 75.28320
#
# Poissons Ratio (x) = 0.13776 0.09564
# Poissons Ratio (y) = 0.33276 0.08370
# Poissons Ratio (z) = 0.15561 0.05638
#
# Static dielectric constant tensor:
#      x y z
#    x 1.998410 0.000000 -0.006700 
#    y 0.000000 2.016840 0.000000 
#    z -0.006700 0.000000 1.834700 
# 
# From -- ./inp_files/192964.got.cif
#   From: 2010.05.17/outbox.cif.g08.bks.cpg/sg15_97_cif.got.tgz:192964.got - 2010.06.03 18:47:42.
