data_PCOD9265516
_publ_section_title
;
Structure prediction by ZEFSAII (Michael W. Deem and Ramdas Pophale) SiO2 
 PCOD9265516
Probable space group: C 2/C
;
_chemical_formula_sum "Si O2"
_cell_formula_units_Z 52
_cell_length_a 16.565950
_cell_length_b 10.826095
_cell_length_c 12.638389
_cell_angle_alpha 90.000000
_cell_angle_beta 62.145705
_cell_angle_gamma 90.000000
_cell_volume 2004.011728
_symmetry_space_group_name_H-M "C 2/C"
_symmetry_group_IT_number 15
_symmetry_cell_setting 'monoclinic'
loop_
_space_group_symop_operation_xyz
x,y,z
-x,y,1/2-z
-x,-y,-z
x,-y,1/2+z
1/2+x,1/2+y,z
1/2-x,1/2+y,1/2-z
1/2-x,1/2-y,-z
1/2+x,1/2-y,1/2+z
loop_
_atom_site_type_symbol
_atom_site_label
_atom_site_fract_x
_atom_site_fract_y
_atom_site_fract_z
Si Si1 0.000000 0.815579 0.250000
Si Si2 0.650685 0.310185 0.563662
Si Si3 0.084308 0.407451 0.388491
Si Si4 0.808237 0.672026 0.375275
Si Si5 0.591697 0.044197 0.587430
Si Si6 0.991464 0.839657 0.019733
Si Si7 0.336260 0.339040 0.716111
O O1 0.095186 0.740508 0.194924
O O2 0.001370 0.879463 0.363596
O O3 0.750000 0.250000 0.500000
O O4 0.590841 0.187272 0.616064
O O5 0.603184 0.359715 0.486077
O O6 0.654279 0.387001 0.669913
O O7 0.121778 0.504883 0.449004
O O8 0.163950 0.535809 0.105328
O O9 0.151549 0.311821 0.292129
O O10 0.017117 0.479227 0.351246
O O11 0.750000 0.750000 0.500000
O O12 0.752581 0.651092 0.301621
O O13 0.923230 0.890840 0.599302
O O14 0.022107 0.692762 0.994571
#
# Coordination Sequence:
#
# PCOD9265516 Si02
#       7
#     4   8   8   8   8   8   8
#     4  12  20  34  60  96 124 170 212 260 314 402
#     4  11  23  39  56  90 129 171 216 261 321 390
#     4   8  17  35  56  93 120 151 202 262 333 371
#     4  12  21  38  59  98 135 164 208 266 339 387
#     4  10  19  36  61  92 129 161 207 270 323 382
#     4   9  19  36  59  86 122 162 208 258 324 382
#     4  10  20  40  59  89 134 171 199 265 336 397
#
# _framework density 25.947952000000001
#
# number of rings (size 3 to 8) (size 9 to 14) (size 15 to 20)
#    0.923    0.923    4.615    1.385    0.000    1.231 
#    2.769    0.000    0.000    0.923    4.000    0.000 
#    0.000    0.000    0.000    0.000    0.000    0.000 
#
# Total GULP energy -144957.590193 kJ/mol
# GULP energy per Si atom -5575.291931 kJ/mol
# Density = 2.588889 g / cm^3
# Si number density = 25.947952 Si / 1000 Ang^3
#
#
#
# Elastic Constant Matrix: (Units=GPa)
#
#
# Indices 1 2 3 4 5 6 
#
# 1 189.5188 1.7825 68.4370 0.0000 43.9984 0.0000
# 2 1.7825 63.1630 0.9588 0.0000 13.3976 0.0000
# 3 68.4370 0.9588 141.8682 0.0000 39.6978 0.0000
# 4 0.0000 0.0000 0.0000 11.1950 0.0000 11.3425
# 5 43.9984 13.3976 39.6978 0.0000 67.8017 0.0000
# 6 0.0000 0.0000 0.0000 11.3425 0.0000 34.7416
#
#
#
# Elastic Compliance Matrix: (Units=1/GPa)
#
#
# Indices 1 2 3 4 5 6 
#
# 1 0.006883 0.000508 -0.002447 0.000000 -0.003134 0.000000
# 2 0.000508 0.016672 0.000785 0.000000 -0.004084 0.000000
# 3 -0.002447 0.000785 0.009356 0.000000 -0.004045 0.000000
# 4 0.000000 0.000000 0.000000 0.133478 0.000000 -0.043578
# 5 -0.003134 -0.004084 -0.004045 0.000000 0.019958 0.000000
# 6 0.000000 0.000000 0.000000 -0.043578 0.000000 0.043011
#
#
# Mechanical properties :
#
#
# Convention : Reuss Voigt Hill
#
# Bulk Modulus (GPa) = 32.67680 59.65630 46.16655
# Shear Modulus (GPa) = 20.67255 44.30579 32.48917
#
# Velocity S-wave (km/s) = 2.82564 4.13666 3.54233
# Velocity P-wave (km/s) = 4.82350 6.77175 5.87889
#
# Compressibility (1/GPa) = 0.03060275
#
# Stress axis : x y z
#
# Youngs Moduli (GPa) = 145.28698 59.98091 106.88683
#
# Poissons Ratio (x) = -0.03045 0.26152
# Poissons Ratio (y) = -0.07377 -0.08391
# Poissons Ratio (z) = 0.35547 -0.04709
#
# Static dielectric constant tensor:
#      x y z
#    x 3.709190 0.000000 -0.310870 
#    y 0.000000 2.176830 0.000000 
#    z -0.310870 0.000000 2.274100 
# 
# From -- ./inp_files/97796.got.cif
#   From: 2010.05.17/outbox.cif.g08.bks.cpg/sg15_49_cif.got.tgz:97796.got - 2010.06.03 18:47:42.
