data_PCOD9265359
_publ_section_title
;
Structure prediction by ZEFSAII (Michael W. Deem and Ramdas Pophale) SiO2 
 PCOD9265359
Probable space group: C 2/C
;
_chemical_formula_sum "Si O2"
_cell_formula_units_Z 56
_cell_length_a 29.421324
_cell_length_b 11.427989
_cell_length_c 23.413473
_cell_angle_alpha 90.000000
_cell_angle_beta 18.850775
_cell_angle_gamma 90.000000
_cell_volume 2543.553318
_symmetry_space_group_name_H-M "C 2/C"
_symmetry_group_IT_number 15
_symmetry_cell_setting 'monoclinic'
loop_
_space_group_symop_operation_xyz
x,y,z
-x,y,1/2-z
-x,-y,-z
x,-y,1/2+z
1/2+x,1/2+y,z
1/2-x,1/2+y,1/2-z
1/2-x,1/2-y,-z
1/2+x,1/2-y,1/2+z
loop_
_atom_site_type_symbol
_atom_site_label
_atom_site_fract_x
_atom_site_fract_y
_atom_site_fract_z
Si Si1 0.598548 0.108660 0.866880
Si Si2 0.177080 0.491713 0.154311
Si Si3 0.416080 0.895525 0.908387
Si Si4 0.874642 0.863879 0.490049
Si Si5 0.309202 0.489578 0.681367
Si Si6 0.585852 0.359239 0.845847
Si Si7 0.157121 0.978752 0.656096
O O1 0.539227 0.237390 0.928884
O O2 0.671548 0.084877 0.718458
O O3 0.706993 0.097133 0.789886
O O4 0.500000 0.000000 0.000000
O O5 0.018985 0.520145 0.322124
O O6 0.263074 0.606356 0.072877
O O7 0.265793 0.447606 0.994612
O O8 0.500000 0.871677 0.750000
O O9 0.404386 0.772593 0.953997
O O10 0.267164 0.946991 0.064247
O O11 0.805167 0.903326 0.632138
O O12 0.016208 0.943219 0.313706
O O13 0.293406 0.414282 0.757098
O O14 0.460448 0.548888 0.498502
O O15 0.625372 0.364366 0.732343
#
# Coordination Sequence:
#
# PCOD9265359 Si02
#       7
#     8   8   8   8   8   8   8
#     4  11  26  41  65  91 121 163 206 259 304 368
#     4  10  22  38  55  92 121 153 215 247 308 369
#     4  10  20  33  56  90 125 158 198 252 309 364
#     4  10  19  36  60  86 123 163 202 254 304 365
#     4   9  23  42  61  93 119 161 208 247 309 370
#     4  10  23  43  65  88 123 162 206 252 311 367
#     4  10  21  37  61  86 123 165 200 257 309 369
#
# _framework density 22.016444
#
# number of rings (size 3 to 8) (size 9 to 14) (size 15 to 20)
#    0.000    2.000    0.000    2.143    6.000    2.857 
#    5.143    0.000    0.000    3.429    0.000    0.000 
#    0.000    0.000    0.000    0.000    0.000    0.000 
#
# Total GULP energy -156162.494355 kJ/mol
# GULP energy per Si atom -5577.231941 kJ/mol
# Density = 2.196633 g / cm^3
# Si number density = 22.016444 Si / 1000 Ang^3
#
#
#
# Elastic Constant Matrix: (Units=GPa)
#
#
# Indices 1 2 3 4 5 6 
#
# 1 86.5425 8.8751 16.7257 0.0000 4.1677 0.0001
# 2 8.8751 41.4814 -13.3222 0.0000 17.0285 0.0001
# 3 16.7257 -13.3222 47.6729 0.0001 -0.8392 0.0001
# 4 0.0000 0.0000 0.0001 -4.8445 0.0000 -2.6260
# 5 4.1677 17.0285 -0.8392 0.0000 37.5699 0.0000
# 6 0.0001 0.0001 0.0001 -2.6260 0.0000 20.5010
#
#
#
# Elastic Compliance Matrix: (Units=1/GPa)
#
#
# Indices 1 2 3 4 5 6 
#
# 1 0.013205 -0.005044 -0.006030 0.000000 0.000687 0.000000
# 2 -0.005044 0.034986 0.011281 0.000001 -0.015046 0.000000
# 3 -0.006030 0.011281 0.026177 0.000001 -0.003860 0.000000
# 4 0.000000 0.000001 0.000001 -0.193019 0.000000 -0.024724
# 5 0.000687 -0.015046 -0.003860 0.000000 0.033274 0.000000
# 6 0.000000 0.000000 0.000000 -0.024724 0.000000 0.045611
#
#
# Mechanical properties :
#
#
# Convention : Reuss Voigt Hill
#
# Bulk Modulus (GPa) = 13.37210 22.25046 17.81128
# Shear Modulus (GPa) = -327.76860 21.53983 -153.11439
#
# Velocity S-wave (km/s) = -12.21465 3.13126 -8.34844
# Velocity P-wave (km/s) = 13.88680 4.81677 9.20983
#
# Compressibility (1/GPa) = 0.07478257
#
# Stress axis : x y z
#
# Youngs Moduli (GPa) = 75.73112 28.58294 38.20210
#
# Poissons Ratio (x) = 0.14416 0.23036
# Poissons Ratio (y) = 0.38196 -0.43098
# Poissons Ratio (z) = 0.45667 -0.32246
#
# Static dielectric constant tensor:
#      x y z
#    x 1.879950 0.000000 -0.030570 
#    y 0.000000 1.774990 0.000000 
#    z -0.030570 0.000000 1.895260 
# 
# From -- ./inp_files/284610.got.cif
#   From: 2010.05.17/outbox.cif.g08.bks.cpg/sg15_143_cif.got.tgz:284610.got - 2010.06.03 18:47:42.
