data_PCOD9265682
_publ_section_title
;
Structure prediction by ZEFSAII (Michael W. Deem and Ramdas Pophale) SiO2 
 PCOD9265682
Probable space group: C 2/C
;
_chemical_formula_sum "Si O2"
_cell_formula_units_Z 40
_cell_length_a 21.018551
_cell_length_b 21.297328
_cell_length_c 17.505172
_cell_angle_alpha 90.000000
_cell_angle_beta 167.357050
_cell_angle_gamma 90.000000
_cell_volume 1715.101905
_symmetry_space_group_name_H-M "C 2/C"
_symmetry_group_IT_number 15
_symmetry_cell_setting 'monoclinic'
loop_
_space_group_symop_operation_xyz
x,y,z
-x,y,1/2-z
-x,-y,-z
x,-y,1/2+z
1/2+x,1/2+y,z
1/2-x,1/2+y,1/2-z
1/2-x,1/2-y,-z
1/2+x,1/2-y,1/2+z
loop_
_atom_site_type_symbol
_atom_site_label
_atom_site_fract_x
_atom_site_fract_y
_atom_site_fract_z
Si Si1 0.000000 0.147350 0.250000
Si Si2 0.810580 0.085899 0.256260
Si Si3 0.260554 0.458634 0.354865
Si Si4 0.899391 0.212258 0.841678
Si Si5 0.500000 0.855722 0.250000
Si Si6 0.500000 0.145045 0.250000
Si Si7 0.500000 0.436590 0.250000
O O1 0.127381 0.101775 0.464514
O O2 0.253760 0.182349 0.504228
O O3 0.082432 0.048135 0.542058
O O4 0.937564 0.151168 0.435061
O O5 0.584082 0.054229 0.048961
O O6 0.626311 0.099551 0.963607
O O7 0.367130 0.518226 0.528727
O O8 0.661735 0.242139 0.621265
O O9 0.702360 0.188130 0.540445
O O10 0.731841 0.103509 0.472044
#
# Coordination Sequence:
#
# PCOD9265682 Si02
#       7
#     4   8   8   8   4   4   4
#     4   7  12  22  44  74 108 157 190 205 264 357
#     4  10  19  36  63  95 129 170 211 258 324 401
#     4   9  17  33  59  93 132 166 194 245 322 400
#     4  12  26  47  69  92 125 174 232 292 335 368
#     4   8  14  27  50  80 116 151 186 234 300 372
#     4  12  26  46  68  95 126 172 234 287 328 380
#     4  11  22  41  70 103 136 174 214 262 330 413
#
# _framework density 23.322227999999999
#
# number of rings (size 3 to 8) (size 9 to 14) (size 15 to 20)
#    0.000    2.000    0.000    5.400    0.000    1.600 
#    0.000    7.000    0.000    0.000    0.000    0.000 
#    0.000    0.000    0.000    0.000    0.000    0.000 
#
# Total GULP energy -111651.313062 kJ/mol
# GULP energy per Si atom -5582.565653 kJ/mol
# Density = 2.326915 g / cm^3
# Si number density = 23.322228 Si / 1000 Ang^3
#
#
#
# Elastic Constant Matrix: (Units=GPa)
#
#
# Indices 1 2 3 4 5 6 
#
# 1 72.5960 10.0935 58.5422 -0.0146 39.4224 0.0168
# 2 10.0935 44.5078 61.7595 -0.0184 8.9141 0.0177
# 3 58.5422 61.7595 176.8350 -0.0557 62.3874 0.1124
# 4 -0.0146 -0.0184 -0.0557 63.4605 -0.0348 -15.2575
# 5 39.4224 8.9141 62.3874 -0.0348 84.0071 0.0244
# 6 0.0168 0.0177 0.1124 -15.2575 0.0244 18.9985
#
#
#
# Elastic Compliance Matrix: (Units=1/GPa)
#
#
# Indices 1 2 3 4 5 6 
#
# 1 0.021989 0.007004 -0.007890 0.000005 -0.005202 0.000031
# 2 0.007004 0.051578 -0.023363 0.000023 0.008591 0.000091
# 3 -0.007890 -0.023363 0.019303 -0.000018 -0.008154 -0.000089
# 4 0.000005 0.000023 -0.000018 0.019528 0.000012 0.015683
# 5 -0.005202 0.008591 -0.008154 0.000012 0.019489 0.000029
# 6 0.000031 0.000091 -0.000089 0.015683 0.000029 0.065231
#
#
# Mechanical properties :
#
#
# Convention : Reuss Voigt Hill
#
# Bulk Modulus (GPa) = 22.53712 61.63658 42.08685
# Shear Modulus (GPa) = 19.20070 44.19614 31.69842
#
# Velocity S-wave (km/s) = 2.87240 4.35791 3.69067
# Velocity P-wave (km/s) = 4.54810 7.19774 6.02049
#
# Compressibility (1/GPa) = 0.04437124
#
# Stress axis : x y z
#
# Youngs Moduli (GPa) = 45.47732 19.38823 51.80471
#
# Poissons Ratio (x) = -0.13579 0.40875
# Poissons Ratio (y) = -0.31852 1.21031
# Poissons Ratio (z) = 0.35883 0.45297
#
# Static dielectric constant tensor:
#      x y z
#    x 1.878310 -0.000010 0.039990 
#    y -0.000010 1.824880 -0.000010 
#    z 0.039990 -0.000010 2.038010 
# 
# From -- ./inp_files/256182.got.cif
#   From: 2010.05.17/outbox.cif.g08.bks.cpg/sg15_129_cif.got.tgz:256182.got - 2010.06.03 18:47:42.
