data_PCOD9265413
_publ_section_title
;
Structure prediction by ZEFSAII (Michael W. Deem and Ramdas Pophale) SiO2 
 PCOD9265413
Probable space group: C 2/C
;
_chemical_formula_sum "Si O2"
_cell_formula_units_Z 56
_cell_length_a 27.444751
_cell_length_b 11.447335
_cell_length_c 8.381027
_cell_angle_alpha 90.000000
_cell_angle_beta 70.803153
_cell_angle_gamma 90.000000
_cell_volume 2486.648276
_symmetry_space_group_name_H-M "C 2/C"
_symmetry_group_IT_number 15
_symmetry_cell_setting 'monoclinic'
loop_
_space_group_symop_operation_xyz
x,y,z
-x,y,1/2-z
-x,-y,-z
x,-y,1/2+z
1/2+x,1/2+y,z
1/2-x,1/2+y,1/2-z
1/2-x,1/2-y,-z
1/2+x,1/2-y,1/2+z
loop_
_atom_site_type_symbol
_atom_site_label
_atom_site_fract_x
_atom_site_fract_y
_atom_site_fract_z
Si Si1 0.056217 0.306910 0.621678
Si Si2 0.619721 0.047764 0.538545
Si Si3 0.781639 0.410642 0.977262
Si Si4 0.943063 0.761294 0.737406
Si Si5 0.859841 0.275406 0.748367
Si Si6 0.648263 0.607702 0.035750
Si Si7 0.210051 0.049138 0.266706
O O1 0.086648 0.429332 0.566095
O O2 0.053604 0.243416 0.455970
O O3 0.088744 0.235435 0.718055
O O4 0.000000 0.331818 0.750000
O O5 0.589000 0.146245 0.670461
O O6 0.626656 0.101833 0.354332
O O7 0.676687 0.015674 0.543456
O O8 0.817462 0.296572 0.931447
O O9 0.753475 0.403935 0.837639
O O10 0.738815 0.437259 0.154797
O O11 0.908609 0.869288 0.836667
O O12 0.000000 0.758961 0.750000
O O13 0.844163 0.198434 0.615964
O O14 0.687925 0.620866 0.141111
O O15 0.662970 0.487724 0.932261
#
# Coordination Sequence:
#
# PCOD9265413 Si02
#       7
#     8   8   8   8   8   8   8
#     4  11  21  34  60  93 130 170 203 246 313 381
#     4  10  20  36  59  92 138 173 202 239 301 381
#     4  10  19  36  60  91 130 167 205 244 303 369
#     4  11  24  42  64  93 129 164 210 266 309 369
#     4  10  21  36  59  92 127 167 208 252 300 373
#     4  10  24  44  63  90 120 159 215 266 317 372
#     4  10  22  41  63  84 123 167 211 263 310 359
#
# _framework density 22.520275000000002
#
# number of rings (size 3 to 8) (size 9 to 14) (size 15 to 20)
#    0.000    1.714    1.429    3.857    2.000    5.143 
#    2.571    0.714    0.000    0.857    0.000    0.000 
#    0.000    0.000    0.000    0.000    0.000    0.000 
#
# Total GULP energy -156278.696948 kJ/mol
# GULP energy per Si atom -5581.382034 kJ/mol
# Density = 2.246902 g / cm^3
# Si number density = 22.520275 Si / 1000 Ang^3
#
#
#
# Elastic Constant Matrix: (Units=GPa)
#
#
# Indices 1 2 3 4 5 6 
#
# 1 174.3941 42.3261 74.4687 0.0000 10.6243 0.0000
# 2 42.3261 21.0198 12.4014 0.0000 -6.7205 0.0000
# 3 74.4687 12.4014 108.3848 0.0000 -0.7838 0.0000
# 4 0.0000 0.0000 0.0000 32.5676 0.0000 -4.6428
# 5 10.6243 -6.7205 -0.7838 0.0000 45.5507 0.0000
# 6 0.0000 0.0000 0.0000 -4.6428 0.0000 20.0469
#
#
#
# Elastic Compliance Matrix: (Units=1/GPa)
#
#
# Indices 1 2 3 4 5 6 
#
# 1 0.018822 -0.035785 -0.008909 0.000000 -0.009823 0.000000
# 2 -0.035785 0.121697 0.010854 0.000000 0.026488 0.000000
# 3 -0.008909 0.010854 0.014134 0.000000 0.003922 0.000000
# 4 0.000000 0.000000 0.000000 0.031754 0.000000 0.007354
# 5 -0.009823 0.026488 0.003922 0.000000 0.028220 0.000000
# 6 0.000000 0.000000 0.000000 0.007354 0.000000 0.051586
#
#
# Mechanical properties :
#
#
# Convention : Reuss Voigt Hill
#
# Bulk Modulus (GPa) = 11.49773 62.46567 36.98170
# Shear Modulus (GPa) = 13.77856 31.27322 22.52589
#
# Velocity S-wave (km/s) = 2.47620 3.73053 3.16610
# Velocity P-wave (km/s) = 3.64582 6.80834 5.46102
#
# Compressibility (1/GPa) = 0.08697366
#
# Stress axis : x y z
#
# Youngs Moduli (GPa) = 53.13002 8.21712 70.75297
#
# Poissons Ratio (x) = 0.29405 0.63030
# Poissons Ratio (y) = 1.90125 -0.76795
# Poissons Ratio (z) = 0.47331 -0.08919
#
# Static dielectric constant tensor:
#      x y z
#    x 1.824030 0.000000 -0.004550 
#    y 0.000000 1.910100 0.000000 
#    z -0.004550 0.000000 1.836070 
# 
# From -- ./inp_files/65436.got.cif
#   From: 2010.05.17/outbox.cif.g08.bks.cpg/sg15_33_cif.got.tgz:65436.got - 2010.06.03 18:47:42.
