data_PCOD9265072
_publ_section_title
;
Structure prediction by ZEFSAII (Michael W. Deem and Ramdas Pophale) SiO2 
 PCOD9265072
Probable space group: C 2/C
;
_chemical_formula_sum "Si O2"
_cell_formula_units_Z 60
_cell_length_a 26.657319
_cell_length_b 7.325971
_cell_length_c 27.782076
_cell_angle_alpha 90.000000
_cell_angle_beta 151.184923
_cell_angle_gamma 90.000000
_cell_volume 2615.045247
_symmetry_space_group_name_H-M "C 2/C"
_symmetry_group_IT_number 15
_symmetry_cell_setting 'monoclinic'
loop_
_space_group_symop_operation_xyz
x,y,z
-x,y,1/2-z
-x,-y,-z
x,-y,1/2+z
1/2+x,1/2+y,z
1/2-x,1/2+y,1/2-z
1/2-x,1/2-y,-z
1/2+x,1/2-y,1/2+z
loop_
_atom_site_type_symbol
_atom_site_label
_atom_site_fract_x
_atom_site_fract_y
_atom_site_fract_z
Si Si1 0.093937 0.831543 0.520662
Si Si2 0.609645 0.480313 0.930337
Si Si3 0.693524 0.786552 0.379959
Si Si4 0.364175 0.952254 0.970541
Si Si5 0.000000 0.963908 0.750000
Si Si6 0.049308 0.672395 0.676931
Si Si7 0.114552 0.331151 0.615082
Si Si8 0.847469 0.755745 0.832078
O O1 0.165445 0.652065 0.572197
O O2 0.125901 0.892381 0.601612
O O3 0.977255 0.765139 0.433762
O O4 0.103621 0.941581 0.479593
O O5 0.549904 0.582177 0.836258
O O6 0.534157 0.305114 0.868761
O O7 0.730584 0.418729 0.025497
O O8 0.773854 0.642529 0.424257
O O9 0.600123 0.668104 0.324012
O O10 0.636866 0.889619 0.287826
O O11 0.391001 0.822515 0.947657
O O12 0.470918 0.976771 0.089971
O O13 0.103676 0.786109 0.679460
O O14 0.113716 0.550136 0.623625
O O15 0.224709 0.258076 0.724152
#
# Coordination Sequence:
#
# PCOD9265072 Si02
#       8
#     8   8   8   8   4   8   8   8
#     4  11  23  37  55  90 129 165 201 247 301 364
#     4  10  24  38  65  90 114 156 207 260 306 365
#     4  10  21  39  66  92 114 153 209 254 311 368
#     4  10  19  38  57  84 127 167 194 242 302 365
#     4  10  22  46  68  88 118 152 206 274 326 356
#     4  10  19  36  57  86 120 162 202 243 294 357
#     4  11  22  35  55  85 131 173 203 237 293 358
#     4  11  22  34  55  85 128 172 205 241 292 353
#
# _framework density 22.944151999999999
#
# number of rings (size 3 to 8) (size 9 to 14) (size 15 to 20)
#    0.000    1.600    4.000    1.200    3.733    1.600 
#    0.000    0.667    0.000    8.000    0.000    0.000 
#    0.000    0.000    0.000    0.000    0.000    0.000 
#
# Total GULP energy -167194.648159 kJ/mol
# GULP energy per Si atom -5573.154939 kJ/mol
# Density = 2.289193 g / cm^3
# Si number density = 22.944152 Si / 1000 Ang^3
#
#
#
# Elastic Constant Matrix: (Units=GPa)
#
#
# Indices 1 2 3 4 5 6 
#
# 1 93.2993 5.6229 46.8680 0.0001 12.1028 -0.0003
# 2 5.6229 21.3483 7.2400 0.0003 -0.3062 -0.0011
# 3 46.8680 7.2400 184.3778 0.0001 -3.6040 -0.0001
# 4 0.0001 0.0003 0.0001 19.4907 0.0000 1.7471
# 5 12.1028 -0.3062 -3.6040 0.0000 47.1873 0.0000
# 6 -0.0003 -0.0011 -0.0001 1.7471 0.0000 16.4697
#
#
#
# Elastic Compliance Matrix: (Units=1/GPa)
#
#
# Indices 1 2 3 4 5 6 
#
# 1 0.012971 -0.002357 -0.003275 0.000000 -0.003592 0.000000
# 2 -0.002357 0.047904 -0.001266 -0.000001 0.000819 0.000003
# 3 -0.003275 -0.001266 0.006332 0.000000 0.001315 0.000000
# 4 0.000000 -0.000001 0.000000 0.051799 0.000000 -0.005495
# 5 -0.003592 0.000819 0.001315 0.000000 0.022219 0.000000
# 6 0.000000 0.000003 0.000000 -0.005495 0.000000 0.061300
#
#
# Mechanical properties :
#
#
# Convention : Reuss Voigt Hill
#
# Bulk Modulus (GPa) = 18.72280 46.49857 32.61068
# Shear Modulus (GPa) = 21.35604 32.58251 26.96927
#
# Velocity S-wave (km/s) = 3.05418 3.77248 3.43218
# Velocity P-wave (km/s) = 4.54040 6.26781 5.47269
#
# Compressibility (1/GPa) = 0.05341082
#
# Stress axis : x y z
#
# Youngs Moduli (GPa) = 77.09266 20.87501 157.93970
#
# Poissons Ratio (x) = 0.04921 0.51724
# Poissons Ratio (y) = 0.18174 0.19992
# Poissons Ratio (z) = 0.25247 0.02642
#
# Static dielectric constant tensor:
#      x y z
#    x 1.978900 0.000000 -0.150210 
#    y 0.000000 1.910970 0.000000 
#    z -0.150210 0.000000 1.967850 
# 
# From -- ./inp_files/303119.got.cif
#   From: 2010.05.17/outbox.cif.g08.bks.cpg/sg15_152_cif.got.tgz:303119.got - 2010.06.03 18:47:42.
