data_PCOD9265176
_publ_section_title
;
Structure prediction by ZEFSAII (Michael W. Deem and Ramdas Pophale) SiO2 
 PCOD9265176
Probable space group: C 2/C
;
_chemical_formula_sum "Si O2"
_cell_formula_units_Z 64
_cell_length_a 21.901776
_cell_length_b 16.038041
_cell_length_c 22.285307
_cell_angle_alpha 90.000000
_cell_angle_beta 158.662625
_cell_angle_gamma 90.000000
_cell_volume 2848.277433
_symmetry_space_group_name_H-M "C 2/C"
_symmetry_group_IT_number 15
_symmetry_cell_setting 'monoclinic'
loop_
_space_group_symop_operation_xyz
x,y,z
-x,y,1/2-z
-x,-y,-z
x,-y,1/2+z
1/2+x,1/2+y,z
1/2-x,1/2+y,1/2-z
1/2-x,1/2-y,-z
1/2+x,1/2-y,1/2+z
loop_
_atom_site_type_symbol
_atom_site_label
_atom_site_fract_x
_atom_site_fract_y
_atom_site_fract_z
Si Si1 0.633551 0.821234 0.809887
Si Si2 0.727198 0.614295 0.286095
Si Si3 0.471581 0.833495 0.915660
Si Si4 0.194365 0.938167 0.306049
Si Si5 0.735384 0.357250 0.457400
Si Si6 0.203615 0.299694 0.315438
Si Si7 0.430981 0.646481 0.923692
Si Si8 0.910234 0.216188 0.111702
O O1 0.650184 0.826178 0.753906
O O2 0.659720 0.728297 0.860558
O O3 0.439155 0.849224 0.638725
O O4 0.770784 0.868755 0.976383
O O5 0.885539 0.611700 0.387386
O O6 0.729879 0.534627 0.329901
O O7 0.733030 0.701910 0.326481
O O8 0.567114 0.614978 0.095613
O O9 0.483292 0.740008 0.951955
O O10 0.645361 0.876784 0.057657
O O11 0.156791 0.924220 0.341587
O O12 0.078305 0.908088 0.144856
O O13 0.253788 0.345477 0.299148
O O14 0.336678 0.331130 0.486901
O O15 0.025983 0.289769 0.187660
O O16 0.000000 0.171453 0.250000
O O17 0.750000 0.250000 0.000000
#
# Coordination Sequence:
#
# PCOD9265176 Si02
#       8
#     8   8   8   8   8   8   8   8
#     4   9  17  31  55  82 106 142 197 240 288 348
#     4  11  23  35  54  83 123 157 189 247 310 363
#     4  10  20  35  57  82 111 155 205 251 294 363
#     4  11  22  36  53  83 120 154 195 249 313 360
#     4   9  18  32  53  82 109 145 188 250 291 351
#     4  10  19  36  58  88 115 150 196 245 292 355
#     4  11  21  35  57  84 115 158 202 248 295 363
#     4   9  18  34  62  92 108 139 193 250 286 335
#
# _framework density 22.469721
#
# number of rings (size 3 to 8) (size 9 to 14) (size 15 to 20)
#    0.000    2.000    2.500    2.250    3.500    0.000 
#    0.000    0.000    5.500    1.500   19.500    0.000 
#    0.000    0.000    0.000    0.000    0.000    0.000 
#
# Total GULP energy -178245.760882 kJ/mol
# GULP energy per Si atom -5570.180028 kJ/mol
# Density = 2.241858 g / cm^3
# Si number density = 22.469721 Si / 1000 Ang^3
#
#
#
# Elastic Constant Matrix: (Units=GPa)
#
#
# Indices 1 2 3 4 5 6 
#
# 1 74.1011 8.5249 38.3217 0.0025 -19.7693 0.0014
# 2 8.5249 31.5432 -8.1781 0.0059 -13.9367 0.0040
# 3 38.3217 -8.1781 81.3225 0.0050 -20.2171 0.0036
# 4 0.0025 0.0059 0.0050 4.3843 0.0012 -1.8771
# 5 -19.7693 -13.9367 -20.2171 0.0012 50.5898 0.0013
# 6 0.0014 0.0040 0.0036 -1.8771 0.0013 19.4245
#
#
#
# Elastic Compliance Matrix: (Units=1/GPa)
#
#
# Indices 1 2 3 4 5 6 
#
# 1 0.019737 -0.006905 -0.009494 0.000009 0.002017 0.000003
# 2 -0.006905 0.042219 0.010792 -0.000077 0.013245 -0.000019
# 3 -0.009494 0.010792 0.019622 -0.000037 0.007105 -0.000009
# 4 0.000009 -0.000077 -0.000037 0.237929 -0.000038 0.022992
# 5 0.002017 0.013245 0.007105 -0.000038 0.027043 -0.000010
# 6 0.000003 -0.000019 -0.000009 0.022992 -0.000010 0.053703
#
#
# Mechanical properties :
#
#
# Convention : Reuss Voigt Hill
#
# Bulk Modulus (GPa) = 14.21141 29.36709 21.78925
# Shear Modulus (GPa) = 11.49633 24.76628 18.13131
#
# Velocity S-wave (km/s) = 2.26439 3.32355 2.84372
# Velocity P-wave (km/s) = 3.62975 5.27504 4.52775
#
# Compressibility (1/GPa) = 0.07036598
#
# Stress axis : x y z
#
# Youngs Moduli (GPa) = 50.66575 23.68604 50.96305
#
# Poissons Ratio (x) = 0.16354 0.48383
# Poissons Ratio (y) = 0.34983 -0.55001
# Poissons Ratio (z) = 0.48101 -0.25563
#
# Static dielectric constant tensor:
#      x y z
#    x 1.981470 0.000000 0.005540 
#    y 0.000000 1.786650 0.000000 
#    z 0.005540 0.000000 1.916100 
# 
# From -- ./inp_files/282263.got.cif
#   From: 2010.05.17/outbox.cif.g08.bks.cpg/sg15_142_cif.got.tgz:282263.got - 2010.06.03 18:47:42.
