data_PCOD9265626
_publ_section_title
;
Structure prediction by ZEFSAII (Michael W. Deem and Ramdas Pophale) SiO2 
 PCOD9265626
Probable space group: C 2/C
;
_chemical_formula_sum "Si O2"
_cell_formula_units_Z 60
_cell_length_a 8.887483
_cell_length_b 12.364984
_cell_length_c 20.472151
_cell_angle_alpha 90.000000
_cell_angle_beta 88.107298
_cell_angle_gamma 90.000000
_cell_volume 2248.530670
_symmetry_space_group_name_H-M "C 2/C"
_symmetry_group_IT_number 15
_symmetry_cell_setting 'monoclinic'
loop_
_space_group_symop_operation_xyz
x,y,z
-x,y,1/2-z
-x,-y,-z
x,-y,1/2+z
1/2+x,1/2+y,z
1/2-x,1/2+y,1/2-z
1/2-x,1/2-y,-z
1/2+x,1/2-y,1/2+z
loop_
_atom_site_type_symbol
_atom_site_label
_atom_site_fract_x
_atom_site_fract_y
_atom_site_fract_z
Si Si1 0.175726 0.584149 0.264847
Si Si2 0.323727 0.868085 0.012091
Si Si3 0.146758 0.707537 0.376391
Si Si4 0.664434 0.376252 0.256583
Si Si5 0.463334 0.237247 0.898639
Si Si6 0.500000 0.289823 0.750000
Si Si7 0.599467 0.467370 0.935438
Si Si8 0.913220 0.145746 0.882477
O O1 0.168591 0.591525 0.344196
O O2 0.209040 0.464947 0.237240
O O3 0.339508 0.643850 0.247068
O O4 0.000000 0.612503 0.250000
O O5 0.476716 0.848212 0.049247
O O6 0.213602 0.905223 0.071970
O O7 0.250000 0.750000 0.000000
O O8 0.273158 0.948042 0.954333
O O9 0.151324 0.782241 0.309855
O O10 0.287984 0.742734 0.415167
O O11 0.988585 0.742802 0.408087
O O12 0.500000 0.430775 0.250000
O O13 0.668624 0.326273 0.183796
O O14 0.483724 0.224607 0.819389
O O15 0.544195 0.351907 0.910703
O O16 0.551983 0.559661 0.884970
O O17 0.500000 0.500000 0.000000
#
# Coordination Sequence:
#
# PCOD9265626 Si02
#       8
#     8   8   8   8   8   4   8   8
#     4  11  22  38  57  88 133 166 214 252 309 402
#     4   9  20  37  59  86 110 161 217 257 308 381
#     4  10  23  37  57  96 129 161 210 260 336 395
#     4  10  21  38  59  90 130 170 206 256 333 399
#     4  10  21  37  62  87 128 158 214 265 327 392
#     4  10  22  36  62  94 128 172 204 266 344 382
#     4   9  19  39  62  86 114 165 223 259 320 379
#     4  10  19  36  63  83 121 166 203 268 318 376
#
# _framework density 26.684092
#
# number of rings (size 3 to 8) (size 9 to 14) (size 15 to 20)
#    0.000    2.133    0.667    2.800    7.467    1.067 
#    1.200    6.667    0.000    0.000    0.000    0.000 
#    0.000    0.000    0.000    0.000    0.000    0.000 
#
# Total GULP energy -167014.770946 kJ/mol
# GULP energy per Si atom -5567.159032 kJ/mol
# Density = 2.662336 g / cm^3
# Si number density = 26.684092 Si / 1000 Ang^3
#
#
#
# Elastic Constant Matrix: (Units=GPa)
#
#
# Indices 1 2 3 4 5 6 
#
# 1 144.5567 30.3875 20.1043 0.0000 25.4241 0.0000
# 2 30.3875 65.1223 18.9605 0.0000 14.2663 0.0000
# 3 20.1043 18.9605 96.0478 0.0000 29.2636 0.0000
# 4 0.0000 0.0000 0.0000 -78.5646 0.0000 40.3846
# 5 25.4241 14.2663 29.2636 0.0000 31.5782 0.0000
# 6 0.0000 0.0000 0.0000 40.3846 0.0000 30.7753
#
#
#
# Elastic Compliance Matrix: (Units=1/GPa)
#
#
# Indices 1 2 3 4 5 6 
#
# 1 0.008504 -0.002804 0.000660 0.000000 -0.006192 0.000000
# 2 -0.002804 0.018107 -0.001648 0.000000 -0.004395 0.000000
# 3 0.000660 -0.001648 0.014678 0.000000 -0.013389 0.000000
# 4 0.000000 0.000000 0.000000 -0.007601 0.000000 0.009975
# 5 -0.006192 -0.004395 -0.013389 0.000000 0.051045 0.000000
# 6 0.000000 0.000000 0.000000 0.009975 0.000000 0.019405
#
#
# Mechanical properties :
#
#
# Convention : Reuss Voigt Hill
#
# Bulk Modulus (GPa) = 29.66984 49.40349 39.53667
# Shear Modulus (GPa) = 40.66433 12.50943 26.58688
#
# Velocity S-wave (km/s) = 3.90797 2.16752 3.15994
# Velocity P-wave (km/s) = 5.61303 4.98183 5.30682
#
# Compressibility (1/GPa) = 0.03370426
#
# Stress axis : x y z
#
# Youngs Moduli (GPa) = 117.58696 55.22752 68.12918
#
# Poissons Ratio (x) = 0.15486 -0.04496
# Poissons Ratio (y) = 0.32972 0.11230
# Poissons Ratio (z) = -0.07760 0.09104
#
# Static dielectric constant tensor:
#      x y z
#    x 2.232570 0.000000 -0.154320 
#    y 0.000000 2.208730 0.000000 
#    z -0.154320 0.000000 2.182250 
# 
# From -- ./inp_files/288442.got.cif
#   From: 2010.05.17/outbox.cif.g08.bks.cpg/sg15_145_cif.got.tgz:288442.got - 2010.06.03 18:47:42.
