data_PCOD9265037
_publ_section_title
;
Structure prediction by ZEFSAII (Michael W. Deem and Ramdas Pophale) SiO2 
 PCOD9265037
Probable space group: C 2/C
;
_chemical_formula_sum "Si O2"
_cell_formula_units_Z 64
_cell_length_a 11.278624
_cell_length_b 31.947334
_cell_length_c 14.481208
_cell_angle_alpha 90.000000
_cell_angle_beta 151.778368
_cell_angle_gamma 90.000000
_cell_volume 2467.457396
_symmetry_space_group_name_H-M "C 2/C"
_symmetry_group_IT_number 15
_symmetry_cell_setting 'monoclinic'
loop_
_space_group_symop_operation_xyz
x,y,z
-x,y,1/2-z
-x,-y,-z
x,-y,1/2+z
1/2+x,1/2+y,z
1/2-x,1/2+y,1/2-z
1/2-x,1/2-y,-z
1/2+x,1/2-y,1/2+z
loop_
_atom_site_type_symbol
_atom_site_label
_atom_site_fract_x
_atom_site_fract_y
_atom_site_fract_z
Si Si1 0.966173 0.023213 0.570404
Si Si2 0.541690 0.804577 0.501640
Si Si3 0.254446 0.686001 0.517404
Si Si4 0.542063 0.290333 0.044249
Si Si5 0.778304 0.153487 0.988467
Si Si6 0.516922 0.050361 0.521294
Si Si7 0.748017 0.560364 0.515169
Si Si8 0.740211 0.091700 0.511313
O O1 0.908332 0.982529 0.592281
O O2 0.755039 0.056445 0.444623
O O3 0.000000 0.000000 0.500000
O O4 0.209720 0.051740 0.746639
O O5 0.470700 0.812669 0.561265
O O6 0.610099 0.755628 0.553656
O O7 0.272713 0.807323 0.264189
O O8 0.724334 0.830563 0.557250
O O9 0.500000 0.692988 0.750000
O O10 0.309979 0.711461 0.459761
O O11 0.241013 0.638060 0.474953
O O12 0.538326 0.318438 0.949201
O O13 0.500000 0.155888 0.750000
O O14 0.860677 0.105159 0.031774
O O15 0.329358 0.067499 0.466271
O O16 0.526814 0.077193 0.436032
O O17 0.500000 0.000000 0.500000
O O18 0.000000 0.552324 0.750000
O O19 0.000000 0.088357 0.750000
#
# Coordination Sequence:
#
# PCOD9265037 Si02
#       8
#     8   8   8   8   8   8   8   8
#     4  11  22  34  56  84 108 147 188 235 280 324
#     4  10  19  36  57  82 109 142 180 223 280 337
#     4   9  18  32  55  83 106 140 186 228 266 322
#     4  10  20  34  59  82 109 141 180 227 275 338
#     4   9  20  34  57  84 108 143 188 228 271 330
#     4  11  21  36  56  77 110 151 189 227 278 333
#     4  11  21  36  58  83 112 146 192 239 276 327
#     4   9  19  33  54  79 108 141 189 231 268 324
#
# _framework density 25.937629999999999
#
# number of rings (size 3 to 8) (size 9 to 14) (size 15 to 20)
#    0.000    2.000    2.500    1.500    1.750    3.000 
#    0.000    0.000    8.250    3.000    0.000    0.000 
#    0.000    0.000    0.000    0.000    0.000    0.000 
#
# Total GULP energy -178591.493487 kJ/mol
# GULP energy per Si atom -5580.984171 kJ/mol
# Density = 2.587859 g / cm^3
# Si number density = 25.937630 Si / 1000 Ang^3
#
#
#
# Elastic Constant Matrix: (Units=GPa)
#
#
# Indices 1 2 3 4 5 6 
#
# 1 120.7212 14.6917 28.6418 0.0000 -2.0764 -0.0001
# 2 14.6917 112.6393 -14.8973 0.0000 -1.5785 0.0000
# 3 28.6418 -14.8973 79.0138 0.0001 -8.5832 -0.0002
# 4 0.0000 0.0000 0.0001 0.2497 0.0000 21.8076
# 5 -2.0764 -1.5785 -8.5832 0.0000 35.4220 -0.0001
# 6 -0.0001 0.0000 -0.0002 21.8076 -0.0001 -5.0434
#
#
#
# Elastic Compliance Matrix: (Units=1/GPa)
#
#
# Indices 1 2 3 4 5 6 
#
# 1 0.009382 -0.001729 -0.003775 0.000000 -0.000442 0.000000
# 2 -0.001729 0.009448 0.002509 0.000000 0.000928 0.000000
# 3 -0.003775 0.002509 0.014877 0.000000 0.003495 0.000000
# 4 0.000000 0.000000 0.000000 0.010577 0.000000 0.045734
# 5 -0.000442 0.000928 0.003495 0.000000 0.029093 0.000000
# 6 0.000000 0.000000 0.000000 0.045734 0.000000 -0.000524
#
#
# Mechanical properties :
#
#
# Convention : Reuss Voigt Hill
#
# Bulk Modulus (GPa) = 36.07873 41.02742 38.55307
# Shear Modulus (GPa) = 56.76450 25.05488 40.90969
#
# Velocity S-wave (km/s) = 4.68322 3.11137 3.97575
# Velocity P-wave (km/s) = 6.57140 5.36280 5.99762
#
# Compressibility (1/GPa) = 0.02771717
#
# Stress axis : x y z
#
# Youngs Moduli (GPa) = 106.58706 105.83968 67.21730
#
# Poissons Ratio (x) = 0.18301 0.25374
# Poissons Ratio (y) = 0.18431 -0.16864
# Poissons Ratio (z) = 0.40235 -0.26555
#
# Static dielectric constant tensor:
#      x y z
#    x 2.072570 0.000000 -0.044260 
#    y 0.000000 2.003790 0.000000 
#    z -0.044260 0.000000 1.922040 
# 
# From -- ./inp_files/149187.got.cif
#   From: 2010.05.17/outbox.cif.g08.bks.cpg/sg15_75_cif.got.tgz:149187.got - 2010.06.03 18:47:42.
