data_PCOD9265151
_publ_section_title
;
Structure prediction by ZEFSAII (Michael W. Deem and Ramdas Pophale) SiO2 
 PCOD9265151
Probable space group: C 2/C
;
_chemical_formula_sum "Si O2"
_cell_formula_units_Z 52
_cell_length_a 5.671318
_cell_length_b 22.833489
_cell_length_c 26.892186
_cell_angle_alpha 90.000000
_cell_angle_beta 54.632650
_cell_angle_gamma 90.000000
_cell_volume 2839.774513
_symmetry_space_group_name_H-M "C 2/C"
_symmetry_group_IT_number 15
_symmetry_cell_setting 'monoclinic'
loop_
_space_group_symop_operation_xyz
x,y,z
-x,y,1/2-z
-x,-y,-z
x,-y,1/2+z
1/2+x,1/2+y,z
1/2-x,1/2+y,1/2-z
1/2-x,1/2-y,-z
1/2+x,1/2-y,1/2+z
loop_
_atom_site_type_symbol
_atom_site_label
_atom_site_fract_x
_atom_site_fract_y
_atom_site_fract_z
Si Si1 0.676963 0.677911 0.562703
Si Si2 0.886760 0.386394 0.416451
Si Si3 0.583998 0.814165 0.575703
Si Si4 0.998188 0.504017 0.146257
Si Si5 0.500228 0.415332 0.553331
Si Si6 0.000000 0.563505 0.250000
Si Si7 0.100568 0.901099 0.654245
O O1 0.373599 0.647636 0.581385
O O2 0.611437 0.745669 0.582109
O O3 0.882954 0.677155 0.488209
O O4 0.859203 0.650000 0.586276
O O5 0.727197 0.419209 0.481729
O O6 0.013871 0.436271 0.365158
O O7 0.846218 0.852236 0.565918
O O8 0.302101 0.844352 0.633659
O O9 0.045373 0.521405 0.197451
O O10 0.718688 0.541491 0.166840
O O11 0.253930 0.535132 0.083250
O O12 0.623229 0.416761 0.593352
O O13 0.721194 0.605249 0.286260
#
# Coordination Sequence:
#
# PCOD9265151 Si02
#       7
#     8   8   8   8   8   4   8
#     4  10  22  34  58  88 128 164 193 221 296 361
#     4  11  22  36  55  92 124 162 189 229 291 377
#     4   9  19  35  55  86 125 159 190 239 283 363
#     4  10  22  36  57  83 115 151 197 249 301 347
#     4   9  19  33  55  87 121 154 186 237 299 349
#     4  10  22  38  58  86 100 152 204 260 304 342
#     4  10  19  36  58  85 111 152 197 252 300 341
#
# _framework density 18.311312999999998
#
# number of rings (size 3 to 8) (size 9 to 14) (size 15 to 20)
#    0.000    2.154    1.538    0.923    6.462    2.462 
#    0.000    0.000    0.000    0.000   16.000    0.000 
#    0.000    0.000    0.000    0.000    0.000    0.000 
#
# Total GULP energy -144802.325426 kJ/mol
# GULP energy per Si atom -5569.320209 kJ/mol
# Density = 1.826964 g / cm^3
# Si number density = 18.311313 Si / 1000 Ang^3
#
#
#
# Elastic Constant Matrix: (Units=GPa)
#
#
# Indices 1 2 3 4 5 6 
#
# 1 88.8860 45.8263 26.7701 0.0000 -6.3036 0.0000
# 2 45.8263 108.8745 42.1121 0.0000 -4.3578 0.0000
# 3 26.7701 42.1121 63.5223 0.0000 -12.1050 0.0000
# 4 0.0000 0.0000 0.0000 5.1067 0.0000 15.0189
# 5 -6.3036 -4.3578 -12.1050 0.0000 25.0150 0.0000
# 6 0.0000 0.0000 0.0000 15.0189 0.0000 -3.7521
#
#
#
# Elastic Compliance Matrix: (Units=1/GPa)
#
#
# Indices 1 2 3 4 5 6 
#
# 1 0.014794 -0.005205 -0.002475 0.000000 0.001624 0.000000
# 2 -0.005205 0.014274 -0.007762 0.000000 -0.002581 0.000000
# 3 -0.002475 -0.007762 0.023744 0.000000 0.009514 0.000000
# 4 0.000000 0.000000 0.000000 0.015332 0.000000 0.061370
# 5 0.001624 -0.002581 0.009514 0.000000 0.044540 0.000000
# 6 0.000000 0.000000 0.000000 0.061370 0.000000 -0.020867
#
#
# Mechanical properties :
#
#
# Convention : Reuss Voigt Hill
#
# Bulk Modulus (GPa) = 45.59875 54.52218 50.06046
# Shear Modulus (GPa) = 38.45864 15.04555 26.75209
#
# Velocity S-wave (km/s) = 4.58784 2.86956 3.82640
# Velocity P-wave (km/s) = 7.28151 6.38897 6.84979
#
# Compressibility (1/GPa) = 0.02193043
#
# Stress axis : x y z
#
# Youngs Moduli (GPa) = 67.59375 70.05506 42.11581
#
# Poissons Ratio (x) = 0.36462 0.10423
# Poissons Ratio (y) = 0.35181 0.32689
# Poissons Ratio (z) = 0.16728 0.54374
#
# Static dielectric constant tensor:
#      x y z
#    x 1.711300 0.000000 -0.013420 
#    y 0.000000 1.606470 0.000000 
#    z -0.013420 0.000000 1.629480 
# 
# From -- ./inp_files/227541.got.cif
#   From: 2010.05.17/outbox.cif.g08.bks.cpg/sg15_114_cif.got.tgz:227541.got - 2010.06.03 18:47:42.
