data_PCOD9265056
_publ_section_title
;
Structure prediction by ZEFSAII (Michael W. Deem and Ramdas Pophale) SiO2 
 PCOD9265056
Probable space group: C 2/C
;
_chemical_formula_sum "Si O2"
_cell_formula_units_Z 56
_cell_length_a 16.057436
_cell_length_b 10.284260
_cell_length_c 24.842819
_cell_angle_alpha 90.000000
_cell_angle_beta 48.671658
_cell_angle_gamma 90.000000
_cell_volume 3080.732231
_symmetry_space_group_name_H-M "C 2/C"
_symmetry_group_IT_number 15
_symmetry_cell_setting 'monoclinic'
loop_
_space_group_symop_operation_xyz
x,y,z
-x,y,1/2-z
-x,-y,-z
x,-y,1/2+z
1/2+x,1/2+y,z
1/2-x,1/2+y,1/2-z
1/2-x,1/2-y,-z
1/2+x,1/2-y,1/2+z
loop_
_atom_site_type_symbol
_atom_site_label
_atom_site_fract_x
_atom_site_fract_y
_atom_site_fract_z
Si Si1 0.997596 0.456192 0.159077
Si Si2 0.946989 0.665778 0.968066
Si Si3 0.338930 0.091040 0.552808
Si Si4 0.169062 0.485061 0.679088
Si Si5 0.409419 0.397953 0.058903
Si Si6 0.043746 0.728387 0.085901
Si Si7 0.886827 0.190247 0.825647
O O1 0.889648 0.456517 0.242822
O O2 0.021446 0.339567 0.107958
O O3 0.100101 0.467487 0.156494
O O4 0.993419 0.587946 0.124611
O O5 0.061019 0.628911 0.950182
O O6 0.862328 0.549914 0.018316
O O7 0.898964 0.795675 0.014395
O O8 0.355058 0.194602 0.497534
O O9 0.220958 0.101281 0.631119
O O10 0.295516 0.528704 0.620690
O O11 0.147424 0.329396 0.686142
O O12 0.458009 0.316681 0.088989
O O13 0.500000 0.500000 0.000000
O O14 0.084540 0.789888 0.123791
O O15 0.000000 0.144226 0.750000
#
# Coordination Sequence:
#
# PCOD9265056 Si02
#       7
#     8   8   8   8   8   8   8
#     4   9  18  37  61  79 107 154 196 228 285 347
#     4   9  19  36  56  83 111 150 195 230 289 348
#     4   9  18  32  58  82 110 145 186 241 280 335
#     4  10  19  36  57  84 117 150 185 238 290 345
#     4  11  23  37  55  86 119 147 192 243 289 338
#     4   9  18  36  55  84 109 142 191 233 284 335
#     4  11  19  34  60  87 113 145 195 237 281 337
#
# _framework density 18.177496999999999
#
# number of rings (size 3 to 8) (size 9 to 14) (size 15 to 20)
#    0.000    2.286    2.857    3.000    0.000    4.000 
#    2.571    0.000    3.143    0.000    0.000    0.000 
#    0.000    0.000    0.000    0.000    0.000    0.000 
#
# Total GULP energy -156094.671471 kJ/mol
# GULP energy per Si atom -5574.809695 kJ/mol
# Density = 1.813612 g / cm^3
# Si number density = 18.177497 Si / 1000 Ang^3
#
#
#
# Elastic Constant Matrix: (Units=GPa)
#
#
# Indices 1 2 3 4 5 6 
#
# 1 29.4636 10.0957 38.1860 0.0000 -11.9600 0.0000
# 2 10.0957 25.6586 23.1527 0.0000 -8.2207 0.0000
# 3 38.1860 23.1527 125.7198 0.0000 -28.8587 0.0000
# 4 0.0000 0.0000 0.0000 21.5642 0.0000 -0.5579
# 5 -11.9600 -8.2207 -28.8587 0.0000 38.7579 0.0000
# 6 0.0000 0.0000 0.0000 -0.5579 0.0000 17.9600
#
#
#
# Elastic Compliance Matrix: (Units=1/GPa)
#
#
# Indices 1 2 3 4 5 6 
#
# 1 0.058196 -0.007641 -0.015100 0.000000 0.005095 0.000000
# 2 -0.007641 0.048325 -0.005750 0.000000 0.003611 0.000000
# 3 -0.015100 -0.005750 0.014775 0.000000 0.005122 0.000000
# 4 0.000000 0.000000 0.000000 0.046410 0.000000 0.001442
# 5 0.005095 0.003611 0.005122 0.000000 0.031953 0.000000
# 6 0.000000 0.000000 0.000000 0.001442 0.000000 0.055724
#
#
# Mechanical properties :
#
#
# Convention : Reuss Voigt Hill
#
# Bulk Modulus (GPa) = 15.54833 35.96785 25.75809
# Shear Modulus (GPa) = 14.97886 22.95027 18.96457
#
# Velocity S-wave (km/s) = 2.87371 3.55711 3.23352
# Velocity P-wave (km/s) = 4.42528 6.05811 5.30490
#
# Compressibility (1/GPa) = 0.06431559
#
# Stress axis : x y z
#
# Youngs Moduli (GPa) = 17.18318 20.69332 67.68017
#
# Poissons Ratio (x) = 0.15811 1.02197
# Poissons Ratio (y) = 0.13129 0.38916
# Poissons Ratio (z) = 0.25947 0.11899
#
# Static dielectric constant tensor:
#      x y z
#    x 1.627300 0.000000 0.017900 
#    y 0.000000 1.643940 0.000000 
#    z 0.017900 0.000000 1.628810 
# 
# From -- ./inp_files/298492.got.cif
#   From: 2010.05.17/outbox.cif.g08.bks.cpg/sg15_150_cif.got.tgz:298492.got - 2010.06.03 18:47:42.
