data_PCOD9265016
_publ_section_title
;
Structure prediction by ZEFSAII (Michael W. Deem and Ramdas Pophale) SiO2 
 PCOD9265016
Probable space group: C 2/C
;
_chemical_formula_sum "Si O2"
_cell_formula_units_Z 56
_cell_length_a 19.058554
_cell_length_b 24.569848
_cell_length_c 5.683646
_cell_angle_alpha 90.000000
_cell_angle_beta 72.480931
_cell_angle_gamma 90.000000
_cell_volume 2538.010059
_symmetry_space_group_name_H-M "C 2/C"
_symmetry_group_IT_number 15
_symmetry_cell_setting 'monoclinic'
loop_
_space_group_symop_operation_xyz
x,y,z
-x,y,1/2-z
-x,-y,-z
x,-y,1/2+z
1/2+x,1/2+y,z
1/2-x,1/2+y,1/2-z
1/2-x,1/2-y,-z
1/2+x,1/2-y,1/2+z
loop_
_atom_site_type_symbol
_atom_site_label
_atom_site_fract_x
_atom_site_fract_y
_atom_site_fract_z
Si Si1 0.135920 0.867623 0.886328
Si Si2 0.255003 0.187518 0.928788
Si Si3 0.239891 0.607825 0.941368
Si Si4 0.378287 0.840573 0.617557
Si Si5 0.860115 0.468112 0.223986
Si Si6 0.500000 0.349362 0.750000
Si Si7 0.000000 0.597545 0.750000
Si Si8 0.424816 0.725729 0.715536
O O1 0.194809 0.844659 0.641474
O O2 0.059765 0.884178 0.836404
O O3 0.185483 0.907842 0.997204
O O4 0.109026 0.816638 0.068721
O O5 0.336238 0.167914 0.914702
O O6 0.250000 0.250000 0.000000
O O7 0.243364 0.168065 0.677095
O O8 0.210954 0.569927 0.760155
O O9 0.170696 0.617703 0.182563
O O10 0.456775 0.865303 0.480365
O O11 0.378831 0.779826 0.719049
O O12 0.857339 0.495998 0.485835
O O13 0.938162 0.436740 0.171216
O O14 0.549806 0.309378 0.537014
O O15 0.500000 0.747210 0.750000
#
# Coordination Sequence:
#
# PCOD9265016 Si02
#       8
#     8   8   8   8   8   4   4   8
#     4  10  21  36  60  86 130 167 225 268 330 404
#     4  11  21  37  58  87 129 174 217 272 332 401
#     4  11  24  41  62  93 125 170 228 282 347 415
#     4  11  23  36  57  90 132 174 231 279 332 397
#     4  12  28  50  74  99 133 177 237 302 365 411
#     4  10  19  36  56  88 128 174 222 262 319 398
#     4  12  25  46  68  98 130 180 236 300 347 404
#     4  10  21  34  54  90 132 182 223 268 324 395
#
# _framework density 22.064529
#
# number of rings (size 3 to 8) (size 9 to 14) (size 15 to 20)
#    0.000    1.143    1.429    5.143    4.000    5.714 
#    0.000    0.000    0.000    0.000    0.000    1.000 
#    0.000    0.000    0.000    0.000    0.000    0.000 
#
# Total GULP energy -156199.118551 kJ/mol
# GULP energy per Si atom -5578.539948 kJ/mol
# Density = 2.201431 g / cm^3
# Si number density = 22.064529 Si / 1000 Ang^3
#
#
#
# Elastic Constant Matrix: (Units=GPa)
#
#
# Indices 1 2 3 4 5 6 
#
# 1 159.9071 37.6491 20.5857 0.0000 27.0483 0.0000
# 2 37.6491 43.8071 26.0819 0.0000 1.5925 0.0000
# 3 20.5857 26.0819 79.1316 0.0000 -4.1857 0.0000
# 4 0.0000 0.0000 0.0000 13.7449 0.0000 -4.2353
# 5 27.0483 1.5925 -4.1857 0.0000 35.8856 0.0000
# 6 0.0000 0.0000 0.0000 -4.2353 0.0000 30.2485
#
#
#
# Elastic Compliance Matrix: (Units=1/GPa)
#
#
# Indices 1 2 3 4 5 6 
#
# 1 0.009167 -0.007477 -0.000270 0.000000 -0.006609 0.000000
# 2 -0.007477 0.034701 -0.009333 0.000000 0.003007 0.000000
# 3 -0.000270 -0.009333 0.015914 0.000000 0.002474 0.000000
# 4 0.000000 0.000000 0.000000 0.076035 0.000000 0.010646
# 5 -0.006609 0.003007 0.002474 0.000000 0.033003 0.000000
# 6 0.000000 0.000000 0.000000 0.010646 0.000000 0.034550
#
#
# Mechanical properties :
#
#
# Convention : Reuss Voigt Hill
#
# Bulk Modulus (GPa) = 39.02947 50.16433 44.59690
# Shear Modulus (GPa) = 20.31934 29.21108 24.76521
#
# Velocity S-wave (km/s) = 3.03793 3.64248 3.35386
# Velocity P-wave (km/s) = 5.48020 6.36199 5.93748
#
# Compressibility (1/GPa) = 0.02562166
#
# Stress axis : x y z
#
# Youngs Moduli (GPa) = 109.09006 28.81754 62.83591
#
# Poissons Ratio (x) = 0.21548 0.01695
# Poissons Ratio (y) = 0.81570 0.58647
# Poissons Ratio (z) = 0.02943 0.26896
#
# Static dielectric constant tensor:
#      x y z
#    x 1.887170 0.000000 0.044700 
#    y 0.000000 1.826720 0.000000 
#    z 0.044700 0.000000 1.859710 
# 
# From -- ./inp_files/11533.got.cif
#   From: 2010.05.17/outbox.cif.g08.bks.cpg/sg15_6_cif.got.tgz:11533.got - 2010.06.03 18:47:42.
