data_PCOD9265863
_publ_section_title
;
Structure prediction by ZEFSAII (Michael W. Deem and Ramdas Pophale) SiO2 
 PCOD9265863
Probable space group: C 2/C
;
_chemical_formula_sum "Si O2"
_cell_formula_units_Z 44
_cell_length_a 13.236734
_cell_length_b 24.651798
_cell_length_c 10.182531
_cell_angle_alpha 90.000000
_cell_angle_beta 129.765326
_cell_angle_gamma 90.000000
_cell_volume 2554.027356
_symmetry_space_group_name_H-M "C 2/C"
_symmetry_group_IT_number 15
_symmetry_cell_setting 'monoclinic'
loop_
_space_group_symop_operation_xyz
x,y,z
-x,y,1/2-z
-x,-y,-z
x,-y,1/2+z
1/2+x,1/2+y,z
1/2-x,1/2+y,1/2-z
1/2-x,1/2-y,-z
1/2+x,1/2-y,1/2+z
loop_
_atom_site_type_symbol
_atom_site_label
_atom_site_fract_x
_atom_site_fract_y
_atom_site_fract_z
Si Si1 0.440171 0.725331 0.014705
Si Si2 0.853962 0.280639 0.681889
Si Si3 0.820565 0.853308 0.794996
Si Si4 0.000000 0.678279 0.750000
Si Si5 0.977043 0.948346 0.572541
Si Si6 0.755384 0.871852 0.448562
O O1 0.388468 0.739122 0.828124
O O2 0.347036 0.679869 0.996930
O O3 0.586417 0.700135 0.143692
O O4 0.436815 0.780666 0.093085
O O5 0.750000 0.250000 0.500000
O O6 0.782274 0.333968 0.681296
O O7 0.000000 0.293952 0.750000
O O8 0.751215 0.872829 0.603406
O O9 0.925062 0.901773 0.902301
O O10 0.888612 0.641428 0.721501
O O11 0.830626 0.922824 0.449841
O O12 0.000000 0.956628 0.750000
O O13 0.000000 0.000000 0.500000
#
# Coordination Sequence:
#
# PCOD9265863 Si02
#       6
#     8   8   8   4   8   8
#     4  11  19  32  53  82 114 149 186 218 270 326
#     4  12  24  35  48  77 125 166 185 215 271 340
#     4  10  19  37  56  80 110 147 190 229 274 334
#     4  12  18  28  56  86 114 140 178 226 264 336
#     4   9  20  41  63  81 102 138 190 246 291 333
#     4  10  20  32  58  84 108 142 186 231 282 326
#
# _framework density 17.227692999999999
#
# number of rings (size 3 to 8) (size 9 to 14) (size 15 to 20)
#    0.000    1.455    5.455    2.727    0.000    0.000 
#    6.545    0.000    2.000    2.182    0.000    0.000 
#    0.000    0.000    0.000    0.000    0.000    0.000 
#
# Total GULP energy -122524.895235 kJ/mol
# GULP energy per Si atom -5569.313420 kJ/mol
# Density = 1.718848 g / cm^3
# Si number density = 17.227693 Si / 1000 Ang^3
#
#
#
# Elastic Constant Matrix: (Units=GPa)
#
#
# Indices 1 2 3 4 5 6 
#
# 1 126.7208 51.8593 22.9833 0.0000 10.1504 0.0000
# 2 51.8593 91.8971 11.7758 0.0000 -1.2045 0.0000
# 3 22.9833 11.7758 34.9381 0.0000 -8.0326 0.0000
# 4 0.0000 0.0000 0.0000 13.6877 0.0000 -10.1339
# 5 10.1504 -1.2045 -8.0326 0.0000 26.4625 0.0000
# 6 0.0000 0.0000 0.0000 -10.1339 0.0000 22.9345
#
#
#
# Elastic Compliance Matrix: (Units=1/GPa)
#
#
# Indices 1 2 3 4 5 6 
#
# 1 0.012391 -0.006090 -0.007799 0.000000 -0.007397 0.000000
# 2 -0.006090 0.014378 -0.000164 0.000000 0.002941 0.000000
# 3 -0.007799 -0.000164 0.037082 0.000000 0.014240 0.000000
# 4 0.000000 0.000000 0.000000 0.108579 0.000000 0.047977
# 5 -0.007397 0.002941 0.014240 0.000000 0.045083 0.000000
# 6 0.000000 0.000000 0.000000 0.047977 0.000000 0.064802
#
#
# Mechanical properties :
#
#
# Convention : Reuss Voigt Hill
#
# Bulk Modulus (GPa) = 27.97624 47.42145 37.69885
# Shear Modulus (GPa) = 15.51186 23.74613 19.62900
#
# Velocity S-wave (km/s) = 3.00393 3.71667 3.37914
# Velocity P-wave (km/s) = 5.32032 6.78264 6.09549
#
# Compressibility (1/GPa) = 0.03574462
#
# Stress axis : x y z
#
# Youngs Moduli (GPa) = 80.70619 69.55122 26.96747
#
# Poissons Ratio (x) = 0.42356 0.21032
# Poissons Ratio (y) = 0.49149 0.00442
# Poissons Ratio (z) = 0.62943 0.01140
#
# Static dielectric constant tensor:
#      x y z
#    x 1.643580 0.000000 0.009200 
#    y 0.000000 1.562700 0.000000 
#    z 0.009200 0.000000 1.636590 
# 
# From -- ./inp_files/34480.got.cif
#   From: 2010.05.17/outbox.cif.g08.bks.cpg/sg15_18_cif.got.tgz:34480.got - 2010.06.03 18:47:42.
