data_PCOD9265897
_publ_section_title
;
Structure prediction by ZEFSAII (Michael W. Deem and Ramdas Pophale) SiO2 
 PCOD9265897
Probable space group: C 2/C
;
_chemical_formula_sum "Si O2"
_cell_formula_units_Z 60
_cell_length_a 15.472323
_cell_length_b 14.757858
_cell_length_c 24.041146
_cell_angle_alpha 90.000000
_cell_angle_beta 35.022140
_cell_angle_gamma 90.000000
_cell_volume 3150.394122
_symmetry_space_group_name_H-M "C 2/C"
_symmetry_group_IT_number 15
_symmetry_cell_setting 'monoclinic'
loop_
_space_group_symop_operation_xyz
x,y,z
-x,y,1/2-z
-x,-y,-z
x,-y,1/2+z
1/2+x,1/2+y,z
1/2-x,1/2+y,1/2-z
1/2-x,1/2-y,-z
1/2+x,1/2-y,1/2+z
loop_
_atom_site_type_symbol
_atom_site_label
_atom_site_fract_x
_atom_site_fract_y
_atom_site_fract_z
Si Si1 0.702161 0.909888 0.381656
Si Si2 0.609594 0.401502 0.325193
Si Si3 0.810623 0.802890 0.102693
Si Si4 0.347874 0.983743 0.431926
Si Si5 0.849864 0.397936 0.548282
Si Si6 0.215807 0.842900 0.048616
Si Si7 0.470101 0.553050 0.458646
Si Si8 0.500000 0.910142 0.250000
O O1 0.765298 0.892377 0.287537
O O2 0.522964 0.900806 0.476148
O O3 0.771872 0.843870 0.391277
O O4 0.734954 0.013991 0.382538
O O5 0.640927 0.336421 0.361418
O O6 0.449758 0.374865 0.382410
O O7 0.593140 0.506974 0.353695
O O8 0.790387 0.697296 0.101703
O O9 0.650575 0.850790 0.175641
O O10 0.940027 0.843421 0.992724
O O11 0.349746 0.912064 0.481527
O O12 0.190262 0.974587 0.482565
O O13 0.477129 0.967995 0.318386
O O14 0.339205 0.082582 0.463949
O O15 0.250000 0.750000 0.000000
O O16 0.500000 0.500000 0.500000
#
# Coordination Sequence:
#
# PCOD9265897 Si02
#       8
#     8   8   8   8   8   8   8   4
#     4  10  21  38  57  81 119 150 190 241 298 345
#     4  10  19  37  57  83 114 145 194 240 283 341
#     4  10  20  37  58  84 117 150 196 237 283 359
#     4   9  19  36  55  79 115 153 181 235 293 339
#     4  10  21  38  57  80 117 160 182 235 306 346
#     4  10  20  37  61  82 113 151 190 236 294 350
#     4   8  17  33  56  78 111 150 180 234 287 327
#     4  10  20  36  54  86 116 146 194 236 280 342
#
# _framework density 19.045235999999999
#
# number of rings (size 3 to 8) (size 9 to 14) (size 15 to 20)
#    0.000    2.400    0.000    2.000    0.000    2.133 
#   14.400    0.000    0.000    0.000    0.000    0.000 
#    0.000    0.000    0.000    0.000    0.000    0.000 
#
# Total GULP energy -167118.149012 kJ/mol
# GULP energy per Si atom -5570.604967 kJ/mol
# Density = 1.900189 g / cm^3
# Si number density = 19.045236 Si / 1000 Ang^3
#
#
#
# Elastic Constant Matrix: (Units=GPa)
#
#
# Indices 1 2 3 4 5 6 
#
# 1 95.2387 6.4879 8.0860 -0.0001 11.2242 0.0000
# 2 6.4879 72.1631 26.7437 -0.0002 13.7716 0.0000
# 3 8.0860 26.7437 62.8011 -0.0006 23.4433 0.0002
# 4 -0.0001 -0.0002 -0.0006 19.7451 0.0002 1.7339
# 5 11.2242 13.7716 23.4433 0.0002 30.4264 0.0000
# 6 0.0000 0.0000 0.0002 1.7339 0.0000 21.1153
#
#
#
# Elastic Compliance Matrix: (Units=1/GPa)
#
#
# Indices 1 2 3 4 5 6 
#
# 1 0.010983 -0.000294 0.000244 0.000000 -0.004107 0.000000
# 2 -0.000294 0.016643 -0.006005 0.000000 -0.002797 0.000000
# 3 0.000244 -0.006005 0.024521 0.000001 -0.016265 0.000000
# 4 0.000000 0.000000 0.000001 0.051013 -0.000001 -0.004189
# 5 -0.004107 -0.002797 -0.016265 -0.000001 0.048179 0.000000
# 6 0.000000 0.000000 0.000000 -0.004189 0.000000 0.047703
#
#
# Mechanical properties :
#
#
# Convention : Reuss Voigt Hill
#
# Bulk Modulus (GPa) = 24.97719 34.75978 29.86848
# Shear Modulus (GPa) = 22.27174 26.84972 24.56073
#
# Velocity S-wave (km/s) = 3.42338 3.75879 3.59500
# Velocity P-wave (km/s) = 5.36369 6.09334 5.74012
#
# Compressibility (1/GPa) = 0.04003653
#
# Stress axis : x y z
#
# Youngs Moduli (GPa) = 91.04796 60.08381 40.78161
#
# Poissons Ratio (x) = 0.01768 -0.00996
# Poissons Ratio (y) = 0.02679 0.24491
# Poissons Ratio (z) = -0.02223 0.36083
#
# Static dielectric constant tensor:
#      x y z
#    x 1.672760 0.000000 0.024660 
#    y 0.000000 1.674400 0.000000 
#    z 0.024660 0.000000 1.672520 
# 
# From -- ./inp_files/277549.got.cif
#   From: 2010.05.17/outbox.cif.g08.bks.cpg/sg15_139_cif.got.tgz:277549.got - 2010.06.03 18:47:42.
