data_PCOD9265070
_publ_section_title
;
Structure prediction by ZEFSAII (Michael W. Deem and Ramdas Pophale) SiO2 
 PCOD9265070
Probable space group: C 2/C
;
_chemical_formula_sum "Si O2"
_cell_formula_units_Z 56
_cell_length_a 21.582044
_cell_length_b 10.939207
_cell_length_c 18.346671
_cell_angle_alpha 90.000000
_cell_angle_beta 142.685441
_cell_angle_gamma 90.000000
_cell_volume 2625.698295
_symmetry_space_group_name_H-M "C 2/C"
_symmetry_group_IT_number 15
_symmetry_cell_setting 'monoclinic'
loop_
_space_group_symop_operation_xyz
x,y,z
-x,y,1/2-z
-x,-y,-z
x,-y,1/2+z
1/2+x,1/2+y,z
1/2-x,1/2+y,1/2-z
1/2-x,1/2-y,-z
1/2+x,1/2-y,1/2+z
loop_
_atom_site_type_symbol
_atom_site_label
_atom_site_fract_x
_atom_site_fract_y
_atom_site_fract_z
Si Si1 0.656869 0.846677 0.409905
Si Si2 0.768149 0.082780 0.580131
Si Si3 0.722890 0.063738 0.830941
Si Si4 0.241832 0.537973 0.200670
Si Si5 0.554956 0.630726 0.041591
Si Si6 0.404050 0.761368 0.003735
Si Si7 0.343610 0.659759 0.509056
O O1 0.750000 0.750000 0.500000
O O2 0.642496 0.876214 0.311197
O O3 0.577014 0.792695 0.393327
O O4 0.700024 0.973086 0.483516
O O5 0.701567 0.205053 0.525716
O O6 0.856894 0.109661 0.604014
O O7 0.794830 0.039854 0.686161
O O8 0.824550 0.147510 0.928087
O O9 0.695179 0.045044 0.721100
O O10 0.757822 0.932342 0.895622
O O11 0.331018 0.617983 0.320136
O O12 0.156746 0.624845 0.087201
O O13 0.566373 0.658870 0.966217
O O14 0.500000 0.500000 0.000000
O O15 0.495150 0.725604 0.035879
#
# Coordination Sequence:
#
# PCOD9265070 Si02
#       7
#     8   8   8   8   8   8   8
#     4   8  16  32  56  80 110 156 191 234 293 354
#     4   9  18  34  56  88 114 150 202 237 296 362
#     4   9  17  31  58  80 112 149 190 239 295 341
#     4  10  21  33  60  88 115 152 200 247 286 357
#     4  11  21  36  59  87 119 152 194 250 302 342
#     4  10  19  36  57  86 115 153 197 240 294 356
#     4   9  18  33  58  84 118 157 185 248 303 346
#
# _framework density 21.327660000000002
#
# number of rings (size 3 to 8) (size 9 to 14) (size 15 to 20)
#    0.000    2.571    2.857    0.000    4.000    0.000 
#    0.000    3.571    0.000    0.000    7.429    0.000 
#    0.000    0.000    0.000    0.000    0.000    0.000 
#
# Total GULP energy -156047.624507 kJ/mol
# GULP energy per Si atom -5573.129447 kJ/mol
# Density = 2.127912 g / cm^3
# Si number density = 21.327660 Si / 1000 Ang^3
#
#
#
# Elastic Constant Matrix: (Units=GPa)
#
#
# Indices 1 2 3 4 5 6 
#
# 1 241.1779 72.0295 46.3608 0.0000 -24.6581 0.0000
# 2 72.0295 93.1633 7.4415 0.0000 -5.9848 0.0000
# 3 46.3608 7.4415 29.3420 0.0000 -7.7813 0.0000
# 4 0.0000 0.0000 0.0000 11.8797 0.0000 -2.5808
# 5 -24.6581 -5.9848 -7.7813 0.0000 31.2895 0.0000
# 6 0.0000 0.0000 0.0000 -2.5808 0.0000 48.7441
#
#
#
# Elastic Compliance Matrix: (Units=1/GPa)
#
#
# Indices 1 2 3 4 5 6 
#
# 1 0.008008 -0.005170 -0.010631 0.000000 0.002678 0.000000
# 2 -0.005170 0.014360 0.004469 0.000000 -0.000216 0.000000
# 3 -0.010631 0.004469 0.051121 0.000000 0.005190 0.000000
# 4 0.000000 0.000000 0.000000 0.085157 0.000000 0.004509
# 5 0.002678 -0.000216 0.005190 0.000000 0.035319 0.000000
# 6 0.000000 0.000000 0.000000 0.004509 0.000000 0.020754
#
#
# Mechanical properties :
#
#
# Convention : Reuss Voigt Hill
#
# Bulk Modulus (GPa) = 19.67513 68.37187 44.02350
# Shear Modulus (GPa) = 19.65999 34.23943 26.94971
#
# Velocity S-wave (km/s) = 3.03942 4.01109 3.55858
# Velocity P-wave (km/s) = 4.64356 7.31978 6.12951
#
# Compressibility (1/GPa) = 0.05082557
#
# Stress axis : x y z
#
# Youngs Moduli (GPa) = 124.87953 69.63704 19.56155
#
# Poissons Ratio (x) = 0.36002 0.20796
# Poissons Ratio (y) = 0.64563 -0.08743
# Poissons Ratio (z) = 1.32759 -0.31124
#
# Static dielectric constant tensor:
#      x y z
#    x 1.864290 0.000000 -0.046390 
#    y 0.000000 1.762900 0.000000 
#    z -0.046390 0.000000 1.794950 
# 
# From -- ./inp_files/252436.got.cif
#   From: 2010.05.17/outbox.cif.g08.bks.cpg/sg15_127_cif.got.tgz:252436.got - 2010.06.03 18:47:42.
