data_PCOD9265854
_publ_section_title
;
Structure prediction by ZEFSAII (Michael W. Deem and Ramdas Pophale) SiO2 
 PCOD9265854
Probable space group: C 2/C
;
_chemical_formula_sum "Si O2"
_cell_formula_units_Z 52
_cell_length_a 9.413387
_cell_length_b 10.201028
_cell_length_c 27.856360
_cell_angle_alpha 90.000000
_cell_angle_beta 57.980698
_cell_angle_gamma 90.000000
_cell_volume 2268.001024
_symmetry_space_group_name_H-M "C 2/C"
_symmetry_group_IT_number 15
_symmetry_cell_setting 'monoclinic'
loop_
_space_group_symop_operation_xyz
x,y,z
-x,y,1/2-z
-x,-y,-z
x,-y,1/2+z
1/2+x,1/2+y,z
1/2-x,1/2+y,1/2-z
1/2-x,1/2-y,-z
1/2+x,1/2-y,1/2+z
loop_
_atom_site_type_symbol
_atom_site_label
_atom_site_fract_x
_atom_site_fract_y
_atom_site_fract_z
Si Si1 0.847674 0.219217 0.810961
Si Si2 0.999462 0.773512 0.487671
Si Si3 0.250000 0.250000 0.000000
Si Si4 0.720050 0.496245 0.427626
Si Si5 0.022373 0.896027 0.881287
Si Si6 0.357262 0.421367 0.809668
Si Si7 0.002978 0.319285 0.619245
O O1 0.674432 0.297989 0.840767
O O2 0.000000 0.271355 0.750000
O O3 0.912119 0.233237 0.854420
O O4 0.817884 0.069790 0.800734
O O5 0.067554 0.667979 0.512087
O O6 0.964985 0.727498 0.440790
O O7 0.867286 0.882316 0.528311
O O8 0.180954 0.857610 0.459667
O O9 0.379065 0.337830 0.940730
O O10 0.619394 0.493830 0.395594
O O11 0.909410 0.538361 0.389349
O O12 0.933777 0.935418 0.848604
O O13 0.500000 0.365052 0.750000
O O14 0.193624 0.333322 0.838867
#
# Coordination Sequence:
#
# PCOD9265854 Si02
#       7
#     8   8   4   8   8   8   8
#     4  10  23  41  60  85 119 156 199 252 299 349
#     4  10  19  37  55  83 119 149 192 236 288 348
#     4  10  20  34  58  86 120 154 186 242 298 352
#     4   9  21  35  59  81 115 155 190 236 288 352
#     4  10  20  40  58  84 121 155 192 248 301 349
#     4  11  23  38  60  88 116 154 203 249 297 355
#     4  11  21  37  61  84 111 154 197 237 292 353
#
# _framework density 22.927676999999999
#
# number of rings (size 3 to 8) (size 9 to 14) (size 15 to 20)
#    0.000    1.846    1.538    2.308    2.154    0.000 
#    0.000    1.538    0.000    6.462    0.000    0.000 
#    0.000    0.000    0.000    0.000    0.000    0.000 
#
# Total GULP energy -144844.940558 kJ/mol
# GULP energy per Si atom -5570.959252 kJ/mol
# Density = 2.287549 g / cm^3
# Si number density = 22.927677 Si / 1000 Ang^3
#
#
#
# Elastic Constant Matrix: (Units=GPa)
#
#
# Indices 1 2 3 4 5 6 
#
# 1 87.5974 22.0697 6.8062 0.0000 -11.9606 0.0000
# 2 22.0697 25.6280 -4.7180 0.0000 -13.2351 0.0000
# 3 6.8062 -4.7180 53.3140 0.0000 1.0946 0.0000
# 4 0.0000 0.0000 0.0000 24.1588 0.0000 -2.4860
# 5 -11.9606 -13.2351 1.0946 0.0000 31.0901 0.0000
# 6 0.0000 0.0000 0.0000 -2.4860 0.0000 21.2771
#
#
#
# Elastic Compliance Matrix: (Units=1/GPa)
#
#
# Indices 1 2 3 4 5 6 
#
# 1 0.015075 -0.013464 -0.003120 0.000000 0.000177 0.000000
# 2 -0.013464 0.062905 0.006847 0.000000 0.021358 0.000000
# 3 -0.003120 0.006847 0.019740 0.000000 0.001020 0.000000
# 4 0.000000 0.000000 0.000000 0.041897 0.000000 0.004895
# 5 0.000177 0.021358 0.001020 0.000000 0.041289 0.000000
# 6 0.000000 0.000000 0.000000 0.004895 0.000000 0.047571
#
#
# Mechanical properties :
#
#
# Convention : Reuss Voigt Hill
#
# Bulk Modulus (GPa) = 12.78020 23.87279 18.32649
# Shear Modulus (GPa) = 18.24606 24.79730 21.52168
#
# Velocity S-wave (km/s) = 2.82407 3.29225 3.06711
# Velocity P-wave (km/s) = 4.02741 4.98866 4.53358
#
# Compressibility (1/GPa) = 0.07824604
#
# Stress axis : x y z
#
# Youngs Moduli (GPa) = 66.33610 15.89700 50.65841
#
# Poissons Ratio (x) = 0.21404 0.15804
# Poissons Ratio (y) = 0.89317 -0.34686
# Poissons Ratio (z) = 0.20694 -0.10885
#
# Static dielectric constant tensor:
#      x y z
#    x 2.004000 0.000000 0.064080 
#    y 0.000000 1.935010 0.000000 
#    z 0.064080 0.000000 1.926350 
# 
# From -- ./inp_files/287750.got.cif
#   From: 2010.05.17/outbox.cif.g08.bks.cpg/sg15_144_cif.got.tgz:287750.got - 2010.06.03 18:47:42.
