data_PCOD9265370
_publ_section_title
;
Structure prediction by ZEFSAII (Michael W. Deem and Ramdas Pophale) SiO2 
 PCOD9265370
Probable space group: C 2/C
;
_chemical_formula_sum "Si O2"
_cell_formula_units_Z 56
_cell_length_a 20.564784
_cell_length_b 9.129038
_cell_length_c 16.933452
_cell_angle_alpha 90.000000
_cell_angle_beta 54.910026
_cell_angle_gamma 90.000000
_cell_volume 2601.242576
_symmetry_space_group_name_H-M "C 2/C"
_symmetry_group_IT_number 15
_symmetry_cell_setting 'monoclinic'
loop_
_space_group_symop_operation_xyz
x,y,z
-x,y,1/2-z
-x,-y,-z
x,-y,1/2+z
1/2+x,1/2+y,z
1/2-x,1/2+y,1/2-z
1/2-x,1/2-y,-z
1/2+x,1/2-y,1/2+z
loop_
_atom_site_type_symbol
_atom_site_label
_atom_site_fract_x
_atom_site_fract_y
_atom_site_fract_z
Si Si1 0.889387 0.414418 0.055149
Si Si2 0.694535 0.663330 0.303156
Si Si3 0.042971 0.331384 0.878121
Si Si4 0.686276 0.459355 0.026655
Si Si5 0.123292 0.106232 0.931861
Si Si6 0.174098 0.289611 0.664794
Si Si7 0.236430 0.362526 0.906997
O O1 0.872078 0.269057 0.116290
O O2 0.921583 0.535894 0.093365
O O3 0.809523 0.483945 0.076452
O O4 0.950119 0.371591 0.943545
O O5 0.677267 0.496822 0.338982
O O6 0.775178 0.719935 0.288615
O O7 0.701603 0.670006 0.205348
O O8 0.058835 0.183943 0.919953
O O9 0.088612 0.329113 0.762716
O O10 0.663718 0.345571 0.111656
O O11 0.716309 0.607153 0.047149
O O12 0.616131 0.497896 0.013365
O O13 0.764218 0.396242 0.925763
O O14 0.170225 0.241035 0.938050
#
# Coordination Sequence:
#
# PCOD9265370 Si02
#       7
#     8   8   8   8   8   8   8
#     4  10  21  36  62  90 117 154 205 257 299 361
#     4  11  19  34  63  88 113 154 208 254 294 361
#     4  10  21  39  60  88 121 159 206 247 306 371
#     4  10  21  33  57  92 123 152 197 259 304 348
#     4  10  21  33  55  86 119 155 195 249 302 356
#     4  10  19  36  60  87 118 156 204 251 299 369
#     4  11  19  35  58  90 118 152 201 258 300 356
#
# _framework density 21.528172000000001
#
# number of rings (size 3 to 8) (size 9 to 14) (size 15 to 20)
#    0.000    1.714    4.286    2.143    2.000    0.571 
#    0.000    0.714    0.000    4.286    3.714    0.000 
#    0.000    0.000    0.000    0.000    0.000    0.000 
#
# Total GULP energy -155918.622803 kJ/mol
# GULP energy per Si atom -5568.522243 kJ/mol
# Density = 2.147917 g / cm^3
# Si number density = 21.528172 Si / 1000 Ang^3
#
#
#
# Elastic Constant Matrix: (Units=GPa)
#
#
# Indices 1 2 3 4 5 6 
#
# 1 15.3638 13.5689 10.9549 0.0000 3.4925 0.0000
# 2 13.5689 92.9736 32.7874 0.0000 2.4567 0.0000
# 3 10.9549 32.7874 125.0442 0.0000 -12.6745 0.0000
# 4 0.0000 0.0000 0.0000 30.0279 0.0000 3.2277
# 5 3.4925 2.4567 -12.6745 0.0000 26.6955 0.0000
# 6 0.0000 0.0000 0.0000 3.2277 0.0000 18.9954
#
#
#
# Elastic Compliance Matrix: (Units=1/GPa)
#
#
# Indices 1 2 3 4 5 6 
#
# 1 0.080326 -0.009332 -0.005850 0.000000 -0.012428 0.000000
# 2 -0.009332 0.013123 -0.002755 0.000000 -0.001295 0.000000
# 3 -0.005850 -0.002755 0.009807 0.000000 0.005675 0.000000
# 4 0.000000 0.000000 0.000000 0.033922 0.000000 -0.005764
# 5 -0.012428 -0.001295 0.005675 0.000000 0.041899 0.000000
# 6 0.000000 0.000000 0.000000 -0.005764 0.000000 0.053624
#
#
# Mechanical properties :
#
#
# Convention : Reuss Voigt Hill
#
# Bulk Modulus (GPa) = 14.84041 38.66709 26.75375
# Shear Modulus (GPa) = 17.18007 26.88178 22.03093
#
# Velocity S-wave (km/s) = 2.82800 3.53750 3.20246
# Velocity P-wave (km/s) = 4.19189 5.88943 5.11162
#
# Compressibility (1/GPa) = 0.06738358
#
# Stress axis : x y z
#
# Youngs Moduli (GPa) = 12.44930 76.20033 101.96559
#
# Poissons Ratio (x) = 0.71107 0.59650
# Poissons Ratio (y) = 0.11617 0.28089
# Poissons Ratio (z) = 0.07283 0.20991
#
# Static dielectric constant tensor:
#      x y z
#    x 1.855620 0.000000 -0.000260 
#    y 0.000000 1.827530 0.000000 
#    z -0.000260 0.000000 1.780580 
# 
# From -- ./inp_files/218510.got.cif
#   From: 2010.05.17/outbox.cif.g08.bks.cpg/sg15_110_cif.got.tgz:218510.got - 2010.06.03 18:47:42.
