data_PCOD9265686
_publ_section_title
;
Structure prediction by ZEFSAII (Michael W. Deem and Ramdas Pophale) SiO2 
 PCOD9265686
Probable space group: C 2/C
;
_chemical_formula_sum "Si O2"
_cell_formula_units_Z 60
_cell_length_a 5.762158
_cell_length_b 20.621592
_cell_length_c 25.068828
_cell_angle_alpha 90.000000
_cell_angle_beta 113.631362
_cell_angle_gamma 90.000000
_cell_volume 2729.008358
_symmetry_space_group_name_H-M "C 2/C"
_symmetry_group_IT_number 15
_symmetry_cell_setting 'monoclinic'
loop_
_space_group_symop_operation_xyz
x,y,z
-x,y,1/2-z
-x,-y,-z
x,-y,1/2+z
1/2+x,1/2+y,z
1/2-x,1/2+y,1/2-z
1/2-x,1/2-y,-z
1/2+x,1/2-y,1/2+z
loop_
_atom_site_type_symbol
_atom_site_label
_atom_site_fract_x
_atom_site_fract_y
_atom_site_fract_z
Si Si1 0.402411 0.046498 0.682710
Si Si2 0.000000 0.107698 0.250000
Si Si3 0.456824 0.187737 0.325619
Si Si4 0.750752 0.309972 0.459112
Si Si5 0.273526 0.688040 0.845435
Si Si6 0.023922 0.220511 0.109309
Si Si7 0.118847 0.376778 0.563511
Si Si8 0.344064 0.509552 0.144283
O O1 0.500000 0.022595 0.750000
O O2 0.373001 0.124142 0.683244
O O3 0.616756 0.027011 0.657565
O O4 0.104412 0.025293 0.648486
O O5 0.748317 0.151028 0.227449
O O6 0.956849 0.061668 0.195912
O O7 0.419247 0.265783 0.316918
O O8 0.436325 0.159056 0.384723
O O9 0.752363 0.177758 0.345725
O O10 0.750000 0.250000 0.500000
O O11 0.476921 0.327124 0.410763
O O12 0.897595 0.277691 0.423339
O O13 0.888575 0.368476 0.501701
O O14 0.089503 0.741827 0.851768
O O15 0.839721 0.170593 0.062452
O O16 0.210471 0.448599 0.585480
#
# Coordination Sequence:
#
# PCOD9265686 Si02
#       8
#     8   4   8   8   8   8   8   8
#     4  12  26  49  69  90 127 183 227 270 322 393
#     4  10  20  42  62  98 124 162 214 278 336 382
#     4   9  20  36  60  94 132 154 204 271 335 383
#     4  11  19  37  62  98 136 167 207 262 345 401
#     4  10  24  39  62  95 130 168 218 261 327 404
#     4  10  19  36  63  96 131 168 206 266 333 396
#     4  10  21  36  63  98 126 166 213 272 323 395
#     4  11  26  45  70  93 126 176 232 271 327 384
#
# _framework density 21.986006
#
# number of rings (size 3 to 8) (size 9 to 14) (size 15 to 20)
#    0.000    1.600    5.333    0.400    8.400    0.000 
#    2.400    1.333    0.000    0.000    0.000    0.000 
#    0.000    0.000    0.000    0.000    0.000    0.000 
#
# Total GULP energy -167121.630701 kJ/mol
# GULP energy per Si atom -5570.721023 kJ/mol
# Density = 2.193597 g / cm^3
# Si number density = 21.986006 Si / 1000 Ang^3
#
#
#
# Elastic Constant Matrix: (Units=GPa)
#
#
# Indices 1 2 3 4 5 6 
#
# 1 86.8757 20.0836 15.1604 0.0000 24.0908 0.0000
# 2 20.0836 75.8728 5.6400 0.0000 18.5954 0.0000
# 3 15.1604 5.6400 57.3646 0.0000 20.0146 0.0000
# 4 0.0000 0.0000 0.0000 31.3968 0.0000 11.8764
# 5 24.0908 18.5954 20.0146 0.0000 31.9385 0.0000
# 6 0.0000 0.0000 0.0000 11.8764 0.0000 9.1111
#
#
#
# Elastic Compliance Matrix: (Units=1/GPa)
#
#
# Indices 1 2 3 4 5 6 
#
# 1 0.014678 -0.001386 -0.000207 0.000000 -0.010135 0.000000
# 2 -0.001386 0.015698 0.002108 0.000000 -0.009415 0.000000
# 3 -0.000207 0.002108 0.022593 0.000000 -0.015230 0.000000
# 4 0.000000 0.000000 0.000000 0.062831 0.000000 -0.081900
# 5 -0.010135 -0.009415 -0.015230 0.000000 0.053980 0.000000
# 6 0.000000 0.000000 0.000000 -0.081900 0.000000 0.216515
#
#
# Mechanical properties :
#
#
# Convention : Reuss Voigt Hill
#
# Bulk Modulus (GPa) = 18.51890 33.54235 26.03063
# Shear Modulus (GPa) = 12.39884 26.43788 19.41836
#
# Velocity S-wave (km/s) = 2.37732 3.47145 2.97512
# Velocity P-wave (km/s) = 3.99711 5.59976 4.86488
#
# Compressibility (1/GPa) = 0.05399890
#
# Stress axis : x y z
#
# Youngs Moduli (GPa) = 68.13145 63.70386 44.26068
#
# Poissons Ratio (x) = 0.08829 0.00915
# Poissons Ratio (y) = 0.09443 -0.09330
# Poissons Ratio (z) = 0.01409 -0.13428
#
# Static dielectric constant tensor:
#      x y z
#    x 2.102040 0.000000 -0.058700 
#    y 0.000000 1.892420 0.000000 
#    z -0.058700 0.000000 1.826770 
# 
# From -- ./inp_files/306011.got.cif
#   From: 2010.05.17/outbox.cif.g08.bks.cpg/sg15_154_cif.got.tgz:306011.got - 2010.06.03 18:47:42.
