data_PCOD9265550
_publ_section_title
;
Structure prediction by ZEFSAII (Michael W. Deem and Ramdas Pophale) SiO2 
 PCOD9265550
Probable space group: C 2/C
;
_chemical_formula_sum "Si O2"
_cell_formula_units_Z 60
_cell_length_a 30.360042
_cell_length_b 12.736811
_cell_length_c 17.068784
_cell_angle_alpha 90.000000
_cell_angle_beta 151.806195
_cell_angle_gamma 90.000000
_cell_volume 3118.362069
_symmetry_space_group_name_H-M "C 2/C"
_symmetry_group_IT_number 15
_symmetry_cell_setting 'monoclinic'
loop_
_space_group_symop_operation_xyz
x,y,z
-x,y,1/2-z
-x,-y,-z
x,-y,1/2+z
1/2+x,1/2+y,z
1/2-x,1/2+y,1/2-z
1/2-x,1/2-y,-z
1/2+x,1/2-y,1/2+z
loop_
_atom_site_type_symbol
_atom_site_label
_atom_site_fract_x
_atom_site_fract_y
_atom_site_fract_z
Si Si1 0.127272 0.663864 0.029902
Si Si2 0.660008 0.394632 0.891360
Si Si3 0.658457 0.245525 0.250563
Si Si4 0.963539 0.475506 0.320226
Si Si5 0.775980 0.415587 0.512093
Si Si6 0.788979 0.775601 0.680575
Si Si7 0.500000 0.660961 0.250000
Si Si8 0.537248 0.171921 0.534878
O O1 0.163543 0.689621 0.174076
O O2 0.216797 0.653584 0.114872
O O3 0.051575 0.570721 0.911534
O O4 0.068586 0.763548 0.906700
O O5 0.656848 0.338229 0.802139
O O6 0.564305 0.400620 0.789323
O O7 0.706940 0.505153 0.947766
O O8 0.728384 0.317855 0.047398
O O9 0.719883 0.350127 0.358295
O O10 0.691285 0.166765 0.370359
O O11 0.546906 0.254463 0.088527
O O12 0.868035 0.517588 0.132207
O O13 0.939847 0.380741 0.344217
O O14 0.001588 0.574113 0.428654
O O15 0.870919 0.721796 0.857897
#
# Coordination Sequence:
#
# PCOD9265550 Si02
#       8
#     8   8   8   8   8   8   4   8
#     4  10  21  36  55  88 121 155 194 254 293 349
#     4  10  20  35  57  83 111 155 194 242 300 353
#     4   9  20  37  59  85 122 151 196 251 304 348
#     4   9  17  31  60  82 109 149 204 236 289 346
#     4  10  19  36  62  86 114 162 198 245 296 361
#     4  10  20  34  56  83 120 149 194 248 298 346
#     4  10  22  38  58  84 118 148 194 254 294 356
#     4   9  16  33  56  82 107 154 192 243 292 359
#
# _framework density 19.240870999999999
#
# number of rings (size 3 to 8) (size 9 to 14) (size 15 to 20)
#    0.000    2.400    1.333    2.400    3.733    0.000 
#    2.400    4.000    0.000    1.600    0.000    0.000 
#    0.000    0.000    0.000    0.000    0.000    0.000 
#
# Total GULP energy -167178.820584 kJ/mol
# GULP energy per Si atom -5572.627353 kJ/mol
# Density = 1.919708 g / cm^3
# Si number density = 19.240871 Si / 1000 Ang^3
#
#
#
# Elastic Constant Matrix: (Units=GPa)
#
#
# Indices 1 2 3 4 5 6 
#
# 1 92.5149 34.7670 51.6115 0.0000 28.6293 0.0000
# 2 34.7670 54.2024 45.7097 0.0000 21.9822 0.0000
# 3 51.6115 45.7097 103.0243 0.0000 19.7549 0.0000
# 4 0.0000 0.0000 0.0000 27.6484 0.0000 9.9033
# 5 28.6293 21.9822 19.7549 0.0000 38.4346 0.0000
# 6 0.0000 0.0000 0.0000 9.9033 0.0000 19.9724
#
#
#
# Elastic Compliance Matrix: (Units=1/GPa)
#
#
# Indices 1 2 3 4 5 6 
#
# 1 0.017934 -0.002932 -0.006039 0.000000 -0.008578 0.000000
# 2 -0.002932 0.035106 -0.011843 0.000000 -0.011807 0.000000
# 3 -0.006039 -0.011843 0.017555 0.000000 0.002249 0.000000
# 4 0.000000 0.000000 0.000000 0.043980 0.000000 -0.021807
# 5 -0.008578 -0.011807 0.002249 0.000000 0.038005 0.000000
# 6 0.000000 0.000000 0.000000 -0.021807 0.000000 0.060882
#
#
# Mechanical properties :
#
#
# Convention : Reuss Voigt Hill
#
# Bulk Modulus (GPa) = 34.52101 57.10201 45.81151
# Shear Modulus (GPa) = 18.88607 25.05463 21.97035
#
# Velocity S-wave (km/s) = 3.13639 3.61246 3.38281
# Velocity P-wave (km/s) = 5.57641 6.86598 6.25452
#
# Compressibility (1/GPa) = 0.02896787
#
# Stress axis : x y z
#
# Youngs Moduli (GPa) = 55.75887 28.48525 56.96435
#
# Poissons Ratio (x) = 0.08352 0.34399
# Poissons Ratio (y) = 0.16349 0.67462
# Poissons Ratio (z) = 0.33671 0.33734
#
# Static dielectric constant tensor:
#      x y z
#    x 1.701030 0.000000 -0.000410 
#    y 0.000000 1.670660 0.000000 
#    z -0.000410 0.000000 1.710840 
# 
# From -- ./inp_files/225028.got.cif
#   From: 2010.05.17/outbox.cif.g08.bks.cpg/sg15_113_cif.got.tgz:225028.got - 2010.06.03 18:47:42.
