data_PCOD9265843
_publ_section_title
;
Structure prediction by ZEFSAII (Michael W. Deem and Ramdas Pophale) SiO2 
 PCOD9265843
Probable space group: C 2/C
;
_chemical_formula_sum "Si O2"
_cell_formula_units_Z 56
_cell_length_a 26.079534
_cell_length_b 13.921003
_cell_length_c 11.950594
_cell_angle_alpha 90.000000
_cell_angle_beta 37.225212
_cell_angle_gamma 90.000000
_cell_volume 2624.695992
_symmetry_space_group_name_H-M "C 2/C"
_symmetry_group_IT_number 15
_symmetry_cell_setting 'monoclinic'
loop_
_space_group_symop_operation_xyz
x,y,z
-x,y,1/2-z
-x,-y,-z
x,-y,1/2+z
1/2+x,1/2+y,z
1/2-x,1/2+y,1/2-z
1/2-x,1/2-y,-z
1/2+x,1/2-y,1/2+z
loop_
_atom_site_type_symbol
_atom_site_label
_atom_site_fract_x
_atom_site_fract_y
_atom_site_fract_z
Si Si1 0.600784 0.912389 0.737761
Si Si2 0.814939 0.869591 0.640328
Si Si3 0.616718 0.829887 0.476466
Si Si4 0.959545 0.380176 0.124215
Si Si5 0.819430 0.257807 0.481706
Si Si6 0.810497 0.904862 0.162266
Si Si7 0.214793 0.856919 0.061615
O O1 0.582910 0.846935 0.660407
O O2 0.701557 0.923588 0.576840
O O3 0.561211 0.016882 0.787322
O O4 0.558851 0.870010 0.923890
O O5 0.878314 0.783003 0.563273
O O6 0.727024 0.827437 0.845974
O O7 0.823693 0.871049 0.491498
O O8 0.823486 0.981507 0.651595
O O9 0.576478 0.881303 0.440378
O O10 0.710953 0.875499 0.324843
O O11 0.905392 0.303637 0.285692
O O12 0.750000 0.250000 0.500000
O O13 0.842504 0.156336 0.500649
O O14 0.839845 0.866647 0.232196
O O15 0.250000 0.750000 0.000000
#
# Coordination Sequence:
#
# PCOD9265843 Si02
#       7
#     8   8   8   8   8   8   8
#     4  10  22  35  56  86 113 154 183 226 291 350
#     4  11  21  34  59  84 113 149 192 241 286 331
#     4  10  19  37  54  81 115 148 190 234 281 344
#     4  11  21  36  56  84 122 146 185 230 290 354
#     4  11  20  35  54  85 119 148 189 242 286 331
#     4  10  21  32  57  88 108 148 191 240 289 330
#     4  11  19  38  55  80 115 148 189 231 276 338
#
# _framework density 21.335804
#
# number of rings (size 3 to 8) (size 9 to 14) (size 15 to 20)
#    0.000    1.429    7.143    3.000    2.000    0.000 
#    0.000    2.143    0.000    0.857    3.714    0.000 
#    0.000    0.000    0.000    0.000    0.000    0.000 
#
# Total GULP energy -155968.390085 kJ/mol
# GULP energy per Si atom -5570.299646 kJ/mol
# Density = 2.128724 g / cm^3
# Si number density = 21.335804 Si / 1000 Ang^3
#
#
#
# Elastic Constant Matrix: (Units=GPa)
#
#
# Indices 1 2 3 4 5 6 
#
# 1 32.7385 5.1765 -4.8464 0.0000 17.1614 0.0000
# 2 5.1765 150.9795 34.2905 0.0000 15.9593 0.0000
# 3 -4.8464 34.2905 80.0298 0.0000 8.1191 0.0000
# 4 0.0000 0.0000 0.0000 39.0531 0.0000 5.1191
# 5 17.1614 15.9593 8.1191 0.0000 23.7879 0.0000
# 6 0.0000 0.0000 0.0000 5.1191 0.0000 18.4790
#
#
#
# Elastic Compliance Matrix: (Units=1/GPa)
#
#
# Indices 1 2 3 4 5 6 
#
# 1 0.053100 0.000960 0.006998 0.000000 -0.041341 0.000000
# 2 0.000960 0.007739 -0.002756 0.000000 -0.004944 0.000000
# 3 0.006998 -0.002756 0.014942 0.000000 -0.008300 0.000000
# 4 0.000000 0.000000 0.000000 0.026571 0.000000 -0.007361
# 5 -0.041341 -0.004944 -0.008300 0.000000 0.078012 0.000000
# 6 0.000000 0.000000 0.000000 -0.007361 0.000000 0.056154
#
#
# Mechanical properties :
#
#
# Convention : Reuss Voigt Hill
#
# Bulk Modulus (GPa) = 11.60291 36.99878 24.30084
# Shear Modulus (GPa) = 19.61987 31.53916 25.57952
#
# Velocity S-wave (km/s) = 3.03574 3.84894 3.46627
# Velocity P-wave (km/s) = 4.21161 6.09355 5.23779
#
# Compressibility (1/GPa) = 0.08618529
#
# Stress axis : x y z
#
# Youngs Moduli (GPa) = 18.83237 129.21388 66.92469
#
# Poissons Ratio (x) = -0.12402 -0.46837
# Poissons Ratio (y) = -0.01808 0.18446
# Poissons Ratio (z) = -0.13180 0.35615
#
# Static dielectric constant tensor:
#      x y z
#    x 25.015130 0.000000 5.669370 
#    y 0.000000 1.795090 0.000000 
#    z 5.669370 0.000000 3.293200 
# 
# From -- ./inp_files/126725.got.cif
#   From: 2010.05.17/outbox.cif.g08.bks.cpg/sg15_64_cif.got.tgz:126725.got - 2010.06.03 18:47:42.
