data_PCOD9265446
_publ_section_title
;
Structure prediction by ZEFSAII (Michael W. Deem and Ramdas Pophale) SiO2 
 PCOD9265446
Probable space group: C 2/C
;
_chemical_formula_sum "Si O2"
_cell_formula_units_Z 40
_cell_length_a 11.678303
_cell_length_b 23.138730
_cell_length_c 9.234419
_cell_angle_alpha 90.000000
_cell_angle_beta 56.034898
_cell_angle_gamma 90.000000
_cell_volume 2069.575872
_symmetry_space_group_name_H-M "C 2/C"
_symmetry_group_IT_number 15
_symmetry_cell_setting 'monoclinic'
loop_
_space_group_symop_operation_xyz
x,y,z
-x,y,1/2-z
-x,-y,-z
x,-y,1/2+z
1/2+x,1/2+y,z
1/2-x,1/2+y,1/2-z
1/2-x,1/2-y,-z
1/2+x,1/2-y,1/2+z
loop_
_atom_site_type_symbol
_atom_site_label
_atom_site_fract_x
_atom_site_fract_y
_atom_site_fract_z
Si Si1 0.130615 0.514733 0.045581
Si Si2 0.922046 0.952915 0.459136
Si Si3 0.510227 0.096892 0.571972
Si Si4 0.882957 0.827044 0.455553
Si Si5 0.414887 0.800270 0.958006
O O1 0.133285 0.450027 0.977723
O O2 0.000000 0.519545 0.250000
O O3 0.267385 0.527214 0.035407
O O4 0.106701 0.559218 0.930363
O O5 0.909267 0.886447 0.522719
O O6 0.000000 0.950413 0.250000
O O7 0.000000 0.000000 0.500000
O O8 0.500000 0.106849 0.750000
O O9 0.501729 0.157893 0.499792
O O10 0.734326 0.826564 0.480017
O O11 0.891824 0.765199 0.529731
O O12 0.000000 0.825444 0.250000
O O13 0.500000 0.797244 0.750000
#
# Coordination Sequence:
#
# PCOD9265446 Si02
#       5
#     8   8   8   8   8
#     4  10  22  38  59  88 116 152 201 237 282 349
#     4  11  25  39  59  86 123 157 188 236 296 352
#     4  10  21  33  60  89 119 142 189 251 293 322
#     4   9  20  36  58  81 115 151 194 228 285 347
#     4  10  19  36  61  86 106 149 200 240 273 341
#
# _framework density 19.327632000000001
#
# number of rings (size 3 to 8) (size 9 to 14) (size 15 to 20)
#    0.000    2.000    2.000    0.600    8.400    0.800 
#    0.000    1.000    0.000   12.000    0.000    0.000 
#    0.000    0.000    0.000    0.000    0.000    0.000 
#
# Total GULP energy -111383.860621 kJ/mol
# GULP energy per Si atom -5569.193031 kJ/mol
# Density = 1.928364 g / cm^3
# Si number density = 19.327632 Si / 1000 Ang^3
#
#
#
# Elastic Constant Matrix: (Units=GPa)
#
#
# Indices 1 2 3 4 5 6 
#
# 1 92.2294 59.3382 42.7353 0.0000 -4.1277 0.0000
# 2 59.3382 204.0319 27.7715 0.0000 28.6237 0.0000
# 3 42.7353 27.7715 58.3086 0.0000 1.6014 0.0000
# 4 0.0000 0.0000 0.0000 12.7366 0.0000 -4.6145
# 5 -4.1277 28.6237 1.6014 0.0000 42.6564 0.0000
# 6 0.0000 0.0000 0.0000 -4.6145 0.0000 25.7111
#
#
#
# Elastic Compliance Matrix: (Units=1/GPa)
#
#
# Indices 1 2 3 4 5 6 
#
# 1 0.020077 -0.004938 -0.012520 0.000000 0.005727 0.000000
# 2 -0.004938 0.007009 0.000424 0.000000 -0.005197 0.000000
# 3 -0.012520 0.000424 0.026193 0.000000 -0.002479 0.000000
# 4 0.000000 0.000000 0.000000 0.083974 0.000000 0.015071
# 5 0.005727 -0.005197 -0.002479 0.000000 0.027578 0.000000
# 6 0.000000 0.000000 0.000000 0.015071 0.000000 0.041599
#
#
# Mechanical properties :
#
#
# Convention : Reuss Voigt Hill
#
# Bulk Modulus (GPa) = 52.05770 68.25112 60.15441
# Shear Modulus (GPa) = 20.25097 31.20247 25.72672
#
# Velocity S-wave (km/s) = 3.24044 4.02231 3.65236
# Velocity P-wave (km/s) = 6.40261 7.54728 6.99839
#
# Compressibility (1/GPa) = 0.01920945
#
# Stress axis : x y z
#
# Youngs Moduli (GPa) = 49.80739 142.67885 38.17871
#
# Poissons Ratio (x) = 0.70458 0.47801
# Poissons Ratio (y) = 0.24596 -0.01618
# Poissons Ratio (z) = 0.62360 -0.06048
#
# Static dielectric constant tensor:
#      x y z
#    x 1.606210 0.000000 -0.009550 
#    y 0.000000 1.776580 0.000000 
#    z -0.009550 0.000000 1.691750 
# 
# From -- ./inp_files/31737.got.cif
#   From: 2010.05.17/outbox.cif.g08.bks.cpg/sg15_16_cif.got.tgz:31737.got - 2010.06.03 18:47:42.
