data_PCOD9265479
_publ_section_title
;
Structure prediction by ZEFSAII (Michael W. Deem and Ramdas Pophale) SiO2 
 PCOD9265479
Probable space group: C 2/C
;
_chemical_formula_sum "Si O2"
_cell_formula_units_Z 40
_cell_length_a 8.126170
_cell_length_b 25.711064
_cell_length_c 9.420719
_cell_angle_alpha 90.000000
_cell_angle_beta 122.791210
_cell_angle_gamma 90.000000
_cell_volume 1654.645890
_symmetry_space_group_name_H-M "C 2/C"
_symmetry_group_IT_number 15
_symmetry_cell_setting 'monoclinic'
loop_
_space_group_symop_operation_xyz
x,y,z
-x,y,1/2-z
-x,-y,-z
x,-y,1/2+z
1/2+x,1/2+y,z
1/2-x,1/2+y,1/2-z
1/2-x,1/2-y,-z
1/2+x,1/2-y,1/2+z
loop_
_atom_site_type_symbol
_atom_site_label
_atom_site_fract_x
_atom_site_fract_y
_atom_site_fract_z
Si Si1 0.297351 0.931801 0.114719
Si Si2 0.446498 0.216992 0.572313
Si Si3 0.779049 0.992332 0.143607
Si Si4 0.410588 0.386451 0.059150
Si Si5 0.698986 0.798935 0.785351
O O1 0.500000 0.905745 0.250000
O O2 0.272902 0.977117 0.221899
O O3 0.098506 0.899487 0.046635
O O4 0.331259 0.960857 0.982177
O O5 0.500000 0.194799 0.750000
O O6 0.250000 0.250000 0.500000
O O7 0.377008 0.182668 0.406354
O O8 0.626683 0.256756 0.628416
O O9 0.800469 0.939245 0.060020
O O10 0.000000 0.012869 0.250000
O O11 0.500000 0.365202 0.250000
O O12 0.271178 0.346864 0.913606
O O13 0.500000 0.773656 0.750000
#
# Coordination Sequence:
#
# PCOD9265479 Si02
#       5
#     8   8   8   8   8
#     4  10  19  36  61  88 121 162 203 249 303 360
#     4   9  21  43  64  91 124 154 192 249 314 371
#     4   9  18  36  58  84 121 161 201 252 298 355
#     4   9  21  39  56  88 130 161 201 255 301 355
#     4  11  22  40  68  91 115 162 208 249 302 369
#
# _framework density 24.174358000000002
#
# number of rings (size 3 to 8) (size 9 to 14) (size 15 to 20)
#    0.000    2.800    0.000    3.600    0.000    4.800 
#    0.000   28.000    0.000    0.000    0.000    0.000 
#    0.000    0.000    0.000    0.000    0.000    0.000 
#
# Total GULP energy -111573.635836 kJ/mol
# GULP energy per Si atom -5578.681792 kJ/mol
# Density = 2.411934 g / cm^3
# Si number density = 24.174358 Si / 1000 Ang^3
#
#
#
# Elastic Constant Matrix: (Units=GPa)
#
#
# Indices 1 2 3 4 5 6 
#
# 1 89.3225 8.5690 5.4909 0.0000 20.4203 0.0000
# 2 8.5690 75.3295 65.8723 0.0000 9.4025 0.0000
# 3 5.4909 65.8723 178.2963 0.0000 11.6533 0.0000
# 4 0.0000 0.0000 0.0000 25.3676 0.0000 16.1155
# 5 20.4203 9.4025 11.6533 0.0000 39.2484 0.0000
# 6 0.0000 0.0000 0.0000 16.1155 0.0000 -6.3422
#
#
#
# Elastic Compliance Matrix: (Units=1/GPa)
#
#
# Indices 1 2 3 4 5 6 
#
# 1 0.012756 -0.000984 0.000397 0.000000 -0.006519 0.000000
# 2 -0.000984 0.019950 -0.007201 0.000000 -0.002129 0.000000
# 3 0.000397 -0.007201 0.008319 0.000000 -0.000951 0.000000
# 4 0.000000 0.000000 0.000000 0.015079 0.000000 0.038316
# 5 -0.006519 -0.002129 -0.000951 0.000000 0.029663 0.000000
# 6 0.000000 0.000000 0.000000 0.038316 0.000000 -0.060314
#
#
# Mechanical properties :
#
#
# Convention : Reuss Voigt Hill
#
# Bulk Modulus (GPa) = 39.29686 55.86806 47.58246
# Shear Modulus (GPa) = 100.98531 29.18917 65.08724
#
# Velocity S-wave (km/s) = 6.47027 3.47860 5.19447
# Velocity P-wave (km/s) = 8.49177 6.26856 7.46341
#
# Compressibility (1/GPa) = 0.02544732
#
# Stress axis : x y z
#
# Youngs Moduli (GPa) = 78.39650 50.12600 120.20590
#
# Poissons Ratio (x) = 0.04935 -0.04771
# Poissons Ratio (y) = 0.07718 0.86561
# Poissons Ratio (z) = -0.03112 0.36096
#
# Static dielectric constant tensor:
#      x y z
#    x 2.004440 0.000000 -0.046040 
#    y 0.000000 1.864700 0.000000 
#    z -0.046040 0.000000 2.049860 
# 
# From -- ./inp_files/25829.got.cif
#   From: 2010.05.17/outbox.cif.g08.bks.cpg/sg15_13_cif.got.tgz:25829.got - 2010.06.03 18:47:42.
