data_PCOD9265538
_publ_section_title
;
Structure prediction by ZEFSAII (Michael W. Deem and Ramdas Pophale) SiO2 
 PCOD9265538
Probable space group: C 2/C
;
_chemical_formula_sum "Si O2"
_cell_formula_units_Z 48
_cell_length_a 7.966235
_cell_length_b 21.002369
_cell_length_c 13.768531
_cell_angle_alpha 90.000000
_cell_angle_beta 125.423306
_cell_angle_gamma 90.000000
_cell_volume 1877.193797
_symmetry_space_group_name_H-M "C 2/C"
_symmetry_group_IT_number 15
_symmetry_cell_setting 'monoclinic'
loop_
_space_group_symop_operation_xyz
x,y,z
-x,y,1/2-z
-x,-y,-z
x,-y,1/2+z
1/2+x,1/2+y,z
1/2-x,1/2+y,1/2-z
1/2-x,1/2-y,-z
1/2+x,1/2-y,1/2+z
loop_
_atom_site_type_symbol
_atom_site_label
_atom_site_fract_x
_atom_site_fract_y
_atom_site_fract_z
Si Si1 0.654931 0.986787 0.423218
Si Si2 0.902955 0.255822 0.924099
Si Si3 0.731118 0.452131 0.335384
Si Si4 0.662958 0.351751 0.953325
Si Si5 0.232499 0.384797 0.864475
Si Si6 0.687081 0.317495 0.398117
O O1 0.412745 0.972972 0.324863
O O2 0.753511 0.918524 0.478217
O O3 0.683683 0.024840 0.533491
O O4 0.753814 0.038895 0.385560
O O5 0.773208 0.320248 0.897012
O O6 0.983638 0.225630 0.849773
O O7 0.795724 0.199219 0.946852
O O8 0.117610 0.272645 0.050114
O O9 0.500000 0.478731 0.250000
O O10 0.706484 0.375797 0.330108
O O11 0.418816 0.360909 0.860577
O O12 0.000000 0.372450 0.750000
O O13 0.273222 0.351902 0.983117
#
# Coordination Sequence:
#
# PCOD9265538 Si02
#       6
#     8   8   8   8   8   8
#     4  10  21  38  59  90 122 155 199 242 305 358
#     4   9  18  35  63  81 113 164 190 246 301 348
#     4  10  21  37  63  90 118 157 196 250 299 360
#     4  10  19  36  62  83 118 156 197 243 303 348
#     4  10  22  37  59  87 118 157 196 249 299 356
#     4   9  18  39  62  84 116 154 200 240 301 358
#
# _framework density 25.570083
#
# number of rings (size 3 to 8) (size 9 to 14) (size 15 to 20)
#    0.000    2.333    1.667    0.500    2.333    0.000 
#    0.000    8.333    3.667    0.000    0.000    0.000 
#    0.000    0.000    0.000    0.000    0.000    0.000 
#
# Total GULP energy -133969.514138 kJ/mol
# GULP energy per Si atom -5582.063089 kJ/mol
# Density = 2.551188 g / cm^3
# Si number density = 25.570083 Si / 1000 Ang^3
#
#
#
# Elastic Constant Matrix: (Units=GPa)
#
#
# Indices 1 2 3 4 5 6 
#
# 1 114.6012 46.1319 33.7638 0.0000 37.0095 0.0000
# 2 46.1319 169.2920 26.3921 0.0000 17.7177 0.0000
# 3 33.7638 26.3921 68.6364 0.0000 29.4997 0.0000
# 4 0.0000 0.0000 0.0000 15.4448 0.0000 -7.7708
# 5 37.0095 17.7177 29.4997 0.0000 42.6199 0.0000
# 6 0.0000 0.0000 0.0000 -7.7708 0.0000 -5.5169
#
#
#
# Elastic Compliance Matrix: (Units=1/GPa)
#
#
# Indices 1 2 3 4 5 6 
#
# 1 0.013160 -0.002365 -0.001531 0.000000 -0.009385 0.000000
# 2 -0.002365 0.006763 -0.001582 0.000000 0.000337 0.000000
# 3 -0.001531 -0.001582 0.021461 0.000000 -0.012868 0.000000
# 4 0.000000 0.000000 0.000000 0.037893 0.000000 -0.053374
# 5 -0.009385 0.000337 -0.012868 0.000000 0.040379 0.000000
# 6 0.000000 0.000000 0.000000 -0.053374 0.000000 -0.106082
#
#
# Mechanical properties :
#
#
# Convention : Reuss Voigt Hill
#
# Bulk Modulus (GPa) = 32.86412 62.78947 47.82679
# Shear Modulus (GPa) = 144.21312 26.92569 85.56940
#
# Velocity S-wave (km/s) = 7.51808 3.24854 5.79114
# Velocity P-wave (km/s) = 9.39375 6.21931 7.96625
#
# Compressibility (1/GPa) = 0.03042832
#
# Stress axis : x y z
#
# Youngs Moduli (GPa) = 75.98984 147.86827 46.59549
#
# Poissons Ratio (x) = 0.34974 0.07132
# Poissons Ratio (y) = 0.17973 0.07371
# Poissons Ratio (z) = 0.11631 0.23392
#
# Static dielectric constant tensor:
#      x y z
#    x 2.082380 0.000000 0.141500 
#    y 0.000000 2.037630 0.000000 
#    z 0.141500 0.000000 2.876300 
# 
# From -- ./inp_files/234335.got.cif
#   From: 2010.05.17/outbox.cif.g08.bks.cpg/sg15_118_cif.got.tgz:234335.got - 2010.06.03 18:47:42.
