data_PCOD9265124
_publ_section_title
;
Structure prediction by ZEFSAII (Michael W. Deem and Ramdas Pophale) SiO2 
 PCOD9265124
Probable space group: C 2/C
;
_chemical_formula_sum "Si O2"
_cell_formula_units_Z 20
_cell_length_a 10.215091
_cell_length_b 8.998285
_cell_length_c 15.728206
_cell_angle_alpha 90.000000
_cell_angle_beta 142.307509
_cell_angle_gamma 90.000000
_cell_volume 883.940812
_symmetry_space_group_name_H-M "C 2/C"
_symmetry_group_IT_number 15
_symmetry_cell_setting 'monoclinic'
loop_
_space_group_symop_operation_xyz
x,y,z
-x,y,1/2-z
-x,-y,-z
x,-y,1/2+z
1/2+x,1/2+y,z
1/2-x,1/2+y,1/2-z
1/2-x,1/2-y,-z
1/2+x,1/2-y,1/2+z
loop_
_atom_site_type_symbol
_atom_site_label
_atom_site_fract_x
_atom_site_fract_y
_atom_site_fract_z
Si Si1 0.905085 0.686035 0.789149
Si Si2 0.965377 0.175978 0.495683
Si Si3 0.000000 0.390202 0.750000
O O1 0.007201 0.746059 0.926886
O O2 0.650744 0.717831 0.656705
O O3 0.946560 0.510034 0.797607
O O4 0.000000 0.752139 0.750000
O O5 0.714317 0.197301 0.384186
O O6 0.000000 0.000000 0.500000
#
# Coordination Sequence:
#
# PCOD9265124 Si02
#       3
#     8   8   4
#     4   9  19  34  60  79 111 143 180 222 273 322
#     4  10  19  36  58  82 110 144 182 224 270 322
#     4   8  20  34  58  78 114 136 182 222 272 314
#
# _framework density 22.625948999999999
#
# number of rings (size 3 to 8) (size 9 to 14) (size 15 to 20)
#    1.200    1.600    0.000    1.200    0.000    1.600 
#    0.000    8.000   17.600    0.000    0.000    0.000 
#    0.000    0.000    0.000    0.000    0.000    0.000 
#
# Total GULP energy -55727.448563 kJ/mol
# GULP energy per Si atom -5572.744856 kJ/mol
# Density = 2.257445 g / cm^3
# Si number density = 22.625949 Si / 1000 Ang^3
#
#
#
# Elastic Constant Matrix: (Units=GPa)
#
#
# Indices 1 2 3 4 5 6 
#
# 1 73.4856 7.2293 19.3211 0.0000 31.3944 0.0000
# 2 7.2293 42.7520 4.9272 0.0000 -17.9986 0.0000
# 3 19.3211 4.9272 98.5950 0.0000 14.1834 0.0000
# 4 0.0000 0.0000 0.0000 26.7890 0.0000 -5.9275
# 5 31.3944 -17.9986 14.1834 0.0000 49.7258 0.0000
# 6 0.0000 0.0000 0.0000 -5.9275 0.0000 28.7360
#
#
#
# Elastic Compliance Matrix: (Units=1/GPa)
#
#
# Indices 1 2 3 4 5 6 
#
# 1 0.022815 -0.011347 -0.001294 0.000000 -0.018143 0.000000
# 2 -0.011347 0.034079 -0.002382 0.000000 0.020179 0.000000
# 3 -0.001294 -0.002382 0.010972 0.000000 -0.003175 0.000000
# 4 0.000000 0.000000 0.000000 0.039114 0.000000 0.008068
# 5 -0.018143 0.020179 -0.003175 0.000000 0.039774 0.000000
# 6 0.000000 0.000000 0.000000 0.008068 0.000000 0.036464
#
#
# Mechanical properties :
#
#
# Convention : Reuss Voigt Hill
#
# Bulk Modulus (GPa) = 26.44106 30.86532 28.65319
# Shear Modulus (GPa) = 22.13648 33.27381 27.70514
#
# Velocity S-wave (km/s) = 3.13128 3.83901 3.50306
# Velocity P-wave (km/s) = 4.97843 5.77250 5.39011
#
# Compressibility (1/GPa) = 0.03781996
#
# Stress axis : x y z
#
# Youngs Moduli (GPa) = 43.82991 29.34339 91.14226
#
# Poissons Ratio (x) = 0.33296 0.11795
# Poissons Ratio (y) = 0.49734 0.21713
# Poissons Ratio (z) = 0.05672 0.06990
#
# Static dielectric constant tensor:
#      x y z
#    x 1.944830 0.000000 0.057450 
#    y 0.000000 1.787060 0.000000 
#    z 0.057450 0.000000 1.821000 
# 
# From -- ./inp_files/20572.got.cif
#   From: 2010.05.17/outbox.cif.g08.bks.cpg/sg15_11_cif.got.tgz:20572.got - 2010.06.03 18:47:42.
