data_PCOD9265702
_publ_section_title
;
Structure prediction by ZEFSAII (Michael W. Deem and Ramdas Pophale) SiO2 
 PCOD9265702
Probable space group: C 2/C
;
_chemical_formula_sum "Si O2"
_cell_formula_units_Z 48
_cell_length_a 7.913986
_cell_length_b 12.908625
_cell_length_c 21.064397
_cell_angle_alpha 90.000000
_cell_angle_beta 105.608073
_cell_angle_gamma 90.000000
_cell_volume 2072.558506
_symmetry_space_group_name_H-M "C 2/C"
_symmetry_group_IT_number 15
_symmetry_cell_setting 'monoclinic'
loop_
_space_group_symop_operation_xyz
x,y,z
-x,y,1/2-z
-x,-y,-z
x,-y,1/2+z
1/2+x,1/2+y,z
1/2-x,1/2+y,1/2-z
1/2-x,1/2-y,-z
1/2+x,1/2-y,1/2+z
loop_
_atom_site_type_symbol
_atom_site_label
_atom_site_fract_x
_atom_site_fract_y
_atom_site_fract_z
Si Si1 0.140531 0.974391 0.820391
Si Si2 0.475812 0.066342 0.177763
Si Si3 0.382586 0.380421 0.554527
Si Si4 0.914745 0.200733 0.671761
Si Si5 0.474378 0.247631 0.452883
Si Si6 0.351518 0.963455 0.534323
O O1 0.321687 0.915706 0.822938
O O2 0.049801 0.923369 0.872359
O O3 0.000000 0.969898 0.750000
O O4 0.196625 0.093984 0.841679
O O5 0.500000 0.018478 0.250000
O O6 0.372143 0.176042 0.171851
O O7 0.389790 0.004738 0.111014
O O8 0.498540 0.315457 0.518166
O O9 0.213502 0.308996 0.555491
O O10 0.316123 0.479293 0.508493
O O11 0.000000 0.187445 0.750000
O O12 0.019389 0.196676 0.615066
O O13 0.621514 0.158993 0.465537
O O14 0.500000 0.000000 0.500000
#
# Coordination Sequence:
#
# PCOD9265702 Si02
#       6
#     8   8   8   8   8   8
#     4  11  22  38  63  93 128 162 207 264 311 372
#     4  10  20  40  65  87 125 172 205 253 321 370
#     4  10  19  36  64  85 124 164 206 252 314 367
#     4   9  19  36  59  84 125 158 200 251 308 358
#     4   9  18  35  60  87 117 162 198 255 312 356
#     4   9  16  34  62  82 115 158 203 248 299 360
#
# _framework density 23.159780000000001
#
# number of rings (size 3 to 8) (size 9 to 14) (size 15 to 20)
#    0.000    2.333    5.000    0.000    0.000    3.333 
#    0.000    8.333    0.000    0.000    0.000    0.000 
#    0.000    0.000    0.000    0.000    0.000    0.000 
#
# Total GULP energy -133674.578240 kJ/mol
# GULP energy per Si atom -5569.774093 kJ/mol
# Density = 2.310707 g / cm^3
# Si number density = 23.159780 Si / 1000 Ang^3
#
#
#
# Elastic Constant Matrix: (Units=GPa)
#
#
# Indices 1 2 3 4 5 6 
#
# 1 76.3294 20.9192 33.4329 0.0000 -10.9986 0.0000
# 2 20.9192 70.5142 44.3701 0.0000 -3.5134 0.0000
# 3 33.4329 44.3701 217.3485 0.0000 -37.0913 0.0000
# 4 0.0000 0.0000 0.0000 40.3344 0.0000 -8.8485
# 5 -10.9986 -3.5134 -37.0913 0.0000 28.4818 0.0000
# 6 0.0000 0.0000 0.0000 -8.8485 0.0000 23.1636
#
#
#
# Elastic Compliance Matrix: (Units=1/GPa)
#
#
# Indices 1 2 3 4 5 6 
#
# 1 0.015109 -0.003749 -0.000826 0.000000 0.004297 0.000000
# 2 -0.003749 0.017401 -0.003673 0.000000 -0.004084 0.000000
# 3 -0.000826 -0.003673 0.006873 0.000000 0.008179 0.000000
# 4 0.000000 0.000000 0.000000 0.027060 0.000000 0.010337
# 5 0.004297 -0.004084 0.008179 0.000000 0.046918 0.000000
# 6 0.000000 0.000000 0.000000 0.010337 0.000000 0.047120
#
#
# Mechanical properties :
#
#
# Convention : Reuss Voigt Hill
#
# Bulk Modulus (GPa) = 43.68725 62.40407 53.04566
# Shear Modulus (GPa) = 27.08475 36.09397 31.58936
#
# Velocity S-wave (km/s) = 3.42347 3.95204 3.69721
# Velocity P-wave (km/s) = 5.87632 6.91580 6.41715
#
# Compressibility (1/GPa) = 0.02288997
#
# Stress axis : x y z
#
# Youngs Moduli (GPa) = 66.18429 57.46747 145.48734
#
# Poissons Ratio (x) = 0.21544 0.12010
# Poissons Ratio (y) = 0.24812 0.53431
# Poissons Ratio (z) = 0.05464 0.21105
#
# Static dielectric constant tensor:
#      x y z
#    x 1.873670 0.000000 -0.004120 
#    y 0.000000 1.960040 0.000000 
#    z -0.004120 0.000000 1.924890 
# 
# From -- ./inp_files/231337.got.cif
#   From: 2010.05.17/outbox.cif.g08.bks.cpg/sg15_116_cif.got.tgz:231337.got - 2010.06.03 18:47:42.
