data_PCOD9265606
_publ_section_title
;
Structure prediction by ZEFSAII (Michael W. Deem and Ramdas Pophale) SiO2 
 PCOD9265606
Probable space group: C 2/C
;
_chemical_formula_sum "Si O2"
_cell_formula_units_Z 44
_cell_length_a 16.278668
_cell_length_b 7.967408
_cell_length_c 21.219553
_cell_angle_alpha 90.000000
_cell_angle_beta 39.937299
_cell_angle_gamma 90.000000
_cell_volume 1766.739919
_symmetry_space_group_name_H-M "C 2/C"
_symmetry_group_IT_number 15
_symmetry_cell_setting 'monoclinic'
loop_
_space_group_symop_operation_xyz
x,y,z
-x,y,1/2-z
-x,-y,-z
x,-y,1/2+z
1/2+x,1/2+y,z
1/2-x,1/2+y,1/2-z
1/2-x,1/2-y,-z
1/2+x,1/2-y,1/2+z
loop_
_atom_site_type_symbol
_atom_site_label
_atom_site_fract_x
_atom_site_fract_y
_atom_site_fract_z
Si Si1 0.000000 0.000000 0.000000
Si Si2 0.581251 0.691570 0.138988
Si Si3 0.606955 0.794131 0.362171
Si Si4 0.383312 0.863692 0.694403
Si Si5 0.778641 0.501233 0.386344
Si Si6 0.401688 0.318570 0.367566
O O1 0.061856 0.812702 0.947781
O O2 0.139499 0.052936 0.946002
O O3 0.500000 0.676731 0.250000
O O4 0.483325 0.725638 0.140328
O O5 0.667644 0.851800 0.102267
O O6 0.643464 0.507723 0.095120
O O7 0.600082 0.994226 0.367661
O O8 0.754850 0.744005 0.261317
O O9 0.361332 0.967540 0.773085
O O10 0.504950 0.744017 0.631411
O O11 0.797901 0.678672 0.410846
O O12 0.500000 0.322032 0.250000
#
# Coordination Sequence:
#
# PCOD9265606 Si02
#       6
#     4   8   8   8   8   8
#     4  10  26  40  60  90 136 178 202 264 342 378
#     4  11  19  35  67  96 116 164 224 268 313 377
#     4  11  21  38  64  94 129 168 211 266 325 382
#     4  10  19  36  62  93 126 161 220 269 312 384
#     4  10  19  41  60  87 128 168 212 264 319 383
#     4   9  18  33  61  95 121 156 209 271 318 372
#
# _framework density 24.904629
#
# number of rings (size 3 to 8) (size 9 to 14) (size 15 to 20)
#    0.000    1.818    3.636    1.636    0.000    2.182 
#    0.000    1.818    4.000    0.000    0.000    0.000 
#    0.000    0.000    0.000    0.000    0.000    0.000 
#
# Total GULP energy -122694.846986 kJ/mol
# GULP energy per Si atom -5577.038499 kJ/mol
# Density = 2.484794 g / cm^3
# Si number density = 24.904629 Si / 1000 Ang^3
#
#
#
# Elastic Constant Matrix: (Units=GPa)
#
#
# Indices 1 2 3 4 5 6 
#
# 1 84.2867 34.1601 19.8928 0.0000 -24.7358 0.0000
# 2 34.1601 164.4887 35.7090 0.0000 -13.7871 0.0000
# 3 19.8928 35.7090 78.3479 0.0000 -8.9400 0.0000
# 4 0.0000 0.0000 0.0000 34.3399 0.0000 8.7869
# 5 -24.7358 -13.7871 -8.9400 0.0000 38.5353 0.0000
# 6 0.0000 0.0000 0.0000 8.7869 0.0000 28.1883
#
#
#
# Elastic Compliance Matrix: (Units=1/GPa)
#
#
# Indices 1 2 3 4 5 6 
#
# 1 0.015815 -0.002092 -0.002043 0.000000 0.008929 0.000000
# 2 -0.002092 0.007140 -0.002655 0.000000 0.000596 0.000000
# 3 -0.002043 -0.002655 0.014621 0.000000 0.001131 0.000000
# 4 0.000000 0.000000 0.000000 0.031645 0.000000 -0.009864
# 5 0.008929 0.000596 0.001131 0.000000 0.032157 0.000000
# 6 0.000000 0.000000 0.000000 -0.009864 0.000000 0.038551
#
#
# Mechanical properties :
#
#
# Convention : Reuss Voigt Hill
#
# Bulk Modulus (GPa) = 41.67419 56.29411 48.98415
# Shear Modulus (GPa) = 30.95808 36.03679 33.49744
#
# Velocity S-wave (km/s) = 3.52954 3.80806 3.67144
# Velocity P-wave (km/s) = 5.77755 6.47982 6.13873
#
# Compressibility (1/GPa) = 0.02399567
#
# Stress axis : x y z
#
# Youngs Moduli (GPa) = 63.23167 140.04991 68.39262
#
# Poissons Ratio (x) = 0.29305 0.13972
# Poissons Ratio (y) = 0.13231 0.18159
# Poissons Ratio (z) = 0.12918 0.37185
#
# Static dielectric constant tensor:
#      x y z
#    x 1.943860 0.000000 0.042390 
#    y 0.000000 1.873740 0.000000 
#    z 0.042390 0.000000 1.937690 
# 
# From -- ./inp_files/272570.got.cif
#   From: 2010.05.17/outbox.cif.g08.bks.cpg/sg15_137_cif.got.tgz:272570.got - 2010.06.03 18:47:42.
