data_PCOD9265273
_publ_section_title
;
Structure prediction by ZEFSAII (Michael W. Deem and Ramdas Pophale) SiO2 
 PCOD9265273
Probable space group: C 2/C
;
_chemical_formula_sum "Si O2"
_cell_formula_units_Z 52
_cell_length_a 30.423798
_cell_length_b 16.248529
_cell_length_c 18.024421
_cell_angle_alpha 90.000000
_cell_angle_beta 160.636732
_cell_angle_gamma 90.000000
_cell_volume 2954.242736
_symmetry_space_group_name_H-M "C 2/C"
_symmetry_group_IT_number 15
_symmetry_cell_setting 'monoclinic'
loop_
_space_group_symop_operation_xyz
x,y,z
-x,y,1/2-z
-x,-y,-z
x,-y,1/2+z
1/2+x,1/2+y,z
1/2-x,1/2+y,1/2-z
1/2-x,1/2-y,-z
1/2+x,1/2-y,1/2+z
loop_
_atom_site_type_symbol
_atom_site_label
_atom_site_fract_x
_atom_site_fract_y
_atom_site_fract_z
Si Si1 0.000000 0.712482 0.250000
Si Si2 0.581457 0.759674 0.528395
Si Si3 0.064540 0.899082 0.773217
Si Si4 0.825147 0.308207 0.179463
Si Si5 0.023286 0.054410 0.609699
Si Si6 0.843227 0.206107 0.361074
Si Si7 0.240845 0.814410 0.418497
O O1 0.071324 0.762964 0.431044
O O2 0.117798 0.665432 0.394387
O O3 0.507629 0.675784 0.385276
O O4 0.467305 0.824036 0.368633
O O5 0.689878 0.791505 0.642660
O O6 0.659255 0.732838 0.725335
O O7 0.000000 0.894550 0.750000
O O8 0.037240 0.987785 0.696043
O O9 0.221474 0.881337 0.025698
O O10 0.850409 0.263279 0.298796
O O11 0.750000 0.250000 0.000000
O O12 0.155734 0.108071 0.809334
O O13 0.904634 0.118605 0.435807
O O14 0.000000 0.000000 0.500000
O O15 0.250000 0.750000 0.500000
#
# Coordination Sequence:
#
# PCOD9265273 Si02
#       7
#     4   8   8   8   8   8   8
#     4  10  22  36  64  90 112 160 214 252 284 354
#     4  10  20  37  63  88 115 162 205 247 293 364
#     4  11  22  36  59  90 125 154 196 256 313 350
#     4  10  19  36  59  87 120 161 200 247 297 367
#     4  12  23  39  59  92 124 160 195 258 313 352
#     4  11  21  38  63  92 119 160 216 243 296 374
#     4  11  20  38  62  89 120 160 209 244 293 370
#
# _framework density 17.601804000000001
#
# number of rings (size 3 to 8) (size 9 to 14) (size 15 to 20)
#    0.000    1.231    6.154    0.923    1.077    0.000 
#    0.000    1.538    0.000    2.769    0.000    0.000 
#    0.000    0.000    0.000    0.000    0.000    0.000 
#
# Total GULP energy -144900.224733 kJ/mol
# GULP energy per Si atom -5573.085567 kJ/mol
# Density = 1.756174 g / cm^3
# Si number density = 17.601804 Si / 1000 Ang^3
#
#
#
# Elastic Constant Matrix: (Units=GPa)
#
#
# Indices 1 2 3 4 5 6 
#
# 1 91.6202 17.6586 41.1166 0.0000 8.3359 0.0000
# 2 17.6586 68.4557 31.1856 0.0000 5.3345 0.0000
# 3 41.1166 31.1856 96.7818 0.0000 25.2841 0.0000
# 4 0.0000 0.0000 0.0000 34.0807 0.0000 6.5642
# 5 8.3359 5.3345 25.2841 0.0000 54.2196 0.0000
# 6 0.0000 0.0000 0.0000 6.5642 0.0000 16.8005
#
#
#
# Elastic Compliance Matrix: (Units=1/GPa)
#
#
# Indices 1 2 3 4 5 6 
#
# 1 0.013565 -0.000994 -0.005606 0.000000 0.000627 0.000000
# 2 -0.000994 0.017243 -0.005387 0.000000 0.000968 0.000000
# 3 -0.005606 -0.005387 0.016041 0.000000 -0.006088 0.000000
# 4 0.000000 0.000000 0.000000 0.031730 0.000000 -0.012397
# 5 0.000627 0.000968 -0.006088 0.000000 0.021091 0.000000
# 6 0.000000 0.000000 0.000000 -0.012397 0.000000 0.064366
#
#
# Mechanical properties :
#
#
# Convention : Reuss Voigt Hill
#
# Bulk Modulus (GPa) = 43.71719 48.53104 46.12412
# Shear Modulus (GPa) = 25.55782 32.14663 28.85223
#
# Velocity S-wave (km/s) = 3.81465 4.27819 4.05305
# Velocity P-wave (km/s) = 6.65528 7.21355 6.94003
#
# Compressibility (1/GPa) = 0.02287430
#
# Stress axis : x y z
#
# Youngs Moduli (GPa) = 73.71804 57.99475 62.34159
#
# Poissons Ratio (x) = 0.05765 0.34951
# Poissons Ratio (y) = 0.07328 0.33582
# Poissons Ratio (z) = 0.41330 0.31241
#
# Static dielectric constant tensor:
#      x y z
#    x 1.473870 0.000000 0.057010 
#    y 0.000000 1.525930 0.000000 
#    z 0.057010 0.000000 1.619400 
# 
# From -- ./inp_files/145050.got.cif
#   From: 2010.05.17/outbox.cif.g08.bks.cpg/sg15_73_cif.got.tgz:145050.got - 2010.06.03 18:47:42.
