data_PCOD9265711
_publ_section_title
;
Structure prediction by ZEFSAII (Michael W. Deem and Ramdas Pophale) SiO2 
 PCOD9265711
Probable space group: C 2/C
;
_chemical_formula_sum "Si O2"
_cell_formula_units_Z 48
_cell_length_a 26.652002
_cell_length_b 11.972631
_cell_length_c 18.479906
_cell_angle_alpha 90.000000
_cell_angle_beta 159.263727
_cell_angle_gamma 90.000000
_cell_volume 2087.875642
_symmetry_space_group_name_H-M "C 2/C"
_symmetry_group_IT_number 15
_symmetry_cell_setting 'monoclinic'
loop_
_space_group_symop_operation_xyz
x,y,z
-x,y,1/2-z
-x,-y,-z
x,-y,1/2+z
1/2+x,1/2+y,z
1/2-x,1/2+y,1/2-z
1/2-x,1/2-y,-z
1/2+x,1/2-y,1/2+z
loop_
_atom_site_type_symbol
_atom_site_label
_atom_site_fract_x
_atom_site_fract_y
_atom_site_fract_z
Si Si1 0.509909 0.088166 0.129645
Si Si2 0.220701 0.119294 0.942552
Si Si3 0.646039 0.400223 0.909227
Si Si4 0.350967 0.102264 0.343048
Si Si5 0.397012 0.256028 0.790215
Si Si6 0.562437 0.331624 0.497823
O O1 0.620462 0.069135 0.343983
O O2 0.594124 0.092064 0.165571
O O3 0.444272 0.210114 0.048789
O O4 0.396830 0.994950 0.959829
O O5 0.097849 0.122353 0.717037
O O6 0.152537 0.033492 0.908168
O O7 0.250000 0.250000 0.000000
O O8 0.500000 0.367788 0.750000
O O9 0.639188 0.342209 0.821397
O O10 0.786279 0.347706 0.135501
O O11 0.442340 0.208205 0.495310
O O12 0.182427 0.103719 0.116832
O O13 0.381684 0.314238 0.846449
#
# Coordination Sequence:
#
# PCOD9265711 Si02
#       6
#     8   8   8   8   8   8
#     4   9  20  38  60  88 126 166 212 261 316 380
#     4  10  22  41  61  91 130 165 215 270 319 385
#     4  11  23  39  71  91 125 173 221 264 320 396
#     4  10  19  36  64  89 124 167 213 261 312 386
#     4  10  22  41  60  98 131 164 212 273 321 378
#     4  10  22  36  62  94 128 163 214 264 326 380
#
# _framework density 22.989875000000001
#
# number of rings (size 3 to 8) (size 9 to 14) (size 15 to 20)
#    0.000    2.000    1.667    1.000    2.333    2.000 
#    0.000    3.333    0.000    0.000    0.000    0.000 
#    0.000    0.000    0.000    0.000    0.000    0.000 
#
# Total GULP energy -133832.867130 kJ/mol
# GULP energy per Si atom -5576.369464 kJ/mol
# Density = 2.293755 g / cm^3
# Si number density = 22.989875 Si / 1000 Ang^3
#
#
#
# Elastic Constant Matrix: (Units=GPa)
#
#
# Indices 1 2 3 4 5 6 
#
# 1 30.5810 13.7907 33.0465 0.0000 -3.8859 0.0000
# 2 13.7907 70.4210 30.4728 0.0000 -1.2687 0.0000
# 3 33.0465 30.4728 128.6985 0.0000 -7.9325 0.0000
# 4 0.0000 0.0000 0.0000 34.5804 0.0000 -4.8718
# 5 -3.8859 -1.2687 -7.9325 0.0000 25.9471 0.0000
# 6 0.0000 0.0000 0.0000 -4.8718 0.0000 13.0334
#
#
#
# Elastic Compliance Matrix: (Units=1/GPa)
#
#
# Indices 1 2 3 4 5 6 
#
# 1 0.046752 -0.004447 -0.010736 0.000000 0.003502 0.000000
# 2 -0.004447 0.016248 -0.002749 0.000000 -0.000712 0.000000
# 3 -0.010736 -0.002749 0.011283 0.000000 0.001707 0.000000
# 4 0.000000 0.000000 0.000000 0.030526 0.000000 0.011410
# 5 0.003502 -0.000712 0.001707 0.000000 0.039552 0.000000
# 6 0.000000 0.000000 0.000000 0.011410 0.000000 0.080991
#
#
# Mechanical properties :
#
#
# Convention : Reuss Voigt Hill
#
# Bulk Modulus (GPa) = 26.02882 42.70228 34.36555
# Shear Modulus (GPa) = 18.24679 24.87156 21.55918
#
# Velocity S-wave (km/s) = 2.82030 3.29271 3.06562
# Velocity P-wave (km/s) = 4.68529 5.75071 5.24512
#
# Compressibility (1/GPa) = 0.03841895
#
# Stress axis : x y z
#
# Youngs Moduli (GPa) = 21.38955 61.54626 88.62906
#
# Poissons Ratio (x) = 0.27368 0.95152
# Poissons Ratio (y) = 0.09511 0.24366
# Poissons Ratio (z) = 0.22964 0.16920
#
# Static dielectric constant tensor:
#      x y z
#    x 1.856820 0.000000 -0.006210 
#    y 0.000000 1.898410 0.000000 
#    z -0.006210 0.000000 1.883320 
# 
# From -- ./inp_files/259248.got.cif
#   From: 2010.05.17/outbox.cif.g08.bks.cpg/sg15_130_cif.got.tgz:259248.got - 2010.06.03 18:47:42.
