data_PCOD9265311
_publ_section_title
;
Structure prediction by ZEFSAII (Michael W. Deem and Ramdas Pophale) SiO2 
 PCOD9265311
Probable space group: C 2/C
;
_chemical_formula_sum "Si O2"
_cell_formula_units_Z 52
_cell_length_a 12.772714
_cell_length_b 27.370093
_cell_length_c 8.577346
_cell_angle_alpha 90.000000
_cell_angle_beta 118.319289
_cell_angle_gamma 90.000000
_cell_volume 2639.683293
_symmetry_space_group_name_H-M "C 2/C"
_symmetry_group_IT_number 15
_symmetry_cell_setting 'monoclinic'
loop_
_space_group_symop_operation_xyz
x,y,z
-x,y,1/2-z
-x,-y,-z
x,-y,1/2+z
1/2+x,1/2+y,z
1/2-x,1/2+y,1/2-z
1/2-x,1/2-y,-z
1/2+x,1/2-y,1/2+z
loop_
_atom_site_type_symbol
_atom_site_label
_atom_site_fract_x
_atom_site_fract_y
_atom_site_fract_z
Si Si1 0.232197 0.347715 0.557222
Si Si2 0.593455 0.608567 0.576402
Si Si3 0.323395 0.426336 0.827044
Si Si4 0.500000 0.196732 0.750000
Si Si5 0.857848 0.976836 0.174363
Si Si6 0.172454 0.237221 0.185109
Si Si7 0.124334 0.199171 0.825745
O O1 0.327122 0.370547 0.505302
O O2 0.234651 0.384356 0.706264
O O3 0.282946 0.295252 0.641907
O O4 0.104772 0.336789 0.392792
O O5 0.458445 0.595682 0.430637
O O6 0.652240 0.559897 0.687571
O O7 0.597679 0.648799 0.717804
O O8 0.316048 0.469995 0.695856
O O9 0.304807 0.451341 0.983043
O O10 0.441491 0.232004 0.839984
O O11 0.000000 0.980924 0.250000
O O12 0.273628 0.274143 0.198097
O O13 0.157630 0.199585 0.030658
O O14 0.000000 0.228234 0.750000
#
# Coordination Sequence:
#
# PCOD9265311 Si02
#       7
#     8   8   8   4   8   8   8
#     4  12  24  39  62  88 121 168 209 254 309 367
#     4  11  21  36  60  95 127 159 198 254 315 375
#     4  11  22  36  62  93 125 159 200 257 319 375
#     4  12  26  44  60  88 128 168 218 258 302 368
#     4  10  19  36  59  94 129 154 194 254 321 375
#     4  11  25  41  61  87 124 170 215 255 305 362
#     4  11  22  39  61  91 123 162 205 262 311 365
#
# _framework density 19.699332999999999
#
# number of rings (size 3 to 8) (size 9 to 14) (size 15 to 20)
#    0.000    0.923    1.538    8.769    4.308    0.000 
#    0.000    0.000    0.000    3.692    0.000    0.000 
#    0.000    0.000    0.000    0.000    0.000    0.000 
#
# Total GULP energy -145219.250026 kJ/mol
# GULP energy per Si atom -5585.355770 kJ/mol
# Density = 1.965450 g / cm^3
# Si number density = 19.699333 Si / 1000 Ang^3
#
#
#
# Elastic Constant Matrix: (Units=GPa)
#
#
# Indices 1 2 3 4 5 6 
#
# 1 82.3144 29.6897 24.6818 0.0000 -5.8024 0.0000
# 2 29.6897 100.3182 60.6686 0.0000 -0.9088 0.0000
# 3 24.6818 60.6686 100.6973 0.0000 2.6535 0.0000
# 4 0.0000 0.0000 0.0000 40.4601 0.0000 -9.1885
# 5 -5.8024 -0.9088 2.6535 0.0000 22.9950 0.0000
# 6 0.0000 0.0000 0.0000 -9.1885 0.0000 8.6327
#
#
#
# Elastic Compliance Matrix: (Units=1/GPa)
#
#
# Indices 1 2 3 4 5 6 
#
# 1 0.014023 -0.003117 -0.001654 0.000000 0.003606 0.000000
# 2 -0.003117 0.016443 -0.009167 0.000000 0.000921 0.000000
# 3 -0.001654 -0.009167 0.015928 0.000000 -0.002618 0.000000
# 4 0.000000 0.000000 0.000000 0.032594 0.000000 0.034693
# 5 0.003606 0.000921 -0.002618 0.000000 0.044736 0.000000
# 6 0.000000 0.000000 0.000000 0.034693 0.000000 0.152764
#
#
# Mechanical properties :
#
#
# Convention : Reuss Voigt Hill
#
# Bulk Modulus (GPa) = 54.00232 57.04557 55.52395
# Shear Modulus (GPa) = 16.10109 25.63688 20.86899
#
# Velocity S-wave (km/s) = 2.86202 3.61142 3.25834
# Velocity P-wave (km/s) = 6.19632 6.81255 6.51172
#
# Compressibility (1/GPa) = 0.01851772
#
# Stress axis : x y z
#
# Youngs Moduli (GPa) = 71.31114 60.81646 62.78225
#
# Poissons Ratio (x) = 0.18957 0.10385
# Poissons Ratio (y) = 0.22229 0.57551
# Poissons Ratio (z) = 0.11796 0.55749
#
# Static dielectric constant tensor:
#      x y z
#    x 1.673160 0.000000 -0.032650 
#    y 0.000000 1.722580 0.000000 
#    z -0.032650 0.000000 1.780640 
# 
# From -- ./inp_files/35353.got.cif
#   From: 2010.05.17/outbox.cif.g08.bks.cpg/sg15_18_cif.got.tgz:35353.got - 2010.06.03 18:47:42.
