data_PCOD9265820
_publ_section_title
;
Structure prediction by ZEFSAII (Michael W. Deem and Ramdas Pophale) SiO2 
 PCOD9265820
Probable space group: C 2/C
;
_chemical_formula_sum "Si O2"
_cell_formula_units_Z 60
_cell_length_a 8.179335
_cell_length_b 22.477488
_cell_length_c 14.373030
_cell_angle_alpha 90.000000
_cell_angle_beta 76.981223
_cell_angle_gamma 90.000000
_cell_volume 2574.572653
_symmetry_space_group_name_H-M "C 2/C"
_symmetry_group_IT_number 15
_symmetry_cell_setting 'monoclinic'
loop_
_space_group_symop_operation_xyz
x,y,z
-x,y,1/2-z
-x,-y,-z
x,-y,1/2+z
1/2+x,1/2+y,z
1/2-x,1/2+y,1/2-z
1/2-x,1/2-y,-z
1/2+x,1/2-y,1/2+z
loop_
_atom_site_type_symbol
_atom_site_label
_atom_site_fract_x
_atom_site_fract_y
_atom_site_fract_z
Si Si1 0.000000 0.369415 0.250000
Si Si2 0.534705 0.092830 0.953026
Si Si3 0.305262 0.845002 0.770743
Si Si4 0.618134 0.465777 0.060660
Si Si5 0.797655 0.081635 0.389407
Si Si6 0.912395 0.143321 0.036451
Si Si7 0.209759 0.738934 0.667107
Si Si8 0.507490 0.229764 0.993645
O O1 0.024677 0.405934 0.341841
O O2 0.161077 0.325052 0.216625
O O3 0.683172 0.050762 0.970369
O O4 0.565366 0.161736 0.980447
O O5 0.354887 0.076696 0.018423
O O6 0.500000 0.829557 0.750000
O O7 0.274392 0.892762 0.695115
O O8 0.238765 0.872544 0.874889
O O9 0.197543 0.787601 0.750805
O O10 0.618608 0.517303 0.137335
O O11 0.500000 0.500000 0.000000
O O12 0.555213 0.397847 0.057970
O O13 0.926324 0.128463 0.419284
O O14 0.880391 0.211636 0.018447
O O15 0.385391 0.757165 0.596640
O O16 0.092730 0.738270 0.590776
#
# Coordination Sequence:
#
# PCOD9265820 Si02
#       8
#     4   8   8   8   8   8   8   8
#     4  10  22  36  68  98 138 178 220 274 348 420
#     4  11  21  41  67  99 129 175 226 272 339 407
#     4  12  23  37  63 101 129 169 229 281 333 406
#     4  10  25  45  65  91 130 176 223 278 342 401
#     4  11  22  43  68  89 130 176 225 281 329 401
#     4  11  22  40  68  97 130 172 221 279 345 407
#     4  10  19  37  58  99 135 169 210 269 343 408
#     4  10  19  36  70  93 128 173 216 272 343 410
#
# _framework density 23.304838
#
# number of rings (size 3 to 8) (size 9 to 14) (size 15 to 20)
#    0.000    1.333    2.667    4.800    0.000    0.533 
#    6.000    0.000    8.800    0.000    0.000    0.000 
#    0.000    0.000    0.000    0.000    0.000    0.000 
#
# Total GULP energy -167128.802836 kJ/mol
# GULP energy per Si atom -5570.960095 kJ/mol
# Density = 2.325180 g / cm^3
# Si number density = 23.304838 Si / 1000 Ang^3
#
#
#
# Elastic Constant Matrix: (Units=GPa)
#
#
# Indices 1 2 3 4 5 6 
#
# 1 99.3780 30.3626 35.4947 0.0000 9.9445 0.0000
# 2 30.3626 138.1486 34.4664 0.0000 15.8280 0.0000
# 3 35.4947 34.4664 107.9347 0.0000 -0.9294 0.0000
# 4 0.0000 0.0000 0.0000 2.5834 0.0000 6.9726
# 5 9.9445 15.8280 -0.9294 0.0000 29.3588 0.0000
# 6 0.0000 0.0000 0.0000 6.9726 0.0000 34.1874
#
#
#
# Elastic Compliance Matrix: (Units=1/GPa)
#
#
# Indices 1 2 3 4 5 6 
#
# 1 0.012105 -0.001371 -0.003573 0.000000 -0.003474 0.000000
# 2 -0.001371 0.008610 -0.002335 0.000000 -0.004251 0.000000
# 3 -0.003573 -0.002335 0.011210 0.000000 0.002824 0.000000
# 4 0.000000 0.000000 0.000000 0.861087 0.000000 -0.175619
# 5 -0.003474 -0.004251 0.002824 0.000000 0.037619 0.000000
# 6 0.000000 0.000000 0.000000 -0.175619 0.000000 0.065068
#
#
# Mechanical properties :
#
#
# Convention : Reuss Voigt Hill
#
# Bulk Modulus (GPa) = 57.58184 60.67876 59.13030
# Shear Modulus (GPa) = 4.92104 29.56842 17.24473
#
# Velocity S-wave (km/s) = 1.45471 3.56584 2.72318
# Velocity P-wave (km/s) = 5.25198 6.56103 5.94266
#
# Compressibility (1/GPa) = 0.01736659
#
# Stress axis : x y z
#
# Youngs Moduli (GPa) = 82.60838 116.15043 89.20773
#
# Poissons Ratio (x) = 0.15925 0.31874
# Poissons Ratio (y) = 0.11326 0.20830
# Poissons Ratio (z) = 0.29516 0.27121
#
# Static dielectric constant tensor:
#      x y z
#    x 1.951270 0.000000 -0.021390 
#    y 0.000000 1.922870 0.000000 
#    z -0.021390 0.000000 1.932160 
# 
# From -- ./inp_files/137354.got.cif
#   From: 2010.05.17/outbox.cif.g08.bks.cpg/sg15_69_cif.got.tgz:137354.got - 2010.06.03 18:47:42.
