data_PCOD9265095
_publ_section_title
;
Structure prediction by ZEFSAII (Michael W. Deem and Ramdas Pophale) SiO2 
 PCOD9265095
Probable space group: C 2/C
;
_chemical_formula_sum "Si O2"
_cell_formula_units_Z 60
_cell_length_a 9.829130
_cell_length_b 14.155429
_cell_length_c 20.175037
_cell_angle_alpha 90.000000
_cell_angle_beta 64.721845
_cell_angle_gamma 90.000000
_cell_volume 2538.275589
_symmetry_space_group_name_H-M "C 2/C"
_symmetry_group_IT_number 15
_symmetry_cell_setting 'monoclinic'
loop_
_space_group_symop_operation_xyz
x,y,z
-x,y,1/2-z
-x,-y,-z
x,-y,1/2+z
1/2+x,1/2+y,z
1/2-x,1/2+y,1/2-z
1/2-x,1/2-y,-z
1/2+x,1/2-y,1/2+z
loop_
_atom_site_type_symbol
_atom_site_label
_atom_site_fract_x
_atom_site_fract_y
_atom_site_fract_z
Si Si1 0.000000 0.253024 0.750000
Si Si2 0.900778 0.628994 0.939060
Si Si3 0.215018 0.805709 0.734451
Si Si4 0.122597 0.408909 0.278471
Si Si5 0.378627 0.462569 0.671543
Si Si6 0.829171 0.728431 0.081331
Si Si7 0.671882 0.459457 0.967475
Si Si8 0.068834 0.139724 0.605988
O O1 0.129990 0.312991 0.756899
O O2 0.918566 0.191729 0.825608
O O3 0.045913 0.601500 0.866046
O O4 0.806634 0.712023 0.922276
O O5 0.921478 0.670216 0.007937
O O6 0.787842 0.540724 0.962908
O O7 0.172156 0.695815 0.745397
O O8 0.091038 0.866243 0.797183
O O9 0.256565 0.836569 0.652323
O O10 0.262010 0.478171 0.240686
O O11 0.000000 0.440567 0.250000
O O12 0.307096 0.436910 0.614653
O O13 0.516312 0.533407 0.633620
O O14 0.935144 0.802968 0.097152
O O15 0.683082 0.377519 0.020746
O O16 0.500000 0.500000 0.000000
#
# Coordination Sequence:
#
# PCOD9265095 Si02
#       8
#     4   8   8   8   8   8   8   8
#     4  10  22  44  62  84 126 182 198 262 312 380
#     4  11  21  34  67  91 127 165 202 272 328 364
#     4  11  24  41  64  92 123 169 215 251 324 385
#     4  12  21  43  63  94 130 161 208 270 319 372
#     4  11  22  39  66  92 125 166 211 261 314 388
#     4  10  20  39  58  92 124 163 207 268 316 369
#     4  10  19  36  57  95 123 164 209 256 316 381
#     4  10  20  41  63  86 128 163 218 261 310 372
#
# _framework density 23.638095
#
# number of rings (size 3 to 8) (size 9 to 14) (size 15 to 20)
#    0.000    1.333    8.000    0.000    2.800    2.133 
#    1.200    1.333    0.000    0.000    0.000    0.000 
#    0.000    0.000    0.000    0.000    0.000    0.000 
#
# Total GULP energy -167624.314977 kJ/mol
# GULP energy per Si atom -5587.477166 kJ/mol
# Density = 2.358429 g / cm^3
# Si number density = 23.638095 Si / 1000 Ang^3
#
#
#
# Elastic Constant Matrix: (Units=GPa)
#
#
# Indices 1 2 3 4 5 6 
#
# 1 36.9693 -12.7916 17.5482 0.0000 -4.8353 0.0000
# 2 -12.7916 44.9944 53.9937 0.0000 -0.5807 0.0000
# 3 17.5482 53.9937 183.6180 0.0000 -7.4928 0.0000
# 4 0.0000 0.0000 0.0000 37.8819 0.0000 0.6213
# 5 -4.8353 -0.5807 -7.4928 0.0000 33.0752 0.0000
# 6 0.0000 0.0000 0.0000 0.6213 0.0000 -0.8378
#
#
#
# Elastic Compliance Matrix: (Units=1/GPa)
#
#
# Indices 1 2 3 4 5 6 
#
# 1 0.041794 0.025545 -0.011343 0.000000 0.003989 0.000000
# 2 0.025545 0.050052 -0.017129 0.000000 0.000733 0.000000
# 3 -0.011343 -0.017129 0.011594 0.000000 0.000668 0.000000
# 4 0.000000 0.000000 0.000000 0.026081 0.000000 0.019342
# 5 0.003989 0.000733 0.000668 0.000000 0.030981 0.000000
# 6 0.000000 0.000000 0.000000 0.019342 0.000000 -1.179314
#
#
# Mechanical properties :
#
#
# Convention : Reuss Voigt Hill
#
# Bulk Modulus (GPa) = 10.24744 42.56472 26.40608
# Shear Modulus (GPa) = -5.09981 27.81264 11.35641
#
# Velocity S-wave (km/s) = -1.47042 3.43389 2.19425
# Velocity P-wave (km/s) = 1.20901 5.81103 4.19701
#
# Compressibility (1/GPa) = 0.09758538
#
# Stress axis : x y z
#
# Youngs Moduli (GPa) = 23.92686 19.97917 86.24874
#
# Poissons Ratio (x) = -0.51037 0.97832
# Poissons Ratio (y) = -0.61121 1.47739
# Poissons Ratio (z) = 0.27140 0.34223
#
# Static dielectric constant tensor:
#      x y z
#    x 1.915430 0.000000 -0.005870 
#    y 0.000000 1.867620 0.000000 
#    z -0.005870 0.000000 1.992800 
# 
# From -- ./inp_files/238361.got.cif
#   From: 2010.05.17/outbox.cif.g08.bks.cpg/sg15_120_cif.got.tgz:238361.got - 2010.06.03 18:47:42.
