data_PCOD9265127
_publ_section_title
;
Structure prediction by ZEFSAII (Michael W. Deem and Ramdas Pophale) SiO2 
 PCOD9265127
Probable space group: C 2/C
;
_chemical_formula_sum "Si O2"
_cell_formula_units_Z 40
_cell_length_a 11.990588
_cell_length_b 11.756091
_cell_length_c 29.258045
_cell_angle_alpha 90.000000
_cell_angle_beta 150.223657
_cell_angle_gamma 90.000000
_cell_volume 2048.184630
_symmetry_space_group_name_H-M "C 2/C"
_symmetry_group_IT_number 15
_symmetry_cell_setting 'monoclinic'
loop_
_space_group_symop_operation_xyz
x,y,z
-x,y,1/2-z
-x,-y,-z
x,-y,1/2+z
1/2+x,1/2+y,z
1/2-x,1/2+y,1/2-z
1/2-x,1/2-y,-z
1/2+x,1/2-y,1/2+z
loop_
_atom_site_type_symbol
_atom_site_label
_atom_site_fract_x
_atom_site_fract_y
_atom_site_fract_z
Si Si1 0.484713 0.249751 0.902527
Si Si2 0.162797 0.428045 0.902733
Si Si3 0.237203 0.583774 0.743231
Si Si4 0.113473 0.991087 0.109719
Si Si5 0.136493 0.193612 0.843780
O O1 0.390802 0.192662 0.823224
O O2 0.406555 0.379494 0.879766
O O3 0.380488 0.178504 0.908248
O O4 0.750000 0.250000 0.000000
O O5 0.248768 0.498499 0.888478
O O6 0.145029 0.296796 0.882300
O O7 0.920939 0.479635 0.828586
O O8 0.362954 0.446639 0.009822
O O9 0.267746 0.579360 0.808331
O O10 0.488224 0.591684 0.811250
O O11 0.000000 0.233275 0.750000
#
# Coordination Sequence:
#
# PCOD9265127 Si02
#       5
#     8   8   8   8   8
#     4  10  19  38  60  81 110 155 193 231 290 350
#     4  10  19  36  58  82 114 146 197 240 281 346
#     4  11  19  33  59  83 113 147 189 241 283 341
#     4  10  21  35  59  87 107 150 198 237 284 344
#     4   9  20  35  56  82 113 151 193 234 289 341
#
# _framework density 19.529489999999999
#
# number of rings (size 3 to 8) (size 9 to 14) (size 15 to 20)
#    0.000    2.000    2.000    4.200    0.000    0.800 
#    0.000    1.000    0.000   14.400    0.000    0.000 
#    0.000    0.000    0.000    0.000    0.000    0.000 
#
# Total GULP energy -111474.442444 kJ/mol
# GULP energy per Si atom -5573.722122 kJ/mol
# Density = 1.948504 g / cm^3
# Si number density = 19.529490 Si / 1000 Ang^3
#
#
#
# Elastic Constant Matrix: (Units=GPa)
#
#
# Indices 1 2 3 4 5 6 
#
# 1 57.3806 23.8049 48.4583 0.0002 19.8973 0.0000
# 2 23.8049 30.5829 15.1096 -0.0001 -4.1520 0.0000
# 3 48.4583 15.1096 96.5275 -0.0006 6.5693 0.0001
# 4 0.0002 -0.0001 -0.0006 30.7369 0.0000 -4.5910
# 5 19.8973 -4.1520 6.5693 0.0000 45.9683 0.0000
# 6 0.0000 0.0000 0.0001 -4.5910 0.0000 34.1252
#
#
#
# Elastic Compliance Matrix: (Units=1/GPa)
#
#
# Indices 1 2 3 4 5 6 
#
# 1 0.066087 -0.043316 -0.024421 -0.000001 -0.029028 0.000000
# 2 -0.043316 0.064586 0.010060 0.000001 0.023145 0.000000
# 3 -0.024421 0.010060 0.020462 0.000001 0.008555 0.000000
# 4 -0.000001 0.000001 0.000001 0.033201 0.000000 0.004467
# 5 -0.029028 0.023145 0.008555 0.000000 0.035187 0.000000
# 6 0.000000 0.000000 0.000000 0.004467 0.000000 0.029905
#
#
# Mechanical properties :
#
#
# Convention : Reuss Voigt Hill
#
# Bulk Modulus (GPa) = 27.94669 39.91516 33.93092
# Shear Modulus (GPa) = 13.27287 28.64064 20.95675
#
# Velocity S-wave (km/s) = 2.60980 3.83369 3.27935
# Velocity P-wave (km/s) = 4.83968 6.33080 5.63478
#
# Compressibility (1/GPa) = 0.03578242
#
# Stress axis : x y z
#
# Youngs Moduli (GPa) = 15.13161 15.48324 48.87030
#
# Poissons Ratio (x) = 0.67067 1.19345
# Poissons Ratio (y) = 0.65544 -0.49165
# Poissons Ratio (z) = 0.36952 -0.15577
#
# Static dielectric constant tensor:
#      x y z
#    x 1.749420 0.000000 0.048220 
#    y 0.000000 1.682690 0.000000 
#    z 0.048220 0.000000 1.723860 
# 
# From -- ./inp_files/141806.got.cif
#   From: 2010.05.17/outbox.cif.g08.bks.cpg/sg15_71_cif.got.tgz:141806.got - 2010.06.03 18:47:42.
