data_PCOD9265093
_publ_section_title
;
Structure prediction by ZEFSAII (Michael W. Deem and Ramdas Pophale) SiO2 
 PCOD9265093
Probable space group: C 2/C
;
_chemical_formula_sum "Si O2"
_cell_formula_units_Z 64
_cell_length_a 8.309985
_cell_length_b 17.562422
_cell_length_c 27.507573
_cell_angle_alpha 90.000000
_cell_angle_beta 134.012104
_cell_angle_gamma 90.000000
_cell_volume 2887.236737
_symmetry_space_group_name_H-M "C 2/C"
_symmetry_group_IT_number 15
_symmetry_cell_setting 'monoclinic'
loop_
_space_group_symop_operation_xyz
x,y,z
-x,y,1/2-z
-x,-y,-z
x,-y,1/2+z
1/2+x,1/2+y,z
1/2-x,1/2+y,1/2-z
1/2-x,1/2-y,-z
1/2+x,1/2-y,1/2+z
loop_
_atom_site_type_symbol
_atom_site_label
_atom_site_fract_x
_atom_site_fract_y
_atom_site_fract_z
Si Si1 0.570330 0.692057 0.666447
Si Si2 0.696624 0.508422 0.580345
Si Si3 0.385508 0.747608 0.423281
Si Si4 0.720997 0.798152 0.782865
Si Si5 0.808061 0.790268 0.643380
Si Si6 0.365607 0.462400 0.090496
Si Si7 0.995529 0.434097 0.929104
Si Si8 0.257828 0.168861 0.551136
O O1 0.342474 0.731613 0.598413
O O2 0.636084 0.726092 0.732814
O O3 0.765201 0.724511 0.673638
O O4 0.496486 0.604686 0.646542
O O5 0.500000 0.500000 0.500000
O O6 0.569274 0.494749 0.604502
O O7 0.899275 0.460540 0.600298
O O8 0.772919 0.596263 0.588491
O O9 0.307199 0.726350 0.353279
O O10 0.549339 0.820602 0.449101
O O11 0.520907 0.678472 0.474984
O O12 0.500000 0.846446 0.750000
O O13 0.943347 0.826344 0.802482
O O14 0.623356 0.854700 0.605286
O O15 0.774071 0.744486 0.586436
O O16 0.200360 0.511107 0.090114
O O17 0.196470 0.433165 0.011652
#
# Coordination Sequence:
#
# PCOD9265093 Si02
#       8
#     8   8   8   8   8   8   8   8
#     4  11  20  36  64  89 122 167 221 263 310 385
#     4  10  21  35  56  88 136 171 203 248 323 405
#     4   9  20  32  59  89 123 154 202 273 317 367
#     4   9  21  40  57  89 118 162 213 267 317 372
#     4  11  22  37  65  94 125 158 213 276 321 380
#     4  10  21  39  62  93 136 178 207 254 327 409
#     4  10  23  39  59  96 142 167 204 265 335 390
#     4  10  19  36  57  94 125 159 210 258 325 391
#
# _framework density 22.166523000000002
#
# number of rings (size 3 to 8) (size 9 to 14) (size 15 to 20)
#    0.000    2.000    1.250    1.875    3.500    9.000 
#    2.250    0.000    0.000   12.000    0.000    0.000 
#    0.000    0.000    0.000    0.000    0.000    0.000 
#
# Total GULP energy -178220.757369 kJ/mol
# GULP energy per Si atom -5569.398668 kJ/mol
# Density = 2.211607 g / cm^3
# Si number density = 22.166523 Si / 1000 Ang^3
#
#
#
# Elastic Constant Matrix: (Units=GPa)
#
#
# Indices 1 2 3 4 5 6 
#
# 1 139.8105 30.3402 22.0955 0.0000 28.9067 0.0000
# 2 30.3402 65.1409 7.4132 0.0000 17.2984 0.0000
# 3 22.0955 7.4132 52.7091 0.0001 7.4815 0.0000
# 4 0.0000 0.0000 0.0001 22.0991 0.0000 7.1709
# 5 28.9067 17.2984 7.4815 0.0000 29.0983 0.0000
# 6 0.0000 0.0000 0.0000 7.1709 0.0000 23.8595
#
#
#
# Elastic Compliance Matrix: (Units=1/GPa)
#
#
# Indices 1 2 3 4 5 6 
#
# 1 0.009607 -0.002161 -0.002648 0.000000 -0.007578 0.000000
# 2 -0.002161 0.018773 -0.000472 0.000000 -0.008892 0.000000
# 3 -0.002648 -0.000472 0.020483 0.000000 -0.002355 0.000000
# 4 0.000000 0.000000 0.000000 0.050141 0.000000 -0.015070
# 5 -0.007578 -0.008892 -0.002355 0.000000 0.047787 0.000000
# 6 0.000000 0.000000 0.000000 -0.015070 0.000000 0.046441
#
#
# Mechanical properties :
#
#
# Convention : Reuss Voigt Hill
#
# Bulk Modulus (GPa) = 26.10905 41.92871 34.01888
# Shear Modulus (GPa) = 23.08841 28.19880 25.64361
#
# Velocity S-wave (km/s) = 3.23087 3.57057 3.40496
# Velocity P-wave (km/s) = 5.07170 5.99625 5.55325
#
# Compressibility (1/GPa) = 0.03830089
#
# Stress axis : x y z
#
# Youngs Moduli (GPa) = 104.09401 53.26850 48.82177
#
# Poissons Ratio (x) = 0.11510 0.12926
# Poissons Ratio (y) = 0.22492 0.02306
# Poissons Ratio (z) = 0.27560 0.02516
#
# Static dielectric constant tensor:
#      x y z
#    x 1.998470 0.000000 0.078080 
#    y 0.000000 1.852450 0.000000 
#    z 0.078080 0.000000 1.914020 
# 
# From -- ./inp_files/308822.got.cif
#   From: 2010.05.17/outbox.cif.g08.bks.cpg/sg15_155_cif.got.tgz:308822.got - 2010.06.03 18:47:42.
