data_PCOD9265183
_publ_section_title
;
Structure prediction by ZEFSAII (Michael W. Deem and Ramdas Pophale) SiO2 
 PCOD9265183
Probable space group: C 2/C
;
_chemical_formula_sum "Si O2"
_cell_formula_units_Z 32
_cell_length_a 11.807225
_cell_length_b 21.746755
_cell_length_c 9.615310
_cell_angle_alpha 90.000000
_cell_angle_beta 139.724066
_cell_angle_gamma 90.000000
_cell_volume 1596.075936
_symmetry_space_group_name_H-M "C 2/C"
_symmetry_group_IT_number 15
_symmetry_cell_setting 'monoclinic'
loop_
_space_group_symop_operation_xyz
x,y,z
-x,y,1/2-z
-x,-y,-z
x,-y,1/2+z
1/2+x,1/2+y,z
1/2-x,1/2+y,1/2-z
1/2-x,1/2-y,-z
1/2+x,1/2-y,1/2+z
loop_
_atom_site_type_symbol
_atom_site_label
_atom_site_fract_x
_atom_site_fract_y
_atom_site_fract_z
Si Si1 0.451468 0.098987 0.365516
Si Si2 0.802880 0.175173 0.210649
Si Si3 0.500000 0.572189 0.250000
Si Si4 0.846234 0.535291 0.721353
Si Si5 0.500000 0.221975 0.750000
O O1 0.500000 0.103157 0.250000
O O2 0.325838 0.155843 0.286165
O O3 0.613674 0.087726 0.624789
O O4 0.356431 0.032855 0.296433
O O5 0.927666 0.234435 0.307543
O O6 0.923869 0.117217 0.296022
O O7 0.664324 0.183125 0.954481
O O8 0.662443 0.538126 0.470313
O O9 0.000000 0.540474 0.750000
#
# Coordination Sequence:
#
# PCOD9265183 Si02
#       5
#     8   8   4   8   4
#     4  10  21  38  57  87 133 159 184 245 306 352
#     4  10  19  36  58  89 110 152 206 252 294 336
#     4  11  20  34  68  90 116 158 208 243 276 358
#     4  10  20  38  59  88 126 165 198 231 281 366
#     4   9  20  36  64  82 108 150 220 261 276 340
#
# _framework density 20.04917
#
# number of rings (size 3 to 8) (size 9 to 14) (size 15 to 20)
#    0.000    2.000    2.500    1.500    0.000    1.000 
#    0.000    1.250    0.000    0.000    0.000    0.000 
#    0.000    0.000    0.000    0.000    0.000    0.000 
#
# Total GULP energy -89119.762817 kJ/mol
# GULP energy per Si atom -5569.985176 kJ/mol
# Density = 2.000354 g / cm^3
# Si number density = 20.049170 Si / 1000 Ang^3
#
#
#
# Elastic Constant Matrix: (Units=GPa)
#
#
# Indices 1 2 3 4 5 6 
#
# 1 90.9027 23.5957 29.4965 0.0000 -9.5773 0.0000
# 2 23.5957 39.8432 9.5739 0.0000 4.4415 0.0000
# 3 29.4965 9.5739 108.3616 0.0000 21.1402 0.0000
# 4 0.0000 0.0000 0.0000 17.8747 0.0000 -8.1381
# 5 -9.5773 4.4415 21.1402 0.0000 37.8452 0.0000
# 6 0.0000 0.0000 0.0000 -8.1381 0.0000 30.8707
#
#
#
# Elastic Compliance Matrix: (Units=1/GPa)
#
#
# Indices 1 2 3 4 5 6 
#
# 1 0.015811 -0.009030 -0.005043 0.000000 0.007878 0.000000
# 2 -0.009030 0.030930 0.000987 0.000000 -0.006466 0.000000
# 3 -0.005043 0.000987 0.012105 0.000000 -0.008154 0.000000
# 4 0.000000 0.000000 0.000000 0.063576 0.000000 0.016760
# 5 0.007878 -0.006466 -0.008154 0.000000 0.033731 0.000000
# 6 0.000000 0.000000 0.000000 0.016760 0.000000 0.036811
#
#
# Mechanical properties :
#
#
# Convention : Reuss Voigt Hill
#
# Bulk Modulus (GPa) = 30.60611 40.49331 35.54971
# Shear Modulus (GPa) = 21.73669 29.08087 25.40878
#
# Velocity S-wave (km/s) = 3.29624 3.81265 3.56381
# Velocity P-wave (km/s) = 5.45762 6.29464 5.89102
#
# Compressibility (1/GPa) = 0.03267321
#
# Stress axis : x y z
#
# Youngs Moduli (GPa) = 63.24696 32.33136 82.61349
#
# Poissons Ratio (x) = 0.29195 0.41661
# Poissons Ratio (y) = 0.57112 -0.08152
# Poissons Ratio (z) = 0.31895 -0.03191
#
# Static dielectric constant tensor:
#      x y z
#    x 1.750460 0.000000 0.029170 
#    y 0.000000 1.760740 0.000000 
#    z 0.029170 0.000000 1.764340 
# 
# From -- ./inp_files/29926.got.cif
#   From: 2010.05.17/outbox.cif.g08.bks.cpg/sg15_15_cif.got.tgz:29926.got - 2010.06.03 18:47:42.
