data_PCOD9265125
_publ_section_title
;
Structure prediction by ZEFSAII (Michael W. Deem and Ramdas Pophale) SiO2 
 PCOD9265125
Probable space group: C 2/C
;
_chemical_formula_sum "Si O2"
_cell_formula_units_Z 48
_cell_length_a 13.926381
_cell_length_b 9.146523
_cell_length_c 17.172056
_cell_angle_alpha 90.000000
_cell_angle_beta 85.952121
_cell_angle_gamma 90.000000
_cell_volume 2181.885013
_symmetry_space_group_name_H-M "C 2/C"
_symmetry_group_IT_number 15
_symmetry_cell_setting 'monoclinic'
loop_
_space_group_symop_operation_xyz
x,y,z
-x,y,1/2-z
-x,-y,-z
x,-y,1/2+z
1/2+x,1/2+y,z
1/2-x,1/2+y,1/2-z
1/2-x,1/2-y,-z
1/2+x,1/2-y,1/2+z
loop_
_atom_site_type_symbol
_atom_site_label
_atom_site_fract_x
_atom_site_fract_y
_atom_site_fract_z
Si Si1 0.629527 0.054865 0.595386
Si Si2 0.657249 0.734509 0.649122
Si Si3 0.027133 0.184502 0.049602
Si Si4 0.265512 0.528517 0.437915
Si Si5 0.027653 0.906117 0.375889
Si Si6 0.274516 0.259278 0.186027
O O1 0.536466 0.150661 0.578345
O O2 0.686845 0.143324 0.658937
O O3 0.618125 0.889912 0.623111
O O4 0.695278 0.053067 0.514022
O O5 0.715921 0.640436 0.582560
O O6 0.564027 0.632620 0.671609
O O7 0.720908 0.758911 0.722074
O O8 0.134004 0.110709 0.048171
O O9 0.000125 0.165754 0.961422
O O10 0.964097 0.078497 0.107058
O O11 0.229144 0.608388 0.361858
O O12 0.127084 0.839722 0.343448
#
# Coordination Sequence:
#
# PCOD9265125 Si02
#       6
#     8   8   8   8   8   8
#     4  11  20  38  59  83 112 150 192 237 277 337
#     4  11  24  33  55  88 120 143 181 239 297 335
#     4   9  18  35  61  83 103 150 195 235 268 338
#     4  10  19  38  58  81 110 153 196 225 276 345
#     4  10  19  36  58  82 111 144 193 229 286 336
#     4  11  20  39  59  79 110 155 190 234 279 342
#
# _framework density 21.999326
#
# number of rings (size 3 to 8) (size 9 to 14) (size 15 to 20)
#    0.000    1.667    3.333    3.000    0.000    0.667 
#    0.000    0.000    0.000    6.000    0.000    0.000 
#    0.000    0.000    0.000    0.000    0.000    0.000 
#
# Total GULP energy -134148.892653 kJ/mol
# GULP energy per Si atom -5589.537194 kJ/mol
# Density = 2.194925 g / cm^3
# Si number density = 21.999326 Si / 1000 Ang^3
#
#
#
# Elastic Constant Matrix: (Units=GPa)
#
#
# Indices 1 2 3 4 5 6 
#
# 1 23.3031 -2.9569 2.2990 0.0000 10.1853 0.0000
# 2 -2.9569 136.2598 30.4031 0.0000 3.6621 0.0000
# 3 2.2990 30.4031 71.1578 0.0000 28.7073 0.0000
# 4 0.0000 0.0000 0.0000 16.2717 0.0000 1.1182
# 5 10.1853 3.6621 28.7073 0.0000 24.7748 0.0000
# 6 0.0000 0.0000 0.0000 1.1182 0.0000 28.4382
#
#
#
# Elastic Compliance Matrix: (Units=1/GPa)
#
#
# Indices 1 2 3 4 5 6 
#
# 1 0.059897 -0.001068 0.015758 0.000000 -0.042726 0.000000
# 2 -0.001068 0.008518 -0.006148 0.000000 0.006304 0.000000
# 3 0.015758 -0.006148 0.034586 0.000000 -0.045645 0.000000
# 4 0.000000 0.000000 0.000000 0.061623 0.000000 -0.002423
# 5 -0.042726 0.006304 -0.045645 0.000000 0.109887 0.000000
# 6 0.000000 0.000000 0.000000 -0.002423 0.000000 0.035259
#
#
# Mechanical properties :
#
#
# Convention : Reuss Voigt Hill
#
# Bulk Modulus (GPa) = 8.32743 32.24568 20.28656
# Shear Modulus (GPa) = 15.02787 27.29531 21.16159
#
# Velocity S-wave (km/s) = 2.61647 3.52623 3.10485
# Velocity P-wave (km/s) = 3.59463 5.59182 4.70052
#
# Compressibility (1/GPa) = 0.12008504
#
# Stress axis : x y z
#
# Youngs Moduli (GPa) = 16.69525 117.39632 28.91371
#
# Poissons Ratio (x) = 0.12537 -0.45563
# Poissons Ratio (y) = 0.01783 0.17777
# Poissons Ratio (z) = -0.26309 0.72178
#
# Static dielectric constant tensor:
#      x y z
#    x 1.796900 0.000000 0.025420 
#    y 0.000000 1.827050 0.000000 
#    z 0.025420 0.000000 1.806060 
# 
# From -- ./inp_files/202966.got.cif
#   From: 2010.05.17/outbox.cif.g08.bks.cpg/sg15_102_cif.got.tgz:202966.got - 2010.06.03 18:47:42.
