data_PCOD9265232
_publ_section_title
;
Structure prediction by ZEFSAII (Michael W. Deem and Ramdas Pophale) SiO2 
 PCOD9265232
Probable space group: C 2/C
;
_chemical_formula_sum "Si O2"
_cell_formula_units_Z 56
_cell_length_a 12.952725
_cell_length_b 14.196741
_cell_length_c 16.247677
_cell_angle_alpha 90.000000
_cell_angle_beta 63.522121
_cell_angle_gamma 90.000000
_cell_volume 2674.335095
_symmetry_space_group_name_H-M "C 2/C"
_symmetry_group_IT_number 15
_symmetry_cell_setting 'monoclinic'
loop_
_space_group_symop_operation_xyz
x,y,z
-x,y,1/2-z
-x,-y,-z
x,-y,1/2+z
1/2+x,1/2+y,z
1/2-x,1/2+y,1/2-z
1/2-x,1/2-y,-z
1/2+x,1/2-y,1/2+z
loop_
_atom_site_type_symbol
_atom_site_label
_atom_site_fract_x
_atom_site_fract_y
_atom_site_fract_z
Si Si1 0.429921 0.277792 0.980772
Si Si2 0.449867 0.208127 0.404153
Si Si3 0.371234 0.801413 0.195737
Si Si4 0.375130 0.949523 0.050943
Si Si5 0.669926 0.833805 0.717410
Si Si6 0.367766 0.960706 0.318587
Si Si7 0.235844 0.395063 0.979955
O O1 0.509083 0.246029 0.875479
O O2 0.333277 0.196298 0.026305
O O3 0.506422 0.278818 0.037924
O O4 0.356535 0.367713 0.978199
O O5 0.379631 0.129675 0.479075
O O6 0.371755 0.223604 0.350336
O O7 0.566445 0.169646 0.320268
O O8 0.276781 0.722413 0.214986
O O9 0.349380 0.856133 0.288078
O O10 0.364436 0.890325 0.137198
O O11 0.271868 0.024612 0.085515
O O12 0.500000 0.000000 0.000000
O O13 0.695069 0.943369 0.687619
O O14 0.500000 0.981622 0.250000
O O15 0.341844 0.944551 0.422648
#
# Coordination Sequence:
#
# PCOD9265232 Si02
#       7
#     8   8   8   8   8   8   8
#     4  10  22  35  59  89 122 154 193 250 301 354
#     4  10  19  36  59  83 116 152 200 245 297 339
#     4  11  24  38  61  90 121 154 203 246 304 349
#     4  11  18  36  61  89 112 152 201 248 279 354
#     4  11  22  36  62  92 116 154 204 255 290 352
#     4  12  20  39  63  89 114 159 203 250 283 364
#     4  11  20  36  59  90 121 155 197 245 304 344
#
# _framework density 20.939784
#
# number of rings (size 3 to 8) (size 9 to 14) (size 15 to 20)
#    0.000    1.143    7.143    1.714    0.000    2.286 
#    0.000    0.714    6.286    0.000    0.000    0.000 
#    0.000    0.000    0.000    0.000    0.000    0.000 
#
# Total GULP energy -156049.559936 kJ/mol
# GULP energy per Si atom -5573.198569 kJ/mol
# Density = 2.089212 g / cm^3
# Si number density = 20.939784 Si / 1000 Ang^3
#
#
#
# Elastic Constant Matrix: (Units=GPa)
#
#
# Indices 1 2 3 4 5 6 
#
# 1 78.1514 45.1047 3.4662 0.0000 5.0978 0.0000
# 2 45.1047 65.2694 -3.9378 0.0000 -2.3331 0.0000
# 3 3.4662 -3.9378 16.9452 0.0000 6.2027 0.0000
# 4 0.0000 0.0000 0.0000 11.0304 0.0000 8.7740
# 5 5.0978 -2.3331 6.2027 0.0000 16.8305 0.0000
# 6 0.0000 0.0000 0.0000 8.7740 0.0000 47.8816
#
#
#
# Elastic Compliance Matrix: (Units=1/GPa)
#
#
# Indices 1 2 3 4 5 6 
#
# 1 0.023084 -0.016566 -0.005978 0.000000 -0.007085 0.000000
# 2 -0.016566 0.027441 0.007556 0.000000 0.006037 0.000000
# 3 -0.005978 0.007556 0.070450 0.000000 -0.023106 0.000000
# 4 0.000000 0.000000 0.000000 0.106128 0.000000 -0.019447
# 5 -0.007085 0.006037 -0.023106 0.000000 0.070915 0.000000
# 6 0.000000 0.000000 0.000000 -0.019447 0.000000 0.024448
#
#
# Mechanical properties :
#
#
# Convention : Reuss Voigt Hill
#
# Bulk Modulus (GPa) = 10.98927 27.73692 19.36310
# Shear Modulus (GPa) = 13.06245 22.86401 17.96323
#
# Velocity S-wave (km/s) = 2.50033 3.30797 2.93209
# Velocity P-wave (km/s) = 3.68713 5.27873 4.55302
#
# Compressibility (1/GPa) = 0.09099783
#
# Stress axis : x y z
#
# Youngs Moduli (GPa) = 43.31961 36.44171 14.19438
#
# Poissons Ratio (x) = 0.60371 0.08486
# Poissons Ratio (y) = 0.71765 -0.10725
# Poissons Ratio (z) = 0.25897 -0.27534
#
# Static dielectric constant tensor:
#      x y z
#    x 1.831260 0.000000 0.075090 
#    y 0.000000 1.783860 0.000000 
#    z 0.075090 0.000000 1.828380 
# 
# From -- ./inp_files/197764.got.cif
#   From: 2010.05.17/outbox.cif.g08.bks.cpg/sg15_99_cif.got.tgz:197764.got - 2010.06.03 18:47:42.
