data_PCOD9265472
_publ_section_title
;
Structure prediction by ZEFSAII (Michael W. Deem and Ramdas Pophale) SiO2 
 PCOD9265472
Probable space group: C 2/C
;
_chemical_formula_sum "Si O2"
_cell_formula_units_Z 48
_cell_length_a 19.439445
_cell_length_b 14.364706
_cell_length_c 11.787168
_cell_angle_alpha 90.000000
_cell_angle_beta 44.232118
_cell_angle_gamma 90.000000
_cell_volume 2296.021349
_symmetry_space_group_name_H-M "C 2/C"
_symmetry_group_IT_number 15
_symmetry_cell_setting 'monoclinic'
loop_
_space_group_symop_operation_xyz
x,y,z
-x,y,1/2-z
-x,-y,-z
x,-y,1/2+z
1/2+x,1/2+y,z
1/2-x,1/2+y,1/2-z
1/2-x,1/2-y,-z
1/2+x,1/2-y,1/2+z
loop_
_atom_site_type_symbol
_atom_site_label
_atom_site_fract_x
_atom_site_fract_y
_atom_site_fract_z
Si Si1 0.249592 0.359362 0.015869
Si Si2 0.108385 0.007403 0.567853
Si Si3 0.031881 0.615849 0.836784
Si Si4 0.257740 0.510289 0.285551
Si Si5 0.581270 0.919877 0.832180
Si Si6 0.260743 0.858002 0.018007
O O1 0.343021 0.406099 0.965622
O O2 0.244597 0.417621 0.904823
O O3 0.250000 0.250000 0.000000
O O4 0.148557 0.375348 0.202549
O O5 0.136340 0.021932 0.402233
O O6 0.174964 0.084186 0.554334
O O7 0.000000 0.011296 0.750000
O O8 0.013062 0.504726 0.870514
O O9 0.000000 0.649824 0.750000
O O10 0.975903 0.650010 0.015457
O O11 0.173432 0.540756 0.297034
O O12 0.244352 0.406094 0.351930
O O13 0.632747 0.880694 0.660473
O O14 0.250000 0.750000 0.000000
#
# Coordination Sequence:
#
# PCOD9265472 Si02
#       6
#     8   8   8   8   8   8
#     4  11  23  39  60  94 122 160 211 258 305 367
#     4  10  23  44  62  87 123 172 212 249 313 376
#     4  11  19  36  62  88 120 151 198 250 313 365
#     4  10  19  42  64  80 129 164 198 260 311 362
#     4  10  19  36  61  88 117 159 196 247 314 366
#     4  10  21  39  61  90 123 159 207 257 304 366
#
# _framework density 20.905729999999998
#
# number of rings (size 3 to 8) (size 9 to 14) (size 15 to 20)
#    0.000    1.667    6.667    0.000    0.000    6.000 
#    6.000    2.500    0.000    0.000    0.000    0.000 
#    0.000    0.000    0.000    0.000    0.000    0.000 
#
# Total GULP energy -133621.112813 kJ/mol
# GULP energy per Si atom -5567.546367 kJ/mol
# Density = 2.085815 g / cm^3
# Si number density = 20.905730 Si / 1000 Ang^3
#
#
#
# Elastic Constant Matrix: (Units=GPa)
#
#
# Indices 1 2 3 4 5 6 
#
# 1 23.5860 1.7773 22.2068 0.0000 1.0553 0.0000
# 2 1.7773 101.3272 13.4867 0.0000 -4.3458 0.0000
# 3 22.2068 13.4867 189.3665 0.0000 -22.7382 0.0000
# 4 0.0000 0.0000 0.0000 9.4500 0.0000 -2.8742
# 5 1.0553 -4.3458 -22.7382 0.0000 34.1035 0.0000
# 6 0.0000 0.0000 0.0000 -2.8742 0.0000 0.7224
#
#
#
# Elastic Compliance Matrix: (Units=1/GPa)
#
#
# Indices 1 2 3 4 5 6 
#
# 1 0.048691 -0.000252 -0.006388 0.000000 -0.005798 0.000000
# 2 -0.000252 0.009988 -0.000574 0.000000 0.000898 0.000000
# 3 -0.006388 -0.000574 0.006615 0.000000 0.004535 0.000000
# 4 0.000000 0.000000 0.000000 -0.503887 0.000000 -2.004663
# 5 -0.005798 0.000898 0.004535 0.000000 0.032640 0.000000
# 6 0.000000 0.000000 0.000000 -2.004663 0.000000 -6.591153
#
#
# Mechanical properties :
#
#
# Convention : Reuss Voigt Hill
#
# Bulk Modulus (GPa) = 19.65967 43.24681 31.45324
# Shear Modulus (GPa) = -0.71780 27.30912 13.29566
#
# Velocity S-wave (km/s) = -0.58660 3.61820 2.52460
# Velocity P-wave (km/s) = 2.99426 6.17953 4.85552
#
# Compressibility (1/GPa) = 0.05086556
#
# Stress axis : x y z
#
# Youngs Moduli (GPa) = 20.53766 100.11669 151.16357
#
# Poissons Ratio (x) = 0.02528 0.96566
# Poissons Ratio (y) = 0.00519 0.08676
# Poissons Ratio (z) = 0.13120 0.05746
#
# Static dielectric constant tensor:
#      x y z
#    x 1.821140 0.000000 0.068100 
#    y 0.000000 1.818200 0.000000 
#    z 0.068100 0.000000 1.948730 
# 
# From -- ./inp_files/112917.got.cif
#   From: 2010.05.17/outbox.cif.g08.bks.cpg/sg15_57_cif.got.tgz:112917.got - 2010.06.03 18:47:42.
