data_PCOD9265754
_publ_section_title
;
Structure prediction by ZEFSAII (Michael W. Deem and Ramdas Pophale) SiO2 
 PCOD9265754
Probable space group: C 2/C
;
_chemical_formula_sum "Si O2"
_cell_formula_units_Z 52
_cell_length_a 20.057477
_cell_length_b 25.550458
_cell_length_c 5.146387
_cell_angle_alpha 90.000000
_cell_angle_beta 109.347753
_cell_angle_gamma 90.000000
_cell_volume 2488.461454
_symmetry_space_group_name_H-M "C 2/C"
_symmetry_group_IT_number 15
_symmetry_cell_setting 'monoclinic'
loop_
_space_group_symop_operation_xyz
x,y,z
-x,y,1/2-z
-x,-y,-z
x,-y,1/2+z
1/2+x,1/2+y,z
1/2-x,1/2+y,1/2-z
1/2-x,1/2-y,-z
1/2+x,1/2-y,1/2+z
loop_
_atom_site_type_symbol
_atom_site_label
_atom_site_fract_x
_atom_site_fract_y
_atom_site_fract_z
Si Si1 0.689355 0.337220 0.812950
Si Si2 0.544858 0.636999 0.052448
Si Si3 0.000000 0.461846 0.750000
Si Si4 0.239645 0.691507 0.601457
Si Si5 0.259884 0.943340 0.958483
Si Si6 0.111334 0.026663 0.151774
Si Si7 0.653329 0.088750 0.442763
O O1 0.607537 0.324204 0.716456
O O2 0.709695 0.338306 0.537711
O O3 0.735618 0.303994 0.070485
O O4 0.708632 0.393864 0.953407
O O5 0.500000 0.627447 0.250000
O O6 0.584259 0.583042 0.025617
O O7 0.500000 0.655283 0.750000
O O8 0.070971 0.426413 0.837300
O O9 0.000000 0.500000 0.500000
O O10 0.250000 0.750000 0.500000
O O11 0.172171 0.651133 0.506479
O O12 0.309696 0.944677 0.276144
O O13 0.196922 0.980491 0.776536
O O14 0.310629 0.929316 0.781194
O O15 0.085210 0.014397 0.405830
#
# Coordination Sequence:
#
# PCOD9265754 Si02
#       7
#     8   8   4   8   8   8   8
#     4   9  19  35  55  84 111 137 191 233 279 363
#     4  11  22  36  53  71 106 157 187 225 288 341
#     4  12  26  40  58  86 122 172 212 240 296 376
#     4  10  19  36  65  92 113 146 187 247 311 357
#     4   9  19  35  55  77 105 147 185 242 303 331
#     4  11  22  33  49  76 105 137 192 251 290 332
#     4  10  21  38  58  84 119 151 196 246 293 360
#
# _framework density 20.896446000000001
#
# number of rings (size 3 to 8) (size 9 to 14) (size 15 to 20)
#    0.000    1.846    0.000    4.154    0.000   10.462 
#    0.000    0.000    5.077    0.000    0.000    0.000 
#    0.000    0.000    0.000    0.000    0.000    0.000 
#
# Total GULP energy -144737.180678 kJ/mol
# GULP energy per Si atom -5566.814641 kJ/mol
# Density = 2.084888 g / cm^3
# Si number density = 20.896446 Si / 1000 Ang^3
#
#
#
# Elastic Constant Matrix: (Units=GPa)
#
#
# Indices 1 2 3 4 5 6 
#
# 1 104.8709 14.1037 52.9421 0.0000 18.3148 0.0000
# 2 14.1037 66.9885 19.0290 0.0000 12.9416 0.0000
# 3 52.9421 19.0290 118.3650 0.0000 1.7934 0.0000
# 4 0.0000 0.0000 0.0000 36.1197 0.0000 -29.6748
# 5 18.3148 12.9416 1.7934 0.0000 41.5507 0.0000
# 6 0.0000 0.0000 0.0000 -29.6748 0.0000 21.0572
#
#
#
# Elastic Compliance Matrix: (Units=1/GPa)
#
#
# Indices 1 2 3 4 5 6 
#
# 1 0.013549 -0.000058 -0.005965 0.000000 -0.005697 0.000000
# 2 -0.000058 0.016647 -0.002574 0.000000 -0.005048 0.000000
# 3 -0.005965 -0.002574 0.011486 0.000000 0.002935 0.000000
# 4 0.000000 0.000000 0.000000 -0.175456 0.000000 -0.247261
# 5 -0.005697 -0.005048 0.002935 0.000000 0.028024 0.000000
# 6 0.000000 0.000000 0.000000 -0.247261 0.000000 -0.300962
#
#
# Mechanical properties :
#
#
# Convention : Reuss Voigt Hill
#
# Bulk Modulus (GPa) = 40.83485 51.37490 46.10488
# Shear Modulus (GPa) = -13.11107 33.35547 10.12220
#
# Velocity S-wave (km/s) = -2.50757 3.99962 2.20329
# Velocity P-wave (km/s) = 3.34665 6.77998 5.34641
#
# Compressibility (1/GPa) = 0.02448889
#
# Stress axis : x y z
#
# Youngs Moduli (GPa) = 73.80391 60.07257 87.06494
#
# Poissons Ratio (x) = 0.00347 0.51932
# Poissons Ratio (y) = 0.00426 0.22410
# Poissons Ratio (z) = 0.44022 0.15462
#
# Static dielectric constant tensor:
#      x y z
#    x 1.775870 0.000000 0.003170 
#    y 0.000000 1.865310 0.000000 
#    z 0.003170 0.000000 1.852270 
# 
# From -- ./inp_files/14414.got.cif
#   From: 2010.05.17/outbox.cif.g08.bks.cpg/sg15_8_cif.got.tgz:14414.got - 2010.06.03 18:47:42.
