data_PCOD9265838
_publ_section_title
;
Structure prediction by ZEFSAII (Michael W. Deem and Ramdas Pophale) SiO2 
 PCOD9265838
Probable space group: C 2/C
;
_chemical_formula_sum "Si O2"
_cell_formula_units_Z 52
_cell_length_a 24.525421
_cell_length_b 10.702121
_cell_length_c 13.897189
_cell_angle_alpha 90.000000
_cell_angle_beta 149.160125
_cell_angle_gamma 90.000000
_cell_volume 1869.933811
_symmetry_space_group_name_H-M "C 2/C"
_symmetry_group_IT_number 15
_symmetry_cell_setting 'monoclinic'
loop_
_space_group_symop_operation_xyz
x,y,z
-x,y,1/2-z
-x,-y,-z
x,-y,1/2+z
1/2+x,1/2+y,z
1/2-x,1/2+y,1/2-z
1/2-x,1/2-y,-z
1/2+x,1/2-y,1/2+z
loop_
_atom_site_type_symbol
_atom_site_label
_atom_site_fract_x
_atom_site_fract_y
_atom_site_fract_z
Si Si1 0.718554 0.687937 0.107942
Si Si2 0.103528 0.276666 0.116909
Si Si3 0.936893 0.035124 0.524313
Si Si4 0.644950 0.630407 0.363072
Si Si5 0.000000 0.279248 0.250000
Si Si6 0.087204 0.542863 0.022909
Si Si7 0.241358 0.453084 0.090606
O O1 0.694370 0.757162 0.173674
O O2 0.623007 0.585224 0.969411
O O3 0.828431 0.616503 0.284607
O O4 0.719450 0.807283 0.040911
O O5 0.023912 0.165596 0.964616
O O6 0.155929 0.234151 0.295376
O O7 0.941877 0.586498 0.969170
O O8 0.843989 0.980008 0.314921
O O9 0.032261 0.940808 0.675030
O O10 0.609563 0.699752 0.407018
O O11 0.734228 0.529124 0.469963
O O12 0.004419 0.359674 0.354313
O O13 0.145726 0.504563 0.010816
#
# Coordination Sequence:
#
# PCOD9265838 Si02
#       7
#     8   8   8   8   4   8   8
#     4   8  16  31  61  91 106 140 186 254 285 322
#     4   8  17  32  62  85 106 144 195 242 289 316
#     4   8  16  29  60  91 109 135 190 247 287 323
#     4  11  20  38  55  90 113 156 195 237 288 345
#     4  12  28  34  52  80 126 166 190 228 300 348
#     4  10  19  37  53  89 117 148 191 241 292 351
#     4   9  16  33  61  82 110 142 194 241 289 329
#
# _framework density 27.808471000000001
#
# number of rings (size 3 to 8) (size 9 to 14) (size 15 to 20)
#    0.923    1.846    1.538    2.769    0.000    1.231 
#    0.000    0.769    0.000    0.923    0.000    3.231 
#    0.000    0.000    0.000    0.000    0.000    0.000 
#
# Total GULP energy -145295.305307 kJ/mol
# GULP energy per Si atom -5588.280973 kJ/mol
# Density = 2.774518 g / cm^3
# Si number density = 27.808471 Si / 1000 Ang^3
#
#
#
# Elastic Constant Matrix: (Units=GPa)
#
#
# Indices 1 2 3 4 5 6 
#
# 1 118.2106 47.4031 9.0322 0.0000 6.9148 0.0000
# 2 47.4031 125.4244 25.9811 0.0000 3.1872 0.0000
# 3 9.0322 25.9811 52.5486 0.0000 1.6328 0.0000
# 4 0.0000 0.0000 0.0000 34.8352 0.0000 17.2096
# 5 6.9148 3.1872 1.6328 0.0000 29.3308 0.0000
# 6 0.0000 0.0000 0.0000 17.2096 0.0000 43.7258
#
#
#
# Elastic Compliance Matrix: (Units=1/GPa)
#
#
# Indices 1 2 3 4 5 6 
#
# 1 0.010085 -0.003805 0.000209 0.000000 -0.001976 0.000000
# 2 -0.003805 0.010333 -0.004456 0.000000 0.000022 0.000000
# 3 0.000209 -0.004456 0.021220 0.000000 -0.000746 0.000000
# 4 0.000000 0.000000 0.000000 0.035635 0.000000 -0.014025
# 5 -0.001976 0.000022 -0.000746 0.000000 0.034599 0.000000
# 6 0.000000 0.000000 0.000000 -0.014025 0.000000 0.028390
#
#
# Mechanical properties :
#
#
# Convention : Reuss Voigt Hill
#
# Bulk Modulus (GPa) = 39.16071 51.22405 45.19238
# Shear Modulus (GPa) = 30.32568 35.82951 33.07759
#
# Velocity S-wave (km/s) = 3.30588 3.59338 3.45262
# Velocity P-wave (km/s) = 5.35581 5.97300 5.67281
#
# Compressibility (1/GPa) = 0.02553580
#
# Stress axis : x y z
#
# Youngs Moduli (GPa) = 99.15997 96.77503 47.12474
#
# Poissons Ratio (x) = 0.36818 -0.00985
# Poissons Ratio (y) = 0.37726 0.20997
# Poissons Ratio (z) = -0.02073 0.43120
#
# Static dielectric constant tensor:
#      x y z
#    x 2.209370 0.000000 0.008200 
#    y 0.000000 2.258970 0.000000 
#    z 0.008200 0.000000 2.084160 
# 
# From -- ./inp_files/259128.got.cif
#   From: 2010.05.17/outbox.cif.g08.bks.cpg/sg15_130_cif.got.tgz:259128.got - 2010.06.03 18:47:42.
