data_PCOD9265871
_publ_section_title
;
Structure prediction by ZEFSAII (Michael W. Deem and Ramdas Pophale) SiO2 
 PCOD9265871
Probable space group: C 2/C
;
_chemical_formula_sum "Si O2"
_cell_formula_units_Z 56
_cell_length_a 18.087226
_cell_length_b 11.452184
_cell_length_c 11.647186
_cell_angle_alpha 90.000000
_cell_angle_beta 71.865622
_cell_angle_gamma 90.000000
_cell_volume 2292.742835
_symmetry_space_group_name_H-M "C 2/C"
_symmetry_group_IT_number 15
_symmetry_cell_setting 'monoclinic'
loop_
_space_group_symop_operation_xyz
x,y,z
-x,y,1/2-z
-x,-y,-z
x,-y,1/2+z
1/2+x,1/2+y,z
1/2-x,1/2+y,1/2-z
1/2-x,1/2-y,-z
1/2+x,1/2-y,1/2+z
loop_
_atom_site_type_symbol
_atom_site_label
_atom_site_fract_x
_atom_site_fract_y
_atom_site_fract_z
Si Si1 0.564179 0.233158 0.080098
Si Si2 0.411925 0.525759 0.795903
Si Si3 0.347099 0.860590 0.170205
Si Si4 0.249927 0.023907 0.533895
Si Si5 0.894248 0.210626 0.621541
Si Si6 0.827092 0.393660 0.794568
Si Si7 0.834249 0.297086 0.432520
O O1 0.582002 0.362567 0.119904
O O2 0.471816 0.226355 0.128970
O O3 0.612296 0.146897 0.137629
O O4 0.589929 0.201587 0.939774
O O5 0.500000 0.473408 0.750000
O O6 0.331139 0.470764 0.880607
O O7 0.395812 0.583116 0.677656
O O8 0.275137 0.880362 0.116121
O O9 0.346051 0.794533 0.291514
O O10 0.356338 0.993822 0.211370
O O11 0.249029 0.078304 0.405507
O O12 0.320338 0.931013 0.482296
O O13 0.823739 0.286401 0.707914
O O14 0.892410 0.227694 0.486755
O O15 0.750000 0.250000 0.500000
#
# Coordination Sequence:
#
# PCOD9265871 Si02
#       7
#     8   8   8   8   8   8   8
#     4   9  20  35  55  84 114 150 188 233 287 333
#     4   9  19  37  64  85 108 144 196 246 283 327
#     4  10  20  36  52  85 114 152 185 224 287 341
#     4  10  20  37  58  83 110 143 195 235 275 342
#     4  10  19  37  56  83 117 146 185 236 285 337
#     4   9  18  33  53  84 112 143 190 228 279 335
#     4  11  23  37  56  81 114 151 185 233 290 339
#
# _framework density 24.424893999999998
#
# number of rings (size 3 to 8) (size 9 to 14) (size 15 to 20)
#    0.000    2.286    1.429    2.143    0.000    7.429 
#    5.143    0.000    3.143    5.143    0.000    0.000 
#    0.000    0.000    0.000    0.000    0.000    0.000 
#
# Total GULP energy -156134.905159 kJ/mol
# GULP energy per Si atom -5576.246613 kJ/mol
# Density = 2.436930 g / cm^3
# Si number density = 24.424894 Si / 1000 Ang^3
#
#
#
# Elastic Constant Matrix: (Units=GPa)
#
#
# Indices 1 2 3 4 5 6 
#
# 1 63.8987 -2.4051 35.5802 0.0000 -2.6329 0.0000
# 2 -2.4051 23.9335 22.1078 0.0000 4.2166 0.0000
# 3 35.5802 22.1078 181.0917 0.0000 9.3673 0.0000
# 4 0.0000 0.0000 0.0000 26.0110 0.0000 -4.7411
# 5 -2.6329 4.2166 9.3673 0.0000 35.7019 0.0000
# 6 0.0000 0.0000 0.0000 -4.7411 0.0000 18.7631
#
#
#
# Elastic Compliance Matrix: (Units=1/GPa)
#
#
# Indices 1 2 3 4 5 6 
#
# 1 0.018378 0.005574 -0.004387 0.000000 0.001848 0.000000
# 2 0.005574 0.049386 -0.006938 0.000000 -0.003601 0.000000
# 3 -0.004387 -0.006938 0.007304 0.000000 -0.001421 0.000000
# 4 0.000000 0.000000 0.000000 0.040302 0.000000 0.010184
# 5 0.001848 -0.003601 -0.001421 0.000000 0.028944 0.000000
# 6 0.000000 0.000000 0.000000 0.010184 0.000000 0.055869
#
#
# Mechanical properties :
#
#
# Convention : Reuss Voigt Hill
#
# Bulk Modulus (GPa) = 15.73162 42.16552 28.94857
# Shear Modulus (GPa) = 21.47075 30.33790 25.90433
#
# Velocity S-wave (km/s) = 2.96810 3.52815 3.26017
# Velocity P-wave (km/s) = 4.26626 5.82220 5.10387
#
# Compressibility (1/GPa) = 0.06356626
#
# Stress axis : x y z
#
# Youngs Moduli (GPa) = 54.41150 20.24876 136.90268
#
# Poissons Ratio (x) = -0.11286 0.60059
# Poissons Ratio (y) = -0.30327 0.94981
# Poissons Ratio (z) = 0.23870 0.14048
#
# Static dielectric constant tensor:
#      x y z
#    x 1.977730 0.000000 0.023000 
#    y 0.000000 2.063960 0.000000 
#    z 0.023000 0.000000 2.016850 
# 
# From -- ./inp_files/105281.got.cif
#   From: 2010.05.17/outbox.cif.g08.bks.cpg/sg15_53_cif.got.tgz:105281.got - 2010.06.03 18:47:42.
