data_PCOD9265796
_publ_section_title
;
Structure prediction by ZEFSAII (Michael W. Deem and Ramdas Pophale) SiO2 
 PCOD9265796
Probable space group: C 2/C
;
_chemical_formula_sum "Si O2"
_cell_formula_units_Z 48
_cell_length_a 14.078957
_cell_length_b 15.248118
_cell_length_c 14.391910
_cell_angle_alpha 90.000000
_cell_angle_beta 138.375011
_cell_angle_gamma 90.000000
_cell_volume 2052.287615
_symmetry_space_group_name_H-M "C 2/C"
_symmetry_group_IT_number 15
_symmetry_cell_setting 'monoclinic'
loop_
_space_group_symop_operation_xyz
x,y,z
-x,y,1/2-z
-x,-y,-z
x,-y,1/2+z
1/2+x,1/2+y,z
1/2-x,1/2+y,1/2-z
1/2-x,1/2-y,-z
1/2+x,1/2-y,1/2+z
loop_
_atom_site_type_symbol
_atom_site_label
_atom_site_fract_x
_atom_site_fract_y
_atom_site_fract_z
Si Si1 0.015134 0.270602 0.064056
Si Si2 0.500000 0.262060 0.750000
Si Si3 0.613010 0.572411 0.113788
Si Si4 0.270682 0.050217 0.038690
Si Si5 0.893046 0.709652 0.059195
Si Si6 0.500000 0.353353 0.250000
Si Si7 0.750714 0.886660 0.595571
O O1 0.865134 0.320638 0.944515
O O2 0.117274 0.303093 0.057808
O O3 0.049693 0.289675 0.196329
O O4 0.031482 0.165922 0.062400
O O5 0.368442 0.325967 0.631686
O O6 0.681100 0.562819 0.265952
O O7 0.500000 0.500000 0.000000
O O8 0.729055 0.566730 0.115539
O O9 0.130212 0.085411 0.877844
O O10 0.300523 0.954251 0.020209
O O11 0.399187 0.113538 0.104364
O O12 0.013035 0.781160 0.175366
O O13 0.750000 0.750000 0.000000
#
# Coordination Sequence:
#
# PCOD9265796 Si02
#       7
#     8   4   8   8   8   4   8
#     4  11  23  44  68 101 135 176 234 279 353 403
#     4  10  23  44  69  90 134 176 228 269 344 421
#     4  11  23  42  70  98 133 180 235 282 335 417
#     4  11  22  41  61  99 133 172 227 280 344 406
#     4  10  22  38  66  98 133 172 224 277 347 405
#     4  10  19  36  67  90 128 174 222 281 336 409
#     4  11  25  42  68 100 135 180 227 289 343 417
#
# _framework density 23.388535000000001
#
# number of rings (size 3 to 8) (size 9 to 14) (size 15 to 20)
#    0.000    1.333    3.333    4.000    2.333    2.000 
#    3.000    0.833    0.000    0.000    0.000    0.000 
#    0.000    0.000    0.000    0.000    0.000    0.000 
#
# Total GULP energy -133820.594992 kJ/mol
# GULP energy per Si atom -5575.858125 kJ/mol
# Density = 2.333530 g / cm^3
# Si number density = 23.388535 Si / 1000 Ang^3
#
#
#
# Elastic Constant Matrix: (Units=GPa)
#
#
# Indices 1 2 3 4 5 6 
#
# 1 151.6938 30.2124 28.8795 0.0000 -41.5398 0.0000
# 2 30.2124 54.3278 10.1251 0.0000 0.5380 0.0000
# 3 28.8795 10.1251 71.0912 0.0000 -27.9030 0.0000
# 4 0.0000 0.0000 0.0000 26.8029 0.0000 -4.5567
# 5 -41.5398 0.5380 -27.9030 0.0000 44.6603 0.0000
# 6 0.0000 0.0000 0.0000 -4.5567 0.0000 32.6074
#
#
#
# Elastic Compliance Matrix: (Units=1/GPa)
#
#
# Indices 1 2 3 4 5 6 
#
# 1 0.010469 -0.006036 0.000606 0.000000 0.010189 0.000000
# 2 -0.006036 0.022607 -0.004078 0.000000 -0.008434 0.000000
# 3 0.000606 -0.004078 0.019399 0.000000 0.012733 0.000000
# 4 0.000000 0.000000 0.000000 0.038217 0.000000 0.005341
# 5 0.010189 -0.008434 0.012733 0.000000 0.039925 0.000000
# 6 0.000000 0.000000 0.000000 0.005341 0.000000 0.031414
#
#
# Mechanical properties :
#
#
# Convention : Reuss Voigt Hill
#
# Bulk Modulus (GPa) = 29.88808 46.17186 38.02997
# Shear Modulus (GPa) = 26.01449 34.67384 30.34416
#
# Velocity S-wave (km/s) = 3.33870 3.85452 3.60584
# Velocity P-wave (km/s) = 5.26015 6.29237 5.79927
#
# Compressibility (1/GPa) = 0.03345816
#
# Stress axis : x y z
#
# Youngs Moduli (GPa) = 95.51883 44.23415 51.54987
#
# Poissons Ratio (x) = 0.26699 -0.03123
# Poissons Ratio (y) = 0.57653 0.21024
# Poissons Ratio (z) = -0.05787 0.18040
#
# Static dielectric constant tensor:
#      x y z
#    x 1.976060 0.000000 -0.047410 
#    y 0.000000 1.924770 0.000000 
#    z -0.047410 0.000000 2.054190 
# 
# From -- ./inp_files/154122.got.cif
#   From: 2010.05.17/outbox.cif.g08.bks.cpg/sg15_78_cif.got.tgz:154122.got - 2010.06.03 18:47:42.
