data_PCOD9265216
_publ_section_title
;
Structure prediction by ZEFSAII (Michael W. Deem and Ramdas Pophale) SiO2 
 PCOD9265216
Probable space group: C 2/C
;
_chemical_formula_sum "Si O2"
_cell_formula_units_Z 52
_cell_length_a 8.809345
_cell_length_b 10.478264
_cell_length_c 28.962717
_cell_angle_alpha 90.000000
_cell_angle_beta 83.846707
_cell_angle_gamma 90.000000
_cell_volume 2658.048542
_symmetry_space_group_name_H-M "C 2/C"
_symmetry_group_IT_number 15
_symmetry_cell_setting 'monoclinic'
loop_
_space_group_symop_operation_xyz
x,y,z
-x,y,1/2-z
-x,-y,-z
x,-y,1/2+z
1/2+x,1/2+y,z
1/2-x,1/2+y,1/2-z
1/2-x,1/2-y,-z
1/2+x,1/2-y,1/2+z
loop_
_atom_site_type_symbol
_atom_site_label
_atom_site_fract_x
_atom_site_fract_y
_atom_site_fract_z
Si Si1 0.500000 0.977332 0.750000
Si Si2 0.839190 0.769501 0.237334
Si Si3 0.875185 0.068839 0.473265
Si Si4 0.819042 0.480268 0.099282
Si Si5 0.729054 0.249940 0.641733
Si Si6 0.578521 0.830579 0.318200
Si Si7 0.619593 0.857641 0.054194
O O1 0.638716 0.882558 0.756352
O O2 0.519959 0.056689 0.702611
O O3 0.814737 0.796574 0.184545
O O4 0.696182 0.801795 0.273700
O O5 0.000000 0.825783 0.250000
O O6 0.726816 0.094973 0.509767
O O7 0.926868 0.210055 0.454754
O O8 0.820823 0.982558 0.431993
O O9 0.000000 0.000000 0.500000
O O10 0.809432 0.621373 0.121520
O O11 0.827212 0.379755 0.140917
O O12 0.974819 0.447734 0.067027
O O13 0.550587 0.270562 0.662779
O O14 0.714102 0.153862 0.599124
#
# Coordination Sequence:
#
# PCOD9265216 Si02
#       7
#     4   8   8   8   8   8   8
#     4  10  20  36  56  78 112 146 186 232 284 326
#     4  10  21  35  53  85 110 144 196 231 281 343
#     4  10  21  39  60  89 113 148 192 234 290 343
#     4  10  20  38  59  85 115 152 191 233 288 339
#     4  10  19  36  59  81 110 153 191 229 286 343
#     4  11  20  39  58  78 116 152 186 240 279 334
#     4   9  21  38  61  82 116 150 187 236 287 340
#
# _framework density 19.563224000000002
#
# number of rings (size 3 to 8) (size 9 to 14) (size 15 to 20)
#    0.462    1.538    3.077    0.462    0.000    1.846 
#    2.769   13.846    0.000    0.000    0.000    0.000 
#    0.000    0.000    0.000    0.000    0.000    0.000 
#
# Total GULP energy -144789.288475 kJ/mol
# GULP energy per Si atom -5568.818787 kJ/mol
# Density = 1.951870 g / cm^3
# Si number density = 19.563224 Si / 1000 Ang^3
#
#
#
# Elastic Constant Matrix: (Units=GPa)
#
#
# Indices 1 2 3 4 5 6 
#
# 1 48.1440 28.3165 25.2055 0.0000 30.7893 0.0000
# 2 28.3165 45.8815 16.3888 0.0000 13.6384 0.0000
# 3 25.2055 16.3888 107.7117 0.0000 36.3393 0.0000
# 4 0.0000 0.0000 0.0000 25.6043 0.0000 -0.8568
# 5 30.7893 13.6384 36.3393 0.0000 37.7137 0.0000
# 6 0.0000 0.0000 0.0000 -0.8568 0.0000 25.4228
#
#
#
# Elastic Compliance Matrix: (Units=1/GPa)
#
#
# Indices 1 2 3 4 5 6 
#
# 1 0.065232 -0.027787 0.005245 0.000000 -0.048260 0.000000
# 2 -0.027787 0.036344 -0.003329 0.000000 0.012750 0.000000
# 3 0.005245 -0.003329 0.014226 0.000000 -0.016786 0.000000
# 4 0.000000 0.000000 0.000000 0.039100 0.000000 0.001318
# 5 -0.048260 0.012750 -0.016786 0.000000 0.077479 0.000000
# 6 0.000000 0.000000 0.000000 0.001318 0.000000 0.039379
#
#
# Mechanical properties :
#
#
# Convention : Reuss Voigt Hill
#
# Bulk Modulus (GPa) = 15.61031 37.95096 26.78064
# Shear Modulus (GPa) = 14.49883 26.53659 20.51771
#
# Velocity S-wave (km/s) = 2.72532 3.68700 3.24202
# Velocity P-wave (km/s) = 4.23083 6.12916 5.26623
#
# Compressibility (1/GPa) = 0.06406021
#
# Stress axis : x y z
#
# Youngs Moduli (GPa) = 15.32986 27.51518 70.29182
#
# Poissons Ratio (x) = 0.76456 -0.36867
# Poissons Ratio (y) = 0.42597 0.23400
# Poissons Ratio (z) = -0.08040 0.09160
#
# Static dielectric constant tensor:
#      x y z
#    x 1.691360 0.000000 0.002160 
#    y 0.000000 1.714100 0.000000 
#    z 0.002160 0.000000 1.711730 
# 
# From -- ./inp_files/287659.got.cif
#   From: 2010.05.17/outbox.cif.g08.bks.cpg/sg15_144_cif.got.tgz:287659.got - 2010.06.03 18:47:42.
