data_PCOD9265901
_publ_section_title
;
Structure prediction by ZEFSAII (Michael W. Deem and Ramdas Pophale) SiO2 
 PCOD9265901
Probable space group: C 2/C
;
_chemical_formula_sum "Si O2"
_cell_formula_units_Z 64
_cell_length_a 21.583432
_cell_length_b 17.557579
_cell_length_c 11.686634
_cell_angle_alpha 90.000000
_cell_angle_beta 127.121224
_cell_angle_gamma 90.000000
_cell_volume 3531.256433
_symmetry_space_group_name_H-M "C 2/C"
_symmetry_group_IT_number 15
_symmetry_cell_setting 'monoclinic'
loop_
_space_group_symop_operation_xyz
x,y,z
-x,y,1/2-z
-x,-y,-z
x,-y,1/2+z
1/2+x,1/2+y,z
1/2-x,1/2+y,1/2-z
1/2-x,1/2-y,-z
1/2+x,1/2-y,1/2+z
loop_
_atom_site_type_symbol
_atom_site_label
_atom_site_fract_x
_atom_site_fract_y
_atom_site_fract_z
Si Si1 0.936269 0.583671 0.014698
Si Si2 0.603816 0.066063 0.167829
Si Si3 0.254886 0.121056 0.495487
Si Si4 0.359820 0.208989 0.802136
Si Si5 0.353112 0.794497 0.923013
Si Si6 0.913366 0.179255 0.171774
Si Si7 0.208241 0.556834 0.485710
Si Si8 0.236336 0.791465 0.364080
O O1 0.910038 0.515624 0.902042
O O2 0.928201 0.658639 0.930027
O O3 0.871344 0.577662 0.038411
O O4 0.024890 0.577704 0.150597
O O5 0.606663 0.128586 0.072350
O O6 0.683887 0.071564 0.327027
O O7 0.306969 0.156568 0.656950
O O8 0.278717 0.176104 0.415431
O O9 0.163997 0.127537 0.426621
O O10 0.273183 0.032998 0.486162
O O11 0.396909 0.278414 0.773835
O O12 0.307140 0.224262 0.854970
O O13 0.332794 0.744735 0.788112
O O14 0.403677 0.744540 0.065085
O O15 0.000000 0.146474 0.250000
O O16 0.267047 0.618414 0.606771
O O17 0.250000 0.750000 0.500000
#
# Coordination Sequence:
#
# PCOD9265901 Si02
#       8
#     8   8   8   8   8   8   8   8
#     4  10  21  32  50  83 119 154 180 223 286 350
#     4  11  20  33  51  80 123 151 183 225 283 352
#     4  11  20  37  59  85 112 148 194 248 287 341
#     4  10  19  37  57  84 116 148 193 239 285 352
#     4  11  20  38  57  86 116 149 195 242 287 350
#     4  11  22  37  62  87 112 148 195 257 302 331
#     4  11  22  34  54  82 116 155 192 229 285 342
#     4  11  21  36  59  85 113 155 197 233 277 349
#
# _framework density 18.123860000000001
#
# number of rings (size 3 to 8) (size 9 to 14) (size 15 to 20)
#    0.000    1.250    6.250    1.875    0.000    0.000 
#    0.000    0.000    0.000    0.750    6.500    0.000 
#    0.000    0.000    0.000    0.000    0.000    0.000 
#
# Total GULP energy -178161.417194 kJ/mol
# GULP energy per Si atom -5567.544287 kJ/mol
# Density = 1.808261 g / cm^3
# Si number density = 18.123860 Si / 1000 Ang^3
#
#
#
# Elastic Constant Matrix: (Units=GPa)
#
#
# Indices 1 2 3 4 5 6 
#
# 1 48.9016 -2.5194 10.3266 0.0000 -5.2029 0.0000
# 2 -2.5194 34.4471 0.8617 0.0000 -8.6075 0.0000
# 3 10.3266 0.8617 47.4790 0.0000 -13.4855 0.0000
# 4 0.0000 0.0000 0.0000 7.7266 0.0000 -10.9373
# 5 -5.2029 -8.6075 -13.4855 0.0000 30.4361 0.0000
# 6 0.0000 0.0000 0.0000 -10.9373 0.0000 17.2772
#
#
#
# Elastic Compliance Matrix: (Units=1/GPa)
#
#
# Indices 1 2 3 4 5 6 
#
# 1 0.021695 0.002333 -0.004027 0.000000 0.002584 0.000000
# 2 0.002333 0.031695 0.001803 0.000000 0.010161 0.000000
# 3 -0.004027 0.001803 0.025001 0.000000 0.010899 0.000000
# 4 0.000000 0.000000 0.000000 1.245614 0.000000 0.788531
# 5 0.002584 0.010161 0.010899 0.000000 0.041000 0.000000
# 6 0.000000 0.000000 0.000000 0.788531 0.000000 0.557056
#
#
# Mechanical properties :
#
#
# Convention : Reuss Voigt Hill
#
# Bulk Modulus (GPa) = 12.72112 16.46284 14.59198
# Shear Modulus (GPa) = 2.56668 19.23190 10.89929
#
# Velocity S-wave (km/s) = 1.19133 3.26104 2.45496
# Velocity P-wave (km/s) = 2.98774 4.82519 4.01304
#
# Compressibility (1/GPa) = 0.07860943
#
# Stress axis : x y z
#
# Youngs Moduli (GPa) = 46.09405 31.55105 39.99895
#
# Poissons Ratio (x) = -0.07361 0.16107
# Poissons Ratio (y) = -0.10754 -0.07214
# Poissons Ratio (z) = 0.18562 -0.05690
#
# Static dielectric constant tensor:
#      x y z
#    x 1.654880 0.000000 0.003810 
#    y 0.000000 1.631940 0.000000 
#    z 0.003810 0.000000 1.643580 
# 
# From -- ./inp_files/119257.got.cif
#   From: 2010.05.17/outbox.cif.g08.bks.cpg/sg15_60_cif.got.tgz:119257.got - 2010.06.03 18:47:42.
