data_PCOD9265763
_publ_section_title
;
Structure prediction by ZEFSAII (Michael W. Deem and Ramdas Pophale) SiO2 
 PCOD9265763
Probable space group: C 2/C
;
_chemical_formula_sum "Si O2"
_cell_formula_units_Z 48
_cell_length_a 7.746307
_cell_length_b 15.303782
_cell_length_c 22.186231
_cell_angle_alpha 90.000000
_cell_angle_beta 126.013916
_cell_angle_gamma 90.000000
_cell_volume 2127.443300
_symmetry_space_group_name_H-M "C 2/C"
_symmetry_group_IT_number 15
_symmetry_cell_setting 'monoclinic'
loop_
_space_group_symop_operation_xyz
x,y,z
-x,y,1/2-z
-x,-y,-z
x,-y,1/2+z
1/2+x,1/2+y,z
1/2-x,1/2+y,1/2-z
1/2-x,1/2-y,-z
1/2+x,1/2-y,1/2+z
loop_
_atom_site_type_symbol
_atom_site_label
_atom_site_fract_x
_atom_site_fract_y
_atom_site_fract_z
Si Si1 0.051277 0.247921 0.090345
Si Si2 0.746560 0.944152 0.279795
Si Si3 0.369114 0.453398 0.920889
Si Si4 0.968542 0.235302 0.826765
Si Si5 0.871441 0.581575 0.334690
Si Si6 0.158944 0.291434 0.574844
O O1 0.048039 0.144609 0.073863
O O2 0.295548 0.271339 0.151061
O O3 0.879768 0.259380 0.108064
O O4 0.961993 0.296886 0.012973
O O5 0.500000 0.941444 0.250000
O O6 0.831130 0.848298 0.285053
O O7 0.870784 0.990180 0.360215
O O8 0.246712 0.004853 0.277535
O O9 0.120864 0.443135 0.889157
O O10 0.500000 0.500000 0.000000
O O11 0.865411 0.330227 0.791725
O O12 0.980281 0.242812 0.902675
O O13 0.795653 0.616062 0.383768
#
# Coordination Sequence:
#
# PCOD9265763 Si02
#       6
#     8   8   8   8   8   8
#     4  10  19  36  65  98 131 172 221 277 342 407
#     4  10  20  39  65  99 130 181 230 274 350 413
#     4  10  20  34  65  97 134 172 222 286 338 404
#     4   9  19  37  70  91 127 181 224 272 339 409
#     4   8  20  38  62  95 137 178 218 277 345 400
#     4   9  19  36  65  98 132 172 218 277 345 403
#
# _framework density 22.562294000000001
#
# number of rings (size 3 to 8) (size 9 to 14) (size 15 to 20)
#    1.000    1.667    0.000    1.500    2.333    0.000 
#    3.000    1.667   18.333    0.000    0.000    0.000 
#    0.000    0.000    0.000    1.000    0.000    0.000 
#
# Total GULP energy -134105.799613 kJ/mol
# GULP energy per Si atom -5587.741651 kJ/mol
# Density = 2.251094 g / cm^3
# Si number density = 22.562294 Si / 1000 Ang^3
#
#
#
# Elastic Constant Matrix: (Units=GPa)
#
#
# Indices 1 2 3 4 5 6 
#
# 1 67.4749 6.5893 3.2172 0.0000 -7.8122 0.0000
# 2 6.5893 106.6819 59.5531 0.0000 5.8957 0.0000
# 3 3.2172 59.5531 71.8965 0.0000 -7.5941 0.0000
# 4 0.0000 0.0000 0.0000 43.8833 0.0000 2.4547
# 5 -7.8122 5.8957 -7.5941 0.0000 24.6502 0.0000
# 6 0.0000 0.0000 0.0000 2.4547 0.0000 25.7315
#
#
#
# Elastic Compliance Matrix: (Units=1/GPa)
#
#
# Indices 1 2 3 4 5 6 
#
# 1 0.015670 -0.002373 0.001911 0.000000 0.006122 0.000000
# 2 -0.002373 0.019919 -0.017547 0.000000 -0.010922 0.000000
# 3 0.001911 -0.017547 0.029836 0.000000 0.013994 0.000000
# 4 0.000000 0.000000 0.000000 0.022910 0.000000 -0.002186
# 5 0.006122 -0.010922 0.013994 0.000000 0.049431 0.000000
# 6 0.000000 0.000000 0.000000 -0.002186 0.000000 0.039071
#
#
# Mechanical properties :
#
#
# Convention : Reuss Voigt Hill
#
# Bulk Modulus (GPa) = 34.00515 42.75250 38.37883
# Shear Modulus (GPa) = 22.45614 30.63257 26.54435
#
# Velocity S-wave (km/s) = 3.15825 3.68868 3.43372
# Velocity P-wave (km/s) = 5.32952 6.09357 5.72431
#
# Compressibility (1/GPa) = 0.02940731
#
# Stress axis : x y z
#
# Youngs Moduli (GPa) = 63.81703 50.20372 33.51705
#
# Poissons Ratio (x) = 0.11914 -0.06406
# Poissons Ratio (y) = 0.15144 0.58811
# Poissons Ratio (z) = -0.12197 0.88090
#
# Static dielectric constant tensor:
#      x y z
#    x 1.847090 0.000000 -0.017790 
#    y 0.000000 1.817020 0.000000 
#    z -0.017790 0.000000 1.826160 
# 
# From -- ./inp_files/265352.got.cif
#   From: 2010.05.17/outbox.cif.g08.bks.cpg/sg15_133_cif.got.tgz:265352.got - 2010.06.03 18:47:42.
