data_PCOD9265299
_publ_section_title
;
Structure prediction by ZEFSAII (Michael W. Deem and Ramdas Pophale) SiO2 
 PCOD9265299
Probable space group: C 2/C
;
_chemical_formula_sum "Si O2"
_cell_formula_units_Z 60
_cell_length_a 25.686822
_cell_length_b 19.968927
_cell_length_c 5.372484
_cell_angle_alpha 90.000000
_cell_angle_beta 117.801348
_cell_angle_gamma 90.000000
_cell_volume 2437.656143
_symmetry_space_group_name_H-M "C 2/C"
_symmetry_group_IT_number 15
_symmetry_cell_setting 'monoclinic'
loop_
_space_group_symop_operation_xyz
x,y,z
-x,y,1/2-z
-x,-y,-z
x,-y,1/2+z
1/2+x,1/2+y,z
1/2-x,1/2+y,1/2-z
1/2-x,1/2-y,-z
1/2+x,1/2-y,1/2+z
loop_
_atom_site_type_symbol
_atom_site_label
_atom_site_fract_x
_atom_site_fract_y
_atom_site_fract_z
Si Si1 0.208959 0.927643 0.015465
Si Si2 0.500000 0.147795 0.750000
Si Si3 0.334342 0.961640 0.462059
Si Si4 0.445571 0.749300 0.747023
Si Si5 0.602345 0.524389 0.781185
Si Si6 0.241157 0.689601 0.179721
Si Si7 0.883692 0.655599 0.744292
Si Si8 0.850837 0.837016 0.231600
O O1 0.263676 0.952310 0.302618
O O2 0.169228 0.872225 0.063320
O O3 0.164207 0.986414 0.858050
O O4 0.239839 0.884925 0.870382
O O5 0.475886 0.190915 0.465533
O O6 0.438816 0.119809 0.728299
O O7 0.361188 0.893070 0.415151
O O8 0.349729 0.985956 0.773301
O O9 0.500000 0.708691 0.750000
O O10 0.405944 0.778084 0.436392
O O11 0.404545 0.713040 0.851852
O O12 0.572022 0.489549 0.948183
O O13 0.620899 0.601175 0.863302
O O14 0.291447 0.698524 0.499943
O O15 0.250000 0.750000 0.000000
O O16 0.171192 0.677468 0.052358
#
# Coordination Sequence:
#
# PCOD9265299 Si02
#       8
#     8   4   8   8   8   8   8   8
#     4  10  23  35  58  92 137 183 217 261 347 422
#     4  10  24  46  72  84 134 180 240 278 356 414
#     4  11  25  42  66 101 140 181 230 280 343 422
#     4  10  23  44  66  95 129 182 235 287 347 412
#     4  10  19  36  59  90 128 179 216 259 327 406
#     4  11  22  37  59  99 138 165 212 291 345 411
#     4  10  24  42  68  96 133 184 223 286 351 411
#     4  11  22  37  65  97 134 174 229 279 343 418
#
# _framework density 24.613806
#
# number of rings (size 3 to 8) (size 9 to 14) (size 15 to 20)
#    0.000    1.600    2.667    1.600    9.333    1.600 
#    0.000    0.667    0.000    3.200    0.000    0.000 
#    0.000    0.000    0.000    0.000    0.000    0.000 
#
# Total GULP energy -167474.074296 kJ/mol
# GULP energy per Si atom -5582.469143 kJ/mol
# Density = 2.455778 g / cm^3
# Si number density = 24.613806 Si / 1000 Ang^3
#
#
#
# Elastic Constant Matrix: (Units=GPa)
#
#
# Indices 1 2 3 4 5 6 
#
# 1 138.1329 28.5481 40.3496 0.0000 11.1766 0.0000
# 2 28.5481 61.0107 1.5878 0.0000 9.8647 0.0000
# 3 40.3496 1.5878 65.0614 0.0000 -3.9663 0.0000
# 4 0.0000 0.0000 0.0000 20.1982 0.0000 -16.4182
# 5 11.1766 9.8647 -3.9663 0.0000 37.7932 0.0000
# 6 0.0000 0.0000 0.0000 -16.4182 0.0000 23.9232
#
#
#
# Elastic Compliance Matrix: (Units=1/GPa)
#
#
# Indices 1 2 3 4 5 6 
#
# 1 0.010170 -0.004175 -0.006363 0.000000 -0.002586 0.000000
# 2 -0.004175 0.018858 0.001917 0.000000 -0.003486 0.000000
# 3 -0.006363 0.001917 0.019478 0.000000 0.003426 0.000000
# 4 0.000000 0.000000 0.000000 0.111974 0.000000 0.076846
# 5 -0.002586 -0.003486 0.003426 0.000000 0.028494 0.000000
# 6 0.000000 0.000000 0.000000 0.076846 0.000000 0.094539
#
#
# Mechanical properties :
#
#
# Convention : Reuss Voigt Hill
#
# Bulk Modulus (GPa) = 31.98634 45.01953 38.50294
# Shear Modulus (GPa) = 16.06796 29.29757 22.68276
#
# Velocity S-wave (km/s) = 2.55777 3.45380 3.03899
# Velocity P-wave (km/s) = 4.66331 5.85107 5.29063
#
# Compressibility (1/GPa) = 0.03126334
#
# Stress axis : x y z
#
# Youngs Moduli (GPa) = 98.32654 53.02780 51.33895
#
# Poissons Ratio (x) = 0.22140 0.32667
# Poissons Ratio (y) = 0.41053 -0.09840
# Poissons Ratio (z) = 0.62566 -0.10163
#
# Static dielectric constant tensor:
#      x y z
#    x 1.992570 0.000000 -0.042400 
#    y 0.000000 2.001040 0.000000 
#    z -0.042400 0.000000 2.086580 
# 
# From -- ./inp_files/17526.got.cif
#   From: 2010.05.17/outbox.cif.g08.bks.cpg/sg15_9_cif.got.tgz:17526.got - 2010.06.03 18:47:42.
