data_PCOD9265557
_publ_section_title
;
Structure prediction by ZEFSAII (Michael W. Deem and Ramdas Pophale) SiO2 
 PCOD9265557
Probable space group: C 2/C
;
_chemical_formula_sum "Si O2"
_cell_formula_units_Z 44
_cell_length_a 10.737254
_cell_length_b 7.965593
_cell_length_c 25.165422
_cell_angle_alpha 90.000000
_cell_angle_beta 62.758126
_cell_angle_gamma 90.000000
_cell_volume 1913.627525
_symmetry_space_group_name_H-M "C 2/C"
_symmetry_group_IT_number 15
_symmetry_cell_setting 'monoclinic'
loop_
_space_group_symop_operation_xyz
x,y,z
-x,y,1/2-z
-x,-y,-z
x,-y,1/2+z
1/2+x,1/2+y,z
1/2-x,1/2+y,1/2-z
1/2-x,1/2-y,-z
1/2+x,1/2-y,1/2+z
loop_
_atom_site_type_symbol
_atom_site_label
_atom_site_fract_x
_atom_site_fract_y
_atom_site_fract_z
Si Si1 0.437617 0.455209 0.671203
Si Si2 0.528434 0.060820 0.857677
Si Si3 0.561628 0.570977 0.543294
Si Si4 0.627374 0.960397 0.514620
Si Si5 0.000000 0.594882 0.750000
Si Si6 0.189268 0.912724 0.698019
O O1 0.432426 0.256820 0.657161
O O2 0.451883 0.548990 0.612843
O O3 0.578423 0.487910 0.678108
O O4 0.323019 0.487132 0.739544
O O5 0.499201 0.993427 0.804294
O O6 0.658475 0.952497 0.852798
O O7 0.403223 0.046365 0.922841
O O8 0.500000 0.500000 0.500000
O O9 0.604400 0.762592 0.526924
O O10 0.712767 0.491827 0.530904
O O11 0.500000 0.000000 0.500000
O O12 0.868983 0.723900 0.783374
#
# Coordination Sequence:
#
# PCOD9265557 Si02
#       6
#     8   8   8   8   4   8
#     4   9  20  37  59  88 118 154 199 240 292 354
#     4  10  19  36  62  87 117 155 196 242 294 352
#     4  11  25  42  61  89 122 159 203 249 300 357
#     4  11  25  42  62  89 120 159 205 249 298 357
#     4   8  20  36  54  90 120 148 194 238 296 356
#     4   8  17  35  59  84 117 152 186 238 293 347
#
# _framework density 22.992981
#
# number of rings (size 3 to 8) (size 9 to 14) (size 15 to 20)
#    0.000    2.909    0.000    2.182    0.000   11.636 
#    0.000    5.455    0.000    0.000    0.000    0.000 
#    0.000    0.000    0.000    0.000    0.000    0.000 
#
# Total GULP energy -122667.021788 kJ/mol
# GULP energy per Si atom -5575.773718 kJ/mol
# Density = 2.294065 g / cm^3
# Si number density = 22.992981 Si / 1000 Ang^3
#
#
#
# Elastic Constant Matrix: (Units=GPa)
#
#
# Indices 1 2 3 4 5 6 
#
# 1 72.5565 12.6091 19.7793 0.0000 2.7545 0.0000
# 2 12.6091 42.4470 3.9593 0.0000 1.1897 0.0000
# 3 19.7793 3.9593 108.1023 0.0000 11.0414 0.0000
# 4 0.0000 0.0000 0.0000 24.9902 0.0000 2.2106
# 5 2.7545 1.1897 11.0414 0.0000 41.6112 0.0000
# 6 0.0000 0.0000 0.0000 2.2106 0.0000 25.7194
#
#
#
# Elastic Compliance Matrix: (Units=1/GPa)
#
#
# Indices 1 2 3 4 5 6 
#
# 1 0.015246 -0.004280 -0.002613 0.000000 -0.000194 0.000000
# 2 -0.004280 0.024849 -0.000086 0.000000 -0.000404 0.000000
# 3 -0.002613 -0.000086 0.009984 0.000000 -0.002474 0.000000
# 4 0.000000 0.000000 0.000000 0.040322 0.000000 -0.003466
# 5 -0.000194 -0.000404 -0.002474 0.000000 0.024713 0.000000
# 6 0.000000 0.000000 0.000000 -0.003466 0.000000 0.039179
#
#
# Mechanical properties :
#
#
# Convention : Reuss Voigt Hill
#
# Bulk Modulus (GPa) = 27.68338 32.86678 30.27508
# Shear Modulus (GPa) = 27.73288 30.91471 29.32380
#
# Velocity S-wave (km/s) = 3.47673 3.67076 3.57506
# Velocity P-wave (km/s) = 5.30876 5.68254 5.49883
#
# Compressibility (1/GPa) = 0.03612276
#
# Stress axis : x y z
#
# Youngs Moduli (GPa) = 65.59209 40.24241 100.15614
#
# Poissons Ratio (x) = 0.17222 0.26171
# Poissons Ratio (y) = 0.28071 0.00859
# Poissons Ratio (z) = 0.17139 0.00345
#
# Static dielectric constant tensor:
#      x y z
#    x 1.918160 0.000000 0.027850 
#    y 0.000000 1.894840 0.000000 
#    z 0.027850 0.000000 1.855410 
# 
# From -- ./inp_files/290797.got.cif
#   From: 2010.05.17/outbox.cif.g08.bks.cpg/sg15_146_cif.got.tgz:290797.got - 2010.06.03 18:47:42.
