data_PCOD9265047
_publ_section_title
;
Structure prediction by ZEFSAII (Michael W. Deem and Ramdas Pophale) SiO2 
 PCOD9265047
Probable space group: C 2/C
;
_chemical_formula_sum "Si O2"
_cell_formula_units_Z 52
_cell_length_a 25.349391
_cell_length_b 16.376112
_cell_length_c 14.045164
_cell_angle_alpha 90.000000
_cell_angle_beta 155.889947
_cell_angle_gamma 90.000000
_cell_volume 2381.700957
_symmetry_space_group_name_H-M "C 2/C"
_symmetry_group_IT_number 15
_symmetry_cell_setting 'monoclinic'
loop_
_space_group_symop_operation_xyz
x,y,z
-x,y,1/2-z
-x,-y,-z
x,-y,1/2+z
1/2+x,1/2+y,z
1/2-x,1/2+y,1/2-z
1/2-x,1/2-y,-z
1/2+x,1/2-y,1/2+z
loop_
_atom_site_type_symbol
_atom_site_label
_atom_site_fract_x
_atom_site_fract_y
_atom_site_fract_z
Si Si1 0.743783 0.347531 0.279424
Si Si2 0.347840 0.625464 0.337267
Si Si3 0.379345 0.427492 0.252927
Si Si4 0.500000 0.053362 0.250000
Si Si5 0.840320 0.556930 0.619013
Si Si6 0.147882 0.187456 0.963997
Si Si7 0.311002 0.205900 0.693062
O O1 0.648235 0.402438 0.183625
O O2 0.760170 0.262440 0.362118
O O3 0.720115 0.326967 0.129597
O O4 0.881364 0.392607 0.517454
O O5 0.467165 0.567462 0.508757
O O6 0.321375 0.620349 0.404992
O O7 0.384701 0.718719 0.365871
O O8 0.218780 0.605186 0.068586
O O9 0.343635 0.351450 0.124769
O O10 0.283077 0.499142 0.059847
O O11 0.548771 0.999238 0.241526
O O12 0.875743 0.624021 0.756646
O O13 0.000000 0.209806 0.750000
O O14 0.250000 0.250000 0.500000
#
# Coordination Sequence:
#
# PCOD9265047 Si02
#       7
#     8   8   8   4   8   8   8
#     4  10  19  36  57  82 121 145 196 239 293 349
#     4   9  19  38  58  81 113 154 193 245 290 350
#     4  10  20  32  58  90 108 150 194 249 296 341
#     4  10  22  36  58  86 114 156 182 250 294 350
#     4  10  21  39  55  83 123 149 200 235 303 352
#     4   9  17  33  57  81 112 147 192 238 290 350
#     4   9  20  40  59  79 116 162 190 239 291 353
#
# _framework density 21.833136
#
# number of rings (size 3 to 8) (size 9 to 14) (size 15 to 20)
#    0.000    2.462    0.769    0.923    0.000    3.077 
#    8.308    3.846    0.000    0.000    0.000    0.000 
#    0.000    0.000    0.000    0.000    0.000    0.000 
#
# Total GULP energy -144821.973035 kJ/mol
# GULP energy per Si atom -5570.075886 kJ/mol
# Density = 2.178344 g / cm^3
# Si number density = 21.833136 Si / 1000 Ang^3
#
#
#
# Elastic Constant Matrix: (Units=GPa)
#
#
# Indices 1 2 3 4 5 6 
#
# 1 100.5621 36.3430 26.2337 0.0000 -24.6227 0.0000
# 2 36.3430 77.3962 2.6927 0.0000 -0.1492 0.0000
# 3 26.2337 2.6927 27.1099 0.0000 -12.8811 0.0000
# 4 0.0000 0.0000 0.0000 12.5933 0.0000 -5.7442
# 5 -24.6227 -0.1492 -12.8811 0.0000 31.5925 0.0000
# 6 0.0000 0.0000 0.0000 -5.7442 0.0000 27.4744
#
#
#
# Elastic Compliance Matrix: (Units=1/GPa)
#
#
# Indices 1 2 3 4 5 6 
#
# 1 0.018474 -0.008215 -0.012698 0.000000 0.009182 0.000000
# 2 -0.008215 0.016627 0.004085 0.000000 -0.004659 0.000000
# 3 -0.012698 0.004085 0.054666 0.000000 0.012412 0.000000
# 4 0.000000 0.000000 0.000000 0.087778 0.000000 0.018352
# 5 0.009182 -0.004659 0.012412 0.000000 0.043848 0.000000
# 6 0.000000 0.000000 0.000000 0.018352 0.000000 0.040235
#
#
# Mechanical properties :
#
#
# Convention : Reuss Voigt Hill
#
# Bulk Modulus (GPa) = 17.82221 37.28969 27.55595
# Shear Modulus (GPa) = 15.92414 23.65194 19.78804
#
# Velocity S-wave (km/s) = 2.70359 3.29493 3.01380
# Velocity P-wave (km/s) = 4.23397 5.62067 4.97586
#
# Compressibility (1/GPa) = 0.05610975
#
# Stress axis : x y z
#
# Youngs Moduli (GPa) = 54.13038 60.14265 18.29286
#
# Poissons Ratio (x) = 0.49409 0.23228
# Poissons Ratio (y) = 0.44470 -0.07472
# Poissons Ratio (z) = 0.68735 -0.24566
#
# Static dielectric constant tensor:
#      x y z
#    x 1.790810 0.000000 -0.015590 
#    y 0.000000 1.872670 0.000000 
#    z -0.015590 0.000000 1.790540 
# 
# From -- ./inp_files/113698.got.cif
#   From: 2010.05.17/outbox.cif.g08.bks.cpg/sg15_57_cif.got.tgz:113698.got - 2010.06.03 18:47:42.
