data_PCOD9265987
_publ_section_title
;
Structure prediction by ZEFSAII (Michael W. Deem and Ramdas Pophale) SiO2 
 PCOD9265987
Probable space group: C 2/C
;
_chemical_formula_sum "Si O2"
_cell_formula_units_Z 48
_cell_length_a 20.166649
_cell_length_b 19.445832
_cell_length_c 17.353866
_cell_angle_alpha 90.000000
_cell_angle_beta 158.696370
_cell_angle_gamma 90.000000
_cell_volume 2472.487862
_symmetry_space_group_name_H-M "C 2/C"
_symmetry_group_IT_number 15
_symmetry_cell_setting 'monoclinic'
loop_
_space_group_symop_operation_xyz
x,y,z
-x,y,1/2-z
-x,-y,-z
x,-y,1/2+z
1/2+x,1/2+y,z
1/2-x,1/2+y,1/2-z
1/2-x,1/2-y,-z
1/2+x,1/2-y,1/2+z
loop_
_atom_site_type_symbol
_atom_site_label
_atom_site_fract_x
_atom_site_fract_y
_atom_site_fract_z
Si Si1 0.000000 0.637280 0.250000
Si Si2 0.500000 0.915814 0.250000
Si Si3 0.287174 0.525867 0.495171
Si Si4 0.930983 0.785249 0.455434
Si Si5 0.921737 0.682833 0.001074
Si Si6 0.224835 0.650006 0.129004
Si Si7 0.848585 0.444069 0.813763
O O1 0.170292 0.589660 0.405605
O O2 0.072069 0.681305 0.400340
O O3 0.602653 0.871495 0.425396
O O4 0.659719 0.962375 0.384711
O O5 0.277999 0.529253 0.392158
O O6 0.500000 0.523873 0.750000
O O7 0.021711 0.755408 0.475190
O O8 0.068517 0.825662 0.658901
O O9 0.768556 0.831407 0.247600
O O10 0.865681 0.717012 0.429078
O O11 0.054284 0.622539 0.117859
O O12 0.236708 0.585908 0.200739
O O13 0.000000 0.500000 0.000000
#
# Coordination Sequence:
#
# PCOD9265987 Si02
#       7
#     4   4   8   8   8   8   8
#     4   9  20  36  56  86 118 152 183 242 288 336
#     4  11  22  40  58  86 118 150 195 244 286 336
#     4  10  22  38  56  88 123 149 188 235 291 352
#     4   9  20  38  56  81 113 152 197 233 277 348
#     4   9  19  35  56  81 114 149 191 235 283 342
#     4  10  21  38  60  83 114 152 193 239 286 340
#     4  10  19  37  59  82 114 150 185 237 295 340
#
# _framework density 19.413643
#
# number of rings (size 3 to 8) (size 9 to 14) (size 15 to 20)
#    0.000    2.333    1.667    0.000    2.333    2.667 
#    3.000    1.667    0.000    0.000    0.000    0.000 
#    0.000    0.000    0.000    0.000    0.000    0.000 
#
# Total GULP energy -133679.956662 kJ/mol
# GULP energy per Si atom -5569.998194 kJ/mol
# Density = 1.936946 g / cm^3
# Si number density = 19.413643 Si / 1000 Ang^3
#
#
#
# Elastic Constant Matrix: (Units=GPa)
#
#
# Indices 1 2 3 4 5 6 
#
# 1 53.7950 6.1406 40.2177 -0.0001 -33.4166 -0.0001
# 2 6.1406 34.3946 28.4112 -0.0001 -13.4445 -0.0001
# 3 40.2177 28.4112 171.7740 0.0000 -31.6771 0.0000
# 4 -0.0001 -0.0001 0.0000 16.2353 -0.0001 -20.4742
# 5 -33.4166 -13.4445 -31.6771 -0.0001 38.5899 -0.0002
# 6 -0.0001 -0.0001 0.0000 -20.4742 -0.0002 -7.1590
#
#
#
# Elastic Compliance Matrix: (Units=1/GPa)
#
#
# Indices 1 2 3 4 5 6 
#
# 1 0.045557 0.011580 -0.005377 0.000000 0.039071 -0.000001
# 2 0.011580 0.039124 -0.005679 0.000000 0.018997 -0.000001
# 3 -0.005377 -0.005679 0.008009 0.000000 -0.000060 0.000000
# 4 0.000000 0.000000 0.000000 0.013371 -0.000001 -0.038239
# 5 0.039071 0.018997 -0.000060 -0.000001 0.066316 -0.000001
# 6 -0.000001 -0.000001 0.000000 -0.038239 -0.000001 -0.030322
#
#
# Mechanical properties :
#
#
# Convention : Reuss Voigt Hill
#
# Bulk Modulus (GPa) = 10.66799 45.50029 28.08414
# Shear Modulus (GPa) = 29.02752 21.87949 25.45351
#
# Velocity S-wave (km/s) = 3.87099 3.36075 3.62486
# Velocity P-wave (km/s) = 5.04841 6.20868 5.65836
#
# Compressibility (1/GPa) = 0.09373841
#
# Stress axis : x y z
#
# Youngs Moduli (GPa) = 21.95047 25.56005 124.86569
#
# Poissons Ratio (x) = -0.29599 0.67135
# Poissons Ratio (y) = -0.25419 0.70913
# Poissons Ratio (z) = 0.11802 0.14516
#
# Static dielectric constant tensor:
#      x y z
#    x 1.729580 0.000000 0.046200 
#    y 0.000000 1.673820 0.000000 
#    z 0.046200 0.000000 1.717640 
# 
# From -- ./inp_files/40298.got.cif
#   From: 2010.05.17/outbox.cif.g08.bks.cpg/sg15_21_cif.got.tgz:40298.got - 2010.06.03 18:47:42.
