data_PCOD9265186
_publ_section_title
;
Structure prediction by ZEFSAII (Michael W. Deem and Ramdas Pophale) SiO2 
 PCOD9265186
Probable space group: C 2/C
;
_chemical_formula_sum "Si O2"
_cell_formula_units_Z 60
_cell_length_a 15.479924
_cell_length_b 9.881979
_cell_length_c 24.488449
_cell_angle_alpha 90.000000
_cell_angle_beta 60.959557
_cell_angle_gamma 90.000000
_cell_volume 3275.089877
_symmetry_space_group_name_H-M "C 2/C"
_symmetry_group_IT_number 15
_symmetry_cell_setting 'monoclinic'
loop_
_space_group_symop_operation_xyz
x,y,z
-x,y,1/2-z
-x,-y,-z
x,-y,1/2+z
1/2+x,1/2+y,z
1/2-x,1/2+y,1/2-z
1/2-x,1/2-y,-z
1/2+x,1/2-y,1/2+z
loop_
_atom_site_type_symbol
_atom_site_label
_atom_site_fract_x
_atom_site_fract_y
_atom_site_fract_z
Si Si1 0.000000 0.633756 0.250000
Si Si2 0.430590 0.299190 0.120223
Si Si3 0.357882 0.255732 0.647540
Si Si4 0.348614 0.643841 0.833106
Si Si5 0.650170 0.511307 0.268659
Si Si6 0.616810 0.015798 0.313764
Si Si7 0.386773 0.508920 0.050610
Si Si8 0.837701 0.855245 0.461287
O O1 0.072302 0.735638 0.195263
O O2 0.056003 0.544531 0.277555
O O3 0.408032 0.398038 0.178551
O O4 0.369279 0.373363 0.090822
O O5 0.548409 0.299574 0.070779
O O6 0.393950 0.150806 0.146704
O O7 0.247555 0.208994 0.665882
O O8 0.369564 0.343602 0.698874
O O9 0.414241 0.115484 0.641625
O O10 0.381046 0.360362 0.591852
O O11 0.375909 0.518173 0.786005
O O12 0.328402 0.601195 0.901172
O O13 0.768760 0.495481 0.238197
O O14 0.500000 0.500000 0.000000
O O15 0.329157 0.534609 0.012226
O O16 0.750000 0.750000 0.500000
#
# Coordination Sequence:
#
# PCOD9265186 Si02
#       8
#     4   8   8   8   8   8   8   8
#     4  12  20  36  56  94 116 158 184 260 304 360
#     4  10  20  37  60  89 119 159 200 247 298 363
#     4  10  20  35  57  89 115 153 193 241 300 360
#     4  11  19  33  60  87 118 148 207 244 294 356
#     4  10  19  36  58  89 117 156 194 248 302 366
#     4  11  20  34  59  89 122 151 190 244 313 361
#     4   9  20  37  57  82 114 157 201 241 285 356
#     4  11  20  35  60  92 113 157 214 253 282 345
#
# _framework density 18.320108999999999
#
# number of rings (size 3 to 8) (size 9 to 14) (size 15 to 20)
#    0.000    1.600    5.333    0.800    0.000    0.000 
#    0.000    7.333    0.000    3.200    0.000    0.000 
#    0.000    0.000    0.000    0.000    0.000    0.000 
#
# Total GULP energy -167069.236989 kJ/mol
# GULP energy per Si atom -5568.974566 kJ/mol
# Density = 1.827841 g / cm^3
# Si number density = 18.320109 Si / 1000 Ang^3
#
#
#
# Elastic Constant Matrix: (Units=GPa)
#
#
# Indices 1 2 3 4 5 6 
#
# 1 75.3756 38.6352 31.3083 0.0000 2.9456 0.0000
# 2 38.6352 118.3497 49.6982 0.0000 14.6083 0.0000
# 3 31.3083 49.6982 107.1410 0.0000 19.3047 0.0000
# 4 0.0000 0.0000 0.0000 16.7328 0.0000 9.1780
# 5 2.9456 14.6083 19.3047 0.0000 25.6944 0.0000
# 6 0.0000 0.0000 0.0000 9.1780 0.0000 29.9891
#
#
#
# Elastic Compliance Matrix: (Units=1/GPa)
#
#
# Indices 1 2 3 4 5 6 
#
# 1 0.016850 -0.004452 -0.003431 0.000000 0.003177 0.000000
# 2 -0.004452 0.011831 -0.003547 0.000000 -0.003551 0.000000
# 3 -0.003431 -0.003547 0.013355 0.000000 -0.007624 0.000000
# 4 0.000000 0.000000 0.000000 0.071819 0.000000 -0.021980
# 5 0.003177 -0.003551 -0.007624 0.000000 0.046302 0.000000
# 6 0.000000 0.000000 0.000000 -0.021980 0.000000 0.040072
#
#
# Mechanical properties :
#
#
# Convention : Reuss Voigt Hill
#
# Bulk Modulus (GPa) = 52.15047 60.01665 56.08356
# Shear Modulus (GPa) = 21.78834 26.56490 24.17662
#
# Velocity S-wave (km/s) = 3.45238 3.81207 3.63668
# Velocity P-wave (km/s) = 6.66483 7.22544 6.95079
#
# Compressibility (1/GPa) = 0.01917528
#
# Stress axis : x y z
#
# Youngs Moduli (GPa) = 59.34761 84.52608 74.87738
#
# Poissons Ratio (x) = 0.37631 0.25692
# Poissons Ratio (y) = 0.26421 0.26559
# Poissons Ratio (z) = 0.20364 0.29981
#
# Static dielectric constant tensor:
#      x y z
#    x 1.644840 0.000000 0.027010 
#    y 0.000000 1.615060 0.000000 
#    z 0.027010 0.000000 1.673350 
# 
# From -- ./inp_files/273144.got.cif
#   From: 2010.05.17/outbox.cif.g08.bks.cpg/sg15_137_cif.got.tgz:273144.got - 2010.06.03 18:47:42.
