data_PCOD9265730
_publ_section_title
;
Structure prediction by ZEFSAII (Michael W. Deem and Ramdas Pophale) SiO2 
 PCOD9265730
Probable space group: C 2/C
;
_chemical_formula_sum "Si O2"
_cell_formula_units_Z 64
_cell_length_a 7.932220
_cell_length_b 22.314137
_cell_length_c 23.005708
_cell_angle_alpha 90.000000
_cell_angle_beta 43.582072
_cell_angle_gamma 90.000000
_cell_volume 2807.225271
_symmetry_space_group_name_H-M "C 2/C"
_symmetry_group_IT_number 15
_symmetry_cell_setting 'monoclinic'
loop_
_space_group_symop_operation_xyz
x,y,z
-x,y,1/2-z
-x,-y,-z
x,-y,1/2+z
1/2+x,1/2+y,z
1/2-x,1/2+y,1/2-z
1/2-x,1/2-y,-z
1/2+x,1/2-y,1/2+z
loop_
_atom_site_type_symbol
_atom_site_label
_atom_site_fract_x
_atom_site_fract_y
_atom_site_fract_z
Si Si1 0.705916 0.692604 0.149309
Si Si2 0.278864 0.404807 0.162842
Si Si3 0.172955 0.383153 0.059573
Si Si4 0.292449 0.035515 0.264395
Si Si5 0.717829 0.577692 0.093531
Si Si6 0.028899 0.786911 0.336725
Si Si7 0.723623 0.974644 0.342240
Si Si8 0.089687 0.735153 0.863916
O O1 0.500000 0.683372 0.250000
O O2 0.844586 0.631733 0.096720
O O3 0.876318 0.744867 0.133897
O O4 0.560172 0.710282 0.126812
O O5 0.297641 0.401327 0.088748
O O6 0.290332 0.473104 0.183087
O O7 0.461698 0.356490 0.145367
O O8 0.000000 0.385222 0.250000
O O9 0.900466 0.411229 0.127367
O O10 0.121366 0.313218 0.071296
O O11 0.286043 0.411019 0.973684
O O12 0.500000 0.065799 0.250000
O O13 0.402352 0.014433 0.176194
O O14 0.061314 0.076810 0.314361
O O15 0.802910 0.512298 0.092858
O O16 0.231068 0.783048 0.234613
O O17 0.773338 0.763610 0.373106
O O18 0.000000 0.970316 0.250000
#
# Coordination Sequence:
#
# PCOD9265730 Si02
#       8
#     8   8   8   8   8   8   8   8
#     4  10  20  44  63  86 126 170 219 258 306 381
#     4  11  18  36  63  91 124 159 205 268 322 366
#     4  12  22  38  62  96 132 161 205 267 333 379
#     4  10  20  40  63  87 115 167 218 254 301 380
#     4  11  26  40  59  90 134 175 197 258 328 380
#     4  10  19  36  64  97 118 156 220 271 309 361
#     4  10  21  39  63  88 120 167 211 255 303 377
#     4  10  21  34  64  96 117 159 216 271 310 366
#
# _framework density 22.798311999999999
#
# number of rings (size 3 to 8) (size 9 to 14) (size 15 to 20)
#    0.000    1.500    5.000    1.875    5.250    1.000 
#    6.750    0.625    0.000    0.000    0.000    0.000 
#    0.000    0.000    0.000    0.000    0.000    0.000 
#
# Total GULP energy -178605.291321 kJ/mol
# GULP energy per Si atom -5581.415354 kJ/mol
# Density = 2.274642 g / cm^3
# Si number density = 22.798312 Si / 1000 Ang^3
#
#
#
# Elastic Constant Matrix: (Units=GPa)
#
#
# Indices 1 2 3 4 5 6 
#
# 1 98.7674 25.7933 9.1336 0.0000 22.0413 0.0000
# 2 25.7933 54.6774 10.8013 0.0000 4.5111 0.0000
# 3 9.1336 10.8013 48.3168 0.0000 24.6139 0.0000
# 4 0.0000 0.0000 0.0000 13.1848 0.0000 17.6362
# 5 22.0413 4.5111 24.6139 0.0000 25.0380 0.0000
# 6 0.0000 0.0000 0.0000 17.6362 0.0000 27.2959
#
#
#
# Elastic Compliance Matrix: (Units=1/GPa)
#
#
# Indices 1 2 3 4 5 6 
#
# 1 0.016461 -0.007927 0.010647 0.000000 -0.023530 0.000000
# 2 -0.007927 0.022981 -0.010186 0.000000 0.012851 0.000000
# 3 0.010647 -0.010186 0.049681 0.000000 -0.056377 0.000000
# 4 0.000000 0.000000 0.000000 0.558700 0.000000 -0.360982
# 5 -0.023530 0.012851 -0.056377 0.000000 0.113760 0.000000
# 6 0.000000 0.000000 0.000000 -0.360982 0.000000 0.269870
#
#
# Mechanical properties :
#
#
# Convention : Reuss Voigt Hill
#
# Bulk Modulus (GPa) = 13.47869 32.57977 23.02923
# Shear Modulus (GPa) = 4.66803 23.50596 14.08700
#
# Velocity S-wave (km/s) = 1.43247 3.21446 2.48845
# Velocity P-wave (km/s) = 2.94295 5.30080 4.28716
#
# Compressibility (1/GPa) = 0.07419119
#
# Stress axis : x y z
#
# Youngs Moduli (GPa) = 60.74794 43.51497 20.12838
#
# Poissons Ratio (x) = 0.34496 -0.21431
# Poissons Ratio (y) = 0.48158 0.20502
# Poissons Ratio (z) = -0.64679 0.44322
#
# Static dielectric constant tensor:
#      x y z
#    x 1.896470 0.000000 0.015600 
#    y 0.000000 1.831200 0.000000 
#    z 0.015600 0.000000 1.840550 
# 
# From -- ./inp_files/266067.got.cif
#   From: 2010.05.17/outbox.cif.g08.bks.cpg/sg15_134_cif.got.tgz:266067.got - 2010.06.03 18:47:42.
