data_PCOD9265407
_publ_section_title
;
Structure prediction by ZEFSAII (Michael W. Deem and Ramdas Pophale) SiO2 
 PCOD9265407
Probable space group: C 2/C
;
_chemical_formula_sum "Si O2"
_cell_formula_units_Z 60
_cell_length_a 24.506290
_cell_length_b 8.165563
_cell_length_c 13.818809
_cell_angle_alpha 90.000000
_cell_angle_beta 114.447075
_cell_angle_gamma 90.000000
_cell_volume 2517.328094
_symmetry_space_group_name_H-M "C 2/C"
_symmetry_group_IT_number 15
_symmetry_cell_setting 'monoclinic'
loop_
_space_group_symop_operation_xyz
x,y,z
-x,y,1/2-z
-x,-y,-z
x,-y,1/2+z
1/2+x,1/2+y,z
1/2-x,1/2+y,1/2-z
1/2-x,1/2-y,-z
1/2+x,1/2-y,1/2+z
loop_
_atom_site_type_symbol
_atom_site_label
_atom_site_fract_x
_atom_site_fract_y
_atom_site_fract_z
Si Si1 0.126592 0.952885 0.280129
Si Si2 0.949391 0.806152 0.021670
Si Si3 0.334000 0.781690 0.528769
Si Si4 0.572694 0.328269 0.061803
Si Si5 0.321748 0.736166 0.994838
Si Si6 0.760996 0.536014 0.835246
Si Si7 0.000000 0.975489 0.250000
Si Si8 0.793666 0.562977 0.640264
O O1 0.149454 0.880692 0.399289
O O2 0.103090 0.811150 0.188890
O O3 0.189944 0.997288 0.274987
O O4 0.064008 0.050934 0.258913
O O5 0.892415 0.695417 0.002912
O O6 0.008124 0.743762 0.009555
O O7 0.977022 0.866810 0.143919
O O8 0.931679 0.973704 0.953851
O O9 0.277885 0.806246 0.414608
O O10 0.324177 0.914825 0.605708
O O11 0.614514 0.278874 0.005482
O O12 0.276049 0.588961 0.940421
O O13 0.290672 0.886461 0.914543
O O14 0.323879 0.780402 0.109271
O O15 0.791700 0.554221 0.753566
#
# Coordination Sequence:
#
# PCOD9265407 Si02
#       8
#     8   8   8   8   8   8   4   8
#     4  10  19  36  60  90 121 156 206 263 309 373
#     4   9  20  37  64  93 119 161 217 266 309 375
#     4  10  22  39  61  92 124 160 212 262 315 385
#     4  10  19  38  63  89 123 165 207 262 319 362
#     4  10  22  39  57  85 128 163 199 262 320 378
#     4  11  22  37  60  91 124 167 209 258 320 384
#     4   8  18  34  56  88 118 152 202 260 310 352
#     4  10  22  37  56  87 123 164 202 248 325 375
#
# _framework density 23.834795
#
# number of rings (size 3 to 8) (size 9 to 14) (size 15 to 20)
#    0.000    2.133    1.333    1.200    0.000    8.533 
#    0.000    5.333    0.000    1.600    0.000    7.467 
#    0.000    0.000    0.000    0.000    0.000    0.000 
#
# Total GULP energy -167235.784055 kJ/mol
# GULP energy per Si atom -5574.526135 kJ/mol
# Density = 2.378055 g / cm^3
# Si number density = 23.834795 Si / 1000 Ang^3
#
#
#
# Elastic Constant Matrix: (Units=GPa)
#
#
# Indices 1 2 3 4 5 6 
#
# 1 221.1451 21.9695 41.5040 0.0000 -13.4179 0.0000
# 2 21.9695 35.7622 18.2408 0.0000 3.5367 0.0000
# 3 41.5040 18.2408 108.6896 0.0000 -14.4183 0.0000
# 4 0.0000 0.0000 0.0000 14.5519 0.0000 -5.3633
# 5 -13.4179 3.5367 -14.4183 0.0000 42.8392 0.0000
# 6 0.0000 0.0000 0.0000 -5.3633 0.0000 28.4163
#
#
#
# Elastic Compliance Matrix: (Units=1/GPa)
#
#
# Indices 1 2 3 4 5 6 
#
# 1 0.005113 -0.002595 -0.001336 0.000000 0.001366 0.000000
# 2 -0.002595 0.032730 -0.005200 0.000000 -0.005265 0.000000
# 3 -0.001336 -0.005200 0.011079 0.000000 0.003740 0.000000
# 4 0.000000 0.000000 0.000000 0.073857 0.000000 0.013940
# 5 0.001366 -0.005265 0.003740 0.000000 0.025464 0.000000
# 6 0.000000 0.000000 0.000000 0.013940 0.000000 0.037822
#
#
# Mechanical properties :
#
#
# Convention : Reuss Voigt Hill
#
# Bulk Modulus (GPa) = 32.61554 58.78060 45.69807
# Shear Modulus (GPa) = 23.30471 36.08699 29.69585
#
# Velocity S-wave (km/s) = 3.13031 3.89530 3.53356
# Velocity P-wave (km/s) = 5.17482 6.70420 5.98854
#
# Compressibility (1/GPa) = 0.03066023
#
# Stress axis : x y z
#
# Youngs Moduli (GPa) = 195.56795 30.55309 90.25682
#
# Poissons Ratio (x) = 0.07928 0.12057
# Poissons Ratio (y) = 0.50750 0.46938
# Poissons Ratio (z) = 0.26124 0.15889
#
# Static dielectric constant tensor:
#      x y z
#    x 2.003310 0.000000 -0.016580 
#    y 0.000000 2.044820 0.000000 
#    z -0.016580 0.000000 1.949960 
# 
# From -- ./inp_files/172446.got.cif
#   From: 2010.05.17/outbox.cif.g08.bks.cpg/sg15_87_cif.got.tgz:172446.got - 2010.06.03 18:47:42.
