data_PCOD9265661
_publ_section_title
;
Structure prediction by ZEFSAII (Michael W. Deem and Ramdas Pophale) SiO2 
 PCOD9265661
Probable space group: C 2/C
;
_chemical_formula_sum "Si O2"
_cell_formula_units_Z 56
_cell_length_a 8.124134
_cell_length_b 20.832537
_cell_length_c 17.180352
_cell_angle_alpha 90.000000
_cell_angle_beta 113.959346
_cell_angle_gamma 90.000000
_cell_volume 2657.165024
_symmetry_space_group_name_H-M "C 2/C"
_symmetry_group_IT_number 15
_symmetry_cell_setting 'monoclinic'
loop_
_space_group_symop_operation_xyz
x,y,z
-x,y,1/2-z
-x,-y,-z
x,-y,1/2+z
1/2+x,1/2+y,z
1/2-x,1/2+y,1/2-z
1/2-x,1/2-y,-z
1/2+x,1/2-y,1/2+z
loop_
_atom_site_type_symbol
_atom_site_label
_atom_site_fract_x
_atom_site_fract_y
_atom_site_fract_z
Si Si1 0.965130 0.565660 0.390266
Si Si2 0.542306 0.577443 0.595794
Si Si3 0.924984 0.163119 0.349891
Si Si4 0.802007 0.695162 0.337782
Si Si5 0.431829 0.709035 0.528822
Si Si6 0.162392 0.021932 0.219691
Si Si7 0.746399 0.473397 0.998590
O O1 0.956649 0.640393 0.368913
O O2 0.842742 0.533422 0.302110
O O3 0.871488 0.556607 0.456867
O O4 0.146627 0.526019 0.430512
O O5 0.432039 0.642486 0.577710
O O6 0.671754 0.549830 0.686580
O O7 0.408599 0.516593 0.568511
O O8 0.656930 0.577600 0.538460
O O9 0.779990 0.199922 0.265676
O O10 0.939818 0.190870 0.439102
O O11 0.867464 0.087821 0.335966
O O12 0.123671 0.170230 0.349338
O O13 0.895828 0.753499 0.401489
O O14 0.250000 0.750000 0.500000
O O15 0.000000 0.023438 0.250000
#
# Coordination Sequence:
#
# PCOD9265661 Si02
#       7
#     8   8   8   8   8   8   8
#     4  10  19  36  63  92 116 153 208 256 313 369
#     4  11  22  38  57  86 125 163 199 254 326 364
#     4  10  20  41  70  87 116 168 220 263 315 373
#     4  10  20  40  64  89 119 165 218 259 305 384
#     4  12  26  41  58  91 131 173 209 255 315 379
#     4  11  19  39  67  91 118 158 205 265 324 368
#     4  10  20  35  59  90 120 154 204 265 309 374
#
# _framework density 21.075094
#
# number of rings (size 3 to 8) (size 9 to 14) (size 15 to 20)
#    0.000    1.429    4.286    3.857    0.000    1.143 
#    2.571    5.714    0.000    0.000    0.000    0.000 
#    0.000    0.000    0.000    0.000    0.000    0.000 
#
# Total GULP energy -156204.348812 kJ/mol
# GULP energy per Si atom -5578.726743 kJ/mol
# Density = 2.102713 g / cm^3
# Si number density = 21.075094 Si / 1000 Ang^3
#
#
#
# Elastic Constant Matrix: (Units=GPa)
#
#
# Indices 1 2 3 4 5 6 
#
# 1 36.3088 7.5456 8.6835 0.0000 -2.3023 0.0000
# 2 7.5456 72.8618 58.1363 0.0000 -7.1390 0.0000
# 3 8.6835 58.1363 120.2929 0.0000 2.8244 0.0000
# 4 0.0000 0.0000 0.0000 42.8256 0.0000 9.0688
# 5 -2.3023 -7.1390 2.8244 0.0000 21.7733 0.0000
# 6 0.0000 0.0000 0.0000 9.0688 0.0000 29.2269
#
#
#
# Elastic Compliance Matrix: (Units=1/GPa)
#
#
# Indices 1 2 3 4 5 6 
#
# 1 0.028363 -0.001620 -0.001326 0.000000 0.002640 0.000000
# 2 -0.001620 0.024228 -0.011810 0.000000 0.009304 0.000000
# 3 -0.001326 -0.011810 0.014254 0.000000 -0.005862 0.000000
# 4 0.000000 0.000000 0.000000 0.024993 0.000000 -0.007755
# 5 0.002640 0.009304 -0.005862 0.000000 0.050018 0.000000
# 6 0.000000 0.000000 0.000000 -0.007755 0.000000 0.036621
#
#
# Mechanical properties :
#
#
# Convention : Reuss Voigt Hill
#
# Bulk Modulus (GPa) = 26.78773 42.02159 34.40466
# Shear Modulus (GPa) = 22.68251 29.10505 25.89378
#
# Velocity S-wave (km/s) = 3.28422 3.72023 3.50900
# Velocity P-wave (km/s) = 5.20765 6.19966 5.72518
#
# Compressibility (1/GPa) = 0.03733052
#
# Stress axis : x y z
#
# Youngs Moduli (GPa) = 35.25739 41.27532 70.15451
#
# Poissons Ratio (x) = 0.06688 0.09304
# Poissons Ratio (y) = 0.05713 0.82855
# Poissons Ratio (z) = 0.04676 0.48748
#
# Static dielectric constant tensor:
#      x y z
#    x 1.773350 0.000000 0.001230 
#    y 0.000000 1.802560 0.000000 
#    z 0.001230 0.000000 1.874780 
# 
# From -- ./inp_files/193050.got.cif
#   From: 2010.05.17/outbox.cif.g08.bks.cpg/sg15_97_cif.got.tgz:193050.got - 2010.06.03 18:47:42.
