data_PCOD9265097
_publ_section_title
;
Structure prediction by ZEFSAII (Michael W. Deem and Ramdas Pophale) SiO2 
 PCOD9265097
Probable space group: C 2/C
;
_chemical_formula_sum "Si O2"
_cell_formula_units_Z 52
_cell_length_a 14.661069
_cell_length_b 9.419214
_cell_length_c 22.335335
_cell_angle_alpha 90.000000
_cell_angle_beta 130.061708
_cell_angle_gamma 90.000000
_cell_volume 2360.662114
_symmetry_space_group_name_H-M "C 2/C"
_symmetry_group_IT_number 15
_symmetry_cell_setting 'monoclinic'
loop_
_space_group_symop_operation_xyz
x,y,z
-x,y,1/2-z
-x,-y,-z
x,-y,1/2+z
1/2+x,1/2+y,z
1/2-x,1/2+y,1/2-z
1/2-x,1/2-y,-z
1/2+x,1/2-y,1/2+z
loop_
_atom_site_type_symbol
_atom_site_label
_atom_site_fract_x
_atom_site_fract_y
_atom_site_fract_z
Si Si1 0.292294 0.313498 0.143107
Si Si2 0.829359 0.035736 0.542805
Si Si3 0.081829 0.751164 0.876079
Si Si4 0.500000 0.538458 0.250000
Si Si5 0.016901 0.350559 0.039253
Si Si6 0.942849 0.899448 0.425288
Si Si7 0.295813 0.999208 0.637523
O O1 0.274647 0.354494 0.065809
O O2 0.384998 0.435501 0.201571
O O3 0.157101 0.319013 0.109180
O O4 0.342943 0.155441 0.176152
O O5 0.967521 0.082230 0.591835
O O6 0.822900 0.874129 0.564903
O O7 0.769062 0.035145 0.453087
O O8 0.121799 0.629967 0.846630
O O9 0.040665 0.678037 0.920150
O O10 0.991446 0.854134 0.802561
O O11 0.000000 0.500000 0.000000
O O12 0.956007 0.248687 0.964312
O O13 0.806718 0.946181 0.360588
O O14 0.000000 0.000000 0.500000
#
# Coordination Sequence:
#
# PCOD9265097 Si02
#       7
#     8   8   8   4   8   8   8
#     4  11  23  42  64  92 133 169 221 263 309 403
#     4  10  19  36  62  97 136 161 197 266 347 379
#     4  11  23  42  63  92 135 173 218 265 317 411
#     4  10  28  48  60  80 128 198 228 252 314 380
#     4  12  24  38  69 107 135 158 214 283 355 389
#     4  10  19  36  58 101 136 158 188 258 354 389
#     4  11  20  35  66  97 128 161 207 277 338 373
#
# _framework density 22.027718
#
# number of rings (size 3 to 8) (size 9 to 14) (size 15 to 20)
#    0.000    1.231    6.154    1.846    6.462    0.615 
#    0.000    6.154    0.000    0.000    0.000    0.000 
#    0.000    0.000    0.000    0.000    0.000    0.000 
#
# Total GULP energy -144994.241958 kJ/mol
# GULP energy per Si atom -5576.701614 kJ/mol
# Density = 2.197758 g / cm^3
# Si number density = 22.027718 Si / 1000 Ang^3
#
#
#
# Elastic Constant Matrix: (Units=GPa)
#
#
# Indices 1 2 3 4 5 6 
#
# 1 84.9681 34.0372 4.6658 0.0000 19.9510 0.0000
# 2 34.0372 186.1387 18.1988 0.0000 7.0900 0.0000
# 3 4.6658 18.1988 45.8648 0.0000 5.2482 0.0000
# 4 0.0000 0.0000 0.0000 27.8811 0.0000 -2.4474
# 5 19.9510 7.0900 5.2482 0.0000 16.4732 0.0000
# 6 0.0000 0.0000 0.0000 -2.4474 0.0000 26.5364
#
#
#
# Elastic Compliance Matrix: (Units=1/GPa)
#
#
# Indices 1 2 3 4 5 6 
#
# 1 0.017571 -0.002582 0.001603 0.000000 -0.020680 0.000000
# 2 -0.002582 0.006018 -0.002270 0.000000 0.001260 0.000000
# 3 0.001603 -0.002270 0.023508 0.000000 -0.008455 0.000000
# 4 0.000000 0.000000 0.000000 0.036159 0.000000 0.003335
# 5 -0.020680 0.001260 -0.008455 0.000000 0.087903 0.000000
# 6 0.000000 0.000000 0.000000 0.003335 0.000000 0.037992
#
#
# Mechanical properties :
#
#
# Convention : Reuss Voigt Hill
#
# Bulk Modulus (GPa) = 24.62968 47.86389 36.24679
# Shear Modulus (GPa) = 21.81676 31.51613 26.66644
#
# Velocity S-wave (km/s) = 3.15051 3.78663 3.48312
# Velocity P-wave (km/s) = 4.94366 6.39486 5.71550
#
# Compressibility (1/GPa) = 0.04060143
#
# Stress axis : x y z
#
# Youngs Moduli (GPa) = 56.91090 166.15697 42.53850
#
# Poissons Ratio (x) = 0.42904 -0.06821
# Poissons Ratio (y) = 0.14695 0.09654
# Poissons Ratio (z) = -0.09126 0.37710
#
# Static dielectric constant tensor:
#      x y z
#    x 1.841820 0.000000 0.036880 
#    y 0.000000 1.793890 0.000000 
#    z 0.036880 0.000000 1.876320 
# 
# From -- ./inp_files/295279.got.cif
#   From: 2010.05.17/outbox.cif.g08.bks.cpg/sg15_148_cif.got.tgz:295279.got - 2010.06.03 18:47:42.
