data_PCOD9265384
_publ_section_title
;
Structure prediction by ZEFSAII (Michael W. Deem and Ramdas Pophale) SiO2 
 PCOD9265384
Probable space group: C 2/C
;
_chemical_formula_sum "Si O2"
_cell_formula_units_Z 56
_cell_length_a 15.896916
_cell_length_b 12.457849
_cell_length_c 15.115335
_cell_angle_alpha 90.000000
_cell_angle_beta 127.759975
_cell_angle_gamma 90.000000
_cell_volume 2366.579932
_symmetry_space_group_name_H-M "C 2/C"
_symmetry_group_IT_number 15
_symmetry_cell_setting 'monoclinic'
loop_
_space_group_symop_operation_xyz
x,y,z
-x,y,1/2-z
-x,-y,-z
x,-y,1/2+z
1/2+x,1/2+y,z
1/2-x,1/2+y,1/2-z
1/2-x,1/2-y,-z
1/2+x,1/2-y,1/2+z
loop_
_atom_site_type_symbol
_atom_site_label
_atom_site_fract_x
_atom_site_fract_y
_atom_site_fract_z
Si Si1 0.824697 0.035567 0.375598
Si Si2 0.900856 0.735726 0.596156
Si Si3 0.412761 0.094258 0.330092
Si Si4 0.883483 0.738262 0.839934
Si Si5 0.713046 0.564430 0.466409
Si Si6 0.644476 0.695178 0.636759
Si Si7 0.120420 0.452194 0.023472
O O1 0.696159 0.052600 0.283185
O O2 0.882856 0.141664 0.379121
O O3 0.837528 0.999554 0.484993
O O4 0.865456 0.930319 0.350652
O O5 0.817225 0.639543 0.558215
O O6 0.866029 0.845530 0.622679
O O7 0.886836 0.773962 0.483455
O O8 0.025469 0.710189 0.672574
O O9 0.410885 0.222649 0.332085
O O10 0.532216 0.053880 0.388508
O O11 0.401460 0.050468 0.423849
O O12 0.768919 0.721301 0.723737
O O13 0.888623 0.654637 0.924304
O O14 0.762213 0.475569 0.434593
#
# Coordination Sequence:
#
# PCOD9265384 Si02
#       7
#     8   8   8   8   8   8   8
#     4  10  23  37  58  93 123 155 203 258 296 364
#     4  10  20  41  59  91 121 158 198 262 298 354
#     4  10  19  36  60  88 117 158 210 245 288 369
#     4  11  22  38  66  88 116 169 211 235 306 370
#     4  10  22  36  60  89 128 148 192 260 314 338
#     4  10  19  36  61  90 117 152 212 257 281 358
#     4  11  19  36  63  84 117 166 198 243 309 363
#
# _framework density 23.662839000000002
#
# number of rings (size 3 to 8) (size 9 to 14) (size 15 to 20)
#    0.000    1.714    4.286    0.857    0.000    3.429 
#    2.571    2.143    0.000    0.000    0.000    0.000 
#    0.000    0.000    0.000    0.000    0.000    0.000 
#
# Total GULP energy -156348.204008 kJ/mol
# GULP energy per Si atom -5583.864429 kJ/mol
# Density = 2.360898 g / cm^3
# Si number density = 23.662839 Si / 1000 Ang^3
#
#
#
# Elastic Constant Matrix: (Units=GPa)
#
#
# Indices 1 2 3 4 5 6 
#
# 1 65.5117 27.4029 -5.6679 0.0000 12.6945 0.0000
# 2 27.4029 178.9345 -7.7539 0.0000 -12.0057 0.0000
# 3 -5.6679 -7.7539 37.8891 0.0000 12.9689 0.0000
# 4 0.0000 0.0000 0.0000 23.1695 0.0000 -3.6955
# 5 12.6945 -12.0057 12.9689 0.0000 22.9201 0.0000
# 6 0.0000 0.0000 0.0000 -3.6955 0.0000 31.1687
#
#
#
# Elastic Compliance Matrix: (Units=1/GPa)
#
#
# Indices 1 2 3 4 5 6 
#
# 1 0.021498 -0.004191 0.008911 0.000000 -0.019144 0.000000
# 2 -0.004191 0.006610 -0.001555 0.000000 0.006663 0.000000
# 3 0.008911 -0.001555 0.036432 0.000000 -0.026364 0.000000
# 4 0.000000 0.000000 0.000000 0.043992 0.000000 0.005216
# 5 -0.019144 0.006663 -0.026364 0.000000 0.072640 0.000000
# 6 0.000000 0.000000 0.000000 0.005216 0.000000 0.032702
#
#
# Mechanical properties :
#
#
# Convention : Reuss Voigt Hill
#
# Bulk Modulus (GPa) = 14.11021 34.47750 24.29386
# Shear Modulus (GPa) = 21.62943 33.34196 27.48570
#
# Velocity S-wave (km/s) = 3.02663 3.75779 3.41186
# Velocity P-wave (km/s) = 4.26497 5.78187 5.08035
#
# Compressibility (1/GPa) = 0.07087067
#
# Stress axis : x y z
#
# Youngs Moduli (GPa) = 46.51616 151.28366 27.44870
#
# Poissons Ratio (x) = 0.63397 -0.24460
# Poissons Ratio (y) = 0.19493 0.04268
# Poissons Ratio (z) = -0.41451 0.23522
#
# Static dielectric constant tensor:
#      x y z
#    x 1.962250 0.000000 0.027640 
#    y 0.000000 1.910570 0.000000 
#    z 0.027640 0.000000 1.996140 
# 
# From -- ./inp_files/210701.got.cif
#   From: 2010.05.17/outbox.cif.g08.bks.cpg/sg15_106_cif.got.tgz:210701.got - 2010.06.03 18:47:42.
