data_PCOD9265379
_publ_section_title
;
Structure prediction by ZEFSAII (Michael W. Deem and Ramdas Pophale) SiO2 
 PCOD9265379
Probable space group: C 2/C
;
_chemical_formula_sum "Si O2"
_cell_formula_units_Z 48
_cell_length_a 11.448413
_cell_length_b 9.256302
_cell_length_c 22.101494
_cell_angle_alpha 90.000000
_cell_angle_beta 55.779212
_cell_angle_gamma 90.000000
_cell_volume 1936.623198
_symmetry_space_group_name_H-M "C 2/C"
_symmetry_group_IT_number 15
_symmetry_cell_setting 'monoclinic'
loop_
_space_group_symop_operation_xyz
x,y,z
-x,y,1/2-z
-x,-y,-z
x,-y,1/2+z
1/2+x,1/2+y,z
1/2-x,1/2+y,1/2-z
1/2-x,1/2-y,-z
1/2+x,1/2-y,1/2+z
loop_
_atom_site_type_symbol
_atom_site_label
_atom_site_fract_x
_atom_site_fract_y
_atom_site_fract_z
Si Si1 0.028189 0.702580 0.450448
Si Si2 0.388853 0.856381 0.875690
Si Si3 0.538236 0.566607 0.672546
Si Si4 0.854254 0.595899 0.607947
Si Si5 0.583536 0.877721 0.280350
Si Si6 0.343880 0.501820 0.627963
O O1 0.894044 0.681391 0.445047
O O2 0.982032 0.654984 0.530380
O O3 0.128449 0.578605 0.393396
O O4 0.098717 0.859430 0.426386
O O5 0.503178 0.736552 0.818559
O O6 0.466739 0.006713 0.836996
O O7 0.232425 0.885947 0.893404
O O8 0.500000 0.513515 0.750000
O O9 0.703676 0.599142 0.619542
O O10 0.473331 0.475563 0.636983
O O11 0.856690 0.673429 0.672398
O O12 0.500000 0.797588 0.250000
O O13 0.719513 0.948152 0.209333
#
# Coordination Sequence:
#
# PCOD9265379 Si02
#       6
#     8   8   8   8   8   8
#     4   9  21  40  61  81 119 166 197 245 307 367
#     4   9  20  37  61  83 117 158 199 249 308 363
#     4  11  20  35  59  89 117 152 195 256 309 359
#     4  10  20  39  58  85 122 156 193 248 312 359
#     4   9  17  35  58  81 110 152 200 240 295 361
#     4  10  19  36  60  88 113 153 210 246 296 373
#
# _framework density 24.785409999999999
#
# number of rings (size 3 to 8) (size 9 to 14) (size 15 to 20)
#    0.000    2.333    1.667    1.500    0.000    2.667 
#    0.000   24.167    0.000    0.000    0.000    0.000 
#    0.000    0.000    0.000    0.000    0.000    0.000 
#
# Total GULP energy -133703.238252 kJ/mol
# GULP energy per Si atom -5570.968261 kJ/mol
# Density = 2.472900 g / cm^3
# Si number density = 24.785410 Si / 1000 Ang^3
#
#
#
# Elastic Constant Matrix: (Units=GPa)
#
#
# Indices 1 2 3 4 5 6 
#
# 1 140.8380 32.2360 15.9419 0.0000 11.9092 0.0000
# 2 32.2360 90.0190 -0.8019 0.0000 -1.4802 0.0000
# 3 15.9419 -0.8019 49.6134 0.0000 9.3646 0.0000
# 4 0.0000 0.0000 0.0000 -6.9530 0.0000 0.1508
# 5 11.9092 -1.4802 9.3646 0.0000 36.3647 0.0000
# 6 0.0000 0.0000 0.0000 0.1508 0.0000 23.6890
#
#
#
# Elastic Compliance Matrix: (Units=1/GPa)
#
#
# Indices 1 2 3 4 5 6 
#
# 1 0.008235 -0.003006 -0.002273 0.000000 -0.002234 0.000000
# 2 -0.003006 0.012214 0.000929 0.000000 0.001242 0.000000
# 3 -0.002273 0.000929 0.021814 0.000000 -0.004835 0.000000
# 4 0.000000 0.000000 0.000000 -0.143803 0.000000 0.000915
# 5 -0.002234 0.001242 -0.004835 0.000000 0.029526 0.000000
# 6 0.000000 0.000000 0.000000 0.000915 0.000000 0.042208
#
#
# Mechanical properties :
#
#
# Convention : Reuss Voigt Hill
#
# Bulk Modulus (GPa) = 29.79527 41.69139 35.74333
# Shear Modulus (GPa) = -504.09201 26.15977 -238.96612
#
# Velocity S-wave (km/s) = -14.27670 3.25229 -9.82972
# Velocity P-wave (km/s) = 16.11577 5.56423 10.69480
#
# Compressibility (1/GPa) = 0.03356237
#
# Stress axis : x y z
#
# Youngs Moduli (GPa) = 121.44027 81.87431 45.84239
#
# Poissons Ratio (x) = 0.24610 0.10419
# Poissons Ratio (y) = 0.36502 -0.04258
# Poissons Ratio (z) = 0.27602 -0.07604
#
# Static dielectric constant tensor:
#      x y z
#    x 2.208220 0.000000 0.068570 
#    y 0.000000 2.311330 0.000000 
#    z 0.068570 0.000000 1.953760 
# 
# From -- ./inp_files/291936.got.cif
#   From: 2010.05.17/outbox.cif.g08.bks.cpg/sg15_146_cif.got.tgz:291936.got - 2010.06.03 18:47:42.
