data_PCOD9265541
_publ_section_title
;
Structure prediction by ZEFSAII (Michael W. Deem and Ramdas Pophale) SiO2 
 PCOD9265541
Probable space group: C 2/C
;
_chemical_formula_sum "Si O2"
_cell_formula_units_Z 60
_cell_length_a 23.170742
_cell_length_b 8.984910
_cell_length_c 21.828167
_cell_angle_alpha 90.000000
_cell_angle_beta 42.747937
_cell_angle_gamma 90.000000
_cell_volume 3084.582101
_symmetry_space_group_name_H-M "C 2/C"
_symmetry_group_IT_number 15
_symmetry_cell_setting 'monoclinic'
loop_
_space_group_symop_operation_xyz
x,y,z
-x,y,1/2-z
-x,-y,-z
x,-y,1/2+z
1/2+x,1/2+y,z
1/2-x,1/2+y,1/2-z
1/2-x,1/2-y,-z
1/2+x,1/2-y,1/2+z
loop_
_atom_site_type_symbol
_atom_site_label
_atom_site_fract_x
_atom_site_fract_y
_atom_site_fract_z
Si Si1 0.853225 0.976205 0.850482
Si Si2 0.209374 0.524545 0.063110
Si Si3 0.000000 0.783824 0.750000
Si Si4 0.868648 0.553177 0.201352
Si Si5 0.645237 0.947666 0.927235
Si Si6 0.034668 0.520623 0.632856
Si Si7 0.788103 0.714037 0.831560
Si Si8 0.724429 0.277782 0.147842
O O1 0.928596 0.900692 0.827839
O O2 0.845126 0.856564 0.802226
O O3 0.857280 0.133526 0.814645
O O4 0.770788 0.989244 0.958295
O O5 0.112499 0.543106 0.113823
O O6 0.211623 0.383340 0.106537
O O7 0.243971 0.662254 0.077043
O O8 0.001664 0.665610 0.804401
O O9 0.890929 0.549120 0.112934
O O10 0.823795 0.396566 0.253143
O O11 0.801871 0.680322 0.273301
O O12 0.951205 0.572619 0.180210
O O13 0.699426 0.794859 0.888217
O O14 0.705471 0.095133 0.891490
O O15 0.578518 0.943716 0.033999
#
# Coordination Sequence:
#
# PCOD9265541 Si02
#       8
#     8   8   4   8   8   8   8   8
#     4  11  20  35  57  90 120 148 194 244 308 353
#     4  11  20  38  63  91 119 151 196 247 311 363
#     4  12  22  36  60  96 120 156 196 258 296 356
#     4  11  23  40  60  88 122 160 206 242 290 353
#     4  11  23  40  63  86 119 165 205 242 288 359
#     4  12  22  37  64  87 121 157 200 244 300 358
#     4  10  19  36  62  84 113 156 198 247 290 354
#     4  10  23  39  61  91 119 154 195 252 305 348
#
# _framework density 19.451581000000001
#
# number of rings (size 3 to 8) (size 9 to 14) (size 15 to 20)
#    0.000    1.067    5.333    3.600    0.000    1.067 
#    0.000    0.000    0.000    0.800    0.000    0.000 
#    0.000    0.000    0.000    0.000    0.000    0.000 
#
# Total GULP energy -167029.871374 kJ/mol
# GULP energy per Si atom -5567.662379 kJ/mol
# Density = 1.940731 g / cm^3
# Si number density = 19.451581 Si / 1000 Ang^3
#
#
#
# Elastic Constant Matrix: (Units=GPa)
#
#
# Indices 1 2 3 4 5 6 
#
# 1 67.6353 30.5776 21.6280 0.0002 4.7820 -0.0002
# 2 30.5776 83.8160 34.4307 0.0002 6.9292 -0.0004
# 3 21.6280 34.4307 85.7131 0.0000 11.2212 -0.0001
# 4 0.0002 0.0002 0.0000 12.7165 0.0000 -4.3980
# 5 4.7820 6.9292 11.2212 0.0000 33.5881 0.0001
# 6 -0.0002 -0.0004 -0.0001 -4.3980 0.0001 19.3826
#
#
#
# Elastic Compliance Matrix: (Units=1/GPa)
#
#
# Indices 1 2 3 4 5 6 
#
# 1 0.018087 -0.005634 -0.002213 0.000000 -0.000674 0.000000
# 2 -0.005634 0.016081 -0.004924 0.000000 -0.000870 0.000000
# 3 -0.002213 -0.004924 0.014671 0.000000 -0.003570 0.000000
# 4 0.000000 0.000000 0.000000 0.085334 0.000000 0.019363
# 5 -0.000674 -0.000870 -0.003570 0.000000 0.031241 0.000000
# 6 0.000000 0.000000 0.000000 0.019363 0.000000 0.055986
#
#
# Mechanical properties :
#
#
# Convention : Reuss Voigt Hill
#
# Bulk Modulus (GPa) = 42.92316 45.60412 44.26364
# Shear Modulus (GPa) = 19.63037 23.17266 21.40152
#
# Velocity S-wave (km/s) = 3.18022 3.45527 3.32059
# Velocity P-wave (km/s) = 5.96655 6.27808 6.12430
#
# Compressibility (1/GPa) = 0.02329745
#
# Stress axis : x y z
#
# Youngs Moduli (GPa) = 55.28692 62.18518 68.16373
#
# Poissons Ratio (x) = 0.35035 0.15082
# Poissons Ratio (y) = 0.31149 0.33565
# Poissons Ratio (z) = 0.12233 0.30621
#
# Static dielectric constant tensor:
#      x y z
#    x 1.811880 0.000000 -0.073690 
#    y 0.000000 1.707660 0.000000 
#    z -0.073690 0.000000 1.703690 
# 
# From -- ./inp_files/218604.got.cif
#   From: 2010.05.17/outbox.cif.g08.bks.cpg/sg15_110_cif.got.tgz:218604.got - 2010.06.03 18:47:42.
