data_PCOD9265328
_publ_section_title
;
Structure prediction by ZEFSAII (Michael W. Deem and Ramdas Pophale) SiO2 
 PCOD9265328
Probable space group: C 2/C
;
_chemical_formula_sum "Si O2"
_cell_formula_units_Z 24
_cell_length_a 4.952776
_cell_length_b 12.601210
_cell_length_c 20.103104
_cell_angle_alpha 90.000000
_cell_angle_beta 58.634940
_cell_angle_gamma 90.000000
_cell_volume 1071.309549
_symmetry_space_group_name_H-M "C 2/C"
_symmetry_group_IT_number 15
_symmetry_cell_setting 'monoclinic'
loop_
_space_group_symop_operation_xyz
x,y,z
-x,y,1/2-z
-x,-y,-z
x,-y,1/2+z
1/2+x,1/2+y,z
1/2-x,1/2+y,1/2-z
1/2-x,1/2-y,-z
1/2+x,1/2-y,1/2+z
loop_
_atom_site_type_symbol
_atom_site_label
_atom_site_fract_x
_atom_site_fract_y
_atom_site_fract_z
Si Si1 0.414955 0.801595 0.335165
Si Si2 0.162591 0.411060 0.023750
Si Si3 0.238442 0.208294 0.408627
O O1 0.500000 0.833916 0.250000
O O2 0.366748 0.900620 0.392101
O O3 0.676685 0.730726 0.338558
O O4 0.103469 0.727982 0.373982
O O5 0.953373 0.305918 0.032530
O O6 0.529554 0.391761 0.957801
O O7 0.000000 0.500000 0.000000
#
# Coordination Sequence:
#
# PCOD9265328 Si02
#       3
#     8   8   8
#     4  10  19  36  60  83 122 166 210 260 321 377
#     4   9  20  35  61  90 121 159 212 261 312 384
#     4   9  20  36  57  88 116 162 215 246 327 381
#
# _framework density 22.40249
#
# number of rings (size 3 to 8) (size 9 to 14) (size 15 to 20)
#    2.000    0.667    0.000    2.000    0.000    1.333 
#    0.000    0.000    7.333    0.000    0.000    0.000 
#    0.000    0.000    0.000    0.000    0.000    0.000 
#
# Total GULP energy -66804.088462 kJ/mol
# GULP energy per Si atom -5567.007372 kJ/mol
# Density = 2.235150 g / cm^3
# Si number density = 22.402490 Si / 1000 Ang^3
#
#
#
# Elastic Constant Matrix: (Units=GPa)
#
#
# Indices 1 2 3 4 5 6 
#
# 1 137.2944 29.2386 58.3090 0.0000 14.6757 0.0000
# 2 29.2386 77.2647 56.7793 0.0000 11.1498 0.0000
# 3 58.3090 56.7793 180.7547 0.0000 46.7381 0.0000
# 4 0.0000 0.0000 0.0000 16.2468 0.0000 2.6427
# 5 14.6757 11.1498 46.7381 0.0000 47.5171 0.0000
# 6 0.0000 0.0000 0.0000 2.6427 0.0000 45.0533
#
#
#
# Elastic Compliance Matrix: (Units=1/GPa)
#
#
# Indices 1 2 3 4 5 6 
#
# 1 0.008585 -0.001582 -0.002257 0.000000 -0.000060 0.000000
# 2 -0.001582 0.017218 -0.005338 0.000000 0.001698 0.000000
# 3 -0.002257 -0.005338 0.009968 0.000000 -0.007855 0.000000
# 4 0.000000 0.000000 0.000000 0.062144 0.000000 -0.003645
# 5 -0.000060 0.001698 -0.007855 0.000000 0.028392 0.000000
# 6 0.000000 0.000000 0.000000 -0.003645 0.000000 0.022410
#
#
# Mechanical properties :
#
#
# Convention : Reuss Voigt Hill
#
# Bulk Modulus (GPa) = 57.40677 75.99640 66.70158
# Shear Modulus (GPa) = 28.92238 38.49589 33.70913
#
# Velocity S-wave (km/s) = 3.59699 4.14983 3.88326
# Velocity P-wave (km/s) = 6.55225 7.54707 7.06718
#
# Compressibility (1/GPa) = 0.01741955
#
# Stress axis : x y z
#
# Youngs Moduli (GPa) = 116.47557 58.07737 100.31763
#
# Poissons Ratio (x) = 0.09185 0.22643
# Poissons Ratio (y) = 0.18421 0.53546
# Poissons Ratio (z) = 0.26290 0.31000
#
# Static dielectric constant tensor:
#      x y z
#    x 1.898380 0.000000 0.038630 
#    y 0.000000 1.916460 0.000000 
#    z 0.038630 0.000000 1.850660 
# 
# From -- ./inp_files/127761.got.cif
#   From: 2010.05.17/outbox.cif.g08.bks.cpg/sg15_64_cif.got.tgz:127761.got - 2010.06.03 18:47:42.
