data_PCOD9265383
_publ_section_title
;
Structure prediction by ZEFSAII (Michael W. Deem and Ramdas Pophale) SiO2 
 PCOD9265383
Probable space group: C 2/C
;
_chemical_formula_sum "Si O2"
_cell_formula_units_Z 56
_cell_length_a 27.257087
_cell_length_b 25.651282
_cell_length_c 12.460732
_cell_angle_alpha 90.000000
_cell_angle_beta 19.570396
_cell_angle_gamma 90.000000
_cell_volume 2918.308574
_symmetry_space_group_name_H-M "C 2/C"
_symmetry_group_IT_number 15
_symmetry_cell_setting 'monoclinic'
loop_
_space_group_symop_operation_xyz
x,y,z
-x,y,1/2-z
-x,-y,-z
x,-y,1/2+z
1/2+x,1/2+y,z
1/2-x,1/2+y,1/2-z
1/2-x,1/2-y,-z
1/2+x,1/2-y,1/2+z
loop_
_atom_site_type_symbol
_atom_site_label
_atom_site_fract_x
_atom_site_fract_y
_atom_site_fract_z
Si Si1 0.916892 0.237191 0.631226
Si Si2 0.882451 0.569695 0.230509
Si Si3 0.000000 0.173074 0.250000
Si Si4 0.100900 0.517583 0.953115
Si Si5 0.000000 0.302354 0.750000
Si Si6 0.779097 0.388590 0.147455
Si Si7 0.161151 0.219839 0.276003
Si Si8 0.442663 0.839321 0.246552
O O1 0.947132 0.207484 0.458413
O O2 0.005029 0.206527 0.542767
O O3 0.988556 0.293412 0.466295
O O4 0.750000 0.250000 0.000000
O O5 0.817614 0.526507 0.283201
O O6 0.761448 0.593864 0.559994
O O7 0.993629 0.544204 0.087788
O O8 0.985740 0.609006 0.951231
O O9 0.861929 0.137205 0.509224
O O10 0.177437 0.563537 0.863430
O O11 0.000000 0.489579 0.250000
O O12 0.096482 0.343683 0.617817
O O13 0.116422 0.263734 0.454660
O O14 0.250000 0.250000 0.000000
O O15 0.267671 0.173898 0.099052
O O16 0.500000 0.834330 0.250000
#
# Coordination Sequence:
#
# PCOD9265383 Si02
#       8
#     8   8   4   8   4   8   8   8
#     4  11  23  38  57  84 121 166 214 252 301 368
#     4  10  19  36  60  88 117 150 204 261 308 370
#     4  12  24  38  60  91 131 160 206 266 304 378
#     4   9  19  35  61  91 113 148 207 262 304 368
#     4  12  20  38  60  83 121 164 212 254 278 384
#     4  11  21  37  61  90 118 161 204 250 321 362
#     4  10  23  35  56  83 117 165 203 248 308 359
#     4  11  22  36  54  87 122 157 198 248 319 365
#
# _framework density 19.189198000000001
#
# number of rings (size 3 to 8) (size 9 to 14) (size 15 to 20)
#    0.000    1.429    2.857    5.571    4.000    0.000 
#    0.000    0.714    0.000    0.000    0.000    0.000 
#    0.000    0.000    0.000    0.000    0.000    0.000 
#
# Total GULP energy -155904.230327 kJ/mol
# GULP energy per Si atom -5568.008226 kJ/mol
# Density = 1.914552 g / cm^3
# Si number density = 19.189198 Si / 1000 Ang^3
#
#
#
# Elastic Constant Matrix: (Units=GPa)
#
#
# Indices 1 2 3 4 5 6 
#
# 1 95.1979 39.6598 35.9169 -0.0006 1.2527 0.0009
# 2 39.6598 77.6301 36.4536 0.0000 14.3377 -0.0004
# 3 35.9169 36.4536 103.7211 -0.0027 1.6291 0.0003
# 4 -0.0006 0.0000 -0.0027 -5.0967 0.0000 -0.5147
# 5 1.2527 14.3377 1.6291 0.0000 27.7182 -0.0012
# 6 0.0009 -0.0004 0.0003 -0.5147 -0.0012 18.6776
#
#
#
# Elastic Compliance Matrix: (Units=1/GPa)
#
#
# Indices 1 2 3 4 5 6 
#
# 1 0.014194 -0.006535 -0.002664 0.000000 0.002896 -0.000001
# 2 -0.006535 0.020258 -0.004701 0.000003 -0.009907 0.000000
# 3 -0.002664 -0.004701 0.012187 -0.000006 0.001836 0.000000
# 4 0.000000 0.000003 -0.000006 -0.195661 -0.000002 -0.005392
# 5 0.002896 -0.009907 0.001836 -0.000002 0.040963 0.000002
# 6 -0.000001 0.000000 0.000000 -0.005392 0.000002 0.053391
#
#
# Mechanical properties :
#
#
# Convention : Reuss Voigt Hill
#
# Bulk Modulus (GPa) = 53.08302 55.62327 54.35315
# Shear Modulus (GPa) = -242.85365 19.22775 -111.81295
#
# Velocity S-wave (km/s) = -11.26198 3.16889 -7.64167
# Velocity P-wave (km/s) = 11.89061 6.51451 7.03377
#
# Compressibility (1/GPa) = 0.01883842
#
# Stress axis : x y z
#
# Youngs Moduli (GPa) = 70.45240 49.36403 82.05467
#
# Poissons Ratio (x) = 0.32261 0.21857
# Poissons Ratio (y) = 0.46044 0.38574
# Poissons Ratio (z) = 0.18766 0.23206
#
# Static dielectric constant tensor:
#      x y z
#    x 1.743560 0.000000 -0.022920 
#    y 0.000000 1.739440 0.000010 
#    z -0.022920 0.000010 1.777850 
# 
# From -- ./inp_files/124537.got.cif
#   From: 2010.05.17/outbox.cif.g08.bks.cpg/sg15_63_cif.got.tgz:124537.got - 2010.06.03 18:47:42.
