data_PCOD9265157
_publ_section_title
;
Structure prediction by ZEFSAII (Michael W. Deem and Ramdas Pophale) SiO2 
 PCOD9265157
Probable space group: C 2/C
;
_chemical_formula_sum "Si O2"
_cell_formula_units_Z 48
_cell_length_a 14.931963
_cell_length_b 11.852174
_cell_length_c 11.598777
_cell_angle_alpha 90.000000
_cell_angle_beta 113.481019
_cell_angle_gamma 90.000000
_cell_volume 1882.727379
_symmetry_space_group_name_H-M "C 2/C"
_symmetry_group_IT_number 15
_symmetry_cell_setting 'monoclinic'
loop_
_space_group_symop_operation_xyz
x,y,z
-x,y,1/2-z
-x,-y,-z
x,-y,1/2+z
1/2+x,1/2+y,z
1/2-x,1/2+y,1/2-z
1/2-x,1/2-y,-z
1/2+x,1/2-y,1/2+z
loop_
_atom_site_type_symbol
_atom_site_label
_atom_site_fract_x
_atom_site_fract_y
_atom_site_fract_z
Si Si1 0.372220 0.365590 0.075215
Si Si2 0.072650 0.919561 0.966208
Si Si3 0.539536 0.844906 0.397397
Si Si4 0.471542 0.834702 0.857675
Si Si5 0.252060 0.775936 0.691216
Si Si6 0.275344 0.154694 0.605443
O O1 0.398142 0.493775 0.119966
O O2 0.467544 0.284100 0.118348
O O3 0.297012 0.316544 0.128387
O O4 0.316304 0.352655 0.923755
O O5 0.044880 0.793140 0.916484
O O6 0.174685 0.903582 0.085929
O O7 0.000000 0.000000 0.000000
O O8 0.500000 0.860108 0.250000
O O9 0.499183 0.880013 0.501382
O O10 0.643396 0.908606 0.426518
O O11 0.500000 0.890386 0.750000
O O12 0.352999 0.827461 0.795406
O O13 0.191012 0.717373 0.761427
O O14 0.250000 0.250000 0.500000
#
# Coordination Sequence:
#
# PCOD9265157 Si02
#       6
#     8   8   8   8   8   8
#     4  10  21  35  60  88 116 160 209 260 321 380
#     4  11  21  37  57  96 129 158 212 272 327 372
#     4  11  22  37  60  90 129 173 211 258 327 397
#     4  10  19  36  58  85 120 159 207 258 309 383
#     4  10  19  37  56  80 123 162 203 255 320 386
#     4  10  20  36  54  82 125 166 203 252 325 385
#
# _framework density 25.494928999999999
#
# number of rings (size 3 to 8) (size 9 to 14) (size 15 to 20)
#    0.000    1.667    5.000    1.000    0.000    3.333 
#    3.000    0.000    0.000    5.000    0.000   14.000 
#    0.000    0.000    0.000    0.000    0.000    0.000 
#
# Total GULP energy -133672.128529 kJ/mol
# GULP energy per Si atom -5569.672022 kJ/mol
# Density = 2.543690 g / cm^3
# Si number density = 25.494929 Si / 1000 Ang^3
#
#
#
# Elastic Constant Matrix: (Units=GPa)
#
#
# Indices 1 2 3 4 5 6 
#
# 1 107.8220 8.6773 33.6507 0.0000 -11.9762 0.0000
# 2 8.6773 131.6196 20.3772 0.0000 9.4485 0.0000
# 3 33.6507 20.3772 170.9807 0.0000 -30.1553 0.0000
# 4 0.0000 0.0000 0.0000 -0.3591 0.0000 9.8260
# 5 -11.9762 9.4485 -30.1553 0.0000 47.1802 0.0000
# 6 0.0000 0.0000 0.0000 9.8260 0.0000 17.5688
#
#
#
# Elastic Compliance Matrix: (Units=1/GPa)
#
#
# Indices 1 2 3 4 5 6 
#
# 1 0.010002 -0.000523 -0.001623 0.000000 0.001606 0.000000
# 2 -0.000523 0.008019 -0.001307 0.000000 -0.002574 0.000000
# 3 -0.001623 -0.001307 0.007097 0.000000 0.004386 0.000000
# 4 0.000000 0.000000 0.000000 -0.170803 0.000000 0.095528
# 5 0.001606 -0.002574 0.004386 0.000000 0.024922 0.000000
# 6 0.000000 0.000000 0.000000 0.095528 0.000000 0.003491
#
#
# Mechanical properties :
#
#
# Convention : Reuss Voigt Hill
#
# Bulk Modulus (GPa) = 54.90772 59.53697 57.22234
# Shear Modulus (GPa) = -47.94083 36.05912 -5.94085
#
# Velocity S-wave (km/s) = -4.34107 3.76488 -1.52816
# Velocity P-wave (km/s) = 1.88230 6.50402 4.40223
#
# Compressibility (1/GPa) = 0.01821238
#
# Stress axis : x y z
#
# Youngs Moduli (GPa) = 99.98452 124.70011 140.89982
#
# Poissons Ratio (x) = 0.06528 0.22864
# Poissons Ratio (y) = 0.05234 0.18411
# Poissons Ratio (z) = 0.16224 0.16294
#
# Static dielectric constant tensor:
#      x y z
#    x 2.180300 0.000000 0.114700 
#    y 0.000000 2.067890 0.000000 
#    z 0.114700 0.000000 2.092080 
# 
# From -- ./inp_files/96511.got.cif
#   From: 2010.05.17/outbox.cif.g08.bks.cpg/sg15_49_cif.got.tgz:96511.got - 2010.06.03 18:47:42.
