data_PCOD9265891
_publ_section_title
;
Structure prediction by ZEFSAII (Michael W. Deem and Ramdas Pophale) SiO2 
 PCOD9265891
Probable space group: C 2/C
;
_chemical_formula_sum "Si O2"
_cell_formula_units_Z 28
_cell_length_a 5.587675
_cell_length_b 14.028380
_cell_length_c 16.427501
_cell_angle_alpha 90.000000
_cell_angle_beta 71.407922
_cell_angle_gamma 90.000000
_cell_volume 1220.485417
_symmetry_space_group_name_H-M "C 2/C"
_symmetry_group_IT_number 15
_symmetry_cell_setting 'monoclinic'
loop_
_space_group_symop_operation_xyz
x,y,z
-x,y,1/2-z
-x,-y,-z
x,-y,1/2+z
1/2+x,1/2+y,z
1/2-x,1/2+y,1/2-z
1/2-x,1/2-y,-z
1/2+x,1/2-y,1/2+z
loop_
_atom_site_type_symbol
_atom_site_label
_atom_site_fract_x
_atom_site_fract_y
_atom_site_fract_z
Si Si1 0.000000 0.873498 0.250000
Si Si2 0.605671 0.282347 0.409713
Si Si3 0.688255 0.100745 0.032858
Si Si4 0.521846 0.931113 0.372577
O O1 0.992101 0.810402 0.169612
O O2 0.742332 0.933778 0.282545
O O3 0.547995 0.171388 0.426458
O O4 0.437950 0.334852 0.497686
O O5 0.880088 0.329760 0.384337
O O6 0.679907 0.016627 0.099466
O O7 0.660862 0.060132 0.944662
#
# Coordination Sequence:
#
# PCOD9265891 Si02
#       4
#     4   8   8   8
#     4  10  22  36  48  82 118 144 194 220 288 350
#     4  10  19  37  57  81 114 148 185 243 279 334
#     4   9  20  35  60  86 102 146 202 226 284 345
#     4  10  19  37  57  81 114 148 185 243 279 334
#
# _framework density 22.941690999999999
#
# number of rings (size 3 to 8) (size 9 to 14) (size 15 to 20)
#    0.000    2.286    0.000    2.571    0.000    0.000 
#   10.286    0.000    0.000    0.000    0.000    0.000 
#    0.000    0.000    0.000    0.000    0.000    0.000 
#
# Total GULP energy -78094.985580 kJ/mol
# GULP energy per Si atom -5578.213256 kJ/mol
# Density = 2.288947 g / cm^3
# Si number density = 22.941691 Si / 1000 Ang^3
#
#
#
# Elastic Constant Matrix: (Units=GPa)
#
#
# Indices 1 2 3 4 5 6 
#
# 1 53.1472 -2.1716 16.9620 0.0000 -15.2949 0.0000
# 2 -2.1716 76.9462 43.5940 0.0000 -11.4961 0.0000
# 3 16.9620 43.5940 104.7558 0.0000 -14.4585 0.0000
# 4 0.0000 0.0000 0.0000 16.5726 0.0000 3.6134
# 5 -15.2949 -11.4961 -14.4585 0.0000 39.7892 0.0000
# 6 0.0000 0.0000 0.0000 3.6134 0.0000 15.8477
#
#
#
# Elastic Compliance Matrix: (Units=1/GPa)
#
#
# Indices 1 2 3 4 5 6 
#
# 1 0.022813 0.004369 -0.004345 0.000000 0.008453 0.000000
# 2 0.004369 0.018075 -0.007661 0.000000 0.004118 0.000000
# 3 -0.004345 -0.007661 0.013583 0.000000 0.001052 0.000000
# 4 0.000000 0.000000 0.000000 0.063497 0.000000 -0.014478
# 5 0.008453 0.004118 0.001052 0.000000 0.029954 0.000000
# 6 0.000000 0.000000 0.000000 -0.014478 0.000000 0.066402
#
#
# Mechanical properties :
#
#
# Convention : Reuss Voigt Hill
#
# Bulk Modulus (GPa) = 25.51280 39.06869 32.29074
# Shear Modulus (GPa) = 20.60462 26.20623 23.40542
#
# Velocity S-wave (km/s) = 3.00013 3.38346 3.19754
# Velocity P-wave (km/s) = 4.81102 5.68597 5.26669
#
# Compressibility (1/GPa) = 0.03919602
#
# Stress axis : x y z
#
# Youngs Moduli (GPa) = 43.83373 55.32543 73.62231
#
# Poissons Ratio (x) = -0.24169 0.31991
# Poissons Ratio (y) = -0.19149 0.56401
# Poissons Ratio (z) = 0.19047 0.42384
#
# Static dielectric constant tensor:
#      x y z
#    x 1.972830 0.000000 -0.006930 
#    y 0.000000 1.907260 0.000000 
#    z -0.006930 0.000000 1.878690 
# 
# From -- ./inp_files/127949.got.cif
#   From: 2010.05.17/outbox.cif.g08.bks.cpg/sg15_64_cif.got.tgz:127949.got - 2010.06.03 18:47:42.
