data_PCOD9265294
_publ_section_title
;
Structure prediction by ZEFSAII (Michael W. Deem and Ramdas Pophale) SiO2 
 PCOD9265294
Probable space group: C 2/C
;
_chemical_formula_sum "Si O2"
_cell_formula_units_Z 56
_cell_length_a 24.257918
_cell_length_b 12.182732
_cell_length_c 13.669191
_cell_angle_alpha 90.000000
_cell_angle_beta 133.194146
_cell_angle_gamma 90.000000
_cell_volume 2945.042243
_symmetry_space_group_name_H-M "C 2/C"
_symmetry_group_IT_number 15
_symmetry_cell_setting 'monoclinic'
loop_
_space_group_symop_operation_xyz
x,y,z
-x,y,1/2-z
-x,-y,-z
x,-y,1/2+z
1/2+x,1/2+y,z
1/2-x,1/2+y,1/2-z
1/2-x,1/2-y,-z
1/2+x,1/2-y,1/2+z
loop_
_atom_site_type_symbol
_atom_site_label
_atom_site_fract_x
_atom_site_fract_y
_atom_site_fract_z
Si Si1 0.581872 0.596824 0.358809
Si Si2 0.682662 0.715704 0.133611
Si Si3 0.582485 0.517291 0.055989
Si Si4 0.587453 0.197440 0.336686
Si Si5 0.360015 0.588533 0.704709
Si Si6 0.720475 0.075553 0.402072
Si Si7 0.261628 0.321909 0.416424
O O1 0.500000 0.649538 0.250000
O O2 0.574867 0.503307 0.432162
O O3 0.609669 0.528830 0.298704
O O4 0.647569 0.673449 0.477107
O O5 0.623222 0.633171 0.112578
O O6 0.743452 0.644267 0.144310
O O7 0.723962 0.777315 0.272047
O O8 0.633636 0.783524 0.994293
O O9 0.633988 0.426211 0.172563
O O10 0.500000 0.500000 0.000000
O O11 0.500000 0.168970 0.250000
O O12 0.591652 0.312441 0.281444
O O13 0.637072 0.113026 0.331942
O O14 0.276435 0.603449 0.560912
O O15 0.731544 0.946491 0.395682
O O16 0.250000 0.250000 0.500000
#
# Coordination Sequence:
#
# PCOD9265294 Si02
#       7
#     8   8   8   8   8   8   8
#     4  11  21  38  57  95 129 153 203 259 316 366
#     4  11  22  40  64  93 121 165 211 254 316 370
#     4  12  21  32  65  95 123 151 195 263 325 352
#     4  11  22  39  61  89 121 161 209 260 302 362
#     4  10  19  36  59  90 121 154 198 261 314 366
#     4  10  23  40  62  88 119 159 209 251 308 368
#     4  11  25  43  61  88 127 167 203 249 305 377
#
# _framework density 19.015006
#
# number of rings (size 3 to 8) (size 9 to 14) (size 15 to 20)
#    0.000    1.143    5.714    4.714    4.000    1.143 
#    0.000    1.429    0.000    0.000    0.000    0.000 
#    0.000    0.000    0.000    0.000    0.000    0.000 
#
# Total GULP energy -156191.430411 kJ/mol
# GULP energy per Si atom -5578.265372 kJ/mol
# Density = 1.897173 g / cm^3
# Si number density = 19.015006 Si / 1000 Ang^3
#
#
#
# Elastic Constant Matrix: (Units=GPa)
#
#
# Indices 1 2 3 4 5 6 
#
# 1 108.1333 52.1015 57.4666 0.0000 21.5951 0.0000
# 2 52.1015 74.5867 56.5266 0.0000 3.5423 0.0000
# 3 57.4666 56.5266 122.8975 0.0000 6.2864 0.0000
# 4 0.0000 0.0000 0.0000 32.8776 0.0000 -5.2094
# 5 21.5951 3.5423 6.2864 0.0000 41.4268 0.0000
# 6 0.0000 0.0000 0.0000 -5.2094 0.0000 27.0590
#
#
#
# Elastic Compliance Matrix: (Units=1/GPa)
#
#
# Indices 1 2 3 4 5 6 
#
# 1 0.016795 -0.008773 -0.003435 0.000000 -0.007484 0.000000
# 2 -0.008773 0.025168 -0.007657 0.000000 0.003583 0.000000
# 3 -0.003435 -0.007657 0.013243 0.000000 0.000436 0.000000
# 4 0.000000 0.000000 0.000000 0.031373 0.000000 0.006040
# 5 -0.007484 0.003583 0.000436 0.000000 0.027667 0.000000
# 6 0.000000 0.000000 0.000000 0.006040 0.000000 0.038119
#
#
# Mechanical properties :
#
#
# Convention : Reuss Voigt Hill
#
# Bulk Modulus (GPa) = 64.61985 70.86743 67.74364
# Shear Modulus (GPa) = 25.34779 29.57420 27.46100
#
# Velocity S-wave (km/s) = 3.65505 3.94802 3.80435
# Velocity P-wave (km/s) = 7.20207 7.62447 7.41628
#
# Compressibility (1/GPa) = 0.01547512
#
# Stress axis : x y z
#
# Youngs Moduli (GPa) = 59.54089 39.73224 75.51209
#
# Poissons Ratio (x) = 0.34857 0.25942
# Poissons Ratio (y) = 0.52235 0.57822
# Poissons Ratio (z) = 0.20455 0.30424
#
# Static dielectric constant tensor:
#      x y z
#    x 1.714160 0.000000 0.006230 
#    y 0.000000 1.672670 0.000000 
#    z 0.006230 0.000000 1.695020 
# 
# From -- ./inp_files/177634.got.cif
#   From: 2010.05.17/outbox.cif.g08.bks.cpg/sg15_89_cif.got.tgz:177634.got - 2010.06.03 18:47:42.
