data_PCOD9265365
_publ_section_title
;
Structure prediction by ZEFSAII (Michael W. Deem and Ramdas Pophale) SiO2 
 PCOD9265365
Probable space group: C 2/C
;
_chemical_formula_sum "Si O2"
_cell_formula_units_Z 48
_cell_length_a 17.279923
_cell_length_b 8.698191
_cell_length_c 25.570080
_cell_angle_alpha 90.000000
_cell_angle_beta 146.948290
_cell_angle_gamma 90.000000
_cell_volume 2096.112348
_symmetry_space_group_name_H-M "C 2/C"
_symmetry_group_IT_number 15
_symmetry_cell_setting 'monoclinic'
loop_
_space_group_symop_operation_xyz
x,y,z
-x,y,1/2-z
-x,-y,-z
x,-y,1/2+z
1/2+x,1/2+y,z
1/2-x,1/2+y,1/2-z
1/2-x,1/2-y,-z
1/2+x,1/2-y,1/2+z
loop_
_atom_site_type_symbol
_atom_site_label
_atom_site_fract_x
_atom_site_fract_y
_atom_site_fract_z
Si Si1 0.724395 0.905803 0.398098
Si Si2 0.435915 0.913916 0.610894
Si Si3 0.886891 0.306570 0.425049
Si Si4 0.690522 0.076583 0.056384
Si Si5 0.252183 0.522762 0.296288
Si Si6 0.463623 0.613392 0.573900
O O1 0.708479 0.722729 0.393230
O O2 0.604548 0.011411 0.356816
O O3 0.741141 0.940815 0.346502
O O4 0.866170 0.964572 0.508599
O O5 0.595211 0.962062 0.685051
O O6 0.427130 0.729923 0.600160
O O7 0.330122 0.990790 0.509780
O O8 0.786625 0.446872 0.386599
O O9 0.809225 0.191629 0.342420
O O10 0.930948 0.214065 0.502931
O O11 0.035183 0.359833 0.484757
O O12 0.373339 0.436810 0.332803
#
# Coordination Sequence:
#
# PCOD9265365 Si02
#       6
#     8   8   8   8   8   8
#     4  11  20  41  61  83 118 166 202 246 308 378
#     4  11  25  34  57  92 126 149 199 264 313 350
#     4   9  18  36  60  85 109 155 202 241 290 367
#     4  10  19  36  60  87 116 155 203 246 296 369
#     4  11  21  38  60  86 119 160 201 259 305 363
#     4  10  20  38  60  82 111 163 207 239 298 372
#
# _framework density 22.899536999999999
#
# number of rings (size 3 to 8) (size 9 to 14) (size 15 to 20)
#    0.000    1.667    3.333    2.500    2.333    0.000 
#    0.000    1.667    0.000    6.000    0.000    0.000 
#    0.000    0.000    0.000    0.000    0.000    0.000 
#
# Total GULP energy -134118.856387 kJ/mol
# GULP energy per Si atom -5588.285683 kJ/mol
# Density = 2.284742 g / cm^3
# Si number density = 22.899537 Si / 1000 Ang^3
#
#
#
# Elastic Constant Matrix: (Units=GPa)
#
#
# Indices 1 2 3 4 5 6 
#
# 1 55.7667 27.1217 6.4978 0.0000 7.2063 0.0000
# 2 27.1217 139.9492 19.9870 0.0000 -2.0402 0.0000
# 3 6.4978 19.9870 52.4253 0.0001 9.8688 0.0000
# 4 0.0000 0.0000 0.0001 22.5153 0.0000 10.3316
# 5 7.2063 -2.0402 9.8688 0.0000 22.8547 0.0000
# 6 0.0000 0.0000 0.0000 10.3316 0.0000 33.7013
#
#
#
# Elastic Compliance Matrix: (Units=1/GPa)
#
#
# Indices 1 2 3 4 5 6 
#
# 1 0.020848 -0.004194 0.000351 0.000000 -0.007100 0.000000
# 2 -0.004194 0.008493 -0.003385 0.000000 0.003542 0.000000
# 3 0.000351 -0.003385 0.022204 0.000000 -0.010001 0.000000
# 4 0.000000 0.000000 0.000000 0.051685 0.000000 -0.015845
# 5 -0.007100 0.003542 -0.010001 0.000000 0.050628 0.000000
# 6 0.000000 0.000000 0.000000 -0.015845 0.000000 0.034530
#
#
# Mechanical properties :
#
#
# Convention : Reuss Voigt Hill
#
# Bulk Modulus (GPa) = 26.96104 39.48380 33.22242
# Shear Modulus (GPa) = 23.23341 28.78323 26.00832
#
# Velocity S-wave (km/s) = 3.18870 3.54917 3.37376
# Velocity P-wave (km/s) = 5.03550 5.83739 5.45121
#
# Compressibility (1/GPa) = 0.03709056
#
# Stress axis : x y z
#
# Youngs Moduli (GPa) = 47.96614 117.73981 45.03616
#
# Poissons Ratio (x) = 0.49380 -0.01583
# Poissons Ratio (y) = 0.20117 0.15245
# Poissons Ratio (z) = -0.01686 0.39855
#
# Static dielectric constant tensor:
#      x y z
#    x 1.862670 0.000000 0.032930 
#    y 0.000000 1.884260 0.000000 
#    z 0.032930 0.000000 1.827040 
# 
# From -- ./inp_files/166141.got.cif
#   From: 2010.05.17/outbox.cif.g08.bks.cpg/sg15_84_cif.got.tgz:166141.got - 2010.06.03 18:47:42.
