data_PCOD9265495
_publ_section_title
;
Structure prediction by ZEFSAII (Michael W. Deem and Ramdas Pophale) SiO2 
 PCOD9265495
Probable space group: C 2/C
;
_chemical_formula_sum "Si O2"
_cell_formula_units_Z 52
_cell_length_a 12.211479
_cell_length_b 22.826482
_cell_length_c 8.843573
_cell_angle_alpha 90.000000
_cell_angle_beta 113.627226
_cell_angle_gamma 90.000000
_cell_volume 2258.459015
_symmetry_space_group_name_H-M "C 2/C"
_symmetry_group_IT_number 15
_symmetry_cell_setting 'monoclinic'
loop_
_space_group_symop_operation_xyz
x,y,z
-x,y,1/2-z
-x,-y,-z
x,-y,1/2+z
1/2+x,1/2+y,z
1/2-x,1/2+y,1/2-z
1/2-x,1/2-y,-z
1/2+x,1/2-y,1/2+z
loop_
_atom_site_type_symbol
_atom_site_label
_atom_site_fract_x
_atom_site_fract_y
_atom_site_fract_z
Si Si1 0.825071 0.536128 0.904740
Si Si2 0.054803 0.765259 0.439434
Si Si3 0.127384 0.705540 0.753695
Si Si4 0.853232 0.822814 0.545943
Si Si5 0.381472 0.558621 0.250952
Si Si6 0.000000 0.486103 0.250000
Si Si7 0.379994 0.387384 0.082497
O O1 0.738746 0.479560 0.829814
O O2 0.731020 0.585490 0.892733
O O3 0.908600 0.548151 0.807177
O O4 0.915489 0.523682 0.092453
O O5 0.109916 0.713432 0.566919
O O6 0.143391 0.819018 0.461261
O O7 0.000000 0.746367 0.250000
O O8 0.953066 0.796984 0.487557
O O9 0.155802 0.771719 0.833007
O O10 0.000000 0.687603 0.750000
O O11 0.234705 0.669737 0.882326
O O12 0.875311 0.883349 0.643303
O O13 0.500000 0.526558 0.250000
O O14 0.396725 0.578327 0.433169
O O15 0.500000 0.389507 0.250000
#
# Coordination Sequence:
#
# PCOD9265495 Si02
#       7
#     8   8   8   8   8   4   8
#     4  11  24  41  65  91 129 184 222 263 323 394
#     4  10  20  36  59  94 129 162 206 276 338 379
#     4   9  18  36  62  88 122 170 217 256 322 404
#     4  10  19  36  61  90 124 166 213 267 327 390
#     4  12  22  39  65  94 131 169 220 281 330 378
#     4  10  24  44  60  88 128 184 220 258 320 388
#     4  11  23  39  63  98 131 163 221 280 331 375
#
# _framework density 23.024549
#
# number of rings (size 3 to 8) (size 9 to 14) (size 15 to 20)
#    0.000    1.538    4.615    0.923    2.154    1.846 
#    1.385    0.000    0.000    0.000   10.000    0.000 
#    0.000    0.000    0.000    0.000    0.000    0.000 
#
# Total GULP energy -145495.227759 kJ/mol
# GULP energy per Si atom -5595.970298 kJ/mol
# Density = 2.297214 g / cm^3
# Si number density = 23.024549 Si / 1000 Ang^3
#
#
#
# Elastic Constant Matrix: (Units=GPa)
#
#
# Indices 1 2 3 4 5 6 
#
# 1 162.2856 23.2929 67.7568 0.0000 -0.0207 0.0000
# 2 23.2929 34.7553 33.1382 0.0000 0.0625 0.0000
# 3 67.7568 33.1382 180.5483 0.0000 -0.6257 0.0000
# 4 0.0000 0.0000 0.0000 -2.0073 0.0000 -14.7118
# 5 -0.0207 0.0625 -0.6257 0.0000 42.4798 0.0000
# 6 0.0000 0.0000 0.0000 -14.7118 0.0000 9.3217
#
#
#
# Elastic Compliance Matrix: (Units=1/GPa)
#
#
# Indices 1 2 3 4 5 6 
#
# 1 0.007533 -0.002852 -0.002304 0.000000 -0.000026 0.000000
# 2 -0.002852 0.035957 -0.005530 0.000000 -0.000136 0.000000
# 3 -0.002304 -0.005530 0.007419 0.000000 0.000116 0.000000
# 4 0.000000 0.000000 0.000000 -0.039642 0.000000 -0.062564
# 5 -0.000026 -0.000136 0.000116 0.000000 0.023542 0.000000
# 6 0.000000 0.000000 0.000000 -0.062564 0.000000 0.008536
#
#
# Mechanical properties :
#
#
# Convention : Reuss Voigt Hill
#
# Bulk Modulus (GPa) = 33.85535 69.55167 51.70351
# Shear Modulus (GPa) = 67.05818 26.85226 46.95522
#
# Velocity S-wave (km/s) = 5.40258 3.41874 4.52082
# Velocity P-wave (km/s) = 7.32483 6.77177 7.05372
#
# Compressibility (1/GPa) = 0.02953743
#
# Stress axis : x y z
#
# Youngs Moduli (GPa) = 132.74637 27.81119 134.79726
#
# Poissons Ratio (x) = 0.07932 0.31053
# Poissons Ratio (y) = 0.37861 0.74539
# Poissons Ratio (z) = 0.30580 0.15379
#
# Static dielectric constant tensor:
#      x y z
#    x 1.884910 0.000000 -0.023290 
#    y 0.000000 1.856590 0.000000 
#    z -0.023290 0.000000 1.855170 
# 
# From -- ./inp_files/33732.got.cif
#   From: 2010.05.17/outbox.cif.g08.bks.cpg/sg15_17_cif.got.tgz:33732.got - 2010.06.03 18:47:42.
