data_PCOD9265823
_publ_section_title
;
Structure prediction by ZEFSAII (Michael W. Deem and Ramdas Pophale) SiO2 
 PCOD9265823
Probable space group: C 2/C
;
_chemical_formula_sum "Si O2"
_cell_formula_units_Z 44
_cell_length_a 7.398823
_cell_length_b 16.773994
_cell_length_c 14.351147
_cell_angle_alpha 90.000000
_cell_angle_beta 88.819276
_cell_angle_gamma 90.000000
_cell_volume 1780.711288
_symmetry_space_group_name_H-M "C 2/C"
_symmetry_group_IT_number 15
_symmetry_cell_setting 'monoclinic'
loop_
_space_group_symop_operation_xyz
x,y,z
-x,y,1/2-z
-x,-y,-z
x,-y,1/2+z
1/2+x,1/2+y,z
1/2-x,1/2+y,1/2-z
1/2-x,1/2-y,-z
1/2+x,1/2-y,1/2+z
loop_
_atom_site_type_symbol
_atom_site_label
_atom_site_fract_x
_atom_site_fract_y
_atom_site_fract_z
Si Si1 0.548316 0.679321 0.535789
Si Si2 0.794377 0.046004 0.255412
Si Si3 0.500000 0.807539 0.250000
Si Si4 0.207570 0.410777 0.116452
Si Si5 0.204826 0.985344 0.041409
Si Si6 0.249255 0.196494 0.349574
O O1 0.353219 0.648912 0.569630
O O2 0.691414 0.608724 0.558834
O O3 0.600757 0.758615 0.590879
O O4 0.582630 0.687137 0.425013
O O5 0.754513 0.030128 0.363194
O O6 0.692689 0.113427 0.197188
O O7 0.000000 0.075494 0.250000
O O8 0.787652 0.962096 0.201362
O O9 0.544566 0.862438 0.161411
O O10 0.674082 0.754082 0.270299
O O11 0.171143 0.477199 0.039295
O O12 0.000000 0.000000 0.000000
#
# Coordination Sequence:
#
# PCOD9265823 Si02
#       6
#     8   8   4   8   8   8
#     4  10  21  44  71  95 133 179 220 274 343 406
#     4  12  19  39  72  98 126 175 225 269 328 414
#     4  12  28  40  62 100 142 168 220 292 326 392
#     4  11  24  44  68  97 130 181 227 267 334 400
#     4  10  19  36  72  99 120 174 231 266 319 405
#     4  11  24  40  66 103 137 168 221 282 342 398
#
# _framework density 24.709229000000001
#
# number of rings (size 3 to 8) (size 9 to 14) (size 15 to 20)
#    0.000    1.091    6.364    2.182    0.000    0.727 
#    0.000    5.455    0.000    0.000    0.000    0.000 
#    0.000    0.000    0.000    0.000    0.000    0.000 
#
# Total GULP energy -123063.794420 kJ/mol
# GULP energy per Si atom -5593.808837 kJ/mol
# Density = 2.465299 g / cm^3
# Si number density = 24.709229 Si / 1000 Ang^3
#
#
#
# Elastic Constant Matrix: (Units=GPa)
#
#
# Indices 1 2 3 4 5 6 
#
# 1 56.0495 15.3050 18.7137 0.0000 -5.4947 0.0000
# 2 15.3050 86.2903 23.6169 0.0000 -1.3237 0.0000
# 3 18.7137 23.6169 140.9216 0.0000 -1.7112 0.0000
# 4 0.0000 0.0000 0.0000 48.0831 0.0000 6.0150
# 5 -5.4947 -1.3237 -1.7112 0.0000 31.9705 0.0000
# 6 0.0000 0.0000 0.0000 6.0150 0.0000 23.2134
#
#
#
# Elastic Compliance Matrix: (Units=1/GPa)
#
#
# Indices 1 2 3 4 5 6 
#
# 1 0.019628 -0.002861 -0.002089 0.000000 0.003143 0.000000
# 2 -0.002861 0.012568 -0.001727 0.000000 -0.000064 0.000000
# 3 -0.002089 -0.001727 0.007663 0.000000 -0.000020 0.000000
# 4 0.000000 0.000000 0.000000 0.021494 0.000000 -0.005570
# 5 0.003143 -0.000064 -0.000020 0.000000 0.031815 0.000000
# 6 0.000000 0.000000 0.000000 -0.005570 0.000000 0.044522
#
#
# Mechanical properties :
#
#
# Convention : Reuss Voigt Hill
#
# Bulk Modulus (GPa) = 37.72972 44.28141 41.00557
# Shear Modulus (GPa) = 31.27352 35.69511 33.48432
#
# Velocity S-wave (km/s) = 3.56147 3.80492 3.68521
# Velocity P-wave (km/s) = 5.67580 6.10435 5.89398
#
# Compressibility (1/GPa) = 0.02650431
#
# Stress axis : x y z
#
# Youngs Moduli (GPa) = 50.94691 79.56705 130.50206
#
# Poissons Ratio (x) = 0.22768 0.27259
# Poissons Ratio (y) = 0.14578 0.22538
# Poissons Ratio (z) = 0.10642 0.13742
#
# Static dielectric constant tensor:
#      x y z
#    x 2.022940 0.000000 0.030420 
#    y 0.000000 2.021560 0.000000 
#    z 0.030420 0.000000 1.934750 
# 
# From -- ./inp_files/134431.got.cif
#   From: 2010.05.17/outbox.cif.g08.bks.cpg/sg15_68_cif.got.tgz:134431.got - 2010.06.03 18:47:42.
