data_PCOD9265412
_publ_section_title
;
Structure prediction by ZEFSAII (Michael W. Deem and Ramdas Pophale) SiO2 
 PCOD9265412
Probable space group: C 2/C
;
_chemical_formula_sum "Si O2"
_cell_formula_units_Z 40
_cell_length_a 11.962500
_cell_length_b 20.127684
_cell_length_c 12.934760
_cell_angle_alpha 90.000000
_cell_angle_beta 32.797757
_cell_angle_gamma 90.000000
_cell_volume 1686.992558
_symmetry_space_group_name_H-M "C 2/C"
_symmetry_group_IT_number 15
_symmetry_cell_setting 'monoclinic'
loop_
_space_group_symop_operation_xyz
x,y,z
-x,y,1/2-z
-x,-y,-z
x,-y,1/2+z
1/2+x,1/2+y,z
1/2-x,1/2+y,1/2-z
1/2-x,1/2-y,-z
1/2+x,1/2-y,1/2+z
loop_
_atom_site_type_symbol
_atom_site_label
_atom_site_fract_x
_atom_site_fract_y
_atom_site_fract_z
Si Si1 0.587979 0.057892 0.067432
Si Si2 0.412741 0.712003 0.124376
Si Si3 0.989650 0.702521 0.377194
Si Si4 0.708491 0.515556 0.773719
Si Si5 0.173768 0.647962 0.697478
O O1 0.500000 0.042055 0.250000
O O2 0.643945 0.135909 0.022153
O O3 0.383471 0.037856 0.163512
O O4 0.777099 0.021472 0.862370
O O5 0.191798 0.678823 0.284896
O O6 0.397095 0.782105 0.196112
O O7 0.439428 0.733358 0.983715
O O8 0.598699 0.667998 0.021488
O O9 0.000000 0.723100 0.250000
O O10 0.787594 0.587222 0.755176
O O11 0.500000 0.500000 0.000000
O O12 0.000000 0.629534 0.750000
#
# Coordination Sequence:
#
# PCOD9265412 Si02
#       5
#     8   8   8   8   8
#     4  10  22  41  63  88 127 167 211 270 339 390
#     4  10  21  36  60  92 128 171 220 272 325 395
#     4  10  19  36  60  91 128 170 212 272 333 395
#     4  11  23  41  65  92 127 166 219 279 328 399
#     4  11  22  40  62  90 128 174 223 273 330 391
#
# _framework density 23.710833999999998
#
# number of rings (size 3 to 8) (size 9 to 14) (size 15 to 20)
#    0.000    1.600    2.000    3.000    0.000    0.800 
#    0.000    0.000    0.000    0.000    0.000    0.000 
#    0.000    0.000    0.000    0.000    0.000    0.000 
#
# Total GULP energy -111380.894683 kJ/mol
# GULP energy per Si atom -5569.044734 kJ/mol
# Density = 2.365687 g / cm^3
# Si number density = 23.710834 Si / 1000 Ang^3
#
#
#
# Elastic Constant Matrix: (Units=GPa)
#
#
# Indices 1 2 3 4 5 6 
#
# 1 81.3277 0.1710 33.3739 0.0038 -2.5467 -0.0075
# 2 0.1710 82.5511 8.1957 0.0091 2.8742 -0.0005
# 3 33.3739 8.1957 124.2733 0.0102 8.1537 -0.0007
# 4 0.0038 0.0091 0.0102 19.6446 -0.0094 -6.3345
# 5 -2.5467 2.8742 8.1537 -0.0094 39.3827 0.0099
# 6 -0.0075 -0.0005 -0.0007 -6.3345 0.0099 1.8923
#
#
#
# Elastic Compliance Matrix: (Units=1/GPa)
#
#
# Indices 1 2 3 4 5 6 
#
# 1 0.013937 0.000297 -0.003873 -0.000181 0.001681 -0.000561
# 2 0.000297 0.012221 -0.000840 0.000038 -0.000699 0.000136
# 3 -0.003873 -0.000840 0.009281 0.000063 -0.002111 0.000210
# 4 -0.000181 0.000038 0.000063 -0.640573 0.000358 -2.144401
# 5 0.001681 -0.000699 -0.002111 0.000358 0.025988 0.001069
# 6 -0.000561 0.000136 0.000210 -2.144401 0.001069 -6.650186
#
#
# Mechanical properties :
#
#
# Convention : Reuss Voigt Hill
#
# Bulk Modulus (GPa) = 37.58334 41.29257 39.43796
# Shear Modulus (GPa) = -0.69332 28.61135 13.95901
#
# Velocity S-wave (km/s) = -0.54133 3.47750 2.42899
# Velocity P-wave (km/s) = 3.93629 5.79455 4.95334
#
# Compressibility (1/GPa) = 0.02660753
#
# Stress axis : x y z
#
# Youngs Moduli (GPa) = 71.75063 81.82771 107.75067
#
# Poissons Ratio (x) = -0.02431 0.41729
# Poissons Ratio (y) = -0.02132 0.09050
# Poissons Ratio (z) = 0.27787 0.06873
#
# Static dielectric constant tensor:
#      x y z
#    x 1.934670 -0.000020 0.006130 
#    y -0.000020 1.934990 0.000030 
#    z 0.006130 0.000030 2.213290 
# 
# From -- ./inp_files/89306.got.cif
#   From: 2010.05.17/outbox.cif.g08.bks.cpg/sg15_45_cif.got.tgz:89306.got - 2010.06.03 18:47:42.
