data_PCOD9265926
_publ_section_title
;
Structure prediction by ZEFSAII (Michael W. Deem and Ramdas Pophale) SiO2 
 PCOD9265926
Probable space group: C 2/C
;
_chemical_formula_sum "Si O2"
_cell_formula_units_Z 48
_cell_length_a 7.167971
_cell_length_b 29.956795
_cell_length_c 15.670984
_cell_angle_alpha 90.000000
_cell_angle_beta 38.524124
_cell_angle_gamma 90.000000
_cell_volume 2095.883818
_symmetry_space_group_name_H-M "C 2/C"
_symmetry_group_IT_number 15
_symmetry_cell_setting 'monoclinic'
loop_
_space_group_symop_operation_xyz
x,y,z
-x,y,1/2-z
-x,-y,-z
x,-y,1/2+z
1/2+x,1/2+y,z
1/2-x,1/2+y,1/2-z
1/2-x,1/2-y,-z
1/2+x,1/2-y,1/2+z
loop_
_atom_site_type_symbol
_atom_site_label
_atom_site_fract_x
_atom_site_fract_y
_atom_site_fract_z
Si Si1 0.759006 0.397240 0.229050
Si Si2 0.344480 0.892118 0.710335
Si Si3 0.843359 0.947111 0.959959
Si Si4 0.834534 0.045056 0.981069
Si Si5 0.952463 0.704256 0.164055
Si Si6 0.057606 0.802039 0.332297
O O1 0.500000 0.396298 0.250000
O O2 0.638804 0.436315 0.332468
O O3 0.740838 0.348057 0.277942
O O4 0.078292 0.413890 0.082056
O O5 0.500000 0.889486 0.750000
O O6 0.581171 0.917136 0.564898
O O7 0.279235 0.841340 0.709352
O O8 0.049738 0.921370 0.820782
O O9 0.740447 0.997421 0.977943
O O10 0.084289 0.957226 0.948815
O O11 0.000000 0.705728 0.250000
O O12 0.815451 0.752737 0.191733
O O13 0.257869 0.697215 0.998726
O O14 0.000000 0.801030 0.250000
#
# Coordination Sequence:
#
# PCOD9265926 Si02
#       6
#     8   8   8   8   8   8
#     4  11  22  36  54  82 117 153 188 232 295 358
#     4   9  17  31  54  81 105 140 190 242 289 334
#     4  10  21  35  57  84 111 145 194 247 288 338
#     4  10  19  37  58  80 110 147 192 243 290 343
#     4   9  16  31  56  83 108 149 199 243 287 348
#     4   9  18  32  54  81 115 153 190 235 297 353
#
# _framework density 22.902032999999999
#
# number of rings (size 3 to 8) (size 9 to 14) (size 15 to 20)
#    0.000    2.333    1.667    1.500    0.000    3.333 
#    0.000    1.667    0.000    0.000    0.000    0.000 
#    0.000    0.000    0.000    0.000    0.000    0.000 
#
# Total GULP energy -133762.858790 kJ/mol
# GULP energy per Si atom -5573.452450 kJ/mol
# Density = 2.284991 g / cm^3
# Si number density = 22.902033 Si / 1000 Ang^3
#
#
#
# Elastic Constant Matrix: (Units=GPa)
#
#
# Indices 1 2 3 4 5 6 
#
# 1 71.3939 36.7982 34.2823 0.0000 -2.0206 0.0000
# 2 36.7982 209.3003 29.7162 0.0000 -3.7396 0.0000
# 3 34.2823 29.7162 112.7259 0.0000 9.5655 0.0000
# 4 0.0000 0.0000 0.0000 -17.3275 0.0000 29.8355
# 5 -2.0206 -3.7396 9.5655 0.0000 25.6431 0.0000
# 6 0.0000 0.0000 0.0000 29.8355 0.0000 -12.3526
#
#
#
# Elastic Compliance Matrix: (Units=1/GPa)
#
#
# Indices 1 2 3 4 5 6 
#
# 1 0.017708 -0.002349 -0.005014 0.000000 0.002923 0.000000
# 2 -0.002349 0.005314 -0.000761 0.000000 0.000874 0.000000
# 3 -0.005014 -0.000761 0.010987 0.000000 -0.004605 0.000000
# 4 0.000000 0.000000 0.000000 0.018270 0.000000 0.044128
# 5 0.002923 0.000874 -0.004605 0.000000 0.041072 0.000000
# 6 0.000000 0.000000 0.000000 0.044128 0.000000 0.025628
#
#
# Mechanical properties :
#
#
# Convention : Reuss Voigt Hill
#
# Bulk Modulus (GPa) = 56.30086 66.11259 61.20673
# Shear Modulus (GPa) = 35.42368 18.70083 27.06225
#
# Velocity S-wave (km/s) = 3.93714 2.86065 3.44125
# Velocity P-wave (km/s) = 6.73088 6.31200 6.52480
#
# Compressibility (1/GPa) = 0.01776172
#
# Stress axis : x y z
#
# Youngs Moduli (GPa) = 56.47129 188.16583 91.01481
#
# Poissons Ratio (x) = 0.44204 0.45636
# Poissons Ratio (y) = 0.13266 0.06923
# Poissons Ratio (z) = 0.28316 0.14313
#
# Static dielectric constant tensor:
#      x y z
#    x 2.013710 0.000000 0.108020 
#    y 0.000000 1.902490 0.000000 
#    z 0.108020 0.000000 1.839730 
# 
# From -- ./inp_files/194155.got.cif
#   From: 2010.05.17/outbox.cif.g08.bks.cpg/sg15_98_cif.got.tgz:194155.got - 2010.06.03 18:47:42.
