data_PCOD9265759
_publ_section_title
;
Structure prediction by ZEFSAII (Michael W. Deem and Ramdas Pophale) SiO2 
 PCOD9265759
Probable space group: C 2/C
;
_chemical_formula_sum "Si O2"
_cell_formula_units_Z 56
_cell_length_a 17.472668
_cell_length_b 15.534820
_cell_length_c 14.210284
_cell_angle_alpha 90.000000
_cell_angle_beta 47.777494
_cell_angle_gamma 90.000000
_cell_volume 2856.387549
_symmetry_space_group_name_H-M "C 2/C"
_symmetry_group_IT_number 15
_symmetry_cell_setting 'monoclinic'
loop_
_space_group_symop_operation_xyz
x,y,z
-x,y,1/2-z
-x,-y,-z
x,-y,1/2+z
1/2+x,1/2+y,z
1/2-x,1/2+y,1/2-z
1/2-x,1/2-y,-z
1/2+x,1/2-y,1/2+z
loop_
_atom_site_type_symbol
_atom_site_label
_atom_site_fract_x
_atom_site_fract_y
_atom_site_fract_z
Si Si1 0.953842 0.875696 0.590948
Si Si2 0.944673 0.634683 0.390078
Si Si3 0.483542 0.808797 0.476131
Si Si4 0.459567 0.545367 0.886344
Si Si5 0.270252 0.017155 0.483849
Si Si6 0.093661 0.526894 0.799620
Si Si7 0.723702 0.912258 0.832156
O O1 0.001754 0.784546 0.579520
O O2 0.984591 0.897490 0.457432
O O3 0.829519 0.876051 0.702350
O O4 0.994409 0.952247 0.623870
O O5 0.964054 0.693351 0.463599
O O6 0.828422 0.605243 0.465757
O O7 0.000000 0.667823 0.250000
O O8 0.003732 0.544903 0.366641
O O9 0.544236 0.883850 0.370976
O O10 0.365604 0.840478 0.583978
O O11 0.500000 0.573293 0.750000
O O12 0.336680 0.537226 0.977879
O O13 0.347633 0.970725 0.347463
O O14 0.253616 0.956914 0.587137
O O15 0.173844 0.487010 0.808244
#
# Coordination Sequence:
#
# PCOD9265759 Si02
#       7
#     8   8   8   8   8   8   8
#     4  11  26  44  62  89 128 163 211 251 303 375
#     4   9  18  34  64  95 121 152 200 257 308 366
#     4  11  22  40  62  96 129 156 200 265 315 348
#     4  11  24  45  65  82 120 177 210 241 300 379
#     4  11  19  36  68  92 114 167 209 244 299 375
#     4  10  19  36  65  94 124 159 199 246 316 365
#     4  11  20  41  64  91 126 163 202 253 306 371
#
# _framework density 19.605184000000001
#
# number of rings (size 3 to 8) (size 9 to 14) (size 15 to 20)
#    0.000    1.429    5.714    0.857    0.000    1.714 
#    5.143    2.143    0.000    0.000    0.000    0.000 
#    0.000    0.000    0.000    0.000    0.000    0.000 
#
# Total GULP energy -156396.098004 kJ/mol
# GULP energy per Si atom -5585.574929 kJ/mol
# Density = 1.956056 g / cm^3
# Si number density = 19.605184 Si / 1000 Ang^3
#
#
#
# Elastic Constant Matrix: (Units=GPa)
#
#
# Indices 1 2 3 4 5 6 
#
# 1 53.1306 -16.7318 -17.3547 0.0000 -7.6812 0.0000
# 2 -16.7318 47.7989 -3.1232 0.0000 -6.5214 0.0000
# 3 -17.3547 -3.1232 50.0811 0.0000 5.9487 0.0000
# 4 0.0000 0.0000 0.0000 9.5388 0.0000 -4.7581
# 5 -7.6812 -6.5214 5.9487 0.0000 39.4588 0.0000
# 6 0.0000 0.0000 0.0000 -4.7581 0.0000 10.8051
#
#
#
# Elastic Compliance Matrix: (Units=1/GPa)
#
#
# Indices 1 2 3 4 5 6 
#
# 1 0.025775 0.010340 0.008938 0.000000 0.005379 0.000000
# 2 0.010340 0.025595 0.004519 0.000000 0.005562 0.000000
# 3 0.008938 0.004519 0.023472 0.000000 -0.001052 0.000000
# 4 0.000000 0.000000 0.000000 0.134346 0.000000 0.059161
# 5 0.005379 0.005562 -0.001052 0.000000 0.027468 0.000000
# 6 0.000000 0.000000 0.000000 0.059161 0.000000 0.118601
#
#
# Mechanical properties :
#
#
# Convention : Reuss Voigt Hill
#
# Bulk Modulus (GPa) = 8.16762 8.51015 8.33888
# Shear Modulus (GPa) = 14.34829 24.50856 19.42843
#
# Velocity S-wave (km/s) = 2.70823 3.53952 3.15141
# Velocity P-wave (km/s) = 3.73556 4.58851 4.18383
#
# Compressibility (1/GPa) = 0.12243475
#
# Stress axis : x y z
#
# Youngs Moduli (GPa) = 38.79733 39.07073 42.60473
#
# Poissons Ratio (x) = -0.40400 -0.38079
# Poissons Ratio (y) = -0.40118 -0.19252
# Poissons Ratio (z) = -0.34676 -0.17655
#
# Static dielectric constant tensor:
#      x y z
#    x 1.701670 0.000000 0.023230 
#    y 0.000000 1.665210 0.000000 
#    z 0.023230 0.000000 1.713750 
# 
# From -- ./inp_files/162199.got.cif
#   From: 2010.05.17/outbox.cif.g08.bks.cpg/sg15_82_cif.got.tgz:162199.got - 2010.06.03 18:47:42.
