data_PCOD9265401
_publ_section_title
;
Structure prediction by ZEFSAII (Michael W. Deem and Ramdas Pophale) SiO2 
 PCOD9265401
Probable space group: C 2/C
;
_chemical_formula_sum "Si O2"
_cell_formula_units_Z 64
_cell_length_a 9.112631
_cell_length_b 14.015033
_cell_length_c 29.742192
_cell_angle_alpha 90.000000
_cell_angle_beta 131.077618
_cell_angle_gamma 90.000000
_cell_volume 2863.377538
_symmetry_space_group_name_H-M "C 2/C"
_symmetry_group_IT_number 15
_symmetry_cell_setting 'monoclinic'
loop_
_space_group_symop_operation_xyz
x,y,z
-x,y,1/2-z
-x,-y,-z
x,-y,1/2+z
1/2+x,1/2+y,z
1/2-x,1/2+y,1/2-z
1/2-x,1/2-y,-z
1/2+x,1/2-y,1/2+z
loop_
_atom_site_type_symbol
_atom_site_label
_atom_site_fract_x
_atom_site_fract_y
_atom_site_fract_z
Si Si1 0.228383 0.360469 0.300975
Si Si2 0.151834 0.890135 0.992000
Si Si3 0.564589 0.226173 0.904563
Si Si4 0.899691 0.947076 0.425073
Si Si5 0.967862 0.413638 0.637233
Si Si6 0.670830 0.458206 0.723774
Si Si7 0.182083 0.299938 0.815051
Si Si8 0.212440 0.170650 0.345354
O O1 0.329476 0.392506 0.367613
O O2 0.340163 0.428654 0.288359
O O3 0.220605 0.245628 0.304729
O O4 0.000000 0.388666 0.250000
O O5 0.365039 0.864233 0.052882
O O6 0.047537 0.887672 0.019757
O O7 0.082451 0.809834 0.944414
O O8 0.087227 0.986956 0.955647
O O9 0.345398 0.220490 0.844604
O O10 0.676728 0.266316 0.883150
O O11 0.710974 0.012553 0.400277
O O12 0.151253 0.447102 0.705190
O O13 0.079141 0.381867 0.614636
O O14 0.876471 0.324996 0.646276
O O15 0.742047 0.398511 0.693513
O O16 0.466994 0.404734 0.693627
O O17 0.000000 0.269258 0.750000
#
# Coordination Sequence:
#
# PCOD9265401 Si02
#       8
#     8   8   8   8   8   8   8   8
#     4  12  20  38  66  96 124 168 224 265 325 412
#     4  10  21  36  65  85 118 169 228 260 312 384
#     4  10  19  39  60  91 124 165 215 272 311 386
#     4  11  20  37  62  90 114 166 227 262 312 392
#     4  11  19  37  56  93 126 165 198 270 332 381
#     4  10  19  36  60  89 130 169 204 259 330 395
#     4   9  17  32  60  88 119 164 206 250 327 390
#     4  11  24  37  63  98 133 165 213 267 339 391
#
# _framework density 22.351226
#
# number of rings (size 3 to 8) (size 9 to 14) (size 15 to 20)
#    0.000    1.500    5.000    2.250    0.000    0.000 
#    0.000    2.500    0.000    1.500    0.000    0.000 
#    0.000    0.000    0.000    0.000    0.000    0.000 
#
# Total GULP energy -178241.539148 kJ/mol
# GULP energy per Si atom -5570.048098 kJ/mol
# Density = 2.230035 g / cm^3
# Si number density = 22.351226 Si / 1000 Ang^3
#
#
#
# Elastic Constant Matrix: (Units=GPa)
#
#
# Indices 1 2 3 4 5 6 
#
# 1 89.7320 23.7463 14.7420 0.0000 11.1657 0.0000
# 2 23.7463 69.1428 12.9631 0.0000 0.2765 0.0000
# 3 14.7420 12.9631 60.1886 0.0000 -7.9377 0.0000
# 4 0.0000 0.0000 0.0000 -21.0224 0.0000 -10.1387
# 5 11.1657 0.2765 -7.9377 0.0000 18.6556 0.0000
# 6 0.0000 0.0000 0.0000 -10.1387 0.0000 20.4994
#
#
#
# Elastic Compliance Matrix: (Units=1/GPa)
#
#
# Indices 1 2 3 4 5 6 
#
# 1 0.014115 -0.004075 -0.003905 0.000000 -0.010049 0.000000
# 2 -0.004075 0.016299 -0.002355 0.000000 0.001196 0.000000
# 3 -0.003905 -0.002355 0.019484 0.000000 0.010662 0.000000
# 4 0.000000 0.000000 0.000000 -0.038407 0.000000 -0.018996
# 5 -0.010049 0.001196 0.010662 0.000000 0.064137 0.000000
# 6 0.000000 0.000000 0.000000 -0.018996 0.000000 0.039387
#
#
# Mechanical properties :
#
#
# Convention : Reuss Voigt Hill
#
# Bulk Modulus (GPa) = 34.21278 35.77402 34.99340
# Shear Modulus (GPa) = 34.38171 14.80065 24.59118
#
# Velocity S-wave (km/s) = 3.92630 2.57609 3.32055
# Velocity P-wave (km/s) = 5.99121 4.98883 5.51285
#
# Compressibility (1/GPa) = 0.02922884
#
# Stress axis : x y z
#
# Youngs Moduli (GPa) = 70.84831 61.35316 51.32404
#
# Poissons Ratio (x) = 0.25003 0.20040
# Poissons Ratio (y) = 0.28873 0.12084
# Poissons Ratio (z) = 0.27664 0.14446
#
# Static dielectric constant tensor:
#      x y z
#    x 1.905780 0.000000 0.010330 
#    y 0.000000 1.923190 0.000000 
#    z 0.010330 0.000000 1.833050 
# 
# From -- ./inp_files/308311.got.cif
#   From: 2010.05.17/outbox.cif.g08.bks.cpg/sg15_155_cif.got.tgz:308311.got - 2010.06.03 18:47:42.
