data_PCOD9265057
_publ_section_title
;
Structure prediction by ZEFSAII (Michael W. Deem and Ramdas Pophale) SiO2 
 PCOD9265057
Probable space group: C 2/C
;
_chemical_formula_sum "Si O2"
_cell_formula_units_Z 56
_cell_length_a 13.583445
_cell_length_b 8.951851
_cell_length_c 26.041034
_cell_angle_alpha 90.000000
_cell_angle_beta 124.118264
_cell_angle_gamma 90.000000
_cell_volume 2621.496110
_symmetry_space_group_name_H-M "C 2/C"
_symmetry_group_IT_number 15
_symmetry_cell_setting 'monoclinic'
loop_
_space_group_symop_operation_xyz
x,y,z
-x,y,1/2-z
-x,-y,-z
x,-y,1/2+z
1/2+x,1/2+y,z
1/2-x,1/2+y,1/2-z
1/2-x,1/2-y,-z
1/2+x,1/2-y,1/2+z
loop_
_atom_site_type_symbol
_atom_site_label
_atom_site_fract_x
_atom_site_fract_y
_atom_site_fract_z
Si Si1 0.145790 0.441771 0.149314
Si Si2 0.473687 0.328121 0.949714
Si Si3 0.735930 0.009873 0.378374
Si Si4 0.509010 0.152457 0.812960
Si Si5 0.842500 0.712060 0.413572
Si Si6 0.120112 0.184789 0.815900
Si Si7 0.108200 0.938327 0.890352
O O1 0.081398 0.312605 0.097207
O O2 0.110816 0.598028 0.114713
O O3 0.285928 0.423307 0.184087
O O4 0.106969 0.414718 0.195403
O O5 0.358765 0.420483 0.936221
O O6 0.554715 0.416961 0.931640
O O7 0.555499 0.268388 0.018924
O O8 0.678670 0.151608 0.333807
O O9 0.619578 0.938299 0.371768
O O10 0.783833 0.855180 0.368262
O O11 0.500000 0.130941 0.750000
O O12 0.528366 0.325972 0.832186
O O13 0.741643 0.626948 0.418935
O O14 0.000000 0.190670 0.750000
O O15 0.103892 0.106025 0.866807
#
# Coordination Sequence:
#
# PCOD9265057 Si02
#       7
#     8   8   8   8   8   8   8
#     4   9  21  37  59  85 109 150 200 232 286 360
#     4  10  19  36  57  84 117 151 190 243 291 342
#     4  10  22  35  53  84 117 149 194 234 285 354
#     4  10  20  38  57  80 114 147 185 242 292 341
#     4  10  19  37  58  82 116 153 191 242 290 342
#     4  10  20  38  57  80 113 148 189 242 291 345
#     4   9  20  35  58  85 108 146 199 235 287 360
#
# _framework density 21.361847999999998
#
# number of rings (size 3 to 8) (size 9 to 14) (size 15 to 20)
#    0.000    2.286    0.000    2.143    0.000    2.286 
#    0.000   13.571    0.000    0.000    0.000    0.000 
#    0.000    0.000    0.000    0.000    0.000    0.000 
#
# Total GULP energy -156003.021886 kJ/mol
# GULP energy per Si atom -5571.536496 kJ/mol
# Density = 2.131323 g / cm^3
# Si number density = 21.361848 Si / 1000 Ang^3
#
#
#
# Elastic Constant Matrix: (Units=GPa)
#
#
# Indices 1 2 3 4 5 6 
#
# 1 62.1125 13.8425 39.1126 0.0000 3.4286 0.0000
# 2 13.8425 95.8909 34.2084 0.0000 -4.9724 0.0000
# 3 39.1126 34.2084 84.7896 0.0000 2.4009 0.0000
# 4 0.0000 0.0000 0.0000 20.3438 0.0000 -1.5793
# 5 3.4286 -4.9724 2.4009 0.0000 25.0443 0.0000
# 6 0.0000 0.0000 0.0000 -1.5793 0.0000 20.5538
#
#
#
# Elastic Compliance Matrix: (Units=1/GPa)
#
#
# Indices 1 2 3 4 5 6 
#
# 1 0.022815 0.000392 -0.010625 0.000000 -0.002027 0.000000
# 2 0.000392 0.012402 -0.005267 0.000000 0.002914 0.000000
# 3 -0.010625 -0.005267 0.018860 0.000000 -0.001399 0.000000
# 4 0.000000 0.000000 0.000000 0.049450 0.000000 0.003800
# 5 -0.002027 0.002914 -0.001399 0.000000 0.040919 0.000000
# 6 0.000000 0.000000 0.000000 0.003800 0.000000 0.048945
#
#
# Mechanical properties :
#
#
# Convention : Reuss Voigt Hill
#
# Bulk Modulus (GPa) = 43.33405 46.34667 44.84036
# Shear Modulus (GPa) = 21.54402 23.56368 22.55385
#
# Velocity S-wave (km/s) = 3.17918 3.32486 3.25283
# Velocity P-wave (km/s) = 5.81429 6.04009 5.92827
#
# Compressibility (1/GPa) = 0.02307654
#
# Stress axis : x y z
#
# Youngs Moduli (GPa) = 43.83072 80.63255 53.02333
#
# Poissons Ratio (x) = -0.03159 0.56337
# Poissons Ratio (y) = -0.01717 0.27926
# Poissons Ratio (z) = 0.46570 0.42468
#
# Static dielectric constant tensor:
#      x y z
#    x 1.810160 0.000000 0.020760 
#    y 0.000000 1.805060 0.000000 
#    z 0.020760 0.000000 1.754280 
# 
# From -- ./inp_files/295255.got.cif
#   From: 2010.05.17/outbox.cif.g08.bks.cpg/sg15_148_cif.got.tgz:295255.got - 2010.06.03 18:47:42.
