data_PCOD9265951
_publ_section_title
;
Structure prediction by ZEFSAII (Michael W. Deem and Ramdas Pophale) SiO2 
 PCOD9265951
Probable space group: C 2/C
;
_chemical_formula_sum "Si O2"
_cell_formula_units_Z 52
_cell_length_a 9.096276
_cell_length_b 11.923912
_cell_length_c 22.320006
_cell_angle_alpha 90.000000
_cell_angle_beta 69.455753
_cell_angle_gamma 90.000000
_cell_volume 2266.933502
_symmetry_space_group_name_H-M "C 2/C"
_symmetry_group_IT_number 15
_symmetry_cell_setting 'monoclinic'
loop_
_space_group_symop_operation_xyz
x,y,z
-x,y,1/2-z
-x,-y,-z
x,-y,1/2+z
1/2+x,1/2+y,z
1/2-x,1/2+y,1/2-z
1/2-x,1/2-y,-z
1/2+x,1/2-y,1/2+z
loop_
_atom_site_type_symbol
_atom_site_label
_atom_site_fract_x
_atom_site_fract_y
_atom_site_fract_z
Si Si1 0.500000 0.616084 0.750000
Si Si2 0.956608 0.397577 0.548048
Si Si3 0.275372 0.583829 0.060819
Si Si4 0.735576 0.683795 0.815145
Si Si5 0.103864 0.839507 0.459494
Si Si6 0.830664 0.558702 0.293102
Si Si7 0.303463 0.425723 0.817862
O O1 0.636870 0.681755 0.766842
O O2 0.419507 0.529929 0.809479
O O3 0.125479 0.362654 0.550251
O O4 0.870719 0.292080 0.528828
O O5 0.000000 0.500000 0.500000
O O6 0.847351 0.439541 0.618268
O O7 0.285680 0.448687 0.046296
O O8 0.247873 0.604593 0.135540
O O9 0.439339 0.629812 0.013446
O O10 0.607609 0.670000 0.886435
O O11 0.841858 0.574429 0.802726
O O12 0.837375 0.793048 0.818235
O O13 0.730776 0.568784 0.247750
O O14 0.000000 0.602587 0.250000
#
# Coordination Sequence:
#
# PCOD9265951 Si02
#       7
#     4   8   8   8   8   8   8
#     4  10  22  38  58  90 120 154 200 246 292 362
#     4  11  23  38  58  89 122 155 193 246 303 354
#     4  10  20  39  63  82 117 156 199 251 288 354
#     4   9  21  37  61  83 118 158 191 250 298 346
#     4   9  21  40  60  87 112 156 205 240 299 349
#     4  10  19  37  58  85 113 152 204 239 293 360
#     4  10  22  40  58  89 119 155 198 245 300 351
#
# _framework density 22.938476999999999
#
# number of rings (size 3 to 8) (size 9 to 14) (size 15 to 20)
#    0.000    2.154    1.538    0.462    4.308    0.615 
#    5.538    0.000    0.000    0.000    0.000    0.000 
#    0.000    0.000    0.000    0.000    0.000    0.000 
#
# Total GULP energy -144838.363653 kJ/mol
# GULP energy per Si atom -5570.706294 kJ/mol
# Density = 2.288627 g / cm^3
# Si number density = 22.938477 Si / 1000 Ang^3
#
#
#
# Elastic Constant Matrix: (Units=GPa)
#
#
# Indices 1 2 3 4 5 6 
#
# 1 33.4725 -4.0654 18.1831 0.0000 -11.0929 0.0000
# 2 -4.0654 98.5587 27.4833 0.0000 5.5051 0.0000
# 3 18.1831 27.4833 143.6965 0.0000 -21.1048 0.0000
# 4 0.0000 0.0000 0.0000 13.8251 0.0000 9.9709
# 5 -11.0929 5.5051 -21.1048 0.0000 30.9598 0.0000
# 6 0.0000 0.0000 0.0000 9.9709 0.0000 24.5359
#
#
#
# Elastic Compliance Matrix: (Units=1/GPa)
#
#
# Indices 1 2 3 4 5 6 
#
# 1 0.035231 0.001823 -0.003334 0.000000 0.010026 0.000000
# 2 0.001823 0.011201 -0.002855 0.000000 -0.003285 0.000000
# 3 -0.003334 -0.002855 0.008697 0.000000 0.005242 0.000000
# 4 0.000000 0.000000 0.000000 0.102322 0.000000 -0.041582
# 5 0.010026 -0.003285 0.005242 0.000000 0.040050 0.000000
# 6 0.000000 0.000000 0.000000 -0.041582 0.000000 0.057655
#
#
# Mechanical properties :
#
#
# Convention : Reuss Voigt Hill
#
# Bulk Modulus (GPa) = 21.55388 39.88111 30.71750
# Shear Modulus (GPa) = 17.89847 29.47258 23.68553
#
# Velocity S-wave (km/s) = 2.79638 3.58837 3.21684
# Velocity P-wave (km/s) = 4.45456 5.88153 5.21707
#
# Compressibility (1/GPa) = 0.04639535
#
# Stress axis : x y z
#
# Youngs Moduli (GPa) = 28.38444 89.27631 114.98217
#
# Poissons Ratio (x) = -0.16274 0.38336
# Poissons Ratio (y) = -0.05174 0.32833
# Poissons Ratio (z) = 0.09464 0.25493
#
# Static dielectric constant tensor:
#      x y z
#    x 3.002700 0.000000 -0.074070 
#    y 0.000000 2.009830 0.000000 
#    z -0.074070 0.000000 1.835570 
# 
# From -- ./inp_files/237202.got.cif
#   From: 2010.05.17/outbox.cif.g08.bks.cpg/sg15_119_cif.got.tgz:237202.got - 2010.06.03 18:47:42.
