data_PCOD9265253
_publ_section_title
;
Structure prediction by ZEFSAII (Michael W. Deem and Ramdas Pophale) SiO2 
 PCOD9265253
Probable space group: C 2/C
;
_chemical_formula_sum "Si O2"
_cell_formula_units_Z 56
_cell_length_a 20.876761
_cell_length_b 9.303079
_cell_length_c 14.085424
_cell_angle_alpha 90.000000
_cell_angle_beta 58.911849
_cell_angle_gamma 90.000000
_cell_volume 2342.735019
_symmetry_space_group_name_H-M "C 2/C"
_symmetry_group_IT_number 15
_symmetry_cell_setting 'monoclinic'
loop_
_space_group_symop_operation_xyz
x,y,z
-x,y,1/2-z
-x,-y,-z
x,-y,1/2+z
1/2+x,1/2+y,z
1/2-x,1/2+y,1/2-z
1/2-x,1/2-y,-z
1/2+x,1/2-y,1/2+z
loop_
_atom_site_type_symbol
_atom_site_label
_atom_site_fract_x
_atom_site_fract_y
_atom_site_fract_z
Si Si1 0.546705 0.357983 0.442924
Si Si2 0.623922 0.074976 0.083027
Si Si3 0.303429 0.503907 0.235785
Si Si4 0.841083 0.664546 0.666051
Si Si5 0.280177 0.582131 0.971289
Si Si6 0.560877 0.642055 0.637068
Si Si7 0.997968 0.397656 0.408545
O O1 0.500000 0.500000 0.500000
O O2 0.627863 0.404608 0.348935
O O3 0.492930 0.295012 0.402444
O O4 0.544126 0.248173 0.530141
O O5 0.596829 0.217394 0.159243
O O6 0.554270 0.970691 0.128419
O O7 0.641459 0.126869 0.959127
O O8 0.701765 0.009502 0.060547
O O9 0.226147 0.440995 0.255685
O O10 0.316813 0.669306 0.196925
O O11 0.297840 0.477634 0.353080
O O12 0.915179 0.638424 0.671284
O O13 0.362436 0.565680 0.956138
O O14 0.250000 0.750000 0.000000
O O15 0.500000 0.561937 0.750000
O O16 0.000000 0.500000 0.500000
#
# Coordination Sequence:
#
# PCOD9265253 Si02
#       7
#     8   8   8   8   8   8   8
#     4  12  22  37  60  91 119 159 211 260 314 369
#     4   9  19  37  59  84 121 158 199 254 315 363
#     4  11  22  35  56  92 123 159 205 259 317 364
#     4  10  21  35  56  91 124 155 202 260 308 370
#     4   9  20  35  55  84 116 161 202 249 299 372
#     4  11  19  34  57  88 116 157 207 253 299 375
#     4  10  19  36  59  85 119 157 195 254 313 368
#
# _framework density 23.903684999999999
#
# number of rings (size 3 to 8) (size 9 to 14) (size 15 to 20)
#    0.000    1.714    5.714    0.000    6.000    0.000 
#    0.000    0.000    0.000    3.429    0.000    0.000 
#    0.000    0.000    0.000    0.000    0.000    0.000 
#
# Total GULP energy -156148.108416 kJ/mol
# GULP energy per Si atom -5576.718158 kJ/mol
# Density = 2.384928 g / cm^3
# Si number density = 23.903685 Si / 1000 Ang^3
#
#
#
# Elastic Constant Matrix: (Units=GPa)
#
#
# Indices 1 2 3 4 5 6 
#
# 1 124.5391 35.1965 71.7227 0.0000 -47.9371 0.0000
# 2 35.1965 95.9810 38.5691 0.0000 -24.2889 0.0000
# 3 71.7227 38.5691 108.9806 0.0000 -39.7172 0.0000
# 4 0.0000 0.0000 0.0000 29.0923 0.0000 -10.3938
# 5 -47.9371 -24.2889 -39.7172 0.0000 59.4699 0.0000
# 6 0.0000 0.0000 0.0000 -10.3938 0.0000 33.3506
#
#
#
# Elastic Compliance Matrix: (Units=1/GPa)
#
#
# Indices 1 2 3 4 5 6 
#
# 1 0.015042 -0.000913 -0.006996 0.000000 0.007079 0.000000
# 2 -0.000913 0.012555 -0.002963 0.000000 0.002413 0.000000
# 3 -0.006996 -0.002963 0.016300 0.000000 0.004036 0.000000
# 4 0.000000 0.000000 0.000000 0.038680 0.000000 0.012055
# 5 0.007079 0.002413 0.004036 0.000000 0.026203 0.000000
# 6 0.000000 0.000000 0.000000 0.012055 0.000000 0.033741
#
#
# Mechanical properties :
#
#
# Convention : Reuss Voigt Hill
#
# Bulk Modulus (GPa) = 45.14234 68.94193 57.04214
# Shear Modulus (GPa) = 29.12912 36.65003 32.88957
#
# Velocity S-wave (km/s) = 3.49464 3.91991 3.71336
# Velocity P-wave (km/s) = 5.93375 7.02792 6.50389
#
# Compressibility (1/GPa) = 0.02215215
#
# Stress axis : x y z
#
# Youngs Moduli (GPa) = 66.48155 79.65087 61.34980
#
# Poissons Ratio (x) = 0.07272 0.42921
# Poissons Ratio (y) = 0.06070 0.18178
# Poissons Ratio (z) = 0.46512 0.23601
#
# Static dielectric constant tensor:
#      x y z
#    x 2.100820 0.000000 0.083480 
#    y 0.000000 1.918950 0.000000 
#    z 0.083480 0.000000 2.022840 
# 
# From -- ./inp_files/218537.got.cif
#   From: 2010.05.17/outbox.cif.g08.bks.cpg/sg15_110_cif.got.tgz:218537.got - 2010.06.03 18:47:42.
