data_PCOD9265036
_publ_section_title
;
Structure prediction by ZEFSAII (Michael W. Deem and Ramdas Pophale) SiO2 
 PCOD9265036
Probable space group: C 2/C
;
_chemical_formula_sum "Si O2"
_cell_formula_units_Z 48
_cell_length_a 8.792023
_cell_length_b 14.714621
_cell_length_c 17.687693
_cell_angle_alpha 90.000000
_cell_angle_beta 92.599683
_cell_angle_gamma 90.000000
_cell_volume 2285.924545
_symmetry_space_group_name_H-M "C 2/C"
_symmetry_group_IT_number 15
_symmetry_cell_setting 'monoclinic'
loop_
_space_group_symop_operation_xyz
x,y,z
-x,y,1/2-z
-x,-y,-z
x,-y,1/2+z
1/2+x,1/2+y,z
1/2-x,1/2+y,1/2-z
1/2-x,1/2-y,-z
1/2+x,1/2-y,1/2+z
loop_
_atom_site_type_symbol
_atom_site_label
_atom_site_fract_x
_atom_site_fract_y
_atom_site_fract_z
Si Si1 0.281970 0.491833 0.066457
Si Si2 0.295902 0.723866 0.373178
Si Si3 0.448579 0.700970 0.535664
Si Si4 0.053312 0.396305 0.169925
Si Si5 0.254714 0.391594 0.419444
Si Si6 0.062179 0.960856 0.667861
O O1 0.363302 0.397049 0.043587
O O2 0.149309 0.466919 0.121952
O O3 0.415751 0.548256 0.109889
O O4 0.226969 0.544938 0.991808
O O5 0.398224 0.733411 0.451920
O O6 0.126420 0.735099 0.402339
O O7 0.339751 0.807453 0.320341
O O8 0.335422 0.628582 0.336862
O O9 0.626489 0.685762 0.552810
O O10 0.000000 0.431187 0.250000
O O11 0.903081 0.365995 0.121514
O O12 0.344163 0.453600 0.360566
O O13 0.000000 0.975410 0.750000
#
# Coordination Sequence:
#
# PCOD9265036 Si02
#       6
#     8   8   8   8   8   8
#     4  10  19  38  58  83 110 151 196 230 277 340
#     4  10  19  36  57  81 114 147 182 231 285 340
#     4   9  18  35  61  84 107 145 194 230 275 344
#     4  11  24  37  53  82 121 150 182 238 298 334
#     4  11  20  38  59  85 108 151 197 235 276 337
#     4  11  20  35  61  85 113 150 191 233 280 342
#
# _framework density 20.998068
#
# number of rings (size 3 to 8) (size 9 to 14) (size 15 to 20)
#    0.000    1.667    3.333    3.000    0.000    0.667 
#    0.000    0.000    0.000    2.000    0.000    0.000 
#    0.000    0.000    0.000    0.000    0.000    0.000 
#
# Total GULP energy -134139.835729 kJ/mol
# GULP energy per Si atom -5589.159822 kJ/mol
# Density = 2.095028 g / cm^3
# Si number density = 20.998068 Si / 1000 Ang^3
#
#
#
# Elastic Constant Matrix: (Units=GPa)
#
#
# Indices 1 2 3 4 5 6 
#
# 1 90.0167 15.1860 15.8648 0.0000 -14.9918 0.0000
# 2 15.1860 34.9214 14.0266 0.0000 -17.4988 0.0000
# 3 15.8648 14.0266 85.6746 0.0000 -30.7511 0.0000
# 4 0.0000 0.0000 0.0000 -1.4313 0.0000 2.7724
# 5 -14.9918 -17.4988 -30.7511 0.0000 36.7352 0.0000
# 6 0.0000 0.0000 0.0000 2.7724 0.0000 21.6935
#
#
#
# Elastic Compliance Matrix: (Units=1/GPa)
#
#
# Indices 1 2 3 4 5 6 
#
# 1 0.012306 -0.003741 -0.000720 0.000000 0.002638 0.000000
# 2 -0.003741 0.038760 0.000609 0.000000 0.017446 0.000000
# 3 -0.000720 0.000609 0.016731 0.000000 0.014002 0.000000
# 4 0.000000 0.000000 0.000000 -0.560032 0.000000 0.071570
# 5 0.002638 0.017446 0.014002 0.000000 0.048330 0.000000
# 6 0.000000 0.000000 0.000000 0.071570 0.000000 0.036950
#
#
# Mechanical properties :
#
#
# Convention : Reuss Voigt Hill
#
# Bulk Modulus (GPa) = 16.64022 33.41861 25.02942
# Shear Modulus (GPa) = -13.18497 22.43517 4.62510
#
# Velocity S-wave (km/s) = -2.50854 3.27225 1.48574
# Velocity P-wave (km/s) = 0.66971 5.49786 3.85862
#
# Compressibility (1/GPa) = 0.06009536
#
# Stress axis : x y z
#
# Youngs Moduli (GPa) = 81.25941 25.79981 59.76764
#
# Poissons Ratio (x) = 0.09651 0.04300
# Poissons Ratio (y) = 0.30396 -0.03640
# Poissons Ratio (z) = 0.05847 -0.01571
#
# Static dielectric constant tensor:
#      x y z
#    x 1.749430 0.000000 -0.005970 
#    y 0.000000 1.739180 0.000000 
#    z -0.005970 0.000000 1.745750 
# 
# From -- ./inp_files/189274.got.cif
#   From: 2010.05.17/outbox.cif.g08.bks.cpg/sg15_95_cif.got.tgz:189274.got - 2010.06.03 18:47:42.
