data_PCOD9265066
_publ_section_title
;
Structure prediction by ZEFSAII (Michael W. Deem and Ramdas Pophale) SiO2 
 PCOD9265066
Probable space group: C 2/C
;
_chemical_formula_sum "Si O2"
_cell_formula_units_Z 64
_cell_length_a 7.923115
_cell_length_b 23.245989
_cell_length_c 24.646361
_cell_angle_alpha 90.000000
_cell_angle_beta 36.084452
_cell_angle_gamma 90.000000
_cell_volume 2673.592319
_symmetry_space_group_name_H-M "C 2/C"
_symmetry_group_IT_number 15
_symmetry_cell_setting 'monoclinic'
loop_
_space_group_symop_operation_xyz
x,y,z
-x,y,1/2-z
-x,-y,-z
x,-y,1/2+z
1/2+x,1/2+y,z
1/2-x,1/2+y,1/2-z
1/2-x,1/2-y,-z
1/2+x,1/2-y,1/2+z
loop_
_atom_site_type_symbol
_atom_site_label
_atom_site_fract_x
_atom_site_fract_y
_atom_site_fract_z
Si Si1 0.805086 0.826267 0.702064
Si Si2 0.303541 0.939430 0.179871
Si Si3 0.353473 0.238051 0.048970
Si Si4 0.654367 0.406957 0.981341
Si Si5 0.232023 0.026733 0.009002
Si Si6 0.646348 0.847281 0.156180
Si Si7 0.557742 0.210343 0.117311
Si Si8 0.781777 0.958372 0.715965
O O1 0.500000 0.824780 0.750000
O O2 0.720195 0.784016 0.773072
O O3 0.838186 0.891562 0.713276
O O4 0.104186 0.806608 0.596599
O O5 0.467567 0.943015 0.080147
O O6 0.472443 0.900436 0.177830
O O7 0.000000 0.911975 0.250000
O O8 0.263801 0.000709 0.220716
O O9 0.186464 0.298147 0.100682
O O10 0.458082 0.221836 0.082199
O O11 0.660308 0.251572 0.940822
O O12 0.788540 0.461754 0.975037
O O13 0.841875 0.356423 0.907114
O O14 0.472218 0.437616 0.980293
O O15 0.465423 0.373906 0.075818
O O16 0.059282 0.024027 0.109053
O O17 0.500000 0.829521 0.250000
O O18 0.500000 0.963258 0.750000
#
# Coordination Sequence:
#
# PCOD9265066 Si02
#       8
#     8   8   8   8   8   8   8   8
#     4  11  23  38  60  89 123 162 202 249 306 369
#     4  11  24  38  57  88 122 158 199 250 307 361
#     4  10  23  40  62  89 116 157 207 256 308 359
#     4   9  17  31  59  86 111 152 194 247 305 353
#     4  10  19  36  57  85 122 155 196 244 300 370
#     4  10  19  36  59  81 111 152 199 245 297 368
#     4  10  20  39  62  88 119 152 206 260 303 361
#     4  11  22  39  63  89 119 161 206 247 305 373
#
# _framework density 23.937830000000002
#
# number of rings (size 3 to 8) (size 9 to 14) (size 15 to 20)
#    0.000    1.750    0.000    6.750    0.000    3.500 
#    0.000    5.000    0.000    0.000    0.000    0.000 
#    0.000    0.000    0.000    0.000    0.000    0.000 
#
# Total GULP energy -178591.775998 kJ/mol
# GULP energy per Si atom -5580.993000 kJ/mol
# Density = 2.388335 g / cm^3
# Si number density = 23.937830 Si / 1000 Ang^3
#
#
#
# Elastic Constant Matrix: (Units=GPa)
#
#
# Indices 1 2 3 4 5 6 
#
# 1 37.8308 2.4140 13.6626 -0.0338 -3.4043 -0.0527
# 2 2.4140 83.5259 5.9614 -0.0062 -10.1368 -0.0095
# 3 13.6626 5.9614 141.8076 -0.0339 0.4337 -0.0501
# 4 -0.0338 -0.0062 -0.0339 -300.1888 0.0107 -459.7910
# 5 -3.4043 -10.1368 0.4337 0.0107 26.7278 0.0173
# 6 -0.0527 -0.0095 -0.0501 -459.7910 0.0173 -707.6333
#
#
#
# Elastic Compliance Matrix: (Units=1/GPa)
#
#
# Indices 1 2 3 4 5 6 
#
# 1 0.027726 -0.000185 -0.002674 0.000010 0.003505 -0.000008
# 2 -0.000185 0.012593 -0.000526 -0.000002 0.004761 0.000001
# 3 -0.002674 -0.000526 0.007334 -0.000008 -0.000659 0.000005
# 4 0.000010 -0.000002 -0.000008 -0.696624 -0.000012 0.452638
# 5 0.003505 0.004761 -0.000659 -0.000012 0.039677 0.000009
# 6 -0.000008 0.000001 0.000005 0.452638 0.000009 -0.295519
#
#
# Mechanical properties :
#
#
# Convention : Reuss Voigt Hill
#
# Bulk Modulus (GPa) = 24.46062 34.13783 29.29923
# Shear Modulus (GPa) = -5.65346 -180.14377 -92.89861
#
# Velocity S-wave (km/s) = -1.53846 -8.68437 -6.23639
# Velocity P-wave (km/s) = 2.66172 9.28793 6.29209
#
# Compressibility (1/GPa) = 0.04088204
#
# Stress axis : x y z
#
# Youngs Moduli (GPa) = 36.06664 79.40899 136.35876
#
# Poissons Ratio (x) = 0.01470 0.36466
# Poissons Ratio (y) = 0.00668 0.07174
# Poissons Ratio (z) = 0.09645 0.04178
#
# Static dielectric constant tensor:
#      x y z
#    x 1.966540 0.000000 0.033800 
#    y 0.000000 1.904840 0.000000 
#    z 0.033800 0.000000 2.100500 
# 
# From -- ./inp_files/309112.got.cif
#   From: 2010.05.17/outbox.cif.g08.bks.cpg/sg15_155_cif.got.tgz:309112.got - 2010.06.03 18:47:42.
