data_PCOD9265631
_publ_section_title
;
Structure prediction by ZEFSAII (Michael W. Deem and Ramdas Pophale) SiO2 
 PCOD9265631
Probable space group: C 2/C
;
_chemical_formula_sum "Si O2"
_cell_formula_units_Z 60
_cell_length_a 11.802067
_cell_length_b 12.555509
_cell_length_c 29.235574
_cell_angle_alpha 90.000000
_cell_angle_beta 146.198189
_cell_angle_gamma 90.000000
_cell_volume 2410.072827
_symmetry_space_group_name_H-M "C 2/C"
_symmetry_group_IT_number 15
_symmetry_cell_setting 'monoclinic'
loop_
_space_group_symop_operation_xyz
x,y,z
-x,y,1/2-z
-x,-y,-z
x,-y,1/2+z
1/2+x,1/2+y,z
1/2-x,1/2+y,1/2-z
1/2-x,1/2-y,-z
1/2+x,1/2-y,1/2+z
loop_
_atom_site_type_symbol
_atom_site_label
_atom_site_fract_x
_atom_site_fract_y
_atom_site_fract_z
Si Si1 0.094526 0.500284 0.084975
Si Si2 0.692144 0.647298 0.451996
Si Si3 0.251137 0.403272 0.225553
Si Si4 0.724031 0.854259 0.046465
Si Si5 0.569837 0.535539 0.621072
Si Si6 0.000000 0.488364 0.750000
Si Si7 0.950500 0.235610 0.286973
Si Si8 0.030995 0.700733 0.189474
O O1 0.203672 0.480272 0.168868
O O2 0.220962 0.440860 0.087560
O O3 0.890916 0.426469 0.018818
O O4 0.003405 0.619031 0.047447
O O5 0.750000 0.750000 0.500000
O O6 0.515477 0.580564 0.418236
O O7 0.603944 0.673177 0.372063
O O8 0.378571 0.458296 0.307821
O O9 0.064062 0.350648 0.191402
O O10 0.372394 0.298884 0.248822
O O11 0.817701 0.745802 0.098274
O O12 0.881006 0.883229 0.057713
O O13 0.788798 0.551987 0.672396
O O14 0.981241 0.406999 0.786505
O O15 0.715420 0.196920 0.214612
O O16 0.000000 0.232765 0.250000
#
# Coordination Sequence:
#
# PCOD9265631 Si02
#       8
#     8   8   8   8   8   4   8   8
#     4  10  19  36  63  86 129 166 210 271 321 393
#     4  11  20  39  62  98 124 164 225 264 322 387
#     4   9  19  37  59  90 120 170 209 261 323 393
#     4   9  20  36  56  92 122 162 205 265 321 374
#     4  10  22  35  58  95 123 156 214 272 302 388
#     4  12  20  36  64  90 122 162 226 264 308 386
#     4  10  21  39  61  90 128 169 209 275 325 384
#     4   9  19  34  59  85 119 167 211 261 319 385
#
# _framework density 24.895513999999999
#
# number of rings (size 3 to 8) (size 9 to 14) (size 15 to 20)
#    0.800    1.333    2.667    0.800    2.800    1.600 
#    7.200    0.000    2.933    4.800    0.000    0.000 
#    0.000    0.000    0.000    0.000    0.000    0.000 
#
# Total GULP energy -167182.222933 kJ/mol
# GULP energy per Si atom -5572.740764 kJ/mol
# Density = 2.483885 g / cm^3
# Si number density = 24.895514 Si / 1000 Ang^3
#
#
#
# Elastic Constant Matrix: (Units=GPa)
#
#
# Indices 1 2 3 4 5 6 
#
# 1 133.3486 -3.8759 3.4937 0.0000 17.6984 0.0000
# 2 -3.8759 42.6520 -7.6260 0.0000 8.7691 0.0000
# 3 3.4937 -7.6260 51.1816 0.0000 1.2239 0.0000
# 4 0.0000 0.0000 0.0000 44.3591 0.0000 0.7647
# 5 17.6984 8.7691 1.2239 0.0000 44.5356 0.0000
# 6 0.0000 0.0000 0.0000 0.7647 0.0000 22.6032
#
#
#
# Elastic Compliance Matrix: (Units=1/GPa)
#
#
# Indices 1 2 3 4 5 6 
#
# 1 0.008004 0.001390 -0.000257 0.000000 -0.003447 0.000000
# 2 0.001390 0.025421 0.003828 0.000000 -0.005663 0.000000
# 3 -0.000257 0.003828 0.020155 0.000000 -0.001206 0.000000
# 4 0.000000 0.000000 0.000000 0.022556 0.000000 -0.000763
# 5 -0.003447 -0.005663 -0.001206 0.000000 0.024972 0.000000
# 6 0.000000 0.000000 0.000000 -0.000763 0.000000 0.044267
#
#
# Mechanical properties :
#
#
# Convention : Reuss Voigt Hill
#
# Bulk Modulus (GPa) = 15.74740 23.46288 19.60514
# Shear Modulus (GPa) = 31.92446 37.97895 34.95171
#
# Velocity S-wave (km/s) = 3.58486 3.91005 3.75098
# Velocity P-wave (km/s) = 4.84501 5.46165 5.16254
#
# Compressibility (1/GPa) = 0.06350256
#
# Stress axis : x y z
#
# Youngs Moduli (GPa) = 124.94032 39.33813 49.61544
#
# Poissons Ratio (x) = -0.05469 0.01274
# Poissons Ratio (y) = -0.17369 -0.18994
# Poissons Ratio (z) = 0.03208 -0.15059
#
# Static dielectric constant tensor:
#      x y z
#    x 2.039980 0.000000 0.012280 
#    y 0.000000 2.091400 0.000000 
#    z 0.012280 0.000000 1.993050 
# 
# From -- ./inp_files/293375.got.cif
#   From: 2010.05.17/outbox.cif.g08.bks.cpg/sg15_147_cif.got.tgz:293375.got - 2010.06.03 18:47:42.
