data_PCOD9265758
_publ_section_title
;
Structure prediction by ZEFSAII (Michael W. Deem and Ramdas Pophale) SiO2 
 PCOD9265758
Probable space group: C 2/C
;
_chemical_formula_sum "Si O2"
_cell_formula_units_Z 48
_cell_length_a 8.138817
_cell_length_b 13.145521
_cell_length_c 21.114275
_cell_angle_alpha 90.000000
_cell_angle_beta 100.473575
_cell_angle_gamma 90.000000
_cell_volume 2221.357500
_symmetry_space_group_name_H-M "C 2/C"
_symmetry_group_IT_number 15
_symmetry_cell_setting 'monoclinic'
loop_
_space_group_symop_operation_xyz
x,y,z
-x,y,1/2-z
-x,-y,-z
x,-y,1/2+z
1/2+x,1/2+y,z
1/2-x,1/2+y,1/2-z
1/2-x,1/2-y,-z
1/2+x,1/2-y,1/2+z
loop_
_atom_site_type_symbol
_atom_site_label
_atom_site_fract_x
_atom_site_fract_y
_atom_site_fract_z
Si Si1 0.504031 0.722278 0.369416
Si Si2 0.207676 0.030208 0.963677
Si Si3 0.336063 0.868204 0.887074
Si Si4 0.569178 0.204305 0.501659
Si Si5 0.506621 0.055640 0.825270
Si Si6 0.633915 0.488660 0.605812
O O1 0.680929 0.694524 0.349210
O O2 0.522054 0.742740 0.446446
O O3 0.442727 0.830314 0.337778
O O4 0.394058 0.618579 0.359260
O O5 0.375330 0.094754 0.967988
O O6 0.258215 0.919193 0.944820
O O7 0.163139 0.036814 0.033973
O O8 0.041991 0.050599 0.909614
O O9 0.406914 0.961102 0.850511
O O10 0.478300 0.799965 0.928122
O O11 0.750000 0.250000 0.500000
O O12 0.500000 0.042396 0.750000
O O13 0.700704 0.045648 0.860192
#
# Coordination Sequence:
#
# PCOD9265758 Si02
#       6
#     8   8   8   8   8   8
#     4  11  24  40  66  96 129 165 212 260 326 388
#     4  10  19  36  65  93 129 162 192 257 332 388
#     4  11  23  40  62  95 132 167 206 268 320 381
#     4  12  20  34  63 101 134 162 198 254 334 399
#     4  12  26  45  65  85 125 178 225 266 310 365
#     4  10  22  41  63  97 132 163 208 261 318 392
#
# _framework density 21.608408000000001
#
# number of rings (size 3 to 8) (size 9 to 14) (size 15 to 20)
#    0.000    1.000    5.000    2.000    2.333    1.333 
#    0.000    2.500    0.000    0.000    0.000    0.000 
#    0.000    0.000    0.000    0.000    0.000    0.000 
#
# Total GULP energy -133789.499516 kJ/mol
# GULP energy per Si atom -5574.562480 kJ/mol
# Density = 2.155923 g / cm^3
# Si number density = 21.608408 Si / 1000 Ang^3
#
#
#
# Elastic Constant Matrix: (Units=GPa)
#
#
# Indices 1 2 3 4 5 6 
#
# 1 70.5778 16.9398 15.7798 0.0000 -0.3827 0.0000
# 2 16.9398 81.3867 13.4727 0.0000 -11.2693 0.0000
# 3 15.7798 13.4727 57.1715 0.0000 -13.3992 0.0000
# 4 0.0000 0.0000 0.0000 10.7188 0.0000 -4.1113
# 5 -0.3827 -11.2693 -13.3992 0.0000 20.9228 0.0000
# 6 0.0000 0.0000 0.0000 -4.1113 0.0000 30.8855
#
#
#
# Elastic Compliance Matrix: (Units=1/GPa)
#
#
# Indices 1 2 3 4 5 6 
#
# 1 0.015951 -0.003154 -0.004694 0.000000 -0.004413 0.000000
# 2 -0.003154 0.014044 -0.000800 0.000000 0.006995 0.000000
# 3 -0.004694 -0.000800 0.022184 0.000000 0.013690 0.000000
# 4 0.000000 0.000000 0.000000 0.098314 0.000000 0.013087
# 5 -0.004413 0.006995 0.013690 0.000000 0.060249 0.000000
# 6 0.000000 0.000000 0.000000 0.013087 0.000000 0.034120
#
#
# Mechanical properties :
#
#
# Convention : Reuss Voigt Hill
#
# Bulk Modulus (GPa) = 28.66615 33.50229 31.08422
# Shear Modulus (GPa) = 18.26252 23.36834 20.81543
#
# Velocity S-wave (km/s) = 2.91031 3.29210 3.10708
# Velocity P-wave (km/s) = 4.95865 5.47618 5.22383
#
# Compressibility (1/GPa) = 0.03488435
#
# Stress axis : x y z
#
# Youngs Moduli (GPa) = 62.69080 71.20253 45.07813
#
# Poissons Ratio (x) = 0.22458 0.21158
# Poissons Ratio (y) = 0.19774 0.03605
# Poissons Ratio (z) = 0.29425 0.05694
#
# Static dielectric constant tensor:
#      x y z
#    x 1.931520 0.000000 0.065190 
#    y 0.000000 -2.188370 0.000000 
#    z 0.065190 0.000000 1.788350 
# 
# From -- ./inp_files/231369.got.cif
#   From: 2010.05.17/outbox.cif.g08.bks.cpg/sg15_116_cif.got.tgz:231369.got - 2010.06.03 18:47:42.
