data_PCOD9265578
_publ_section_title
;
Structure prediction by ZEFSAII (Michael W. Deem and Ramdas Pophale) SiO2 
 PCOD9265578
Probable space group: C 2/C
;
_chemical_formula_sum "Si O2"
_cell_formula_units_Z 64
_cell_length_a 12.322970
_cell_length_b 26.818825
_cell_length_c 17.079408
_cell_angle_alpha 90.000000
_cell_angle_beta 32.705044
_cell_angle_gamma 90.000000
_cell_volume 3049.822002
_symmetry_space_group_name_H-M "C 2/C"
_symmetry_group_IT_number 15
_symmetry_cell_setting 'monoclinic'
loop_
_space_group_symop_operation_xyz
x,y,z
-x,y,1/2-z
-x,-y,-z
x,-y,1/2+z
1/2+x,1/2+y,z
1/2-x,1/2+y,1/2-z
1/2-x,1/2-y,-z
1/2+x,1/2-y,1/2+z
loop_
_atom_site_type_symbol
_atom_site_label
_atom_site_fract_x
_atom_site_fract_y
_atom_site_fract_z
Si Si1 0.676143 0.696732 0.577161
Si Si2 0.883813 0.858088 0.144214
Si Si3 0.603010 0.470378 0.557618
Si Si4 0.273674 0.133988 0.916933
Si Si5 0.900292 0.457215 0.508669
Si Si6 0.720772 0.529808 0.817196
Si Si7 0.224072 0.208236 0.081742
Si Si8 0.523312 0.151143 0.987224
O O1 0.500000 0.703508 0.750000
O O2 0.750000 0.750000 0.500000
O O3 0.575019 0.665983 0.568071
O O4 0.853908 0.663882 0.508475
O O5 0.827427 0.836378 0.093326
O O6 0.897864 0.917922 0.123706
O O7 0.696055 0.849322 0.315794
O O8 0.633566 0.412732 0.520000
O O9 0.701264 0.475288 0.583360
O O10 0.379541 0.490997 0.682272
O O11 0.706581 0.491503 0.414126
O O12 0.500000 0.123105 0.750000
O O13 0.275345 0.160679 0.997797
O O14 0.913955 0.403415 0.544800
O O15 0.000000 0.500000 0.500000
O O16 0.055370 0.455076 0.341070
O O17 0.375658 0.197950 0.060851
O O18 0.000000 0.210376 0.250000
O O19 0.250000 0.250000 0.000000
#
# Coordination Sequence:
#
# PCOD9265578 Si02
#       8
#     8   8   8   8   8   8   8   8
#     4  10  23  41  66  88 121 161 206 258 312 375
#     4   9  19  38  68  89 117 164 213 251 308 368
#     4  10  19  36  62  89 121 157 209 250 308 367
#     4  11  19  40  69  90 122 164 208 261 312 371
#     4  11  22  36  60  90 126 168 197 257 310 359
#     4   9  20  36  60  89 119 163 211 249 294 378
#     4  12  27  41  63  95 128 159 205 262 321 378
#     4  10  22  43  62  92 124 163 214 254 312 380
#
# _framework density 20.984831
#
# number of rings (size 3 to 8) (size 9 to 14) (size 15 to 20)
#    0.000    1.750    2.500    2.250    3.500    2.500 
#    0.000    0.000    0.000    0.000    0.000    0.000 
#    0.000    0.000    0.000    0.000    0.000    0.000 
#
# Total GULP energy -178194.461709 kJ/mol
# GULP energy per Si atom -5568.576928 kJ/mol
# Density = 2.093707 g / cm^3
# Si number density = 20.984831 Si / 1000 Ang^3
#
#
#
# Elastic Constant Matrix: (Units=GPa)
#
#
# Indices 1 2 3 4 5 6 
#
# 1 156.1628 25.8053 15.8977 -0.0012 -19.8444 -0.0033
# 2 25.8053 69.9961 20.1373 0.0011 -14.5686 -0.0014
# 3 15.8977 20.1373 68.0126 -0.0130 -9.6106 0.0077
# 4 -0.0012 0.0011 -0.0130 24.5521 0.0060 3.4102
# 5 -19.8444 -14.5686 -9.6106 0.0060 30.4466 -0.0021
# 6 -0.0033 -0.0014 0.0077 3.4102 -0.0021 35.1312
#
#
#
# Elastic Compliance Matrix: (Units=1/GPa)
#
#
# Indices 1 2 3 4 5 6 
#
# 1 0.007221 -0.001705 -0.000663 -0.000001 0.003681 0.000001
# 2 -0.001705 0.017263 -0.003875 -0.000005 0.005926 0.000002
# 3 -0.000663 -0.003875 0.016415 0.000009 0.002895 -0.000004
# 4 -0.000001 -0.000005 0.000009 0.041286 -0.000009 -0.004008
# 5 0.003681 0.005926 0.002895 -0.000009 0.038993 0.000003
# 6 0.000001 0.000002 -0.000004 -0.004008 0.000003 0.028854
#
#
# Mechanical properties :
#
#
# Convention : Reuss Voigt Hill
#
# Bulk Modulus (GPa) = 35.19659 46.42802 40.81231
# Shear Modulus (GPa) = 29.07158 33.51470 31.29314
#
# Velocity S-wave (km/s) = 3.72608 4.00070 3.86583
# Velocity P-wave (km/s) = 5.94310 6.59647 6.27829
#
# Compressibility (1/GPa) = 0.02841184
#
# Stress axis : x y z
#
# Youngs Moduli (GPa) = 138.49270 57.92582 60.92131
#
# Poissons Ratio (x) = 0.09877 0.04038
# Poissons Ratio (y) = 0.23615 0.23610
# Poissons Ratio (z) = 0.09179 0.22449
#
# Static dielectric constant tensor:
#      x y z
#    x 1.596560 0.000200 -0.015030 
#    y 0.000200 1.734390 0.000060 
#    z -0.015030 0.000060 1.778930 
# 
# From -- ./inp_files/201450.got.cif
#   From: 2010.05.17/outbox.cif.g08.bks.cpg/sg15_101_cif.got.tgz:201450.got - 2010.06.03 18:47:42.
