data_PCOD9265143
_publ_section_title
;
Structure prediction by ZEFSAII (Michael W. Deem and Ramdas Pophale) SiO2 
 PCOD9265143
Probable space group: C 2/C
;
_chemical_formula_sum "Si O2"
_cell_formula_units_Z 56
_cell_length_a 21.317338
_cell_length_b 8.974242
_cell_length_c 16.966259
_cell_angle_alpha 90.000000
_cell_angle_beta 47.714802
_cell_angle_gamma 90.000000
_cell_volume 2401.231692
_symmetry_space_group_name_H-M "C 2/C"
_symmetry_group_IT_number 15
_symmetry_cell_setting 'monoclinic'
loop_
_space_group_symop_operation_xyz
x,y,z
-x,y,1/2-z
-x,-y,-z
x,-y,1/2+z
1/2+x,1/2+y,z
1/2-x,1/2+y,1/2-z
1/2-x,1/2-y,-z
1/2+x,1/2-y,1/2+z
loop_
_atom_site_type_symbol
_atom_site_label
_atom_site_fract_x
_atom_site_fract_y
_atom_site_fract_z
Si Si1 0.823986 0.464309 0.254462
Si Si2 0.549227 0.832795 0.930057
Si Si3 0.552570 0.712730 0.336388
Si Si4 0.639685 0.462376 0.360579
Si Si5 0.267741 0.078982 0.464345
Si Si6 0.059822 0.638663 0.126748
Si Si7 0.911347 0.990296 0.414795
O O1 0.875790 0.549464 0.143162
O O2 0.884047 0.341846 0.245500
O O3 0.736453 0.411979 0.289450
O O4 0.795290 0.571857 0.349580
O O5 0.587271 0.674927 0.871044
O O6 0.481701 0.882716 0.922590
O O7 0.506795 0.794505 0.048656
O O8 0.617645 0.601351 0.325142
O O9 0.487478 0.609418 0.341957
O O10 0.605971 0.504306 0.476305
O O11 0.250000 0.250000 0.500000
O O12 0.352413 0.048402 0.441926
O O13 0.181747 0.982278 0.545837
O O14 0.000000 0.592901 0.250000
O O15 0.069875 0.819411 0.124568
#
# Coordination Sequence:
#
# PCOD9265143 Si02
#       7
#     8   8   8   8   8   8   8
#     4  11  22  34  55  95 126 154 206 264 319 376
#     4  11  20  36  58  89 122 162 211 251 315 381
#     4  11  20  36  60  85 127 163 192 266 335 374
#     4  10  19  36  58  84 121 162 203 256 317 379
#     4   9  20  35  58  90 117 160 211 264 295 361
#     4  11  18  33  61  89 114 156 217 257 290 366
#     4   9  18  36  58  83 117 159 206 252 314 375
#
# _framework density 23.321366000000001
#
# number of rings (size 3 to 8) (size 9 to 14) (size 15 to 20)
#    0.000    1.714    4.286    2.143    0.000    0.000 
#    0.000    0.000    3.143    0.857    0.000    0.000 
#    0.000    0.000    0.000    0.000    0.000    0.000 
#
# Total GULP energy -156264.753467 kJ/mol
# GULP energy per Si atom -5580.884052 kJ/mol
# Density = 2.326829 g / cm^3
# Si number density = 23.321366 Si / 1000 Ang^3
#
#
#
# Elastic Constant Matrix: (Units=GPa)
#
#
# Indices 1 2 3 4 5 6 
#
# 1 135.8554 25.1092 42.0785 0.0000 -32.3701 0.0000
# 2 25.1092 91.2820 28.2841 0.0000 -10.9891 -0.0002
# 3 42.0785 28.2841 63.3958 0.0000 -17.1867 0.0000
# 4 0.0000 0.0000 0.0000 20.9655 0.0000 -9.6115
# 5 -32.3701 -10.9891 -17.1867 0.0000 36.5945 0.0000
# 6 0.0000 -0.0002 0.0000 -9.6115 0.0000 10.8542
#
#
#
# Elastic Compliance Matrix: (Units=1/GPa)
#
#
# Indices 1 2 3 4 5 6 
#
# 1 0.010644 -0.000565 -0.004935 0.000000 0.006928 0.000000
# 2 -0.000565 0.012798 -0.005075 0.000000 0.000960 0.000000
# 3 -0.004935 -0.005075 0.022594 0.000000 0.004722 0.000000
# 4 0.000000 0.000000 0.000000 0.080293 0.000000 0.071100
# 5 0.006928 0.000960 0.004722 0.000000 0.035961 0.000000
# 6 0.000000 0.000000 0.000000 0.071100 0.000000 0.155090
#
#
# Mechanical properties :
#
#
# Convention : Reuss Voigt Hill
#
# Bulk Modulus (GPa) = 40.18064 53.49741 46.83903
# Shear Modulus (GPa) = 14.41645 26.68693 20.55169
#
# Velocity S-wave (km/s) = 2.48899 3.38644 2.97179
# Velocity P-wave (km/s) = 5.05239 6.18706 5.64829
#
# Compressibility (1/GPa) = 0.02488761
#
# Stress axis : x y z
#
# Youngs Moduli (GPa) = 93.94557 78.13421 44.26009
#
# Poissons Ratio (x) = 0.04413 0.21842
# Poissons Ratio (y) = 0.05306 0.22461
# Poissons Ratio (z) = 0.46361 0.39652
#
# Static dielectric constant tensor:
#      x y z
#    x 1.914370 0.000000 -0.078670 
#    y 0.000000 1.874870 0.000000 
#    z -0.078670 0.000000 1.939760 
# 
# From -- ./inp_files/251839.got.cif
#   From: 2010.05.17/outbox.cif.g08.bks.cpg/sg15_126_cif.got.tgz:251839.got - 2010.06.03 18:47:42.
