data_PCOD9265726
_publ_section_title
;
Structure prediction by ZEFSAII (Michael W. Deem and Ramdas Pophale) SiO2 
 PCOD9265726
Probable space group: C 2/C
;
_chemical_formula_sum "Si O2"
_cell_formula_units_Z 52
_cell_length_a 8.425911
_cell_length_b 17.547933
_cell_length_c 20.021391
_cell_angle_alpha 90.000000
_cell_angle_beta 135.150336
_cell_angle_gamma 90.000000
_cell_volume 2087.755142
_symmetry_space_group_name_H-M "C 2/C"
_symmetry_group_IT_number 15
_symmetry_cell_setting 'monoclinic'
loop_
_space_group_symop_operation_xyz
x,y,z
-x,y,1/2-z
-x,-y,-z
x,-y,1/2+z
1/2+x,1/2+y,z
1/2-x,1/2+y,1/2-z
1/2-x,1/2-y,-z
1/2+x,1/2-y,1/2+z
loop_
_atom_site_type_symbol
_atom_site_label
_atom_site_fract_x
_atom_site_fract_y
_atom_site_fract_z
Si Si1 0.835079 0.192022 0.914425
Si Si2 0.981363 0.615079 0.888684
Si Si3 0.478145 0.058291 0.118691
Si Si4 0.352441 0.617761 0.381986
Si Si5 0.478950 0.451759 0.097352
Si Si6 0.723221 0.638732 0.390413
Si Si7 0.500000 0.416863 0.250000
O O1 0.594119 0.174234 0.873744
O O2 0.821241 0.280176 0.894811
O O3 0.887275 0.126288 0.876915
O O4 0.014731 0.172480 0.026643
O O5 0.723499 0.632851 0.823101
O O6 0.996260 0.531447 0.859733
O O7 0.127073 0.614948 0.999934
O O8 0.394937 0.108111 0.157151
O O9 0.700600 0.084121 0.146483
O O10 0.271604 0.062648 0.004238
O O11 0.430154 0.528420 0.410101
O O12 0.468917 0.640568 0.345387
O O13 0.494658 0.464122 0.180457
#
# Coordination Sequence:
#
# PCOD9265726 Si02
#       7
#     8   8   8   8   8   8   4
#     4  10  21  38  64  98 122 156 209 274 316 357
#     4  11  20  40  61  95 126 162 209 267 309 373
#     4  11  19  38  68  95 123 157 213 272 306 353
#     4  10  19  36  64  94 125 154 207 267 312 357
#     4  11  20  40  61  96 123 161 212 262 311 379
#     4  11  21  35  65 103 121 152 208 272 316 361
#     4  12  26  34  62  94 128 172 210 250 322 384
#
# _framework density 24.907136000000001
#
# number of rings (size 3 to 8) (size 9 to 14) (size 15 to 20)
#    0.000    1.231    6.154    4.154    0.000    3.077 
#    2.769    0.000    0.000   11.077    0.000    0.000 
#    0.000    0.000    0.000    0.000    0.000    0.000 
#
# Total GULP energy -145183.112707 kJ/mol
# GULP energy per Si atom -5583.965873 kJ/mol
# Density = 2.485045 g / cm^3
# Si number density = 24.907136 Si / 1000 Ang^3
#
#
#
# Elastic Constant Matrix: (Units=GPa)
#
#
# Indices 1 2 3 4 5 6 
#
# 1 121.5336 4.8544 20.6429 0.0000 8.4719 -0.0001
# 2 4.8544 96.1011 -14.6279 -0.0001 -4.2304 -0.0001
# 3 20.6429 -14.6279 92.3439 0.0002 -12.8325 0.0000
# 4 0.0000 -0.0001 0.0002 3.5645 0.0001 0.0295
# 5 8.4719 -4.2304 -12.8325 0.0001 21.4199 -0.0001
# 6 -0.0001 -0.0001 0.0000 0.0295 -0.0001 29.0872
#
#
#
# Elastic Compliance Matrix: (Units=1/GPa)
#
#
# Indices 1 2 3 4 5 6 
#
# 1 0.009185 -0.001175 -0.003029 0.000000 -0.005680 0.000000
# 2 -0.001175 0.011045 0.002596 0.000000 0.004201 0.000000
# 3 -0.003029 0.002596 0.013259 -0.000001 0.009654 0.000000
# 4 0.000000 0.000000 -0.000001 0.280546 -0.000003 -0.000285
# 5 -0.005680 0.004201 0.009654 -0.000003 0.055545 0.000000
# 6 0.000000 0.000000 0.000000 -0.000285 0.000000 0.034380
#
#
# Mechanical properties :
#
#
# Convention : Reuss Voigt Hill
#
# Bulk Modulus (GPa) = 33.03123 36.85748 34.94435
# Shear Modulus (GPa) = 11.98271 30.75492 21.36882
#
# Velocity S-wave (km/s) = 2.19577 3.51776 2.93224
# Velocity P-wave (km/s) = 4.44062 5.59729 5.05216
#
# Compressibility (1/GPa) = 0.03027438
#
# Stress axis : x y z
#
# Youngs Moduli (GPa) = 108.86766 90.53728 75.42082
#
# Poissons Ratio (x) = 0.10638 0.22843
# Poissons Ratio (y) = 0.12792 -0.19580
# Poissons Ratio (z) = 0.32973 -0.23505
#
# Static dielectric constant tensor:
#      x y z
#    x 2.063580 0.000000 0.013760 
#    y 0.000000 1.927370 0.000000 
#    z 0.013760 0.000000 1.987580 
# 
# From -- ./inp_files/233023.got.cif
#   From: 2010.05.17/outbox.cif.g08.bks.cpg/sg15_117_cif.got.tgz:233023.got - 2010.06.03 18:47:42.
