data_PCOD9265033
_publ_section_title
;
Structure prediction by ZEFSAII (Michael W. Deem and Ramdas Pophale) SiO2 
 PCOD9265033
Probable space group: C 2/C
;
_chemical_formula_sum "Si O2"
_cell_formula_units_Z 56
_cell_length_a 18.311643
_cell_length_b 20.697891
_cell_length_c 9.655776
_cell_angle_alpha 90.000000
_cell_angle_beta 61.430167
_cell_angle_gamma 90.000000
_cell_volume 3214.040003
_symmetry_space_group_name_H-M "C 2/C"
_symmetry_group_IT_number 15
_symmetry_cell_setting 'monoclinic'
loop_
_space_group_symop_operation_xyz
x,y,z
-x,y,1/2-z
-x,-y,-z
x,-y,1/2+z
1/2+x,1/2+y,z
1/2-x,1/2+y,1/2-z
1/2-x,1/2-y,-z
1/2+x,1/2-y,1/2+z
loop_
_atom_site_type_symbol
_atom_site_label
_atom_site_fract_x
_atom_site_fract_y
_atom_site_fract_z
Si Si1 0.311808 0.789835 0.614991
Si Si2 0.411560 0.238734 0.753687
Si Si3 0.656221 0.621332 0.646022
Si Si4 0.438752 0.509128 0.184208
Si Si5 0.839669 0.867122 0.690410
Si Si6 0.191966 0.313688 0.375242
Si Si7 0.409219 0.761196 0.774850
O O1 0.345020 0.766504 0.438474
O O2 0.251116 0.850957 0.665956
O O3 0.253832 0.736936 0.744158
O O4 0.388366 0.797120 0.651162
O O5 0.500000 0.233157 0.750000
O O6 0.399219 0.307615 0.686149
O O7 0.384466 0.184659 0.664534
O O8 0.608228 0.556790 0.732012
O O9 0.664962 0.628253 0.472013
O O10 0.746721 0.628241 0.637078
O O11 0.602818 0.684483 0.737527
O O12 0.500000 0.529677 0.250000
O O13 0.374646 0.565860 0.212421
O O14 0.500000 0.500000 0.000000
O O15 0.156324 0.283892 0.549279
O O16 0.500000 0.774026 0.750000
#
# Coordination Sequence:
#
# PCOD9265033 Si02
#       7
#     8   8   8   8   8   8   8
#     4  10  20  34  55  84 112 150 190 232 289 348
#     4  11  22  35  56  90 121 146 181 241 301 341
#     4  11  21  38  57  79 115 158 194 231 277 347
#     4  12  26  39  57  85 118 157 203 237 272 332
#     4  11  21  39  56  77 119 157 191 232 279 344
#     4  10  19  36  57  80 111 152 194 230 286 354
#     4  11  19  31  59  86 112 145 187 239 292 340
#
# _framework density 17.423553999999999
#
# number of rings (size 3 to 8) (size 9 to 14) (size 15 to 20)
#    0.000    1.143    5.714    4.286    0.000    4.571 
#    0.000    0.000    0.000    0.000    0.000    6.000 
#    0.000    0.000    0.000    0.000    0.000    0.000 
#
# Total GULP energy -156149.621166 kJ/mol
# GULP energy per Si atom -5576.772185 kJ/mol
# Density = 1.738390 g / cm^3
# Si number density = 17.423554 Si / 1000 Ang^3
#
#
#
# Elastic Constant Matrix: (Units=GPa)
#
#
# Indices 1 2 3 4 5 6 
#
# 1 140.9029 39.2261 21.6149 0.0000 14.2877 0.0000
# 2 39.2261 65.0583 29.5638 0.0000 -4.8768 0.0000
# 3 21.6149 29.5638 95.9170 0.0000 11.3706 0.0000
# 4 0.0000 0.0000 0.0000 18.3370 0.0000 -0.7457
# 5 14.2877 -4.8768 11.3706 0.0000 32.2968 0.0000
# 6 0.0000 0.0000 0.0000 -0.7457 0.0000 31.2883
#
#
#
# Elastic Compliance Matrix: (Units=1/GPa)
#
#
# Indices 1 2 3 4 5 6 
#
# 1 0.009277 -0.006177 0.000428 0.000000 -0.005188 0.000000
# 2 -0.006177 0.022743 -0.006626 0.000000 0.008499 0.000000
# 3 0.000428 -0.006626 0.013057 0.000000 -0.005787 0.000000
# 4 0.000000 0.000000 0.000000 0.054587 0.000000 0.001301
# 5 -0.005188 0.008499 -0.005787 0.000000 0.036578 0.000000
# 6 0.000000 0.000000 0.000000 0.001301 0.000000 0.031992
#
#
# Mechanical properties :
#
#
# Convention : Reuss Voigt Hill
#
# Bulk Modulus (GPa) = 49.19086 53.63198 51.41142
# Shear Modulus (GPa) = 25.03006 30.48265 27.75635
#
# Velocity S-wave (km/s) = 3.79432 4.18725 3.99562
# Velocity P-wave (km/s) = 6.89126 7.36380 7.13144
#
# Compressibility (1/GPa) = 0.02032898
#
# Stress axis : x y z
#
# Youngs Moduli (GPa) = 107.79326 43.96948 76.58528
#
# Poissons Ratio (x) = 0.27160 -0.03280
# Poissons Ratio (y) = 0.66583 0.50742
# Poissons Ratio (z) = -0.04616 0.29132
#
# Static dielectric constant tensor:
#      x y z
#    x 1.681340 0.000000 0.003250 
#    y 0.000000 1.570850 0.000000 
#    z 0.003250 0.000000 1.594920 
# 
# From -- ./inp_files/50102.got.cif
#   From: 2010.05.17/outbox.cif.g08.bks.cpg/sg15_26_cif.got.tgz:50102.got - 2010.06.03 18:47:42.
