data_PCOD9265444
_publ_section_title
;
Structure prediction by ZEFSAII (Michael W. Deem and Ramdas Pophale) SiO2 
 PCOD9265444
Probable space group: C 2/C
;
_chemical_formula_sum "Si O2"
_cell_formula_units_Z 64
_cell_length_a 10.688468
_cell_length_b 19.111003
_cell_length_c 14.704960
_cell_angle_alpha 90.000000
_cell_angle_beta 89.150845
_cell_angle_gamma 90.000000
_cell_volume 3003.413245
_symmetry_space_group_name_H-M "C 2/C"
_symmetry_group_IT_number 15
_symmetry_cell_setting 'monoclinic'
loop_
_space_group_symop_operation_xyz
x,y,z
-x,y,1/2-z
-x,-y,-z
x,-y,1/2+z
1/2+x,1/2+y,z
1/2-x,1/2+y,1/2-z
1/2-x,1/2-y,-z
1/2+x,1/2-y,1/2+z
loop_
_atom_site_type_symbol
_atom_site_label
_atom_site_fract_x
_atom_site_fract_y
_atom_site_fract_z
Si Si1 0.859881 0.588633 0.973378
Si Si2 0.901876 0.745309 0.994246
Si Si3 0.073227 0.789620 0.166477
Si Si4 0.084597 0.551653 0.085533
Si Si5 0.951177 0.131612 0.101299
Si Si6 0.204348 0.350014 0.722467
Si Si7 0.210519 0.909061 0.063369
Si Si8 0.811282 0.937974 0.879412
O O1 0.913894 0.665313 0.959536
O O2 0.720869 0.585589 0.016191
O O3 0.943204 0.555770 0.054227
O O4 0.874257 0.528508 0.898674
O O5 0.977505 0.760648 0.088591
O O6 0.750000 0.750000 0.000000
O O7 0.967911 0.799947 0.925798
O O8 0.141690 0.725130 0.215262
O O9 0.178273 0.839582 0.120488
O O10 0.000000 0.827001 0.250000
O O11 0.112357 0.597783 0.171265
O O12 0.166266 0.585079 0.001414
O O13 0.833787 0.151065 0.164414
O O14 0.045872 0.077712 0.144724
O O15 0.898627 0.094188 0.011364
O O16 0.233810 0.384378 0.818210
O O17 0.209917 0.979147 0.123354
#
# Coordination Sequence:
#
# PCOD9265444 Si02
#       8
#     8   8   8   8   8   8   8   8
#     4  10  19  36  61  85 118 149 202 243 286 353
#     4  11  21  38  63  91 119 160 197 246 295 355
#     4  11  24  40  60  89 119 157 201 249 303 359
#     4   9  20  37  60  89 110 156 198 246 292 352
#     4  10  22  37  60  88 115 156 204 241 297 355
#     4  11  23  37  60  86 119 157 194 245 307 353
#     4   9  22  40  61  83 117 155 200 246 296 354
#     4  11  21  39  58  88 121 154 194 248 300 358
#
# _framework density 21.309087999999999
#
# number of rings (size 3 to 8) (size 9 to 14) (size 15 to 20)
#    0.000    1.750    2.500    1.500    1.750    2.500 
#    2.250    0.000    0.000    0.000    0.000    0.000 
#    0.000    0.000    0.000    0.000    0.000    0.000 
#
# Total GULP energy -178406.077818 kJ/mol
# GULP energy per Si atom -5575.189932 kJ/mol
# Density = 2.126059 g / cm^3
# Si number density = 21.309088 Si / 1000 Ang^3
#
#
#
# Elastic Constant Matrix: (Units=GPa)
#
#
# Indices 1 2 3 4 5 6 
#
# 1 81.5419 19.9203 3.0745 0.0000 -8.1059 0.0000
# 2 19.9203 122.0419 21.9936 0.0000 -2.1019 0.0000
# 3 3.0745 21.9936 42.1019 0.0000 -7.9267 0.0000
# 4 0.0000 0.0000 0.0000 21.3475 0.0000 -2.7640
# 5 -8.1059 -2.1019 -7.9267 0.0000 18.5655 0.0000
# 6 0.0000 0.0000 0.0000 -2.7640 0.0000 35.7392
#
#
#
# Elastic Compliance Matrix: (Units=1/GPa)
#
#
# Indices 1 2 3 4 5 6 
#
# 1 0.013395 -0.002333 0.001405 0.000000 0.006184 0.000000
# 2 -0.002333 0.009472 -0.005184 0.000000 -0.002160 0.000000
# 3 0.001405 -0.005184 0.028667 0.000000 0.012266 0.000000
# 4 0.000000 0.000000 0.000000 0.047318 0.000000 0.003659
# 5 0.006184 -0.002160 0.012266 0.000000 0.061556 0.000000
# 6 0.000000 0.000000 0.000000 0.003659 0.000000 0.028264
#
#
# Mechanical properties :
#
#
# Convention : Reuss Voigt Hill
#
# Bulk Modulus (GPa) = 25.43929 37.29584 31.36756
# Shear Modulus (GPa) = 23.36456 28.51025 25.93741
#
# Velocity S-wave (km/s) = 3.31488 3.66175 3.49262
# Velocity P-wave (km/s) = 5.15901 5.95132 5.56927
#
# Compressibility (1/GPa) = 0.03930928
#
# Stress axis : x y z
#
# Youngs Moduli (GPa) = 74.65240 105.57649 34.88346
#
# Poissons Ratio (x) = 0.24633 -0.04901
# Poissons Ratio (y) = 0.17418 0.18084
# Poissons Ratio (z) = -0.10488 0.54733
#
# Static dielectric constant tensor:
#      x y z
#    x 1.807870 0.000000 0.000540 
#    y 0.000000 1.796290 0.000000 
#    z 0.000540 0.000000 1.770550 
# 
# From -- ./inp_files/146058.got.cif
#   From: 2010.05.17/outbox.cif.g08.bks.cpg/sg15_74_cif.got.tgz:146058.got - 2010.06.03 18:47:42.
