data_PCOD9265415
_publ_section_title
;
Structure prediction by ZEFSAII (Michael W. Deem and Ramdas Pophale) SiO2 
 PCOD9265415
Probable space group: C 2/C
;
_chemical_formula_sum "Si O2"
_cell_formula_units_Z 60
_cell_length_a 18.795893
_cell_length_b 11.165171
_cell_length_c 25.496762
_cell_angle_alpha 90.000000
_cell_angle_beta 34.338503
_cell_angle_gamma 90.000000
_cell_volume 3018.247803
_symmetry_space_group_name_H-M "C 2/C"
_symmetry_group_IT_number 15
_symmetry_cell_setting 'monoclinic'
loop_
_space_group_symop_operation_xyz
x,y,z
-x,y,1/2-z
-x,-y,-z
x,-y,1/2+z
1/2+x,1/2+y,z
1/2-x,1/2+y,1/2-z
1/2-x,1/2-y,-z
1/2+x,1/2-y,1/2+z
loop_
_atom_site_type_symbol
_atom_site_label
_atom_site_fract_x
_atom_site_fract_y
_atom_site_fract_z
Si Si1 0.845501 0.302259 0.272198
Si Si2 0.025716 0.943014 0.325938
Si Si3 0.889886 0.141836 0.148468
Si Si4 0.509541 0.022592 0.182222
Si Si5 0.690202 0.229816 0.185277
Si Si6 0.774088 0.887233 0.532315
Si Si7 0.108723 0.921190 0.461940
Si Si8 0.500000 0.366223 0.750000
O O1 0.837847 0.215689 0.228117
O O2 0.946423 0.405676 0.196210
O O3 0.710804 0.361590 0.363290
O O4 0.891632 0.224155 0.294422
O O5 0.131519 0.858292 0.235512
O O6 0.899955 0.871202 0.421241
O O7 0.087799 0.010308 0.338636
O O8 0.980513 0.044809 0.311703
O O9 0.802332 0.177385 0.152969
O O10 0.030923 0.173354 0.043711
O O11 0.500000 0.992648 0.250000
O O12 0.421395 0.137889 0.233151
O O13 0.648948 0.062385 0.080484
O O14 0.731310 0.216581 0.099154
O O15 0.813318 0.993978 0.547449
O O16 0.000000 0.000000 0.500000
#
# Coordination Sequence:
#
# PCOD9265415 Si02
#       8
#     8   8   8   8   8   8   8   4
#     4  11  20  38  67  88 130 155 203 260 305 369
#     4  10  25  40  63  89 124 162 208 249 315 377
#     4  10  24  36  61  95 117 169 196 247 319 356
#     4  10  19  36  60  92 111 159 204 252 300 348
#     4  11  22  38  62  87 127 156 208 257 297 368
#     4  10  21  38  63  90 115 160 207 252 306 363
#     4  11  19  37  62  93 121 157 207 251 300 375
#     4  10  22  44  58  90 126 168 190 258 320 354
#
# _framework density 19.879083999999999
#
# number of rings (size 3 to 8) (size 9 to 14) (size 15 to 20)
#    0.000    1.600    4.667    0.000    8.400    1.600 
#    0.000    4.000    0.000    2.400    0.000    0.000 
#    0.000    0.000    0.000    0.000    0.000    0.000 
#
# Total GULP energy -167086.191699 kJ/mol
# GULP energy per Si atom -5569.539723 kJ/mol
# Density = 1.983384 g / cm^3
# Si number density = 19.879084 Si / 1000 Ang^3
#
#
#
# Elastic Constant Matrix: (Units=GPa)
#
#
# Indices 1 2 3 4 5 6 
#
# 1 56.9655 25.7218 35.5041 0.0000 -5.8476 0.0000
# 2 25.7218 73.0679 43.0035 -0.0001 -4.0184 0.0000
# 3 35.5041 43.0035 119.0038 -0.0002 -11.4975 0.0000
# 4 0.0000 -0.0001 -0.0002 34.9918 0.0000 3.0962
# 5 -5.8476 -4.0184 -11.4975 0.0000 24.3161 0.0000
# 6 0.0000 0.0000 0.0000 3.0962 0.0000 24.9421
#
#
#
# Elastic Compliance Matrix: (Units=1/GPa)
#
#
# Indices 1 2 3 4 5 6 
#
# 1 0.023134 -0.005190 -0.004791 0.000000 0.002440 0.000000
# 2 -0.005190 0.018547 -0.005217 0.000000 -0.000650 0.000000
# 3 -0.004791 -0.005217 0.012074 0.000000 0.003695 0.000000
# 4 0.000000 0.000000 0.000000 0.028896 0.000000 -0.003587
# 5 0.002440 -0.000650 0.003695 0.000000 0.043352 0.000000
# 6 0.000000 0.000000 0.000000 -0.003587 0.000000 0.040538
#
#
# Mechanical properties :
#
#
# Convention : Reuss Voigt Hill
#
# Bulk Modulus (GPa) = 42.80592 50.83289 46.81941
# Shear Modulus (GPa) = 24.42315 26.50385 25.46350
#
# Velocity S-wave (km/s) = 3.50892 3.65533 3.58288
# Velocity P-wave (km/s) = 6.16414 6.59104 6.38116
#
# Compressibility (1/GPa) = 0.02336125
#
# Stress axis : x y z
#
# Youngs Moduli (GPa) = 43.22579 53.91575 82.81939
#
# Poissons Ratio (x) = 0.27983 0.39676
# Poissons Ratio (y) = 0.22435 0.43204
# Poissons Ratio (z) = 0.20708 0.28126
#
# Static dielectric constant tensor:
#      x y z
#    x 1.781000 0.000000 -0.007100 
#    y 0.000000 1.741450 0.000000 
#    z -0.007100 0.000000 1.767710 
# 
# From -- ./inp_files/317727.got.cif
#   From: 2010.05.17/outbox.cif.g08.bks.cpg/sg15_159_cif.got.tgz:317727.got - 2010.06.03 18:47:42.
