data_PCOD9265828
_publ_section_title
;
Structure prediction by ZEFSAII (Michael W. Deem and Ramdas Pophale) SiO2 
 PCOD9265828
Probable space group: C 2/C
;
_chemical_formula_sum "Si O2"
_cell_formula_units_Z 64
_cell_length_a 24.592230
_cell_length_b 17.806655
_cell_length_c 21.545734
_cell_angle_alpha 90.000000
_cell_angle_beta 158.551221
_cell_angle_gamma 90.000000
_cell_volume 3450.087127
_symmetry_space_group_name_H-M "C 2/C"
_symmetry_group_IT_number 15
_symmetry_cell_setting 'monoclinic'
loop_
_space_group_symop_operation_xyz
x,y,z
-x,y,1/2-z
-x,-y,-z
x,-y,1/2+z
1/2+x,1/2+y,z
1/2-x,1/2+y,1/2-z
1/2-x,1/2-y,-z
1/2+x,1/2-y,1/2+z
loop_
_atom_site_type_symbol
_atom_site_label
_atom_site_fract_x
_atom_site_fract_y
_atom_site_fract_z
Si Si1 0.262023 0.971855 0.646275
Si Si2 0.208916 0.118742 0.311794
Si Si3 0.464192 0.419030 0.990884
Si Si4 0.251333 0.212370 0.653496
Si Si5 0.954262 0.909043 0.631773
Si Si6 0.991573 0.402888 0.428675
Si Si7 0.283271 0.301979 0.234269
Si Si8 0.549191 0.154662 0.128174
O O1 0.147855 0.932843 0.572276
O O2 0.373207 0.905597 0.744291
O O3 0.158568 0.020250 0.490619
O O4 0.365836 0.033647 0.790712
O O5 0.117268 0.126020 0.150379
O O6 0.244945 0.204019 0.368946
O O7 0.362706 0.078750 0.456550
O O8 0.102032 0.078516 0.247251
O O9 0.500000 0.500000 0.000000
O O10 0.610000 0.373031 0.163281
O O11 0.132142 0.159677 0.492932
O O12 0.411909 0.172210 0.818305
O O13 0.220849 0.211833 0.695352
O O14 0.000000 0.891614 0.750000
O O15 0.036746 0.385878 0.547263
O O16 0.351839 0.228454 0.275956
O O17 0.118169 0.320119 0.035760
#
# Coordination Sequence:
#
# PCOD9265828 Si02
#       8
#     8   8   8   8   8   8   8   8
#     4  11  22  37  53  81 117 148 191 243 285 345
#     4  12  20  34  59  79 113 152 195 239 292 342
#     4  12  20  33  54  86 116 149 182 227 298 360
#     4  10  19  37  52  81 113 152 191 239 286 337
#     4  11  25  41  56  77 111 160 211 246 280 329
#     4  10  20  30  53  83 113 148 182 225 292 349
#     4  11  21  33  54  90 121 149 178 228 291 372
#     4  11  20  32  53  82 119 146 177 224 295 354
#
# _framework density 18.550256000000001
#
# number of rings (size 3 to 8) (size 9 to 14) (size 15 to 20)
#    0.000    1.000    5.000    4.875    1.750    0.500 
#    0.000    2.500    0.000    0.000    0.000    3.500 
#    0.000    0.000    0.000    0.250    0.000    0.000 
#
# Total GULP energy -178703.531182 kJ/mol
# GULP energy per Si atom -5584.485349 kJ/mol
# Density = 1.850803 g / cm^3
# Si number density = 18.550256 Si / 1000 Ang^3
#
#
#
# Elastic Constant Matrix: (Units=GPa)
#
#
# Indices 1 2 3 4 5 6 
#
# 1 21.6063 0.6076 25.3461 -0.0019 6.5817 -0.0013
# 2 0.6076 97.0225 36.6782 -0.0042 8.6968 -0.0024
# 3 25.3461 36.6782 89.0290 -0.0044 30.4320 -0.0023
# 4 -0.0019 -0.0042 -0.0044 29.9146 -0.0011 12.3215
# 5 6.5817 8.6968 30.4320 -0.0011 23.6110 -0.0006
# 6 -0.0013 -0.0024 -0.0023 12.3215 -0.0006 13.4215
#
#
#
# Elastic Compliance Matrix: (Units=1/GPa)
#
#
# Indices 1 2 3 4 5 6 
#
# 1 0.078658 0.010164 -0.031829 0.000001 0.015354 0.000004
# 2 0.010164 0.013690 -0.010442 0.000001 0.005583 0.000001
# 3 -0.031829 -0.010442 0.036194 0.000001 -0.033932 -0.000001
# 4 0.000001 0.000001 0.000001 0.053755 0.000000 -0.049349
# 5 0.015354 0.005583 -0.033932 0.000000 0.079751 0.000000
# 6 0.000004 0.000001 -0.000001 -0.049349 0.000000 0.119811
#
#
# Mechanical properties :
#
#
# Convention : Reuss Voigt Hill
#
# Bulk Modulus (GPa) = 15.54531 36.99129 26.26830
# Shear Modulus (GPa) = 10.69480 23.05782 16.87631
#
# Velocity S-wave (km/s) = 2.40371 3.52943 3.01950
# Velocity P-wave (km/s) = 4.01274 6.04927 5.13302
#
# Compressibility (1/GPa) = 0.06432810
#
# Stress axis : x y z
#
# Youngs Moduli (GPa) = 12.71322 73.04439 27.62860
#
# Poissons Ratio (x) = -0.74241 0.87940
# Poissons Ratio (y) = -0.12921 0.28850
# Poissons Ratio (z) = 0.40465 0.76273
#
# Static dielectric constant tensor:
#      x y z
#    x 1.605530 0.000000 0.042070 
#    y 0.000000 1.690870 0.000000 
#    z 0.042070 0.000000 1.673130 
# 
# From -- ./inp_files/283732.got.cif
#   From: 2010.05.17/outbox.cif.g08.bks.cpg/sg15_142_cif.got.tgz:283732.got - 2010.06.03 18:47:42.
