data_PCOD9265822
_publ_section_title
;
Structure prediction by ZEFSAII (Michael W. Deem and Ramdas Pophale) SiO2 
 PCOD9265822
Probable space group: C 2/C
;
_chemical_formula_sum "Si O2"
_cell_formula_units_Z 48
_cell_length_a 28.415741
_cell_length_b 7.571227
_cell_length_c 14.127387
_cell_angle_alpha 90.000000
_cell_angle_beta 39.671163
_cell_angle_gamma 90.000000
_cell_volume 1940.290271
_symmetry_space_group_name_H-M "C 2/C"
_symmetry_group_IT_number 15
_symmetry_cell_setting 'monoclinic'
loop_
_space_group_symop_operation_xyz
x,y,z
-x,y,1/2-z
-x,-y,-z
x,-y,1/2+z
1/2+x,1/2+y,z
1/2-x,1/2+y,1/2-z
1/2-x,1/2-y,-z
1/2+x,1/2-y,1/2+z
loop_
_atom_site_type_symbol
_atom_site_label
_atom_site_fract_x
_atom_site_fract_y
_atom_site_fract_z
Si Si1 0.673751 0.275863 0.353497
Si Si2 0.987713 0.376360 0.879593
Si Si3 0.116501 0.201498 0.311535
Si Si4 0.231550 0.500963 0.391657
Si Si5 0.852809 0.407605 0.800592
Si Si6 0.484797 0.695739 0.382970
O O1 0.746628 0.393427 0.236453
O O2 0.676842 0.152673 0.440292
O O3 0.677585 0.173813 0.248124
O O4 0.596406 0.376903 0.470751
O O5 0.064905 0.334979 0.810984
O O6 0.000000 0.340052 0.750000
O O7 0.977588 0.589458 0.906890
O O8 0.921770 0.272271 0.032237
O O9 0.189597 0.082775 0.201006
O O10 0.141232 0.382740 0.222235
O O11 0.049989 0.129064 0.348933
O O12 0.194650 0.387879 0.530977
O O13 0.500000 0.661460 0.250000
#
# Coordination Sequence:
#
# PCOD9265822 Si02
#       6
#     8   8   8   8   8   8
#     4  12  24  45  64  96 135 172 220 270 332 399
#     4  10  19  36  71  95 125 172 229 266 320 401
#     4  11  21  42  66 100 128 169 224 279 326 389
#     4  12  28  40  68  97 136 175 216 276 336 395
#     4  11  22  43  68  96 129 177 222 270 326 401
#     4  10  20  39  68  95 127 173 221 268 327 395
#
# _framework density 24.738567
#
# number of rings (size 3 to 8) (size 9 to 14) (size 15 to 20)
#    0.000    1.000    3.333    6.000    2.333    2.000 
#    0.000    0.833    0.000    0.000    0.000    0.000 
#    0.000    0.000    0.000    0.000    0.000    0.000 
#
# Total GULP energy -134385.220717 kJ/mol
# GULP energy per Si atom -5599.384197 kJ/mol
# Density = 2.468226 g / cm^3
# Si number density = 24.738567 Si / 1000 Ang^3
#
#
#
# Elastic Constant Matrix: (Units=GPa)
#
#
# Indices 1 2 3 4 5 6 
#
# 1 104.2941 -1.4916 20.0793 0.0004 -8.7394 0.0000
# 2 -1.4916 30.4423 -4.5355 -0.0012 -6.3786 -0.0001
# 3 20.0793 -4.5355 111.5821 0.0002 -4.3806 0.0000
# 4 0.0004 -0.0012 0.0002 24.2416 0.0000 -5.5027
# 5 -8.7394 -6.3786 -4.3806 0.0000 48.7199 0.0001
# 6 0.0000 -0.0001 0.0000 -5.5027 0.0001 22.3742
#
#
#
# Elastic Compliance Matrix: (Units=1/GPa)
#
#
# Indices 1 2 3 4 5 6 
#
# 1 0.010073 0.000600 -0.001720 0.000000 0.001731 0.000000
# 2 0.000600 0.034081 0.001462 0.000002 0.004701 0.000001
# 3 -0.001720 0.001462 0.009359 0.000000 0.000724 0.000000
# 4 0.000000 0.000002 0.000000 0.043691 0.000000 0.010745
# 5 0.001731 0.004701 0.000724 0.000000 0.021517 0.000000
# 6 0.000000 0.000001 0.000000 0.010745 0.000000 0.047337
#
#
# Mechanical properties :
#
#
# Convention : Reuss Voigt Hill
#
# Bulk Modulus (GPa) = 18.45129 30.49144 24.47136
# Shear Modulus (GPa) = 27.25679 34.55156 30.90418
#
# Velocity S-wave (km/s) = 3.32293 3.74126 3.53828
# Velocity P-wave (km/s) = 4.71139 5.56910 5.15810
#
# Compressibility (1/GPa) = 0.05419677
#
# Stress axis : x y z
#
# Youngs Moduli (GPa) = 99.27440 29.34164 106.84394
#
# Poissons Ratio (x) = -0.01760 0.18381
# Poissons Ratio (y) = -0.05955 -0.15620
# Poissons Ratio (z) = 0.17078 -0.04290
#
# Static dielectric constant tensor:
#      x y z
#    x 1.919340 0.000000 -0.027630 
#    y 0.000000 2.049320 0.000000 
#    z -0.027630 0.000000 1.945380 
# 
# From -- ./inp_files/180718.got.cif
#   From: 2010.05.17/outbox.cif.g08.bks.cpg/sg15_91_cif.got.tgz:180718.got - 2010.06.03 18:47:42.
