data_PCOD9265153
_publ_section_title
;
Structure prediction by ZEFSAII (Michael W. Deem and Ramdas Pophale) SiO2 
 PCOD9265153
Probable space group: C 2/C
;
_chemical_formula_sum "Si O2"
_cell_formula_units_Z 48
_cell_length_a 26.309578
_cell_length_b 11.852498
_cell_length_c 14.827200
_cell_angle_alpha 90.000000
_cell_angle_beta 29.687643
_cell_angle_gamma 90.000000
_cell_volume 2289.950514
_symmetry_space_group_name_H-M "C 2/C"
_symmetry_group_IT_number 15
_symmetry_cell_setting 'monoclinic'
loop_
_space_group_symop_operation_xyz
x,y,z
-x,y,1/2-z
-x,-y,-z
x,-y,1/2+z
1/2+x,1/2+y,z
1/2-x,1/2+y,1/2-z
1/2-x,1/2-y,-z
1/2+x,1/2-y,1/2+z
loop_
_atom_site_type_symbol
_atom_site_label
_atom_site_fract_x
_atom_site_fract_y
_atom_site_fract_z
Si Si1 0.360228 0.845908 0.804633
Si Si2 0.209454 0.414004 0.097532
Si Si3 0.116633 0.798935 0.062406
Si Si4 0.189504 0.353289 0.818393
Si Si5 0.880974 0.237218 0.402935
Si Si6 0.594320 0.912361 0.466361
O O1 0.349190 0.744423 0.891909
O O2 0.355811 0.810773 0.706837
O O3 0.472830 0.900012 0.644578
O O4 0.287996 0.954333 0.930811
O O5 0.146966 0.342372 0.119543
O O6 0.146815 0.400446 0.287697
O O7 0.323330 0.364996 0.940453
O O8 0.000000 0.839078 0.250000
O O9 0.193891 0.880814 0.891001
O O10 0.121546 0.684842 0.995019
O O11 0.129531 0.464051 0.942695
O O12 0.179419 0.262297 0.911431
O O13 0.000000 0.225860 0.250000
#
# Coordination Sequence:
#
# PCOD9265153 Si02
#       6
#     8   8   8   8   8   8
#     4  10  20  35  59  83 111 148 193 243 283 342
#     4  10  20  35  54  84 114 145 193 237 288 337
#     4  10  21  37  58  87 115 150 193 237 292 349
#     4  11  20  35  59  83 115 148 188 241 287 338
#     4  11  21  34  56  85 115 150 190 237 290 348
#     4  10  19  36  58  85 113 147 193 242 285 344
#
# _framework density 20.961151999999998
#
# number of rings (size 3 to 8) (size 9 to 14) (size 15 to 20)
#    0.000    1.667    1.667    5.500    0.000    1.333 
#    0.000    3.333    0.000    1.000    0.000    0.000 
#    0.000    0.000    0.000    0.000    0.000    0.000 
#
# Total GULP energy -133950.673746 kJ/mol
# GULP energy per Si atom -5581.278073 kJ/mol
# Density = 2.091344 g / cm^3
# Si number density = 20.961152 Si / 1000 Ang^3
#
#
#
# Elastic Constant Matrix: (Units=GPa)
#
#
# Indices 1 2 3 4 5 6 
#
# 1 99.9812 25.1078 13.1322 0.0000 -14.3529 0.0000
# 2 25.1078 45.7137 14.3201 0.0000 -8.0820 0.0000
# 3 13.1322 14.3201 87.3286 0.0000 -21.4569 0.0000
# 4 0.0000 0.0000 0.0000 27.4843 0.0000 -0.9478
# 5 -14.3529 -8.0820 -21.4569 0.0000 31.5472 0.0000
# 6 0.0000 0.0000 0.0000 -0.9478 0.0000 26.2927
#
#
#
# Elastic Compliance Matrix: (Units=1/GPa)
#
#
# Indices 1 2 3 4 5 6 
#
# 1 0.012061 -0.005955 0.000164 0.000000 0.004073 0.000000
# 2 -0.005955 0.026430 -0.002930 0.000000 0.002069 0.000000
# 3 0.000164 -0.002930 0.014096 0.000000 0.008912 0.000000
# 4 0.000000 0.000000 0.000000 0.036430 0.000000 0.001313
# 5 0.004073 0.002069 0.008912 0.000000 0.040143 0.000000
# 6 0.000000 0.000000 0.000000 0.001313 0.000000 0.038081
#
#
# Mechanical properties :
#
#
# Convention : Reuss Voigt Hill
#
# Bulk Modulus (GPa) = 28.45513 37.57152 33.01332
# Shear Modulus (GPa) = 25.45850 29.09573 27.27711
#
# Velocity S-wave (km/s) = 3.48883 3.72973 3.61129
# Velocity P-wave (km/s) = 5.46204 6.04245 5.75956
#
# Compressibility (1/GPa) = 0.03514305
#
# Stress axis : x y z
#
# Youngs Moduli (GPa) = 82.91458 37.83605 70.93972
#
# Poissons Ratio (x) = 0.22533 -0.01161
# Poissons Ratio (y) = 0.49379 0.20786
# Poissons Ratio (z) = -0.01357 0.11087
#
# Static dielectric constant tensor:
#      x y z
#    x 1.798110 0.000000 -0.050940 
#    y 0.000000 1.780970 0.000000 
#    z -0.050940 0.000000 1.775080 
# 
# From -- ./inp_files/152475.got.cif
#   From: 2010.05.17/outbox.cif.g08.bks.cpg/sg15_77_cif.got.tgz:152475.got - 2010.06.03 18:47:42.
