data_PCOD9265552
_publ_section_title
;
Structure prediction by ZEFSAII (Michael W. Deem and Ramdas Pophale) SiO2 
 PCOD9265552
Probable space group: C 2/C
;
_chemical_formula_sum "Si O2"
_cell_formula_units_Z 48
_cell_length_a 25.694717
_cell_length_b 13.593192
_cell_length_c 13.012630
_cell_angle_alpha 90.000000
_cell_angle_beta 31.217298
_cell_angle_gamma 90.000000
_cell_volume 2355.587281
_symmetry_space_group_name_H-M "C 2/C"
_symmetry_group_IT_number 15
_symmetry_cell_setting 'monoclinic'
loop_
_space_group_symop_operation_xyz
x,y,z
-x,y,1/2-z
-x,-y,-z
x,-y,1/2+z
1/2+x,1/2+y,z
1/2-x,1/2+y,1/2-z
1/2-x,1/2-y,-z
1/2+x,1/2-y,1/2+z
loop_
_atom_site_type_symbol
_atom_site_label
_atom_site_fract_x
_atom_site_fract_y
_atom_site_fract_z
Si Si1 0.575974 0.058884 0.504962
Si Si2 0.963319 0.770889 0.168073
Si Si3 0.350974 0.661896 0.038540
Si Si4 0.380505 0.941399 0.811415
Si Si5 0.641379 0.735914 0.872887
Si Si6 0.264633 0.464448 0.277464
O O1 0.609632 0.061242 0.328316
O O2 0.591667 0.171417 0.515760
O O3 0.652626 0.978472 0.420510
O O4 0.461535 0.024083 0.706525
O O5 0.913741 0.850523 0.327851
O O6 0.922088 0.665087 0.274128
O O7 0.925669 0.782036 0.115552
O O8 0.080815 0.778004 0.995298
O O9 0.252308 0.719300 0.167814
O O10 0.319826 0.562646 0.148362
O O11 0.269352 0.956355 0.045265
O O12 0.670150 0.628861 0.867440
#
# Coordination Sequence:
#
# PCOD9265552 Si02
#       6
#     8   8   8   8   8   8
#     4   9  21  34  57  92 116 139 203 243 285 346
#     4  10  20  36  63  83 114 148 202 238 284 344
#     4  10  21  34  55  92 111 143 197 244 277 345
#     4  10  19  36  62  87 109 152 192 250 289 332
#     4  10  20  36  60  84 115 149 191 239 291 338
#     4  11  21  32  60  83 115 156 187 237 293 340
#
# _framework density 20.377082999999999
#
# number of rings (size 3 to 8) (size 9 to 14) (size 15 to 20)
#    0.000    2.000    1.667    2.000    7.000    0.667 
#    0.000    0.000   14.667   23.000    0.000    0.000 
#    0.000    0.000    0.000    0.000    0.000    0.000 
#
# Total GULP energy -133625.610097 kJ/mol
# GULP energy per Si atom -5567.733754 kJ/mol
# Density = 2.033070 g / cm^3
# Si number density = 20.377083 Si / 1000 Ang^3
#
#
#
# Elastic Constant Matrix: (Units=GPa)
#
#
# Indices 1 2 3 4 5 6 
#
# 1 72.1580 10.8805 -3.4209 0.0000 -21.4652 0.0000
# 2 10.8805 94.2130 13.5449 0.0000 2.4574 0.0000
# 3 -3.4209 13.5449 40.2876 0.0000 -1.2198 0.0000
# 4 0.0000 0.0000 0.0000 23.5474 0.0000 0.5294
# 5 -21.4652 2.4574 -1.2198 0.0000 23.8701 0.0000
# 6 0.0000 0.0000 0.0000 0.5294 0.0000 23.0428
#
#
#
# Elastic Compliance Matrix: (Units=1/GPa)
#
#
# Indices 1 2 3 4 5 6 
#
# 1 0.020019 -0.003278 0.003362 0.000000 0.018511 0.000000
# 2 -0.003278 0.011733 -0.004356 0.000000 -0.004378 0.000000
# 3 0.003362 -0.004356 0.026718 0.000000 0.004837 0.000000
# 4 0.000000 0.000000 0.000000 0.042489 0.000000 -0.000976
# 5 0.018511 -0.004378 0.004837 0.000000 0.059238 0.000000
# 6 0.000000 0.000000 0.000000 -0.000976 0.000000 0.043420
#
#
# Mechanical properties :
#
#
# Convention : Reuss Voigt Hill
#
# Bulk Modulus (GPa) = 20.02920 27.62974 23.82947
# Shear Modulus (GPa) = 21.85293 26.46900 24.16097
#
# Velocity S-wave (km/s) = 3.27835 3.60802 3.44713
# Velocity P-wave (km/s) = 4.91739 5.56289 5.25007
#
# Compressibility (1/GPa) = 0.04992711
#
# Stress axis : x y z
#
# Youngs Moduli (GPa) = 49.95294 85.22781 37.42805
#
# Poissons Ratio (x) = 0.27939 -0.12585
# Poissons Ratio (y) = 0.16376 0.16303
# Poissons Ratio (z) = -0.16796 0.37123
#
# Static dielectric constant tensor:
#      x y z
#    x 1.799350 0.000000 0.029600 
#    y 0.000000 1.770270 0.000000 
#    z 0.029600 0.000000 1.772110 
# 
# From -- ./inp_files/177881.got.cif
#   From: 2010.05.17/outbox.cif.g08.bks.cpg/sg15_89_cif.got.tgz:177881.got - 2010.06.03 18:47:42.
