data_PCOD9265457
_publ_section_title
;
Structure prediction by ZEFSAII (Michael W. Deem and Ramdas Pophale) SiO2 
 PCOD9265457
Probable space group: C 2/C
;
_chemical_formula_sum "Si O2"
_cell_formula_units_Z 52
_cell_length_a 10.162948
_cell_length_b 20.508818
_cell_length_c 14.400424
_cell_angle_alpha 90.000000
_cell_angle_beta 70.348511
_cell_angle_gamma 90.000000
_cell_volume 2826.661695
_symmetry_space_group_name_H-M "C 2/C"
_symmetry_group_IT_number 15
_symmetry_cell_setting 'monoclinic'
loop_
_space_group_symop_operation_xyz
x,y,z
-x,y,1/2-z
-x,-y,-z
x,-y,1/2+z
1/2+x,1/2+y,z
1/2-x,1/2+y,1/2-z
1/2-x,1/2-y,-z
1/2+x,1/2-y,1/2+z
loop_
_atom_site_type_symbol
_atom_site_label
_atom_site_fract_x
_atom_site_fract_y
_atom_site_fract_z
Si Si1 0.615102 0.519022 0.341915
Si Si2 0.500000 0.850158 0.250000
Si Si3 0.151841 0.065704 0.528513
Si Si4 0.595679 0.281256 0.031569
Si Si5 0.106928 0.244146 0.089188
Si Si6 0.000000 0.808782 0.250000
Si Si7 0.759598 0.410384 0.189122
Si Si8 0.000000 0.865106 0.750000
O O1 0.688198 0.533614 0.422371
O O2 0.472061 0.479048 0.398834
O O3 0.702502 0.472891 0.255569
O O4 0.584621 0.586261 0.296692
O O5 0.592472 0.804330 0.162247
O O6 0.399136 0.888952 0.206062
O O7 0.100061 0.139684 0.522696
O O8 0.270171 0.073148 0.577919
O O9 0.519898 0.269584 0.149142
O O10 0.750000 0.250000 0.000000
O O11 0.514648 0.256116 0.960135
O O12 0.088864 0.181103 0.160028
O O13 0.250000 0.250000 0.000000
O O14 0.862075 0.854766 0.274793
#
# Coordination Sequence:
#
# PCOD9265457 Si02
#       8
#     8   4   8   8   8   4   8   4
#     4  11  19  36  65  93 116 149 212 271 291 350
#     4  11  26  40  61  89 132 161 202 254 316 387
#     4  10  20  33  63  93 114 152 212 254 305 355
#     4  11  21  37  59  87 120 160 203 251 302 370
#     4  11  24  40  63  91 126 163 204 257 322 368
#     4  10  19  36  61  87 114 153 216 242 300 362
#     4  11  19  39  61  91 118 162 201 255 307 371
#     4  11  21  40  64 100 122 154 216 272 298 361
#
# _framework density 18.396260000000002
#
# number of rings (size 3 to 8) (size 9 to 14) (size 15 to 20)
#    0.000    1.231    6.154    2.769    0.000    1.231 
#    0.000    0.769    3.385    0.000    0.000    0.000 
#    0.000    0.000    0.000    0.000    0.000    0.000 
#
# Total GULP energy -145070.172736 kJ/mol
# GULP energy per Si atom -5579.622028 kJ/mol
# Density = 1.835439 g / cm^3
# Si number density = 18.396260 Si / 1000 Ang^3
#
#
#
# Elastic Constant Matrix: (Units=GPa)
#
#
# Indices 1 2 3 4 5 6 
#
# 1 92.2315 26.0710 34.4292 0.0000 25.7281 0.0000
# 2 26.0710 62.0598 34.2098 0.0000 7.3247 0.0000
# 3 34.4292 34.2098 122.5730 0.0000 21.8069 0.0000
# 4 0.0000 0.0000 0.0000 16.3469 0.0000 10.9331
# 5 25.7281 7.3247 21.8069 0.0000 41.1868 0.0000
# 6 0.0000 0.0000 0.0000 10.9331 0.0000 11.1084
#
#
#
# Elastic Compliance Matrix: (Units=1/GPa)
#
#
# Indices 1 2 3 4 5 6 
#
# 1 0.014816 -0.004464 -0.001557 0.000000 -0.007637 0.000000
# 2 -0.004464 0.020403 -0.004737 0.000000 0.001669 0.000000
# 3 -0.001557 -0.004737 0.010593 0.000000 -0.003793 0.000000
# 4 0.000000 0.000000 0.000000 0.179010 0.000000 -0.176186
# 5 -0.007637 0.001669 -0.003793 0.000000 0.030762 0.000000
# 6 0.000000 0.000000 0.000000 -0.176186 0.000000 0.263428
#
#
# Mechanical properties :
#
#
# Convention : Reuss Voigt Hill
#
# Bulk Modulus (GPa) = 41.16158 51.80935 46.48546
# Shear Modulus (GPa) = 9.11365 25.87205 17.49285
#
# Velocity S-wave (km/s) = 2.22819 3.75424 3.08700
# Velocity P-wave (km/s) = 5.38919 6.85686 6.16684
#
# Compressibility (1/GPa) = 0.02429450
#
# Stress axis : x y z
#
# Youngs Moduli (GPa) = 67.49614 49.01127 94.40380
#
# Poissons Ratio (x) = 0.21881 0.14698
# Poissons Ratio (y) = 0.30133 0.44723
# Poissons Ratio (z) = 0.10508 0.23219
#
# Static dielectric constant tensor:
#      x y z
#    x 1.626590 0.000000 0.026780 
#    y 0.000000 1.633320 0.000000 
#    z 0.026780 0.000000 1.628690 
# 
# From -- ./inp_files/136025.got.cif
#   From: 2010.05.17/outbox.cif.g08.bks.cpg/sg15_69_cif.got.tgz:136025.got - 2010.06.03 18:47:42.
