data_PCOD9265809
_publ_section_title
;
Structure prediction by ZEFSAII (Michael W. Deem and Ramdas Pophale) SiO2 
 PCOD9265809
Probable space group: C 2/C
;
_chemical_formula_sum "Si O2"
_cell_formula_units_Z 52
_cell_length_a 8.543193
_cell_length_b 13.152103
_cell_length_c 18.605713
_cell_angle_alpha 90.000000
_cell_angle_beta 94.090188
_cell_angle_gamma 90.000000
_cell_volume 2085.231048
_symmetry_space_group_name_H-M "C 2/C"
_symmetry_group_IT_number 15
_symmetry_cell_setting 'monoclinic'
loop_
_space_group_symop_operation_xyz
x,y,z
-x,y,1/2-z
-x,-y,-z
x,-y,1/2+z
1/2+x,1/2+y,z
1/2-x,1/2+y,1/2-z
1/2-x,1/2-y,-z
1/2+x,1/2-y,1/2+z
loop_
_atom_site_type_symbol
_atom_site_label
_atom_site_fract_x
_atom_site_fract_y
_atom_site_fract_z
Si Si1 0.915758 0.916196 0.649791
Si Si2 0.262754 0.283415 0.339170
Si Si3 0.000000 0.100169 0.750000
Si Si4 0.540856 0.717000 0.958005
Si Si5 0.689659 0.639273 0.078813
Si Si6 0.016107 0.366677 0.428115
Si Si7 0.739407 0.995539 0.518197
O O1 0.793765 0.832561 0.673185
O O2 0.090974 0.870680 0.648390
O O3 0.926215 0.022761 0.689854
O O4 0.878261 0.938146 0.565286
O O5 0.362690 0.331489 0.278812
O O6 0.381975 0.294297 0.411434
O O7 0.105365 0.341610 0.358613
O O8 0.659885 0.786431 0.917725
O O9 0.637667 0.617573 0.987242
O O10 0.549489 0.755751 0.042788
O O11 0.767456 0.526372 0.068554
O O12 0.123591 0.394373 0.499521
O O13 0.874056 0.444231 0.427854
#
# Coordination Sequence:
#
# PCOD9265809 Si02
#       7
#     8   8   4   8   8   8   8
#     4  12  24  47  70  94 136 190 233 281 347 404
#     4  12  24  47  72  92 139 188 233 290 347 410
#     4  12  32  50  62  98 138 192 260 292 314 400
#     4  10  19  36  68 108 137 163 213 280 370 425
#     4  10  20  34  67 107 141 165 203 285 355 433
#     4  10  19  37  66 108 134 160 213 288 360 429
#     4  10  20  35  65 107 138 163 206 280 360 425
#
# _framework density 24.937284999999999
#
# number of rings (size 3 to 8) (size 9 to 14) (size 15 to 20)
#    0.000    1.231    3.077    3.692    0.000    1.231 
#    5.538    0.000    0.000    0.000    0.000    0.000 
#    0.000    0.000    0.000    0.000    0.000    0.000 
#
# Total GULP energy -144842.073922 kJ/mol
# GULP energy per Si atom -5570.848997 kJ/mol
# Density = 2.488053 g / cm^3
# Si number density = 24.937285 Si / 1000 Ang^3
#
#
#
# Elastic Constant Matrix: (Units=GPa)
#
#
# Indices 1 2 3 4 5 6 
#
# 1 101.3266 20.7924 44.6701 0.0000 -42.8416 0.0000
# 2 20.7924 101.1361 31.9096 0.0000 -35.5485 0.0000
# 3 44.6701 31.9096 51.4464 0.0000 -40.8198 0.0000
# 4 0.0000 0.0000 0.0000 38.0522 0.0000 -4.7139
# 5 -42.8416 -35.5485 -40.8198 0.0000 52.9878 0.0000
# 6 0.0000 0.0000 0.0000 -4.7139 0.0000 28.6729
#
#
#
# Elastic Compliance Matrix: (Units=1/GPa)
#
#
# Indices 1 2 3 4 5 6 
#
# 1 0.017119 0.002377 -0.010524 0.000000 0.007329 0.000000
# 2 0.002377 0.013442 -0.004427 0.000000 0.007529 0.000000
# 3 -0.010524 -0.004427 0.057139 0.000000 0.032539 0.000000
# 4 0.000000 0.000000 0.000000 0.026826 0.000000 0.004410
# 5 0.007329 0.007529 0.032539 0.000000 0.054916 0.000000
# 6 0.000000 0.000000 0.000000 0.004410 0.000000 0.035601
#
#
# Mechanical properties :
#
#
# Convention : Reuss Voigt Hill
#
# Bulk Modulus (GPa) = 15.98655 49.85035 32.91845
# Shear Modulus (GPa) = 19.91685 34.37836 27.14761
#
# Velocity S-wave (km/s) = 2.82915 3.71697 3.30303
# Velocity P-wave (km/s) = 4.13482 6.20120 5.27028
#
# Compressibility (1/GPa) = 0.06255258
#
# Stress axis : x y z
#
# Youngs Moduli (GPa) = 58.41295 74.39156 17.50112
#
# Poissons Ratio (x) = -0.17682 0.18418
# Poissons Ratio (y) = -0.13884 0.07748
# Poissons Ratio (z) = 0.61472 0.32936
#
# Static dielectric constant tensor:
#      x y z
#    x 1.967840 0.000000 -0.004570 
#    y 0.000000 2.101440 0.000000 
#    z -0.004570 0.000000 2.022640 
# 
# From -- ./inp_files/231165.got.cif
#   From: 2010.05.17/outbox.cif.g08.bks.cpg/sg15_116_cif.got.tgz:231165.got - 2010.06.03 18:47:42.
