data_PCOD9265030
_publ_section_title
;
Structure prediction by ZEFSAII (Michael W. Deem and Ramdas Pophale) SiO2 
 PCOD9265030
Probable space group: C 2/C
;
_chemical_formula_sum "Si O2"
_cell_formula_units_Z 56
_cell_length_a 35.961090
_cell_length_b 13.107819
_cell_length_c 8.825507
_cell_angle_alpha 90.000000
_cell_angle_beta 142.262171
_cell_angle_gamma 90.000000
_cell_volume 2546.181483
_symmetry_space_group_name_H-M "C 2/C"
_symmetry_group_IT_number 15
_symmetry_cell_setting 'monoclinic'
loop_
_space_group_symop_operation_xyz
x,y,z
-x,y,1/2-z
-x,-y,-z
x,-y,1/2+z
1/2+x,1/2+y,z
1/2-x,1/2+y,1/2-z
1/2-x,1/2-y,-z
1/2+x,1/2-y,1/2+z
loop_
_atom_site_type_symbol
_atom_site_label
_atom_site_fract_x
_atom_site_fract_y
_atom_site_fract_z
Si Si1 0.500000 0.216962 0.750000
Si Si2 0.822893 0.144709 0.655179
Si Si3 0.719698 0.191002 0.696007
Si Si4 0.284181 0.029736 0.054589
Si Si5 0.618220 0.822990 0.470336
Si Si6 0.331135 0.198112 0.680185
Si Si7 0.436973 0.613884 0.839248
Si Si8 0.000000 0.944722 0.250000
O O1 0.446864 0.156409 0.664036
O O2 0.468461 0.289347 0.522403
O O3 0.780099 0.229095 0.440349
O O4 0.781827 0.057600 0.593391
O O5 0.861157 0.211185 0.899869
O O6 0.867269 0.108772 0.665633
O O7 0.713577 0.080966 0.604010
O O8 0.783808 0.213905 0.980420
O O9 0.661807 0.213390 0.617502
O O10 0.334567 0.091828 0.315685
O O11 0.296825 0.911219 0.077100
O O12 0.619829 0.814118 0.293446
O O13 0.454254 0.612842 0.717437
O O14 0.463904 0.516414 0.016691
#
# Coordination Sequence:
#
# PCOD9265030 Si02
#       8
#     4   8   8   8   8   8   8   4
#     4   9  20  36  60  78  97 156 202 218 289 338
#     4  10  19  36  57  79 113 154 186 223 288 347
#     4  10  21  35  52  84 116 144 184 233 278 344
#     4  11  20  37  58  80 116 153 180 229 300 343
#     4  10  19  39  57  79 113 149 187 237 278 342
#     4  11  21  34  56  85 115 145 189 237 282 332
#     4   9  19  34  56  79 109 151 188 231 283 338
#     4   9  18  36  50  80 121 140 184 244 273 332
#
# _framework density 21.993717
#
# number of rings (size 3 to 8) (size 9 to 14) (size 15 to 20)
#    0.000    2.000    2.857    1.714    0.000    2.286 
#    0.000    3.571    0.000    0.000    0.000    0.000 
#    0.000    0.000    0.000    0.000    0.000    0.000 
#
# Total GULP energy -156208.344678 kJ/mol
# GULP energy per Si atom -5578.869453 kJ/mol
# Density = 2.194366 g / cm^3
# Si number density = 21.993717 Si / 1000 Ang^3
#
#
#
# Elastic Constant Matrix: (Units=GPa)
#
#
# Indices 1 2 3 4 5 6 
#
# 1 221.0466 29.8787 32.9955 0.0000 -2.5846 0.0000
# 2 29.8787 54.1562 -0.0324 0.0000 2.0519 0.0000
# 3 32.9955 -0.0324 21.3323 0.0000 1.8184 0.0000
# 4 0.0000 0.0000 0.0000 -23.8679 0.0000 6.9855
# 5 -2.5846 2.0519 1.8184 0.0000 39.9573 0.0000
# 6 0.0000 0.0000 0.0000 6.9855 0.0000 28.1416
#
#
#
# Elastic Compliance Matrix: (Units=1/GPa)
#
#
# Indices 1 2 3 4 5 6 
#
# 1 0.006562 -0.003667 -0.010247 0.000000 0.001079 0.000000
# 2 -0.003667 0.020551 0.005836 0.000000 -0.001558 0.000000
# 3 -0.010247 0.005836 0.063062 0.000000 -0.003832 0.000000
# 4 0.000000 0.000000 0.000000 -0.039060 0.000000 0.009696
# 5 0.001079 -0.001558 -0.003832 0.000000 0.025351 0.000000
# 6 0.000000 0.000000 0.000000 0.009696 0.000000 0.033128
#
#
# Mechanical properties :
#
#
# Convention : Reuss Voigt Hill
#
# Bulk Modulus (GPa) = 13.51000 46.91320 30.21160
# Shear Modulus (GPa) = 33.23954 24.42575 28.83264
#
# Velocity S-wave (km/s) = 3.89179 3.33615 3.62463
# Velocity P-wave (km/s) = 5.13329 6.01801 5.59317
#
# Compressibility (1/GPa) = 0.07401927
#
# Stress axis : x y z
#
# Youngs Moduli (GPa) = 152.39682 48.65963 15.85731
#
# Poissons Ratio (x) = 0.17845 0.16249
# Poissons Ratio (y) = 0.55888 -0.09255
# Poissons Ratio (z) = 1.56161 -0.28399
#
# Static dielectric constant tensor:
#      x y z
#    x 1.879090 0.000000 -0.033860 
#    y 0.000000 1.818740 0.000000 
#    z -0.033860 0.000000 1.858840 
# 
# From -- ./inp_files/69996.got.cif
#   From: 2010.05.17/outbox.cif.g08.bks.cpg/sg15_35_cif.got.tgz:69996.got - 2010.06.03 18:47:42.
