data_PCOD9265810
_publ_section_title
;
Structure prediction by ZEFSAII (Michael W. Deem and Ramdas Pophale) SiO2 
 PCOD9265810
Probable space group: C 2/C
;
_chemical_formula_sum "Si O2"
_cell_formula_units_Z 60
_cell_length_a 14.785626
_cell_length_b 27.330386
_cell_length_c 13.662109
_cell_angle_alpha 90.000000
_cell_angle_beta 149.213149
_cell_angle_gamma 90.000000
_cell_volume 2825.805780
_symmetry_space_group_name_H-M "C 2/C"
_symmetry_group_IT_number 15
_symmetry_cell_setting 'monoclinic'
loop_
_space_group_symop_operation_xyz
x,y,z
-x,y,1/2-z
-x,-y,-z
x,-y,1/2+z
1/2+x,1/2+y,z
1/2-x,1/2+y,1/2-z
1/2-x,1/2-y,-z
1/2+x,1/2-y,1/2+z
loop_
_atom_site_type_symbol
_atom_site_label
_atom_site_fract_x
_atom_site_fract_y
_atom_site_fract_z
Si Si1 0.222773 0.097164 0.156860
Si Si2 0.518786 0.792653 0.072484
Si Si3 0.336067 0.983364 0.913227
Si Si4 0.369758 0.682433 0.290440
Si Si5 0.000000 0.429946 0.250000
Si Si6 0.143797 0.084520 0.744553
Si Si7 0.557132 0.149967 0.407596
Si Si8 0.711239 0.631582 0.592456
O O1 0.234522 0.058189 0.256021
O O2 0.168013 0.150108 0.148367
O O3 0.417753 0.105648 0.296685
O O4 0.066789 0.083215 0.938846
O O5 0.326159 0.808694 0.934253
O O6 0.534983 0.811607 0.975446
O O7 0.550173 0.735224 0.110574
O O8 0.672061 0.821344 0.270691
O O9 0.218549 0.030392 0.826835
O O10 0.420345 0.961075 0.088200
O O11 0.500000 0.000000 0.000000
O O12 0.521712 0.650725 0.379923
O O13 0.164868 0.398745 0.363620
O O14 0.181551 0.100837 0.665786
O O15 0.251140 0.124837 0.906442
O O16 0.500000 0.171003 0.250000
#
# Coordination Sequence:
#
# PCOD9265810 Si02
#       8
#     8   8   8   8   4   8   8   8
#     4  10  22  40  64  90 125 170 216 260 323 377
#     4  10  19  38  65  91 120 173 216 252 324 386
#     4  12  22  42  67  94 125 174 213 266 324 383
#     4  10  19  36  68  89 117 167 216 255 312 385
#     4  12  24  40  68  96 132 166 212 268 328 378
#     4  10  21  40  67  86 125 171 215 261 316 381
#     4  10  21  37  60  94 132 165 208 273 324 379
#     4  10  21  40  62  92 125 160 207 267 311 371
#
# _framework density 21.232882
#
# number of rings (size 3 to 8) (size 9 to 14) (size 15 to 20)
#    0.000    1.600    4.000    2.000    0.933    0.533 
#    0.000    9.333    0.000    0.000    0.000    0.000 
#    0.000    0.000    0.000    0.000    0.000    0.000 
#
# Total GULP energy -167551.386174 kJ/mol
# GULP energy per Si atom -5585.046206 kJ/mol
# Density = 2.118456 g / cm^3
# Si number density = 21.232882 Si / 1000 Ang^3
#
#
#
# Elastic Constant Matrix: (Units=GPa)
#
#
# Indices 1 2 3 4 5 6 
#
# 1 55.5575 18.8490 26.5430 0.0000 -6.4485 0.0000
# 2 18.8490 90.1450 18.4285 0.0000 0.5396 0.0000
# 3 26.5430 18.4285 108.1433 0.0000 10.7540 0.0000
# 4 0.0000 0.0000 0.0000 16.7362 0.0000 21.8324
# 5 -6.4485 0.5396 10.7540 0.0000 28.4892 0.0000
# 6 0.0000 0.0000 0.0000 21.8324 0.0000 6.8862
#
#
#
# Elastic Compliance Matrix: (Units=1/GPa)
#
#
# Indices 1 2 3 4 5 6 
#
# 1 0.022826 -0.003649 -0.005716 0.000000 0.007393 0.000000
# 2 -0.003649 0.012085 -0.001100 0.000000 -0.000639 0.000000
# 3 -0.005716 -0.001100 0.011392 0.000000 -0.005573 0.000000
# 4 0.000000 0.000000 0.000000 -0.019054 0.000000 0.060410
# 5 0.007393 -0.000639 -0.005573 0.000000 0.038890 0.000000
# 6 0.000000 0.000000 0.000000 0.060410 0.000000 -0.046309
#
#
# Mechanical properties :
#
#
# Convention : Reuss Voigt Hill
#
# Bulk Modulus (GPa) = 39.41191 42.38741 40.89966
# Shear Modulus (GPa) = 101.58917 23.09068 62.33993
#
# Velocity S-wave (km/s) = 6.92453 3.30130 5.42437
# Velocity P-wave (km/s) = 9.08483 5.87689 7.65088
#
# Compressibility (1/GPa) = 0.02537304
#
# Stress axis : x y z
#
# Youngs Moduli (GPa) = 43.80921 82.74784 87.78374
#
# Poissons Ratio (x) = 0.30191 0.50177
# Poissons Ratio (y) = 0.15984 0.09658
# Poissons Ratio (z) = 0.25041 0.09104
#
# Static dielectric constant tensor:
#      x y z
#    x 1.799080 0.000000 0.013000 
#    y 0.000000 1.779120 0.000000 
#    z 0.013000 0.000000 1.799530 
# 
# From -- ./inp_files/157353.got.cif
#   From: 2010.05.17/outbox.cif.g08.bks.cpg/sg15_79_cif.got.tgz:157353.got - 2010.06.03 18:47:42.
