data_PCOD9265173
_publ_section_title
;
Structure prediction by ZEFSAII (Michael W. Deem and Ramdas Pophale) SiO2 
 PCOD9265173
Probable space group: C 2/C
;
_chemical_formula_sum "Si O2"
_cell_formula_units_Z 64
_cell_length_a 23.467472
_cell_length_b 16.304478
_cell_length_c 22.248518
_cell_angle_alpha 90.000000
_cell_angle_beta 22.672728
_cell_angle_gamma 90.000000
_cell_volume 3281.416573
_symmetry_space_group_name_H-M "C 2/C"
_symmetry_group_IT_number 15
_symmetry_cell_setting 'monoclinic'
loop_
_space_group_symop_operation_xyz
x,y,z
-x,y,1/2-z
-x,-y,-z
x,-y,1/2+z
1/2+x,1/2+y,z
1/2-x,1/2+y,1/2-z
1/2-x,1/2-y,-z
1/2+x,1/2-y,1/2+z
loop_
_atom_site_type_symbol
_atom_site_label
_atom_site_fract_x
_atom_site_fract_y
_atom_site_fract_z
Si Si1 0.415530 0.452324 0.681556
Si Si2 0.887648 0.489115 0.311554
Si Si3 0.417582 0.872521 0.931080
Si Si4 0.032354 0.243351 0.904451
Si Si5 0.767825 0.136271 0.220975
Si Si6 0.754265 0.100138 0.793614
Si Si7 0.151585 0.046895 0.630188
Si Si8 0.247979 0.542627 0.675883
O O1 0.313848 0.387260 0.744584
O O2 0.382243 0.533257 0.674490
O O3 0.377136 0.483637 0.786291
O O4 0.587370 0.433672 0.506039
O O5 0.735885 0.501423 0.494385
O O6 0.859173 0.447266 0.276064
O O7 0.000000 0.450128 0.250000
O O8 0.958567 0.577189 0.224650
O O9 0.471706 0.785515 0.902746
O O10 0.375612 0.920169 0.033997
O O11 0.265905 0.883647 0.041643
O O12 0.114819 0.313760 0.863092
O O13 0.167123 0.181958 0.761243
O O14 0.902023 0.192084 0.063488
O O15 0.751677 0.052040 0.197087
O O16 0.704574 0.099387 0.773929
O O17 0.000000 0.079132 0.750000
#
# Coordination Sequence:
#
# PCOD9265173 Si02
#       8
#     8   8   8   8   8   8   8   8
#     4  10  19  36  58  88 110 150 200 259 277 346
#     4  10  21  37  54  84 117 153 194 249 286 334
#     4  10  22  36  53  84 123 151 184 246 298 347
#     4  12  20  35  55  86 123 157 183 230 304 371
#     4  11  22  35  57  87 121 152 193 235 308 355
#     4  10  20  33  57  86 113 154 197 230 307 354
#     4  10  20  37  63  83 108 156 214 242 280 335
#     4  11  18  35  61  83 117 152 195 253 286 348
#
# _framework density 19.503772000000001
#
# number of rings (size 3 to 8) (size 9 to 14) (size 15 to 20)
#    0.000    1.500    6.250    0.750    0.000    0.500 
#    4.500    0.000    0.000   47.250    0.000    4.375 
#    0.000    0.000    0.000    0.000    0.000    0.000 
#
# Total GULP energy -178240.985029 kJ/mol
# GULP energy per Si atom -5570.030782 kJ/mol
# Density = 1.945938 g / cm^3
# Si number density = 19.503772 Si / 1000 Ang^3
#
#
#
# Elastic Constant Matrix: (Units=GPa)
#
#
# Indices 1 2 3 4 5 6 
#
# 1 120.5799 -11.8203 28.3693 -0.0235 -2.7025 0.0079
# 2 -11.8203 -12.8504 3.8880 -0.0626 -3.8338 0.0233
# 3 28.3693 3.8880 60.9655 -0.0143 1.0572 0.0062
# 4 -0.0235 -0.0626 -0.0143 10.5223 0.0071 -0.7350
# 5 -2.7025 -3.8338 1.0572 0.0071 33.3257 -0.0006
# 6 0.0079 0.0233 0.0062 -0.7350 -0.0006 27.6428
#
#
#
# Elastic Compliance Matrix: (Units=1/GPa)
#
#
# Indices 1 2 3 4 5 6 
#
# 1 0.008228 -0.008500 -0.003283 -0.000036 -0.000206 0.000005
# 2 -0.008500 -0.064989 0.008246 -0.000386 -0.008427 0.000045
# 3 -0.003283 0.008246 0.017402 0.000065 0.000130 -0.000008
# 4 -0.000036 -0.000386 0.000065 0.095211 -0.000070 0.002532
# 5 -0.000206 -0.008427 0.000130 -0.000070 0.029017 0.000006
# 6 0.000005 0.000045 -0.000008 0.002532 0.000006 0.036243
#
#
# Mechanical properties :
#
#
# Convention : Reuss Voigt Hill
#
# Bulk Modulus (GPa) = -21.53650 23.28545 0.87447
# Shear Modulus (GPa) = 44.36242 24.18201 34.27221
#
# Velocity S-wave (km/s) = 4.77440 3.52499 4.19646
# Velocity P-wave (km/s) = 4.39625 5.34156 4.89179
#
# Compressibility (1/GPa) = -0.04643279
#
# Stress axis : x y z
#
# Youngs Moduli (GPa) = 121.53912 -15.38721 57.46365
#
# Poissons Ratio (x) = -0.13079 0.18866
# Poissons Ratio (y) = 1.03306 -0.47384
# Poissons Ratio (z) = 0.39902 0.12688
#
# Static dielectric constant tensor:
#      x y z
#    x 1.730890 0.000000 -0.024450 
#    y 0.000000 1.710020 0.000010 
#    z -0.024450 0.000010 1.720480 
# 
# From -- ./inp_files/282228.got.cif
#   From: 2010.05.17/outbox.cif.g08.bks.cpg/sg15_142_cif.got.tgz:282228.got - 2010.06.03 18:47:42.
