data_PCOD9265531
_publ_section_title
;
Structure prediction by ZEFSAII (Michael W. Deem and Ramdas Pophale) SiO2 
 PCOD9265531
Probable space group: C 2/C
;
_chemical_formula_sum "Si O2"
_cell_formula_units_Z 56
_cell_length_a 9.033796
_cell_length_b 26.941379
_cell_length_c 15.678921
_cell_angle_alpha 90.000000
_cell_angle_beta 55.101563
_cell_angle_gamma 90.000000
_cell_volume 3129.744029
_symmetry_space_group_name_H-M "C 2/C"
_symmetry_group_IT_number 15
_symmetry_cell_setting 'monoclinic'
loop_
_space_group_symop_operation_xyz
x,y,z
-x,y,1/2-z
-x,-y,-z
x,-y,1/2+z
1/2+x,1/2+y,z
1/2-x,1/2+y,1/2-z
1/2-x,1/2-y,-z
1/2+x,1/2-y,1/2+z
loop_
_atom_site_type_symbol
_atom_site_label
_atom_site_fract_x
_atom_site_fract_y
_atom_site_fract_z
Si Si1 0.807602 0.405797 0.262140
Si Si2 0.982294 0.550100 0.952155
Si Si3 0.604789 0.550202 0.979961
Si Si4 0.889131 0.337934 0.529865
Si Si5 0.884110 0.297279 0.201894
Si Si6 0.009076 0.873510 0.844429
Si Si7 0.347331 0.198643 0.229276
O O1 0.651014 0.424388 0.374894
O O2 0.777075 0.348900 0.247723
O O3 0.000000 0.404880 0.250000
O O4 0.850388 0.440115 0.166834
O O5 0.800387 0.542380 0.957821
O O6 0.952833 0.603880 0.007961
O O7 0.000000 0.500000 0.000000
O O8 0.500000 0.500000 0.000000
O O9 0.499591 0.585151 0.080420
O O10 0.673093 0.340710 0.586080
O O11 0.922497 0.312245 0.609526
O O12 0.984038 0.308786 0.421329
O O13 0.750398 0.251751 0.233473
O O14 0.000000 0.288481 0.250000
O O15 0.187852 0.841302 0.794229
O O16 0.000000 0.893630 0.750000
O O17 0.500000 0.194027 0.250000
#
# Coordination Sequence:
#
# PCOD9265531 Si02
#       7
#     8   8   8   8   8   8   8
#     4   8  17  34  54  77 103 134 176 218 257 313
#     4   9  18  35  57  78 104 138 175 219 266 312
#     4  10  20  33  53  81 108 137 175 217 264 316
#     4   9  20  38  58  81 106 140 188 226 260 323
#     4  10  19  36  62  81 100 140 187 226 267 318
#     4   9  19  37  56  76 106 143 185 224 259 318
#     4  11  24  37  53  81 114 144 175 222 280 327
#
# _framework density 17.892838000000001
#
# number of rings (size 3 to 8) (size 9 to 14) (size 15 to 20)
#    0.000    2.571    0.000    3.857    0.000    8.571 
#    0.000    4.286    0.000    0.000    0.000    0.000 
#    0.000    0.000    0.000    0.000    0.000    0.000 
#
# Total GULP energy -156104.061739 kJ/mol
# GULP energy per Si atom -5575.145062 kJ/mol
# Density = 1.785211 g / cm^3
# Si number density = 17.892838 Si / 1000 Ang^3
#
#
#
# Elastic Constant Matrix: (Units=GPa)
#
#
# Indices 1 2 3 4 5 6 
#
# 1 59.5054 57.5089 58.3876 0.0000 13.4727 0.0000
# 2 57.5089 104.4968 88.9166 0.0000 9.6915 0.0000
# 3 58.3876 88.9166 172.9272 0.0000 7.6391 0.0000
# 4 0.0000 0.0000 0.0000 17.7956 0.0000 7.0888
# 5 13.4727 9.6915 7.6391 0.0000 17.3053 0.0000
# 6 0.0000 0.0000 0.0000 7.0888 0.0000 24.2304
#
#
#
# Elastic Compliance Matrix: (Units=1/GPa)
#
#
# Indices 1 2 3 4 5 6 
#
# 1 0.043783 -0.018329 -0.004392 0.000000 -0.021883 0.000000
# 2 -0.018329 0.025273 -0.006947 0.000000 0.003183 0.000000
# 3 -0.004392 -0.006947 0.010724 0.000000 0.002576 0.000000
# 4 0.000000 0.000000 0.000000 0.063607 0.000000 -0.018609
# 5 -0.021883 0.003183 0.002576 0.000000 0.071903 0.000000
# 6 0.000000 0.000000 0.000000 -0.018609 0.000000 0.046715
#
#
# Mechanical properties :
#
#
# Convention : Reuss Voigt Hill
#
# Bulk Modulus (GPa) = 48.91346 82.95062 65.93204
# Shear Modulus (GPa) = 15.23674 20.67400 17.95537
#
# Velocity S-wave (km/s) = 2.92131 3.40286 3.17124
# Velocity P-wave (km/s) = 6.22695 7.86763 7.09488
#
# Compressibility (1/GPa) = 0.02044427
#
# Stress axis : x y z
#
# Youngs Moduli (GPa) = 22.83982 39.56815 93.25051
#
# Poissons Ratio (x) = 0.72525 0.40954
# Poissons Ratio (y) = 0.41863 0.64779
# Poissons Ratio (z) = 0.10031 0.27487
#
# Static dielectric constant tensor:
#      x y z
#    x 1.591850 0.000000 0.012990 
#    y 0.000000 1.605130 0.000000 
#    z 0.012990 0.000000 1.645190 
# 
# From -- ./inp_files/137705.got.cif
#   From: 2010.05.17/outbox.cif.g08.bks.cpg/sg15_69_cif.got.tgz:137705.got - 2010.06.03 18:47:42.
