data_PCOD9265236
_publ_section_title
;
Structure prediction by ZEFSAII (Michael W. Deem and Ramdas Pophale) SiO2 
 PCOD9265236
Probable space group: C 2/C
;
_chemical_formula_sum "Si O2"
_cell_formula_units_Z 48
_cell_length_a 19.586653
_cell_length_b 8.760614
_cell_length_c 17.815547
_cell_angle_alpha 90.000000
_cell_angle_beta 122.436947
_cell_angle_gamma 90.000000
_cell_volume 2580.044731
_symmetry_space_group_name_H-M "C 2/C"
_symmetry_group_IT_number 15
_symmetry_cell_setting 'monoclinic'
loop_
_space_group_symop_operation_xyz
x,y,z
-x,y,1/2-z
-x,-y,-z
x,-y,1/2+z
1/2+x,1/2+y,z
1/2-x,1/2+y,1/2-z
1/2-x,1/2-y,-z
1/2+x,1/2-y,1/2+z
loop_
_atom_site_type_symbol
_atom_site_label
_atom_site_fract_x
_atom_site_fract_y
_atom_site_fract_z
Si Si1 0.341871 0.981097 0.718174
Si Si2 0.591586 0.328118 0.234365
Si Si3 0.759518 0.471713 0.327276
Si Si4 0.794481 0.793459 0.949259
Si Si5 0.815973 0.777576 0.605765
Si Si6 0.925827 0.036914 0.611438
O O1 0.413273 0.855399 0.768576
O O2 0.267799 0.893819 0.634438
O O3 0.312955 0.009168 0.785599
O O4 0.350366 0.130767 0.671055
O O5 0.677492 0.383855 0.253770
O O6 0.592911 0.370767 0.323014
O O7 0.520097 0.427709 0.155962
O O8 0.807378 0.362233 0.412419
O O9 0.728334 0.617276 0.356812
O O10 0.750000 0.750000 0.000000
O O11 0.873353 0.889714 0.014863
O O12 0.750000 0.750000 0.500000
O O13 0.890042 0.871293 0.611084
#
# Coordination Sequence:
#
# PCOD9265236 Si02
#       6
#     8   8   8   8   8   8
#     4  11  20  35  59  88 113 153 195 242 289 349
#     4   9  20  37  57  80 117 156 189 234 304 345
#     4  10  21  35  58  83 121 155 195 233 295 352
#     4  11  17  36  60  83 107 159 203 226 283 360
#     4  11  19  32  60  91 114 141 204 254 275 328
#     4  10  19  36  59  84 115 150 195 244 289 344
#
# _framework density 18.604329
#
# number of rings (size 3 to 8) (size 9 to 14) (size 15 to 20)
#    0.000    1.667    6.667    2.000    0.000    0.000 
#    0.000    8.333    0.000    0.000    0.000    0.000 
#    0.000    0.000    0.000    0.000    0.000    0.000 
#
# Total GULP energy -133639.323184 kJ/mol
# GULP energy per Si atom -5568.305133 kJ/mol
# Density = 1.856199 g / cm^3
# Si number density = 18.604329 Si / 1000 Ang^3
#
#
#
# Elastic Constant Matrix: (Units=GPa)
#
#
# Indices 1 2 3 4 5 6 
#
# 1 46.3505 28.9537 24.6742 0.0000 4.9153 0.0000
# 2 28.9537 119.3282 34.0954 0.0000 1.0533 0.0000
# 3 24.6742 34.0954 82.6406 0.0000 -3.6585 0.0000
# 4 0.0000 0.0000 0.0000 26.1659 0.0000 1.0243
# 5 4.9153 1.0533 -3.6585 0.0000 28.9799 0.0000
# 6 0.0000 0.0000 0.0000 1.0243 0.0000 15.2429
#
#
#
# Elastic Compliance Matrix: (Units=1/GPa)
#
#
# Indices 1 2 3 4 5 6 
#
# 1 0.028932 -0.005024 -0.006813 0.000000 -0.005585 0.000000
# 2 -0.005024 0.010393 -0.002782 0.000000 0.000123 0.000000
# 3 -0.006813 -0.002782 0.015424 0.000000 0.003204 0.000000
# 4 0.000000 0.000000 0.000000 0.038319 0.000000 -0.002575
# 5 -0.005585 0.000123 0.003204 0.000000 0.035854 0.000000
# 6 0.000000 0.000000 0.000000 -0.002575 0.000000 0.065777
#
#
# Mechanical properties :
#
#
# Convention : Reuss Voigt Hill
#
# Bulk Modulus (GPa) = 39.19858 47.08510 43.14184
# Shear Modulus (GPa) = 21.51077 24.78413 23.14745
#
# Velocity S-wave (km/s) = 3.40402 3.65385 3.53114
# Velocity P-wave (km/s) = 6.04691 6.56997 6.31386
#
# Compressibility (1/GPa) = 0.02551113
#
# Stress axis : x y z
#
# Youngs Moduli (GPa) = 34.56376 96.21628 64.83199
#
# Poissons Ratio (x) = 0.48341 0.44168
# Poissons Ratio (y) = 0.17365 0.18039
# Poissons Ratio (z) = 0.23547 0.26772
#
# Static dielectric constant tensor:
#      x y z
#    x 1.690640 0.000000 -0.000150 
#    y 0.000000 1.716540 0.000000 
#    z -0.000150 0.000000 1.704610 
# 
# From -- ./inp_files/213559.got.cif
#   From: 2010.05.17/outbox.cif.g08.bks.cpg/sg15_107_cif.got.tgz:213559.got - 2010.06.03 18:47:42.
