data_PCOD9265269
_publ_section_title
;
Structure prediction by ZEFSAII (Michael W. Deem and Ramdas Pophale) SiO2 
 PCOD9265269
Probable space group: C 2/C
;
_chemical_formula_sum "Si O2"
_cell_formula_units_Z 40
_cell_length_a 12.945784
_cell_length_b 12.347391
_cell_length_c 15.096008
_cell_angle_alpha 90.000000
_cell_angle_beta 136.879840
_cell_angle_gamma 90.000000
_cell_volume 1649.391170
_symmetry_space_group_name_H-M "C 2/C"
_symmetry_group_IT_number 15
_symmetry_cell_setting 'monoclinic'
loop_
_space_group_symop_operation_xyz
x,y,z
-x,y,1/2-z
-x,-y,-z
x,-y,1/2+z
1/2+x,1/2+y,z
1/2-x,1/2+y,1/2-z
1/2-x,1/2-y,-z
1/2+x,1/2-y,1/2+z
loop_
_atom_site_type_symbol
_atom_site_label
_atom_site_fract_x
_atom_site_fract_y
_atom_site_fract_z
Si Si1 0.087935 0.340407 0.712238
Si Si2 0.111859 0.970731 0.892547
Si Si3 0.352019 0.683972 0.493595
Si Si4 0.866431 0.628331 0.439307
Si Si5 0.066052 0.746168 0.700680
O O1 0.257020 0.308672 0.845176
O O2 0.092276 0.421567 0.631227
O O3 0.000000 0.367346 0.750000
O O4 0.009071 0.239379 0.613858
O O5 0.000000 0.023583 0.750000
O O6 0.269614 0.948251 0.942953
O O7 0.027821 0.860250 0.866931
O O8 0.135645 0.056805 0.982964
O O9 0.250000 0.750000 0.500000
O O10 0.007461 0.675513 0.581916
O O11 0.736426 0.719617 0.334364
O O12 0.000000 0.693503 0.750000
#
# Coordination Sequence:
#
# PCOD9265269 Si02
#       5
#     8   8   8   8   8
#     4  10  21  37  57  81 117 154 192 236 282 339
#     4   9  18  35  59  84 113 150 194 240 288 346
#     4  10  20  38  57  77 112 156 192 236 283 333
#     4  10  19  36  59  87 116 152 190 234 291 349
#     4   9  18  34  59  89 117 146 188 242 292 345
#
# _framework density 24.251373000000001
#
# number of rings (size 3 to 8) (size 9 to 14) (size 15 to 20)
#    0.000    2.800    0.000    5.400    0.000    0.000 
#    0.000   26.000    0.000    0.000    0.000    0.000 
#    0.000    0.000    0.000    0.000    0.000    0.000 
#
# Total GULP energy -111498.567579 kJ/mol
# GULP energy per Si atom -5574.928379 kJ/mol
# Density = 2.419618 g / cm^3
# Si number density = 24.251373 Si / 1000 Ang^3
#
#
#
# Elastic Constant Matrix: (Units=GPa)
#
#
# Indices 1 2 3 4 5 6 
#
# 1 82.4357 16.3940 14.0357 0.0000 15.4752 0.0000
# 2 16.3940 43.0816 37.1955 0.0000 10.7701 0.0000
# 3 14.0357 37.1955 167.7287 0.0000 0.4089 0.0000
# 4 0.0000 0.0000 0.0000 9.2627 0.0000 2.6178
# 5 15.4752 10.7701 0.4089 0.0000 42.9616 0.0000
# 6 0.0000 0.0000 0.0000 2.6178 0.0000 17.0204
#
#
#
# Elastic Compliance Matrix: (Units=1/GPa)
#
#
# Indices 1 2 3 4 5 6 
#
# 1 0.013710 -0.004023 -0.000245 0.000000 -0.003928 0.000000
# 2 -0.004023 0.032257 -0.006801 0.000000 -0.006573 0.000000
# 3 -0.000245 -0.006801 0.007486 0.000000 0.001722 0.000000
# 4 0.000000 0.000000 0.000000 0.112866 0.000000 -0.017359
# 5 -0.003928 -0.006573 0.001722 0.000000 0.026323 0.000000
# 6 0.000000 0.000000 0.000000 -0.017359 0.000000 0.061423
#
#
# Mechanical properties :
#
#
# Convention : Reuss Voigt Hill
#
# Bulk Modulus (GPa) = 31.93371 47.61068 39.77220
# Shear Modulus (GPa) = 17.44330 28.89031 23.16681
#
# Velocity S-wave (km/s) = 2.68483 3.45524 3.09411
# Velocity P-wave (km/s) = 4.77572 5.96599 5.40373
#
# Compressibility (1/GPa) = 0.03131487
#
# Stress axis : x y z
#
# Youngs Moduli (GPa) = 72.94017 31.00059 133.57424
#
# Poissons Ratio (x) = 0.12472 0.03279
# Poissons Ratio (y) = 0.29346 0.90840
# Poissons Ratio (z) = 0.01791 0.21083
#
# Static dielectric constant tensor:
#      x y z
#    x 2.040750 0.000000 0.003990 
#    y 0.000000 1.962700 0.000000 
#    z 0.003990 0.000000 1.915280 
# 
# From -- ./inp_files/154156.got.cif
#   From: 2010.05.17/outbox.cif.g08.bks.cpg/sg15_78_cif.got.tgz:154156.got - 2010.06.03 18:47:42.
