data_PCOD9265259
_publ_section_title
;
Structure prediction by ZEFSAII (Michael W. Deem and Ramdas Pophale) SiO2 
 PCOD9265259
Probable space group: C 2/C
;
_chemical_formula_sum "Si O2"
_cell_formula_units_Z 44
_cell_length_a 6.635587
_cell_length_b 14.468879
_cell_length_c 26.207771
_cell_angle_alpha 90.000000
_cell_angle_beta 138.503011
_cell_angle_gamma 90.000000
_cell_volume 1667.182302
_symmetry_space_group_name_H-M "C 2/C"
_symmetry_group_IT_number 15
_symmetry_cell_setting 'monoclinic'
loop_
_space_group_symop_operation_xyz
x,y,z
-x,y,1/2-z
-x,-y,-z
x,-y,1/2+z
1/2+x,1/2+y,z
1/2-x,1/2+y,1/2-z
1/2-x,1/2-y,-z
1/2+x,1/2-y,1/2+z
loop_
_atom_site_type_symbol
_atom_site_label
_atom_site_fract_x
_atom_site_fract_y
_atom_site_fract_z
Si Si1 0.603861 0.853682 0.327682
Si Si2 0.393093 0.851010 0.964342
Si Si3 0.500000 0.525976 0.250000
Si Si4 0.835169 0.019245 0.328234
Si Si5 0.942835 0.302999 0.401905
Si Si6 0.008612 0.674298 0.123537
O O1 0.500000 0.870436 0.250000
O O2 0.386887 0.845022 0.335333
O O3 0.766073 0.756260 0.350576
O O4 0.804937 0.946316 0.368782
O O5 0.607623 0.855083 0.955186
O O6 0.094491 0.908814 0.893278
O O7 0.267048 0.747690 0.952858
O O8 0.533499 0.874449 0.046245
O O9 0.444065 0.479383 0.293918
O O10 0.208580 0.592973 0.185031
O O11 0.500000 0.059980 0.250000
O O12 0.711462 0.224519 0.378163
#
# Coordination Sequence:
#
# PCOD9265259 Si02
#       6
#     8   8   4   8   8   8
#     4  10  22  37  52  87 121 156 206 248 307 375
#     4   9  20  37  57  89 114 154 211 243 306 376
#     4  10  20  36  60  88 116 156 212 258 310 362
#     4  10  21  37  58  84 124 157 200 260 309 367
#     4  10  20  36  60  81 120 161 195 258 305 360
#     4  10  19  36  59  86 116 153 208 254 304 367
#
# _framework density 26.391836000000001
#
# number of rings (size 3 to 8) (size 9 to 14) (size 15 to 20)
#    0.000    2.182    0.909    1.636    0.000    4.364 
#    0.000    0.909    0.000    0.000    0.000    0.000 
#    0.000    0.000    0.000    0.000    0.000    0.000 
#
# Total GULP energy -122697.877303 kJ/mol
# GULP energy per Si atom -5577.176241 kJ/mol
# Density = 2.633177 g / cm^3
# Si number density = 26.391836 Si / 1000 Ang^3
#
#
#
# Elastic Constant Matrix: (Units=GPa)
#
#
# Indices 1 2 3 4 5 6 
#
# 1 235.9928 40.6346 63.4548 -0.0001 -52.3177 0.0000
# 2 40.6346 44.2284 21.2464 0.0000 -11.1146 0.0000
# 3 63.4548 21.2464 100.2305 0.0001 -29.1686 0.0001
# 4 -0.0001 0.0000 0.0001 22.3560 0.0000 13.3759
# 5 -52.3177 -11.1146 -29.1686 0.0000 50.0913 -0.0001
# 6 0.0000 0.0000 0.0001 13.3759 -0.0001 51.3572
#
#
#
# Elastic Compliance Matrix: (Units=1/GPa)
#
#
# Indices 1 2 3 4 5 6 
#
# 1 0.006470 -0.003830 -0.001884 0.000000 0.004810 0.000000
# 2 -0.003830 0.027817 -0.003419 0.000000 0.000181 0.000000
# 3 -0.001884 -0.003419 0.013366 0.000000 0.005057 0.000000
# 4 0.000000 0.000000 0.000000 0.052988 0.000000 -0.013801
# 5 0.004810 0.000181 0.005057 0.000000 0.027972 0.000000
# 6 0.000000 0.000000 0.000000 -0.013801 0.000000 0.023066
#
#
# Mechanical properties :
#
#
# Convention : Reuss Voigt Hill
#
# Bulk Modulus (GPa) = 34.02977 70.12482 52.07729
# Shear Modulus (GPa) = 27.81772 41.76861 34.79316
#
# Velocity S-wave (km/s) = 3.25010 3.98255 3.63482
# Velocity P-wave (km/s) = 5.19675 6.91201 6.11483
#
# Compressibility (1/GPa) = 0.02938603
#
# Stress axis : x y z
#
# Youngs Moduli (GPa) = 154.55875 35.94947 74.81559
#
# Poissons Ratio (x) = 0.13770 0.14097
# Poissons Ratio (y) = 0.59200 0.25579
# Poissons Ratio (z) = 0.29123 0.12291
#
# Static dielectric constant tensor:
#      x y z
#    x 2.131090 0.000000 -0.060560 
#    y 0.000000 2.255160 0.000000 
#    z -0.060560 0.000000 2.340660 
# 
# From -- ./inp_files/286175.got.cif
#   From: 2010.05.17/outbox.cif.g08.bks.cpg/sg15_144_cif.got.tgz:286175.got - 2010.06.03 18:47:42.
