data_PCOD9265377
_publ_section_title
;
Structure prediction by ZEFSAII (Michael W. Deem and Ramdas Pophale) SiO2 
 PCOD9265377
Probable space group: C 2/C
;
_chemical_formula_sum "Si O2"
_cell_formula_units_Z 40
_cell_length_a 28.009664
_cell_length_b 11.082260
_cell_length_c 11.452016
_cell_angle_alpha 90.000000
_cell_angle_beta 24.094283
_cell_angle_gamma 90.000000
_cell_volume 1451.219385
_symmetry_space_group_name_H-M "C 2/C"
_symmetry_group_IT_number 15
_symmetry_cell_setting 'monoclinic'
loop_
_space_group_symop_operation_xyz
x,y,z
-x,y,1/2-z
-x,-y,-z
x,-y,1/2+z
1/2+x,1/2+y,z
1/2-x,1/2+y,1/2-z
1/2-x,1/2-y,-z
1/2+x,1/2-y,1/2+z
loop_
_atom_site_type_symbol
_atom_site_label
_atom_site_fract_x
_atom_site_fract_y
_atom_site_fract_z
Si Si1 0.127609 0.439526 0.894319
Si Si2 0.130529 0.193415 0.625441
Si Si3 0.344800 0.029944 0.410453
Si Si4 0.477330 0.301402 0.682013
Si Si5 0.273758 0.698065 0.320072
O O1 0.265448 0.403228 0.588463
O O2 0.107109 0.500867 0.066545
O O3 0.100723 0.515324 0.836293
O O4 0.057954 0.316281 0.026080
O O5 0.172115 0.328847 0.566360
O O6 0.476847 0.340268 0.048924
O O7 0.123029 0.215314 0.502440
O O8 0.231873 0.946179 0.660059
O O9 0.500000 0.377758 0.750000
O O10 0.343521 0.256329 0.977576
O O11 0.250000 0.750000 0.500000
#
# Coordination Sequence:
#
# PCOD9265377 Si02
#       5
#     8   8   8   8   8
#     4  10  21  37  60  95 120 167 199 257 303 372
#     4  10  22  38  64  88 123 165 203 246 306 368
#     4  10  19  36  60  87 126 155 203 248 314 358
#     4  11  20  38  62  87 119 164 200 245 312 370
#     4  11  24  40  60  92 125 158 203 259 309 357
#
# _framework density 27.563029
#
# number of rings (size 3 to 8) (size 9 to 14) (size 15 to 20)
#    0.000    1.600    4.000    3.600    0.000    4.000 
#    0.000    0.000    0.000   28.800    0.000    0.000 
#    0.000    0.000    0.000    0.000    0.000    0.000 
#
# Total GULP energy -111374.069804 kJ/mol
# GULP energy per Si atom -5568.703490 kJ/mol
# Density = 2.750029 g / cm^3
# Si number density = 27.563029 Si / 1000 Ang^3
#
#
#
# Elastic Constant Matrix: (Units=GPa)
#
#
# Indices 1 2 3 4 5 6 
#
# 1 195.2675 20.8757 82.9152 0.0000 56.7348 0.0000
# 2 20.8757 57.3042 10.0530 0.0000 18.8799 0.0000
# 3 82.9152 10.0530 206.4461 0.0000 53.0668 0.0000
# 4 0.0000 0.0000 0.0000 27.5073 0.0000 13.0950
# 5 56.7348 18.8799 53.0668 0.0000 81.2339 0.0000
# 6 0.0000 0.0000 0.0000 13.0950 0.0000 18.0677
#
#
#
# Elastic Compliance Matrix: (Units=1/GPa)
#
#
# Indices 1 2 3 4 5 6 
#
# 1 0.007037 -0.001104 -0.001893 0.000000 -0.003422 0.000000
# 2 -0.001104 0.019082 0.000548 0.000000 -0.004022 0.000000
# 3 -0.001893 0.000548 0.006334 0.000000 -0.002943 0.000000
# 4 0.000000 0.000000 0.000000 0.055505 0.000000 -0.040229
# 5 -0.003422 -0.004022 -0.002943 0.000000 0.017557 0.000000
# 6 0.000000 0.000000 0.000000 -0.040229 0.000000 0.084505
#
#
# Mechanical properties :
#
#
# Convention : Reuss Voigt Hill
#
# Bulk Modulus (GPa) = 36.29158 76.30061 56.29609
# Shear Modulus (GPa) = 24.49742 48.37337 36.43540
#
# Velocity S-wave (km/s) = 2.98447 4.19383 3.63973
# Velocity P-wave (km/s) = 5.00714 7.15495 6.17514
#
# Compressibility (1/GPa) = 0.02755460
#
# Stress axis : x y z
#
# Youngs Moduli (GPa) = 142.10177 52.40580 157.87813
#
# Poissons Ratio (x) = 0.05787 0.29888
# Poissons Ratio (y) = 0.15691 -0.08653
# Poissons Ratio (z) = 0.26901 -0.02872
#
# Static dielectric constant tensor:
#      x y z
#    x 2.412080 0.000000 0.100250 
#    y 0.000000 2.153880 0.000000 
#    z 0.100250 0.000000 2.321590 
# 
# From -- ./inp_files/126580.got.cif
#   From: 2010.05.17/outbox.cif.g08.bks.cpg/sg15_64_cif.got.tgz:126580.got - 2010.06.03 18:47:42.
