data_PCOD9265199
_publ_section_title
;
Structure prediction by ZEFSAII (Michael W. Deem and Ramdas Pophale) SiO2 
 PCOD9265199
Probable space group: C 2/C
;
_chemical_formula_sum "Si O2"
_cell_formula_units_Z 60
_cell_length_a 24.380634
_cell_length_b 20.165134
_cell_length_c 12.604698
_cell_angle_alpha 90.000000
_cell_angle_beta 154.651546
_cell_angle_gamma 90.000000
_cell_volume 2653.055763
_symmetry_space_group_name_H-M "C 2/C"
_symmetry_group_IT_number 15
_symmetry_cell_setting 'monoclinic'
loop_
_space_group_symop_operation_xyz
x,y,z
-x,y,1/2-z
-x,-y,-z
x,-y,1/2+z
1/2+x,1/2+y,z
1/2-x,1/2+y,1/2-z
1/2-x,1/2-y,-z
1/2+x,1/2-y,1/2+z
loop_
_atom_site_type_symbol
_atom_site_label
_atom_site_fract_x
_atom_site_fract_y
_atom_site_fract_z
Si Si1 0.897183 0.183153 0.163059
Si Si2 0.000000 0.319685 0.750000
Si Si3 0.101494 0.719040 0.641260
Si Si4 0.719200 0.563203 0.243516
Si Si5 0.776201 0.586174 0.923894
Si Si6 0.334735 0.967027 0.746887
Si Si7 0.492257 0.419837 0.972493
Si Si8 0.408227 0.912852 0.251129
O O1 0.917724 0.221250 0.310544
O O2 0.918065 0.107133 0.238571
O O3 0.000000 0.197443 0.250000
O O4 0.752877 0.205508 0.880951
O O5 0.980110 0.278018 0.608399
O O6 0.873461 0.366445 0.533451
O O7 0.060567 0.655275 0.638413
O O8 0.747780 0.484903 0.318943
O O9 0.724989 0.563253 0.127695
O O10 0.591825 0.593999 0.070436
O O11 0.830607 0.597935 0.507778
O O12 0.633585 0.609898 0.704205
O O13 0.844284 0.571950 0.154261
O O14 0.328348 0.042036 0.694983
O O15 0.463284 0.955424 0.038943
O O16 0.500000 0.500000 0.000000
#
# Coordination Sequence:
#
# PCOD9265199 Si02
#       8
#     8   4   8   8   8   8   8   8
#     4  11  25  48  73  98 135 183 233 283 342 421
#     4  12  22  44  70 100 136 180 228 290 346 406
#     4  11  24  44  71 101 132 181 233 284 344 405
#     4  10  20  34  59  90 134 171 219 282 330 408
#     4  10  22  36  59  93 131 175 224 269 346 407
#     4  10  20  32  57  97 133 171 215 282 344 401
#     4  10  22  45  63  95 135 174 226 271 335 418
#     4  10  19  36  58  93 134 168 223 274 339 402
#
# _framework density 22.615431999999998
#
# number of rings (size 3 to 8) (size 9 to 14) (size 15 to 20)
#    0.000    1.600    2.667    2.000    3.733    2.667 
#    0.000    4.000    0.000    0.000    0.000    0.000 
#    0.000    0.000    0.000    0.000    0.000    0.000 
#
# Total GULP energy -167312.314085 kJ/mol
# GULP energy per Si atom -5577.077136 kJ/mol
# Density = 2.256396 g / cm^3
# Si number density = 22.615432 Si / 1000 Ang^3
#
#
#
# Elastic Constant Matrix: (Units=GPa)
#
#
# Indices 1 2 3 4 5 6 
#
# 1 114.2823 26.1046 19.7446 0.0000 5.9067 0.0000
# 2 26.1046 45.4943 26.9086 0.0000 -7.1394 0.0000
# 3 19.7446 26.9086 69.1848 0.0000 14.0639 0.0000
# 4 0.0000 0.0000 0.0000 23.6042 0.0000 -5.0952
# 5 5.9067 -7.1394 14.0639 0.0000 46.5889 0.0000
# 6 0.0000 0.0000 0.0000 -5.0952 0.0000 16.2626
#
#
#
# Elastic Compliance Matrix: (Units=1/GPa)
#
#
# Indices 1 2 3 4 5 6 
#
# 1 0.010299 -0.006224 -0.000063 0.000000 -0.002240 0.000000
# 2 -0.006224 0.035616 -0.014219 0.000000 0.010539 0.000000
# 3 -0.000063 -0.014219 0.021780 0.000000 -0.008746 0.000000
# 4 0.000000 0.000000 0.000000 0.045438 0.000000 0.014236
# 5 -0.002240 0.010539 -0.008746 0.000000 0.026004 0.000000
# 6 0.000000 0.000000 0.000000 0.014236 0.000000 0.065951
#
#
# Mechanical properties :
#
#
# Convention : Reuss Voigt Hill
#
# Bulk Modulus (GPa) = 37.47593 41.60856 39.54225
# Shear Modulus (GPa) = 19.60846 27.70471 23.65658
#
# Velocity S-wave (km/s) = 2.94775 3.50385 3.23776
# Velocity P-wave (km/s) = 5.30967 5.89979 5.61249
#
# Compressibility (1/GPa) = 0.02668379
#
# Stress axis : x y z
#
# Youngs Moduli (GPa) = 97.10107 28.07762 45.91369
#
# Poissons Ratio (x) = 0.17474 0.00290
# Poissons Ratio (y) = 0.60431 0.65282
# Poissons Ratio (z) = 0.00613 0.39922
#
# Static dielectric constant tensor:
#      x y z
#    x 1.883890 0.000000 0.045040 
#    y 0.000000 1.901040 0.000000 
#    z 0.045040 0.000000 1.898970 
# 
# From -- ./inp_files/119979.got.cif
#   From: 2010.05.17/outbox.cif.g08.bks.cpg/sg15_60_cif.got.tgz:119979.got - 2010.06.03 18:47:42.
