data_PCOD9265133
_publ_section_title
;
Structure prediction by ZEFSAII (Michael W. Deem and Ramdas Pophale) SiO2 
 PCOD9265133
Probable space group: C 2/C
;
_chemical_formula_sum "Si O2"
_cell_formula_units_Z 48
_cell_length_a 13.334552
_cell_length_b 12.591715
_cell_length_c 13.064885
_cell_angle_alpha 90.000000
_cell_angle_beta 92.985220
_cell_angle_gamma 90.000000
_cell_volume 2190.681139
_symmetry_space_group_name_H-M "C 2/C"
_symmetry_group_IT_number 15
_symmetry_cell_setting 'monoclinic'
loop_
_space_group_symop_operation_xyz
x,y,z
-x,y,1/2-z
-x,-y,-z
x,-y,1/2+z
1/2+x,1/2+y,z
1/2-x,1/2+y,1/2-z
1/2-x,1/2-y,-z
1/2+x,1/2-y,1/2+z
loop_
_atom_site_type_symbol
_atom_site_label
_atom_site_fract_x
_atom_site_fract_y
_atom_site_fract_z
Si Si1 0.395505 0.566634 0.492151
Si Si2 0.004350 0.272915 0.038916
Si Si3 0.416393 0.117441 0.156436
Si Si4 0.133446 0.628306 0.815111
Si Si5 0.664555 0.643133 0.592573
Si Si6 0.694938 0.672548 0.814754
O O1 0.500000 0.500000 0.500000
O O2 0.416256 0.678329 0.438802
O O3 0.325741 0.478922 0.439237
O O4 0.348790 0.601517 0.597285
O O5 0.913295 0.210365 0.976435
O O6 0.041133 0.357539 0.955510
O O7 0.966298 0.321422 0.142682
O O8 0.500000 0.136847 0.250000
O O9 0.328287 0.204427 0.164849
O O10 0.381098 0.997239 0.170465
O O11 0.220767 0.680078 0.892286
O O12 0.189588 0.647552 0.709545
O O13 0.631826 0.645201 0.709185
#
# Coordination Sequence:
#
# PCOD9265133 Si02
#       6
#     8   8   8   8   8   8
#     4   9  19  33  61  87 113 146 192 239 277 331
#     4  10  19  36  58  83 112 147 197 228 287 339
#     4  11  20  37  59  80 112 154 189 240 281 341
#     4  10  22  35  56  86 112 150 195 230 286 345
#     4   9  19  38  61  84 113 153 191 235 282 334
#     4   9  21  37  57  86 114 149 198 227 286 340
#
# _framework density 21.910992
#
# number of rings (size 3 to 8) (size 9 to 14) (size 15 to 20)
#    1.000    1.333    1.667    1.000    0.000    4.000 
#    0.000    5.000    0.000    0.000    0.000    0.000 
#    0.000    0.000    0.000    0.000    0.000    0.000 
#
# Total GULP energy -133631.371454 kJ/mol
# GULP energy per Si atom -5567.973811 kJ/mol
# Density = 2.186112 g / cm^3
# Si number density = 21.910992 Si / 1000 Ang^3
#
#
#
# Elastic Constant Matrix: (Units=GPa)
#
#
# Indices 1 2 3 4 5 6 
#
# 1 74.5374 18.0124 39.0087 0.0000 -32.5427 0.0000
# 2 18.0124 99.0763 75.7036 0.0000 -44.7240 0.0000
# 3 39.0087 75.7036 124.8459 0.0000 -50.2810 0.0000
# 4 0.0000 0.0000 0.0000 19.7054 0.0000 4.5097
# 5 -32.5427 -44.7240 -50.2810 0.0000 40.9513 0.0000
# 6 0.0000 0.0000 0.0000 4.5097 0.0000 18.1183
#
#
#
# Elastic Compliance Matrix: (Units=1/GPa)
#
#
# Indices 1 2 3 4 5 6 
#
# 1 0.023906 0.009487 -0.002766 0.000000 0.025962 0.000000
# 2 0.009487 0.026815 -0.008691 0.000000 0.026153 0.000000
# 3 -0.002766 -0.008691 0.018667 0.000000 0.011230 0.000000
# 4 0.000000 0.000000 0.000000 0.053813 0.000000 -0.013394
# 5 0.025962 0.026153 0.011230 0.000000 0.087401 0.000000
# 6 0.000000 0.000000 0.000000 -0.013394 0.000000 0.058527
#
#
# Mechanical properties :
#
#
# Convention : Reuss Voigt Hill
#
# Bulk Modulus (GPa) = 15.27947 62.65655 38.96801
# Shear Modulus (GPa) = 16.95569 26.80399 21.87984
#
# Velocity S-wave (km/s) = 2.78482 3.50138 3.16346
# Velocity P-wave (km/s) = 4.16280 6.70852 5.58270
#
# Compressibility (1/GPa) = 0.06544728
#
# Stress axis : x y z
#
# Youngs Moduli (GPa) = 41.83042 37.29221 53.57016
#
# Poissons Ratio (x) = -0.35379 0.14818
# Poissons Ratio (y) = -0.39684 0.46559
# Poissons Ratio (z) = 0.11571 0.32412
#
# Static dielectric constant tensor:
#      x y z
#    x 1.914160 0.000000 -0.040300 
#    y 0.000000 1.783910 0.000000 
#    z -0.040300 0.000000 2.082040 
# 
# From -- ./inp_files/152993.got.cif
#   From: 2010.05.17/outbox.cif.g08.bks.cpg/sg15_77_cif.got.tgz:152993.got - 2010.06.03 18:47:42.
