data_PCOD9265674
_publ_section_title
;
Structure prediction by ZEFSAII (Michael W. Deem and Ramdas Pophale) SiO2 
 PCOD9265674
Probable space group: C 2/C
;
_chemical_formula_sum "Si O2"
_cell_formula_units_Z 56
_cell_length_a 14.752244
_cell_length_b 19.265012
_cell_length_c 15.328522
_cell_angle_alpha 90.000000
_cell_angle_beta 141.263186
_cell_angle_gamma 90.000000
_cell_volume 2725.990438
_symmetry_space_group_name_H-M "C 2/C"
_symmetry_group_IT_number 15
_symmetry_cell_setting 'monoclinic'
loop_
_space_group_symop_operation_xyz
x,y,z
-x,y,1/2-z
-x,-y,-z
x,-y,1/2+z
1/2+x,1/2+y,z
1/2-x,1/2+y,1/2-z
1/2-x,1/2-y,-z
1/2+x,1/2-y,1/2+z
loop_
_atom_site_type_symbol
_atom_site_label
_atom_site_fract_x
_atom_site_fract_y
_atom_site_fract_z
Si Si1 0.753048 0.083493 0.853357
Si Si2 0.568027 0.789287 0.521927
Si Si3 0.138820 0.726398 0.796738
Si Si4 0.785478 0.830240 0.050616
Si Si5 0.578098 0.664014 0.662931
Si Si6 0.455467 0.939839 0.028626
Si Si7 0.338107 0.023251 0.089607
O O1 0.712047 0.152547 0.877561
O O2 0.872427 0.107487 0.872234
O O3 0.600824 0.074964 0.690798
O O4 0.770688 0.014012 0.923271
O O5 0.724278 0.776175 0.594783
O O6 0.432903 0.775776 0.354698
O O7 0.564161 0.736296 0.599531
O O8 0.574995 0.870372 0.547643
O O9 0.000000 0.742402 0.750000
O O10 0.807977 0.831885 0.172064
O O11 0.929776 0.847695 0.103286
O O12 0.750000 0.750000 0.000000
O O13 0.686481 0.896285 0.952033
O O14 0.337178 0.971981 0.005154
O O15 0.500000 0.000000 0.000000
O O16 0.500000 0.018705 0.250000
#
# Coordination Sequence:
#
# PCOD9265674 Si02
#       7
#     8   8   8   8   8   8   8
#     4   9  19  38  61  90 123 157 210 259 323 382
#     4  10  22  37  63  95 127 171 215 261 326 384
#     4  10  19  36  63  93 133 167 204 260 324 392
#     4  11  26  41  64  88 129 168 222 269 316 392
#     4  10  24  42  63  91 126 174 208 269 329 378
#     4  10  20  35  63  90 125 164 209 264 309 385
#     4  10  22  40  65  99 121 166 216 265 327 384
#
# _framework density 20.542992000000002
#
# number of rings (size 3 to 8) (size 9 to 14) (size 15 to 20)
#    0.000    2.000    0.000    3.429   10.000    2.857 
#    0.000    0.000   18.857    0.000    0.000    0.000 
#    0.000    0.000    0.000    0.000    0.000    0.000 
#
# Total GULP energy -155938.466581 kJ/mol
# GULP energy per Si atom -5569.230949 kJ/mol
# Density = 2.049624 g / cm^3
# Si number density = 20.542992 Si / 1000 Ang^3
#
#
#
# Elastic Constant Matrix: (Units=GPa)
#
#
# Indices 1 2 3 4 5 6 
#
# 1 90.8779 30.7974 14.9967 -0.0001 -13.5783 0.0000
# 2 30.7974 137.3744 33.4492 -0.0001 -19.8200 0.0000
# 3 14.9967 33.4492 40.3921 -0.0001 -9.7345 0.0001
# 4 -0.0001 -0.0001 -0.0001 28.8909 0.0000 0.9522
# 5 -13.5783 -19.8200 -9.7345 0.0000 27.4993 0.0000
# 6 0.0000 0.0000 0.0001 0.9522 0.0000 22.6011
#
#
#
# Elastic Compliance Matrix: (Units=1/GPa)
#
#
# Indices 1 2 3 4 5 6 
#
# 1 0.012570 -0.001655 -0.002282 0.000000 0.004205 0.000000
# 2 -0.001655 0.009817 -0.006567 0.000000 0.003934 0.000000
# 3 -0.002282 -0.006567 0.032394 0.000000 0.005607 0.000000
# 4 0.000000 0.000000 0.000000 0.034661 0.000000 -0.001460
# 5 0.004205 0.003934 0.005607 0.000000 0.043261 0.000000
# 6 0.000000 0.000000 0.000000 -0.001460 0.000000 0.044307
#
#
# Mechanical properties :
#
#
# Convention : Reuss Voigt Hill
#
# Bulk Modulus (GPa) = 29.61097 47.45898 38.53498
# Shear Modulus (GPa) = 23.89174 28.42500 26.15837
#
# Velocity S-wave (km/s) = 3.41400 3.72382 3.57227
# Velocity P-wave (km/s) = 5.47594 6.45303 5.98446
#
# Compressibility (1/GPa) = 0.03377126
#
# Stress axis : x y z
#
# Youngs Moduli (GPa) = 79.55576 101.86405 30.86963
#
# Poissons Ratio (x) = 0.16863 0.07046
# Poissons Ratio (y) = 0.13170 0.20272
# Poissons Ratio (z) = 0.18159 0.66894
#
# Static dielectric constant tensor:
#      x y z
#    x 1.813170 0.000000 -0.017560 
#    y 0.000000 1.703880 0.000000 
#    z -0.017560 0.000000 1.744550 
# 
# From -- ./inp_files/156228.got.cif
#   From: 2010.05.17/outbox.cif.g08.bks.cpg/sg15_79_cif.got.tgz:156228.got - 2010.06.03 18:47:42.
