data_PCOD9265449
_publ_section_title
;
Structure prediction by ZEFSAII (Michael W. Deem and Ramdas Pophale) SiO2 
 PCOD9265449
Probable space group: C 2/C
;
_chemical_formula_sum "Si O2"
_cell_formula_units_Z 56
_cell_length_a 19.598561
_cell_length_b 16.563038
_cell_length_c 9.100744
_cell_angle_alpha 90.000000
_cell_angle_beta 67.179040
_cell_angle_gamma 90.000000
_cell_volume 2722.956594
_symmetry_space_group_name_H-M "C 2/C"
_symmetry_group_IT_number 15
_symmetry_cell_setting 'monoclinic'
loop_
_space_group_symop_operation_xyz
x,y,z
-x,y,1/2-z
-x,-y,-z
x,-y,1/2+z
1/2+x,1/2+y,z
1/2-x,1/2+y,1/2-z
1/2-x,1/2-y,-z
1/2+x,1/2-y,1/2+z
loop_
_atom_site_type_symbol
_atom_site_label
_atom_site_fract_x
_atom_site_fract_y
_atom_site_fract_z
Si Si1 0.397701 0.430130 0.237431
Si Si2 0.236097 0.553344 0.947989
Si Si3 0.075698 0.900207 0.620167
Si Si4 0.832071 0.318768 0.159055
Si Si5 0.716917 0.189225 0.190888
Si Si6 0.748340 0.366363 0.514711
Si Si7 0.419516 0.740145 0.863498
O O1 0.309225 0.435032 0.287920
O O2 0.418269 0.513861 0.298954
O O3 0.412314 0.355113 0.334404
O O4 0.432937 0.414921 0.048118
O O5 0.168932 0.592355 0.912648
O O6 0.233385 0.461436 0.995962
O O7 0.244363 0.609457 0.084032
O O8 0.158044 0.859702 0.571923
O O9 0.000000 0.861579 0.750000
O O10 0.768812 0.267020 0.128317
O O11 0.800221 0.327232 0.347228
O O12 0.902103 0.267761 0.045136
O O13 0.724815 0.169322 0.354371
O O14 0.637349 0.214545 0.197701
O O15 0.500000 0.765722 0.750000
#
# Coordination Sequence:
#
# PCOD9265449 Si02
#       7
#     8   8   8   8   8   8   8
#     4  11  21  39  58  90 126 169 206 239 302 380
#     4  10  19  36  61  86 118 162 208 251 297 370
#     4  11  24  37  56  91 136 169 203 244 302 373
#     4  11  20  40  60  89 119 161 210 257 301 372
#     4  11  21  38  61  89 121 158 213 260 298 367
#     4  11  23  35  62  89 124 161 213 258 309 351
#     4  11  23  40  65  86 122 164 206 252 321 375
#
# _framework density 20.565881000000001
#
# number of rings (size 3 to 8) (size 9 to 14) (size 15 to 20)
#    0.000    1.143    4.286    3.000    6.000    1.143 
#    0.000    0.714    0.000   13.714    0.000    0.000 
#    0.000    0.000    0.000    0.000    0.000    0.000 
#
# Total GULP energy -156233.242349 kJ/mol
# GULP energy per Si atom -5579.758655 kJ/mol
# Density = 2.051907 g / cm^3
# Si number density = 20.565881 Si / 1000 Ang^3
#
#
#
# Elastic Constant Matrix: (Units=GPa)
#
#
# Indices 1 2 3 4 5 6 
#
# 1 62.9824 15.1173 36.2612 0.0000 -18.0374 0.0000
# 2 15.1173 75.4159 21.5567 0.0000 -0.6910 0.0000
# 3 36.2612 21.5567 162.7530 0.0000 -5.3781 0.0000
# 4 0.0000 0.0000 0.0000 31.7775 0.0000 5.1824
# 5 -18.0374 -0.6910 -5.3781 0.0000 30.8116 0.0000
# 6 0.0000 0.0000 0.0000 5.1824 0.0000 13.1822
#
#
#
# Elastic Compliance Matrix: (Units=1/GPa)
#
#
# Indices 1 2 3 4 5 6 
#
# 1 0.022636 -0.003221 -0.004205 0.000000 0.012445 0.000000
# 2 -0.003221 0.014240 -0.001227 0.000000 -0.001781 0.000000
# 3 -0.004205 -0.001227 0.007203 0.000000 -0.001232 0.000000
# 4 0.000000 0.000000 0.000000 0.033625 0.000000 -0.013219
# 5 0.012445 -0.001781 -0.001232 0.000000 0.039486 0.000000
# 6 0.000000 0.000000 0.000000 -0.013219 0.000000 0.081057
#
#
# Mechanical properties :
#
#
# Convention : Reuss Voigt Hill
#
# Bulk Modulus (GPa) = 37.35363 49.66906 43.51135
# Shear Modulus (GPa) = 22.27390 30.36867 26.32129
#
# Velocity S-wave (km/s) = 3.29454 3.84689 3.58138
# Velocity P-wave (km/s) = 5.71615 6.62835 6.18908
#
# Compressibility (1/GPa) = 0.02677116
#
# Stress axis : x y z
#
# Youngs Moduli (GPa) = 44.17760 70.22475 138.82997
#
# Poissons Ratio (x) = 0.22622 0.58383
# Poissons Ratio (y) = 0.14231 0.17038
# Poissons Ratio (z) = 0.18578 0.08618
#
# Static dielectric constant tensor:
#      x y z
#    x 1.782740 0.000000 -0.021490 
#    y 0.000000 1.778720 0.000000 
#    z -0.021490 0.000000 1.823410 
# 
# From -- ./inp_files/56472.got.cif
#   From: 2010.05.17/outbox.cif.g08.bks.cpg/sg15_29_cif.got.tgz:56472.got - 2010.06.03 18:47:42.
