data_PCOD9265190
_publ_section_title
;
Structure prediction by ZEFSAII (Michael W. Deem and Ramdas Pophale) SiO2 
 PCOD9265190
Probable space group: C 2/C
;
_chemical_formula_sum "Si O2"
_cell_formula_units_Z 52
_cell_length_a 17.028686
_cell_length_b 9.512145
_cell_length_c 29.225669
_cell_angle_alpha 90.000000
_cell_angle_beta 155.048440
_cell_angle_gamma 90.000000
_cell_volume 1997.027539
_symmetry_space_group_name_H-M "C 2/C"
_symmetry_group_IT_number 15
_symmetry_cell_setting 'monoclinic'
loop_
_space_group_symop_operation_xyz
x,y,z
-x,y,1/2-z
-x,-y,-z
x,-y,1/2+z
1/2+x,1/2+y,z
1/2-x,1/2+y,1/2-z
1/2-x,1/2-y,-z
1/2+x,1/2-y,1/2+z
loop_
_atom_site_type_symbol
_atom_site_label
_atom_site_fract_x
_atom_site_fract_y
_atom_site_fract_z
Si Si1 0.880724 0.360742 0.942584
Si Si2 0.414540 0.430988 0.410378
Si Si3 0.491888 0.944307 0.666135
Si Si4 0.000000 0.409788 0.250000
Si Si5 0.012065 0.124789 0.651146
Si Si6 0.446679 0.173872 0.871118
Si Si7 0.976775 0.140456 0.298837
O O1 0.899476 0.232058 0.917058
O O2 0.676974 0.407180 0.819388
O O3 0.000000 0.500000 0.000000
O O4 0.933249 0.298975 0.020157
O O5 0.500000 0.500000 0.500000
O O6 0.207747 0.503466 0.294214
O O7 0.517067 0.423949 0.416338
O O8 0.463161 0.784764 0.636333
O O9 0.391596 0.975118 0.661055
O O10 0.458175 0.045537 0.605615
O O11 0.962826 0.287757 0.191465
O O12 0.239004 0.126770 0.775671
O O13 0.924597 0.005936 0.637121
O O14 0.423635 0.301104 0.822341
#
# Coordination Sequence:
#
# PCOD9265190 Si02
#       7
#     8   8   8   4   8   8   8
#     4  12  20  33  60  93 121 153 188 245 308 359
#     4  11  22  35  61  96 124 150 192 251 315 359
#     4  10  21  39  60  82 122 164 195 246 293 360
#     4  10  22  44  60  76 118 170 214 226 292 354
#     4  11  19  35  59  89 122 149 197 254 305 342
#     4  10  19  36  58  90 122 151 186 244 313 348
#     4  11  22  38  59  88 118 158 201 242 289 366
#
# _framework density 26.038699999999999
#
# number of rings (size 3 to 8) (size 9 to 14) (size 15 to 20)
#    0.000    1.231    6.154    4.615    0.000    0.615 
#    0.000    3.077    0.000    0.923    0.000    0.000 
#    0.000    0.000    0.000    0.000    0.000    0.000 
#
# Total GULP energy -144739.495290 kJ/mol
# GULP energy per Si atom -5566.903665 kJ/mol
# Density = 2.597944 g / cm^3
# Si number density = 26.038700 Si / 1000 Ang^3
#
#
#
# Elastic Constant Matrix: (Units=GPa)
#
#
# Indices 1 2 3 4 5 6 
#
# 1 72.5368 35.1142 35.0793 0.0002 -35.2777 0.0001
# 2 35.1142 156.2403 31.2174 0.0002 -20.9009 0.0000
# 3 35.0793 31.2174 174.4449 0.0017 -25.2714 0.0007
# 4 0.0002 0.0002 0.0017 36.2565 0.0005 -29.8928
# 5 -35.2777 -20.9009 -25.2714 0.0005 48.0124 0.0002
# 6 0.0001 0.0000 0.0007 -29.8928 0.0002 27.8901
#
#
#
# Elastic Compliance Matrix: (Units=1/GPa)
#
#
# Indices 1 2 3 4 5 6 
#
# 1 0.023386 -0.002860 -0.002037 -0.000002 0.014865 -0.000003
# 2 -0.002860 0.007265 -0.000618 0.000000 0.000736 0.000000
# 3 -0.002037 -0.000618 0.006492 -0.000004 0.001651 -0.000004
# 4 -0.000002 0.000000 -0.000004 0.237118 -0.000007 0.254144
# 5 0.014865 0.000736 0.001651 -0.000007 0.032940 -0.000008
# 6 -0.000003 0.000000 -0.000004 0.254144 -0.000008 0.308247
#
#
# Mechanical properties :
#
#
# Convention : Reuss Voigt Hill
#
# Bulk Modulus (GPa) = 38.29791 67.33823 52.81807
# Shear Modulus (GPa) = 7.87175 42.55254 25.21215
#
# Velocity S-wave (km/s) = 1.74059 4.04691 3.11506
# Velocity P-wave (km/s) = 4.33354 6.91040 5.76772
#
# Compressibility (1/GPa) = 0.02611108
#
# Stress axis : x y z
#
# Youngs Moduli (GPa) = 42.76142 137.64305 154.03615
#
# Poissons Ratio (x) = 0.39368 0.31382
# Poissons Ratio (y) = 0.12230 0.09526
# Poissons Ratio (z) = 0.08712 0.08512
#
# Static dielectric constant tensor:
#      x y z
#    x 20.619250 -0.000010 3.782310 
#    y -0.000010 2.066190 0.000000 
#    z 3.782310 0.000000 2.819880 
# 
# From -- ./inp_files/166269.got.cif
#   From: 2010.05.17/outbox.cif.g08.bks.cpg/sg15_84_cif.got.tgz:166269.got - 2010.06.03 18:47:42.
