data_PCOD9265605
_publ_section_title
;
Structure prediction by ZEFSAII (Michael W. Deem and Ramdas Pophale) SiO2 
 PCOD9265605
Probable space group: C 2/C
;
_chemical_formula_sum "Si O2"
_cell_formula_units_Z 48
_cell_length_a 8.943370
_cell_length_b 30.939229
_cell_length_c 15.312531
_cell_angle_alpha 90.000000
_cell_angle_beta 32.329158
_cell_angle_gamma 90.000000
_cell_volume 2265.869022
_symmetry_space_group_name_H-M "C 2/C"
_symmetry_group_IT_number 15
_symmetry_cell_setting 'monoclinic'
loop_
_space_group_symop_operation_xyz
x,y,z
-x,y,1/2-z
-x,-y,-z
x,-y,1/2+z
1/2+x,1/2+y,z
1/2-x,1/2+y,1/2-z
1/2-x,1/2-y,-z
1/2+x,1/2-y,1/2+z
loop_
_atom_site_type_symbol
_atom_site_label
_atom_site_fract_x
_atom_site_fract_y
_atom_site_fract_z
Si Si1 0.325105 0.466622 0.928680
Si Si2 0.000142 0.781628 0.854651
Si Si3 0.358359 0.372164 0.914153
Si Si4 0.798155 0.637783 0.764943
Si Si5 0.153425 0.047359 0.767374
Si Si6 0.492609 0.720391 0.654795
O O1 0.500000 0.466009 0.750000
O O2 0.384696 0.419789 0.941671
O O3 0.466041 0.508839 0.901162
O O4 0.982937 0.467164 0.090969
O O5 0.987139 0.830348 0.896046
O O6 0.000000 0.784905 0.750000
O O7 0.254303 0.755910 0.766567
O O8 0.750000 0.750000 0.000000
O O9 0.500000 0.375345 0.750000
O O10 0.028638 0.360856 0.072404
O O11 0.657668 0.591213 0.821290
O O12 0.596617 0.678866 0.858197
O O13 0.000000 0.639334 0.750000
O O14 0.000000 0.056796 0.750000
O O15 0.500000 0.703978 0.750000
O O16 0.750000 0.750000 0.500000
#
# Coordination Sequence:
#
# PCOD9265605 Si02
#       6
#     8   8   8   8   8   8
#     4   9  17  33  58  94 124 157 208 255 305 366
#     4  11  21  39  65  87 119 168 210 248 300 378
#     4   9  20  36  64  88 117 161 219 244 298 367
#     4  11  24  43  65  90 126 171 210 252 312 381
#     4  10  19  36  62  93 124 162 207 258 307 367
#     4  12  27  42  61  95 130 157 204 263 320 366
#
# _framework density 21.183924999999999
#
# number of rings (size 3 to 8) (size 9 to 14) (size 15 to 20)
#    0.000    1.667    1.667    4.000    4.667    0.000 
#    6.000    3.333    0.000    1.000    0.000    0.000 
#    0.000    0.000    0.000    0.000    0.000    0.000 
#
# Total GULP energy -133683.035025 kJ/mol
# GULP energy per Si atom -5570.126459 kJ/mol
# Density = 2.113571 g / cm^3
# Si number density = 21.183925 Si / 1000 Ang^3
#
#
#
# Elastic Constant Matrix: (Units=GPa)
#
#
# Indices 1 2 3 4 5 6 
#
# 1 95.8615 62.4214 28.1988 0.0000 -8.2346 0.0000
# 2 62.4214 239.2972 52.7192 0.0000 -32.8280 0.0000
# 3 28.1988 52.7192 120.4662 0.0000 -26.6405 0.0000
# 4 0.0000 0.0000 0.0000 36.5802 0.0000 -15.1370
# 5 -8.2346 -32.8280 -26.6405 0.0000 34.2986 0.0000
# 6 0.0000 0.0000 0.0000 -15.1370 0.0000 36.7477
#
#
#
# Elastic Compliance Matrix: (Units=1/GPa)
#
#
# Indices 1 2 3 4 5 6 
#
# 1 0.012930 -0.003134 -0.001970 0.000000 -0.001426 0.000000
# 2 -0.003134 0.005749 -0.000883 0.000000 0.004063 0.000000
# 3 -0.001970 -0.000883 0.010694 0.000000 0.006988 0.000000
# 4 0.000000 0.000000 0.000000 0.032954 0.000000 0.013575
# 5 -0.001426 0.004063 0.006988 0.000000 0.038130 0.000000
# 6 0.000000 0.000000 0.000000 0.013575 0.000000 0.032804
#
#
# Mechanical properties :
#
#
# Convention : Reuss Voigt Hill
#
# Bulk Modulus (GPa) = 57.48311 82.47819 69.98065
# Shear Modulus (GPa) = 33.10466 42.34435 37.72451
#
# Velocity S-wave (km/s) = 3.95742 4.47575 4.22454
# Velocity P-wave (km/s) = 6.93367 8.10732 7.54335
#
# Compressibility (1/GPa) = 0.01739641
#
# Stress axis : x y z
#
# Youngs Moduli (GPa) = 77.34101 173.95643 93.50836
#
# Poissons Ratio (x) = 0.54524 0.18424
# Poissons Ratio (y) = 0.24241 0.08261
# Poissons Ratio (z) = 0.15239 0.15368
#
# Static dielectric constant tensor:
#      x y z
#    x 1.776780 0.000000 0.051350 
#    y 0.000000 1.816480 0.000000 
#    z 0.051350 0.000000 1.794470 
# 
# From -- ./inp_files/194149.got.cif
#   From: 2010.05.17/outbox.cif.g08.bks.cpg/sg15_98_cif.got.tgz:194149.got - 2010.06.03 18:47:42.
