data_PCOD9265326
_publ_section_title
;
Structure prediction by ZEFSAII (Michael W. Deem and Ramdas Pophale) SiO2 
 PCOD9265326
Probable space group: C 2/C
;
_chemical_formula_sum "Si O2"
_cell_formula_units_Z 48
_cell_length_a 22.384476
_cell_length_b 26.407162
_cell_length_c 13.101966
_cell_angle_alpha 90.000000
_cell_angle_beta 18.833503
_cell_angle_gamma 90.000000
_cell_volume 2500.140771
_symmetry_space_group_name_H-M "C 2/C"
_symmetry_group_IT_number 15
_symmetry_cell_setting 'monoclinic'
loop_
_space_group_symop_operation_xyz
x,y,z
-x,y,1/2-z
-x,-y,-z
x,-y,1/2+z
1/2+x,1/2+y,z
1/2-x,1/2+y,1/2-z
1/2-x,1/2-y,-z
1/2+x,1/2-y,1/2+z
loop_
_atom_site_type_symbol
_atom_site_label
_atom_site_fract_x
_atom_site_fract_y
_atom_site_fract_z
Si Si1 0.342059 0.494407 0.172739
Si Si2 0.500000 0.580657 0.250000
Si Si3 0.921785 0.738169 0.646211
Si Si4 0.500000 0.071790 0.250000
Si Si5 0.606556 0.120785 0.863255
Si Si6 0.632775 0.908712 0.936231
Si Si7 0.315465 0.793607 0.622182
O O1 0.275736 0.545885 0.224571
O O2 0.167399 0.466113 0.504797
O O3 0.500000 0.500000 0.000000
O O4 0.419503 0.455532 0.965618
O O5 0.325454 0.612309 0.493563
O O6 0.923716 0.679790 0.609193
O O7 0.864833 0.772229 0.642459
O O8 0.112373 0.741945 0.401818
O O9 0.750000 0.750000 0.000000
O O10 0.450303 0.104313 0.430631
O O11 0.491029 0.088569 0.966256
O O12 0.717781 0.852148 0.795668
O O13 0.500000 0.910174 0.250000
O O14 0.500000 0.794411 0.250000
#
# Coordination Sequence:
#
# PCOD9265326 Si02
#       7
#     8   4   8   4   8   8   8
#     4  11  23  38  59  88 120 161 210 250 309 367
#     4  10  24  34  56  92 110 158 208 250 290 364
#     4   9  17  31  56  87 116 147 198 252 312 353
#     4  10  24  42  58  84 126 170 196 258 316 372
#     4  10  22  39  61  87 124 162 202 255 319 367
#     4  10  19  36  60  83 119 159 200 255 310 362
#     4   8  16  29  50  84 109 148 186 244 303 351
#
# _framework density 19.198919
#
# number of rings (size 3 to 8) (size 9 to 14) (size 15 to 20)
#    0.000    2.333    0.833    2.000    5.833    1.333 
#    3.000    0.000    0.000    5.000    0.000    0.000 
#    0.000    0.000    0.000    0.000    0.000    0.000 
#
# Total GULP energy -133727.746603 kJ/mol
# GULP energy per Si atom -5571.989442 kJ/mol
# Density = 1.915522 g / cm^3
# Si number density = 19.198919 Si / 1000 Ang^3
#
#
#
# Elastic Constant Matrix: (Units=GPa)
#
#
# Indices 1 2 3 4 5 6 
#
# 1 110.7390 27.5531 22.2306 0.0120 -15.0071 0.0018
# 2 27.5531 51.2235 13.7609 0.1029 -1.4526 -0.0239
# 3 22.2306 13.7609 49.5498 0.1740 -6.2932 -0.0519
# 4 0.0120 0.1029 0.1740 7.0325 0.0005 -7.2696
# 5 -15.0071 -1.4526 -6.2932 0.0005 17.3784 0.0005
# 6 0.0018 -0.0239 -0.0519 -7.2696 0.0005 29.1158
#
#
#
# Elastic Compliance Matrix: (Units=1/GPa)
#
#
# Indices 1 2 3 4 5 6 
#
# 1 0.012200 -0.005559 -0.002779 0.000159 0.009064 0.000029
# 2 -0.005559 0.023632 -0.004640 -0.000282 -0.004505 -0.000059
# 3 -0.002779 -0.004640 0.023443 -0.000632 0.005702 -0.000120
# 4 0.000159 -0.000282 -0.000632 0.191688 -0.000122 0.047859
# 5 0.009064 -0.004505 0.005702 -0.000122 0.067058 -0.000026
# 6 0.000029 -0.000059 -0.000120 0.047859 -0.000026 0.046295
#
#
# Mechanical properties :
#
#
# Convention : Reuss Voigt Hill
#
# Bulk Modulus (GPa) = 30.01323 37.62241 33.81782
# Shear Modulus (GPa) = 12.45708 20.56984 16.51346
#
# Velocity S-wave (km/s) = 2.55000 3.27679 2.93597
# Velocity P-wave (km/s) = 4.93323 5.82710 5.39869
#
# Compressibility (1/GPa) = 0.03331864
#
# Stress axis : x y z
#
# Youngs Moduli (GPa) = 81.97045 42.31592 42.65585
#
# Poissons Ratio (x) = 0.23523 0.11854
# Poissons Ratio (y) = 0.45566 0.19794
# Poissons Ratio (z) = 0.22779 0.19636
#
# Static dielectric constant tensor:
#      x y z
#    x 1.729420 -0.000260 -0.021340 
#    y -0.000260 1.671450 0.000020 
#    z -0.021340 0.000020 1.685610 
# 
# From -- ./inp_files/80565.got.cif
#   From: 2010.05.17/outbox.cif.g08.bks.cpg/sg15_41_cif.got.tgz:80565.got - 2010.06.03 18:47:42.
