data_PCOD9265764
_publ_section_title
;
Structure prediction by ZEFSAII (Michael W. Deem and Ramdas Pophale) SiO2 
 PCOD9265764
Probable space group: C 2/C
;
_chemical_formula_sum "Si O2"
_cell_formula_units_Z 48
_cell_length_a 11.600520
_cell_length_b 13.636984
_cell_length_c 19.345834
_cell_angle_alpha 90.000000
_cell_angle_beta 129.578026
_cell_angle_gamma 90.000000
_cell_volume 2358.854151
_symmetry_space_group_name_H-M "C 2/C"
_symmetry_group_IT_number 15
_symmetry_cell_setting 'monoclinic'
loop_
_space_group_symop_operation_xyz
x,y,z
-x,y,1/2-z
-x,-y,-z
x,-y,1/2+z
1/2+x,1/2+y,z
1/2-x,1/2+y,1/2-z
1/2-x,1/2-y,-z
1/2+x,1/2-y,1/2+z
loop_
_atom_site_type_symbol
_atom_site_label
_atom_site_fract_x
_atom_site_fract_y
_atom_site_fract_z
Si Si1 0.075086 0.252731 0.559056
Si Si2 0.418831 0.711685 0.790600
Si Si3 0.168599 0.677500 0.912473
Si Si4 0.012644 0.991508 0.831819
Si Si5 0.590984 0.705235 0.144913
Si Si6 0.848438 0.454438 0.971224
O O1 0.009166 0.248211 0.610077
O O2 0.208589 0.172808 0.600153
O O3 0.159021 0.355730 0.578002
O O4 0.957917 0.236626 0.451859
O O5 0.500000 0.735287 0.750000
O O6 0.422566 0.593193 0.798258
O O7 0.257977 0.762491 0.723844
O O8 0.014036 0.732625 0.842895
O O9 0.250000 0.750000 0.000000
O O10 0.136642 0.579834 0.943414
O O11 0.190923 0.010471 0.908528
O O12 0.000000 0.949331 0.750000
O O13 0.951608 0.908420 0.859930
O O14 0.000000 0.500000 0.000000
#
# Coordination Sequence:
#
# PCOD9265764 Si02
#       6
#     8   8   8   8   8   8
#     4  10  20  42  66  89 125 169 209 262 320 381
#     4  11  27  40  58  95 129 168 218 263 333 372
#     4   8  16  34  63  93 109 154 213 250 308 370
#     4  11  22  38  63  92 126 167 216 260 317 383
#     4  10  20  42  65  88 127 163 215 263 312 390
#     4  10  19  36  65  99 120 157 214 261 316 392
#
# _framework density 20.348863000000001
#
# number of rings (size 3 to 8) (size 9 to 14) (size 15 to 20)
#    0.000    2.333    5.000    1.000    9.333    1.333 
#    0.000    0.000    0.000    0.000    0.000    0.000 
#    0.000    0.000    0.000    0.000    0.000    0.000 
#
# Total GULP energy -133612.724345 kJ/mol
# GULP energy per Si atom -5567.196848 kJ/mol
# Density = 2.030255 g / cm^3
# Si number density = 20.348863 Si / 1000 Ang^3
#
#
#
# Elastic Constant Matrix: (Units=GPa)
#
#
# Indices 1 2 3 4 5 6 
#
# 1 82.2028 33.3965 32.1943 0.0000 2.1301 0.0000
# 2 33.3965 31.1544 15.9615 0.0000 9.8241 0.0000
# 3 32.1943 15.9615 66.7427 0.0000 -1.4212 0.0000
# 4 0.0000 0.0000 0.0000 17.3164 0.0000 3.7612
# 5 2.1301 9.8241 -1.4212 0.0000 44.2802 0.0000
# 6 0.0000 0.0000 0.0000 3.7612 0.0000 24.8001
#
#
#
# Elastic Compliance Matrix: (Units=1/GPa)
#
#
# Indices 1 2 3 4 5 6 
#
# 1 0.024157 -0.024203 -0.005779 0.000000 0.004022 0.000000
# 2 -0.024203 0.064246 -0.003971 0.000000 -0.013217 0.000000
# 3 -0.005779 -0.003971 0.018757 0.000000 0.001761 0.000000
# 4 0.000000 0.000000 0.000000 0.059716 0.000000 -0.009057
# 5 0.004022 -0.013217 0.001761 0.000000 0.025379 0.000000
# 6 0.000000 0.000000 0.000000 -0.009057 0.000000 0.041696
#
#
# Mechanical properties :
#
#
# Convention : Reuss Voigt Hill
#
# Bulk Modulus (GPa) = 25.47494 38.13385 31.80440
# Shear Modulus (GPa) = 15.87598 23.84917 19.86258
#
# Velocity S-wave (km/s) = 2.79622 3.42718 3.12765
# Velocity P-wave (km/s) = 4.79285 5.86869 5.35784
#
# Compressibility (1/GPa) = 0.03925426
#
# Stress axis : x y z
#
# Youngs Moduli (GPa) = 41.39581 15.56529 53.31207
#
# Poissons Ratio (x) = 0.37673 0.30807
# Poissons Ratio (y) = 1.00192 0.21170
# Poissons Ratio (z) = 0.23921 0.06181
#
# Static dielectric constant tensor:
#      x y z
#    x 1.842690 0.000000 0.001970 
#    y 0.000000 1.788970 0.000000 
#    z 0.001970 0.000000 1.783410 
# 
# From -- ./inp_files/237753.got.cif
#   From: 2010.05.17/outbox.cif.g08.bks.cpg/sg15_119_cif.got.tgz:237753.got - 2010.06.03 18:47:42.
