data_PCOD9265161
_publ_section_title
;
Structure prediction by ZEFSAII (Michael W. Deem and Ramdas Pophale) SiO2 
 PCOD9265161
Probable space group: C 2/C
;
_chemical_formula_sum "Si O2"
_cell_formula_units_Z 44
_cell_length_a 5.506025
_cell_length_b 21.385534
_cell_length_c 16.263410
_cell_angle_alpha 90.000000
_cell_angle_beta 65.436587
_cell_angle_gamma 90.000000
_cell_volume 1741.700296
_symmetry_space_group_name_H-M "C 2/C"
_symmetry_group_IT_number 15
_symmetry_cell_setting 'monoclinic'
loop_
_space_group_symop_operation_xyz
x,y,z
-x,y,1/2-z
-x,-y,-z
x,-y,1/2+z
1/2+x,1/2+y,z
1/2-x,1/2+y,1/2-z
1/2-x,1/2-y,-z
1/2+x,1/2-y,1/2+z
loop_
_atom_site_type_symbol
_atom_site_label
_atom_site_fract_x
_atom_site_fract_y
_atom_site_fract_z
Si Si1 0.000000 0.000609 0.750000
Si Si2 0.892992 0.097361 0.501453
Si Si3 0.811401 0.573203 0.566764
Si Si4 0.309064 0.622280 0.203808
Si Si5 0.737202 0.774809 0.094168
Si Si6 0.326881 0.706343 0.849545
O O1 0.807647 0.040456 0.835721
O O2 0.824527 0.952937 0.719579
O O3 0.625401 0.063151 0.508439
O O4 0.787409 0.150386 0.580090
O O5 0.114780 0.059302 0.519334
O O6 0.044233 0.129240 0.403889
O O7 0.785312 0.648538 0.582483
O O8 0.500000 0.646865 0.250000
O O9 0.000000 0.642327 0.250000
O O10 0.428844 0.762831 0.158052
O O11 0.978702 0.753449 0.118868
O O12 0.750000 0.750000 0.000000
O O13 0.500000 0.681371 0.750000
#
# Coordination Sequence:
#
# PCOD9265161 Si02
#       6
#     4   8   8   8   8   8
#     4  10  24  36  58  86 116 146 190 246 280 326
#     4  10  22  39  59  81 113 157 185 230 296 340
#     4  10  21  35  60  85 114 147 186 235 291 342
#     4  10  23  40  55  80 116 152 195 236 280 334
#     4  10  21  37  59  85 115 147 188 235 279 343
#     4  10  19  36  58  86 116 144 181 235 289 336
#
# _framework density 25.262671999999998
#
# number of rings (size 3 to 8) (size 9 to 14) (size 15 to 20)
#    0.545    1.455    0.909    2.182    2.545    1.455 
#    0.000    2.727    0.000    0.000    0.000    0.000 
#    0.000    0.000    0.000    0.000    0.000    0.000 
#
# Total GULP energy -122930.425800 kJ/mol
# GULP energy per Si atom -5587.746627 kJ/mol
# Density = 2.520517 g / cm^3
# Si number density = 25.262672 Si / 1000 Ang^3
#
#
#
# Elastic Constant Matrix: (Units=GPa)
#
#
# Indices 1 2 3 4 5 6 
#
# 1 274.1709 45.0730 72.3274 0.0000 -25.1480 0.0000
# 2 45.0730 67.8026 4.3250 0.0000 1.4072 0.0000
# 3 72.3274 4.3250 96.9494 0.0000 -15.2319 0.0000
# 4 0.0000 0.0000 0.0000 31.2209 0.0000 9.1124
# 5 -25.1480 1.4072 -15.2319 0.0000 40.4598 0.0000
# 6 0.0000 0.0000 0.0000 9.1124 0.0000 24.9447
#
#
#
# Elastic Compliance Matrix: (Units=1/GPa)
#
#
# Indices 1 2 3 4 5 6 
#
# 1 0.005310 -0.003351 -0.003481 0.000000 0.002106 0.000000
# 2 -0.003351 0.016931 0.001408 0.000000 -0.002142 0.000000
# 3 -0.003481 0.001408 0.013287 0.000000 0.002790 0.000000
# 4 0.000000 0.000000 0.000000 0.035852 0.000000 -0.013097
# 5 0.002106 -0.002142 0.002790 0.000000 0.027150 0.000000
# 6 0.000000 0.000000 0.000000 -0.013097 0.000000 0.044873
#
#
# Mechanical properties :
#
#
# Convention : Reuss Voigt Hill
#
# Bulk Modulus (GPa) = 40.51801 75.81928 58.16865
# Shear Modulus (GPa) = 30.77344 40.47158 35.62251
#
# Velocity S-wave (km/s) = 3.49397 4.00688 3.75918
# Velocity P-wave (km/s) = 5.68776 7.17526 6.47437
#
# Compressibility (1/GPa) = 0.02468039
#
# Stress axis : x y z
#
# Youngs Moduli (GPa) = 188.33095 59.06234 75.26207
#
# Poissons Ratio (x) = 0.19795 0.26197
# Poissons Ratio (y) = 0.63119 -0.10601
# Poissons Ratio (z) = 0.65555 -0.08319
#
# Static dielectric constant tensor:
#      x y z
#    x 2.039590 0.000000 -0.011670 
#    y 0.000000 2.046710 0.000000 
#    z -0.011670 0.000000 1.934300 
# 
# From -- ./inp_files/129722.got.cif
#   From: 2010.05.17/outbox.cif.g08.bks.cpg/sg15_65_cif.got.tgz:129722.got - 2010.06.03 18:47:42.
