data_PCOD9265513
_publ_section_title
;
Structure prediction by ZEFSAII (Michael W. Deem and Ramdas Pophale) SiO2 
 PCOD9265513
Probable space group: C 2/C
;
_chemical_formula_sum "Si O2"
_cell_formula_units_Z 44
_cell_length_a 6.794113
_cell_length_b 23.119586
_cell_length_c 16.278716
_cell_angle_alpha 90.000000
_cell_angle_beta 55.318839
_cell_angle_gamma 90.000000
_cell_volume 2102.711652
_symmetry_space_group_name_H-M "C 2/C"
_symmetry_group_IT_number 15
_symmetry_cell_setting 'monoclinic'
loop_
_space_group_symop_operation_xyz
x,y,z
-x,y,1/2-z
-x,-y,-z
x,-y,1/2+z
1/2+x,1/2+y,z
1/2-x,1/2+y,1/2-z
1/2-x,1/2-y,-z
1/2+x,1/2-y,1/2+z
loop_
_atom_site_type_symbol
_atom_site_label
_atom_site_fract_x
_atom_site_fract_y
_atom_site_fract_z
Si Si1 0.500000 0.449298 0.750000
Si Si2 0.904640 0.094971 0.020019
Si Si3 0.274740 0.515573 0.656638
Si Si4 0.956891 0.788903 0.988832
Si Si5 0.517832 0.735363 0.656144
Si Si6 0.571788 0.136096 0.328158
O O1 0.440671 0.491280 0.689379
O O2 0.725075 0.406632 0.690517
O O3 0.025609 0.144960 0.048057
O O4 0.798969 0.036596 0.085378
O O5 0.656776 0.127737 0.057622
O O6 0.100745 0.072075 0.910383
O O7 0.000000 0.523333 0.750000
O O8 0.937255 0.795965 0.092501
O O9 0.750000 0.750000 0.000000
O O10 0.206106 0.755569 0.915751
O O11 0.500000 0.706640 0.750000
O O12 0.369991 0.796035 0.690428
O O13 0.500000 0.121220 0.250000
#
# Coordination Sequence:
#
# PCOD9265513 Si02
#       6
#     4   8   8   8   8   8
#     4  12  20  34  64  92 112 160 222 248 302 388
#     4  10  21  43  61  83 133 161 194 275 312 359
#     4  11  23  42  59  89 123 161 214 261 313 372
#     4  10  22  40  62  96 122 164 215 251 315 394
#     4   9  21  39  60  88 131 160 199 266 314 366
#     4  10  19  36  61  92 122 156 208 262 305 368
#
# _framework density 20.925360000000001
#
# number of rings (size 3 to 8) (size 9 to 14) (size 15 to 20)
#    0.000    1.818    3.636    0.000    2.545    1.455 
#    4.909    0.000    0.000    0.000    0.000    0.000 
#    0.000    0.000    0.000    0.000    0.000    0.000 
#
# Total GULP energy -122558.623040 kJ/mol
# GULP energy per Si atom -5570.846502 kJ/mol
# Density = 2.087773 g / cm^3
# Si number density = 20.925360 Si / 1000 Ang^3
#
#
#
# Elastic Constant Matrix: (Units=GPa)
#
#
# Indices 1 2 3 4 5 6 
#
# 1 85.1164 34.2467 36.5401 0.0000 -11.2644 0.0000
# 2 34.2467 81.4913 21.0904 0.0000 -21.2074 0.0000
# 3 36.5401 21.0904 97.1325 0.0000 -11.9550 0.0000
# 4 0.0000 0.0000 0.0000 26.9437 0.0000 -0.2136
# 5 -11.2644 -21.2074 -11.9550 0.0000 28.4523 0.0000
# 6 0.0000 0.0000 0.0000 -0.2136 0.0000 16.6269
#
#
#
# Elastic Compliance Matrix: (Units=1/GPa)
#
#
# Indices 1 2 3 4 5 6 
#
# 1 0.016036 -0.005417 -0.004821 0.000000 0.000285 0.000000
# 2 -0.005417 0.017437 -0.000435 0.000000 0.010669 0.000000
# 3 -0.004821 -0.000435 0.012579 0.000000 0.003052 0.000000
# 4 0.000000 0.000000 0.000000 0.037118 0.000000 0.000477
# 5 0.000285 0.010669 0.003052 0.000000 0.044495 0.000000
# 6 0.000000 0.000000 0.000000 0.000477 0.000000 0.060150
#
#
# Mechanical properties :
#
#
# Convention : Reuss Voigt Hill
#
# Bulk Modulus (GPa) = 40.47731 49.72162 45.09947
# Shear Modulus (GPa) = 22.99954 25.86211 24.43083
#
# Velocity S-wave (km/s) = 3.31890 3.51938 3.42061
# Velocity P-wave (km/s) = 5.83716 6.35041 6.09919
#
# Compressibility (1/GPa) = 0.02470520
#
# Stress axis : x y z
#
# Youngs Moduli (GPa) = 62.36133 57.34940 79.49753
#
# Poissons Ratio (x) = 0.31066 0.38327
# Poissons Ratio (y) = 0.33781 0.03459
# Poissons Ratio (z) = 0.30065 0.02495
#
# Static dielectric constant tensor:
#      x y z
#    x 1.621150 0.000000 -0.039490 
#    y 0.000000 1.811960 0.000000 
#    z -0.039490 0.000000 1.846980 
# 
# From -- ./inp_files/129980.got.cif
#   From: 2010.05.17/outbox.cif.g08.bks.cpg/sg15_65_cif.got.tgz:129980.got - 2010.06.03 18:47:42.
