data_PCOD9265717
_publ_section_title
;
Structure prediction by ZEFSAII (Michael W. Deem and Ramdas Pophale) SiO2 
 PCOD9265717
Probable space group: C 2/C
;
_chemical_formula_sum "Si O2"
_cell_formula_units_Z 56
_cell_length_a 19.944402
_cell_length_b 11.125687
_cell_length_c 14.253604
_cell_angle_alpha 90.000000
_cell_angle_beta 45.985605
_cell_angle_gamma 90.000000
_cell_volume 2274.580130
_symmetry_space_group_name_H-M "C 2/C"
_symmetry_group_IT_number 15
_symmetry_cell_setting 'monoclinic'
loop_
_space_group_symop_operation_xyz
x,y,z
-x,y,1/2-z
-x,-y,-z
x,-y,1/2+z
1/2+x,1/2+y,z
1/2-x,1/2+y,1/2-z
1/2-x,1/2-y,-z
1/2+x,1/2-y,1/2+z
loop_
_atom_site_type_symbol
_atom_site_label
_atom_site_fract_x
_atom_site_fract_y
_atom_site_fract_z
Si Si1 0.095040 0.915141 0.194434
Si Si2 0.273513 0.615153 0.406299
Si Si3 0.949862 0.767719 0.079732
Si Si4 0.318115 0.089998 0.264251
Si Si5 0.103637 0.530278 0.110917
Si Si6 0.714043 0.351375 0.387639
Si Si7 0.640767 0.268662 0.962593
O O1 0.068070 0.813974 0.296260
O O2 0.133915 0.852418 0.062763
O O3 0.000000 0.976431 0.250000
O O4 0.165588 0.001063 0.180805
O O5 0.163908 0.581950 0.516910
O O6 0.306720 0.626646 0.481819
O O7 0.279227 0.734148 0.339740
O O8 0.910667 0.631034 0.119603
O O9 0.882876 0.833590 0.071853
O O10 0.059461 0.792221 0.965737
O O11 0.343459 0.075845 0.348039
O O12 0.243721 0.198677 0.327829
O O13 0.269735 0.963239 0.288454
O O14 0.116106 0.635898 0.023415
O O15 0.000000 0.505761 0.250000
#
# Coordination Sequence:
#
# PCOD9265717 Si02
#       7
#     8   8   8   8   8   8   8
#     4  10  19  36  64  92 117 157 209 255 301 354
#     4  10  22  43  61  83 128 167 204 237 305 381
#     4  11  23  37  62  96 122 149 212 264 296 358
#     4  11  21  39  62  86 127 160 201 253 306 358
#     4  11  18  35  66  93 115 156 207 251 295 356
#     4  10  24  42  60  86 127 168 201 245 306 371
#     4  11  19  37  64  93 120 157 202 258 309 348
#
# _framework density 24.619928000000002
#
# number of rings (size 3 to 8) (size 9 to 14) (size 15 to 20)
#    0.000    1.429    5.714    1.714    2.000    0.571 
#    0.000   10.000    0.000    0.000    0.000    0.000 
#    0.000    0.000    0.000    0.000    0.000    0.000 
#
# Total GULP energy -156428.738522 kJ/mol
# GULP energy per Si atom -5586.740661 kJ/mol
# Density = 2.456389 g / cm^3
# Si number density = 24.619928 Si / 1000 Ang^3
#
#
#
# Elastic Constant Matrix: (Units=GPa)
#
#
# Indices 1 2 3 4 5 6 
#
# 1 155.8419 20.1529 22.4009 0.0000 -19.4389 0.0000
# 2 20.1529 81.1167 17.0539 0.0000 -20.6628 0.0000
# 3 22.4009 17.0539 62.3974 0.0000 -22.1340 0.0000
# 4 0.0000 0.0000 0.0000 -12.8209 0.0000 -14.5443
# 5 -19.4389 -20.6628 -22.1340 0.0000 44.6164 0.0000
# 6 0.0000 0.0000 0.0000 -14.5443 0.0000 22.8180
#
#
#
# Elastic Compliance Matrix: (Units=1/GPa)
#
#
# Indices 1 2 3 4 5 6 
#
# 1 0.006996 -0.000937 -0.001612 0.000000 0.001814 0.000000
# 2 -0.000937 0.014280 -0.001657 0.000000 0.005383 0.000000
# 3 -0.001612 -0.001657 0.020068 0.000000 0.008486 0.000000
# 4 0.000000 0.000000 0.000000 -0.045266 0.000000 -0.028853
# 5 0.001814 0.005383 0.008486 0.000000 0.029907 0.000000
# 6 0.000000 0.000000 0.000000 -0.028853 0.000000 0.025434
#
#
# Mechanical properties :
#
#
# Convention : Reuss Voigt Hill
#
# Bulk Modulus (GPa) = 30.36495 46.50793 38.43644
# Shear Modulus (GPa) = 70.61321 26.90590 48.75956
#
# Velocity S-wave (km/s) = 5.36130 3.30942 4.45510
# Velocity P-wave (km/s) = 7.11934 5.79088 6.48920
#
# Compressibility (1/GPa) = 0.03293271
#
# Stress axis : x y z
#
# Youngs Moduli (GPa) = 142.93982 70.02623 49.83037
#
# Poissons Ratio (x) = 0.06562 0.08032
# Poissons Ratio (y) = 0.13394 0.08257
# Poissons Ratio (z) = 0.23039 0.11603
#
# Static dielectric constant tensor:
#      x y z
#    x 1.944170 0.000000 -0.027250 
#    y 0.000000 2.040680 0.000000 
#    z -0.027250 0.000000 1.980460 
# 
# From -- ./inp_files/210550.got.cif
#   From: 2010.05.17/outbox.cif.g08.bks.cpg/sg15_106_cif.got.tgz:210550.got - 2010.06.03 18:47:42.
