data_PCOD9265402
_publ_section_title
;
Structure prediction by ZEFSAII (Michael W. Deem and Ramdas Pophale) SiO2 
 PCOD9265402
Probable space group: C 2/C
;
_chemical_formula_sum "Si O2"
_cell_formula_units_Z 40
_cell_length_a 11.345830
_cell_length_b 24.299437
_cell_length_c 6.062217
_cell_angle_alpha 90.000000
_cell_angle_beta 92.325809
_cell_angle_gamma 90.000000
_cell_volume 1669.959926
_symmetry_space_group_name_H-M "C 2/C"
_symmetry_group_IT_number 15
_symmetry_cell_setting 'monoclinic'
loop_
_space_group_symop_operation_xyz
x,y,z
-x,y,1/2-z
-x,-y,-z
x,-y,1/2+z
1/2+x,1/2+y,z
1/2-x,1/2+y,1/2-z
1/2-x,1/2-y,-z
1/2+x,1/2-y,1/2+z
loop_
_atom_site_type_symbol
_atom_site_label
_atom_site_fract_x
_atom_site_fract_y
_atom_site_fract_z
Si Si1 0.649553 0.318486 0.032596
Si Si2 0.119192 0.384223 0.329380
Si Si3 0.000000 0.096684 0.750000
Si Si4 0.732552 0.527077 0.859825
Si Si5 0.000000 0.625162 0.250000
Si Si6 0.193822 0.713956 0.309165
O O1 0.768907 0.344934 0.145562
O O2 0.547409 0.361362 0.068739
O O3 0.634996 0.257945 0.134371
O O4 0.690123 0.313371 0.787283
O O5 0.157211 0.431920 0.166194
O O6 0.077424 0.405752 0.569220
O O7 0.000000 0.354462 0.250000
O O8 0.108596 0.059858 0.837277
O O9 0.735336 0.497062 0.612403
O O10 0.900191 0.667121 0.148814
O O11 0.250000 0.750000 0.500000
#
# Coordination Sequence:
#
# PCOD9265402 Si02
#       6
#     8   8   4   8   4   8
#     4   9  20  38  59  94 128 170 215 262 317 389
#     4  10  22  39  64  91 128 165 220 269 335 396
#     4  10  21  46  66  96 130 168 222 274 331 402
#     4  11  26  47  71  98 132 171 218 279 346 404
#     4  10  21  36  60  92 126 174 218 270 325 394
#     4  10  19  36  60  89 133 169 216 262 319 382
#
# _framework density 23.952672
#
# number of rings (size 3 to 8) (size 9 to 14) (size 15 to 20)
#    0.000    2.000    0.000    2.400    2.800    0.800 
#   14.400    6.000    0.000    0.000    0.000    0.000 
#    0.000    0.000    0.000    0.000    0.000    0.000 
#
# Total GULP energy -111454.157086 kJ/mol
# GULP energy per Si atom -5572.707854 kJ/mol
# Density = 2.389815 g / cm^3
# Si number density = 23.952672 Si / 1000 Ang^3
#
#
#
# Elastic Constant Matrix: (Units=GPa)
#
#
# Indices 1 2 3 4 5 6 
#
# 1 105.6122 41.1947 49.4906 0.0000 -27.7638 0.0000
# 2 41.1947 69.4450 44.2891 0.0000 -19.8134 0.0000
# 3 49.4906 44.2891 106.8071 0.0000 -27.7005 0.0000
# 4 0.0000 0.0000 0.0000 36.8823 0.0000 -15.1466
# 5 -27.7638 -19.8134 -27.7005 0.0000 41.2343 0.0000
# 6 0.0000 0.0000 0.0000 -15.1466 0.0000 35.3519
#
#
#
# Elastic Compliance Matrix: (Units=1/GPa)
#
#
# Indices 1 2 3 4 5 6 
#
# 1 0.014240 -0.004942 -0.003243 0.000000 0.005034 0.000000
# 2 -0.004942 0.022105 -0.006036 0.000000 0.003239 0.000000
# 3 -0.003243 -0.006036 0.014592 0.000000 0.004719 0.000000
# 4 0.000000 0.000000 0.000000 0.032903 0.000000 0.014097
# 5 0.005034 0.003239 0.004719 0.000000 0.032368 0.000000
# 6 0.000000 0.000000 0.000000 0.014097 0.000000 0.034327
#
#
# Mechanical properties :
#
#
# Convention : Reuss Voigt Hill
#
# Bulk Modulus (GPa) = 44.45610 61.31255 52.88433
# Shear Modulus (GPa) = 26.81316 32.48635 29.64976
#
# Velocity S-wave (km/s) = 3.34941 3.68676 3.52212
# Velocity P-wave (km/s) = 5.79295 6.61633 6.21829
#
# Compressibility (1/GPa) = 0.02249410
#
# Stress axis : x y z
#
# Youngs Moduli (GPa) = 70.22714 45.23780 68.52987
#
# Poissons Ratio (x) = 0.22358 0.22225
# Poissons Ratio (y) = 0.34708 0.41366
# Poissons Ratio (z) = 0.22775 0.27306
#
# Static dielectric constant tensor:
#      x y z
#    x 1.851130 0.000000 0.021040 
#    y 0.000000 1.940940 0.000000 
#    z 0.021040 0.000000 2.140810 
# 
# From -- ./inp_files/5035.got.cif
#   From: 2010.05.17/outbox.cif.g08.bks.cpg/sg15_3_cif.got.tgz:5035.got - 2010.06.03 18:47:42.
