data_PCOD9265630
_publ_section_title
;
Structure prediction by ZEFSAII (Michael W. Deem and Ramdas Pophale) SiO2 
 PCOD9265630
Probable space group: C 2/C
;
_chemical_formula_sum "Si O2"
_cell_formula_units_Z 40
_cell_length_a 10.894709
_cell_length_b 15.707636
_cell_length_c 14.773651
_cell_angle_alpha 90.000000
_cell_angle_beta 120.713589
_cell_angle_gamma 90.000000
_cell_volume 2173.586692
_symmetry_space_group_name_H-M "C 2/C"
_symmetry_group_IT_number 15
_symmetry_cell_setting 'monoclinic'
loop_
_space_group_symop_operation_xyz
x,y,z
-x,y,1/2-z
-x,-y,-z
x,-y,1/2+z
1/2+x,1/2+y,z
1/2-x,1/2+y,1/2-z
1/2-x,1/2-y,-z
1/2+x,1/2-y,1/2+z
loop_
_atom_site_type_symbol
_atom_site_label
_atom_site_fract_x
_atom_site_fract_y
_atom_site_fract_z
Si Si1 0.096432 0.219243 0.547704
Si Si2 0.623183 0.829351 0.732436
Si Si3 0.443386 0.024690 0.077442
Si Si4 0.911939 0.665265 0.627365
Si Si5 0.296711 0.660092 0.470961
O O1 0.143397 0.275217 0.651088
O O2 0.044352 0.280558 0.445727
O O3 0.241477 0.175806 0.571149
O O4 0.967980 0.159461 0.534113
O O5 0.500000 0.789277 0.750000
O O6 0.558461 0.917839 0.673162
O O7 0.753258 0.839231 0.848906
O O8 0.299059 0.083415 0.023048
O O9 0.431115 0.934905 0.121537
O O10 0.500000 0.000000 0.000000
O O11 0.000000 0.692845 0.750000
O O12 0.250000 0.750000 0.500000
#
# Coordination Sequence:
#
# PCOD9265630 Si02
#       5
#     8   8   8   8   8
#     4  11  22  38  62  91 119 159 203 254 309 360
#     4  10  19  36  63  86 117 158 202 245 299 365
#     4  11  21  39  62  87 121 166 204 242 304 366
#     4  11  23  40  61  88 122 160 201 254 311 368
#     4  11  20  36  62  91 120 156 204 254 296 364
#
# _framework density 18.402763
#
# number of rings (size 3 to 8) (size 9 to 14) (size 15 to 20)
#    0.000    1.200    6.000    3.000    0.000    0.800 
#    0.000    0.000    0.000    2.400    0.000    0.000 
#    0.000    0.000    0.000    0.000    0.000    0.000 
#
# Total GULP energy -111464.394182 kJ/mol
# GULP energy per Si atom -5573.219709 kJ/mol
# Density = 1.836088 g / cm^3
# Si number density = 18.402763 Si / 1000 Ang^3
#
#
#
# Elastic Constant Matrix: (Units=GPa)
#
#
# Indices 1 2 3 4 5 6 
#
# 1 78.3778 24.3299 35.7909 0.0000 -2.6814 0.0000
# 2 24.3299 59.5182 31.0882 0.0000 -4.1765 0.0000
# 3 35.7909 31.0882 79.5164 0.0000 -13.6808 0.0000
# 4 0.0000 0.0000 0.0000 22.6489 0.0000 -7.3377
# 5 -2.6814 -4.1765 -13.6808 0.0000 38.4410 0.0000
# 6 0.0000 0.0000 0.0000 -7.3377 0.0000 22.3649
#
#
#
# Elastic Compliance Matrix: (Units=1/GPa)
#
#
# Indices 1 2 3 4 5 6 
#
# 1 0.016744 -0.003617 -0.006380 0.000000 -0.001495 0.000000
# 2 -0.003617 0.021912 -0.007001 0.000000 -0.000363 0.000000
# 3 -0.006380 -0.007001 0.019150 0.000000 0.005610 0.000000
# 4 0.000000 0.000000 0.000000 0.049403 0.000000 0.016209
# 5 -0.001495 -0.000363 0.005610 0.000000 0.027867 0.000000
# 6 0.000000 0.000000 0.000000 0.016209 0.000000 0.050031
#
#
# Mechanical properties :
#
#
# Convention : Reuss Voigt Hill
#
# Bulk Modulus (GPa) = 42.00012 44.42560 43.21286
# Shear Modulus (GPa) = 22.02278 25.10453 23.56365
#
# Velocity S-wave (km/s) = 3.46310 3.69748 3.58221
# Velocity P-wave (km/s) = 6.23402 6.51318 6.37513
#
# Compressibility (1/GPa) = 0.02380945
#
# Stress axis : x y z
#
# Youngs Moduli (GPa) = 59.72448 45.63795 52.21988
#
# Poissons Ratio (x) = 0.16508 0.33314
# Poissons Ratio (y) = 0.21603 0.36559
# Poissons Ratio (z) = 0.38101 0.31951
#
# Static dielectric constant tensor:
#      x y z
#    x 1.635480 0.000000 -0.001710 
#    y 0.000000 1.622540 0.000000 
#    z -0.001710 0.000000 1.666300 
# 
# From -- ./inp_files/85734.got.cif
#   From: 2010.05.17/outbox.cif.g08.bks.cpg/sg15_43_cif.got.tgz:85734.got - 2010.06.03 18:47:42.
