data_PCOD9265704
_publ_section_title
;
Structure prediction by ZEFSAII (Michael W. Deem and Ramdas Pophale) SiO2 
 PCOD9265704
Probable space group: C 2/C
;
_chemical_formula_sum "Si O2"
_cell_formula_units_Z 56
_cell_length_a 16.921889
_cell_length_b 8.252657
_cell_length_c 20.781422
_cell_angle_alpha 90.000000
_cell_angle_beta 125.965732
_cell_angle_gamma 90.000000
_cell_volume 2348.897911
_symmetry_space_group_name_H-M "C 2/C"
_symmetry_group_IT_number 15
_symmetry_cell_setting 'monoclinic'
loop_
_space_group_symop_operation_xyz
x,y,z
-x,y,1/2-z
-x,-y,-z
x,-y,1/2+z
1/2+x,1/2+y,z
1/2-x,1/2+y,1/2-z
1/2-x,1/2-y,-z
1/2+x,1/2-y,1/2+z
loop_
_atom_site_type_symbol
_atom_site_label
_atom_site_fract_x
_atom_site_fract_y
_atom_site_fract_z
Si Si1 0.217820 0.076551 0.801006
Si Si2 0.912423 0.286418 0.419296
Si Si3 0.896301 0.374301 0.163714
Si Si4 0.700938 0.240386 0.109454
Si Si5 0.902359 0.512817 0.532965
Si Si6 0.054131 0.932283 0.112818
Si Si7 0.917249 0.991911 0.155260
O O1 0.263498 0.897596 0.825059
O O2 0.136195 0.079509 0.708035
O O3 0.171285 0.093622 0.850259
O O4 0.307467 0.195316 0.835268
O O5 0.898145 0.358054 0.484314
O O6 0.943025 0.103742 0.421524
O O7 0.990852 0.406644 0.424778
O O8 0.790462 0.367340 0.148332
O O9 0.888111 0.500865 0.101830
O O10 0.902409 0.186529 0.141374
O O11 0.000000 0.400879 0.250000
O O12 0.596844 0.304635 0.083265
O O13 0.675145 0.144838 0.031449
O O14 0.954560 0.921683 0.105856
O O15 0.000000 0.979993 0.250000
#
# Coordination Sequence:
#
# PCOD9265704 Si02
#       7
#     8   8   8   8   8   8   8
#     4   9  19  35  60  85 120 157 203 244 302 351
#     4  10  21  36  60  86 121 167 188 246 307 360
#     4  10  19  36  64  87 113 155 212 251 287 350
#     4  10  22  35  59  95 115 158 201 257 298 348
#     4  10  21  39  59  86 125 160 200 237 309 374
#     4  11  19  34  61  90 118 148 209 254 295 347
#     4   8  16  31  54  83 110 149 191 248 290 337
#
# _framework density 23.840966000000002
#
# number of rings (size 3 to 8) (size 9 to 14) (size 15 to 20)
#    0.000    2.286    1.429    2.143    2.000    0.571 
#    0.000    0.714    9.429    0.857    0.000    1.000 
#    0.000    0.000    0.000    0.000    0.000    0.000 
#
# Total GULP energy -156321.207976 kJ/mol
# GULP energy per Si atom -5582.900285 kJ/mol
# Density = 2.378670 g / cm^3
# Si number density = 23.840966 Si / 1000 Ang^3
#
#
#
# Elastic Constant Matrix: (Units=GPa)
#
#
# Indices 1 2 3 4 5 6 
#
# 1 96.2875 26.4350 30.5020 0.0000 8.9727 0.0000
# 2 26.4350 28.7924 19.7629 0.0000 -12.8877 0.0000
# 3 30.5020 19.7629 89.8186 0.0000 3.4439 0.0000
# 4 0.0000 0.0000 0.0000 23.5726 0.0000 2.0191
# 5 8.9727 -12.8877 3.4439 0.0000 32.4250 0.0000
# 6 0.0000 0.0000 0.0000 2.0191 0.0000 24.7965
#
#
#
# Elastic Compliance Matrix: (Units=1/GPa)
#
#
# Indices 1 2 3 4 5 6 
#
# 1 0.017963 -0.022139 -0.000704 0.000000 -0.013695 0.000000
# 2 -0.022139 0.080825 -0.011780 0.000000 0.039503 0.000000
# 3 -0.000704 -0.011780 0.014194 0.000000 -0.005995 0.000000
# 4 0.000000 0.000000 0.000000 0.042720 0.000000 -0.003478
# 5 -0.013695 0.039503 -0.005995 0.000000 0.050968 0.000000
# 6 0.000000 0.000000 0.000000 -0.003478 0.000000 0.040611
#
#
# Mechanical properties :
#
#
# Convention : Reuss Voigt Hill
#
# Bulk Modulus (GPa) = 22.86437 40.92202 31.89319
# Shear Modulus (GPa) = 15.10084 25.37206 20.23645
#
# Velocity S-wave (km/s) = 2.51947 3.26578 2.91659
# Velocity P-wave (km/s) = 4.25145 5.60556 4.97479
#
# Compressibility (1/GPa) = 0.04373617
#
# Stress axis : x y z
#
# Youngs Moduli (GPa) = 55.67040 12.37234 70.45021
#
# Poissons Ratio (x) = 0.27391 0.04957
# Poissons Ratio (y) = 1.23250 0.82993
# Poissons Ratio (z) = 0.03917 0.14575
#
# Static dielectric constant tensor:
#      x y z
#    x 1.969680 0.000000 -0.010790 
#    y 0.000000 1.894470 0.000000 
#    z -0.010790 0.000000 1.952110 
# 
# From -- ./inp_files/247589.got.cif
#   From: 2010.05.17/outbox.cif.g08.bks.cpg/sg15_124_cif.got.tgz:247589.got - 2010.06.03 18:47:42.
