data_PCOD9265680
_publ_section_title
;
Structure prediction by ZEFSAII (Michael W. Deem and Ramdas Pophale) SiO2 
 PCOD9265680
Probable space group: C 2/C
;
_chemical_formula_sum "Si O2"
_cell_formula_units_Z 60
_cell_length_a 7.966702
_cell_length_b 23.570117
_cell_length_c 15.743702
_cell_angle_alpha 90.000000
_cell_angle_beta 110.942511
_cell_angle_gamma 90.000000
_cell_volume 2760.996974
_symmetry_space_group_name_H-M "C 2/C"
_symmetry_group_IT_number 15
_symmetry_cell_setting 'monoclinic'
loop_
_space_group_symop_operation_xyz
x,y,z
-x,y,1/2-z
-x,-y,-z
x,-y,1/2+z
1/2+x,1/2+y,z
1/2-x,1/2+y,1/2-z
1/2-x,1/2-y,-z
1/2+x,1/2-y,1/2+z
loop_
_atom_site_type_symbol
_atom_site_label
_atom_site_fract_x
_atom_site_fract_y
_atom_site_fract_z
Si Si1 0.806265 0.045849 0.909288
Si Si2 0.137404 0.316021 0.708756
Si Si3 0.500000 0.615927 0.250000
Si Si4 0.801881 0.200889 0.681115
Si Si5 0.665145 0.833019 0.971032
Si Si6 0.621065 0.422135 0.591241
Si Si7 0.821069 0.409736 0.269650
Si Si8 0.969519 0.559973 0.953962
O O1 0.832518 0.074948 0.823409
O O2 0.647661 0.074781 0.934075
O O3 0.757263 0.979339 0.886036
O O4 0.979415 0.058791 0.995319
O O5 0.312767 0.348850 0.709095
O O6 0.208108 0.262266 0.776132
O O7 0.000000 0.347879 0.750000
O O8 0.999029 0.300965 0.606820
O O9 0.468122 0.583188 0.332433
O O10 0.755650 0.196782 0.571065
O O11 0.671454 0.155543 0.701658
O O12 0.000000 0.181804 0.750000
O O13 0.802024 0.861357 0.927180
O O14 0.575174 0.890388 0.990487
O O15 0.000000 0.426024 0.250000
O O16 0.812808 0.443461 0.355678
O O17 0.000000 0.500000 0.000000
#
# Coordination Sequence:
#
# PCOD9265680 Si02
#       8
#     8   8   4   8   8   8   8   8
#     4  10  21  39  59  99 131 177 219 270 337 405
#     4  11  25  46  71  96 134 177 233 291 347 412
#     4  12  26  48  66 104 134 184 228 290 346 414
#     4  10  23  42  69  98 128 178 231 291 345 413
#     4  11  22  44  69 100 138 186 227 288 349 408
#     4  11  23  40  66  92 140 175 223 280 335 419
#     4   9  20  37  60  91 129 169 221 278 328 403
#     4  10  19  36  63  94 133 176 224 267 336 410
#
# _framework density 21.731280000000002
#
# number of rings (size 3 to 8) (size 9 to 14) (size 15 to 20)
#    0.000    1.600    2.667    1.600    0.933    4.267 
#    8.400    0.667    0.000    0.000    0.000    0.000 
#    0.000    0.000    0.000    0.000    0.000    0.000 
#
# Total GULP energy -167059.253311 kJ/mol
# GULP energy per Si atom -5568.641777 kJ/mol
# Density = 2.168182 g / cm^3
# Si number density = 21.731280 Si / 1000 Ang^3
#
#
#
# Elastic Constant Matrix: (Units=GPa)
#
#
# Indices 1 2 3 4 5 6 
#
# 1 65.5855 16.6903 27.2343 0.0000 -3.0052 0.0000
# 2 16.6903 73.8233 61.7838 0.0000 -3.8600 0.0000
# 3 27.2343 61.7838 159.5691 0.0000 4.3157 0.0000
# 4 0.0000 0.0000 0.0000 28.6875 0.0000 -2.0506
# 5 -3.0052 -3.8600 4.3157 0.0000 31.0295 0.0000
# 6 0.0000 0.0000 0.0000 -2.0506 0.0000 34.2766
#
#
#
# Elastic Compliance Matrix: (Units=1/GPa)
#
#
# Indices 1 2 3 4 5 6 
#
# 1 0.016702 -0.001870 -0.002172 0.000000 0.001687 0.000000
# 2 -0.001870 0.020654 -0.007772 0.000000 0.003469 0.000000
# 3 -0.002172 -0.007772 0.009715 0.000000 -0.002528 0.000000
# 4 0.000000 0.000000 0.000000 0.035008 0.000000 0.002094
# 5 0.001687 0.003469 -0.002528 0.000000 0.033174 0.000000
# 6 0.000000 0.000000 0.000000 0.002094 0.000000 0.029300
#
#
# Mechanical properties :
#
#
# Convention : Reuss Voigt Hill
#
# Bulk Modulus (GPa) = 42.65501 56.71051 49.68276
# Shear Modulus (GPa) = 28.40962 31.68337 30.04649
#
# Velocity S-wave (km/s) = 3.61960 3.82247 3.72242
# Velocity P-wave (km/s) = 6.09424 6.75534 6.43328
#
# Compressibility (1/GPa) = 0.02344391
#
# Stress axis : x y z
#
# Youngs Moduli (GPa) = 59.87133 48.41579 102.93120
#
# Poissons Ratio (x) = 0.09053 0.22360
# Poissons Ratio (y) = 0.11196 0.79997
# Poissons Ratio (z) = 0.13006 0.37628
#
# Static dielectric constant tensor:
#      x y z
#    x 1.868240 0.000000 0.064220 
#    y 0.000000 1.850250 0.000000 
#    z 0.064220 0.000000 1.938860 
# 
# From -- ./inp_files/137885.got.cif
#   From: 2010.05.17/outbox.cif.g08.bks.cpg/sg15_69_cif.got.tgz:137885.got - 2010.06.03 18:47:42.
