data_PCOD9265562
_publ_section_title
;
Structure prediction by ZEFSAII (Michael W. Deem and Ramdas Pophale) SiO2 
 PCOD9265562
Probable space group: C 2/C
;
_chemical_formula_sum "Si O2"
_cell_formula_units_Z 52
_cell_length_a 17.175095
_cell_length_b 9.314379
_cell_length_c 19.289469
_cell_angle_alpha 90.000000
_cell_angle_beta 46.569944
_cell_angle_gamma 90.000000
_cell_volume 2240.980241
_symmetry_space_group_name_H-M "C 2/C"
_symmetry_group_IT_number 15
_symmetry_cell_setting 'monoclinic'
loop_
_space_group_symop_operation_xyz
x,y,z
-x,y,1/2-z
-x,-y,-z
x,-y,1/2+z
1/2+x,1/2+y,z
1/2-x,1/2+y,1/2-z
1/2-x,1/2-y,-z
1/2+x,1/2-y,1/2+z
loop_
_atom_site_type_symbol
_atom_site_label
_atom_site_fract_x
_atom_site_fract_y
_atom_site_fract_z
Si Si1 0.843249 0.503860 0.397200
Si Si2 0.894647 0.409990 0.113154
Si Si3 0.972367 0.658638 0.425727
Si Si4 0.107531 0.050277 0.557663
Si Si5 0.000000 0.925594 0.750000
Si Si6 0.126492 0.274735 0.001392
Si Si7 0.169929 0.714383 0.712007
O O1 0.933431 0.603674 0.374805
O O2 0.731718 0.588811 0.471005
O O3 0.839445 0.363739 0.450826
O O4 0.856716 0.431939 0.314207
O O5 0.919776 0.572176 0.122111
O O6 0.820892 0.327985 0.213027
O O7 0.012217 0.338744 0.051024
O O8 0.882306 0.391498 0.038386
O O9 0.969734 0.829847 0.427110
O O10 0.103751 0.892626 0.527120
O O11 0.075548 0.022791 0.656421
O O12 0.926851 0.823616 0.746018
O O13 0.223689 0.278522 0.887684
#
# Coordination Sequence:
#
# PCOD9265562 Si02
#       7
#     8   8   8   8   4   8   8
#     4  10  19  38  62  87 122 155 197 251 305 361
#     4  10  22  42  61  79 123 170 199 235 304 376
#     4  10  23  39  57  85 125 163 191 247 313 356
#     4  11  20  34  58  93 117 146 201 260 299 341
#     4  12  18  32  58  94 114 140 204 262 298 342
#     4  10  19  36  62  88 116 154 203 251 294 359
#     4  11  19  36  65  89 109 158 209 240 296 372
#
# _framework density 23.204131
#
# number of rings (size 3 to 8) (size 9 to 14) (size 15 to 20)
#    0.000    1.538    4.615    2.308    0.000    1.846 
#    0.000   10.769    0.000    0.000    0.000    0.000 
#    0.000    0.000    0.000    0.000    0.000    0.000 
#
# Total GULP energy -145183.672833 kJ/mol
# GULP energy per Si atom -5583.987417 kJ/mol
# Density = 2.315132 g / cm^3
# Si number density = 23.204131 Si / 1000 Ang^3
#
#
#
# Elastic Constant Matrix: (Units=GPa)
#
#
# Indices 1 2 3 4 5 6 
#
# 1 34.2549 9.1301 -8.6063 0.0000 0.2263 0.0000
# 2 9.1301 98.6103 -2.1675 0.0000 -3.0210 0.0000
# 3 -8.6063 -2.1675 89.7421 0.0000 8.5754 0.0000
# 4 0.0000 0.0000 0.0000 24.7110 0.0000 9.0898
# 5 0.2263 -3.0210 8.5754 0.0000 28.2292 0.0000
# 6 0.0000 0.0000 0.0000 9.0898 0.0000 20.3392
#
#
#
# Elastic Compliance Matrix: (Units=1/GPa)
#
#
# Indices 1 2 3 4 5 6 
#
# 1 0.030713 -0.002822 0.003017 0.000000 -0.001465 0.000000
# 2 -0.002822 0.010435 -0.000131 0.000000 0.001179 0.000000
# 3 0.003017 -0.000131 0.011775 0.000000 -0.003615 0.000000
# 4 0.000000 0.000000 0.000000 0.048429 0.000000 -0.021644
# 5 -0.001465 0.001179 -0.003615 0.000000 0.036660 0.000000
# 6 0.000000 0.000000 0.000000 -0.021644 0.000000 0.058839
#
#
# Mechanical properties :
#
#
# Convention : Reuss Voigt Hill
#
# Bulk Modulus (GPa) = 18.84999 24.36887 21.60943
# Shear Modulus (GPa) = 23.32007 29.60594 26.46300
#
# Velocity S-wave (km/s) = 3.17361 3.57584 3.38071
# Velocity P-wave (km/s) = 4.64438 5.25105 4.95700
#
# Compressibility (1/GPa) = 0.05305042
#
# Stress axis : x y z
#
# Youngs Moduli (GPa) = 32.55964 95.82699 84.92808
#
# Poissons Ratio (x) = 0.27044 -0.25624
# Poissons Ratio (y) = 0.09189 0.01115
# Poissons Ratio (z) = -0.09824 0.01258
#
# Static dielectric constant tensor:
#      x y z
#    x 1.943770 0.000000 0.038680 
#    y 0.000000 1.908230 0.000000 
#    z 0.038680 0.000000 1.923710 
# 
# From -- ./inp_files/171752.got.cif
#   From: 2010.05.17/outbox.cif.g08.bks.cpg/sg15_86_cif.got.tgz:171752.got - 2010.06.03 18:47:42.
