data_PCOD9265984
_publ_section_title
;
Structure prediction by ZEFSAII (Michael W. Deem and Ramdas Pophale) SiO2 
 PCOD9265984
Probable space group: C 2/C
;
_chemical_formula_sum "Si O2"
_cell_formula_units_Z 48
_cell_length_a 13.068964
_cell_length_b 17.731154
_cell_length_c 9.707288
_cell_angle_alpha 90.000000
_cell_angle_beta 82.173194
_cell_angle_gamma 90.000000
_cell_volume 2228.493291
_symmetry_space_group_name_H-M "C 2/C"
_symmetry_group_IT_number 15
_symmetry_cell_setting 'monoclinic'
loop_
_space_group_symop_operation_xyz
x,y,z
-x,y,1/2-z
-x,-y,-z
x,-y,1/2+z
1/2+x,1/2+y,z
1/2-x,1/2+y,1/2-z
1/2-x,1/2-y,-z
1/2+x,1/2-y,1/2+z
loop_
_atom_site_type_symbol
_atom_site_label
_atom_site_fract_x
_atom_site_fract_y
_atom_site_fract_z
Si Si1 0.884546 0.047191 0.832167
Si Si2 0.392236 0.189363 0.524598
Si Si3 0.877739 0.271756 0.536617
Si Si4 0.302479 0.351924 0.572645
Si Si5 0.111108 0.125903 0.159476
Si Si6 0.259328 0.162190 0.807884
O O1 0.805790 0.090360 0.739164
O O2 0.000000 0.053714 0.750000
O O3 0.862691 0.960509 0.876358
O O4 0.872219 0.088202 0.980397
O O5 0.511994 0.188977 0.466285
O O6 0.350482 0.273832 0.510701
O O7 0.315615 0.137905 0.450483
O O8 0.357386 0.172024 0.688399
O O9 0.896627 0.194125 0.446167
O O10 0.820864 0.233431 0.677907
O O11 0.807527 0.327096 0.453303
O O12 0.312228 0.354151 0.732195
O O13 0.000000 0.123648 0.250000
#
# Coordination Sequence:
#
# PCOD9265984 Si02
#       6
#     8   8   8   8   8   8
#     4  10  23  34  53  85 119 152 182 231 287 350
#     4  10  19  37  59  81 114 146 194 238 281 330
#     4  11  20  36  61  86 115 147 194 238 281 335
#     4  10  20  35  55  81 111 153 183 227 288 332
#     4  11  21  34  57  83 118 153 181 230 296 341
#     4  10  21  35  55  88 111 152 191 231 283 335
#
# _framework density 21.539217000000001
#
# number of rings (size 3 to 8) (size 9 to 14) (size 15 to 20)
#    0.000    1.667    3.333    1.500    2.333    1.333 
#    0.000    0.000    0.000    1.000   17.333    0.000 
#    0.000    0.000    0.000    0.000    0.000    0.000 
#
# Total GULP energy -133752.516499 kJ/mol
# GULP energy per Si atom -5573.021521 kJ/mol
# Density = 2.149019 g / cm^3
# Si number density = 21.539217 Si / 1000 Ang^3
#
#
#
# Elastic Constant Matrix: (Units=GPa)
#
#
# Indices 1 2 3 4 5 6 
#
# 1 90.8561 -9.6135 -13.6110 0.0000 -6.3443 0.0000
# 2 -9.6135 73.9969 16.4104 0.0000 2.8261 0.0000
# 3 -13.6110 16.4104 24.1246 0.0000 5.9000 0.0000
# 4 0.0000 0.0000 0.0000 -8.8841 0.0000 -21.2838
# 5 -6.3443 2.8261 5.9000 0.0000 22.1590 0.0000
# 6 0.0000 0.0000 0.0000 -21.2838 0.0000 15.0883
#
#
#
# Elastic Compliance Matrix: (Units=1/GPa)
#
#
# Indices 1 2 3 4 5 6 
#
# 1 0.012087 0.000102 0.006319 0.000000 0.001765 0.000000
# 2 0.000102 0.015933 -0.011008 0.000000 0.000928 0.000000
# 3 0.006319 -0.011008 0.055321 0.000000 -0.011517 0.000000
# 4 0.000000 0.000000 0.000000 -0.025702 0.000000 -0.036256
# 5 0.001765 0.000928 -0.011517 0.000000 0.048582 0.000000
# 6 0.000000 0.000000 0.000000 -0.036256 0.000000 0.015134
#
#
# Mechanical properties :
#
#
# Convention : Reuss Voigt Hill
#
# Bulk Modulus (GPa) = 13.48332 19.48326 16.48329
# Shear Modulus (GPa) = 32.20583 18.72542 25.46563
#
# Velocity S-wave (km/s) = 3.87100 2.95170 3.44218
# Velocity P-wave (km/s) = 5.12377 4.54773 4.84432
#
# Compressibility (1/GPa) = 0.07416569
#
# Stress axis : x y z
#
# Youngs Moduli (GPa) = 82.73348 62.76264 18.07638
#
# Poissons Ratio (x) = -0.00638 -0.11422
# Poissons Ratio (y) = -0.00841 0.19898
# Poissons Ratio (z) = -0.52276 0.69088
#
# Static dielectric constant tensor:
#      x y z
#    x 1.867120 0.000000 0.000560 
#    y 0.000000 1.807690 0.000000 
#    z 0.000560 0.000000 1.885100 
# 
# From -- ./inp_files/87268.got.cif
#   From: 2010.05.17/outbox.cif.g08.bks.cpg/sg15_44_cif.got.tgz:87268.got - 2010.06.03 18:47:42.
