data_PCOD9265168
_publ_section_title
;
Structure prediction by ZEFSAII (Michael W. Deem and Ramdas Pophale) SiO2 
 PCOD9265168
Probable space group: C 2/C
;
_chemical_formula_sum "Si O2"
_cell_formula_units_Z 56
_cell_length_a 17.703872
_cell_length_b 13.461719
_cell_length_c 13.446762
_cell_angle_alpha 90.000000
_cell_angle_beta 65.262875
_cell_angle_gamma 90.000000
_cell_volume 2910.621946
_symmetry_space_group_name_H-M "C 2/C"
_symmetry_group_IT_number 15
_symmetry_cell_setting 'monoclinic'
loop_
_space_group_symop_operation_xyz
x,y,z
-x,y,1/2-z
-x,-y,-z
x,-y,1/2+z
1/2+x,1/2+y,z
1/2-x,1/2+y,1/2-z
1/2-x,1/2-y,-z
1/2+x,1/2-y,1/2+z
loop_
_atom_site_type_symbol
_atom_site_label
_atom_site_fract_x
_atom_site_fract_y
_atom_site_fract_z
Si Si1 0.781027 0.448463 0.499739
Si Si2 0.829838 0.678657 0.452403
Si Si3 0.200156 0.898226 0.748664
Si Si4 0.381542 0.197310 0.646980
Si Si5 0.370492 0.793492 0.713390
Si Si6 0.959356 0.604295 0.990066
Si Si7 0.718677 0.603246 0.823317
O O1 0.797599 0.564845 0.468804
O O2 0.719111 0.430249 0.625680
O O3 0.871514 0.408159 0.482765
O O4 0.742220 0.394113 0.425948
O O5 0.750000 0.750000 0.500000
O O6 0.875479 0.698733 0.530809
O O7 0.883138 0.703617 0.324688
O O8 0.139907 0.804520 0.795664
O O9 0.288242 0.861067 0.743795
O O10 0.179157 0.997304 0.819800
O O11 0.473431 0.158206 0.616560
O O12 0.308146 0.121832 0.720585
O O13 0.439573 0.837717 0.603180
O O14 0.341398 0.687835 0.685976
O O15 0.000000 0.500000 0.000000
#
# Coordination Sequence:
#
# PCOD9265168 Si02
#       7
#     8   8   8   8   8   8   8
#     4  11  22  36  63  86 125 157 200 244 311 347
#     4  12  18  36  63  92 111 160 203 246 295 351
#     4  10  19  36  58  87 114 157 201 254 285 349
#     4  11  22  36  59  85 127 153 202 242 301 358
#     4  10  22  35  61  86 122 154 201 247 302 349
#     4  11  23  41  54  90 129 161 193 244 303 369
#     4  11  20  39  60  88 118 152 207 261 287 349
#
# _framework density 19.239875000000001
#
# number of rings (size 3 to 8) (size 9 to 14) (size 15 to 20)
#    0.000    1.143    7.143    0.857    0.000    6.286 
#    0.000    0.714    0.000    0.000    0.000    4.000 
#    0.000    0.000    0.000    0.000    0.000    0.000 
#
# Total GULP energy -156317.377306 kJ/mol
# GULP energy per Si atom -5582.763475 kJ/mol
# Density = 1.919608 g / cm^3
# Si number density = 19.239875 Si / 1000 Ang^3
#
#
#
# Elastic Constant Matrix: (Units=GPa)
#
#
# Indices 1 2 3 4 5 6 
#
# 1 24.0275 10.3416 24.9086 0.0000 -3.1513 0.0000
# 2 10.3416 92.8441 18.0564 0.0000 -8.5864 0.0000
# 3 24.9086 18.0564 86.0707 0.0000 8.9094 0.0000
# 4 0.0000 0.0000 0.0000 27.2823 0.0000 4.1827
# 5 -3.1513 -8.5864 8.9094 0.0000 38.3888 0.0000
# 6 0.0000 0.0000 0.0000 4.1827 0.0000 16.5980
#
#
#
# Elastic Compliance Matrix: (Units=1/GPa)
#
#
# Indices 1 2 3 4 5 6 
#
# 1 0.063294 -0.002584 -0.018702 0.000000 0.008958 0.000000
# 2 -0.002584 0.011715 -0.002007 0.000000 0.002874 0.000000
# 3 -0.018702 -0.002007 0.018092 0.000000 -0.006183 0.000000
# 4 0.000000 0.000000 0.000000 0.038127 0.000000 -0.009608
# 5 0.008958 0.002874 -0.006183 0.000000 0.028862 0.000000
# 6 0.000000 0.000000 0.000000 -0.009608 0.000000 0.062669
#
#
# Mechanical properties :
#
#
# Convention : Reuss Voigt Hill
#
# Bulk Modulus (GPa) = 21.49928 34.39505 27.94717
# Shear Modulus (GPa) = 17.55300 26.42954 21.99127
#
# Velocity S-wave (km/s) = 3.02375 3.71035 3.38450
# Velocity P-wave (km/s) = 4.83625 6.02257 5.46171
#
# Compressibility (1/GPa) = 0.04651318
#
# Stress axis : x y z
#
# Youngs Moduli (GPa) = 15.79920 85.36248 55.27361
#
# Poissons Ratio (x) = 0.22061 1.03374
# Poissons Ratio (y) = 0.04083 0.11094
# Poissons Ratio (z) = 0.29548 0.17133
#
# Static dielectric constant tensor:
#      x y z
#    x 1.674500 0.000000 0.014340 
#    y 0.000000 1.689850 0.000000 
#    z 0.014340 0.000000 1.701330 
# 
# From -- ./inp_files/105287.got.cif
#   From: 2010.05.17/outbox.cif.g08.bks.cpg/sg15_53_cif.got.tgz:105287.got - 2010.06.03 18:47:42.
