data_PCOD9265100
_publ_section_title
;
Structure prediction by ZEFSAII (Michael W. Deem and Ramdas Pophale) SiO2 
 PCOD9265100
Probable space group: C 2/C
;
_chemical_formula_sum "Si O2"
_cell_formula_units_Z 48
_cell_length_a 21.679367
_cell_length_b 7.790774
_cell_length_c 28.283673
_cell_angle_alpha 90.000000
_cell_angle_beta 26.049693
_cell_angle_gamma 90.000000
_cell_volume 2097.859526
_symmetry_space_group_name_H-M "C 2/C"
_symmetry_group_IT_number 15
_symmetry_cell_setting 'monoclinic'
loop_
_space_group_symop_operation_xyz
x,y,z
-x,y,1/2-z
-x,-y,-z
x,-y,1/2+z
1/2+x,1/2+y,z
1/2-x,1/2+y,1/2-z
1/2-x,1/2-y,-z
1/2+x,1/2-y,1/2+z
loop_
_atom_site_type_symbol
_atom_site_label
_atom_site_fract_x
_atom_site_fract_y
_atom_site_fract_z
Si Si1 0.469528 0.892968 0.892538
Si Si2 0.193349 0.104815 0.322475
Si Si3 0.009920 0.696452 0.797531
Si Si4 0.506999 0.410840 0.300028
Si Si5 0.842277 0.402999 0.083938
Si Si6 0.723826 0.241431 0.329117
O O1 0.637304 0.896406 0.787395
O O2 0.437526 0.724468 0.883399
O O3 0.440313 0.061028 0.880947
O O4 0.395632 0.895138 0.993890
O O5 0.130816 0.236738 0.402667
O O6 0.173600 0.173719 0.283253
O O7 0.147842 0.909503 0.361298
O O8 0.175465 0.702881 0.697512
O O9 0.000000 0.642029 0.750000
O O10 0.955270 0.892317 0.839402
O O11 0.500000 0.356912 0.250000
O O12 0.671887 0.411443 0.198647
O O13 0.872493 0.583192 0.089577
#
# Coordination Sequence:
#
# PCOD9265100 Si02
#       6
#     8   8   8   8   8   8
#     4  10  21  35  57  85 113 144 189 230 272 335
#     4  10  20  37  57  79 114 148 181 228 282 330
#     4   9  19  37  58  79 109 150 185 224 279 326
#     4   9  19  37  57  79 115 151 184 229 277 327
#     4  10  21  36  56  85 111 147 187 228 281 327
#     4  10  19  36  58  77 110 149 181 227 277 328
#
# _framework density 22.880465000000001
#
# number of rings (size 3 to 8) (size 9 to 14) (size 15 to 20)
#    0.000    2.333    1.667    0.500    0.000    2.667 
#    0.000    8.333    0.000    0.000    0.000    0.000 
#    0.000    0.000    0.000    0.000    0.000    0.000 
#
# Total GULP energy -134219.330402 kJ/mol
# GULP energy per Si atom -5592.472100 kJ/mol
# Density = 2.282839 g / cm^3
# Si number density = 22.880465 Si / 1000 Ang^3
#
#
#
# Elastic Constant Matrix: (Units=GPa)
#
#
# Indices 1 2 3 4 5 6 
#
# 1 71.2431 27.5018 32.0411 -0.0038 38.6757 0.0027
# 2 27.5018 175.8793 107.8998 -0.0102 42.4707 0.0073
# 3 32.0411 107.8998 147.5328 -0.0030 55.0050 0.0023
# 4 -0.0038 -0.0102 -0.0030 33.5114 0.0027 17.6986
# 5 38.6757 42.4707 55.0050 0.0027 49.4903 -0.0024
# 6 0.0027 0.0073 0.0023 17.6986 -0.0024 30.9857
#
#
#
# Elastic Compliance Matrix: (Units=1/GPa)
#
#
# Indices 1 2 3 4 5 6 
#
# 1 0.025258 -0.000522 0.003566 0.000010 -0.023255 -0.000010
# 2 -0.000522 0.010342 -0.007332 0.000005 -0.000319 -0.000005
# 3 0.003566 -0.007332 0.017177 0.000002 -0.015586 -0.000002
# 4 0.000010 0.000005 0.000002 0.042731 -0.000018 -0.024407
# 5 -0.023255 -0.000319 -0.015586 -0.000018 0.055975 0.000018
# 6 -0.000010 -0.000005 -0.000002 -0.024407 0.000018 0.046214
#
#
# Mechanical properties :
#
#
# Convention : Reuss Voigt Hill
#
# Bulk Modulus (GPa) = 22.62328 81.06005 51.84167
# Shear Modulus (GPa) = 22.62377 37.94498 30.28437
#
# Velocity S-wave (km/s) = 3.14790 4.07676 3.64207
# Velocity P-wave (km/s) = 4.80847 7.59372 6.35555
#
# Compressibility (1/GPa) = 0.04420226
#
# Stress axis : x y z
#
# Youngs Moduli (GPa) = 39.59100 96.69116 58.21855
#
# Poissons Ratio (x) = 0.05047 -0.20762
# Poissons Ratio (y) = 0.02067 0.42684
# Poissons Ratio (z) = -0.14119 0.70891
#
# Static dielectric constant tensor:
#      x y z
#    x 1.899660 0.000000 -0.048800 
#    y 0.000000 1.884730 0.000000 
#    z -0.048800 0.000000 1.811580 
# 
# From -- ./inp_files/116438.got.cif
#   From: 2010.05.17/outbox.cif.g08.bks.cpg/sg15_59_cif.got.tgz:116438.got - 2010.06.03 18:47:42.
