data_PCOD9265441
_publ_section_title
;
Structure prediction by ZEFSAII (Michael W. Deem and Ramdas Pophale) SiO2 
 PCOD9265441
Probable space group: C 2/C
;
_chemical_formula_sum "Si O2"
_cell_formula_units_Z 28
_cell_length_a 8.087996
_cell_length_b 11.117062
_cell_length_c 17.501573
_cell_angle_alpha 90.000000
_cell_angle_beta 134.437335
_cell_angle_gamma 90.000000
_cell_volume 1123.611969
_symmetry_space_group_name_H-M "C 2/C"
_symmetry_group_IT_number 15
_symmetry_cell_setting 'monoclinic'
loop_
_space_group_symop_operation_xyz
x,y,z
-x,y,1/2-z
-x,-y,-z
x,-y,1/2+z
1/2+x,1/2+y,z
1/2-x,1/2+y,1/2-z
1/2-x,1/2-y,-z
1/2+x,1/2-y,1/2+z
loop_
_atom_site_type_symbol
_atom_site_label
_atom_site_fract_x
_atom_site_fract_y
_atom_site_fract_z
Si Si1 0.261981 0.860917 0.448337
Si Si2 0.546275 0.427031 0.676888
Si Si3 0.112766 0.605759 0.942007
Si Si4 0.000000 0.509340 0.750000
O O1 0.250000 0.750000 0.500000
O O2 0.395129 0.835980 0.413246
O O3 0.026176 0.931323 0.354265
O O4 0.407238 0.963577 0.540238
O O5 0.500000 0.393345 0.750000
O O6 0.353179 0.361457 0.561745
O O7 0.800703 0.426981 0.723712
O O8 0.108143 0.595719 0.850126
#
# Coordination Sequence:
#
# PCOD9265441 Si02
#       4
#     8   8   8   4
#     4   9  18  38  59  83 123 162 206 265 309 365
#     4  10  19  36  61  84 123 160 210 261 305 378
#     4   9  20  35  59  90 116 162 211 252 312 383
#     4  12  18  36  62  88 122 168 202 258 318 376
#
# _framework density 24.919636000000001
#
# number of rings (size 3 to 8) (size 9 to 14) (size 15 to 20)
#    1.714    0.571    2.857    0.857    0.000    0.000 
#    2.571    1.429    9.429    0.000    0.000    0.000 
#    0.000    0.000    0.000    0.000    0.000    0.000 
#
# Total GULP energy -78164.517012 kJ/mol
# GULP energy per Si atom -5583.179787 kJ/mol
# Density = 2.486292 g / cm^3
# Si number density = 24.919636 Si / 1000 Ang^3
#
#
#
# Elastic Constant Matrix: (Units=GPa)
#
#
# Indices 1 2 3 4 5 6 
#
# 1 207.1665 20.9917 68.9974 0.0000 -1.3074 0.0000
# 2 20.9917 60.7962 -7.9587 0.0000 -7.5734 0.0000
# 3 68.9974 -7.9587 168.3155 0.0000 -30.4034 0.0000
# 4 0.0000 0.0000 0.0000 19.1964 0.0000 -3.0077
# 5 -1.3074 -7.5734 -30.4034 0.0000 50.2328 0.0000
# 6 0.0000 0.0000 0.0000 -3.0077 0.0000 31.2393
#
#
#
# Elastic Compliance Matrix: (Units=1/GPa)
#
#
# Indices 1 2 3 4 5 6 
#
# 1 0.006093 -0.002755 -0.003003 0.000000 -0.002074 0.000000
# 2 -0.002755 0.018309 0.002785 0.000000 0.004375 0.000000
# 3 -0.003003 0.002785 0.008270 0.000000 0.005347 0.000000
# 4 0.000000 0.000000 0.000000 0.052891 0.000000 0.005092
# 5 -0.002074 0.004375 0.005347 0.000000 0.023749 0.000000
# 6 0.000000 0.000000 0.000000 0.005092 0.000000 0.032501
#
#
# Mechanical properties :
#
#
# Convention : Reuss Voigt Hill
#
# Bulk Modulus (GPa) = 37.41543 66.70435 52.05989
# Shear Modulus (GPa) = 31.91463 43.75020 37.83242
#
# Velocity S-wave (km/s) = 3.58257 4.19460 3.90061
# Velocity P-wave (km/s) = 5.67099 7.09122 6.42050
#
# Compressibility (1/GPa) = 0.02672694
#
# Stress axis : x y z
#
# Youngs Moduli (GPa) = 164.11713 54.61694 120.92354
#
# Poissons Ratio (x) = 0.15049 0.36310
# Poissons Ratio (y) = 0.45220 -0.33682
# Poissons Ratio (z) = 0.49280 -0.15213
#
# Static dielectric constant tensor:
#      x y z
#    x 1.982080 0.000000 -0.009890 
#    y 0.000000 2.104080 0.000000 
#    z -0.009890 0.000000 2.029550 
# 
# From -- ./inp_files/188267.got.cif
#   From: 2010.05.17/outbox.cif.g08.bks.cpg/sg15_95_cif.got.tgz:188267.got - 2010.06.03 18:47:42.
