data_PCOD9265560
_publ_section_title
;
Structure prediction by ZEFSAII (Michael W. Deem and Ramdas Pophale) SiO2 
 PCOD9265560
Probable space group: C 2/C
;
_chemical_formula_sum "Si O2"
_cell_formula_units_Z 52
_cell_length_a 15.452787
_cell_length_b 9.229333
_cell_length_c 28.225161
_cell_angle_alpha 90.000000
_cell_angle_beta 41.036214
_cell_angle_gamma 90.000000
_cell_volume 2642.847176
_symmetry_space_group_name_H-M "C 2/C"
_symmetry_group_IT_number 15
_symmetry_cell_setting 'monoclinic'
loop_
_space_group_symop_operation_xyz
x,y,z
-x,y,1/2-z
-x,-y,-z
x,-y,1/2+z
1/2+x,1/2+y,z
1/2-x,1/2+y,1/2-z
1/2-x,1/2-y,-z
1/2+x,1/2-y,1/2+z
loop_
_atom_site_type_symbol
_atom_site_label
_atom_site_fract_x
_atom_site_fract_y
_atom_site_fract_z
Si Si1 0.794765 0.711337 0.116842
Si Si2 0.632304 0.100524 0.882133
Si Si3 0.574864 0.688603 0.766903
Si Si4 0.083824 0.494750 0.298128
Si Si5 0.468615 0.363984 0.979044
Si Si6 0.891926 0.950413 0.152225
Si Si7 0.000000 0.283259 0.250000
O O1 0.847470 0.548823 0.098233
O O2 0.863775 0.809077 0.130202
O O3 0.638330 0.701638 0.188978
O O4 0.830061 0.799862 0.054404
O O5 0.770978 0.170488 0.808866
O O6 0.559613 0.221318 0.943174
O O7 0.563344 0.055261 0.860691
O O8 0.500000 0.655907 0.750000
O O9 0.536932 0.846862 0.802145
O O10 0.548048 0.585652 0.821967
O O11 0.242349 0.502990 0.223581
O O12 0.019717 0.382909 0.288149
O O13 0.510895 0.434491 0.911951
O O14 0.500000 0.500000 0.000000
#
# Coordination Sequence:
#
# PCOD9265560 Si02
#       7
#     8   8   8   8   8   8   4
#     4  10  21  38  64  90 124 164 208 259 308 374
#     4  11  22  38  62  93 121 160 216 253 309 371
#     4  11  21  34  62  93 123 159 208 265 306 355
#     4  10  19  36  62  87 125 161 202 262 307 368
#     4  10  21  39  66  87 126 169 209 252 313 377
#     4   9  19  37  59  91 119 164 210 247 310 372
#     4  10  22  38  64  94 128 160 212 258 322 368
#
# _framework density 19.675750000000001
#
# number of rings (size 3 to 8) (size 9 to 14) (size 15 to 20)
#    0.000    1.846    3.846    0.462    1.077    0.000 
#    0.000    0.769    3.385    2.769    0.000    0.000 
#    0.000    0.000    0.000    0.000    0.000    0.000 
#
# Total GULP energy -144874.101427 kJ/mol
# GULP energy per Si atom -5572.080824 kJ/mol
# Density = 1.963097 g / cm^3
# Si number density = 19.675750 Si / 1000 Ang^3
#
#
#
# Elastic Constant Matrix: (Units=GPa)
#
#
# Indices 1 2 3 4 5 6 
#
# 1 100.0867 33.3217 17.6179 0.0000 9.2089 0.0003
# 2 33.3217 116.8011 42.3043 0.0000 2.2396 0.0005
# 3 17.6179 42.3043 77.1087 0.0000 4.5347 0.0000
# 4 0.0000 0.0000 0.0000 30.7956 0.0000 -5.4565
# 5 9.2089 2.2396 4.5347 0.0000 11.9781 0.0000
# 6 0.0003 0.0005 0.0000 -5.4565 0.0000 -10.4582
#
#
#
# Elastic Compliance Matrix: (Units=1/GPa)
#
#
# Indices 1 2 3 4 5 6 
#
# 1 0.011864 -0.003021 -0.000563 0.000000 -0.008343 0.000000
# 2 -0.003021 0.011454 -0.005732 0.000000 0.002351 0.000000
# 3 -0.000563 -0.005732 0.016522 0.000000 -0.004750 0.000000
# 4 0.000000 0.000000 0.000000 0.029724 0.000000 -0.015508
# 5 -0.008343 0.002351 -0.004750 0.000000 0.091259 0.000000
# 6 0.000000 0.000000 0.000000 -0.015508 0.000000 -0.087527
#
#
# Mechanical properties :
#
#
# Convention : Reuss Voigt Hill
#
# Bulk Modulus (GPa) = 47.15168 53.38714 50.26941
# Shear Modulus (GPa) = 50.50674 19.84661 35.17668
#
# Velocity S-wave (km/s) = 5.07201 3.17942 4.23285
# Velocity P-wave (km/s) = 7.63654 6.37736 7.03518
#
# Compressibility (1/GPa) = 0.02120815
#
# Stress axis : x y z
#
# Youngs Moduli (GPa) = 84.29048 87.30206 60.52687
#
# Poissons Ratio (x) = 0.26372 0.03406
# Poissons Ratio (y) = 0.25462 0.34696
# Poissons Ratio (z) = 0.04743 0.50045
#
# Static dielectric constant tensor:
#      x y z
#    x 1.679820 0.000000 0.022330 
#    y 0.000000 1.734130 0.000000 
#    z 0.022330 0.000000 1.726450 
# 
# From -- ./inp_files/313093.got.cif
#   From: 2010.05.17/outbox.cif.g08.bks.cpg/sg15_157_cif.got.tgz:313093.got - 2010.06.03 18:47:42.
