data_PCOD9265003
_publ_section_title
;
Structure prediction by ZEFSAII (Michael W. Deem and Ramdas Pophale) SiO2 
 PCOD9265003
Probable space group: C 2/C
;
_chemical_formula_sum "Si O2"
_cell_formula_units_Z 56
_cell_length_a 13.216846
_cell_length_b 7.608002
_cell_length_c 26.500058
_cell_angle_alpha 90.000000
_cell_angle_beta 126.942434
_cell_angle_gamma 90.000000
_cell_volume 2129.719234
_symmetry_space_group_name_H-M "C 2/C"
_symmetry_group_IT_number 15
_symmetry_cell_setting 'monoclinic'
loop_
_space_group_symop_operation_xyz
x,y,z
-x,y,1/2-z
-x,-y,-z
x,-y,1/2+z
1/2+x,1/2+y,z
1/2-x,1/2+y,1/2-z
1/2-x,1/2-y,-z
1/2+x,1/2-y,1/2+z
loop_
_atom_site_type_symbol
_atom_site_label
_atom_site_fract_x
_atom_site_fract_y
_atom_site_fract_z
Si Si1 0.314394 0.510371 0.621088
Si Si2 0.524500 0.184499 0.364400
Si Si3 0.613060 0.917516 0.314614
Si Si4 0.107089 0.850609 0.091370
Si Si5 0.035469 0.801505 0.632973
Si Si6 0.187659 0.221760 0.778651
Si Si7 0.868005 0.695487 0.500009
O O1 0.353814 0.693245 0.605833
O O2 0.426678 0.374051 0.638065
O O3 0.316924 0.567006 0.680892
O O4 0.186091 0.451765 0.554114
O O5 0.558688 0.997197 0.350479
O O6 0.475676 0.203241 0.406115
O O7 0.413877 0.277095 0.296792
O O8 0.500000 0.832108 0.250000
O O9 0.649299 0.098472 0.295850
O O10 0.743365 0.814891 0.355981
O O11 0.095163 0.849227 0.027960
O O12 0.073627 0.027393 0.110774
O O13 0.167459 0.735815 0.696141
O O14 0.981206 0.675648 0.572908
O O15 0.750000 0.750000 0.500000
#
# Coordination Sequence:
#
# PCOD9265003 Si02
#       7
#     8   8   8   8   8   8   8
#     4   9  18  35  55  80 113 148 179 229 295 332
#     4   9  18  36  58  83 113 143 189 235 291 353
#     4   8  16  34  55  77 111 142 179 235 285 340
#     4  10  19  36  56  83 103 150 196 229 290 342
#     4   9  19  36  60  77 108 151 195 233 276 341
#     4   9  17  35  58  82 112 151 183 232 296 346
#     4  10  21  38  54  80 116 152 191 238 284 334
#
# _framework density 26.294546
#
# number of rings (size 3 to 8) (size 9 to 14) (size 15 to 20)
#    0.000    2.857    0.000    1.714    0.000    0.571 
#   18.000    2.857    0.000   14.571    0.000    0.000 
#    0.000    0.000    0.000    0.000    0.000    0.000 
#
# Total GULP energy -156632.427010 kJ/mol
# GULP energy per Si atom -5594.015250 kJ/mol
# Density = 2.623470 g / cm^3
# Si number density = 26.294546 Si / 1000 Ang^3
#
#
#
# Elastic Constant Matrix: (Units=GPa)
#
#
# Indices 1 2 3 4 5 6 
#
# 1 102.3483 6.6809 -16.6925 0.0000 -23.3539 0.0000
# 2 6.6809 70.0624 17.2527 0.0000 -5.9119 0.0000
# 3 -16.6925 17.2527 43.9753 0.0000 -10.8662 0.0000
# 4 0.0000 0.0000 0.0000 26.2922 0.0000 -6.9616
# 5 -23.3539 -5.9119 -10.8662 0.0000 41.8691 0.0000
# 6 0.0000 0.0000 0.0000 -6.9616 0.0000 41.7147
#
#
#
# Elastic Compliance Matrix: (Units=1/GPa)
#
#
# Indices 1 2 3 4 5 6 
#
# 1 0.013434 -0.002565 0.008407 0.000000 0.009313 0.000000
# 2 -0.002565 0.016307 -0.007646 0.000000 -0.001113 0.000000
# 3 0.008407 -0.007646 0.031867 0.000000 0.011880 0.000000
# 4 0.000000 0.000000 0.000000 0.039792 0.000000 0.006641
# 5 0.009313 -0.001113 0.011880 0.000000 0.032005 0.000000
# 6 0.000000 0.000000 0.000000 0.006641 0.000000 0.025081
#
#
# Mechanical properties :
#
#
# Convention : Reuss Voigt Hill
#
# Bulk Modulus (GPa) = 17.24188 25.65203 21.44696
# Shear Modulus (GPa) = 27.55927 35.91819 31.73873
#
# Velocity S-wave (km/s) = 3.24095 3.69995 3.47803
# Velocity P-wave (km/s) = 4.53612 5.29430 4.92981
#
# Compressibility (1/GPa) = 0.05799830
#
# Stress axis : x y z
#
# Youngs Moduli (GPa) = 74.43666 61.32484 31.38079
#
# Poissons Ratio (x) = 0.15733 -0.26382
# Poissons Ratio (y) = 0.19096 0.23995
# Poissons Ratio (z) = -0.62580 0.46891
#
# Static dielectric constant tensor:
#      x y z
#    x 2.082080 0.000000 -0.034090 
#    y 0.000000 2.157530 0.000000 
#    z -0.034090 0.000000 2.023200 
# 
# From -- ./inp_files/292082.got.cif
#   From: 2010.05.17/outbox.cif.g08.bks.cpg/sg15_147_cif.got.tgz:292082.got - 2010.06.03 18:47:42.
