data_PCOD9265276
_publ_section_title
;
Structure prediction by ZEFSAII (Michael W. Deem and Ramdas Pophale) SiO2 
 PCOD9265276
Probable space group: C 2/C
;
_chemical_formula_sum "Si O2"
_cell_formula_units_Z 40
_cell_length_a 7.523186
_cell_length_b 15.933640
_cell_length_c 14.726404
_cell_angle_alpha 90.000000
_cell_angle_beta 107.723339
_cell_angle_gamma 90.000000
_cell_volume 1681.495148
_symmetry_space_group_name_H-M "C 2/C"
_symmetry_group_IT_number 15
_symmetry_cell_setting 'monoclinic'
loop_
_space_group_symop_operation_xyz
x,y,z
-x,y,1/2-z
-x,-y,-z
x,-y,1/2+z
1/2+x,1/2+y,z
1/2-x,1/2+y,1/2-z
1/2-x,1/2-y,-z
1/2+x,1/2-y,1/2+z
loop_
_atom_site_type_symbol
_atom_site_label
_atom_site_fract_x
_atom_site_fract_y
_atom_site_fract_z
Si Si1 0.431630 0.689341 0.534597
Si Si2 0.411040 0.403736 0.839565
Si Si3 0.082379 0.481543 0.885935
Si Si4 0.727261 0.465208 0.392779
Si Si5 0.124759 0.307192 0.683919
O O1 0.250000 0.750000 0.500000
O O2 0.455316 0.644276 0.441341
O O3 0.382230 0.618897 0.601474
O O4 0.607092 0.741277 0.600059
O O5 0.241487 0.469073 0.835980
O O6 0.587389 0.461252 0.843403
O O7 0.318713 0.335292 0.758278
O O8 0.909663 0.545428 0.858166
O O9 0.978997 0.391134 0.868265
O O10 0.189828 0.493174 0.996686
O O11 0.000000 0.277298 0.750000
#
# Coordination Sequence:
#
# PCOD9265276 Si02
#       5
#     8   8   8   8   8
#     4  11  18  36  64  89 119 164 202 248 311 368
#     4  10  21  38  63  86 125 165 202 248 309 365
#     4   9  18  35  60  85 117 154 201 244 295 367
#     4  10  20  36  64  89 116 162 208 243 307 371
#     4  10  19  36  59  87 124 160 196 256 305 349
#
# _framework density 23.788352
#
# number of rings (size 3 to 8) (size 9 to 14) (size 15 to 20)
#    0.000    2.000    6.000    2.400    0.000    0.800 
#    3.600    1.000    4.400    0.000    0.000    0.000 
#    0.000    0.000    0.000    0.000    0.000    0.000 
#
# Total GULP energy -111676.421353 kJ/mol
# GULP energy per Si atom -5583.821068 kJ/mol
# Density = 2.373421 g / cm^3
# Si number density = 23.788352 Si / 1000 Ang^3
#
#
#
# Elastic Constant Matrix: (Units=GPa)
#
#
# Indices 1 2 3 4 5 6 
#
# 1 118.0710 10.7118 24.6359 0.0000 20.6113 0.0000
# 2 10.7118 44.2437 31.5965 0.0000 5.4818 0.0000
# 3 24.6359 31.5965 155.1925 0.0000 18.3294 0.0000
# 4 0.0000 0.0000 0.0000 52.4163 0.0000 -0.7652
# 5 20.6113 5.4818 18.3294 0.0000 21.5354 0.0000
# 6 0.0000 0.0000 0.0000 -0.7652 0.0000 15.2319
#
#
#
# Elastic Compliance Matrix: (Units=1/GPa)
#
#
# Indices 1 2 3 4 5 6 
#
# 1 0.010252 -0.001116 -0.000306 0.000000 -0.009268 0.000000
# 2 -0.001116 0.026680 -0.005091 0.000000 -0.001391 0.000000
# 3 -0.000306 -0.005091 0.008161 0.000000 -0.005358 0.000000
# 4 0.000000 0.000000 0.000000 0.019092 0.000000 0.000959
# 5 -0.009268 -0.001391 -0.005358 0.000000 0.060220 0.000000
# 6 0.000000 0.000000 0.000000 0.000959 0.000000 0.065700
#
#
# Mechanical properties :
#
#
# Convention : Reuss Voigt Hill
#
# Bulk Modulus (GPa) = 31.18172 50.15508 40.66840
# Shear Modulus (GPa) = 23.38421 34.54092 28.96256
#
# Velocity S-wave (km/s) = 3.13870 3.81466 3.49307
# Velocity P-wave (km/s) = 5.12559 6.36646 5.77943
#
# Compressibility (1/GPa) = 0.03207007
#
# Stress axis : x y z
#
# Youngs Moduli (GPa) = 97.53803 37.48134 122.52829
#
# Poissons Ratio (x) = 0.04181 0.03746
# Poissons Ratio (y) = 0.10881 0.62374
# Poissons Ratio (z) = 0.02982 0.19080
#
# Static dielectric constant tensor:
#      x y z
#    x 2.032520 0.000000 -0.065600 
#    y 0.000000 1.908120 0.000000 
#    z -0.065600 0.000000 1.973670 
# 
# From -- ./inp_files/189047.got.cif
#   From: 2010.05.17/outbox.cif.g08.bks.cpg/sg15_95_cif.got.tgz:189047.got - 2010.06.03 18:47:42.
