data_PCOD9265646
_publ_section_title
;
Structure prediction by ZEFSAII (Michael W. Deem and Ramdas Pophale) SiO2 
 PCOD9265646
Probable space group: C 2/C
;
_chemical_formula_sum "Si O2"
_cell_formula_units_Z 64
_cell_length_a 12.196417
_cell_length_b 15.986881
_cell_length_c 28.251993
_cell_angle_alpha 90.000000
_cell_angle_beta 38.244140
_cell_angle_gamma 90.000000
_cell_volume 3409.928765
_symmetry_space_group_name_H-M "C 2/C"
_symmetry_group_IT_number 15
_symmetry_cell_setting 'monoclinic'
loop_
_space_group_symop_operation_xyz
x,y,z
-x,y,1/2-z
-x,-y,-z
x,-y,1/2+z
1/2+x,1/2+y,z
1/2-x,1/2+y,1/2-z
1/2-x,1/2-y,-z
1/2+x,1/2-y,1/2+z
loop_
_atom_site_type_symbol
_atom_site_label
_atom_site_fract_x
_atom_site_fract_y
_atom_site_fract_z
Si Si1 0.960581 0.850305 0.540405
Si Si2 0.567199 0.071311 0.174523
Si Si3 0.554384 0.768074 0.545476
Si Si4 0.360633 0.954148 0.013821
Si Si5 0.815629 0.435624 0.435833
Si Si6 0.616664 0.235982 0.298904
Si Si7 0.428148 0.212539 0.628001
Si Si8 0.127513 0.124580 0.667477
O O1 0.765053 0.889805 0.608202
O O2 0.973330 0.790932 0.490144
O O3 0.984811 0.792817 0.578613
O O4 0.116183 0.917838 0.487128
O O5 0.500000 0.054442 0.250000
O O6 0.440569 0.142055 0.195003
O O7 0.578128 0.989359 0.138795
O O8 0.750000 0.750000 0.500000
O O9 0.558917 0.865057 0.529304
O O10 0.415346 0.752073 0.634623
O O11 0.317243 0.010019 0.983207
O O12 0.189681 0.933325 0.103751
O O13 0.500000 0.000000 0.000000
O O14 0.913290 0.347686 0.411171
O O15 0.807260 0.258957 0.213151
O O16 0.478911 0.296780 0.318016
O O17 0.299042 0.159719 0.636656
O O18 0.000000 0.084170 0.750000
#
# Coordination Sequence:
#
# PCOD9265646 Si02
#       8
#     8   8   8   8   8   8   8   8
#     4  12  23  42  65  92 127 173 211 252 320 394
#     4  12  22  42  66  92 129 166 206 270 319 369
#     4  12  20  37  67  90 115 160 222 258 292 375
#     4  12  21  39  61  92 128 163 200 263 317 364
#     4  12  27  39  61  99 139 158 207 268 336 372
#     4  11  20  38  70  92 113 162 228 258 297 376
#     4  11  21  42  64  90 121 175 204 253 313 389
#     4  10  19  36  63  90 116 158 220 260 299 371
#
# _framework density 18.768720999999999
#
# number of rings (size 3 to 8) (size 9 to 14) (size 15 to 20)
#    0.000    0.500    8.750    1.125    0.000    1.000 
#    4.500    1.250    0.000    0.000    0.000    0.000 
#    0.000    0.000    0.000    0.000    0.000    0.000 
#
# Total GULP energy -178898.691087 kJ/mol
# GULP energy per Si atom -5590.584096 kJ/mol
# Density = 1.872600 g / cm^3
# Si number density = 18.768721 Si / 1000 Ang^3
#
#
#
# Elastic Constant Matrix: (Units=GPa)
#
#
# Indices 1 2 3 4 5 6 
#
# 1 49.0689 26.4887 26.1964 0.0000 11.7544 0.0002
# 2 26.4887 47.8291 12.9799 0.0001 8.5937 0.0003
# 3 26.1964 12.9799 121.7371 0.0009 33.6492 0.0010
# 4 0.0000 0.0001 0.0009 27.4834 0.0002 4.8545
# 5 11.7544 8.5937 33.6492 0.0002 32.7231 -0.0002
# 6 0.0002 0.0003 0.0010 4.8545 -0.0002 31.9434
#
#
#
# Elastic Compliance Matrix: (Units=1/GPa)
#
#
# Indices 1 2 3 4 5 6 
#
# 1 0.032077 -0.016069 -0.004430 0.000000 -0.002747 0.000000
# 2 -0.016069 0.030088 0.001171 0.000000 -0.003334 0.000000
# 3 -0.004430 0.001171 0.012138 0.000000 -0.011198 0.000000
# 4 0.000000 0.000000 0.000000 0.037389 0.000000 -0.005682
# 5 -0.002747 -0.003334 -0.011198 0.000000 0.043937 0.000001
# 6 0.000000 0.000000 0.000000 -0.005682 0.000001 0.032169
#
#
# Mechanical properties :
#
#
# Convention : Reuss Voigt Hill
#
# Bulk Modulus (GPa) = 28.05214 38.88500 33.46857
# Shear Modulus (GPa) = 20.97875 28.62799 24.80337
#
# Velocity S-wave (km/s) = 3.34691 3.90975 3.63923
# Velocity P-wave (km/s) = 5.46940 6.41440 5.96066
#
# Compressibility (1/GPa) = 0.03564790
#
# Stress axis : x y z
#
# Youngs Moduli (GPa) = 31.17488 33.23548 82.38599
#
# Poissons Ratio (x) = 0.53407 0.36497
# Poissons Ratio (y) = 0.50095 -0.09651
# Poissons Ratio (z) = 0.13810 -0.03893
#
# Static dielectric constant tensor:
#      x y z
#    x 1.618060 0.000000 0.000670 
#    y 0.000000 1.723080 0.000000 
#    z 0.000670 0.000000 1.659560 
# 
# From -- ./inp_files/293064.got.cif
#   From: 2010.05.17/outbox.cif.g08.bks.cpg/sg15_147_cif.got.tgz:293064.got - 2010.06.03 18:47:42.
