data_PCOD9265313
_publ_section_title
;
Structure prediction by ZEFSAII (Michael W. Deem and Ramdas Pophale) SiO2 
 PCOD9265313
Probable space group: C 2/C
;
_chemical_formula_sum "Si O2"
_cell_formula_units_Z 40
_cell_length_a 28.559602
_cell_length_b 8.261583
_cell_length_c 9.102149
_cell_angle_alpha 90.000000
_cell_angle_beta 51.013286
_cell_angle_gamma 90.000000
_cell_volume 1669.334954
_symmetry_space_group_name_H-M "C 2/C"
_symmetry_group_IT_number 15
_symmetry_cell_setting 'monoclinic'
loop_
_space_group_symop_operation_xyz
x,y,z
-x,y,1/2-z
-x,-y,-z
x,-y,1/2+z
1/2+x,1/2+y,z
1/2-x,1/2+y,1/2-z
1/2-x,1/2-y,-z
1/2+x,1/2-y,1/2+z
loop_
_atom_site_type_symbol
_atom_site_label
_atom_site_fract_x
_atom_site_fract_y
_atom_site_fract_z
Si Si1 0.500000 0.252150 0.750000
Si Si2 0.205849 0.658336 0.479640
Si Si3 0.710108 0.639921 0.684616
Si Si4 0.422642 0.073908 0.651970
Si Si5 0.917707 0.181036 0.659550
Si Si6 0.000000 0.757049 0.250000
O O1 0.460165 0.142285 0.717214
O O2 0.543736 0.355295 0.560550
O O3 0.250000 0.750000 0.500000
O O4 0.244932 0.502164 0.356708
O O5 0.190799 0.759498 0.365034
O O6 0.145561 0.627002 0.689199
O O7 0.750000 0.750000 0.500000
O O8 0.647893 0.601565 0.722420
O O9 0.456213 0.150662 0.444313
O O10 0.416695 0.879177 0.659908
O O11 0.955549 0.146114 0.730180
#
# Coordination Sequence:
#
# PCOD9265313 Si02
#       6
#     4   8   8   8   8   4
#     4  10  19  36  60 101 140 189 237 298 351 412
#     4  12  28  47  72 105 144 192 243 297 364 433
#     4  12  26  45  71 103 147 192 240 298 359 425
#     4  11  20  38  64 104 143 180 240 298 345 420
#     4  11  20  36  65 100 143 184 238 292 351 412
#     4  10  23  34  68 109 144 185 239 294 351 418
#
# _framework density 23.961639000000002
#
# number of rings (size 3 to 8) (size 9 to 14) (size 15 to 20)
#    0.000    0.800    4.000    6.000    2.800    0.000 
#    0.000    0.000    0.000    7.200    0.000    0.000 
#    0.000    0.000    0.000    0.000    0.000    0.000 
#
# Total GULP energy -112020.296180 kJ/mol
# GULP energy per Si atom -5601.014809 kJ/mol
# Density = 2.390710 g / cm^3
# Si number density = 23.961639 Si / 1000 Ang^3
#
#
#
# Elastic Constant Matrix: (Units=GPa)
#
#
# Indices 1 2 3 4 5 6 
#
# 1 167.3121 24.7795 77.1140 0.0000 -25.6744 0.0000
# 2 24.7795 52.9756 29.1229 0.0000 -4.7182 0.0000
# 3 77.1140 29.1229 154.9162 0.0000 -11.8470 0.0000
# 4 0.0000 0.0000 0.0000 15.5207 0.0000 -12.7154
# 5 -25.6744 -4.7182 -11.8470 0.0000 59.7780 0.0000
# 6 0.0000 0.0000 0.0000 -12.7154 0.0000 28.1423
#
#
#
# Elastic Compliance Matrix: (Units=1/GPa)
#
#
# Indices 1 2 3 4 5 6 
#
# 1 0.008306 -0.001655 -0.003615 0.000000 0.002720 0.000000
# 2 -0.001655 0.021429 -0.003178 0.000000 0.000351 0.000000
# 3 -0.003615 -0.003178 0.008848 0.000000 -0.000050 0.000000
# 4 0.000000 0.000000 0.000000 0.102296 0.000000 0.046220
# 5 0.002720 0.000351 -0.000050 0.000000 0.017915 0.000000
# 6 0.000000 0.000000 0.000000 0.046220 0.000000 0.056417
#
#
# Mechanical properties :
#
#
# Convention : Reuss Voigt Hill
#
# Bulk Modulus (GPa) = 46.11149 70.80406 58.45778
# Shear Modulus (GPa) = 20.89121 36.96737 28.92929
#
# Velocity S-wave (km/s) = 2.95593 3.93208 3.47842
# Velocity P-wave (km/s) = 5.56199 7.08717 6.37039
#
# Compressibility (1/GPa) = 0.02168657
#
# Stress axis : x y z
#
# Youngs Moduli (GPa) = 120.39995 46.66568 113.01709
#
# Poissons Ratio (x) = 0.07725 0.40858
# Poissons Ratio (y) = 0.19930 0.35913
# Poissons Ratio (z) = 0.43527 0.14829
#
# Static dielectric constant tensor:
#      x y z
#    x 1.820910 0.000000 -0.071320 
#    y 0.000000 2.411940 0.000000 
#    z -0.071320 0.000000 1.944040 
# 
# From -- ./inp_files/68267.got.cif
#   From: 2010.05.17/outbox.cif.g08.bks.cpg/sg15_35_cif.got.tgz:68267.got - 2010.06.03 18:47:42.
