data_PCOD9265277
_publ_section_title
;
Structure prediction by ZEFSAII (Michael W. Deem and Ramdas Pophale) SiO2 
 PCOD9265277
Probable space group: C 2/C
;
_chemical_formula_sum "Si O2"
_cell_formula_units_Z 40
_cell_length_a 24.006552
_cell_length_b 12.014028
_cell_length_c 9.606764
_cell_angle_alpha 90.000000
_cell_angle_beta 42.171454
_cell_angle_gamma 90.000000
_cell_volume 1860.139273
_symmetry_space_group_name_H-M "C 2/C"
_symmetry_group_IT_number 15
_symmetry_cell_setting 'monoclinic'
loop_
_space_group_symop_operation_xyz
x,y,z
-x,y,1/2-z
-x,-y,-z
x,-y,1/2+z
1/2+x,1/2+y,z
1/2-x,1/2+y,1/2-z
1/2-x,1/2-y,-z
1/2+x,1/2-y,1/2+z
loop_
_atom_site_type_symbol
_atom_site_label
_atom_site_fract_x
_atom_site_fract_y
_atom_site_fract_z
Si Si1 0.809067 0.841702 0.958224
Si Si2 0.806281 0.537519 0.402009
Si Si3 0.994318 0.885072 0.592348
Si Si4 0.410322 0.005837 0.963877
Si Si5 0.357419 0.237408 0.143096
O O1 0.772470 0.961523 0.983201
O O2 0.812084 0.817165 0.118031
O O3 0.750000 0.750000 0.000000
O O4 0.903854 0.833955 0.732265
O O5 0.837834 0.539065 0.499689
O O6 0.801039 0.659608 0.344815
O O7 0.883356 0.482190 0.171951
O O8 0.071363 0.805944 0.411326
O O9 0.000000 0.902170 0.750000
O O10 0.000000 0.000000 0.500000
O O11 0.500000 0.966624 0.750000
O O12 0.403899 0.140465 0.967413
#
# Coordination Sequence:
#
# PCOD9265277 Si02
#       5
#     8   8   8   8   8
#     4  11  20  38  64  92 121 166 206 255 317 369
#     4  10  22  35  62  95 123 159 208 265 309 363
#     4  10  23  43  67  86 124 169 210 248 312 384
#     4  10  19  36  59  87 124 162 203 254 309 373
#     4   9  22  38  63  87 124 162 212 248 311 368
#
# _framework density 21.503765999999999
#
# number of rings (size 3 to 8) (size 9 to 14) (size 15 to 20)
#    1.200    0.800    2.000    2.400    0.000    6.400 
#    0.000    7.000    0.000    0.000    0.000    0.000 
#    0.000    0.000    0.000    0.000    0.000    0.000 
#
# Total GULP energy -111547.253214 kJ/mol
# GULP energy per Si atom -5577.362661 kJ/mol
# Density = 2.145482 g / cm^3
# Si number density = 21.503766 Si / 1000 Ang^3
#
#
#
# Elastic Constant Matrix: (Units=GPa)
#
#
# Indices 1 2 3 4 5 6 
#
# 1 79.8927 44.4747 25.0823 0.0000 -33.6192 0.0000
# 2 44.4747 100.3229 34.3196 0.0000 -25.0836 0.0000
# 3 25.0823 34.3196 39.9794 0.0000 -20.8155 0.0000
# 4 0.0000 0.0000 0.0000 41.2619 0.0000 0.5519
# 5 -33.6192 -25.0836 -20.8155 0.0000 32.4849 0.0000
# 6 0.0000 0.0000 0.0000 0.5519 0.0000 28.6802
#
#
#
# Elastic Compliance Matrix: (Units=1/GPa)
#
#
# Indices 1 2 3 4 5 6 
#
# 1 0.024481 -0.005754 0.000688 0.000000 0.021334 0.000000
# 2 -0.005754 0.015960 -0.010167 0.000000 -0.000146 0.000000
# 3 0.000688 -0.010167 0.044407 0.000000 0.021317 0.000000
# 4 0.000000 0.000000 0.000000 0.024242 0.000000 -0.000467
# 5 0.021334 -0.000146 0.021317 0.000000 0.066409 0.000000
# 6 0.000000 0.000000 0.000000 -0.000467 0.000000 0.034876
#
#
# Mechanical properties :
#
#
# Convention : Reuss Voigt Hill
#
# Bulk Modulus (GPa) = 18.38796 47.54978 32.96887
# Shear Modulus (GPa) = 19.30732 28.23996 23.77364
#
# Velocity S-wave (km/s) = 2.99968 3.62782 3.32860
# Velocity P-wave (km/s) = 4.53509 6.30146 5.48978
#
# Compressibility (1/GPa) = 0.05438341
#
# Stress axis : x y z
#
# Youngs Moduli (GPa) = 40.84727 62.65574 22.51884
#
# Poissons Ratio (x) = 0.36054 -0.01549
# Poissons Ratio (y) = 0.23505 0.22894
# Poissons Ratio (z) = -0.02811 0.63699
#
# Static dielectric constant tensor:
#      x y z
#    x 1.756790 0.000000 0.025740 
#    y 0.000000 1.752920 0.000000 
#    z 0.025740 0.000000 1.869790 
# 
# From -- ./inp_files/118283.got.cif
#   From: 2010.05.17/outbox.cif.g08.bks.cpg/sg15_60_cif.got.tgz:118283.got - 2010.06.03 18:47:42.
