data_PCOD9265544
_publ_section_title
;
Structure prediction by ZEFSAII (Michael W. Deem and Ramdas Pophale) SiO2 
 PCOD9265544
Probable space group: C 2/C
;
_chemical_formula_sum "Si O2"
_cell_formula_units_Z 56
_cell_length_a 11.170636
_cell_length_b 16.547541
_cell_length_c 19.296034
_cell_angle_alpha 90.000000
_cell_angle_beta 129.870837
_cell_angle_gamma 90.000000
_cell_volume 2737.493024
_symmetry_space_group_name_H-M "C 2/C"
_symmetry_group_IT_number 15
_symmetry_cell_setting 'monoclinic'
loop_
_space_group_symop_operation_xyz
x,y,z
-x,y,1/2-z
-x,-y,-z
x,-y,1/2+z
1/2+x,1/2+y,z
1/2-x,1/2+y,1/2-z
1/2-x,1/2-y,-z
1/2+x,1/2-y,1/2+z
loop_
_atom_site_type_symbol
_atom_site_label
_atom_site_fract_x
_atom_site_fract_y
_atom_site_fract_z
Si Si1 0.346439 0.612389 0.048047
Si Si2 0.433420 0.138015 0.319439
Si Si3 0.828576 0.798474 0.675622
Si Si4 0.733112 0.057605 0.494993
Si Si5 0.104091 0.206395 0.910173
Si Si6 0.812219 0.050129 0.364114
Si Si7 0.695561 0.362826 0.127440
O O1 0.303570 0.682167 0.085701
O O2 0.530405 0.588171 0.109633
O O3 0.253858 0.530901 0.033198
O O4 0.297321 0.632525 0.952229
O O5 0.299546 0.158473 0.325348
O O6 0.560739 0.083337 0.406798
O O7 0.522328 0.222919 0.335462
O O8 0.339698 0.095720 0.222147
O O9 0.821923 0.704324 0.694999
O O10 0.000000 0.832651 0.750000
O O11 0.814178 0.121172 0.577799
O O12 0.819518 0.057270 0.450884
O O13 0.966182 0.178285 0.909705
O O14 0.250000 0.250000 0.000000
O O15 0.796639 0.954368 0.342195
#
# Coordination Sequence:
#
# PCOD9265544 Si02
#       7
#     8   8   8   8   8   8   8
#     4  11  20  36  61  85 118 158 198 239 301 362
#     4  10  22  35  57  86 118 153 197 246 303 349
#     4  11  23  38  55  84 125 160 187 246 316 354
#     4  10  19  36  62  85 112 152 203 246 287 354
#     4   9  17  33  55  83 114 147 188 244 296 347
#     4  11  19  36  62  89 114 152 201 250 295 350
#     4  10  20  36  59  87 112 157 205 241 293 363
#
# _framework density 20.456672999999999
#
# number of rings (size 3 to 8) (size 9 to 14) (size 15 to 20)
#    0.000    1.714    4.286    1.714    0.000    2.857 
#    0.000    0.000    0.000   20.571    0.000    0.000 
#    0.000    0.000    0.000    0.000    0.000    0.000 
#
# Total GULP energy -155920.077408 kJ/mol
# GULP energy per Si atom -5568.574193 kJ/mol
# Density = 2.041011 g / cm^3
# Si number density = 20.456673 Si / 1000 Ang^3
#
#
#
# Elastic Constant Matrix: (Units=GPa)
#
#
# Indices 1 2 3 4 5 6 
#
# 1 57.4049 19.3825 13.8901 0.0000 16.6548 0.0000
# 2 19.3825 104.0484 10.5812 0.0000 7.8060 0.0000
# 3 13.8901 10.5812 35.0355 0.0000 7.6842 0.0000
# 4 0.0000 0.0000 0.0000 21.1597 0.0000 4.7232
# 5 16.6548 7.8060 7.6842 0.0000 26.6185 0.0000
# 6 0.0000 0.0000 0.0000 4.7232 0.0000 21.0044
#
#
#
# Elastic Compliance Matrix: (Units=1/GPa)
#
#
# Indices 1 2 3 4 5 6 
#
# 1 0.023267 -0.002847 -0.005717 0.000000 -0.012073 0.000000
# 2 -0.002847 0.010384 -0.001847 0.000000 -0.000730 0.000000
# 3 -0.005717 -0.001847 0.032523 0.000000 -0.005270 0.000000
# 4 0.000000 0.000000 0.000000 0.049757 0.000000 -0.011189
# 5 -0.012073 -0.000730 -0.005270 0.000000 0.046857 0.000000
# 6 0.000000 0.000000 0.000000 -0.011189 0.000000 0.050125
#
#
# Mechanical properties :
#
#
# Convention : Reuss Voigt Hill
#
# Bulk Modulus (GPa) = 22.04983 31.57737 26.81360
# Shear Modulus (GPa) = 20.09220 23.93218 22.01219
#
# Velocity S-wave (km/s) = 3.13738 3.42409 3.28386
# Velocity P-wave (km/s) = 4.89146 5.57694 5.24541
#
# Compressibility (1/GPa) = 0.04535183
#
# Stress axis : x y z
#
# Youngs Moduli (GPa) = 42.97861 96.30252 30.74782
#
# Poissons Ratio (x) = 0.27420 0.17578
# Poissons Ratio (y) = 0.12237 0.05679
# Poissons Ratio (z) = 0.24570 0.17788
#
# Static dielectric constant tensor:
#      x y z
#    x 1.729530 0.000000 0.002260 
#    y 0.000000 1.784010 0.000000 
#    z 0.002260 0.000000 1.753820 
# 
# From -- ./inp_files/239608.got.cif
#   From: 2010.05.17/outbox.cif.g08.bks.cpg/sg15_120_cif.got.tgz:239608.got - 2010.06.03 18:47:42.
