data_PCOD9265892
_publ_section_title
;
Structure prediction by ZEFSAII (Michael W. Deem and Ramdas Pophale) SiO2 
 PCOD9265892
Probable space group: C 2/C
;
_chemical_formula_sum "Si O2"
_cell_formula_units_Z 56
_cell_length_a 14.282724
_cell_length_b 7.122761
_cell_length_c 23.392250
_cell_angle_alpha 90.000000
_cell_angle_beta 71.619163
_cell_angle_gamma 90.000000
_cell_volume 2258.339197
_symmetry_space_group_name_H-M "C 2/C"
_symmetry_group_IT_number 15
_symmetry_cell_setting 'monoclinic'
loop_
_space_group_symop_operation_xyz
x,y,z
-x,y,1/2-z
-x,-y,-z
x,-y,1/2+z
1/2+x,1/2+y,z
1/2-x,1/2+y,1/2-z
1/2-x,1/2-y,-z
1/2+x,1/2-y,1/2+z
loop_
_atom_site_type_symbol
_atom_site_label
_atom_site_fract_x
_atom_site_fract_y
_atom_site_fract_z
Si Si1 0.322694 0.025258 0.970134
Si Si2 0.866791 0.244731 0.105542
Si Si3 0.366890 0.543918 0.694719
Si Si4 0.500000 0.000000 0.000000
Si Si5 0.183884 0.562523 0.301868
Si Si6 0.167172 0.844412 0.077846
Si Si7 0.000000 0.208389 0.250000
Si Si8 0.656043 0.709225 0.139017
O O1 0.385709 0.841264 0.935844
O O2 0.314055 0.168272 0.920719
O O3 0.220373 0.948098 0.014297
O O4 0.389497 0.091312 0.009476
O O5 0.881956 0.038614 0.128523
O O6 0.947879 0.329211 0.048097
O O7 0.866109 0.382789 0.160694
O O8 0.758111 0.264311 0.098422
O O9 0.253935 0.501506 0.736641
O O10 0.385632 0.763906 0.699228
O O11 0.430103 0.425551 0.726808
O O12 0.253634 0.651380 0.338116
O O13 0.115334 0.008249 0.123080
O O14 0.072674 0.311697 0.192441
#
# Coordination Sequence:
#
# PCOD9265892 Si02
#       8
#     8   8   8   4   8   8   4   8
#     4  10  19  37  57  82 110 147 188 231 283 331
#     4  10  20  38  58  84 115 147 191 237 282 344
#     4  11  20  39  58  83 113 152 187 246 281 344
#     4  10  22  36  56  84 120 152 184 234 292 346
#     4  10  21  35  62  84 107 149 203 229 289 337
#     4   9  20  35  60  83 106 143 193 235 271 336
#     4  10  24  36  52  84 120 144 188 230 292 338
#     4  10  20  38  55  81 113 147 184 239 278 340
#
# _framework density 24.796983000000001
#
# number of rings (size 3 to 8) (size 9 to 14) (size 15 to 20)
#    0.000    2.000    1.429    2.143    0.000    1.143 
#    0.000    2.857    0.000    0.000    0.000    0.000 
#    0.000    0.000    0.000    0.000    0.000    0.000 
#
# Total GULP energy -156059.665952 kJ/mol
# GULP energy per Si atom -5573.559498 kJ/mol
# Density = 2.474054 g / cm^3
# Si number density = 24.796983 Si / 1000 Ang^3
#
#
#
# Elastic Constant Matrix: (Units=GPa)
#
#
# Indices 1 2 3 4 5 6 
#
# 1 26.4681 -3.2660 4.6295 0.0000 -2.6799 0.0000
# 2 -3.2660 76.6472 18.5462 0.0000 -0.3200 0.0000
# 3 4.6295 18.5462 62.9575 0.0000 2.5799 0.0000
# 4 0.0000 0.0000 0.0000 36.7119 0.0000 5.3794
# 5 -2.6799 -0.3200 2.5799 0.0000 21.8462 0.0000
# 6 0.0000 0.0000 0.0000 5.3794 0.0000 9.2829
#
#
#
# Elastic Compliance Matrix: (Units=1/GPa)
#
#
# Indices 1 2 3 4 5 6 
#
# 1 0.039326 0.002638 -0.003887 0.000000 0.005322 0.000000
# 2 0.002638 0.014236 -0.004431 0.000000 0.001055 0.000000
# 3 -0.003887 -0.004431 0.017582 0.000000 -0.002618 0.000000
# 4 0.000000 0.000000 0.000000 0.029767 0.000000 -0.017250
# 5 0.005322 0.001055 -0.002618 0.000000 0.046752 0.000000
# 6 0.000000 0.000000 0.000000 -0.017250 0.000000 0.117721
#
#
# Mechanical properties :
#
#
# Convention : Reuss Voigt Hill
#
# Bulk Modulus (GPa) = 16.72678 22.87694 19.80186
# Shear Modulus (GPa) = 16.85372 23.31240 20.08306
#
# Velocity S-wave (km/s) = 2.60987 3.06948 2.84896
# Velocity P-wave (km/s) = 3.98021 4.66990 4.33878
#
# Compressibility (1/GPa) = 0.05978437
#
# Stress axis : x y z
#
# Youngs Moduli (GPa) = 25.42875 70.24564 56.87598
#
# Poissons Ratio (x) = -0.18534 0.22108
# Poissons Ratio (y) = -0.06709 0.25201
# Poissons Ratio (z) = 0.09884 0.31125
#
# Static dielectric constant tensor:
#      x y z
#    x 2.020370 0.000000 0.060820 
#    y 0.000000 2.028370 0.000000 
#    z 0.060820 0.000000 2.029530 
# 
# From -- ./inp_files/297745.got.cif
#   From: 2010.05.17/outbox.cif.g08.bks.cpg/sg15_149_cif.got.tgz:297745.got - 2010.06.03 18:47:42.
