data_PCOD9265020
_publ_section_title
;
Structure prediction by ZEFSAII (Michael W. Deem and Ramdas Pophale) SiO2 
 PCOD9265020
Probable space group: C 2/C
;
_chemical_formula_sum "Si O2"
_cell_formula_units_Z 44
_cell_length_a 5.626683
_cell_length_b 20.761485
_cell_length_c 22.783888
_cell_angle_alpha 90.000000
_cell_angle_beta 55.530652
_cell_angle_gamma 90.000000
_cell_volume 2194.279797
_symmetry_space_group_name_H-M "C 2/C"
_symmetry_group_IT_number 15
_symmetry_cell_setting 'monoclinic'
loop_
_space_group_symop_operation_xyz
x,y,z
-x,y,1/2-z
-x,-y,-z
x,-y,1/2+z
1/2+x,1/2+y,z
1/2-x,1/2+y,1/2-z
1/2-x,1/2-y,-z
1/2+x,1/2-y,1/2+z
loop_
_atom_site_type_symbol
_atom_site_label
_atom_site_fract_x
_atom_site_fract_y
_atom_site_fract_z
Si Si1 0.355136 0.944238 0.981652
Si Si2 0.308443 0.954908 0.395064
Si Si3 0.305533 0.271698 0.558634
Si Si4 0.341397 0.148953 0.985547
Si Si5 0.174150 0.236719 0.785897
Si Si6 0.000000 0.392159 0.250000
O O1 0.353257 0.973985 0.916331
O O2 0.532819 0.879797 0.971425
O O3 0.033199 0.941211 0.052436
O O4 0.500000 0.000000 0.000000
O O5 0.425261 0.902708 0.424975
O O6 0.440827 0.936813 0.314346
O O7 0.250000 0.250000 0.500000
O O8 0.508343 0.214603 0.555074
O O9 0.500778 0.335629 0.535618
O O10 0.017127 0.266344 0.635762
O O11 0.500000 0.262631 0.750000
O O12 0.233548 0.159043 0.781871
O O13 0.000000 0.249311 0.750000
#
# Coordination Sequence:
#
# PCOD9265020 Si02
#       6
#     8   8   8   8   8   4
#     4   9  19  35  56  84 116 159 207 250 309 374
#     4  10  19  36  56  92 118 158 203 264 321 380
#     4  11  22  35  59  94 120 164 215 262 315 390
#     4  10  20  33  59  86 124 156 215 256 311 375
#     4  10  23  38  57  87 137 162 202 262 337 393
#     4  10  20  32  60  88 130 154 198 268 338 382
#
# _framework density 20.052136999999998
#
# number of rings (size 3 to 8) (size 9 to 14) (size 15 to 20)
#    0.545    1.455    0.000    4.364    5.091    1.455 
#    0.000    0.000    0.000    0.000   56.727    0.000 
#    0.000    0.000    0.000    0.000    0.000    0.000 
#
# Total GULP energy -122555.504761 kJ/mol
# GULP energy per Si atom -5570.704762 kJ/mol
# Density = 2.000650 g / cm^3
# Si number density = 20.052137 Si / 1000 Ang^3
#
#
#
# Elastic Constant Matrix: (Units=GPa)
#
#
# Indices 1 2 3 4 5 6 
#
# 1 101.3464 16.3459 55.9960 0.0000 2.2816 0.0000
# 2 16.3459 69.3973 39.1584 0.0000 4.8844 0.0000
# 3 55.9960 39.1584 166.1601 0.0000 11.2463 0.0000
# 4 0.0000 0.0000 0.0000 21.9239 0.0000 -6.0243
# 5 2.2816 4.8844 11.2463 0.0000 29.3739 0.0000
# 6 0.0000 0.0000 0.0000 -6.0243 0.0000 41.2288
#
#
#
# Elastic Compliance Matrix: (Units=1/GPa)
#
#
# Indices 1 2 3 4 5 6 
#
# 1 0.012163 -0.000662 -0.003990 0.000000 0.000693 0.000000
# 2 -0.000662 0.016704 -0.003623 0.000000 -0.001339 0.000000
# 3 -0.003990 -0.003623 0.008372 0.000000 -0.002293 0.000000
# 4 0.000000 0.000000 0.000000 0.047520 0.000000 0.006944
# 5 0.000693 -0.001339 -0.002293 0.000000 0.035091 0.000000
# 6 0.000000 0.000000 0.000000 0.006944 0.000000 0.025269
#
#
# Mechanical properties :
#
#
# Convention : Reuss Voigt Hill
#
# Bulk Modulus (GPa) = 48.33447 62.21161 55.27304
# Shear Modulus (GPa) = 29.66214 33.53223 31.59718
#
# Velocity S-wave (km/s) = 3.85028 4.09375 3.97388
# Velocity P-wave (km/s) = 6.62743 7.31009 6.97711
#
# Compressibility (1/GPa) = 0.02068917
#
# Stress axis : x y z
#
# Youngs Moduli (GPa) = 82.21828 59.86502 119.44907
#
# Poissons Ratio (x) = 0.03965 0.47656
# Poissons Ratio (y) = 0.05446 0.43274
# Poissons Ratio (z) = 0.32802 0.21688
#
# Static dielectric constant tensor:
#      x y z
#    x 1.847200 0.000000 0.013800 
#    y 0.000000 1.794270 0.000000 
#    z 0.013800 0.000000 1.681060 
# 
# From -- ./inp_files/227766.got.cif
#   From: 2010.05.17/outbox.cif.g08.bks.cpg/sg15_114_cif.got.tgz:227766.got - 2010.06.03 18:47:42.
