data_PCOD9265338
_publ_section_title
;
Structure prediction by ZEFSAII (Michael W. Deem and Ramdas Pophale) SiO2 
 PCOD9265338
Probable space group: C 2/C
;
_chemical_formula_sum "Si O2"
_cell_formula_units_Z 60
_cell_length_a 26.281663
_cell_length_b 8.802933
_cell_length_c 20.572741
_cell_angle_alpha 90.000000
_cell_angle_beta 38.853731
_cell_angle_gamma 90.000000
_cell_volume 2985.874088
_symmetry_space_group_name_H-M "C 2/C"
_symmetry_group_IT_number 15
_symmetry_cell_setting 'monoclinic'
loop_
_space_group_symop_operation_xyz
x,y,z
-x,y,1/2-z
-x,-y,-z
x,-y,1/2+z
1/2+x,1/2+y,z
1/2-x,1/2+y,1/2-z
1/2-x,1/2-y,-z
1/2+x,1/2-y,1/2+z
loop_
_atom_site_type_symbol
_atom_site_label
_atom_site_fract_x
_atom_site_fract_y
_atom_site_fract_z
Si Si1 0.825086 0.103293 0.107409
Si Si2 0.172551 0.645779 0.084354
Si Si3 0.000000 0.667154 0.250000
Si Si4 0.342116 0.613414 0.242708
Si Si5 0.998497 0.418863 0.899335
Si Si6 0.821578 0.557884 0.561591
Si Si7 0.665776 0.047693 0.722841
Si Si8 0.998498 0.059935 0.927672
O O1 0.845198 0.143473 0.162055
O O2 0.811020 0.262081 0.085124
O O3 0.745473 0.999833 0.183704
O O4 0.906222 0.026432 0.996760
O O5 0.088564 0.742936 0.164108
O O6 0.173665 0.549342 0.148942
O O7 0.250000 0.750000 0.000000
O O8 0.172201 0.537457 0.022024
O O9 0.000291 0.578836 0.181123
O O10 0.258745 0.523692 0.335257
O O11 0.336994 0.772985 0.284153
O O12 0.422600 0.518822 0.182019
O O13 0.005218 0.242368 0.913854
O O14 0.079506 0.503253 0.840899
O O15 0.909279 0.481596 0.005606
O O16 0.000000 0.000000 0.000000
#
# Coordination Sequence:
#
# PCOD9265338 Si02
#       8
#     8   8   4   8   8   8   8   8
#     4  10  20  39  58  82 112 156 198 231 280 351
#     4  10  19  36  60  85 110 146 196 236 276 349
#     4   8  18  32  58  86 102 140 192 236 266 326
#     4  11  23  36  55  87 123 147 185 246 295 333
#     4   9  19  37  61  80 109 152 195 223 281 350
#     4  10  20  38  61  83 113 149 189 241 286 331
#     4  11  22  36  58  86 113 153 193 232 293 346
#     4   9  20  37  56  80 112 148 189 238 278 333
#
# _framework density 20.094619999999999
#
# number of rings (size 3 to 8) (size 9 to 14) (size 15 to 20)
#    0.000    2.133    1.333    1.600    1.867    2.667 
#    0.000   10.667    0.000    4.800    0.000    0.000 
#    0.000    0.000    0.000    0.000    0.000    0.000 
#
# Total GULP energy -167087.880596 kJ/mol
# GULP energy per Si atom -5569.596020 kJ/mol
# Density = 2.004888 g / cm^3
# Si number density = 20.094620 Si / 1000 Ang^3
#
#
#
# Elastic Constant Matrix: (Units=GPa)
#
#
# Indices 1 2 3 4 5 6 
#
# 1 79.9353 36.3588 48.4196 0.0014 -32.4453 -0.0010
# 2 36.3588 69.5347 41.2810 0.0062 -35.3234 -0.0055
# 3 48.4196 41.2810 118.6508 0.0038 -54.0397 -0.0034
# 4 0.0014 0.0062 0.0038 7.9009 -0.0043 -0.7822
# 5 -32.4453 -35.3234 -54.0397 -0.0043 67.8430 0.0034
# 6 -0.0010 -0.0055 -0.0034 -0.7822 0.0034 15.0024
#
#
#
# Elastic Compliance Matrix: (Units=1/GPa)
#
#
# Indices 1 2 3 4 5 6 
#
# 1 0.018963 -0.006032 -0.004614 0.000005 0.002253 -0.000002
# 2 -0.006032 0.022386 -0.002091 -0.000011 0.007106 0.000005
# 3 -0.004614 -0.002091 0.014968 0.000000 0.008627 0.000000
# 4 0.000005 -0.000011 0.000000 0.127225 0.000004 0.006633
# 5 0.002253 0.007106 0.008627 0.000004 0.026389 -0.000001
# 6 -0.000002 0.000005 0.000000 0.006633 -0.000001 0.067002
#
#
# Mechanical properties :
#
#
# Convention : Reuss Voigt Hill
#
# Bulk Modulus (GPa) = 32.42105 57.80439 45.11272
# Shear Modulus (GPa) = 15.99045 27.62003 21.80524
#
# Velocity S-wave (km/s) = 2.82398 3.71145 3.29770
# Velocity P-wave (km/s) = 5.17710 6.86986 6.08265
#
# Compressibility (1/GPa) = 0.03084416
#
# Stress axis : x y z
#
# Youngs Moduli (GPa) = 52.73446 44.67054 66.81109
#
# Poissons Ratio (x) = 0.26944 0.30824
# Poissons Ratio (y) = 0.31808 0.13969
# Poissons Ratio (z) = 0.24330 0.09340
#
# Static dielectric constant tensor:
#      x y z
#    x 1.723350 -0.000010 -0.047820 
#    y -0.000010 1.676410 0.000000 
#    z -0.047820 0.000000 1.763540 
# 
# From -- ./inp_files/257198.got.cif
#   From: 2010.05.17/outbox.cif.g08.bks.cpg/sg15_129_cif.got.tgz:257198.got - 2010.06.03 18:47:42.
