data_PCOD9265852
_publ_section_title
;
Structure prediction by ZEFSAII (Michael W. Deem and Ramdas Pophale) SiO2 
 PCOD9265852
Probable space group: C 2/C
;
_chemical_formula_sum "Si O2"
_cell_formula_units_Z 52
_cell_length_a 10.384769
_cell_length_b 9.451968
_cell_length_c 24.498016
_cell_angle_alpha 90.000000
_cell_angle_beta 106.683019
_cell_angle_gamma 90.000000
_cell_volume 2303.422606
_symmetry_space_group_name_H-M "C 2/C"
_symmetry_group_IT_number 15
_symmetry_cell_setting 'monoclinic'
loop_
_space_group_symop_operation_xyz
x,y,z
-x,y,1/2-z
-x,-y,-z
x,-y,1/2+z
1/2+x,1/2+y,z
1/2-x,1/2+y,1/2-z
1/2-x,1/2-y,-z
1/2+x,1/2-y,1/2+z
loop_
_atom_site_type_symbol
_atom_site_label
_atom_site_fract_x
_atom_site_fract_y
_atom_site_fract_z
Si Si1 0.520798 0.268152 0.988011
Si Si2 0.421199 0.696572 0.823298
Si Si3 0.702909 0.313393 0.305831
Si Si4 0.220711 0.415337 0.616135
Si Si5 0.197238 0.356097 0.426613
Si Si6 0.150665 0.068483 0.119111
Si Si7 0.500000 0.000000 0.500000
O O1 0.578741 0.131830 0.957202
O O2 0.431507 0.370093 0.942031
O O3 0.446622 0.162686 0.018772
O O4 0.656714 0.338231 0.026451
O O5 0.314885 0.673955 0.761163
O O6 0.560902 0.735633 0.813049
O O7 0.371449 0.816387 0.857526
O O8 0.430673 0.551558 0.858606
O O9 0.728193 0.462347 0.338170
O O10 0.811088 0.198139 0.337557
O O11 0.324374 0.297264 0.604164
O O12 0.141293 0.483314 0.556380
O O13 0.218815 0.483158 0.387903
#
# Coordination Sequence:
#
# PCOD9265852 Si02
#       7
#     8   8   8   8   8   8   4
#     4  10  19  37  55  82 118 150 190 237 284 353
#     4  10  24  40  58  87 120 150 203 255 288 352
#     4  11  22  39  62  86 115 159 198 245 305 348
#     4  10  20  40  58  84 121 154 191 248 299 349
#     4   9  21  35  58  82 117 152 188 237 289 344
#     4  11  21  37  61  84 110 155 196 234 293 353
#     4  10  20  34  58  86 118 152 188 240 298 348
#
# _framework density 22.575099999999999
#
# number of rings (size 3 to 8) (size 9 to 14) (size 15 to 20)
#    0.000    1.846    1.538    2.308    2.154    0.000 
#    0.000    1.538    0.000    7.385    0.000    0.000 
#    0.000    0.000    0.000    0.000    0.000    0.000 
#
# Total GULP energy -144866.412903 kJ/mol
# GULP energy per Si atom -5571.785112 kJ/mol
# Density = 2.252372 g / cm^3
# Si number density = 22.575100 Si / 1000 Ang^3
#
#
#
# Elastic Constant Matrix: (Units=GPa)
#
#
# Indices 1 2 3 4 5 6 
#
# 1 34.7593 21.0090 -1.1068 0.0000 -10.6146 0.0000
# 2 21.0090 109.2665 32.8660 0.0000 7.0175 0.0000
# 3 -1.1068 32.8660 81.9590 0.0000 0.5074 0.0000
# 4 0.0000 0.0000 0.0000 36.0419 0.0000 1.9665
# 5 -10.6146 7.0175 0.5074 0.0000 27.8973 0.0000
# 6 0.0000 0.0000 0.0000 1.9665 0.0000 20.3910
#
#
#
# Elastic Compliance Matrix: (Units=1/GPa)
#
#
# Indices 1 2 3 4 5 6 
#
# 1 0.040671 -0.010357 0.004591 0.000000 0.017996 0.000000
# 2 -0.010357 0.013228 -0.005400 0.000000 -0.007170 0.000000
# 3 0.004591 -0.005400 0.014411 0.000000 0.002843 0.000000
# 4 0.000000 0.000000 0.000000 0.027892 0.000000 -0.002690
# 5 0.017996 -0.007170 0.002843 0.000000 0.044445 0.000000
# 6 0.000000 0.000000 0.000000 -0.002690 0.000000 0.049301
#
#
# Mechanical properties :
#
#
# Convention : Reuss Voigt Hill
#
# Bulk Modulus (GPa) = 21.74936 36.83570 29.29253
# Shear Modulus (GPa) = 21.96787 28.41381 25.19084
#
# Velocity S-wave (km/s) = 3.12284 3.55157 3.34409
# Velocity P-wave (km/s) = 4.76004 5.75939 5.28340
#
# Compressibility (1/GPa) = 0.04597836
#
# Stress axis : x y z
#
# Youngs Moduli (GPa) = 24.58770 75.59762 69.39133
#
# Poissons Ratio (x) = 0.78293 -0.31856
# Poissons Ratio (y) = 0.25464 0.37471
# Poissons Ratio (z) = -0.11288 0.40822
#
# Static dielectric constant tensor:
#      x y z
#    x 1.964740 0.000000 -0.073320 
#    y 0.000000 2.017970 0.000000 
#    z -0.073320 0.000000 1.900290 
# 
# From -- ./inp_files/291699.got.cif
#   From: 2010.05.17/outbox.cif.g08.bks.cpg/sg15_146_cif.got.tgz:291699.got - 2010.06.03 18:47:42.
