data_PCOD9265563
_publ_section_title
;
Structure prediction by ZEFSAII (Michael W. Deem and Ramdas Pophale) SiO2 
 PCOD9265563
Probable space group: C 2/C
;
_chemical_formula_sum "Si O2"
_cell_formula_units_Z 40
_cell_length_a 5.292691
_cell_length_b 16.495484
_cell_length_c 18.587630
_cell_angle_alpha 90.000000
_cell_angle_beta 95.809693
_cell_angle_gamma 90.000000
_cell_volume 1614.466961
_symmetry_space_group_name_H-M "C 2/C"
_symmetry_group_IT_number 15
_symmetry_cell_setting 'monoclinic'
loop_
_space_group_symop_operation_xyz
x,y,z
-x,y,1/2-z
-x,-y,-z
x,-y,1/2+z
1/2+x,1/2+y,z
1/2-x,1/2+y,1/2-z
1/2-x,1/2-y,-z
1/2+x,1/2-y,1/2+z
loop_
_atom_site_type_symbol
_atom_site_label
_atom_site_fract_x
_atom_site_fract_y
_atom_site_fract_z
Si Si1 0.763359 0.753439 0.289909
Si Si2 0.769465 0.553235 0.935609
Si Si3 0.787679 0.848219 0.428358
Si Si4 0.521246 0.600316 0.070969
Si Si5 0.758394 0.076383 0.271449
O O1 0.500000 0.784999 0.250000
O O2 0.767594 0.774363 0.373512
O O3 0.763474 0.656468 0.278964
O O4 0.000000 0.783819 0.250000
O O5 0.516510 0.598697 0.900378
O O6 0.711471 0.460016 0.916378
O O7 0.025218 0.600881 0.924068
O O8 0.718389 0.557524 0.020709
O O9 0.898482 0.834252 0.512390
O O10 0.681340 0.611452 0.147636
O O11 0.500000 0.029528 0.250000
O O12 0.000000 0.028417 0.250000
#
# Coordination Sequence:
#
# PCOD9265563 Si02
#       5
#     8   8   8   8   8
#     4  10  21  40  58  82 125 165 205 257 304 359
#     4   9  20  34  65  89 118 147 209 257 305 362
#     4  10  19  36  62  88 116 160 202 257 306 360
#     4   9  21  37  64  88 122 157 209 249 310 369
#     4  10  23  39  59  84 125 166 204 255 305 367
#
# _framework density 24.775981000000002
#
# number of rings (size 3 to 8) (size 9 to 14) (size 15 to 20)
#    1.200    1.200    0.000    1.800    2.800    0.000 
#    0.000   12.000    0.000    0.000    0.000    0.000 
#    0.000    0.000    0.000    0.000    0.000    0.000 
#
# Total GULP energy -111477.643279 kJ/mol
# GULP energy per Si atom -5573.882164 kJ/mol
# Density = 2.471959 g / cm^3
# Si number density = 24.775981 Si / 1000 Ang^3
#
#
#
# Elastic Constant Matrix: (Units=GPa)
#
#
# Indices 1 2 3 4 5 6 
#
# 1 216.5956 7.7106 49.4970 0.0000 0.6686 0.0000
# 2 7.7106 29.7293 48.6809 0.0000 -2.1226 0.0000
# 3 49.4970 48.6809 156.4028 0.0000 13.7340 0.0000
# 4 0.0000 0.0000 0.0000 32.0065 0.0000 1.1313
# 5 0.6686 -2.1226 13.7340 0.0000 26.4763 0.0000
# 6 0.0000 0.0000 0.0000 1.1313 0.0000 -4.6100
#
#
#
# Elastic Compliance Matrix: (Units=1/GPa)
#
#
# Indices 1 2 3 4 5 6 
#
# 1 0.005137 0.003420 -0.002832 0.000000 0.001614 0.000000
# 2 0.003420 0.079451 -0.027622 0.000000 0.020611 0.000000
# 3 -0.002832 -0.027622 0.016843 0.000000 -0.010880 0.000000
# 4 0.000000 0.000000 0.000000 0.030975 0.000000 0.007602
# 5 0.001614 0.020611 -0.010880 0.000000 0.045025 0.000000
# 6 0.000000 0.000000 0.000000 0.007602 0.000000 -0.215054
#
#
# Mechanical properties :
#
#
# Convention : Reuss Voigt Hill
#
# Bulk Modulus (GPa) = 21.11309 68.27829 44.69569
# Shear Modulus (GPa) = 155.12289 30.56385 92.84337
#
# Velocity S-wave (km/s) = 7.92124 3.51609 6.12817
# Velocity P-wave (km/s) = 9.60217 6.64093 8.25541
#
# Compressibility (1/GPa) = 0.04736398
#
# Stress axis : x y z
#
# Youngs Moduli (GPa) = 194.65285 12.58637 59.37284
#
# Poissons Ratio (x) = -0.04305 0.16815
# Poissons Ratio (y) = -0.66575 1.63998
# Poissons Ratio (z) = 0.55127 0.34766
#
# Static dielectric constant tensor:
#      x y z
#    x 2.152500 0.000000 -0.026040 
#    y 0.000000 2.033690 0.000000 
#    z -0.026040 0.000000 2.005250 
# 
# From -- ./inp_files/184343.got.cif
#   From: 2010.05.17/outbox.cif.g08.bks.cpg/sg15_93_cif.got.tgz:184343.got - 2010.06.03 18:47:42.
