data_PCOD9265962
_publ_section_title
;
Structure prediction by ZEFSAII (Michael W. Deem and Ramdas Pophale) SiO2 
 PCOD9265962
Probable space group: C 2/C
;
_chemical_formula_sum "Si O2"
_cell_formula_units_Z 48
_cell_length_a 10.155858
_cell_length_b 12.535365
_cell_length_c 17.201950
_cell_angle_alpha 90.000000
_cell_angle_beta 122.590764
_cell_angle_gamma 90.000000
_cell_volume 1845.106416
_symmetry_space_group_name_H-M "C 2/C"
_symmetry_group_IT_number 15
_symmetry_cell_setting 'monoclinic'
loop_
_space_group_symop_operation_xyz
x,y,z
-x,y,1/2-z
-x,-y,-z
x,-y,1/2+z
1/2+x,1/2+y,z
1/2-x,1/2+y,1/2-z
1/2-x,1/2-y,-z
1/2+x,1/2-y,1/2+z
loop_
_atom_site_type_symbol
_atom_site_label
_atom_site_fract_x
_atom_site_fract_y
_atom_site_fract_z
Si Si1 0.650890 0.633867 0.190586
Si Si2 0.427199 0.056343 0.552329
Si Si3 0.296675 0.304546 0.620026
Si Si4 0.644573 0.398997 0.132108
Si Si5 0.799071 0.873707 0.015210
Si Si6 0.751383 0.349674 0.327073
O O1 0.724947 0.642045 0.301003
O O2 0.468822 0.662223 0.147280
O O3 0.676424 0.521233 0.159770
O O4 0.719057 0.724062 0.156462
O O5 0.325311 0.150857 0.481264
O O6 0.580269 0.100495 0.644445
O O7 0.500000 0.000000 0.500000
O O8 0.319611 0.963449 0.554397
O O9 0.266154 0.178795 0.627305
O O10 0.474597 0.385618 0.040413
O O11 0.636835 0.357035 0.218435
O O12 0.801828 0.900435 0.109410
O O13 0.750000 0.750000 0.000000
#
# Coordination Sequence:
#
# PCOD9265962 Si02
#       6
#     8   8   8   8   8   8
#     4  10  21  40  63  91 121 168 206 261 322 381
#     4  10  19  37  58  86 121 164 199 258 311 372
#     4  10  21  38  64  90 124 164 213 253 320 386
#     4  11  21  39  66  92 122 167 212 260 315 391
#     4  11  22  39  61  92 123 166 214 263 315 381
#     4  10  23  38  62  92 124 162 213 258 320 382
#
# _framework density 26.014758
#
# number of rings (size 3 to 8) (size 9 to 14) (size 15 to 20)
#    0.000    1.667    1.667    4.500    2.333    2.000 
#    3.000    1.667   11.000    0.000    0.000    0.000 
#    0.000    0.000    0.000    0.000    0.000    0.000 
#
# Total GULP energy -134385.743704 kJ/mol
# GULP energy per Si atom -5599.405988 kJ/mol
# Density = 2.595555 g / cm^3
# Si number density = 26.014758 Si / 1000 Ang^3
#
#
#
# Elastic Constant Matrix: (Units=GPa)
#
#
# Indices 1 2 3 4 5 6 
#
# 1 89.8835 34.9539 27.4605 0.0000 -10.0229 0.0000
# 2 34.9539 211.7779 23.5672 0.0000 14.3696 0.0000
# 3 27.4605 23.5672 90.7749 0.0000 9.8571 0.0000
# 4 0.0000 0.0000 0.0000 39.4202 0.0000 3.1499
# 5 -10.0229 14.3696 9.8571 0.0000 47.8656 0.0000
# 6 0.0000 0.0000 0.0000 3.1499 0.0000 41.9485
#
#
#
# Elastic Compliance Matrix: (Units=1/GPa)
#
#
# Indices 1 2 3 4 5 6 
#
# 1 0.013663 -0.002097 -0.004059 0.000000 0.004326 0.000000
# 2 -0.002097 0.005256 -0.000523 0.000000 -0.001909 0.000000
# 3 -0.004059 -0.000523 0.012740 0.000000 -0.003317 0.000000
# 4 0.000000 0.000000 0.000000 0.025521 0.000000 -0.001916
# 5 0.004326 -0.001909 -0.003317 0.000000 0.023054 0.000000
# 6 0.000000 0.000000 0.000000 -0.001916 0.000000 0.023983
#
#
# Mechanical properties :
#
#
# Convention : Reuss Voigt Hill
#
# Bulk Modulus (GPa) = 54.63882 62.71107 58.67494
# Shear Modulus (GPa) = 40.42874 46.27717 43.35296
#
# Velocity S-wave (km/s) = 3.94645 4.22225 4.08668
# Velocity P-wave (km/s) = 6.46641 6.92302 6.69861
#
# Compressibility (1/GPa) = 0.01830201
#
# Stress axis : x y z
#
# Youngs Moduli (GPa) = 73.18802 190.26704 78.49325
#
# Poissons Ratio (x) = 0.39900 0.31858
# Poissons Ratio (y) = 0.15348 0.04104
# Poissons Ratio (z) = 0.29705 0.09947
#
# Static dielectric constant tensor:
#      x y z
#    x 2.118280 0.000000 -0.035570 
#    y 0.000000 2.055280 0.000000 
#    z -0.035570 0.000000 2.046570 
# 
# From -- ./inp_files/237757.got.cif
#   From: 2010.05.17/outbox.cif.g08.bks.cpg/sg15_119_cif.got.tgz:237757.got - 2010.06.03 18:47:42.
