data_PCOD9265934
_publ_section_title
;
Structure prediction by ZEFSAII (Michael W. Deem and Ramdas Pophale) SiO2 
 PCOD9265934
Probable space group: C 2/C
;
_chemical_formula_sum "Si O2"
_cell_formula_units_Z 56
_cell_length_a 9.431743
_cell_length_b 30.413203
_cell_length_c 21.898207
_cell_angle_alpha 90.000000
_cell_angle_beta 28.742827
_cell_angle_gamma 90.000000
_cell_volume 3020.636687
_symmetry_space_group_name_H-M "C 2/C"
_symmetry_group_IT_number 15
_symmetry_cell_setting 'monoclinic'
loop_
_space_group_symop_operation_xyz
x,y,z
-x,y,1/2-z
-x,-y,-z
x,-y,1/2+z
1/2+x,1/2+y,z
1/2-x,1/2+y,1/2-z
1/2-x,1/2-y,-z
1/2+x,1/2-y,1/2+z
loop_
_atom_site_type_symbol
_atom_site_label
_atom_site_fract_x
_atom_site_fract_y
_atom_site_fract_z
Si Si1 0.806459 0.678354 0.152646
Si Si2 0.152446 0.967581 0.868245
Si Si3 0.716277 0.420931 0.722166
Si Si4 0.346286 0.657403 0.629656
Si Si5 0.833296 0.809809 0.373173
Si Si6 0.318121 0.792656 0.877509
Si Si7 0.405663 0.439551 0.474209
O O1 0.500000 0.700256 0.250000
O O2 0.730764 0.631578 0.211034
O O3 0.980142 0.705051 0.138177
O O4 0.024933 0.669881 0.013164
O O5 0.500000 0.971755 0.750000
O O6 0.098299 0.935928 0.832071
O O7 0.033442 0.947706 0.976510
O O8 0.031702 0.015834 0.898093
O O9 0.500000 0.436893 0.750000
O O10 0.056684 0.436679 0.591720
O O11 0.448856 0.683037 0.651807
O O12 0.534548 0.678576 0.502800
O O13 0.447450 0.606607 0.598951
O O14 0.000000 0.660359 0.750000
O O15 0.754702 0.758666 0.391308
O O16 0.000000 0.826833 0.250000
O O17 0.500000 0.809389 0.750000
#
# Coordination Sequence:
#
# PCOD9265934 Si02
#       7
#     8   8   8   8   8   8   8
#     4  10  20  36  60  84 115 154 198 236 289 348
#     4   9  20  35  58  84 116 150 190 249 290 343
#     4  10  20  35  58  85 115 150 200 237 289 347
#     4  11  22  37  59  87 117 150 200 241 290 356
#     4  10  22  41  56  84 123 155 189 244 300 346
#     4  10  22  37  61  87 114 152 199 243 293 344
#     4  10  19  37  58  82 117 152 193 240 300 341
#
# _framework density 18.539138000000001
#
# number of rings (size 3 to 8) (size 9 to 14) (size 15 to 20)
#    0.000    2.000    2.857    2.143    2.000    4.000 
#    2.571    3.571    0.000    0.000    0.000    0.000 
#    0.000    0.000    0.000    0.000    0.000    0.000 
#
# Total GULP energy -156085.072681 kJ/mol
# GULP energy per Si atom -5574.466881 kJ/mol
# Density = 1.849694 g / cm^3
# Si number density = 18.539138 Si / 1000 Ang^3
#
#
#
# Elastic Constant Matrix: (Units=GPa)
#
#
# Indices 1 2 3 4 5 6 
#
# 1 66.2248 7.5297 44.5035 -0.0059 -5.9169 -0.0005
# 2 7.5297 64.4652 17.7107 -0.0067 6.9068 -0.0013
# 3 44.5035 17.7107 106.0798 -0.0431 4.4203 -0.0078
# 4 -0.0059 -0.0067 -0.0431 68.2661 0.0064 6.9997
# 5 -5.9169 6.9068 4.4203 0.0064 35.0730 0.0009
# 6 -0.0005 -0.0013 -0.0078 6.9997 0.0009 11.3419
#
#
#
# Elastic Compliance Matrix: (Units=1/GPa)
#
#
# Indices 1 2 3 4 5 6 
#
# 1 0.021840 -0.000533 -0.009280 -0.000004 0.004959 -0.000003
# 2 -0.000533 0.016564 -0.002415 0.000000 -0.003047 0.000000
# 3 -0.009280 -0.002415 0.013842 0.000008 -0.002834 0.000004
# 4 -0.000004 0.000000 0.000008 0.015638 -0.000004 -0.009651
# 5 0.004959 -0.003047 -0.002834 -0.000004 0.030306 -0.000002
# 6 -0.000003 0.000000 0.000004 -0.009651 -0.000002 0.094125
#
#
# Mechanical properties :
#
#
# Convention : Reuss Voigt Hill
#
# Bulk Modulus (GPa) = 35.98411 41.80640 38.89526
# Shear Modulus (GPa) = 22.12047 34.07123 28.09585
#
# Velocity S-wave (km/s) = 3.45799 4.29161 3.89715
# Velocity P-wave (km/s) = 5.94941 6.86706 6.42464
#
# Compressibility (1/GPa) = 0.02779004
#
# Stress axis : x y z
#
# Youngs Moduli (GPa) = 45.78725 60.37017 72.24634
#
# Poissons Ratio (x) = 0.03216 0.67047
# Poissons Ratio (y) = 0.02439 0.17448
# Poissons Ratio (z) = 0.42492 0.14580
#
# Static dielectric constant tensor:
#      x y z
#    x 1.638090 0.000000 0.004620 
#    y 0.000000 1.640290 0.000000 
#    z 0.004620 0.000000 1.676380 
# 
# From -- ./inp_files/234921.got.cif
#   From: 2010.05.17/outbox.cif.g08.bks.cpg/sg15_118_cif.got.tgz:234921.got - 2010.06.03 18:47:42.
