data_PCOD9265602
_publ_section_title
;
Structure prediction by ZEFSAII (Michael W. Deem and Ramdas Pophale) SiO2 
 PCOD9265602
Probable space group: C 2/C
;
_chemical_formula_sum "Si O2"
_cell_formula_units_Z 56
_cell_length_a 9.345128
_cell_length_b 20.025859
_cell_length_c 17.067296
_cell_angle_alpha 90.000000
_cell_angle_beta 107.349052
_cell_angle_gamma 90.000000
_cell_volume 3048.735365
_symmetry_space_group_name_H-M "C 2/C"
_symmetry_group_IT_number 15
_symmetry_cell_setting 'monoclinic'
loop_
_space_group_symop_operation_xyz
x,y,z
-x,y,1/2-z
-x,-y,-z
x,-y,1/2+z
1/2+x,1/2+y,z
1/2-x,1/2+y,1/2-z
1/2-x,1/2-y,-z
1/2+x,1/2-y,1/2+z
loop_
_atom_site_type_symbol
_atom_site_label
_atom_site_fract_x
_atom_site_fract_y
_atom_site_fract_z
Si Si1 0.183814 0.422828 0.515190
Si Si2 0.666740 0.934795 0.072633
Si Si3 0.687409 0.677435 0.010081
Si Si4 0.659064 0.663327 0.591896
Si Si5 0.285642 0.691938 0.139639
Si Si6 0.843106 0.361614 0.272767
Si Si7 0.137823 0.790967 0.675256
O O1 0.233922 0.494400 0.556692
O O2 0.273920 0.390171 0.457962
O O3 0.198157 0.367646 0.585041
O O4 0.013288 0.433911 0.461823
O O5 0.696211 0.914914 0.167282
O O6 0.723706 0.879024 0.021680
O O7 0.696987 0.676168 0.105849
O O8 0.750000 0.750000 0.000000
O O9 0.515867 0.670887 0.953632
O O10 0.731365 0.737224 0.596215
O O11 0.711403 0.642607 0.687303
O O12 0.273383 0.690051 0.231591
O O13 0.463628 0.688212 0.152868
O O14 0.860237 0.290208 0.320503
O O15 0.000000 0.371817 0.250000
#
# Coordination Sequence:
#
# PCOD9265602 Si02
#       7
#     8   8   8   8   8   8   8
#     4  11  22  42  64  88 116 169 214 243 310 383
#     4  11  25  41  59  90 131 161 201 264 312 367
#     4  12  24  39  62  94 130 157 200 266 317 358
#     4  11  22  37  70  90 120 167 209 251 313 375
#     4  10  19  37  64  93 112 156 216 249 290 378
#     4  11  19  40  65  92 122 161 212 259 299 375
#     4  10  19  36  62  93 120 152 200 263 311 348
#
# _framework density 18.368272000000001
#
# number of rings (size 3 to 8) (size 9 to 14) (size 15 to 20)
#    0.000    1.143    7.143    1.286    0.000    1.143 
#    2.571    3.571    0.000    0.000    0.000    0.000 
#    0.000    0.000    0.000    0.000    0.000    0.000 
#
# Total GULP energy -156248.527380 kJ/mol
# GULP energy per Si atom -5580.304549 kJ/mol
# Density = 1.832646 g / cm^3
# Si number density = 18.368272 Si / 1000 Ang^3
#
#
#
# Elastic Constant Matrix: (Units=GPa)
#
#
# Indices 1 2 3 4 5 6 
#
# 1 50.6830 21.5159 23.4358 0.0000 -11.6379 0.0000
# 2 21.5159 123.7481 51.7639 0.0000 -18.2116 0.0000
# 3 23.4358 51.7639 107.9715 0.0000 -20.0241 0.0000
# 4 0.0000 0.0000 0.0000 824.6794 0.0000 -79.2819
# 5 -11.6379 -18.2116 -20.0241 0.0000 30.5739 0.0000
# 6 0.0000 0.0000 0.0000 -79.2819 0.0000 27.4660
#
#
#
# Elastic Compliance Matrix: (Units=1/GPa)
#
#
# Indices 1 2 3 4 5 6 
#
# 1 0.023277 -0.001922 -0.003073 0.000000 0.005702 0.000000
# 2 -0.001922 0.010557 -0.004113 0.000000 0.002863 0.000000
# 3 -0.003073 -0.004113 0.012782 0.000000 0.004752 0.000000
# 4 0.000000 0.000000 0.000000 0.001678 0.000000 0.004845
# 5 0.005702 0.002863 0.004752 0.000000 0.039695 0.000000
# 6 0.000000 0.000000 0.000000 0.004845 0.000000 0.050393
#
#
# Mechanical properties :
#
#
# Convention : Reuss Voigt Hill
#
# Bulk Modulus (GPa) = 35.21310 52.87044 44.04177
# Shear Modulus (GPa) = 30.10850 188.92300 109.51575
#
# Velocity S-wave (km/s) = 4.05304 10.15264 7.72992
# Velocity P-wave (km/s) = 6.41211 12.89500 10.18322
#
# Compressibility (1/GPa) = 0.02839852
#
# Stress axis : x y z
#
# Youngs Moduli (GPa) = 42.96080 94.72406 78.23586
#
# Poissons Ratio (x) = 0.18210 0.24043
# Poissons Ratio (y) = 0.08259 0.32179
# Poissons Ratio (z) = 0.13203 0.38961
#
# Static dielectric constant tensor:
#      x y z
#    x 1.638960 0.000000 -0.020760 
#    y 0.000000 1.626970 0.000000 
#    z -0.020760 0.000000 1.651820 
# 
# From -- ./inp_files/191030.got.cif
#   From: 2010.05.17/outbox.cif.g08.bks.cpg/sg15_96_cif.got.tgz:191030.got - 2010.06.03 18:47:42.
