data_PCOD9265847
_publ_section_title
;
Structure prediction by ZEFSAII (Michael W. Deem and Ramdas Pophale) SiO2 
 PCOD9265847
Probable space group: C 2/C
;
_chemical_formula_sum "Si O2"
_cell_formula_units_Z 48
_cell_length_a 19.279052
_cell_length_b 9.504711
_cell_length_c 12.770651
_cell_angle_alpha 90.000000
_cell_angle_beta 49.718711
_cell_angle_gamma 90.000000
_cell_volume 1785.227541
_symmetry_space_group_name_H-M "C 2/C"
_symmetry_group_IT_number 15
_symmetry_cell_setting 'monoclinic'
loop_
_space_group_symop_operation_xyz
x,y,z
-x,y,1/2-z
-x,-y,-z
x,-y,1/2+z
1/2+x,1/2+y,z
1/2-x,1/2+y,1/2-z
1/2-x,1/2-y,-z
1/2+x,1/2-y,1/2+z
loop_
_atom_site_type_symbol
_atom_site_label
_atom_site_fract_x
_atom_site_fract_y
_atom_site_fract_z
Si Si1 0.970020 0.980776 0.146252
Si Si2 0.635748 0.765891 0.808282
Si Si3 0.668551 0.794933 0.450175
Si Si4 0.157270 0.008914 0.074069
Si Si5 0.349792 0.026735 0.852955
Si Si6 0.479145 0.851853 0.076378
O O1 0.938492 0.818236 0.189970
O O2 0.874656 0.046548 0.276666
O O3 0.059945 0.027054 0.116794
O O4 0.000000 0.000000 0.000000
O O5 0.733103 0.690823 0.702849
O O6 0.651687 0.916082 0.741584
O O7 0.579499 0.781220 0.971059
O O8 0.675486 0.655269 0.517987
O O9 0.643749 0.929162 0.548544
O O10 0.594426 0.781746 0.430764
O O11 0.248461 0.088769 0.956636
O O12 0.430769 0.126590 0.735237
O O13 0.500000 0.000000 0.000000
#
# Coordination Sequence:
#
# PCOD9265847 Si02
#       6
#     8   8   8   8   8   8
#     4  11  21  32  56  85 119 153 203 251 296 347
#     4  10  19  37  54  89 115 154 197 243 301 351
#     4  11  19  37  65  84 120 157 199 259 289 359
#     4  10  20  36  58  87 113 160 208 247 296 358
#     4  10  20  35  60  92 119 151 199 252 309 354
#     4  10  23  35  59  98 123 151 199 253 313 356
#
# _framework density 26.887329999999999
#
# number of rings (size 3 to 8) (size 9 to 14) (size 15 to 20)
#    0.000    1.667    5.000    1.000    2.333    2.667 
#    0.000    0.000    0.000    9.000    0.000    0.000 
#    0.000    0.000    0.000    0.000    0.000    0.000 
#
# Total GULP energy -133724.803126 kJ/mol
# GULP energy per Si atom -5571.866797 kJ/mol
# Density = 2.682613 g / cm^3
# Si number density = 26.887330 Si / 1000 Ang^3
#
#
#
# Elastic Constant Matrix: (Units=GPa)
#
#
# Indices 1 2 3 4 5 6 
#
# 1 80.6889 8.7297 92.5615 0.0000 -20.1724 0.0000
# 2 8.7297 76.7426 36.7934 0.0000 -12.7658 0.0000
# 3 92.5615 36.7934 336.0021 0.0000 -58.4932 0.0000
# 4 0.0000 0.0000 0.0000 37.7230 0.0000 4.7972
# 5 -20.1724 -12.7658 -58.4932 0.0000 28.5613 0.0000
# 6 0.0000 0.0000 0.0000 4.7972 0.0000 2.4392
#
#
#
# Elastic Compliance Matrix: (Units=1/GPa)
#
#
# Indices 1 2 3 4 5 6 
#
# 1 0.018456 0.000736 -0.004411 0.000000 0.004331 0.000000
# 2 0.000736 0.014211 -0.000874 0.000000 0.005081 0.000000
# 3 -0.004411 -0.000874 0.005714 0.000000 0.008195 0.000000
# 4 0.000000 0.000000 0.000000 0.035350 0.000000 -0.069522
# 5 0.004331 0.005081 0.008195 0.000000 0.057126 0.000000
# 6 0.000000 0.000000 0.000000 -0.069522 0.000000 0.546695
#
#
# Mechanical properties :
#
#
# Convention : Reuss Voigt Hill
#
# Bulk Modulus (GPa) = 34.15052 85.51142 59.83097
# Shear Modulus (GPa) = 7.17966 37.43464 22.30715
#
# Velocity S-wave (km/s) = 1.63587 3.73537 2.88349
# Velocity P-wave (km/s) = 4.03696 7.10469 5.77813
#
# Compressibility (1/GPa) = 0.02928213
#
# Stress axis : x y z
#
# Youngs Moduli (GPa) = 54.18175 70.36668 175.01555
#
# Poissons Ratio (x) = -0.05177 0.77200
# Poissons Ratio (y) = -0.03986 0.15302
# Poissons Ratio (z) = 0.23900 0.06153
#
# Static dielectric constant tensor:
#      x y z
#    x 2.198420 0.000000 0.148670 
#    y 0.000000 2.231910 0.000000 
#    z 0.148670 0.000000 2.280510 
# 
# From -- ./inp_files/112945.got.cif
#   From: 2010.05.17/outbox.cif.g08.bks.cpg/sg15_57_cif.got.tgz:112945.got - 2010.06.03 18:47:42.
