data_PCOD9265527
_publ_section_title
;
Structure prediction by ZEFSAII (Michael W. Deem and Ramdas Pophale) SiO2 
 PCOD9265527
Probable space group: C 2/C
;
_chemical_formula_sum "Si O2"
_cell_formula_units_Z 64
_cell_length_a 12.275068
_cell_length_b 29.058181
_cell_length_c 8.004559
_cell_angle_alpha 90.000000
_cell_angle_beta 78.422381
_cell_angle_gamma 90.000000
_cell_volume 2797.063548
_symmetry_space_group_name_H-M "C 2/C"
_symmetry_group_IT_number 15
_symmetry_cell_setting 'monoclinic'
loop_
_space_group_symop_operation_xyz
x,y,z
-x,y,1/2-z
-x,-y,-z
x,-y,1/2+z
1/2+x,1/2+y,z
1/2-x,1/2+y,1/2-z
1/2-x,1/2-y,-z
1/2+x,1/2-y,1/2+z
loop_
_atom_site_type_symbol
_atom_site_label
_atom_site_fract_x
_atom_site_fract_y
_atom_site_fract_z
Si Si1 0.660067 0.100370 0.753013
Si Si2 0.629829 0.991972 0.424450
Si Si3 0.954117 0.690241 0.573536
Si Si4 0.344828 0.858136 0.581258
Si Si5 0.663862 0.709050 0.067193
Si Si6 0.882224 0.884182 0.373967
Si Si7 0.083720 0.787063 0.973078
Si Si8 0.742357 0.933942 0.678655
O O1 0.629826 0.047585 0.785247
O O2 0.611350 0.142927 0.878284
O O3 0.615448 0.110329 0.582049
O O4 0.788785 0.103374 0.767145
O O5 0.678496 0.963117 0.562204
O O6 0.500000 0.000000 0.500000
O O7 0.717167 0.032706 0.346430
O O8 0.890382 0.732854 0.508361
O O9 0.000000 0.703279 0.750000
O O10 0.062015 0.680041 0.429224
O O11 0.235488 0.836830 0.530058
O O12 0.318613 0.886836 0.751285
O O13 0.551488 0.710538 0.995097
O O14 0.629195 0.707130 0.271465
O O15 0.750000 0.750000 0.000000
O O16 0.877190 0.829979 0.428412
O O17 0.853833 0.915247 0.549586
O O18 0.000000 0.892959 0.250000
#
# Coordination Sequence:
#
# PCOD9265527 Si02
#       8
#     8   8   8   8   8   8   8   8
#     4  10  23  41  64  97 138 176 225 289 350 422
#     4  11  23  43  69 101 136 171 219 286 370 437
#     4  10  19  36  61  97 135 176 232 283 344 413
#     4  11  20  38  66  99 133 177 228 290 349 417
#     4  11  19  35  63  99 130 178 236 290 337 409
#     4  11  25  46  62  93 139 187 237 289 343 417
#     4  11  21  37  63  95 131 187 236 283 341 409
#     4  11  24  42  70 101 133 176 228 287 358 437
#
# _framework density 22.881138
#
# number of rings (size 3 to 8) (size 9 to 14) (size 15 to 20)
#    0.000    1.250    3.750    3.375    0.000    3.500 
#    0.000    5.000    0.000    3.000    0.000    0.000 
#    0.000    0.000    0.000    0.000    0.000    0.000 
#
# Total GULP energy -178376.395502 kJ/mol
# GULP energy per Si atom -5574.262359 kJ/mol
# Density = 2.282906 g / cm^3
# Si number density = 22.881138 Si / 1000 Ang^3
#
#
#
# Elastic Constant Matrix: (Units=GPa)
#
#
# Indices 1 2 3 4 5 6 
#
# 1 77.3871 27.7194 26.3668 0.0000 -30.3843 0.0000
# 2 27.7194 124.9756 36.3326 0.0000 -24.0145 0.0000
# 3 26.3668 36.3326 78.7294 0.0000 -19.9124 0.0000
# 4 0.0000 0.0000 0.0000 29.9419 0.0000 0.9671
# 5 -30.3843 -24.0145 -19.9124 0.0000 31.8263 0.0000
# 6 0.0000 0.0000 0.0000 0.9671 0.0000 31.3885
#
#
#
# Elastic Compliance Matrix: (Units=1/GPa)
#
#
# Indices 1 2 3 4 5 6 
#
# 1 0.021051 -0.000511 -0.002173 0.000000 0.018352 0.000000
# 2 -0.000511 0.010012 -0.003162 0.000000 0.005088 0.000000
# 3 -0.002173 -0.003162 0.016347 0.000000 0.005768 0.000000
# 4 0.000000 0.000000 0.000000 0.033431 0.000000 -0.001030
# 5 0.018352 0.005088 0.005768 0.000000 0.056389 0.000000
# 6 0.000000 0.000000 0.000000 -0.001030 0.000000 0.031890
#
#
# Mechanical properties :
#
#
# Convention : Reuss Voigt Hill
#
# Bulk Modulus (GPa) = 27.99668 51.32554 39.66111
# Shear Modulus (GPa) = 25.94451 31.34291 28.64371
#
# Velocity S-wave (km/s) = 3.37097 3.70512 3.54198
# Velocity P-wave (km/s) = 5.23579 6.38623 5.83941
#
# Compressibility (1/GPa) = 0.03571851
#
# Stress axis : x y z
#
# Youngs Moduli (GPa) = 47.50400 99.88070 61.17149
#
# Poissons Ratio (x) = 0.05104 0.13290
# Poissons Ratio (y) = 0.02428 0.19345
# Poissons Ratio (z) = 0.10320 0.31586
#
# Static dielectric constant tensor:
#      x y z
#    x 1.841580 0.000000 -0.029010 
#    y 0.000000 1.935020 0.000000 
#    z -0.029010 0.000000 2.036830 
# 
# From -- ./inp_files/43523.got.cif
#   From: 2010.05.17/outbox.cif.g08.bks.cpg/sg15_22_cif.got.tgz:43523.got - 2010.06.03 18:47:42.
