data_PCOD9265075
_publ_section_title
;
Structure prediction by ZEFSAII (Michael W. Deem and Ramdas Pophale) SiO2 
 PCOD9265075
Probable space group: C 2/C
;
_chemical_formula_sum "Si O2"
_cell_formula_units_Z 64
_cell_length_a 26.705191
_cell_length_b 6.527096
_cell_length_c 17.773715
_cell_angle_alpha 90.000000
_cell_angle_beta 98.083538
_cell_angle_gamma 90.000000
_cell_volume 3067.306776
_symmetry_space_group_name_H-M "C 2/C"
_symmetry_group_IT_number 15
_symmetry_cell_setting 'monoclinic'
loop_
_space_group_symop_operation_xyz
x,y,z
-x,y,1/2-z
-x,-y,-z
x,-y,1/2+z
1/2+x,1/2+y,z
1/2-x,1/2+y,1/2-z
1/2-x,1/2-y,-z
1/2+x,1/2-y,1/2+z
loop_
_atom_site_type_symbol
_atom_site_label
_atom_site_fract_x
_atom_site_fract_y
_atom_site_fract_z
Si Si1 0.803175 0.068009 0.742096
Si Si2 0.461036 0.309600 0.484923
Si Si3 0.871876 0.622974 0.162203
Si Si4 0.802682 0.632954 0.001056
Si Si5 0.791718 0.394613 0.860557
Si Si6 0.105067 0.838744 0.558093
Si Si7 0.133784 0.324134 0.208287
Si Si8 0.959775 0.584961 0.074461
O O1 0.845254 0.200843 0.706412
O O2 0.787685 0.179284 0.816774
O O3 0.754820 0.032789 0.679193
O O4 0.825120 0.847871 0.765447
O O5 0.500000 0.500000 0.500000
O O6 0.408646 0.425380 0.459919
O O7 0.483776 0.173185 0.421813
O O8 0.459022 0.156894 0.555773
O O9 0.832858 0.588971 0.084564
O O10 0.880299 0.426722 0.216664
O O11 0.926795 0.660816 0.137352
O O12 0.750000 0.750000 0.000000
O O13 0.794564 0.426982 0.950125
O O14 0.839032 0.781228 0.958710
O O15 0.841984 0.495469 0.836373
O O16 0.095923 0.787966 0.643513
O O17 0.070048 0.688042 0.501877
#
# Coordination Sequence:
#
# PCOD9265075 Si02
#       8
#     8   8   8   8   8   8   8   8
#     4  11  20  36  56  77 112 159 200 237 280 353
#     4   9  18  36  65  89 108 147 185 239 300 360
#     4  10  22  36  57  84 119 155 190 249 305 340
#     4  10  19  36  57  86 124 155 202 257 287 344
#     4  10  20  35  56  77 111 160 203 238 288 333
#     4   9  20  35  59  87 118 155 194 239 292 358
#     4  10  22  35  55  80 117 157 199 237 282 357
#     4   9  19  38  63  89 116 138 192 246 302 361
#
# _framework density 20.865210999999999
#
# number of rings (size 3 to 8) (size 9 to 14) (size 15 to 20)
#    0.000    2.250    2.500    0.000    0.000    7.000 
#    0.000    1.875    0.000   18.000    0.000    0.000 
#    0.000    0.000    0.000    0.000    0.000    0.000 
#
# Total GULP energy -178321.256286 kJ/mol
# GULP energy per Si atom -5572.539259 kJ/mol
# Density = 2.081772 g / cm^3
# Si number density = 20.865211 Si / 1000 Ang^3
#
#
#
# Elastic Constant Matrix: (Units=GPa)
#
#
# Indices 1 2 3 4 5 6 
#
# 1 61.5265 11.5006 5.3154 0.0000 -21.2287 0.0000
# 2 11.5006 51.2478 10.7343 0.0000 -3.7355 0.0000
# 3 5.3154 10.7343 84.0210 0.0000 -8.4294 0.0000
# 4 0.0000 0.0000 0.0000 18.3185 0.0000 4.9260
# 5 -21.2287 -3.7355 -8.4294 0.0000 19.5447 0.0000
# 6 0.0000 0.0000 0.0000 4.9260 0.0000 21.9355
#
#
#
# Elastic Compliance Matrix: (Units=1/GPa)
#
#
# Indices 1 2 3 4 5 6 
#
# 1 0.027004 -0.004298 0.001778 0.000000 0.029276 0.000000
# 2 -0.004298 0.020887 -0.002576 0.000000 -0.001788 0.000000
# 3 0.001778 -0.002576 0.012817 0.000000 0.006967 0.000000
# 4 0.000000 0.000000 0.000000 0.058098 0.000000 -0.013047
# 5 0.029276 -0.001788 0.006967 0.000000 0.085627 0.000000
# 6 0.000000 0.000000 0.000000 -0.013047 0.000000 0.048518
#
#
# Mechanical properties :
#
#
# Convention : Reuss Voigt Hill
#
# Bulk Modulus (GPa) = 19.79578 27.98841 23.89210
# Shear Modulus (GPa) = 17.85824 23.24274 20.55049
#
# Velocity S-wave (km/s) = 2.92873 3.34121 3.14174
# Velocity P-wave (km/s) = 4.57653 5.32240 4.96349
#
# Compressibility (1/GPa) = 0.05051582
#
# Stress axis : x y z
#
# Youngs Moduli (GPa) = 37.03099 47.87690 78.01935
#
# Poissons Ratio (x) = 0.20580 -0.13871
# Poissons Ratio (y) = 0.15918 0.20097
# Poissons Ratio (z) = -0.06584 0.12332
#
# Static dielectric constant tensor:
#      x y z
#    x 1.827770 0.000000 0.013940 
#    y 0.000000 1.777370 0.000000 
#    z 0.013940 0.000000 1.787070 
# 
# From -- ./inp_files/223903.got.cif
#   From: 2010.05.17/outbox.cif.g08.bks.cpg/sg15_112_cif.got.tgz:223903.got - 2010.06.03 18:47:42.
