data_PCOD9265220
_publ_section_title
;
Structure prediction by ZEFSAII (Michael W. Deem and Ramdas Pophale) SiO2 
 PCOD9265220
Probable space group: C 2/C
;
_chemical_formula_sum "Si O2"
_cell_formula_units_Z 40
_cell_length_a 13.616991
_cell_length_b 14.052521
_cell_length_c 13.650546
_cell_angle_alpha 90.000000
_cell_angle_beta 144.858212
_cell_angle_gamma 90.000000
_cell_volume 1503.514306
_symmetry_space_group_name_H-M "C 2/C"
_symmetry_group_IT_number 15
_symmetry_cell_setting 'monoclinic'
loop_
_space_group_symop_operation_xyz
x,y,z
-x,y,1/2-z
-x,-y,-z
x,-y,1/2+z
1/2+x,1/2+y,z
1/2-x,1/2+y,1/2-z
1/2-x,1/2-y,-z
1/2+x,1/2-y,1/2+z
loop_
_atom_site_type_symbol
_atom_site_label
_atom_site_fract_x
_atom_site_fract_y
_atom_site_fract_z
Si Si1 0.653260 0.719607 0.709565
Si Si2 0.293173 0.378782 0.927769
Si Si3 0.151716 0.348846 0.522255
Si Si4 0.500000 0.475378 0.250000
Si Si5 0.000000 0.220556 0.250000
Si Si6 0.238592 0.486814 0.200033
O O1 0.468946 0.673861 0.541002
O O2 0.661109 0.791878 0.807459
O O3 0.691668 0.788730 0.651102
O O4 0.772739 0.626603 0.810434
O O5 0.250921 0.463687 0.816614
O O6 0.338732 0.417462 0.072490
O O7 0.327969 0.341468 0.602903
O O8 0.111431 0.454123 0.525619
O O9 0.010659 0.293253 0.348037
O O10 0.417511 0.511131 0.286078
#
# Coordination Sequence:
#
# PCOD9265220 Si02
#       6
#     8   8   8   4   4   8
#     4  10  20  38  56  79 113 147 184 226 276 329
#     4  10  22  37  58  84 111 147 186 228 277 326
#     4  10  20  37  56  82 113 144 183 231 278 328
#     4  10  19  36  59  82 110 146 189 228 269 332
#     4  10  21  34  57  84 112 144 183 232 281 326
#     4  10  21  36  58  84 110 149 188 225 274 331
#
# _framework density 26.604337000000001
#
# number of rings (size 3 to 8) (size 9 to 14) (size 15 to 20)
#    0.000    2.000    0.000    5.400    0.000    8.000 
#    0.000   12.000    0.000    0.000    0.000    0.000 
#    0.000    0.000    0.000    0.000    0.000    0.000 
#
# Total GULP energy -111646.069661 kJ/mol
# GULP energy per Si atom -5582.303483 kJ/mol
# Density = 2.654378 g / cm^3
# Si number density = 26.604337 Si / 1000 Ang^3
#
#
#
# Elastic Constant Matrix: (Units=GPa)
#
#
# Indices 1 2 3 4 5 6 
#
# 1 71.9581 20.2322 7.2264 0.0000 -2.9114 0.0001
# 2 20.2322 158.1669 39.4916 0.0000 -32.9390 0.0000
# 3 7.2264 39.4916 112.0265 0.0000 -30.3712 0.0001
# 4 0.0000 0.0000 0.0000 18.9874 0.0000 -66.9258
# 5 -2.9114 -32.9390 -30.3712 0.0000 38.0842 0.0001
# 6 0.0001 0.0000 0.0001 -66.9258 0.0001 -68.0893
#
#
#
# Elastic Compliance Matrix: (Units=1/GPa)
#
#
# Indices 1 2 3 4 5 6 
#
# 1 0.014450 -0.001921 -0.000518 0.000000 -0.000970 0.000000
# 2 -0.001921 0.008087 -0.001111 0.000000 0.005962 0.000000
# 3 -0.000518 -0.001111 0.011585 0.000000 0.008239 0.000000
# 4 0.000000 0.000000 0.000000 0.011797 0.000000 -0.011595
# 5 -0.000970 0.005962 0.008239 0.000000 0.037910 0.000000
# 6 0.000000 0.000000 0.000000 -0.011595 0.000000 -0.003290
#
#
# Mechanical properties :
#
#
# Convention : Reuss Voigt Hill
#
# Bulk Modulus (GPa) = 37.00571 52.89467 44.95019
# Shear Modulus (GPa) = 51.73541 16.14320 33.93931
#
# Velocity S-wave (km/s) = 4.41457 2.46598 3.57558
# Velocity P-wave (km/s) = 6.31858 5.29464 5.82914
#
# Compressibility (1/GPa) = 0.02702285
#
# Stress axis : x y z
#
# Youngs Moduli (GPa) = 69.20475 123.65402 86.31917
#
# Poissons Ratio (x) = 0.23755 0.04470
# Poissons Ratio (y) = 0.13295 0.09587
# Poissons Ratio (z) = 0.03584 0.13733
#
# Static dielectric constant tensor:
#      x y z
#    x 2.200080 0.000000 0.092380 
#    y 0.000000 2.265990 0.000000 
#    z 0.092380 0.000000 2.112970 
# 
# From -- ./inp_files/154176.got.cif
#   From: 2010.05.17/outbox.cif.g08.bks.cpg/sg15_78_cif.got.tgz:154176.got - 2010.06.03 18:47:42.
