data_PCOD9265052
_publ_section_title
;
Structure prediction by ZEFSAII (Michael W. Deem and Ramdas Pophale) SiO2 
 PCOD9265052
Probable space group: C 2/C
;
_chemical_formula_sum "Si O2"
_cell_formula_units_Z 56
_cell_length_a 14.233795
_cell_length_b 12.466886
_cell_length_c 23.408349
_cell_angle_alpha 90.000000
_cell_angle_beta 135.769627
_cell_angle_gamma 90.000000
_cell_volume 2897.488608
_symmetry_space_group_name_H-M "C 2/C"
_symmetry_group_IT_number 15
_symmetry_cell_setting 'monoclinic'
loop_
_space_group_symop_operation_xyz
x,y,z
-x,y,1/2-z
-x,-y,-z
x,-y,1/2+z
1/2+x,1/2+y,z
1/2-x,1/2+y,1/2-z
1/2-x,1/2-y,-z
1/2+x,1/2-y,1/2+z
loop_
_atom_site_type_symbol
_atom_site_label
_atom_site_fract_x
_atom_site_fract_y
_atom_site_fract_z
Si Si1 0.283879 0.499452 0.918599
Si Si2 0.901642 0.580528 0.923297
Si Si3 0.375787 0.402709 0.239832
Si Si4 0.619191 0.797039 0.974189
Si Si5 0.858941 0.343967 0.721657
Si Si6 0.482743 0.005549 0.635427
Si Si7 0.029719 0.915543 0.096381
O O1 0.248559 0.388959 0.870150
O O2 0.139020 0.543001 0.876629
O O3 0.359915 0.569343 0.904556
O O4 0.393038 0.475009 0.015593
O O5 0.752013 0.538766 0.843865
O O6 0.967764 0.592070 0.889287
O O7 0.877080 0.676652 0.957054
O O8 0.000000 0.500000 0.000000
O O9 0.500000 0.404211 0.250000
O O10 0.331158 0.277083 0.230165
O O11 0.420227 0.450708 0.319717
O O12 0.586507 0.907960 0.929047
O O13 0.506267 0.709159 0.914220
O O14 0.750000 0.750000 0.000000
O O15 0.000000 0.332646 0.750000
O O16 0.894059 0.443105 0.779668
#
# Coordination Sequence:
#
# PCOD9265052 Si02
#       7
#     8   8   8   8   8   8   8
#     4  10  21  34  55  83 119 154 190 242 296 352
#     4  10  23  35  56  89 124 157 191 243 312 355
#     4  11  21  34  58  90 116 151 202 255 293 346
#     4  11  19  35  59  84 114 151 195 246 290 342
#     4   9  18  33  56  85 112 148 197 242 295 343
#     4  10  19  36  57  83 118 152 189 241 294 354
#     4  11  21  34  55  87 116 151 199 244 290 351
#
# _framework density 19.327082999999998
#
# number of rings (size 3 to 8) (size 9 to 14) (size 15 to 20)
#    0.000    1.714    2.857    2.571    4.000    0.000 
#    0.000    0.714    0.000    0.000    3.714    0.000 
#    0.000    0.000    0.000    0.000    0.000    0.000 
#
# Total GULP energy -155964.901706 kJ/mol
# GULP energy per Si atom -5570.175061 kJ/mol
# Density = 1.928309 g / cm^3
# Si number density = 19.327083 Si / 1000 Ang^3
#
#
#
# Elastic Constant Matrix: (Units=GPa)
#
#
# Indices 1 2 3 4 5 6 
#
# 1 115.5862 29.0955 37.8658 0.0000 6.7045 0.0000
# 2 29.0955 27.4396 12.6962 0.0000 5.5691 0.0000
# 3 37.8658 12.6962 138.7330 0.0000 -1.0034 0.0000
# 4 0.0000 0.0000 0.0000 20.1488 0.0000 -3.1865
# 5 6.7045 5.5691 -1.0034 0.0000 28.7432 0.0000
# 6 0.0000 0.0000 0.0000 -3.1865 0.0000 22.2896
#
#
#
# Elastic Compliance Matrix: (Units=1/GPa)
#
#
# Indices 1 2 3 4 5 6 
#
# 1 0.012473 -0.012023 -0.002309 0.000000 -0.000660 0.000000
# 2 -0.012023 0.051332 -0.001468 0.000000 -0.007193 0.000000
# 3 -0.002309 -0.001468 0.007981 0.000000 0.001102 0.000000
# 4 0.000000 0.000000 0.000000 0.050779 0.000000 0.007259
# 5 -0.000660 -0.007193 0.001102 0.000000 0.036377 0.000000
# 6 0.000000 0.000000 0.000000 0.007259 0.000000 0.045902
#
#
# Mechanical properties :
#
#
# Convention : Reuss Voigt Hill
#
# Bulk Modulus (GPa) = 24.88499 49.00821 36.94660
# Shear Modulus (GPa) = 20.01304 27.70973 23.86138
#
# Velocity S-wave (km/s) = 3.22140 3.79056 3.51751
# Velocity P-wave (km/s) = 5.17109 6.67609 5.97120
#
# Compressibility (1/GPa) = 0.04018487
#
# Stress axis : x y z
#
# Youngs Moduli (GPa) = 80.17525 19.48121 125.30447
#
# Poissons Ratio (x) = 0.23422 0.28930
# Poissons Ratio (y) = 0.96396 0.18396
# Poissons Ratio (z) = 0.18511 0.02860
#
# Static dielectric constant tensor:
#      x y z
#    x 1.706340 0.000000 -0.029410 
#    y 0.000000 1.696130 0.000000 
#    z -0.029410 0.000000 1.774080 
# 
# From -- ./inp_files/274187.got.cif
#   From: 2010.05.17/outbox.cif.g08.bks.cpg/sg15_138_cif.got.tgz:274187.got - 2010.06.03 18:47:42.
