data_PCOD9265024
_publ_section_title
;
Structure prediction by ZEFSAII (Michael W. Deem and Ramdas Pophale) SiO2 
 PCOD9265024
Probable space group: C 2/C
;
_chemical_formula_sum "Si O2"
_cell_formula_units_Z 60
_cell_length_a 13.696774
_cell_length_b 18.487698
_cell_length_c 24.770083
_cell_angle_alpha 90.000000
_cell_angle_beta 33.327209
_cell_angle_gamma 90.000000
_cell_volume 3446.139022
_symmetry_space_group_name_H-M "C 2/C"
_symmetry_group_IT_number 15
_symmetry_cell_setting 'monoclinic'
loop_
_space_group_symop_operation_xyz
x,y,z
-x,y,1/2-z
-x,-y,-z
x,-y,1/2+z
1/2+x,1/2+y,z
1/2-x,1/2+y,1/2-z
1/2-x,1/2-y,-z
1/2+x,1/2-y,1/2+z
loop_
_atom_site_type_symbol
_atom_site_label
_atom_site_fract_x
_atom_site_fract_y
_atom_site_fract_z
Si Si1 0.558055 0.190501 0.505981
Si Si2 0.185452 0.342442 0.638612
Si Si3 0.706995 0.438611 0.554428
Si Si4 0.822134 0.828372 0.363128
Si Si5 0.837937 0.588907 0.463063
Si Si6 0.708042 0.839475 0.825747
Si Si7 0.550208 0.671452 0.385349
Si Si8 0.500000 0.438759 0.750000
O O1 0.668920 0.124249 0.478666
O O2 0.354059 0.165899 0.592455
O O3 0.631342 0.207477 0.411364
O O4 0.562948 0.259619 0.542626
O O5 0.162945 0.257862 0.633131
O O6 0.222935 0.385739 0.567390
O O7 0.333419 0.348595 0.616244
O O8 0.000000 0.366970 0.750000
O O9 0.816573 0.502993 0.477457
O O10 0.568593 0.395358 0.580527
O O11 0.603463 0.475117 0.653093
O O12 0.779904 0.870893 0.437186
O O13 0.000000 0.851360 0.250000
O O14 0.039760 0.615727 0.380984
O O15 0.814221 0.806409 0.725888
O O16 0.853696 0.890054 0.787216
#
# Coordination Sequence:
#
# PCOD9265024 Si02
#       8
#     8   8   8   8   8   8   8   4
#     4   9  19  36  58  82 110 140 183 234 269 320
#     4  10  19  36  57  76 106 149 185 223 265 323
#     4  10  21  35  56  83 112 147 179 223 279 324
#     4   9  20  35  54  85 108 138 183 229 278 322
#     4  11  21  34  56  81 115 143 176 227 279 329
#     4   9  18  34  57  81 105 143 178 223 280 317
#     4  10  19  37  60  79 108 149 190 218 265 329
#     4   8  18  34  52  80 108 140 180 214 266 340
#
# _framework density 17.410789999999999
#
# number of rings (size 3 to 8) (size 9 to 14) (size 15 to 20)
#    0.000    2.400    1.333    0.800    0.933    5.333 
#    2.400    0.000    2.933    0.000    0.000    0.000 
#    0.000    0.000    0.000    0.000    0.000    0.000 
#
# Total GULP energy -167122.412086 kJ/mol
# GULP energy per Si atom -5570.747070 kJ/mol
# Density = 1.737116 g / cm^3
# Si number density = 17.410790 Si / 1000 Ang^3
#
#
#
# Elastic Constant Matrix: (Units=GPa)
#
#
# Indices 1 2 3 4 5 6 
#
# 1 78.4682 30.6204 32.0597 0.0006 19.9063 -0.0005
# 2 30.6204 68.6970 38.0424 -0.0023 23.8761 0.0004
# 3 32.0597 38.0424 80.0895 -0.0062 13.6564 0.0014
# 4 0.0006 -0.0023 -0.0062 23.4630 0.0016 2.2476
# 5 19.9063 23.8761 13.6564 0.0016 23.1789 0.0003
# 6 -0.0005 0.0004 0.0014 2.2476 0.0003 7.2069
#
#
#
# Elastic Compliance Matrix: (Units=1/GPa)
#
#
# Indices 1 2 3 4 5 6 
#
# 1 0.018075 -0.001676 -0.004543 -0.000001 -0.011120 0.000003
# 2 -0.001676 0.027838 -0.008791 0.000002 -0.022056 0.000000
# 3 -0.004543 -0.008791 0.018088 0.000004 0.002300 -0.000005
# 4 -0.000001 0.000002 0.000004 0.043933 -0.000006 -0.013701
# 5 -0.011120 -0.022056 0.002300 -0.000006 0.074057 -0.000001
# 6 0.000003 0.000000 -0.000005 -0.013701 -0.000001 0.143029
#
#
# Mechanical properties :
#
#
# Convention : Reuss Voigt Hill
#
# Bulk Modulus (GPa) = 29.42853 47.63330 38.53091
# Shear Modulus (GPa) = 13.64750 19.20524 16.42637
#
# Velocity S-wave (km/s) = 2.80277 3.32485 3.07491
# Velocity P-wave (km/s) = 5.23576 6.49287 5.89791
#
# Compressibility (1/GPa) = 0.03398063
#
# Stress axis : x y z
#
# Youngs Moduli (GPa) = 55.32418 35.92244 55.28443
#
# Poissons Ratio (x) = 0.06020 0.25117
# Poissons Ratio (y) = 0.09272 0.48601
# Poissons Ratio (z) = 0.25136 0.31580
#
# Static dielectric constant tensor:
#      x y z
#    x 1.586270 0.000000 0.002550 
#    y 0.000000 1.576150 0.000000 
#    z 0.002550 0.000000 1.624930 
# 
# From -- ./inp_files/274723.got.cif
#   From: 2010.05.17/outbox.cif.g08.bks.cpg/sg15_138_cif.got.tgz:274723.got - 2010.06.03 18:47:42.
