data_PCOD9265419
_publ_section_title
;
Structure prediction by ZEFSAII (Michael W. Deem and Ramdas Pophale) SiO2 
 PCOD9265419
Probable space group: C 2/C
;
_chemical_formula_sum "Si O2"
_cell_formula_units_Z 48
_cell_length_a 8.694963
_cell_length_b 16.175616
_cell_length_c 21.540782
_cell_angle_alpha 90.000000
_cell_angle_beta 40.538275
_cell_angle_gamma 90.000000
_cell_volume 1969.127806
_symmetry_space_group_name_H-M "C 2/C"
_symmetry_group_IT_number 15
_symmetry_cell_setting 'monoclinic'
loop_
_space_group_symop_operation_xyz
x,y,z
-x,y,1/2-z
-x,-y,-z
x,-y,1/2+z
1/2+x,1/2+y,z
1/2-x,1/2+y,1/2-z
1/2-x,1/2-y,-z
1/2+x,1/2-y,1/2+z
loop_
_atom_site_type_symbol
_atom_site_label
_atom_site_fract_x
_atom_site_fract_y
_atom_site_fract_z
Si Si1 0.221675 0.322273 0.556793
Si Si2 0.102257 0.537661 0.405081
Si Si3 0.497791 0.560336 0.364248
Si Si4 0.500000 0.144978 0.250000
Si Si5 0.667369 0.398077 0.253004
Si Si6 0.655143 0.419073 0.458238
Si Si7 0.000000 0.628042 0.750000
O O1 0.250000 0.250000 0.500000
O O2 0.090496 0.306699 0.661966
O O3 0.490434 0.343708 0.490580
O O4 0.082403 0.400242 0.569831
O O5 0.342336 0.585769 0.352096
O O6 0.174973 0.463747 0.335938
O O7 0.000000 0.500000 0.500000
O O8 0.761548 0.595021 0.299294
O O9 0.528095 0.461882 0.341240
O O10 0.325901 0.585775 0.473770
O O11 0.500000 0.362523 0.250000
O O12 0.810782 0.337719 0.256417
O O13 0.500000 0.500000 0.500000
O O14 0.851558 0.423402 0.345561
#
# Coordination Sequence:
#
# PCOD9265419 Si02
#       7
#     8   8   8   4   8   8   4
#     4  11  25  45  68  98 138 181 226 286 352 420
#     4  11  22  37  62 100 136 170 226 292 339 401
#     4  10  19  36  60  94 122 172 228 278 313 414
#     4  10  21  42  70  92 128 187 244 260 340 451
#     4  10  20  31  56  96 128 168 219 278 334 399
#     4  11  22  38  65  96 130 178 227 270 342 417
#     4  12  21  36  58  94 138 173 218 296 354 391
#
# _framework density 24.376273999999999
#
# number of rings (size 3 to 8) (size 9 to 14) (size 15 to 20)
#    0.000    1.333    3.333    3.500    2.333    0.000 
#    0.000    8.333    0.000    0.000    0.000    0.000 
#    0.000    0.000    0.000    0.000    0.000    0.000 
#
# Total GULP energy -133708.943140 kJ/mol
# GULP energy per Si atom -5571.205964 kJ/mol
# Density = 2.432079 g / cm^3
# Si number density = 24.376274 Si / 1000 Ang^3
#
#
#
# Elastic Constant Matrix: (Units=GPa)
#
#
# Indices 1 2 3 4 5 6 
#
# 1 220.9426 26.1070 42.1612 -0.0034 17.2724 0.0015
# 2 26.1070 40.7561 29.3153 -0.0035 13.8158 0.0002
# 3 42.1612 29.3153 220.4485 -0.0108 30.1998 0.0033
# 4 -0.0034 -0.0035 -0.0108 17.0017 0.0034 13.0672
# 5 17.2724 13.8158 30.1998 0.0034 44.7428 -0.0015
# 6 0.0015 0.0002 0.0033 13.0672 -0.0015 30.4563
#
#
#
# Elastic Compliance Matrix: (Units=1/GPa)
#
#
# Indices 1 2 3 4 5 6 
#
# 1 0.004987 -0.002563 -0.000504 0.000001 -0.000793 0.000000
# 2 -0.002563 0.030309 -0.002638 0.000008 -0.006589 -0.000004
# 3 -0.000504 -0.002638 0.005339 0.000006 -0.002594 -0.000003
# 4 0.000001 0.000008 0.000006 0.087756 -0.000015 -0.037652
# 5 -0.000793 -0.006589 -0.002594 -0.000015 0.026442 0.000008
# 6 0.000000 -0.000004 -0.000003 -0.037652 0.000008 0.048988
#
#
# Mechanical properties :
#
#
# Convention : Reuss Voigt Hill
#
# Bulk Modulus (GPa) = 34.21721 75.25713 54.73717
# Shear Modulus (GPa) = 22.22490 44.07774 33.15132
#
# Velocity S-wave (km/s) = 3.02278 4.25693 3.69180
# Velocity P-wave (km/s) = 5.12353 7.42308 6.37780
#
# Compressibility (1/GPa) = 0.02922506
#
# Stress axis : x y z
#
# Youngs Moduli (GPa) = 200.51485 32.99376 187.30744
#
# Poissons Ratio (x) = 0.08456 0.09446
# Poissons Ratio (y) = 0.51390 0.49405
# Poissons Ratio (z) = 0.10112 0.08703
#
# Static dielectric constant tensor:
#      x y z
#    x 2.155280 0.000000 -0.039250 
#    y 0.000000 1.952950 -0.000010 
#    z -0.039250 -0.000010 2.181910 
# 
# From -- ./inp_files/233722.got.cif
#   From: 2010.05.17/outbox.cif.g08.bks.cpg/sg15_117_cif.got.tgz:233722.got - 2010.06.03 18:47:42.
