data_PCOD9265708
_publ_section_title
;
Structure prediction by ZEFSAII (Michael W. Deem and Ramdas Pophale) SiO2 
 PCOD9265708
Probable space group: C 2/C
;
_chemical_formula_sum "Si O2"
_cell_formula_units_Z 56
_cell_length_a 8.349970
_cell_length_b 14.710969
_cell_length_c 23.452283
_cell_angle_alpha 90.000000
_cell_angle_beta 123.048936
_cell_angle_gamma 90.000000
_cell_volume 2414.691286
_symmetry_space_group_name_H-M "C 2/C"
_symmetry_group_IT_number 15
_symmetry_cell_setting 'monoclinic'
loop_
_space_group_symop_operation_xyz
x,y,z
-x,y,1/2-z
-x,-y,-z
x,-y,1/2+z
1/2+x,1/2+y,z
1/2-x,1/2+y,1/2-z
1/2-x,1/2-y,-z
1/2+x,1/2-y,1/2+z
loop_
_atom_site_type_symbol
_atom_site_label
_atom_site_fract_x
_atom_site_fract_y
_atom_site_fract_z
Si Si1 0.696070 0.316574 0.658649
Si Si2 0.531874 0.406186 0.973745
Si Si3 0.226968 0.637254 0.879129
Si Si4 0.217372 0.612990 0.671618
Si Si5 0.651204 0.677894 0.328141
Si Si6 0.310655 0.026131 0.428702
Si Si7 0.219150 0.490326 0.283999
O O1 0.653598 0.355118 0.587476
O O2 0.785974 0.217329 0.681330
O O3 0.486850 0.303363 0.645140
O O4 0.777279 0.400814 0.710939
O O5 0.669361 0.435519 0.948822
O O6 0.500000 0.500000 0.000000
O O7 0.641817 0.343447 0.040850
O O8 0.229786 0.720953 0.834655
O O9 0.308360 0.553103 0.857975
O O10 0.014960 0.614055 0.862702
O O11 0.255042 0.561293 0.620058
O O12 0.292479 0.555100 0.740348
O O13 0.500000 0.650251 0.250000
O O14 0.806185 0.604201 0.377986
O O15 0.500000 0.000000 0.500000
O O16 0.000000 0.461695 0.250000
#
# Coordination Sequence:
#
# PCOD9265708 Si02
#       7
#     8   8   8   8   8   8   8
#     4  10  21  36  60  87 120 159 204 255 309 365
#     4  11  22  39  62  87 125 165 207 250 315 379
#     4  10  19  36  64  88 115 161 209 248 298 378
#     4  10  21  37  62  89 120 152 209 257 301 362
#     4  10  21  37  61  91 119 157 211 262 307 367
#     4  11  23  38  62  92 127 162 206 263 318 360
#     4  10  20  37  61  87 120 163 201 251 310 372
#
# _framework density 23.191372000000001
#
# number of rings (size 3 to 8) (size 9 to 14) (size 15 to 20)
#    0.000    1.714    2.857    3.000    2.000    1.714 
#    0.000    4.286    6.286    0.000    0.000    0.000 
#    0.000    0.000    0.000    0.000    0.000    0.000 
#
# Total GULP energy -156087.423009 kJ/mol
# GULP energy per Si atom -5574.550822 kJ/mol
# Density = 2.313859 g / cm^3
# Si number density = 23.191372 Si / 1000 Ang^3
#
#
#
# Elastic Constant Matrix: (Units=GPa)
#
#
# Indices 1 2 3 4 5 6 
#
# 1 26.2751 2.4948 18.8073 0.0000 0.7758 0.0000
# 2 2.4948 143.7257 58.5995 0.0000 -3.6548 0.0000
# 3 18.8073 58.5995 156.2609 0.0000 -1.8640 0.0000
# 4 0.0000 0.0000 0.0000 39.6570 0.0000 -2.2418
# 5 0.7758 -3.6548 -1.8640 0.0000 25.8272 0.0000
# 6 0.0000 0.0000 0.0000 -2.2418 0.0000 21.7472
#
#
#
# Elastic Compliance Matrix: (Units=1/GPa)
#
#
# Indices 1 2 3 4 5 6 
#
# 1 0.041999 0.001537 -0.005649 0.000000 -0.001452 0.000000
# 2 0.001537 0.008293 -0.003284 0.000000 0.000890 0.000000
# 3 -0.005649 -0.003284 0.008315 0.000000 0.000305 0.000000
# 4 0.000000 0.000000 0.000000 0.025364 0.000000 0.002615
# 5 -0.001452 0.000890 0.000305 0.000000 0.038911 0.000000
# 6 0.000000 0.000000 0.000000 0.002615 0.000000 0.046252
#
#
# Mechanical properties :
#
#
# Convention : Reuss Voigt Hill
#
# Bulk Modulus (GPa) = 22.82333 54.00722 38.41527
# Shear Modulus (GPa) = 25.18513 33.87028 29.52771
#
# Velocity S-wave (km/s) = 3.29898 3.82575 3.57209
# Velocity P-wave (km/s) = 4.93697 6.54625 5.79772
#
# Compressibility (1/GPa) = 0.04381482
#
# Stress axis : x y z
#
# Youngs Moduli (GPa) = 23.81008 120.58798 120.26913
#
# Poissons Ratio (x) = -0.18536 0.67936
# Poissons Ratio (y) = -0.03660 0.39499
# Poissons Ratio (z) = 0.13450 0.39604
#
# Static dielectric constant tensor:
#      x y z
#    x 1.879940 0.000000 0.016960 
#    y 0.000000 1.990510 0.000000 
#    z 0.016960 0.000000 1.952350 
# 
# From -- ./inp_files/268985.got.cif
#   From: 2010.05.17/outbox.cif.g08.bks.cpg/sg15_135_cif.got.tgz:268985.got - 2010.06.03 18:47:42.
