data_PCOD9265882
_publ_section_title
;
Structure prediction by ZEFSAII (Michael W. Deem and Ramdas Pophale) SiO2 
 PCOD9265882
Probable space group: C 2/C
;
_chemical_formula_sum "Si O2"
_cell_formula_units_Z 56
_cell_length_a 22.537504
_cell_length_b 21.980108
_cell_length_c 5.325794
_cell_angle_alpha 90.000000
_cell_angle_beta 89.008664
_cell_angle_gamma 90.000000
_cell_volume 2637.879750
_symmetry_space_group_name_H-M "C 2/C"
_symmetry_group_IT_number 15
_symmetry_cell_setting 'monoclinic'
loop_
_space_group_symop_operation_xyz
x,y,z
-x,y,1/2-z
-x,-y,-z
x,-y,1/2+z
1/2+x,1/2+y,z
1/2-x,1/2+y,1/2-z
1/2-x,1/2-y,-z
1/2+x,1/2-y,1/2+z
loop_
_atom_site_type_symbol
_atom_site_label
_atom_site_fract_x
_atom_site_fract_y
_atom_site_fract_z
Si Si1 0.647853 0.331825 0.313315
Si Si2 0.333072 0.787163 0.996221
Si Si3 0.277384 0.837597 0.492305
Si Si4 0.210634 0.528914 0.711543
Si Si5 0.030685 0.308400 0.496541
Si Si6 0.519992 0.328581 0.499775
Si Si7 0.853589 0.969547 0.259148
O O1 0.659843 0.281828 0.100232
O O2 0.706334 0.337099 0.478761
O O3 0.589516 0.314267 0.474915
O O4 0.637108 0.398234 0.199488
O O5 0.299304 0.820259 0.767473
O O6 0.301503 0.793901 0.267427
O O7 0.399026 0.814557 0.010890
O O8 0.298502 0.904039 0.399445
O O9 0.187888 0.483610 0.494729
O O10 0.281959 0.521443 0.741429
O O11 0.000000 0.333560 0.250000
O O12 0.016104 0.235505 0.497195
O O13 0.000000 0.332604 0.750000
O O14 0.500000 0.361624 0.250000
O O15 0.500000 0.361858 0.750000
O O16 0.876899 0.008937 0.488229
#
# Coordination Sequence:
#
# PCOD9265882 Si02
#       7
#     8   8   8   8   8   8   8
#     4  11  23  40  62  84 124 168 188 247 312 359
#     4  12  23  38  57  90 130 155 189 243 306 372
#     4  11  25  36  56  96 130 152 193 238 306 365
#     4   9  17  35  58  77 114 163 199 230 274 345
#     4  10  19  37  57  76 108 158 206 234 266 346
#     4  10  21  36  58  80 101 152 217 235 273 352
#     4   9  20  36  56  82 107 151 212 248 281 346
#
# _framework density 21.229171000000001
#
# number of rings (size 3 to 8) (size 9 to 14) (size 15 to 20)
#    0.000    1.714    2.857    2.571    2.000    6.857 
#    0.000    0.000    0.000    2.571    0.000    0.000 
#    0.000   40.000    0.000    0.000    0.000    0.000 
#
# Total GULP energy -156418.410067 kJ/mol
# GULP energy per Si atom -5586.371788 kJ/mol
# Density = 2.118085 g / cm^3
# Si number density = 21.229171 Si / 1000 Ang^3
#
#
#
# Elastic Constant Matrix: (Units=GPa)
#
#
# Indices 1 2 3 4 5 6 
#
# 1 103.5622 -14.8918 6.3877 0.0000 12.1074 0.0000
# 2 -14.8918 60.3525 3.8445 0.0000 11.3464 0.0000
# 3 6.3877 3.8445 110.0410 0.0000 14.5972 0.0000
# 4 0.0000 0.0000 0.0000 11.1668 0.0000 -1.6948
# 5 12.1074 11.3464 14.5972 0.0000 17.2670 0.0000
# 6 0.0000 0.0000 0.0000 -1.6948 0.0000 -3.9488
#
#
#
# Elastic Compliance Matrix: (Units=1/GPa)
#
#
# Indices 1 2 3 4 5 6 
#
# 1 0.011794 0.005178 0.000769 0.000000 -0.012322 0.000000
# 2 0.005178 0.021299 0.001457 0.000000 -0.018858 0.000000
# 3 0.000769 0.001457 0.010351 0.000000 -0.010247 0.000000
# 4 0.000000 0.000000 0.000000 0.084074 0.000000 -0.036085
# 5 -0.012322 -0.018858 -0.010247 0.000000 0.087609 0.000000
# 6 0.000000 0.000000 0.000000 -0.036085 0.000000 -0.237756
#
#
# Mechanical properties :
#
#
# Convention : Reuss Voigt Hill
#
# Bulk Modulus (GPa) = 17.16689 29.40404 23.28546
# Shear Modulus (GPa) = -277.49498 23.47137 -127.01181
#
# Velocity S-wave (km/s) = -11.44543 3.32869 -7.74331
# Velocity P-wave (km/s) = 12.90580 5.35298 8.30377
#
# Compressibility (1/GPa) = 0.05825168
#
# Stress axis : x y z
#
# Youngs Moduli (GPa) = 84.79124 46.94950 96.60594
#
# Poissons Ratio (x) = -0.24309 -0.07430
# Poissons Ratio (y) = -0.43902 -0.14075
# Poissons Ratio (z) = -0.06521 -0.06840
#
# Static dielectric constant tensor:
#      x y z
#    x 1.771300 0.000000 -0.013270 
#    y 0.000000 1.783160 0.000000 
#    z -0.013270 0.000000 1.958560 
# 
# From -- ./inp_files/13718.got.cif
#   From: 2010.05.17/outbox.cif.g08.bks.cpg/sg15_7_cif.got.tgz:13718.got - 2010.06.03 18:47:42.
