data_PCOD9265223
_publ_section_title
;
Structure prediction by ZEFSAII (Michael W. Deem and Ramdas Pophale) SiO2 
 PCOD9265223
Probable space group: C 2/C
;
_chemical_formula_sum "Si O2"
_cell_formula_units_Z 40
_cell_length_a 7.963086
_cell_length_b 14.597694
_cell_length_c 16.333573
_cell_angle_alpha 90.000000
_cell_angle_beta 71.751278
_cell_angle_gamma 90.000000
_cell_volume 1803.167587
_symmetry_space_group_name_H-M "C 2/C"
_symmetry_group_IT_number 15
_symmetry_cell_setting 'monoclinic'
loop_
_space_group_symop_operation_xyz
x,y,z
-x,y,1/2-z
-x,-y,-z
x,-y,1/2+z
1/2+x,1/2+y,z
1/2-x,1/2+y,1/2-z
1/2-x,1/2-y,-z
1/2+x,1/2-y,1/2+z
loop_
_atom_site_type_symbol
_atom_site_label
_atom_site_fract_x
_atom_site_fract_y
_atom_site_fract_z
Si Si1 0.684898 0.848709 0.539645
Si Si2 0.067613 0.842463 0.843334
Si Si3 0.170213 0.976082 0.529763
Si Si4 0.375654 0.787151 0.688792
Si Si5 0.185453 0.686871 0.585486
O O1 0.750000 0.750000 0.500000
O O2 0.801284 0.864134 0.602331
O O3 0.487482 0.843758 0.604692
O O4 0.730004 0.928701 0.469146
O O5 0.198347 0.837871 0.746421
O O6 0.911659 0.915841 0.884178
O O7 0.995148 0.738233 0.863957
O O8 0.298656 0.913662 0.453720
O O9 0.000000 0.000000 0.500000
O O10 0.500000 0.769237 0.750000
O O11 0.311770 0.699672 0.645365
O O12 0.250000 0.750000 0.500000
#
# Coordination Sequence:
#
# PCOD9265223 Si02
#       5
#     8   8   8   8   8
#     4  10  19  36  59  82 116 161 196 235 292 356
#     4   9  19  35  55  82 116 151 193 247 293 341
#     4   9  18  34  58  84 114 155 196 239 287 354
#     4  10  20  35  58  85 117 154 194 246 299 345
#     4  10  19  36  60  83 111 153 194 237 294 356
#
# _framework density 22.183185999999999
#
# number of rings (size 3 to 8) (size 9 to 14) (size 15 to 20)
#    0.000    2.400    0.000    4.200    0.000    0.000 
#    0.000   21.000    0.000   60.000    0.000    0.000 
#    0.000    0.000    0.000    0.000    0.000    0.000 
#
# Total GULP energy -111408.221285 kJ/mol
# GULP energy per Si atom -5570.411064 kJ/mol
# Density = 2.213270 g / cm^3
# Si number density = 22.183186 Si / 1000 Ang^3
#
#
#
# Elastic Constant Matrix: (Units=GPa)
#
#
# Indices 1 2 3 4 5 6 
#
# 1 85.0871 28.7835 47.0574 0.0000 -24.8082 0.0000
# 2 28.7835 133.3931 51.2969 0.0000 -34.1099 0.0000
# 3 47.0574 51.2969 128.7908 0.0000 -27.0098 0.0000
# 4 0.0000 0.0000 0.0000 24.6051 0.0000 -1.7951
# 5 -24.8082 -34.1099 -27.0098 0.0000 61.1531 0.0000
# 6 0.0000 0.0000 0.0000 -1.7951 0.0000 23.8612
#
#
#
# Elastic Compliance Matrix: (Units=1/GPa)
#
#
# Indices 1 2 3 4 5 6 
#
# 1 0.015690 -0.000571 -0.004670 0.000000 0.003984 0.000000
# 2 -0.000571 0.009717 -0.002836 0.000000 0.003936 0.000000
# 3 -0.004670 -0.002836 0.010879 0.000000 0.001329 0.000000
# 4 0.000000 0.000000 0.000000 0.040866 0.000000 0.003074
# 5 0.003984 0.003936 0.001329 0.000000 0.020751 0.000000
# 6 0.000000 0.000000 0.000000 0.003074 0.000000 0.042140
#
#
# Mechanical properties :
#
#
# Convention : Reuss Voigt Hill
#
# Bulk Modulus (GPa) = 49.67255 66.83849 58.25552
# Shear Modulus (GPa) = 30.69216 36.59943 33.64580
#
# Velocity S-wave (km/s) = 3.72368 4.06627 3.89874
# Velocity P-wave (km/s) = 6.39753 7.22784 6.82532
#
# Compressibility (1/GPa) = 0.02013184
#
# Stress axis : x y z
#
# Youngs Moduli (GPa) = 63.73449 102.91369 91.91954
#
# Poissons Ratio (x) = 0.05877 0.42925
# Poissons Ratio (y) = 0.03639 0.26070
# Poissons Ratio (z) = 0.29763 0.29188
#
# Static dielectric constant tensor:
#      x y z
#    x 1.923210 0.000000 -0.005280 
#    y 0.000000 1.902850 0.000000 
#    z -0.005280 0.000000 1.858200 
# 
# From -- ./inp_files/133106.got.cif
#   From: 2010.05.17/outbox.cif.g08.bks.cpg/sg15_67_cif.got.tgz:133106.got - 2010.06.03 18:47:42.
