data_PCOD9265090
_publ_section_title
;
Structure prediction by ZEFSAII (Michael W. Deem and Ramdas Pophale) SiO2 
 PCOD9265090
Probable space group: C 2/C
;
_chemical_formula_sum "Si O2"
_cell_formula_units_Z 56
_cell_length_a 6.318028
_cell_length_b 19.591477
_cell_length_c 23.436831
_cell_angle_alpha 90.000000
_cell_angle_beta 114.283879
_cell_angle_gamma 90.000000
_cell_volume 2644.315992
_symmetry_space_group_name_H-M "C 2/C"
_symmetry_group_IT_number 15
_symmetry_cell_setting 'monoclinic'
loop_
_space_group_symop_operation_xyz
x,y,z
-x,y,1/2-z
-x,-y,-z
x,-y,1/2+z
1/2+x,1/2+y,z
1/2-x,1/2+y,1/2-z
1/2-x,1/2-y,-z
1/2+x,1/2-y,1/2+z
loop_
_atom_site_type_symbol
_atom_site_label
_atom_site_fract_x
_atom_site_fract_y
_atom_site_fract_z
Si Si1 0.474495 0.106451 0.501101
Si Si2 0.279353 0.165855 0.769850
Si Si3 0.263712 0.987741 0.548692
Si Si4 0.863826 0.570491 0.182575
Si Si5 0.881966 0.286906 0.819702
Si Si6 0.835821 0.283061 0.397607
Si Si7 0.935408 0.848580 0.621994
O O1 0.663790 0.079339 0.478107
O O2 0.558189 0.175897 0.538697
O O3 0.244089 0.113604 0.438344
O O4 0.421589 0.049419 0.542755
O O5 0.500000 0.143757 0.750000
O O6 0.224154 0.243285 0.743371
O O7 0.377037 0.172737 0.844555
O O8 0.000000 0.137732 0.750000
O O9 0.321773 0.973717 0.621193
O O10 0.000000 0.000000 0.500000
O O11 0.609721 0.598126 0.169913
O O12 0.000000 0.536426 0.250000
O O13 0.002599 0.641047 0.184598
O O14 0.692969 0.307013 0.844051
O O15 0.062937 0.234196 0.868683
O O16 0.941252 0.208089 0.402775
#
# Coordination Sequence:
#
# PCOD9265090 Si02
#       7
#     8   8   8   8   8   8   8
#     4  11  24  42  66  89 125 178 226 263 334 404
#     4  10  19  36  57  90 138 177 211 267 343 414
#     4  11  24  47  66  86 130 176 224 282 331 390
#     4  11  23  39  66  98 125 161 224 279 341 400
#     4  10  20  36  60  95 136 168 206 270 346 404
#     4  10  22  36  60  96 131 166 215 266 335 415
#     4  11  20  38  64  99 126 164 205 275 337 411
#
# _framework density 21.177496999999999
#
# number of rings (size 3 to 8) (size 9 to 14) (size 15 to 20)
#    0.000    1.429    4.286    2.571    0.000    1.714 
#    0.000    0.714    3.143    0.000    0.000    0.000 
#    0.000    0.000    0.000    0.000    0.000    0.000 
#
# Total GULP energy -156030.573914 kJ/mol
# GULP energy per Si atom -5572.520497 kJ/mol
# Density = 2.112930 g / cm^3
# Si number density = 21.177497 Si / 1000 Ang^3
#
#
#
# Elastic Constant Matrix: (Units=GPa)
#
#
# Indices 1 2 3 4 5 6 
#
# 1 103.2705 12.5352 52.1687 0.0000 1.8915 0.0000
# 2 12.5352 20.1856 26.1525 0.0000 0.6806 0.0000
# 3 52.1687 26.1525 133.1419 0.0000 14.7738 0.0000
# 4 0.0000 0.0000 0.0000 5.8945 0.0000 -13.4077
# 5 1.8915 0.6806 14.7738 0.0000 25.1051 0.0000
# 6 0.0000 0.0000 0.0000 -13.4077 0.0000 4.1890
#
#
#
# Elastic Compliance Matrix: (Units=1/GPa)
#
#
# Indices 1 2 3 4 5 6 
#
# 1 0.012205 -0.001578 -0.004681 0.000000 0.001878 0.000000
# 2 -0.001578 0.067597 -0.013340 0.000000 0.006137 0.000000
# 3 -0.004681 -0.013340 0.012716 0.000000 -0.006769 0.000000
# 4 0.000000 0.000000 0.000000 -0.027013 0.000000 -0.086460
# 5 0.001878 0.006137 -0.006769 0.000000 0.043508 0.000000
# 6 0.000000 0.000000 0.000000 -0.086460 0.000000 -0.038010
#
#
# Mechanical properties :
#
#
# Convention : Reuss Voigt Hill
#
# Bulk Modulus (GPa) = 18.75469 48.70119 33.72794
# Shear Modulus (GPa) = 39.06995 18.08716 28.57856
#
# Velocity S-wave (km/s) = 4.29987 2.92563 3.67751
# Velocity P-wave (km/s) = 5.79025 5.87018 5.83035
#
# Compressibility (1/GPa) = 0.05332000
#
# Stress axis : x y z
#
# Youngs Moduli (GPa) = 81.93391 14.79345 78.63962
#
# Poissons Ratio (x) = 0.02335 0.36808
# Poissons Ratio (y) = 0.12933 1.04908
# Poissons Ratio (z) = 0.38350 0.19735
#
# Static dielectric constant tensor:
#      x y z
#    x 1.984410 0.000000 0.070280 
#    y 0.000000 1.753780 0.000000 
#    z 0.070280 0.000000 1.820160 
# 
# From -- ./inp_files/228162.got.cif
#   From: 2010.05.17/outbox.cif.g08.bks.cpg/sg15_115_cif.got.tgz:228162.got - 2010.06.03 18:47:42.
