data_PCOD9265334
_publ_section_title
;
Structure prediction by ZEFSAII (Michael W. Deem and Ramdas Pophale) SiO2 
 PCOD9265334
Probable space group: C 2/C
;
_chemical_formula_sum "Si O2"
_cell_formula_units_Z 60
_cell_length_a 10.247788
_cell_length_b 31.227610
_cell_length_c 9.946698
_cell_angle_alpha 90.000000
_cell_angle_beta 101.237855
_cell_angle_gamma 90.000000
_cell_volume 3122.051423
_symmetry_space_group_name_H-M "C 2/C"
_symmetry_group_IT_number 15
_symmetry_cell_setting 'monoclinic'
loop_
_space_group_symop_operation_xyz
x,y,z
-x,y,1/2-z
-x,-y,-z
x,-y,1/2+z
1/2+x,1/2+y,z
1/2-x,1/2+y,1/2-z
1/2-x,1/2-y,-z
1/2+x,1/2-y,1/2+z
loop_
_atom_site_type_symbol
_atom_site_label
_atom_site_fract_x
_atom_site_fract_y
_atom_site_fract_z
Si Si1 0.351793 0.281389 0.698291
Si Si2 0.762534 0.589557 0.542468
Si Si3 0.844335 0.078836 0.267267
Si Si4 0.000000 0.378083 0.250000
Si Si5 0.297400 0.191361 0.824450
Si Si6 0.592563 0.514571 0.641421
Si Si7 0.893345 0.177839 0.938521
Si Si8 0.302371 0.663002 0.418589
O O1 0.500000 0.299457 0.750000
O O2 0.351368 0.235801 0.773283
O O3 0.333742 0.288345 0.535858
O O4 0.264842 0.312494 0.773280
O O5 0.748885 0.583205 0.380984
O O6 0.687941 0.552048 0.609275
O O7 0.678196 0.632849 0.548115
O O8 0.911737 0.595206 0.627292
O O9 0.807663 0.113039 0.375995
O O10 0.000000 0.086012 0.250000
O O11 0.834370 0.029511 0.307277
O O12 0.892930 0.346755 0.296341
O O13 0.154921 0.188832 0.720515
O O14 0.285517 0.183332 0.980352
O O15 0.500000 0.527487 0.750000
O O16 0.500000 0.500000 0.500000
O O17 0.048949 0.173481 0.996991
#
# Coordination Sequence:
#
# PCOD9265334 Si02
#       8
#     8   8   8   4   8   8   8   8
#     4  10  19  36  60  84 121 164 204 258 327 377
#     4  11  21  42  63  89 130 167 216 245 318 404
#     4  11  19  39  64  95 130 156 197 265 343 376
#     4  10  26  42  60  80 128 192 200 248 318 384
#     4  11  22  38  56  85 126 160 218 258 300 382
#     4  11  21  35  67 104 127 155 201 274 335 364
#     4  10  20  35  62  87 118 162 200 266 326 366
#     4  11  20  35  62  94 115 151 212 269 321 360
#
# _framework density 19.218132000000001
#
# number of rings (size 3 to 8) (size 9 to 14) (size 15 to 20)
#    0.000    1.333    6.000    1.600    0.000    4.267 
#    0.000    1.333    0.000    0.000    0.000    0.000 
#    0.000    0.000    0.000    0.000    0.000    0.000 
#
# Total GULP energy -167081.334304 kJ/mol
# GULP energy per Si atom -5569.377810 kJ/mol
# Density = 1.917439 g / cm^3
# Si number density = 19.218132 Si / 1000 Ang^3
#
#
#
# Elastic Constant Matrix: (Units=GPa)
#
#
# Indices 1 2 3 4 5 6 
#
# 1 48.0826 15.8414 28.8093 0.0000 6.4879 0.0000
# 2 15.8414 90.2736 25.7683 0.0000 -12.9091 0.0000
# 3 28.8093 25.7683 106.5150 0.0000 -9.2917 0.0000
# 4 0.0000 0.0000 0.0000 34.8646 0.0000 11.2413
# 5 6.4879 -12.9091 -9.2917 0.0000 28.8898 0.0000
# 6 0.0000 0.0000 0.0000 11.2413 0.0000 58.5190
#
#
#
# Elastic Compliance Matrix: (Units=1/GPa)
#
#
# Indices 1 2 3 4 5 6 
#
# 1 0.028155 -0.004326 -0.007499 0.000000 -0.010668 0.000000
# 2 -0.004326 0.013166 -0.001458 0.000000 0.006385 0.000000
# 3 -0.007499 -0.001458 0.012202 0.000000 0.004957 0.000000
# 4 0.000000 0.000000 0.000000 0.030576 0.000000 -0.005874
# 5 -0.010668 0.006385 0.004957 0.000000 0.041458 0.000000
# 6 0.000000 0.000000 0.000000 -0.005874 0.000000 0.018217
#
#
# Mechanical properties :
#
#
# Convention : Reuss Voigt Hill
#
# Bulk Modulus (GPa) = 37.09617 42.85658 39.97637
# Shear Modulus (GPa) = 27.88224 36.08483 31.98354
#
# Velocity S-wave (km/s) = 3.81311 4.33788 4.08393
# Velocity P-wave (km/s) = 6.22342 6.88753 6.56388
#
# Compressibility (1/GPa) = 0.02695696
#
# Stress axis : x y z
#
# Youngs Moduli (GPa) = 35.51708 75.95420 81.95440
#
# Poissons Ratio (x) = 0.32855 0.61461
# Poissons Ratio (y) = 0.15363 0.11950
# Poissons Ratio (z) = 0.26636 0.11075
#
# Static dielectric constant tensor:
#      x y z
#    x 1.679880 0.000000 -0.060230 
#    y 0.000000 1.701510 0.000000 
#    z -0.060230 0.000000 1.682870 
# 
# From -- ./inp_files/35282.got.cif
#   From: 2010.05.17/outbox.cif.g08.bks.cpg/sg15_18_cif.got.tgz:35282.got - 2010.06.03 18:47:42.
