data_PCOD9265285
_publ_section_title
;
Structure prediction by ZEFSAII (Michael W. Deem and Ramdas Pophale) SiO2 
 PCOD9265285
Probable space group: C 2/C
;
_chemical_formula_sum "Si O2"
_cell_formula_units_Z 56
_cell_length_a 22.340441
_cell_length_b 25.126035
_cell_length_c 12.219229
_cell_angle_alpha 90.000000
_cell_angle_beta 156.269311
_cell_angle_gamma 90.000000
_cell_volume 2760.315166
_symmetry_space_group_name_H-M "C 2/C"
_symmetry_group_IT_number 15
_symmetry_cell_setting 'monoclinic'
loop_
_space_group_symop_operation_xyz
x,y,z
-x,y,1/2-z
-x,-y,-z
x,-y,1/2+z
1/2+x,1/2+y,z
1/2-x,1/2+y,1/2-z
1/2-x,1/2-y,-z
1/2+x,1/2-y,1/2+z
loop_
_atom_site_type_symbol
_atom_site_label
_atom_site_fract_x
_atom_site_fract_y
_atom_site_fract_z
Si Si1 0.381905 0.109334 0.292230
Si Si2 0.829651 0.337023 0.479751
Si Si3 0.170270 0.453362 0.583254
Si Si4 0.326773 0.606859 0.156803
Si Si5 0.061195 0.308331 0.228037
Si Si6 0.026126 0.805818 0.923100
Si Si7 0.318585 0.066610 0.794651
O O1 0.311590 0.131347 0.063525
O O2 0.304061 0.078070 0.260174
O O3 0.447356 0.161698 0.458972
O O4 0.517117 0.070151 0.483576
O O5 0.808138 0.380653 0.349301
O O6 0.000000 0.317386 0.750000
O O7 0.698407 0.295268 0.240038
O O8 0.285692 0.430707 0.688554
O O9 0.191457 0.514978 0.647402
O O10 0.000000 0.444972 0.250000
O O11 0.206362 0.655183 0.960233
O O12 0.297381 0.572833 0.998028
O O13 0.522085 0.640009 0.097341
O O14 0.000000 0.309841 0.250000
O O15 0.067946 0.246759 0.205920
O O16 0.000000 0.814630 0.750000
#
# Coordination Sequence:
#
# PCOD9265285 Si02
#       7
#     8   8   8   8   8   8   8
#     4  10  19  36  59  88 130 153 210 264 305 368
#     4  10  22  41  61  90 127 162 215 263 308 377
#     4  12  20  34  61  93 124 167 211 260 314 365
#     4  11  21  39  61  94 129 158 217 263 304 380
#     4  10  19  38  64  96 124 165 210 260 306 370
#     4  11  23  40  67  89 126 173 214 256 318 373
#     4  10  21  34  60  91 118 167 208 258 307 363
#
# _framework density 20.287538999999999
#
# number of rings (size 3 to 8) (size 9 to 14) (size 15 to 20)
#    0.000    1.429    5.714    2.143    2.000    0.571 
#    0.000    1.429    3.143    0.000    0.000    0.000 
#    0.000    0.000    0.000    0.000    0.000    0.000 
#
# Total GULP energy -156206.536886 kJ/mol
# GULP energy per Si atom -5578.804889 kJ/mol
# Density = 2.024136 g / cm^3
# Si number density = 20.287539 Si / 1000 Ang^3
#
#
#
# Elastic Constant Matrix: (Units=GPa)
#
#
# Indices 1 2 3 4 5 6 
#
# 1 48.8357 20.9114 4.6655 0.0000 -4.5603 0.0000
# 2 20.9114 85.6471 11.9542 0.0000 7.9924 0.0000
# 3 4.6655 11.9542 54.2564 0.0000 8.6614 0.0000
# 4 0.0000 0.0000 0.0000 30.2608 0.0000 -8.1061
# 5 -4.5603 7.9924 8.6614 0.0000 15.7523 0.0000
# 6 0.0000 0.0000 0.0000 -8.1061 0.0000 27.9601
#
#
#
# Elastic Compliance Matrix: (Units=1/GPa)
#
#
# Indices 1 2 3 4 5 6 
#
# 1 0.024760 -0.006812 -0.002548 0.000000 0.012025 0.000000
# 2 -0.006812 0.014306 -0.001198 0.000000 -0.008572 0.000000
# 3 -0.002548 -0.001198 0.020757 0.000000 -0.011543 0.000000
# 4 0.000000 0.000000 0.000000 0.035829 0.000000 0.010387
# 5 0.012025 -0.008572 -0.011543 0.000000 0.077660 0.000000
# 6 0.000000 0.000000 0.000000 0.010387 0.000000 0.038777
#
#
# Mechanical properties :
#
#
# Convention : Reuss Voigt Hill
#
# Bulk Modulus (GPa) = 25.83481 29.31128 27.57304
# Shear Modulus (GPa) = 20.31641 24.87517 22.59579
#
# Velocity S-wave (km/s) = 3.16796 3.50541 3.34095
# Velocity P-wave (km/s) = 5.11305 5.55546 5.33884
#
# Compressibility (1/GPa) = 0.03870747
#
# Stress axis : x y z
#
# Youngs Moduli (GPa) = 40.38769 69.90015 48.17711
#
# Poissons Ratio (x) = 0.47615 0.12275
# Poissons Ratio (y) = 0.27512 0.05771
# Poissons Ratio (z) = 0.10291 0.08373
#
# Static dielectric constant tensor:
#      x y z
#    x 1.814950 0.000000 0.052940 
#    y 0.000000 1.714030 0.000000 
#    z 0.052940 0.000000 1.753800 
# 
# From -- ./inp_files/114952.got.cif
#   From: 2010.05.17/outbox.cif.g08.bks.cpg/sg15_58_cif.got.tgz:114952.got - 2010.06.03 18:47:42.
