data_PCOD9265872
_publ_section_title
;
Structure prediction by ZEFSAII (Michael W. Deem and Ramdas Pophale) SiO2 
 PCOD9265872
Probable space group: C 2/C
;
_chemical_formula_sum "Si O2"
_cell_formula_units_Z 52
_cell_length_a 30.377915
_cell_length_b 13.144692
_cell_length_c 8.454640
_cell_angle_alpha 90.000000
_cell_angle_beta 133.809648
_cell_angle_gamma 90.000000
_cell_volume 2436.274965
_symmetry_space_group_name_H-M "C 2/C"
_symmetry_group_IT_number 15
_symmetry_cell_setting 'monoclinic'
loop_
_space_group_symop_operation_xyz
x,y,z
-x,y,1/2-z
-x,-y,-z
x,-y,1/2+z
1/2+x,1/2+y,z
1/2-x,1/2+y,1/2-z
1/2-x,1/2-y,-z
1/2+x,1/2-y,1/2+z
loop_
_atom_site_type_symbol
_atom_site_label
_atom_site_fract_x
_atom_site_fract_y
_atom_site_fract_z
Si Si1 0.111307 0.631560 0.952505
Si Si2 0.198389 0.668078 0.689580
Si Si3 0.299585 0.540285 0.126838
Si Si4 0.000000 0.701284 0.250000
Si Si5 0.583927 0.928659 0.730576
Si Si6 0.255969 0.631743 0.344680
Si Si7 0.888540 0.206174 0.292320
O O1 0.086836 0.549719 0.763630
O O2 0.103353 0.742936 0.858782
O O3 0.079600 0.604692 0.038666
O O4 0.183518 0.617669 0.163094
O O5 0.147843 0.608829 0.464684
O O6 0.228118 0.751849 0.649657
O O7 0.164116 0.727834 0.747512
O O8 0.247684 0.595876 0.892427
O O9 0.285061 0.571686 0.268695
O O10 0.363194 0.591776 0.233984
O O11 0.289078 0.421135 0.074410
O O12 0.966845 0.628137 0.293235
O O13 0.050637 0.771596 0.458494
#
# Coordination Sequence:
#
# PCOD9265872 Si02
#       7
#     8   8   8   4   8   8   8
#     4  12  21  35  57  90 118 155 182 238 283 356
#     4  10  19  37  56  84 117 158 184 234 284 347
#     4  11  20  36  58  86 118 159 183 232 286 349
#     4  10  24  44  58  78 110 162 198 248 270 332
#     4  11  24  35  58  83 118 151 201 226 291 336
#     4  11  21  33  56  87 125 149 182 232 296 341
#     4  10  21  39  60  78 115 154 200 231 287 329
#
# _framework density 21.344059999999999
#
# number of rings (size 3 to 8) (size 9 to 14) (size 15 to 20)
#    0.000    1.231    4.615    3.692    0.000    4.923 
#    0.000    0.000    0.000    8.308    0.000    0.000 
#    0.000    0.000    0.000    0.000    0.000    0.000 
#
# Total GULP energy -145525.600778 kJ/mol
# GULP energy per Si atom -5597.138491 kJ/mol
# Density = 2.129548 g / cm^3
# Si number density = 21.344060 Si / 1000 Ang^3
#
#
#
# Elastic Constant Matrix: (Units=GPa)
#
#
# Indices 1 2 3 4 5 6 
#
# 1 95.3946 18.5392 25.7304 0.0000 -1.5939 0.0000
# 2 18.5392 39.5212 14.1382 0.0000 3.6986 0.0000
# 3 25.7304 14.1382 63.0801 0.0000 21.8887 0.0000
# 4 0.0000 0.0000 0.0000 26.0013 0.0000 -0.3495
# 5 -1.5939 3.6986 21.8887 0.0000 29.5634 0.0000
# 6 0.0000 0.0000 0.0000 -0.3495 0.0000 17.7180
#
#
#
# Elastic Compliance Matrix: (Units=1/GPa)
#
#
# Indices 1 2 3 4 5 6 
#
# 1 0.013199 -0.004436 -0.006499 0.000000 0.006078 0.000000
# 2 -0.004436 0.029049 -0.004518 0.000000 -0.000528 0.000000
# 3 -0.006499 -0.004518 0.026164 0.000000 -0.019157 0.000000
# 4 0.000000 0.000000 0.000000 0.038470 0.000000 0.000759
# 5 0.006078 -0.000528 -0.019157 0.000000 0.048403 0.000000
# 6 0.000000 0.000000 0.000000 0.000759 0.000000 0.056455
#
#
# Mechanical properties :
#
#
# Convention : Reuss Voigt Hill
#
# Bulk Modulus (GPa) = 26.66196 34.97905 30.82050
# Shear Modulus (GPa) = 19.59645 23.96243 21.77944
#
# Velocity S-wave (km/s) = 3.03334 3.35427 3.19783
# Velocity P-wave (km/s) = 4.97864 5.60582 5.30151
#
# Compressibility (1/GPa) = 0.03750661
#
# Stress axis : x y z
#
# Youngs Moduli (GPa) = 75.76144 34.42415 38.22066
#
# Poissons Ratio (x) = 0.15269 0.24840
# Poissons Ratio (y) = 0.33605 0.17269
# Poissons Ratio (z) = 0.49238 0.15554
#
# Static dielectric constant tensor:
#      x y z
#    x 1.794680 0.000000 -0.022130 
#    y 0.000000 1.790190 0.000000 
#    z -0.022130 0.000000 1.761330 
# 
# From -- ./inp_files/55290.got.cif
#   From: 2010.05.17/outbox.cif.g08.bks.cpg/sg15_28_cif.got.tgz:55290.got - 2010.06.03 18:47:42.
