data_PCOD9265136
_publ_section_title
;
Structure prediction by ZEFSAII (Michael W. Deem and Ramdas Pophale) SiO2 
 PCOD9265136
Probable space group: C 2/C
;
_chemical_formula_sum "Si O2"
_cell_formula_units_Z 44
_cell_length_a 12.004833
_cell_length_b 15.215183
_cell_length_c 12.697431
_cell_angle_alpha 90.000000
_cell_angle_beta 114.897539
_cell_angle_gamma 90.000000
_cell_volume 2103.711518
_symmetry_space_group_name_H-M "C 2/C"
_symmetry_group_IT_number 15
_symmetry_cell_setting 'monoclinic'
loop_
_space_group_symop_operation_xyz
x,y,z
-x,y,1/2-z
-x,-y,-z
x,-y,1/2+z
1/2+x,1/2+y,z
1/2-x,1/2+y,1/2-z
1/2-x,1/2-y,-z
1/2+x,1/2-y,1/2+z
loop_
_atom_site_type_symbol
_atom_site_label
_atom_site_fract_x
_atom_site_fract_y
_atom_site_fract_z
Si Si1 0.232235 0.402551 0.634324
Si Si2 0.883409 0.946842 0.266630
Si Si3 0.830508 0.868394 0.444236
Si Si4 0.500000 0.275191 0.250000
Si Si5 0.627931 0.232977 0.737528
Si Si6 0.002379 0.701266 0.477078
O O1 0.265544 0.496751 0.693127
O O2 0.295250 0.396586 0.545636
O O3 0.295687 0.324642 0.728475
O O4 0.089400 0.380988 0.564114
O O5 0.894163 0.941092 0.396419
O O6 0.000000 0.986704 0.250000
O O7 0.891377 0.844468 0.234772
O O8 0.707630 0.836448 0.335757
O O9 0.917971 0.783772 0.480268
O O10 0.535844 0.222350 0.368908
O O11 0.500000 0.245283 0.750000
O O12 0.602049 0.199723 0.608832
#
# Coordination Sequence:
#
# PCOD9265136 Si02
#       6
#     8   8   8   4   8   8
#     4  11  20  33  58  89 109 142 198 236 275 335
#     4   9  21  36  53  78 118 148 183 228 296 327
#     4  10  20  35  55  83 114 145 192 234 279 341
#     4   8  20  38  56  78 120 156 172 232 296 332
#     4  11  18  32  59  87 105 145 187 237 282 323
#     4  10  19  36  58  83 116 146 191 237 275 339
#
# _framework density 20.915414999999999
#
# number of rings (size 3 to 8) (size 9 to 14) (size 15 to 20)
#    0.545    1.455    3.636    1.636    0.000    2.182 
#    0.000   10.909    2.000    0.000    0.000    0.000 
#    0.000    0.000    0.000    0.000    0.000    0.000 
#
# Total GULP energy -122678.850214 kJ/mol
# GULP energy per Si atom -5576.311373 kJ/mol
# Density = 2.086781 g / cm^3
# Si number density = 20.915415 Si / 1000 Ang^3
#
#
#
# Elastic Constant Matrix: (Units=GPa)
#
#
# Indices 1 2 3 4 5 6 
#
# 1 38.7901 10.4127 25.8723 0.0000 1.2846 0.0000
# 2 10.4127 46.1728 31.9974 0.0000 -1.7466 0.0000
# 3 25.8723 31.9974 111.1127 0.0000 2.9964 0.0000
# 4 0.0000 0.0000 0.0000 13.5194 0.0000 -4.7214
# 5 1.2846 -1.7466 2.9964 0.0000 34.7828 0.0000
# 6 0.0000 0.0000 0.0000 -4.7214 0.0000 -22.7668
#
#
#
# Elastic Compliance Matrix: (Units=1/GPa)
#
#
# Indices 1 2 3 4 5 6 
#
# 1 0.030760 -0.002515 -0.006419 0.000000 -0.000709 0.000000
# 2 -0.002515 0.027408 -0.007364 0.000000 0.002103 0.000000
# 3 -0.006419 -0.007364 0.012648 0.000000 -0.001222 0.000000
# 4 0.000000 0.000000 0.000000 0.068973 0.000000 -0.014304
# 5 -0.000709 0.002103 -0.001222 0.000000 0.028987 0.000000
# 6 0.000000 0.000000 0.000000 -0.014304 0.000000 -0.040957
#
#
# Mechanical properties :
#
#
# Convention : Reuss Voigt Hill
#
# Bulk Modulus (GPa) = 26.16469 36.96004 31.56237
# Shear Modulus (GPa) = 28.87617 13.62662 21.25140
#
# Velocity S-wave (km/s) = 3.71970 2.55524 3.19103
# Velocity P-wave (km/s) = 5.56643 5.13958 5.35725
#
# Compressibility (1/GPa) = 0.03821945
#
# Stress axis : x y z
#
# Youngs Moduli (GPa) = 32.51006 36.48634 79.06425
#
# Poissons Ratio (x) = 0.09178 0.50750
# Poissons Ratio (y) = 0.08178 0.58220
# Poissons Ratio (z) = 0.20868 0.26867
#
# Static dielectric constant tensor:
#      x y z
#    x 1.802610 0.000000 -0.001210 
#    y 0.000000 1.750880 0.000000 
#    z -0.001210 0.000000 1.757570 
# 
# From -- ./inp_files/96105.got.cif
#   From: 2010.05.17/outbox.cif.g08.bks.cpg/sg15_49_cif.got.tgz:96105.got - 2010.06.03 18:47:42.
