data_PCOD9265608
_publ_section_title
;
Structure prediction by ZEFSAII (Michael W. Deem and Ramdas Pophale) SiO2 
 PCOD9265608
Probable space group: C 2/C
;
_chemical_formula_sum "Si O2"
_cell_formula_units_Z 52
_cell_length_a 9.200791
_cell_length_b 12.313611
_cell_length_c 32.431586
_cell_angle_alpha 90.000000
_cell_angle_beta 44.826730
_cell_angle_gamma 90.000000
_cell_volume 2590.278383
_symmetry_space_group_name_H-M "C 2/C"
_symmetry_group_IT_number 15
_symmetry_cell_setting 'monoclinic'
loop_
_space_group_symop_operation_xyz
x,y,z
-x,y,1/2-z
-x,-y,-z
x,-y,1/2+z
1/2+x,1/2+y,z
1/2-x,1/2+y,1/2-z
1/2-x,1/2-y,-z
1/2+x,1/2-y,1/2+z
loop_
_atom_site_type_symbol
_atom_site_label
_atom_site_fract_x
_atom_site_fract_y
_atom_site_fract_z
Si Si1 0.860133 0.381500 0.937104
Si Si2 0.607402 0.772933 0.343690
Si Si3 0.958143 0.001048 0.441183
Si Si4 0.204346 0.631501 0.437103
Si Si5 0.000000 0.374998 0.750000
Si Si6 0.924145 0.477069 0.343690
Si Si7 0.414066 0.748951 0.058816
O O1 0.928102 0.455218 0.885251
O O2 0.778283 0.269875 0.933226
O O3 0.041727 0.374999 0.933309
O O4 0.665956 0.436223 0.999407
O O5 0.395643 0.705217 0.385250
O O6 0.798035 0.699778 0.291904
O O7 0.568837 0.875001 0.322464
O O8 0.635418 0.800445 0.386846
O O9 0.805583 0.019876 0.433226
O O10 0.010915 0.125000 0.445633
O O11 0.180348 0.949555 0.386845
O O12 0.087011 0.686225 0.499406
O O13 0.007555 0.449774 0.708096
#
# Coordination Sequence:
#
# PCOD9265608 Si02
#       7
#     8   8   8   8   4   8   8
#     4  11  20  35  61 103 137 165 210 277 334 402
#     4  11  23  45  69  90 126 179 225 272 339 404
#     4  10  19  36  62  93 133 172 210 261 330 410
#     4  11  20  35  61 103 137 165 210 277 334 402
#     4  12  24  52  70  90 132 180 242 276 336 406
#     4  11  23  45  69  90 126 179 225 272 339 404
#     4  10  19  36  62  93 133 172 210 261 330 410
#
# _framework density 20.075061000000002
#
# number of rings (size 3 to 8) (size 9 to 14) (size 15 to 20)
#    0.000    1.231    4.615    7.385    0.000    0.000 
#    5.538    1.538    0.000    0.000    0.000    0.000 
#    0.000    0.000    0.000    0.000    0.000    0.000 
#
# Total GULP energy -145328.076794 kJ/mol
# GULP energy per Si atom -5589.541415 kJ/mol
# Density = 2.002937 g / cm^3
# Si number density = 20.075061 Si / 1000 Ang^3
#
#
#
# Elastic Constant Matrix: (Units=GPa)
#
#
# Indices 1 2 3 4 5 6 
#
# 1 164.3990 47.4819 65.2190 0.0001 -1.0786 0.0002
# 2 47.4819 78.8097 54.7115 0.0001 0.0804 0.0001
# 3 65.2190 54.7115 140.4565 0.0003 0.7911 0.0011
# 4 0.0001 0.0001 0.0003 12.0823 0.0000 -0.5655
# 5 -1.0786 0.0804 0.7911 0.0000 3.1360 0.0002
# 6 0.0002 0.0001 0.0011 -0.5655 0.0002 60.8250
#
#
#
# Elastic Compliance Matrix: (Units=1/GPa)
#
#
# Indices 1 2 3 4 5 6 
#
# 1 0.007997 -0.003057 -0.002542 0.000000 0.003470 0.000000
# 2 -0.003057 0.018565 -0.005812 0.000000 -0.000061 0.000000
# 3 -0.002542 -0.005812 0.010583 0.000000 -0.003395 0.000000
# 4 0.000000 0.000000 0.000000 0.082802 0.000000 0.000770
# 5 0.003470 -0.000061 -0.003395 0.000000 0.320927 -0.000001
# 6 0.000000 0.000000 0.000000 0.000770 -0.000001 0.016448
#
#
# Mechanical properties :
#
#
# Convention : Reuss Voigt Hill
#
# Bulk Modulus (GPa) = 69.81488 79.83222 74.82355
# Shear Modulus (GPa) = 10.31101 29.62551 19.96826
#
# Velocity S-wave (km/s) = 2.26878 3.84570 3.15728
# Velocity P-wave (km/s) = 6.45876 7.71832 7.11646
#
# Compressibility (1/GPa) = 0.01432359
#
# Stress axis : x y z
#
# Youngs Moduli (GPa) = 125.04901 53.86387 94.49073
#
# Poissons Ratio (x) = 0.16465 0.24020
# Poissons Ratio (y) = 0.38225 0.54918
# Poissons Ratio (z) = 0.31788 0.31305
#
# Static dielectric constant tensor:
#      x y z
#    x 1.778880 0.000000 -0.001340 
#    y 0.000000 1.676030 0.000000 
#    z -0.001340 0.000000 1.663240 
# 
# From -- ./inp_files/308201.got.cif
#   From: 2010.05.17/outbox.cif.g08.bks.cpg/sg15_155_cif.got.tgz:308201.got - 2010.06.03 18:47:42.
