data_PCOD9265640
_publ_section_title
;
Structure prediction by ZEFSAII (Michael W. Deem and Ramdas Pophale) SiO2 
 PCOD9265640
Probable space group: C 2/C
;
_chemical_formula_sum "Si O2"
_cell_formula_units_Z 36
_cell_length_a 9.386218
_cell_length_b 15.466936
_cell_length_c 15.805398
_cell_angle_alpha 90.000000
_cell_angle_beta 141.659807
_cell_angle_gamma 90.000000
_cell_volume 1423.386119
_symmetry_space_group_name_H-M "C 2/C"
_symmetry_group_IT_number 15
_symmetry_cell_setting 'monoclinic'
loop_
_space_group_symop_operation_xyz
x,y,z
-x,y,1/2-z
-x,-y,-z
x,-y,1/2+z
1/2+x,1/2+y,z
1/2-x,1/2+y,1/2-z
1/2-x,1/2-y,-z
1/2+x,1/2-y,1/2+z
loop_
_atom_site_type_symbol
_atom_site_label
_atom_site_fract_x
_atom_site_fract_y
_atom_site_fract_z
Si Si1 0.319794 0.407600 0.736430
Si Si2 0.288944 0.900522 0.272839
Si Si3 0.290298 0.572284 0.963364
Si Si4 0.000000 0.772014 0.250000
Si Si5 0.631225 0.113529 0.394034
O O1 0.500000 0.379022 0.750000
O O2 0.266693 0.509594 0.706042
O O3 0.065539 0.370073 0.627308
O O4 0.468423 0.393530 0.890628
O O5 0.233167 0.910478 0.147074
O O6 0.565008 0.888155 0.403216
O O7 0.137594 0.828550 0.247121
O O8 0.284353 0.469350 0.986392
O O9 0.180275 0.708540 0.381806
O O10 0.500000 0.074250 0.250000
#
# Coordination Sequence:
#
# PCOD9265640 Si02
#       5
#     8   8   8   4   8
#     4  11  21  38  64  87 113 158 208 243 277 348
#     4  10  19  36  63  89 115 153 195 246 286 359
#     4  10  20  40  64  86 115 158 202 238 293 342
#     4  10  20  40  56  90 128 148 192 236 310 352
#     4   9  20  39  59  86 122 156 185 243 298 349
#
# _framework density 25.291801
#
# number of rings (size 3 to 8) (size 9 to 14) (size 15 to 20)
#    0.667    1.333    5.556    0.667    0.000    3.556 
#    4.000    5.556    0.000    0.000    0.000    0.000 
#    0.000    0.000    0.000    0.000    0.000    0.000 
#
# Total GULP energy -100504.948093 kJ/mol
# GULP energy per Si atom -5583.608227 kJ/mol
# Density = 2.523424 g / cm^3
# Si number density = 25.291801 Si / 1000 Ang^3
#
#
#
# Elastic Constant Matrix: (Units=GPa)
#
#
# Indices 1 2 3 4 5 6 
#
# 1 171.2323 60.1503 22.2814 -0.0001 28.3626 0.0000
# 2 60.1503 110.6436 15.3220 -0.0002 5.4377 -0.0001
# 3 22.2814 15.3220 52.5674 -0.0002 14.5609 -0.0001
# 4 -0.0001 -0.0002 -0.0002 2.6370 -0.0002 5.9365
# 5 28.3626 5.4377 14.5609 -0.0002 35.8206 -0.0002
# 6 0.0000 -0.0001 -0.0001 5.9365 -0.0002 47.3536
#
#
#
# Elastic Compliance Matrix: (Units=1/GPa)
#
#
# Indices 1 2 3 4 5 6 
#
# 1 0.008333 -0.004147 -0.000755 -0.000001 -0.005661 0.000000
# 2 -0.004147 0.011486 -0.002273 0.000001 0.002464 0.000000
# 3 -0.000755 -0.002273 0.022250 0.000001 -0.008102 0.000000
# 4 -0.000001 0.000001 0.000001 0.528323 0.000003 -0.066233
# 5 -0.005661 0.002464 -0.008102 0.000003 0.035319 0.000000
# 6 0.000000 0.000000 0.000000 -0.066233 0.000000 0.029421
#
#
# Mechanical properties :
#
#
# Convention : Reuss Voigt Hill
#
# Bulk Modulus (GPa) = 36.07607 58.88341 47.47974
# Shear Modulus (GPa) = 7.59046 32.94154 20.26600
#
# Velocity S-wave (km/s) = 1.73426 3.61288 2.83377
# Velocity P-wave (km/s) = 4.27845 6.38247 5.43328
#
# Compressibility (1/GPa) = 0.02771921
#
# Stress axis : x y z
#
# Youngs Moduli (GPa) = 120.00673 87.06043 44.94438
#
# Poissons Ratio (x) = 0.36106 0.03393
# Poissons Ratio (y) = 0.49770 0.10214
# Poissons Ratio (z) = 0.09060 0.19785
#
# Static dielectric constant tensor:
#      x y z
#    x 2.088170 0.000000 0.007530 
#    y 0.000000 1.963290 0.000000 
#    z 0.007530 0.000000 2.132570 
# 
# From -- ./inp_files/190742.got.cif
#   From: 2010.05.17/outbox.cif.g08.bks.cpg/sg15_96_cif.got.tgz:190742.got - 2010.06.03 18:47:42.
