data_PCOD9265420
_publ_section_title
;
Structure prediction by ZEFSAII (Michael W. Deem and Ramdas Pophale) SiO2 
 PCOD9265420
Probable space group: C 2/C
;
_chemical_formula_sum "Si O2"
_cell_formula_units_Z 64
_cell_length_a 28.605179
_cell_length_b 18.767302
_cell_length_c 10.369742
_cell_angle_alpha 90.000000
_cell_angle_beta 29.454004
_cell_angle_gamma 90.000000
_cell_volume 2737.388788
_symmetry_space_group_name_H-M "C 2/C"
_symmetry_group_IT_number 15
_symmetry_cell_setting 'monoclinic'
loop_
_space_group_symop_operation_xyz
x,y,z
-x,y,1/2-z
-x,-y,-z
x,-y,1/2+z
1/2+x,1/2+y,z
1/2-x,1/2+y,1/2-z
1/2-x,1/2-y,-z
1/2+x,1/2-y,1/2+z
loop_
_atom_site_type_symbol
_atom_site_label
_atom_site_fract_x
_atom_site_fract_y
_atom_site_fract_z
Si Si1 0.298354 0.965591 0.764617
Si Si2 0.251382 0.775964 0.302172
Si Si3 0.416580 0.515631 0.804466
Si Si4 0.404092 0.794266 0.136670
Si Si5 0.092685 0.870117 0.594528
Si Si6 0.094438 0.452391 0.269295
Si Si7 0.523502 0.659640 0.888983
Si Si8 0.277590 0.680468 0.009769
O O1 0.354119 0.962171 0.493622
O O2 0.341707 0.018179 0.766091
O O3 0.188333 0.984093 0.004391
O O4 0.293003 0.885206 0.834115
O O5 0.344210 0.806680 0.149294
O O6 0.173907 0.745251 0.587104
O O7 0.194286 0.832144 0.349402
O O8 0.279237 0.707061 0.153428
O O9 0.500000 0.500000 0.500000
O O10 0.406452 0.454237 0.936705
O O11 0.439497 0.596543 0.792038
O O12 0.428530 0.869458 0.144255
O O13 0.490451 0.737256 0.919951
O O14 0.000000 0.835901 0.750000
O O15 0.064860 0.867265 0.813426
O O16 0.000000 0.500000 0.500000
O O17 0.612722 0.662071 0.774116
O O18 0.250000 0.750000 0.000000
#
# Coordination Sequence:
#
# PCOD9265420 Si02
#       8
#     8   8   8   8   8   8   8   8
#     4  11  26  48  73 107 152 197 256 315 381 456
#     4  10  21  41  68  98 133 185 231 294 372 432
#     4   9  20  41  66 104 148 181 236 296 382 448
#     4  10  22  44  70  93 139 184 245 301 365 441
#     4  10  19  36  60  94 130 178 223 274 356 437
#     4  12  27  50  74 107 150 209 262 312 375 451
#     4   9  21  39  60  96 129 175 222 291 354 429
#     4  11  23  41  66 102 137 177 238 309 375 435
#
# _framework density 23.379944999999999
#
# number of rings (size 3 to 8) (size 9 to 14) (size 15 to 20)
#    0.000    1.750    1.250    1.875    1.750    6.500 
#    6.750    0.000    0.000    0.000    0.000    0.000 
#    0.000    0.000    0.000    0.000    0.000    0.000 
#
# Total GULP energy -178454.871517 kJ/mol
# GULP energy per Si atom -5576.714735 kJ/mol
# Density = 2.332673 g / cm^3
# Si number density = 23.379945 Si / 1000 Ang^3
#
#
#
# Elastic Constant Matrix: (Units=GPa)
#
#
# Indices 1 2 3 4 5 6 
#
# 1 70.2763 27.2410 18.9679 0.0000 -15.2069 0.0000
# 2 27.2410 143.3298 41.0287 0.0000 -11.8837 0.0000
# 3 18.9679 41.0287 112.4386 0.0000 -1.7965 0.0000
# 4 0.0000 0.0000 0.0000 27.8490 0.0000 -8.9542
# 5 -15.2069 -11.8837 -1.7965 0.0000 37.0714 0.0000
# 6 0.0000 0.0000 0.0000 -8.9542 0.0000 34.9838
#
#
#
# Elastic Compliance Matrix: (Units=1/GPa)
#
#
# Indices 1 2 3 4 5 6 
#
# 1 0.016926 -0.002140 -0.001976 0.000000 0.006161 0.000000
# 2 -0.002140 0.008274 -0.002632 0.000000 0.001647 0.000000
# 3 -0.001976 -0.002632 0.010169 0.000000 -0.001161 0.000000
# 4 0.000000 0.000000 0.000000 0.039128 0.000000 0.010015
# 5 0.006161 0.001647 -0.001161 0.000000 0.029974 0.000000
# 6 0.000000 0.000000 0.000000 0.010015 0.000000 0.031148
#
#
# Mechanical properties :
#
#
# Convention : Reuss Voigt Hill
#
# Bulk Modulus (GPa) = 45.71996 55.61333 50.66664
# Shear Modulus (GPa) = 31.96839 35.90130 33.93484
#
# Velocity S-wave (km/s) = 3.70177 3.92287 3.81392
# Velocity P-wave (km/s) = 6.15374 6.66010 6.41192
#
# Compressibility (1/GPa) = 0.02187229
#
# Stress axis : x y z
#
# Youngs Moduli (GPa) = 59.08170 120.86689 98.34034
#
# Poissons Ratio (x) = 0.25871 0.19430
# Poissons Ratio (y) = 0.12646 0.25879
# Poissons Ratio (z) = 0.11673 0.31808
#
# Static dielectric constant tensor:
#      x y z
#    x 2.006980 0.000000 0.046840 
#    y 0.000000 1.968490 0.000000 
#    z 0.046840 0.000000 1.957430 
# 
# From -- ./inp_files/127285.got.cif
#   From: 2010.05.17/outbox.cif.g08.bks.cpg/sg15_64_cif.got.tgz:127285.got - 2010.06.03 18:47:42.
