data_PCOD9265280
_publ_section_title
;
Structure prediction by ZEFSAII (Michael W. Deem and Ramdas Pophale) SiO2 
 PCOD9265280
Probable space group: C 2/C
;
_chemical_formula_sum "Si O2"
_cell_formula_units_Z 56
_cell_length_a 29.230703
_cell_length_b 19.507779
_cell_length_c 5.490299
_cell_angle_alpha 90.000000
_cell_angle_beta 56.999653
_cell_angle_gamma 90.000000
_cell_volume 2625.625478
_symmetry_space_group_name_H-M "C 2/C"
_symmetry_group_IT_number 15
_symmetry_cell_setting 'monoclinic'
loop_
_space_group_symop_operation_xyz
x,y,z
-x,y,1/2-z
-x,-y,-z
x,-y,1/2+z
1/2+x,1/2+y,z
1/2-x,1/2+y,1/2-z
1/2-x,1/2-y,-z
1/2+x,1/2-y,1/2+z
loop_
_atom_site_type_symbol
_atom_site_label
_atom_site_fract_x
_atom_site_fract_y
_atom_site_fract_z
Si Si1 0.500000 0.639478 0.750000
Si Si2 0.500000 0.556360 0.250000
Si Si3 0.934587 0.458614 0.437202
Si Si4 0.880181 0.970087 0.092109
Si Si5 0.661544 0.674968 0.678240
Si Si6 0.576220 0.762093 0.439920
Si Si7 0.196684 0.209916 0.076352
Si Si8 0.085349 0.690940 0.411902
O O1 0.498234 0.601116 0.499057
O O2 0.552696 0.688467 0.580116
O O3 0.444458 0.513391 0.400205
O O4 0.923630 0.504363 0.710338
O O5 0.901715 0.387302 0.557994
O O6 0.000000 0.442565 0.250000
O O7 0.876338 0.888426 0.136611
O O8 0.856695 0.005954 0.401599
O O9 0.684835 0.660956 0.341958
O O10 0.630610 0.748275 0.752935
O O11 0.702747 0.679989 0.787276
O O12 0.641631 0.756113 0.219738
O O13 0.561495 0.810593 0.708025
O O14 0.553371 0.783103 0.243717
O O15 0.250000 0.250000 0.000000
#
# Coordination Sequence:
#
# PCOD9265280 Si02
#       8
#     4   4   8   8   8   8   8   8
#     4  12  22  35  56  84 124 157 198 258 300 355
#     4  12  22  37  54  76 114 167 214 250 302 355
#     4  10  21  35  52  76 110 148 189 232 286 353
#     4  12  24  40  59  82 123 171 213 259 303 355
#     4  10  21  38  58  91 116 150 203 250 299 362
#     4  10  21  32  52  87 115 150 189 237 294 351
#     4  10  19  36  59  88 118 145 188 253 309 355
#     4  10  20  36  55  79 115 143 193 240 291 351
#
# _framework density 21.328250000000001
#
# number of rings (size 3 to 8) (size 9 to 14) (size 15 to 20)
#    0.000    1.429    0.000    7.714    2.000    0.000 
#    1.286    0.000    0.000    0.000    0.000   80.000 
#    0.000    0.000    0.000    0.000    0.000    0.000 
#
# Total GULP energy -156128.839889 kJ/mol
# GULP energy per Si atom -5576.029996 kJ/mol
# Density = 2.127971 g / cm^3
# Si number density = 21.328250 Si / 1000 Ang^3
#
#
#
# Elastic Constant Matrix: (Units=GPa)
#
#
# Indices 1 2 3 4 5 6 
#
# 1 73.7966 8.6615 31.0731 0.0000 16.3743 0.0000
# 2 8.6615 89.1093 23.4185 0.0000 12.7859 0.0000
# 3 31.0731 23.4185 104.8072 0.0000 54.5943 0.0000
# 4 0.0000 0.0000 0.0000 51.4451 0.0000 22.9412
# 5 16.3743 12.7859 54.5943 0.0000 54.9492 0.0000
# 6 0.0000 0.0000 0.0000 22.9412 0.0000 18.6102
#
#
#
# Elastic Compliance Matrix: (Units=1/GPa)
#
#
# Indices 1 2 3 4 5 6 
#
# 1 0.015492 -0.000317 -0.004469 0.000000 -0.000103 0.000000
# 2 -0.000317 0.011931 -0.002435 0.000000 -0.000262 0.000000
# 3 -0.004469 -0.002435 0.021601 0.000000 -0.019563 0.000000
# 4 0.000000 0.000000 0.000000 0.043169 0.000000 -0.053215
# 5 -0.000103 -0.000262 -0.019563 0.000000 0.037727 0.000000
# 6 0.000000 0.000000 0.000000 -0.053215 0.000000 0.119334
#
#
# Mechanical properties :
#
#
# Convention : Reuss Voigt Hill
#
# Bulk Modulus (GPa) = 28.91679 43.77994 36.34837
# Shear Modulus (GPa) = 18.16712 38.63822 28.40267
#
# Velocity S-wave (km/s) = 2.92170 4.26091 3.65320
# Velocity P-wave (km/s) = 4.99692 6.69167 5.90540
#
# Compressibility (1/GPa) = 0.03458198
#
# Stress axis : x y z
#
# Youngs Moduli (GPa) = 64.54774 83.81811 46.29474
#
# Poissons Ratio (x) = 0.02654 0.20688
# Poissons Ratio (y) = 0.02044 0.11275
# Poissons Ratio (z) = 0.28845 0.20413
#
# Static dielectric constant tensor:
#      x y z
#    x 1.826490 0.000000 0.044920 
#    y 0.000000 1.808490 0.000000 
#    z 0.044920 0.000000 1.848450 
# 
# From -- ./inp_files/18429.got.cif
#   From: 2010.05.17/outbox.cif.g08.bks.cpg/sg15_10_cif.got.tgz:18429.got - 2010.06.03 18:47:42.
