data_PCOD9265929
_publ_section_title
;
Structure prediction by ZEFSAII (Michael W. Deem and Ramdas Pophale) SiO2 
 PCOD9265929
Probable space group: C 2/C
;
_chemical_formula_sum "Si O2"
_cell_formula_units_Z 40
_cell_length_a 4.907624
_cell_length_b 32.429746
_cell_length_c 12.445486
_cell_angle_alpha 90.000000
_cell_angle_beta 77.854878
_cell_angle_gamma 90.000000
_cell_volume 1936.403297
_symmetry_space_group_name_H-M "C 2/C"
_symmetry_group_IT_number 15
_symmetry_cell_setting 'monoclinic'
loop_
_space_group_symop_operation_xyz
x,y,z
-x,y,1/2-z
-x,-y,-z
x,-y,1/2+z
1/2+x,1/2+y,z
1/2-x,1/2+y,1/2-z
1/2-x,1/2-y,-z
1/2+x,1/2-y,1/2+z
loop_
_atom_site_type_symbol
_atom_site_label
_atom_site_fract_x
_atom_site_fract_y
_atom_site_fract_z
Si Si1 0.914174 0.610457 0.377791
Si Si2 0.455247 0.804336 0.538276
Si Si3 0.099885 0.762102 0.863402
Si Si4 0.879084 0.941017 0.936199
Si Si5 0.694422 0.477685 0.325317
O O1 0.984615 0.647877 0.451082
O O2 0.595336 0.596651 0.410129
O O3 0.000000 0.622717 0.250000
O O4 0.103218 0.571470 0.395221
O O5 0.606713 0.781426 0.626071
O O6 0.579220 0.782038 0.423398
O O7 0.130515 0.792836 0.565802
O O8 0.000000 0.758986 0.750000
O O9 0.799897 0.952032 0.064800
O O10 0.037108 0.979925 0.870809
O O11 0.500000 0.457643 0.250000
O O12 0.000000 0.483914 0.250000
#
# Coordination Sequence:
#
# PCOD9265929 Si02
#       5
#     8   8   8   8   8
#     4  12  22  37  58  87 121 149 185 243 296 335
#     4  10  22  35  57  87 113 147 193 232 281 341
#     4  10  19  37  58  81 113 152 192 232 275 333
#     4  11  24  38  60  89 115 149 196 234 284 349
#     4  11  22  41  63  84 114 154 193 236 282 338
#
# _framework density 20.656853999999999
#
# number of rings (size 3 to 8) (size 9 to 14) (size 15 to 20)
#    0.000    1.200    0.000    7.800    0.000    3.200 
#    0.000    3.000    0.000    2.400    0.000    0.000 
#    0.000    0.000    0.000    0.000    0.000    0.000 
#
# Total GULP energy -111817.561227 kJ/mol
# GULP energy per Si atom -5590.878061 kJ/mol
# Density = 2.060984 g / cm^3
# Si number density = 20.656854 Si / 1000 Ang^3
#
#
#
# Elastic Constant Matrix: (Units=GPa)
#
#
# Indices 1 2 3 4 5 6 
#
# 1 87.0294 -18.4000 12.2253 0.0000 4.3833 0.0000
# 2 -18.4000 36.8980 0.2482 0.0000 -3.6091 0.0000
# 3 12.2253 0.2482 66.3659 0.0000 -10.8444 0.0000
# 4 0.0000 0.0000 0.0000 19.8424 0.0000 10.5515
# 5 4.3833 -3.6091 -10.8444 0.0000 27.3936 0.0000
# 6 0.0000 0.0000 0.0000 10.5515 0.0000 5.6693
#
#
#
# Elastic Compliance Matrix: (Units=1/GPa)
#
#
# Indices 1 2 3 4 5 6 
#
# 1 0.013383 0.006455 -0.002887 0.000000 -0.002434 0.000000
# 2 0.006455 0.030586 -0.000870 0.000000 0.002652 0.000000
# 3 -0.002887 -0.000870 0.016743 0.000000 0.006975 0.000000
# 4 0.000000 0.000000 0.000000 4.896254 0.000000 -9.112783
# 5 -0.002434 0.002652 0.006975 0.000000 0.040005 0.000000
# 6 0.000000 0.000000 0.000000 -9.112783 0.000000 17.136872
#
#
# Mechanical properties :
#
#
# Convention : Reuss Voigt Hill
#
# Bulk Modulus (GPa) = 15.12673 19.82669 17.47671
# Shear Modulus (GPa) = 0.22573 23.66236 11.94404
#
# Velocity S-wave (km/s) = 0.33093 3.38819 2.40721
# Velocity P-wave (km/s) = 2.73583 4.99253 4.02555
#
# Compressibility (1/GPa) = 0.06610814
#
# Stress axis : x y z
#
# Youngs Moduli (GPa) = 74.71996 32.69461 59.72690
#
# Poissons Ratio (x) = -0.21105 0.17244
# Poissons Ratio (y) = -0.48233 0.05197
# Poissons Ratio (z) = 0.21573 0.02845
#
# Static dielectric constant tensor:
#      x y z
#    x 1.716330 0.000000 -0.005160 
#    y 0.000000 1.731520 0.000000 
#    z -0.005160 0.000000 1.744160 
# 
# From -- ./inp_files/73597.got.cif
#   From: 2010.05.17/outbox.cif.g08.bks.cpg/sg15_37_cif.got.tgz:73597.got - 2010.06.03 18:47:42.
