data_PCOD9265591
_publ_section_title
;
Structure prediction by ZEFSAII (Michael W. Deem and Ramdas Pophale) SiO2 
 PCOD9265591
Probable space group: C 2/C
;
_chemical_formula_sum "Si O2"
_cell_formula_units_Z 56
_cell_length_a 9.607749
_cell_length_b 15.443307
_cell_length_c 26.280744
_cell_angle_alpha 90.000000
_cell_angle_beta 39.221141
_cell_angle_gamma 90.000000
_cell_volume 2465.660231
_symmetry_space_group_name_H-M "C 2/C"
_symmetry_group_IT_number 15
_symmetry_cell_setting 'monoclinic'
loop_
_space_group_symop_operation_xyz
x,y,z
-x,y,1/2-z
-x,-y,-z
x,-y,1/2+z
1/2+x,1/2+y,z
1/2-x,1/2+y,1/2-z
1/2-x,1/2-y,-z
1/2+x,1/2-y,1/2+z
loop_
_atom_site_type_symbol
_atom_site_label
_atom_site_fract_x
_atom_site_fract_y
_atom_site_fract_z
Si Si1 0.506608 0.388526 0.193270
Si Si2 0.178701 0.560961 0.167306
Si Si3 0.251423 0.233437 0.121466
Si Si4 0.126978 0.345074 0.582492
Si Si5 0.540136 0.411898 0.408043
Si Si6 0.823332 0.229007 0.189963
Si Si7 0.427731 0.798989 0.055022
O O1 0.500000 0.434900 0.250000
O O2 0.420664 0.419848 0.163604
O O3 0.372033 0.297269 0.241262
O O4 0.765178 0.378720 0.108189
O O5 0.078411 0.592224 0.142747
O O6 0.389112 0.505339 0.092462
O O7 0.238037 0.640685 0.188141
O O8 0.000000 0.507676 0.250000
O O9 0.404429 0.190103 0.121116
O O10 0.307633 0.335519 0.111896
O O11 0.991873 0.219134 0.188818
O O12 0.358552 0.194492 0.039399
O O13 0.292609 0.386440 0.494339
O O14 0.273152 0.269309 0.567505
O O15 0.959449 0.269298 0.103888
#
# Coordination Sequence:
#
# PCOD9265591 Si02
#       7
#     8   8   8   8   8   8   8
#     4  10  19  36  62  90 124 167 208 258 315 369
#     4  11  25  43  60  87 131 171 199 255 330 385
#     4  11  20  35  66  98 117 153 221 265 298 364
#     4  10  19  40  66  92 123 168 205 254 322 381
#     4  11  22  39  67  94 120 161 218 262 303 373
#     4  10  22  35  60  89 126 165 206 250 320 377
#     4   9  16  36  58  88 119 161 206 252 302 368
#
# _framework density 22.711967999999999
#
# number of rings (size 3 to 8) (size 9 to 14) (size 15 to 20)
#    0.000    1.714    2.857    3.857    2.000    0.000 
#    0.000    2.143    0.000    0.000    0.000    0.000 
#    0.000    0.000    0.000    0.000    0.000    0.000 
#
# Total GULP energy -156128.230789 kJ/mol
# GULP energy per Si atom -5576.008242 kJ/mol
# Density = 2.266027 g / cm^3
# Si number density = 22.711968 Si / 1000 Ang^3
#
#
#
# Elastic Constant Matrix: (Units=GPa)
#
#
# Indices 1 2 3 4 5 6 
#
# 1 120.2581 14.3544 23.0200 -0.0002 -9.9569 -0.0002
# 2 14.3544 19.9257 1.6266 0.0003 -0.8712 0.0000
# 3 23.0200 1.6266 85.1066 -0.0019 8.6039 0.0009
# 4 -0.0002 0.0003 -0.0019 13.6365 0.0007 -0.4161
# 5 -9.9569 -0.8712 8.6039 0.0007 45.2345 0.0001
# 6 -0.0002 0.0000 0.0009 -0.4161 0.0001 2.2270
#
#
#
# Elastic Compliance Matrix: (Units=1/GPa)
#
#
# Indices 1 2 3 4 5 6 
#
# 1 0.009873 -0.006771 -0.002802 0.000000 0.002576 0.000002
# 2 -0.006771 0.054970 0.000841 -0.000001 -0.000592 -0.000002
# 3 -0.002802 0.000841 0.012798 0.000002 -0.003035 -0.000005
# 4 0.000000 -0.000001 0.000002 0.073753 -0.000002 0.013780
# 5 0.002576 -0.000592 -0.003035 -0.000002 0.023240 0.000000
# 6 0.000002 -0.000002 -0.000005 0.013780 0.000000 0.451605
#
#
# Mechanical properties :
#
#
# Convention : Reuss Voigt Hill
#
# Bulk Modulus (GPa) = 16.61750 33.69918 25.15834
# Shear Modulus (GPa) = 7.53280 24.63889 16.08585
#
# Velocity S-wave (km/s) = 1.82315 3.29727 2.66419
# Velocity P-wave (km/s) = 3.42992 5.41902 4.53487
#
# Compressibility (1/GPa) = 0.06017751
#
# Stress axis : x y z
#
# Youngs Moduli (GPa) = 101.28395 18.19171 78.13429
#
# Poissons Ratio (x) = 0.12318 0.21890
# Poissons Ratio (y) = 0.68583 -0.06569
# Poissons Ratio (z) = 0.28375 -0.01529
#
# Static dielectric constant tensor:
#      x y z
#    x 1.894800 0.000000 0.018300 
#    y 0.000000 1.890560 0.000000 
#    z 0.018300 0.000000 1.873270 
# 
# From -- ./inp_files/289694.got.cif
#   From: 2010.05.17/outbox.cif.g08.bks.cpg/sg15_145_cif.got.tgz:289694.got - 2010.06.03 18:47:42.
