data_PCOD9265505
_publ_section_title
;
Structure prediction by ZEFSAII (Michael W. Deem and Ramdas Pophale) SiO2 
 PCOD9265505
Probable space group: C 2/C
;
_chemical_formula_sum "Si O2"
_cell_formula_units_Z 60
_cell_length_a 20.944949
_cell_length_b 9.183988
_cell_length_c 17.362733
_cell_angle_alpha 90.000000
_cell_angle_beta 121.599795
_cell_angle_gamma 90.000000
_cell_volume 2844.657856
_symmetry_space_group_name_H-M "C 2/C"
_symmetry_group_IT_number 15
_symmetry_cell_setting 'monoclinic'
loop_
_space_group_symop_operation_xyz
x,y,z
-x,y,1/2-z
-x,-y,-z
x,-y,1/2+z
1/2+x,1/2+y,z
1/2-x,1/2+y,1/2-z
1/2-x,1/2-y,-z
1/2+x,1/2-y,1/2+z
loop_
_atom_site_type_symbol
_atom_site_label
_atom_site_fract_x
_atom_site_fract_y
_atom_site_fract_z
Si Si1 0.041097 0.930012 0.910784
Si Si2 0.500000 0.204540 0.750000
Si Si3 0.809501 0.091031 0.895998
Si Si4 0.361789 0.843940 0.840797
Si Si5 0.382608 0.669980 0.366050
Si Si6 0.077737 0.550459 0.509484
Si Si7 0.014052 0.738825 0.349412
Si Si8 0.651483 0.888678 0.283196
O O1 0.029468 0.812624 0.835469
O O2 0.963008 0.910110 0.908188
O O3 0.044979 0.098168 0.885748
O O4 0.116898 0.892166 0.004500
O O5 0.429846 0.106480 0.730043
O O6 0.810929 0.205956 0.826294
O O7 0.727286 0.106670 0.880686
O O8 0.822888 0.934845 0.866144
O O9 0.438235 0.779517 0.852062
O O10 0.370081 0.919209 0.930579
O O11 0.341425 0.975516 0.771060
O O12 0.396697 0.806582 0.429461
O O13 0.355945 0.737051 0.268595
O O14 0.064986 0.607259 0.415448
O O15 0.000000 0.500000 0.500000
O O16 0.000000 0.727801 0.250000
#
# Coordination Sequence:
#
# PCOD9265505 Si02
#       8
#     8   4   8   8   8   8   8   8
#     4  11  20  35  64  93 122 169 209 264 311 390
#     4  10  24  44  60  84 132 170 220 250 324 396
#     4  12  21  37  67  96 126 160 220 270 324 368
#     4  10  22  39  60  93 129 163 210 264 320 378
#     4  10  19  36  61  91 125 162 214 262 315 375
#     4   9  18  34  56  88 129 160 211 260 308 373
#     4  11  20  34  60  94 125 165 214 255 313 380
#     4  10  24  41  62  93 125 172 207 271 320 387
#
# _framework density 21.092168000000001
#
# number of rings (size 3 to 8) (size 9 to 14) (size 15 to 20)
#    0.000    1.600    3.333    2.800    0.933    1.600 
#    0.000    0.000    0.000    0.800    0.000    0.000 
#    0.000    0.000    0.000    0.000    0.000    0.000 
#
# Total GULP energy -167330.480510 kJ/mol
# GULP energy per Si atom -5577.682684 kJ/mol
# Density = 2.104416 g / cm^3
# Si number density = 21.092168 Si / 1000 Ang^3
#
#
#
# Elastic Constant Matrix: (Units=GPa)
#
#
# Indices 1 2 3 4 5 6 
#
# 1 98.7358 27.6008 55.3585 0.0000 28.0485 0.0000
# 2 27.6008 117.9800 36.9857 0.0000 1.3478 0.0000
# 3 55.3585 36.9857 91.6919 0.0000 10.2482 0.0000
# 4 0.0000 0.0000 0.0000 15.2854 0.0000 -11.0636
# 5 28.0485 1.3478 10.2482 0.0000 32.1265 0.0000
# 6 0.0000 0.0000 0.0000 -11.0636 0.0000 18.3351
#
#
#
# Elastic Compliance Matrix: (Units=1/GPa)
#
#
# Indices 1 2 3 4 5 6 
#
# 1 0.020252 -0.001426 -0.010040 0.000000 -0.014419 0.000000
# 2 -0.001426 0.009827 -0.003314 0.000000 0.001890 0.000000
# 3 -0.010040 -0.003314 0.017950 0.000000 0.003179 0.000000
# 4 0.000000 0.000000 0.000000 0.116150 0.000000 0.070086
# 5 -0.014419 0.001890 0.003179 0.000000 0.042622 0.000000
# 6 0.000000 0.000000 0.000000 0.070086 0.000000 0.096831
#
#
# Mechanical properties :
#
#
# Convention : Reuss Voigt Hill
#
# Bulk Modulus (GPa) = 54.14880 60.92196 57.53538
# Shear Modulus (GPa) = 14.73412 25.71358 20.22385
#
# Velocity S-wave (km/s) = 2.64589 3.49536 3.09986
# Velocity P-wave (km/s) = 5.92136 6.72580 6.33636
#
# Compressibility (1/GPa) = 0.01846763
#
# Stress axis : x y z
#
# Youngs Moduli (GPa) = 49.37799 101.76080 55.71161
#
# Poissons Ratio (x) = 0.14506 0.55937
# Poissons Ratio (y) = 0.07039 0.18465
# Poissons Ratio (z) = 0.49578 0.33728
#
# Static dielectric constant tensor:
#      x y z
#    x 1.758340 0.000000 0.007710 
#    y 0.000000 1.692610 0.000000 
#    z 0.007710 0.000000 1.828470 
# 
# From -- ./inp_files/218624.got.cif
#   From: 2010.05.17/outbox.cif.g08.bks.cpg/sg15_110_cif.got.tgz:218624.got - 2010.06.03 18:47:42.
