data_PCOD9265836
_publ_section_title
;
Structure prediction by ZEFSAII (Michael W. Deem and Ramdas Pophale) SiO2 
 PCOD9265836
Probable space group: C 2/C
;
_chemical_formula_sum "Si O2"
_cell_formula_units_Z 56
_cell_length_a 13.272638
_cell_length_b 22.670559
_cell_length_c 14.552172
_cell_angle_alpha 90.000000
_cell_angle_beta 139.735317
_cell_angle_gamma 90.000000
_cell_volume 2830.053138
_symmetry_space_group_name_H-M "C 2/C"
_symmetry_group_IT_number 15
_symmetry_cell_setting 'monoclinic'
loop_
_space_group_symop_operation_xyz
x,y,z
-x,y,1/2-z
-x,-y,-z
x,-y,1/2+z
1/2+x,1/2+y,z
1/2-x,1/2+y,1/2-z
1/2-x,1/2-y,-z
1/2+x,1/2-y,1/2+z
loop_
_atom_site_type_symbol
_atom_site_label
_atom_site_fract_x
_atom_site_fract_y
_atom_site_fract_z
Si Si1 0.475433 0.071767 0.494141
Si Si2 0.189403 0.489160 0.885381
Si Si3 0.180035 0.757472 0.553618
Si Si4 0.830533 0.028008 0.164386
Si Si5 0.874071 0.632377 0.240676
Si Si6 0.299281 0.564054 0.803461
Si Si7 0.413250 0.324926 0.288878
O O1 0.303313 0.076952 0.417468
O O2 0.464292 0.109577 0.393604
O O3 0.624168 0.086245 0.658058
O O4 0.500000 0.000000 0.500000
O O5 0.212770 0.426630 0.853355
O O6 0.283582 0.538712 0.894718
O O7 0.000000 0.499614 0.750000
O O8 0.256434 0.486328 0.034023
O O9 0.250000 0.750000 0.500000
O O10 0.257248 0.813131 0.659506
O O11 0.241431 0.699697 0.647238
O O12 0.003685 0.774319 0.408664
O O13 0.000000 0.047638 0.250000
O O14 0.839808 0.990721 0.264521
O O15 0.000000 0.647371 0.250000
O O16 0.409015 0.616811 0.847550
O O17 0.500000 0.334688 0.250000
#
# Coordination Sequence:
#
# PCOD9265836 Si02
#       7
#     8   8   8   8   8   8   8
#     4  10  19  37  53  85 118 158 203 235 296 370
#     4  11  21  37  60  85 122 163 196 239 306 363
#     4  10  23  38  53  86 120 159 204 242 305 362
#     4  11  23  35  53  85 126 153 194 247 295 352
#     4  11  20  32  60  84 122 162 198 242 299 365
#     4  11  21  38  60  84 120 163 204 239 297 369
#     4  10  23  38  57  83 122 154 201 247 296 357
#
# _framework density 19.787613
#
# number of rings (size 3 to 8) (size 9 to 14) (size 15 to 20)
#    0.000    1.429    4.286    4.286   12.000    1.714 
#    0.000    0.000    0.000    0.000    0.000    5.000 
#    0.000    0.000    0.000    0.000    0.000    0.000 
#
# Total GULP energy -156131.625164 kJ/mol
# GULP energy per Si atom -5576.129470 kJ/mol
# Density = 1.974258 g / cm^3
# Si number density = 19.787613 Si / 1000 Ang^3
#
#
#
# Elastic Constant Matrix: (Units=GPa)
#
#
# Indices 1 2 3 4 5 6 
#
# 1 75.0658 15.0675 12.5896 0.0000 17.2593 0.0000
# 2 15.0675 53.8117 5.2025 0.0000 -1.8699 0.0000
# 3 12.5896 5.2025 51.2454 0.0000 9.8461 0.0000
# 4 0.0000 0.0000 0.0000 20.9175 0.0000 3.5603
# 5 17.2593 -1.8699 9.8461 0.0000 30.9179 0.0000
# 6 0.0000 0.0000 0.0000 3.5603 0.0000 26.4229
#
#
#
# Elastic Compliance Matrix: (Units=1/GPa)
#
#
# Indices 1 2 3 4 5 6 
#
# 1 0.016668 -0.004798 -0.001879 0.000000 -0.008997 0.000000
# 2 -0.004798 0.020249 -0.001733 0.000000 0.004455 0.000000
# 3 -0.001879 -0.001733 0.021272 0.000000 -0.005830 0.000000
# 4 0.000000 0.000000 0.000000 0.048929 0.000000 -0.006593
# 5 -0.008997 0.004455 -0.005830 0.000000 0.039492 0.000000
# 6 0.000000 0.000000 0.000000 -0.006593 0.000000 0.038734
#
#
# Mechanical properties :
#
#
# Convention : Reuss Voigt Hill
#
# Bulk Modulus (GPa) = 24.17293 27.31578 25.74436
# Shear Modulus (GPa) = 23.15300 25.46922 24.31111
#
# Velocity S-wave (km/s) = 3.42435 3.59155 3.50895
# Velocity P-wave (km/s) = 5.27992 5.57077 5.42729
#
# Compressibility (1/GPa) = 0.04136859
#
# Stress axis : x y z
#
# Youngs Moduli (GPa) = 59.99369 49.38474 47.01080
#
# Poissons Ratio (x) = 0.23696 0.08835
# Poissons Ratio (y) = 0.28786 0.08147
# Poissons Ratio (z) = 0.11275 0.08558
#
# Static dielectric constant tensor:
#      x y z
#    x 1.752730 0.000000 0.019590 
#    y 0.000000 1.702770 0.000000 
#    z 0.019590 0.000000 1.772740 
# 
# From -- ./inp_files/156243.got.cif
#   From: 2010.05.17/outbox.cif.g08.bks.cpg/sg15_79_cif.got.tgz:156243.got - 2010.06.03 18:47:42.
