data_PCOD9265735
_publ_section_title
;
Structure prediction by ZEFSAII (Michael W. Deem and Ramdas Pophale) SiO2 
 PCOD9265735
Probable space group: C 2/C
;
_chemical_formula_sum "Si O2"
_cell_formula_units_Z 52
_cell_length_a 12.452692
_cell_length_b 12.845722
_cell_length_c 13.146348
_cell_angle_alpha 90.000000
_cell_angle_beta 110.481571
_cell_angle_gamma 90.000000
_cell_volume 1970.002231
_symmetry_space_group_name_H-M "C 2/C"
_symmetry_group_IT_number 15
_symmetry_cell_setting 'monoclinic'
loop_
_space_group_symop_operation_xyz
x,y,z
-x,y,1/2-z
-x,-y,-z
x,-y,1/2+z
1/2+x,1/2+y,z
1/2-x,1/2+y,1/2-z
1/2-x,1/2-y,-z
1/2+x,1/2-y,1/2+z
loop_
_atom_site_type_symbol
_atom_site_label
_atom_site_fract_x
_atom_site_fract_y
_atom_site_fract_z
Si Si1 0.871042 0.519231 0.324793
Si Si2 0.500000 0.854931 0.250000
Si Si3 0.288588 0.165895 0.119093
Si Si4 0.694786 0.356555 0.234152
Si Si5 0.630612 0.290801 0.918151
Si Si6 0.490986 0.779250 0.929913
Si Si7 0.368233 0.514841 0.985493
O O1 0.921259 0.610573 0.410876
O O2 0.756022 0.454412 0.311434
O O3 0.963127 0.430115 0.328837
O O4 0.882278 0.299813 0.567576
O O5 0.397547 0.776936 0.188967
O O6 0.253498 0.260241 0.181989
O O7 0.350795 0.083581 0.214323
O O8 0.190981 0.096568 0.034503
O O9 0.570903 0.299438 0.171249
O O10 0.694803 0.413111 0.121153
O O11 0.750000 0.250000 0.000000
O O12 0.530418 0.267765 0.966267
O O13 0.635361 0.414589 0.914662
O O14 0.500000 0.500000 0.000000
#
# Coordination Sequence:
#
# PCOD9265735 Si02
#       7
#     8   4   8   8   8   8   8
#     4  10  19  36  65 106 134 181 232 287 348 422
#     4  12  22  40  72  96 138 178 236 292 360 428
#     4  10  19  40  72  98 141 188 238 293 348 428
#     4   9  19  36  66 101 140 183 231 288 353 419
#     4  11  26  47  70 101 142 185 239 300 364 435
#     4  10  20  41  69  97 140 185 236 298 346 431
#     4  10  23  44  67 102 151 184 229 301 360 429
#
# _framework density 26.395907000000001
#
# number of rings (size 3 to 8) (size 9 to 14) (size 15 to 20)
#    0.000    1.846    1.538    4.154    2.154    0.615 
#    2.769    7.692    3.385    0.000    0.000    0.000 
#    0.000    0.000    0.000    0.000    0.000    0.000 
#
# Total GULP energy -144986.542456 kJ/mol
# GULP energy per Si atom -5576.405479 kJ/mol
# Density = 2.633583 g / cm^3
# Si number density = 26.395907 Si / 1000 Ang^3
#
#
#
# Elastic Constant Matrix: (Units=GPa)
#
#
# Indices 1 2 3 4 5 6 
#
# 1 139.5073 82.7434 28.8613 0.0000 2.8301 0.0000
# 2 82.7434 199.0176 53.0821 0.0000 -0.7140 0.0000
# 3 28.8613 53.0821 63.7292 0.0000 7.5117 0.0000
# 4 0.0000 0.0000 0.0000 23.0882 0.0000 18.5282
# 5 2.8301 -0.7140 7.5117 0.0000 30.3555 0.0000
# 6 0.0000 0.0000 0.0000 18.5282 0.0000 47.2632
#
#
#
# Elastic Compliance Matrix: (Units=1/GPa)
#
#
# Indices 1 2 3 4 5 6 
#
# 1 0.009613 -0.003676 -0.001211 0.000000 -0.000683 0.000000
# 2 -0.003676 0.007935 -0.005157 0.000000 0.001806 0.000000
# 3 -0.001211 -0.005157 0.021154 0.000000 -0.005243 0.000000
# 4 0.000000 0.000000 0.000000 0.063192 0.000000 -0.024773
# 5 -0.000683 0.001806 -0.005243 0.000000 0.034347 0.000000
# 6 0.000000 0.000000 0.000000 -0.024773 0.000000 0.030869
#
#
# Mechanical properties :
#
#
# Convention : Reuss Voigt Hill
#
# Bulk Modulus (GPa) = 53.72717 81.29197 67.50957
# Shear Modulus (GPa) = 25.85279 35.97921 30.91600
#
# Velocity S-wave (km/s) = 3.13297 3.69597 3.42605
# Velocity P-wave (km/s) = 5.78670 7.00554 6.42509
#
# Compressibility (1/GPa) = 0.01861256
#
# Stress axis : x y z
#
# Youngs Moduli (GPa) = 104.02819 126.02214 47.27325
#
# Poissons Ratio (x) = 0.46327 0.05725
# Poissons Ratio (y) = 0.38241 0.24381
# Poissons Ratio (z) = 0.12597 0.64995
#
# Static dielectric constant tensor:
#      x y z
#    x 1.948920 0.000000 0.015370 
#    y 0.000000 2.067700 0.000000 
#    z 0.015370 0.000000 2.130460 
# 
# From -- ./inp_files/210991.got.cif
#   From: 2010.05.17/outbox.cif.g08.bks.cpg/sg15_106_cif.got.tgz:210991.got - 2010.06.03 18:47:42.
