data_PCOD9265150
_publ_section_title
;
Structure prediction by ZEFSAII (Michael W. Deem and Ramdas Pophale) SiO2 
 PCOD9265150
Probable space group: C 2/C
;
_chemical_formula_sum "Si O2"
_cell_formula_units_Z 32
_cell_length_a 11.374498
_cell_length_b 8.572369
_cell_length_c 18.091721
_cell_angle_alpha 90.000000
_cell_angle_beta 58.758718
_cell_angle_gamma 90.000000
_cell_volume 1508.253762
_symmetry_space_group_name_H-M "C 2/C"
_symmetry_group_IT_number 15
_symmetry_cell_setting 'monoclinic'
loop_
_space_group_symop_operation_xyz
x,y,z
-x,y,1/2-z
-x,-y,-z
x,-y,1/2+z
1/2+x,1/2+y,z
1/2-x,1/2+y,1/2-z
1/2-x,1/2-y,-z
1/2+x,1/2-y,1/2+z
loop_
_atom_site_type_symbol
_atom_site_label
_atom_site_fract_x
_atom_site_fract_y
_atom_site_fract_z
Si Si1 0.932846 0.631116 0.074849
Si Si2 0.343678 0.386732 0.005557
Si Si3 0.824575 0.673151 0.404050
Si Si4 0.364695 0.495187 0.338769
O O1 0.773013 0.589293 0.137315
O O2 0.020982 0.636105 0.120097
O O3 0.944472 0.794119 0.026595
O O4 0.000000 0.500000 0.000000
O O5 0.398447 0.469841 0.914023
O O6 0.250000 0.250000 0.000000
O O7 0.254550 0.511089 0.080903
O O8 0.750000 0.750000 0.500000
O O9 0.827827 0.811330 0.343983
O O10 0.500000 0.535479 0.250000
#
# Coordination Sequence:
#
# PCOD9265150 Si02
#       4
#     8   8   8   8
#     4  11  19  38  62  83 113 153 196 236 282 347
#     4   9  18  35  62  82 108 151 195 228 280 343
#     4  10  19  36  58  85 111 150 197 231 281 349
#     4  10  22  40  53  85 125 143 190 249 284 339
#
# _framework density 21.216587000000001
#
# number of rings (size 3 to 8) (size 9 to 14) (size 15 to 20)
#    0.000    2.000    7.500    0.000    0.000    4.000 
#    4.500    5.000    0.000    0.000    0.000    0.000 
#    0.000    0.000    0.000    0.000    0.000    0.000 
#
# Total GULP energy -89261.282781 kJ/mol
# GULP energy per Si atom -5578.830174 kJ/mol
# Density = 2.116830 g / cm^3
# Si number density = 21.216587 Si / 1000 Ang^3
#
#
#
# Elastic Constant Matrix: (Units=GPa)
#
#
# Indices 1 2 3 4 5 6 
#
# 1 77.5526 29.6851 25.7412 0.0000 -20.6737 0.0000
# 2 29.6851 112.0909 19.7012 0.0000 -3.8315 0.0000
# 3 25.7412 19.7012 89.2014 0.0000 -34.0298 0.0000
# 4 0.0000 0.0000 0.0000 17.3685 0.0000 -6.8621
# 5 -20.6737 -3.8315 -34.0298 0.0000 26.1870 0.0000
# 6 0.0000 0.0000 0.0000 -6.8621 0.0000 45.5863
#
#
#
# Elastic Compliance Matrix: (Units=1/GPa)
#
#
# Indices 1 2 3 4 5 6 
#
# 1 0.018397 -0.004660 0.001985 0.000000 0.016421 0.000000
# 2 -0.004660 0.010551 -0.003570 0.000000 -0.006774 0.000000
# 3 0.001985 -0.003570 0.023450 0.000000 0.031518 0.000000
# 4 0.000000 0.000000 0.000000 0.061216 0.000000 0.009215
# 5 0.016421 -0.006774 0.031518 0.000000 0.091117 0.000000
# 6 0.000000 0.000000 0.000000 0.009215 0.000000 0.023324
#
#
# Mechanical properties :
#
#
# Convention : Reuss Voigt Hill
#
# Bulk Modulus (GPa) = 25.05718 47.67777 36.36747
# Shear Modulus (GPa) = 19.69695 31.40954 25.55325
#
# Velocity S-wave (km/s) = 3.05023 3.85180 3.47421
# Velocity P-wave (km/s) = 4.92352 6.50404 5.76817
#
# Compressibility (1/GPa) = 0.03990872
#
# Stress axis : x y z
#
# Youngs Moduli (GPa) = 54.35762 94.77559 42.64375
#
# Poissons Ratio (x) = 0.44161 -0.08464
# Poissons Ratio (y) = 0.25328 0.15223
# Poissons Ratio (z) = -0.10789 0.33834
#
# Static dielectric constant tensor:
#      x y z
#    x 1.821920 0.000000 0.005160 
#    y 0.000000 1.869800 0.000000 
#    z 0.005160 0.000000 1.753460 
# 
# From -- ./inp_files/140532.got.cif
#   From: 2010.05.17/outbox.cif.g08.bks.cpg/sg15_71_cif.got.tgz:140532.got - 2010.06.03 18:47:42.
