data_PCOD9265214
_publ_section_title
;
Structure prediction by ZEFSAII (Michael W. Deem and Ramdas Pophale) SiO2 
 PCOD9265214
Probable space group: C 2/C
;
_chemical_formula_sum "Si O2"
_cell_formula_units_Z 40
_cell_length_a 15.043701
_cell_length_b 15.587768
_cell_length_c 6.556065
_cell_angle_alpha 90.000000
_cell_angle_beta 100.967526
_cell_angle_gamma 90.000000
_cell_volume 1509.302278
_symmetry_space_group_name_H-M "C 2/C"
_symmetry_group_IT_number 15
_symmetry_cell_setting 'monoclinic'
loop_
_space_group_symop_operation_xyz
x,y,z
-x,y,1/2-z
-x,-y,-z
x,-y,1/2+z
1/2+x,1/2+y,z
1/2-x,1/2+y,1/2-z
1/2-x,1/2-y,-z
1/2+x,1/2-y,1/2+z
loop_
_atom_site_type_symbol
_atom_site_label
_atom_site_fract_x
_atom_site_fract_y
_atom_site_fract_z
Si Si1 0.770688 0.113374 0.995771
Si Si2 0.378642 0.281861 0.238792
Si Si3 0.432550 0.876057 0.980774
Si Si4 0.626695 0.888028 0.984524
Si Si5 0.818973 0.927838 0.973258
O O1 0.795852 0.116215 0.247059
O O2 0.804508 0.191462 0.873533
O O3 0.660691 0.112807 0.936780
O O4 0.829414 0.029223 0.953889
O O5 0.444014 0.224258 0.410986
O O6 0.353105 0.211922 0.056135
O O7 0.392864 0.369720 0.120001
O O8 0.535681 0.900178 0.073996
O O9 0.404401 0.921197 0.754153
O O10 0.724493 0.927270 0.062533
#
# Coordination Sequence:
#
# PCOD9265214 Si02
#       5
#     8   8   8   8   8
#     4  11  21  34  57  86 114 147 187 227 284 330
#     4  10  19  36  59  80 110 148 194 232 269 332
#     4   8  18  35  57  80 111 145 181 232 279 324
#     4   8  18  35  57  80 111 145 181 232 279 324
#     4  11  21  34  57  86 114 147 187 227 284 330
#
# _framework density 26.502312
#
# number of rings (size 3 to 8) (size 9 to 14) (size 15 to 20)
#    1.200    1.200    2.000    1.200    0.000    0.800 
#    0.000    1.000    0.000    8.400    0.000    0.000 
#    0.000    0.000    0.000    0.000    0.000    0.000 
#
# Total GULP energy -111356.914480 kJ/mol
# GULP energy per Si atom -5567.845724 kJ/mol
# Density = 2.644199 g / cm^3
# Si number density = 26.502312 Si / 1000 Ang^3
#
#
#
# Elastic Constant Matrix: (Units=GPa)
#
#
# Indices 1 2 3 4 5 6 
#
# 1 57.4094 28.9483 28.9965 0.0000 -1.7931 0.0000
# 2 28.9483 140.9604 20.9161 0.0000 7.1876 0.0000
# 3 28.9965 20.9161 75.1779 0.0000 -6.6271 0.0000
# 4 0.0000 0.0000 0.0000 31.2426 0.0000 1.2104
# 5 -1.7931 7.1876 -6.6271 0.0000 50.3476 0.0000
# 6 0.0000 0.0000 0.0000 1.2104 0.0000 11.5380
#
#
#
# Elastic Compliance Matrix: (Units=1/GPa)
#
#
# Indices 1 2 3 4 5 6 
#
# 1 0.023261 -0.003614 -0.007940 0.000000 0.000299 0.000000
# 2 -0.003614 0.008052 -0.000970 0.000000 -0.001406 0.000000
# 3 -0.007940 -0.000970 0.016817 0.000000 0.002069 0.000000
# 4 0.000000 0.000000 0.000000 0.032138 0.000000 -0.003371
# 5 0.000299 -0.001406 0.002069 0.000000 0.020346 0.000000
# 6 0.000000 0.000000 0.000000 -0.003371 0.000000 0.087024
#
#
# Mechanical properties :
#
#
# Convention : Reuss Voigt Hill
#
# Bulk Modulus (GPa) = 43.32562 47.91882 45.62222
# Shear Modulus (GPa) = 22.68818 31.60477 27.14647
#
# Velocity S-wave (km/s) = 2.92906 3.45705 3.20395
# Velocity P-wave (km/s) = 5.27471 5.83568 5.56227
#
# Compressibility (1/GPa) = 0.02308103
#
# Stress axis : x y z
#
# Youngs Moduli (GPa) = 42.99083 124.19209 59.46512
#
# Poissons Ratio (x) = 0.44884 0.47215
# Poissons Ratio (y) = 0.15537 0.05769
# Poissons Ratio (z) = 0.34134 0.12049
#
# Static dielectric constant tensor:
#      x y z
#    x 2.037980 0.000000 -0.002300 
#    y 0.000000 2.170130 0.000000 
#    z -0.002300 0.000000 2.218830 
# 
# From -- ./inp_files/38671.got.cif
#   From: 2010.05.17/outbox.cif.g08.bks.cpg/sg15_20_cif.got.tgz:38671.got - 2010.06.03 18:47:42.
