data_PCOD9265976
_publ_section_title
;
Structure prediction by ZEFSAII (Michael W. Deem and Ramdas Pophale) SiO2 
 PCOD9265976
Probable space group: C 2/C
;
_chemical_formula_sum "Si O2"
_cell_formula_units_Z 56
_cell_length_a 8.375980
_cell_length_b 21.127588
_cell_length_c 14.664977
_cell_angle_alpha 90.000000
_cell_angle_beta 110.815722
_cell_angle_gamma 90.000000
_cell_volume 2425.784866
_symmetry_space_group_name_H-M "C 2/C"
_symmetry_group_IT_number 15
_symmetry_cell_setting 'monoclinic'
loop_
_space_group_symop_operation_xyz
x,y,z
-x,y,1/2-z
-x,-y,-z
x,-y,1/2+z
1/2+x,1/2+y,z
1/2-x,1/2+y,1/2-z
1/2-x,1/2-y,-z
1/2+x,1/2-y,1/2+z
loop_
_atom_site_type_symbol
_atom_site_label
_atom_site_fract_x
_atom_site_fract_y
_atom_site_fract_z
Si Si1 0.607506 0.291274 0.854460
Si Si2 0.526909 0.898065 0.361462
Si Si3 0.474169 0.781104 0.999374
Si Si4 0.812932 0.976259 0.191225
Si Si5 0.848362 0.633811 0.097309
Si Si6 0.734180 0.105272 0.223973
Si Si7 0.697390 0.499154 0.514490
O O1 0.500000 0.261936 0.750000
O O2 0.512898 0.278469 0.930389
O O3 0.647054 0.361786 0.826951
O O4 0.801956 0.267244 0.907077
O O5 0.500000 0.881054 0.250000
O O6 0.557929 0.839360 0.435896
O O7 0.342263 0.928341 0.343850
O O8 0.674990 0.951025 0.409731
O O9 0.621903 0.806138 0.962369
O O10 0.000000 0.948869 0.250000
O O11 0.783618 0.033486 0.256314
O O12 0.798662 0.012007 0.092316
O O13 0.774646 0.644451 0.183611
O O14 0.752372 0.574028 0.036387
O O15 0.041419 0.607591 0.149251
O O16 0.500000 0.500000 0.500000
#
# Coordination Sequence:
#
# PCOD9265976 Si02
#       7
#     8   8   8   8   8   8   8
#     4  10  21  40  64  95 123 166 234 287 331 405
#     4  12  23  40  63  95 136 181 222 277 348 414
#     4  10  22  40  66  92 131 173 221 288 347 398
#     4  12  23  38  60  97 140 180 223 277 342 422
#     4  10  19  37  58  92 128 175 217 279 338 403
#     4  10  20  35  63  91 132 172 228 277 333 400
#     4  12  23  37  60  94 138 180 227 268 336 420
#
# _framework density 23.08531
#
# number of rings (size 3 to 8) (size 9 to 14) (size 15 to 20)
#    0.000    1.143    2.857    5.571    0.000    1.143 
#    0.000    0.714    0.000    5.143   14.857    0.000 
#    0.000    0.000    0.000    0.000    0.000    0.000 
#
# Total GULP energy -156292.342136 kJ/mol
# GULP energy per Si atom -5581.869362 kJ/mol
# Density = 2.303277 g / cm^3
# Si number density = 23.085310 Si / 1000 Ang^3
#
#
#
# Elastic Constant Matrix: (Units=GPa)
#
#
# Indices 1 2 3 4 5 6 
#
# 1 101.2360 68.3825 45.1086 0.0000 23.5877 0.0000
# 2 68.3825 70.9743 30.4537 0.0000 8.0875 0.0000
# 3 45.1086 30.4537 130.6572 0.0000 10.9805 0.0000
# 4 0.0000 0.0000 0.0000 27.0379 0.0000 -13.3485
# 5 23.5877 8.0875 10.9805 0.0000 55.9604 0.0000
# 6 0.0000 0.0000 0.0000 -13.3485 0.0000 24.3592
#
#
#
# Elastic Compliance Matrix: (Units=1/GPa)
#
#
# Indices 1 2 3 4 5 6 
#
# 1 0.034214 -0.030193 -0.003995 0.000000 -0.009274 0.000000
# 2 -0.030193 0.042438 -0.000022 0.000000 0.006598 0.000000
# 3 -0.003995 -0.000022 0.009045 0.000000 -0.000088 0.000000
# 4 0.000000 0.000000 0.000000 0.050702 0.000000 0.027784
# 5 -0.009274 0.006598 -0.000088 0.000000 0.020842 0.000000
# 6 0.000000 0.000000 0.000000 0.027784 0.000000 0.056277
#
#
# Mechanical properties :
#
#
# Convention : Reuss Voigt Hill
#
# Bulk Modulus (GPa) = 57.88306 65.63968 61.76137
# Shear Modulus (GPa) = 17.37934 32.06634 24.72284
#
# Velocity S-wave (km/s) = 2.74675 3.73102 3.27606
# Velocity P-wave (km/s) = 5.93191 6.85973 6.41262
#
# Compressibility (1/GPa) = 0.01727621
#
# Stress axis : x y z
#
# Youngs Moduli (GPa) = 29.22810 23.56387 110.55317
#
# Poissons Ratio (x) = 0.71147 0.44169
# Poissons Ratio (y) = 0.88249 0.00242
# Poissons Ratio (z) = 0.11677 0.00052
#
# Static dielectric constant tensor:
#      x y z
#    x 1.923070 0.000000 -0.038580 
#    y 0.000000 1.837940 0.000000 
#    z -0.038580 0.000000 2.007610 
# 
# From -- ./inp_files/137448.got.cif
#   From: 2010.05.17/outbox.cif.g08.bks.cpg/sg15_69_cif.got.tgz:137448.got - 2010.06.03 18:47:42.
