data_PCOD9265564
_publ_section_title
;
Structure prediction by ZEFSAII (Michael W. Deem and Ramdas Pophale) SiO2 
 PCOD9265564
Probable space group: C 2/C
;
_chemical_formula_sum "Si O2"
_cell_formula_units_Z 64
_cell_length_a 31.848155
_cell_length_b 9.617010
_cell_length_c 24.047356
_cell_angle_alpha 90.000000
_cell_angle_beta 25.888961
_cell_angle_gamma 90.000000
_cell_volume 3215.908800
_symmetry_space_group_name_H-M "C 2/C"
_symmetry_group_IT_number 15
_symmetry_cell_setting 'monoclinic'
loop_
_space_group_symop_operation_xyz
x,y,z
-x,y,1/2-z
-x,-y,-z
x,-y,1/2+z
1/2+x,1/2+y,z
1/2-x,1/2+y,1/2-z
1/2-x,1/2-y,-z
1/2+x,1/2-y,1/2+z
loop_
_atom_site_type_symbol
_atom_site_label
_atom_site_fract_x
_atom_site_fract_y
_atom_site_fract_z
Si Si1 0.874215 0.334296 0.013421
Si Si2 0.625406 0.583585 0.652992
Si Si3 0.112429 0.427130 0.918167
Si Si4 0.591988 0.100708 0.216899
Si Si5 0.386288 0.943193 0.197849
Si Si6 0.802336 0.482189 0.507651
Si Si7 0.904957 0.960572 0.441091
Si Si8 0.204728 0.236725 0.898285
O O1 0.801137 0.396486 0.055501
O O2 0.871016 0.169256 0.018893
O O3 0.979835 0.372859 0.862853
O O4 0.866535 0.422066 0.078848
O O5 0.637027 0.746835 0.653805
O O6 0.706237 0.492717 0.586083
O O7 0.627230 0.567261 0.584279
O O8 0.520447 0.539507 0.799975
O O9 0.128165 0.444590 0.834144
O O10 0.175809 0.316946 0.876382
O O11 0.998508 0.399075 0.063017
O O12 0.632972 0.017575 0.220634
O O13 0.613172 0.013114 0.136608
O O14 0.313643 0.817650 0.273048
O O15 0.814257 0.342446 0.528306
O O16 0.861500 0.102203 0.515091
#
# Coordination Sequence:
#
# PCOD9265564 Si02
#       8
#     8   8   8   8   8   8   8   8
#     4   9  19  37  62  84 118 161 205 247 296 369
#     4  10  21  35  57  86 126 160 199 245 298 374
#     4   9  22  45  63  88 119 161 212 256 303 371
#     4  10  19  36  62  88 117 167 204 243 295 375
#     4  10  22  41  67  84 122 166 210 252 310 366
#     4  11  21  35  58  91 123 157 200 242 306 382
#     4  10  21  38  56  88 124 158 198 254 306 358
#     4  11  25  39  61  97 123 160 199 264 323 356
#
# _framework density 19.901060999999999
#
# number of rings (size 3 to 8) (size 9 to 14) (size 15 to 20)
#    0.000    2.000    1.250    1.500    3.500    3.000 
#   13.500    0.000    0.000    3.750    0.000    0.000 
#    0.000    0.000    0.000    0.000    0.000    0.000 
#
# Total GULP energy -178776.418201 kJ/mol
# GULP energy per Si atom -5586.763069 kJ/mol
# Density = 1.985577 g / cm^3
# Si number density = 19.901061 Si / 1000 Ang^3
#
#
#
# Elastic Constant Matrix: (Units=GPa)
#
#
# Indices 1 2 3 4 5 6 
#
# 1 95.2616 27.4550 9.5175 0.0008 -7.0757 0.0002
# 2 27.4550 105.2156 10.8639 0.0025 -4.7195 0.0010
# 3 9.5175 10.8639 20.7081 0.0021 -7.1384 0.0007
# 4 0.0008 0.0025 0.0021 18.0976 -0.0005 -8.4277
# 5 -7.0757 -4.7195 -7.1384 -0.0005 30.9287 -0.0003
# 6 0.0002 0.0010 0.0007 -8.4277 -0.0003 23.4054
#
#
#
# Elastic Compliance Matrix: (Units=1/GPa)
#
#
# Indices 1 2 3 4 5 6 
#
# 1 0.011714 -0.002630 -0.003497 0.000000 0.001471 0.000000
# 2 -0.002630 0.010642 -0.004370 -0.000001 0.000014 -0.000001
# 3 -0.003497 -0.004370 0.056152 -0.000007 0.011493 -0.000004
# 4 0.000000 -0.000001 -0.000007 0.066388 0.000000 0.023904
# 5 0.001471 0.000014 0.011493 0.000000 0.035324 0.000000
# 6 0.000000 -0.000001 -0.000004 0.023904 0.000000 0.051332
#
#
# Mechanical properties :
#
#
# Convention : Reuss Voigt Hill
#
# Bulk Modulus (GPa) = 17.38666 35.20645 26.29655
# Shear Modulus (GPa) = 18.40151 26.04293 22.22222
#
# Velocity S-wave (km/s) = 3.04410 3.62141 3.34523
# Velocity P-wave (km/s) = 4.59466 5.93425 5.30689
#
# Compressibility (1/GPa) = 0.05751537
#
# Stress axis : x y z
#
# Youngs Moduli (GPa) = 85.36833 93.96491 17.80882
#
# Poissons Ratio (x) = 0.24709 0.06228
# Poissons Ratio (y) = 0.22448 0.07782
# Poissons Ratio (z) = 0.29853 0.41061
#
# Static dielectric constant tensor:
#      x y z
#    x 1.689170 0.000000 -0.021900 
#    y 0.000000 1.679950 0.000000 
#    z -0.021900 0.000000 1.729590 
# 
# From -- ./inp_files/176561.got.cif
#   From: 2010.05.17/outbox.cif.g08.bks.cpg/sg15_89_cif.got.tgz:176561.got - 2010.06.03 18:47:42.
