data_PCOD9265498
_publ_section_title
;
Structure prediction by ZEFSAII (Michael W. Deem and Ramdas Pophale) SiO2 
 PCOD9265498
Probable space group: C 2/C
;
_chemical_formula_sum "Si O2"
_cell_formula_units_Z 32
_cell_length_a 15.218363
_cell_length_b 5.086708
_cell_length_c 16.051220
_cell_angle_alpha 90.000000
_cell_angle_beta 81.507664
_cell_angle_gamma 90.000000
_cell_volume 1228.923162
_symmetry_space_group_name_H-M "C 2/C"
_symmetry_group_IT_number 15
_symmetry_cell_setting 'monoclinic'
loop_
_space_group_symop_operation_xyz
x,y,z
-x,y,1/2-z
-x,-y,-z
x,-y,1/2+z
1/2+x,1/2+y,z
1/2-x,1/2+y,1/2-z
1/2-x,1/2-y,-z
1/2+x,1/2-y,1/2+z
loop_
_atom_site_type_symbol
_atom_site_label
_atom_site_fract_x
_atom_site_fract_y
_atom_site_fract_z
Si Si1 0.296160 0.087128 0.273024
Si Si2 0.456530 0.183935 0.674629
Si Si3 0.635789 0.007914 0.559251
Si Si4 0.604839 0.501858 0.463764
O O1 0.233862 0.885613 0.231292
O O2 0.392865 0.040854 0.219158
O O3 0.303529 0.987292 0.367286
O O4 0.500000 0.315985 0.750000
O O5 0.535464 0.060415 0.608255
O O6 0.398084 0.384269 0.628672
O O7 0.645873 0.226025 0.485921
O O8 0.644463 0.724317 0.517705
O O9 0.500000 0.500000 0.500000
#
# Coordination Sequence:
#
# PCOD9265498 Si02
#       4
#     8   8   8   8
#     4  11  24  41  58  84 120 156 192 236 286 341
#     4   9  20  38  62  86 113 152 195 236 285 342
#     4  10  21  39  62  87 115 150 193 239 286 341
#     4  10  19  36  61  91 115 144 191 245 286 334
#
# _framework density 26.039058000000001
#
# number of rings (size 3 to 8) (size 9 to 14) (size 15 to 20)
#    0.000    2.000    0.000    4.500    0.000    6.000 
#    0.000   27.500    0.000    0.000    0.000    0.000 
#    0.000    0.000    0.000    0.000    0.000    0.000 
#
# Total GULP energy -89696.799650 kJ/mol
# GULP energy per Si atom -5606.049978 kJ/mol
# Density = 2.597979 g / cm^3
# Si number density = 26.039058 Si / 1000 Ang^3
#
#
#
# Elastic Constant Matrix: (Units=GPa)
#
#
# Indices 1 2 3 4 5 6 
#
# 1 86.0830 -1.6558 19.4685 0.0000 5.2557 0.0000
# 2 -1.6558 82.0778 2.6467 0.0000 7.2365 0.0000
# 3 19.4685 2.6467 99.4419 0.0000 13.2116 0.0000
# 4 0.0000 0.0000 0.0000 36.6148 0.0000 6.1874
# 5 5.2557 7.2365 13.2116 0.0000 45.5783 0.0000
# 6 0.0000 0.0000 0.0000 6.1874 0.0000 20.6437
#
#
#
# Elastic Compliance Matrix: (Units=1/GPa)
#
#
# Indices 1 2 3 4 5 6 
#
# 1 0.012191 0.000391 -0.002290 0.000000 -0.000804 0.000000
# 2 0.000391 0.012370 -0.000144 0.000000 -0.001967 0.000000
# 3 -0.002290 -0.000144 0.010890 0.000000 -0.002870 0.000000
# 4 0.000000 0.000000 0.000000 0.028768 0.000000 -0.008623
# 5 -0.000804 -0.001967 -0.002870 0.000000 0.023177 0.000000
# 6 0.000000 0.000000 0.000000 -0.008623 0.000000 0.051025
#
#
# Mechanical properties :
#
#
# Convention : Reuss Voigt Hill
#
# Bulk Modulus (GPa) = 31.88540 34.28017 33.08278
# Shear Modulus (GPa) = 32.68753 37.04357 34.86555
#
# Velocity S-wave (km/s) = 3.54690 3.77585 3.66317
# Velocity P-wave (km/s) = 5.38942 5.67476 5.53393
#
# Compressibility (1/GPa) = 0.03136231
#
# Stress axis : x y z
#
# Youngs Moduli (GPa) = 82.02580 80.84379 91.83073
#
# Poissons Ratio (x) = -0.03158 0.21033
# Poissons Ratio (y) = -0.03205 0.01326
# Poissons Ratio (z) = 0.18787 0.01167
#
# Static dielectric constant tensor:
#      x y z
#    x 2.148260 0.000000 -0.027700 
#    y 0.000000 1.954750 0.000000 
#    z -0.027700 0.000000 2.059030 
# 
# From -- ./inp_files/158027.got.cif
#   From: 2010.05.17/outbox.cif.g08.bks.cpg/sg15_80_cif.got.tgz:158027.got - 2010.06.03 18:47:42.
