data_PCOD9265395
_publ_section_title
;
Structure prediction by ZEFSAII (Michael W. Deem and Ramdas Pophale) SiO2 
 PCOD9265395
Probable space group: C 2/C
;
_chemical_formula_sum "Si O2"
_cell_formula_units_Z 60
_cell_length_a 10.953782
_cell_length_b 16.718910
_cell_length_c 21.930444
_cell_angle_alpha 90.000000
_cell_angle_beta 124.422472
_cell_angle_gamma 90.000000
_cell_volume 3312.962270
_symmetry_space_group_name_H-M "C 2/C"
_symmetry_group_IT_number 15
_symmetry_cell_setting 'monoclinic'
loop_
_space_group_symop_operation_xyz
x,y,z
-x,y,1/2-z
-x,-y,-z
x,-y,1/2+z
1/2+x,1/2+y,z
1/2-x,1/2+y,1/2-z
1/2-x,1/2-y,-z
1/2+x,1/2-y,1/2+z
loop_
_atom_site_type_symbol
_atom_site_label
_atom_site_fract_x
_atom_site_fract_y
_atom_site_fract_z
Si Si1 0.741244 0.667127 0.873322
Si Si2 0.851635 0.298106 0.745781
Si Si3 0.509418 0.288374 0.401422
Si Si4 0.000000 0.953715 0.250000
Si Si5 0.647818 0.643679 0.459457
Si Si6 0.635103 0.442612 0.679742
Si Si7 0.883457 0.055136 0.930481
Si Si8 0.448996 0.192553 0.505382
O O1 0.737991 0.738648 0.823565
O O2 0.668256 0.701383 0.914600
O O3 0.624997 0.601548 0.816831
O O4 0.910745 0.643104 0.930835
O O5 0.903180 0.247347 0.818903
O O6 0.753186 0.375337 0.730913
O O7 0.000000 0.319981 0.750000
O O8 0.460519 0.374981 0.412785
O O9 0.497430 0.229215 0.454745
O O10 0.917839 0.005703 0.277930
O O11 0.513053 0.598253 0.389487
O O12 0.696933 0.600733 0.536750
O O13 0.587006 0.731232 0.461136
O O14 0.792656 0.648050 0.458614
O O15 0.695001 0.498531 0.641205
O O16 0.000000 0.000000 0.000000
#
# Coordination Sequence:
#
# PCOD9265395 Si02
#       8
#     8   8   8   4   8   8   8   8
#     4  11  19  40  60  87 114 163 194 252 297 369
#     4  10  21  38  61  85 118 152 211 247 293 359
#     4  10  19  36  60  89 114 154 203 252 296 362
#     4  12  24  38  64  84 130 152 202 240 316 366
#     4   9  20  37  58  88 116 153 196 247 301 358
#     4  11  21  39  60  85 116 165 193 249 304 366
#     4   9  18  36  62  81 117 155 197 237 308 367
#     4  10  20  35  61  87 117 146 204 253 292 351
#
# _framework density 18.110679999999999
#
# number of rings (size 3 to 8) (size 9 to 14) (size 15 to 20)
#    0.000    1.867    4.667    0.400    1.867    0.000 
#    2.400    0.667    0.000    0.000    0.000    0.000 
#    0.000    0.000    0.000    0.000    0.000    0.000 
#
# Total GULP energy -167187.256724 kJ/mol
# GULP energy per Si atom -5572.908557 kJ/mol
# Density = 1.806946 g / cm^3
# Si number density = 18.110680 Si / 1000 Ang^3
#
#
#
# Elastic Constant Matrix: (Units=GPa)
#
#
# Indices 1 2 3 4 5 6 
#
# 1 75.2937 28.5098 49.7755 0.0000 3.9223 0.0000
# 2 28.5098 71.4172 27.7801 0.0000 -1.5741 0.0000
# 3 49.7755 27.7801 62.7730 0.0000 3.7879 0.0000
# 4 0.0000 0.0000 0.0000 28.7594 0.0000 -3.0480
# 5 3.9223 -1.5741 3.7879 0.0000 27.0662 0.0000
# 6 0.0000 0.0000 0.0000 -3.0480 0.0000 26.1873
#
#
#
# Elastic Compliance Matrix: (Units=1/GPa)
#
#
# Indices 1 2 3 4 5 6 
#
# 1 0.028528 -0.003203 -0.021122 0.000000 -0.001364 0.000000
# 2 -0.003203 0.017387 -0.005289 0.000000 0.002215 0.000000
# 3 -0.021122 -0.005289 0.035150 0.000000 -0.002166 0.000000
# 4 0.000000 0.000000 0.000000 0.035206 0.000000 0.004098
# 5 -0.001364 0.002215 -0.002166 0.000000 0.037576 0.000000
# 6 0.000000 0.000000 0.000000 0.004098 0.000000 0.038663
#
#
# Mechanical properties :
#
#
# Convention : Reuss Voigt Hill
#
# Bulk Modulus (GPa) = 45.78960 46.84606 46.31783
# Shear Modulus (GPa) = 19.30385 23.29714 21.30050
#
# Velocity S-wave (km/s) = 3.26833 3.59050 3.43319
# Velocity P-wave (km/s) = 6.29132 6.56594 6.43010
#
# Compressibility (1/GPa) = 0.02183902
#
# Stress axis : x y z
#
# Youngs Moduli (GPa) = 35.05294 57.51512 28.44953
#
# Poissons Ratio (x) = 0.18420 0.60090
# Poissons Ratio (y) = 0.11226 0.15046
# Poissons Ratio (z) = 0.74038 0.30418
#
# Static dielectric constant tensor:
#      x y z
#    x 1.612640 0.000000 -0.006420 
#    y 0.000000 1.635740 0.000000 
#    z -0.006420 0.000000 1.631060 
# 
# From -- ./inp_files/233091.got.cif
#   From: 2010.05.17/outbox.cif.g08.bks.cpg/sg15_117_cif.got.tgz:233091.got - 2010.06.03 18:47:42.
