data_PCOD9265691
_publ_section_title
;
Structure prediction by ZEFSAII (Michael W. Deem and Ramdas Pophale) SiO2 
 PCOD9265691
Probable space group: C 2/C
;
_chemical_formula_sum "Si O2"
_cell_formula_units_Z 48
_cell_length_a 19.514423
_cell_length_b 21.201447
_cell_length_c 5.666606
_cell_angle_alpha 90.000000
_cell_angle_beta 54.600988
_cell_angle_gamma 90.000000
_cell_volume 1911.064122
_symmetry_space_group_name_H-M "C 2/C"
_symmetry_group_IT_number 15
_symmetry_cell_setting 'monoclinic'
loop_
_space_group_symop_operation_xyz
x,y,z
-x,y,1/2-z
-x,-y,-z
x,-y,1/2+z
1/2+x,1/2+y,z
1/2-x,1/2+y,1/2-z
1/2-x,1/2-y,-z
1/2+x,1/2-y,1/2+z
loop_
_atom_site_type_symbol
_atom_site_label
_atom_site_fract_x
_atom_site_fract_y
_atom_site_fract_z
Si Si1 0.425639 0.654545 0.050730
Si Si2 0.610190 0.853947 0.795582
Si Si3 0.000000 0.255012 0.250000
Si Si4 0.402476 0.477134 0.712042
Si Si5 0.324123 0.021958 0.151376
Si Si6 0.298911 0.753177 0.151245
Si Si7 0.500000 0.054479 0.250000
O O1 0.469818 0.710337 0.103624
O O2 0.394059 0.597777 0.274490
O O3 0.356119 0.690546 0.040519
O O4 0.500000 0.624807 0.750000
O O5 0.669832 0.903759 0.806222
O O6 0.649381 0.819036 0.487955
O O7 0.529541 0.896689 0.891030
O O8 0.577491 0.798077 0.021962
O O9 0.500000 0.500000 0.500000
O O10 0.368805 0.488998 0.513803
O O11 0.288670 0.991505 0.462378
O O12 0.417682 0.987838 0.958897
O O13 0.250000 0.750000 0.500000
O O14 0.250000 0.750000 0.000000
#
# Coordination Sequence:
#
# PCOD9265691 Si02
#       7
#     8   8   4   8   8   8   4
#     4  12  24  42  72 106 140 178 247 312 359 432
#     4  11  21  38  66  93 138 179 235 286 358 419
#     4  12  21  36  66 112 133 176 240 324 358 422
#     4  10  20  36  64 105 139 161 211 304 387 424
#     4  10  20  34  57  95 131 163 210 291 362 404
#     4  12  29  49  65  97 149 204 236 283 362 448
#     4  10  19  36  64 106 129 164 224 314 362 404
#
# _framework density 25.116896000000001
#
# number of rings (size 3 to 8) (size 9 to 14) (size 15 to 20)
#    0.000    1.000    3.333    6.500    0.000    4.000 
#    0.000    0.000    0.000   12.000    0.000    0.000 
#    0.000    0.000    0.000    0.000    0.000    0.000 
#
# Total GULP energy -134167.613602 kJ/mol
# GULP energy per Si atom -5590.317233 kJ/mol
# Density = 2.505973 g / cm^3
# Si number density = 25.116896 Si / 1000 Ang^3
#
#
#
# Elastic Constant Matrix: (Units=GPa)
#
#
# Indices 1 2 3 4 5 6 
#
# 1 84.4713 12.2648 29.4975 0.0000 25.4635 0.0000
# 2 12.2648 153.1288 36.6981 0.0000 7.1711 0.0000
# 3 29.4975 36.6981 166.5833 0.0000 13.4377 0.0000
# 4 0.0000 0.0000 0.0000 109.1594 0.0000 77.4110
# 5 25.4635 7.1711 13.4377 0.0000 43.5729 0.0000
# 6 0.0000 0.0000 0.0000 77.4110 0.0000 66.5824
#
#
#
# Elastic Compliance Matrix: (Units=1/GPa)
#
#
# Indices 1 2 3 4 5 6 
#
# 1 0.015010 -0.000361 -0.001923 0.000000 -0.008119 0.000000
# 2 -0.000361 0.006923 -0.001422 0.000000 -0.000490 0.000000
# 3 -0.001923 -0.001422 0.006714 0.000000 -0.000713 0.000000
# 4 0.000000 0.000000 0.000000 0.052196 0.000000 -0.060685
# 5 -0.008119 -0.000490 -0.000713 0.000000 0.027995 0.000000
# 6 0.000000 0.000000 0.000000 -0.060685 0.000000 0.085573
#
#
# Mechanical properties :
#
#
# Convention : Reuss Voigt Hill
#
# Bulk Modulus (GPa) = 47.09221 62.34491 54.71856
# Shear Modulus (GPa) = 23.93474 65.57782 44.75628
#
# Velocity S-wave (km/s) = 3.09031 5.11524 4.22586
# Velocity P-wave (km/s) = 5.61456 7.73068 6.75599
#
# Compressibility (1/GPa) = 0.02123494
#
# Stress axis : x y z
#
# Youngs Moduli (GPa) = 66.62296 144.44552 148.93663
#
# Poissons Ratio (x) = 0.05215 0.28646
# Poissons Ratio (y) = 0.02405 0.21174
# Poissons Ratio (z) = 0.12814 0.20536
#
# Static dielectric constant tensor:
#      x y z
#    x 2.126340 0.000000 -0.015310 
#    y 0.000000 1.997020 0.000000 
#    z -0.015310 0.000000 2.030080 
# 
# From -- ./inp_files/15787.got.cif
#   From: 2010.05.17/outbox.cif.g08.bks.cpg/sg15_8_cif.got.tgz:15787.got - 2010.06.03 18:47:42.
