data_PCOD9265746
_publ_section_title
;
Structure prediction by ZEFSAII (Michael W. Deem and Ramdas Pophale) SiO2 
 PCOD9265746
Probable space group: C 2/C
;
_chemical_formula_sum "Si O2"
_cell_formula_units_Z 56
_cell_length_a 13.929696
_cell_length_b 10.416668
_cell_length_c 21.086678
_cell_angle_alpha 90.000000
_cell_angle_beta 67.597216
_cell_angle_gamma 90.000000
_cell_volume 2828.775414
_symmetry_space_group_name_H-M "C 2/C"
_symmetry_group_IT_number 15
_symmetry_cell_setting 'monoclinic'
loop_
_space_group_symop_operation_xyz
x,y,z
-x,y,1/2-z
-x,-y,-z
x,-y,1/2+z
1/2+x,1/2+y,z
1/2-x,1/2+y,1/2-z
1/2-x,1/2-y,-z
1/2+x,1/2-y,1/2+z
loop_
_atom_site_type_symbol
_atom_site_label
_atom_site_fract_x
_atom_site_fract_y
_atom_site_fract_z
Si Si1 0.074176 0.009520 0.672526
Si Si2 0.954739 0.644334 0.510195
Si Si3 0.081593 0.520630 0.776958
Si Si4 0.986154 0.093915 0.064285
Si Si5 0.057334 0.301890 0.631856
Si Si6 0.245592 0.610320 0.155657
Si Si7 0.786124 0.612695 0.647276
O O1 0.055751 0.159337 0.659678
O O2 0.194570 0.009303 0.664906
O O3 0.000000 0.971776 0.750000
O O4 0.049633 0.938681 0.612367
O O5 0.000000 0.500000 0.500000
O O6 0.005793 0.758097 0.539063
O O7 0.962972 0.695153 0.437031
O O8 0.836119 0.636643 0.565585
O O9 0.188273 0.491525 0.713920
O O10 0.115371 0.581699 0.834061
O O11 0.000000 0.588317 0.750000
O O12 0.025261 0.388634 0.810415
O O13 0.863970 0.080551 0.111962
O O14 0.000000 0.000000 0.000000
O O15 0.168862 0.369859 0.615463
O O16 0.243129 0.753597 0.185596
#
# Coordination Sequence:
#
# PCOD9265746 Si02
#       7
#     8   8   8   8   8   8   8
#     4  11  22  39  65  93 125 160 209 261 308 367
#     4  11  22  40  62  87 127 164 210 254 312 369
#     4  10  19  37  59  88 117 158 207 256 306 369
#     4  11  23  39  62  93 125 163 209 258 312 362
#     4  10  19  36  65  88 114 165 212 255 296 377
#     4   9  21  35  59  86 120 155 212 251 305 370
#     4  10  21  36  60  87 119 164 201 254 314 367
#
# _framework density 19.796552999999999
#
# number of rings (size 3 to 8) (size 9 to 14) (size 15 to 20)
#    0.000    1.714    2.857    3.000    2.000    1.714 
#    0.000    6.429    3.143    0.000    0.000    0.000 
#    0.000    0.000    0.000    0.000    0.000    0.000 
#
# Total GULP energy -156023.932015 kJ/mol
# GULP energy per Si atom -5572.283286 kJ/mol
# Density = 1.975149 g / cm^3
# Si number density = 19.796553 Si / 1000 Ang^3
#
#
#
# Elastic Constant Matrix: (Units=GPa)
#
#
# Indices 1 2 3 4 5 6 
#
# 1 75.6124 16.7421 29.5896 0.0000 6.3326 0.0000
# 2 16.7421 55.3487 12.8803 0.0000 9.3432 0.0000
# 3 29.5896 12.8803 91.4059 0.0000 15.7741 0.0000
# 4 0.0000 0.0000 0.0000 21.5896 0.0000 -1.8636
# 5 6.3326 9.3432 15.7741 0.0000 34.3327 0.0000
# 6 0.0000 0.0000 0.0000 -1.8636 0.0000 20.9606
#
#
#
# Elastic Compliance Matrix: (Units=1/GPa)
#
#
# Indices 1 2 3 4 5 6 
#
# 1 0.015854 -0.003754 -0.004643 0.000000 0.000231 0.000000
# 2 -0.003754 0.020146 -0.000866 0.000000 -0.004392 0.000000
# 3 -0.004643 -0.000866 0.013443 0.000000 -0.005084 0.000000
# 4 0.000000 0.000000 0.000000 0.046677 0.000000 0.004150
# 5 0.000231 -0.004392 -0.005084 0.000000 0.032616 0.000000
# 6 0.000000 0.000000 0.000000 0.004150 0.000000 0.048078
#
#
# Mechanical properties :
#
#
# Convention : Reuss Voigt Hill
#
# Bulk Modulus (GPa) = 32.34451 37.86568 35.10510
# Shear Modulus (GPa) = 24.31390 26.25356 25.28373
#
# Velocity S-wave (km/s) = 3.50835 3.64561 3.57764
# Velocity P-wave (km/s) = 5.72585 6.07368 5.90233
#
# Compressibility (1/GPa) = 0.03091714
#
# Stress axis : x y z
#
# Youngs Moduli (GPa) = 63.07458 49.63838 74.39028
#
# Poissons Ratio (x) = 0.18635 0.34540
# Poissons Ratio (y) = 0.23679 0.06439
# Poissons Ratio (z) = 0.29286 0.04296
#
# Static dielectric constant tensor:
#      x y z
#    x 1.752090 0.000000 0.022860 
#    y 0.000000 1.716510 0.000000 
#    z 0.022860 0.000000 1.735250 
# 
# From -- ./inp_files/237560.got.cif
#   From: 2010.05.17/outbox.cif.g08.bks.cpg/sg15_119_cif.got.tgz:237560.got - 2010.06.03 18:47:42.
