data_PCOD9265077
_publ_section_title
;
Structure prediction by ZEFSAII (Michael W. Deem and Ramdas Pophale) SiO2 
 PCOD9265077
Probable space group: C 2/C
;
_chemical_formula_sum "Si O2"
_cell_formula_units_Z 64
_cell_length_a 27.542346
_cell_length_b 10.603749
_cell_length_c 13.925842
_cell_angle_alpha 90.000000
_cell_angle_beta 43.383921
_cell_angle_gamma 90.000000
_cell_volume 2793.604808
_symmetry_space_group_name_H-M "C 2/C"
_symmetry_group_IT_number 15
_symmetry_cell_setting 'monoclinic'
loop_
_space_group_symop_operation_xyz
x,y,z
-x,y,1/2-z
-x,-y,-z
x,-y,1/2+z
1/2+x,1/2+y,z
1/2-x,1/2+y,1/2-z
1/2-x,1/2-y,-z
1/2+x,1/2-y,1/2+z
loop_
_atom_site_type_symbol
_atom_site_label
_atom_site_fract_x
_atom_site_fract_y
_atom_site_fract_z
Si Si1 0.080725 0.317424 0.021857
Si Si2 0.229836 0.373651 0.790065
Si Si3 0.427179 0.644642 0.881323
Si Si4 0.423839 0.178138 0.740173
Si Si5 0.212205 0.703610 0.957199
Si Si6 0.867854 0.963881 0.106215
Si Si7 0.625705 0.454429 0.692477
Si Si8 0.218625 0.576985 0.514360
O O1 0.075780 0.331395 0.144060
O O2 0.003371 0.352612 0.092325
O O3 0.146998 0.400834 0.890997
O O4 0.103539 0.170935 0.970703
O O5 0.247321 0.258834 0.693230
O O6 0.290032 0.480765 0.688017
O O7 0.232770 0.335713 0.899399
O O8 0.500000 0.708273 0.750000
O O9 0.418401 0.525837 0.823219
O O10 0.364258 0.736707 0.945983
O O11 0.418161 0.578250 0.996982
O O12 0.409711 0.322454 0.733815
O O13 0.349818 0.108074 0.824282
O O14 0.205645 0.555669 0.980352
O O15 0.250000 0.750000 0.000000
O O16 0.868285 0.962864 0.220563
O O17 0.706155 0.431762 0.541560
#
# Coordination Sequence:
#
# PCOD9265077 Si02
#       8
#     8   8   8   8   8   8   8   8
#     4  10  19  36  57  86 125 159 202 256 316 377
#     4   9  20  36  60  88 117 159 213 253 303 372
#     4  11  23  39  59  93 127 161 211 268 324 377
#     4  10  21  35  59  92 121 158 200 261 323 366
#     4  11  22  42  64  91 123 174 216 255 324 393
#     4  10  21  36  60  91 121 164 210 264 319 378
#     4  11  20  37  62  92 121 160 211 264 321 381
#     4  10  21  40  62  91 125 165 211 257 318 383
#
# _framework density 22.909466999999999
#
# number of rings (size 3 to 8) (size 9 to 14) (size 15 to 20)
#    0.000    1.750    2.500    2.625    0.000    2.000 
#    4.500    2.500    0.000    0.750    0.000    0.000 
#    0.000    0.000    0.000    0.000    0.000    0.000 
#
# Total GULP energy -178597.801863 kJ/mol
# GULP energy per Si atom -5581.181308 kJ/mol
# Density = 2.285732 g / cm^3
# Si number density = 22.909467 Si / 1000 Ang^3
#
#
#
# Elastic Constant Matrix: (Units=GPa)
#
#
# Indices 1 2 3 4 5 6 
#
# 1 35.6811 0.9512 23.9652 0.0000 -14.4055 0.0000
# 2 0.9512 42.9784 10.4616 0.0000 12.1077 0.0000
# 3 23.9652 10.4616 123.4712 0.0000 -43.0152 0.0000
# 4 0.0000 0.0000 0.0000 16.3159 0.0000 -2.0515
# 5 -14.4055 12.1077 -43.0152 0.0000 44.0061 0.0000
# 6 0.0000 0.0000 0.0000 -2.0515 0.0000 24.2684
#
#
#
# Elastic Compliance Matrix: (Units=1/GPa)
#
#
# Indices 1 2 3 4 5 6 
#
# 1 0.033761 -0.002223 -0.003490 0.000000 0.008252 0.000000
# 2 -0.002223 0.029960 -0.007934 0.000000 -0.016726 0.000000
# 3 -0.003490 -0.007934 0.014878 0.000000 0.015583 0.000000
# 4 0.000000 0.000000 0.000000 0.061948 0.000000 0.005237
# 5 0.008252 -0.016726 0.015583 0.000000 0.045260 0.000000
# 6 0.000000 0.000000 0.000000 0.005237 0.000000 0.041649
#
#
# Mechanical properties :
#
#
# Convention : Reuss Voigt Hill
#
# Bulk Modulus (GPa) = 19.49107 30.32076 24.90591
# Shear Modulus (GPa) = 18.39251 28.03492 23.21372
#
# Velocity S-wave (km/s) = 2.83651 3.50198 3.18666
# Velocity P-wave (km/s) = 4.38794 5.44202 4.94316
#
# Compressibility (1/GPa) = 0.05130555
#
# Stress axis : x y z
#
# Youngs Moduli (GPa) = 29.62022 33.37774 67.21540
#
# Poissons Ratio (x) = 0.07419 0.23455
# Poissons Ratio (y) = 0.06583 0.53330
# Poissons Ratio (z) = 0.10336 0.26483
#
# Static dielectric constant tensor:
#      x y z
#    x 1.868770 0.000000 -0.041240 
#    y 0.000000 1.897620 0.000000 
#    z -0.041240 0.000000 1.895770 
# 
# From -- ./inp_files/177809.got.cif
#   From: 2010.05.17/outbox.cif.g08.bks.cpg/sg15_89_cif.got.tgz:177809.got - 2010.06.03 18:47:42.
