data_PCOD9265499
_publ_section_title
;
Structure prediction by ZEFSAII (Michael W. Deem and Ramdas Pophale) SiO2 
 PCOD9265499
Probable space group: C 2/C
;
_chemical_formula_sum "Si O2"
_cell_formula_units_Z 44
_cell_length_a 5.020224
_cell_length_b 24.978590
_cell_length_c 17.007850
_cell_angle_alpha 90.000000
_cell_angle_beta 114.994057
_cell_angle_gamma 90.000000
_cell_volume 1933.023557
_symmetry_space_group_name_H-M "C 2/C"
_symmetry_group_IT_number 15
_symmetry_cell_setting 'monoclinic'
loop_
_space_group_symop_operation_xyz
x,y,z
-x,y,1/2-z
-x,-y,-z
x,-y,1/2+z
1/2+x,1/2+y,z
1/2-x,1/2+y,1/2-z
1/2-x,1/2-y,-z
1/2+x,1/2-y,1/2+z
loop_
_atom_site_type_symbol
_atom_site_label
_atom_site_fract_x
_atom_site_fract_y
_atom_site_fract_z
Si Si1 0.000000 0.445975 0.250000
Si Si2 0.179934 0.711281 0.690896
Si Si3 0.267198 0.935619 0.499344
Si Si4 0.000000 0.115381 0.250000
Si Si5 0.646084 0.119548 0.921833
Si Si6 0.439702 0.526299 0.367271
Si Si7 0.500000 0.187655 0.250000
O O1 0.004413 0.410566 0.328673
O O2 0.725964 0.485259 0.209911
O O3 0.500000 0.684160 0.750000
O O4 0.976408 0.679186 0.605420
O O5 0.284993 0.770519 0.678141
O O6 0.000000 0.715682 0.750000
O O7 0.525614 0.906458 0.486174
O O8 0.281161 0.953952 0.591314
O O9 0.989032 0.894633 0.459932
O O10 0.179040 0.989505 0.440610
O O11 0.028429 0.077227 0.328607
O O12 0.711279 0.151512 0.224260
#
# Coordination Sequence:
#
# PCOD9265499 Si02
#       7
#     4   8   8   4   8   8   4
#     4  10  21  35  62  94 120 157 207 250 282 364
#     4  10  19  36  61  91 115 146 192 268 310 343
#     4  10  24  39  57  89 128 165 187 243 299 370
#     4  12  22  39  63  86 115 165 204 246 282 358
#     4  11  21  36  63  90 120 152 200 245 315 353
#     4  10  23  39  59  87 127 162 204 236 295 349
#     4  10  23  36  61  92 117 146 203 268 300 332
#
# _framework density 22.762267000000001
#
# number of rings (size 3 to 8) (size 9 to 14) (size 15 to 20)
#    0.545    1.091    1.818    2.727    2.545   10.909 
#    0.000    0.000    0.000    6.545    0.000    0.000 
#    0.000    0.000    0.000    0.000    0.000    0.000 
#
# Total GULP energy -123005.984610 kJ/mol
# GULP energy per Si atom -5591.181119 kJ/mol
# Density = 2.271046 g / cm^3
# Si number density = 22.762267 Si / 1000 Ang^3
#
#
#
# Elastic Constant Matrix: (Units=GPa)
#
#
# Indices 1 2 3 4 5 6 
#
# 1 112.0328 38.6225 23.7279 0.0000 -17.2593 0.0000
# 2 38.6225 120.4560 18.0579 0.0000 -15.1974 0.0000
# 3 23.7279 18.0579 75.8767 0.0000 -16.4883 0.0000
# 4 0.0000 0.0000 0.0000 8.7998 0.0000 -8.2992
# 5 -17.2593 -15.1974 -16.4883 0.0000 27.9409 0.0000
# 6 0.0000 0.0000 0.0000 -8.2992 0.0000 27.5589
#
#
#
# Elastic Compliance Matrix: (Units=1/GPa)
#
#
# Indices 1 2 3 4 5 6 
#
# 1 0.010888 -0.002687 -0.001860 0.000000 0.004167 0.000000
# 2 -0.002687 0.009677 -0.000780 0.000000 0.003144 0.000000
# 3 -0.001860 -0.000780 0.015606 0.000000 0.007636 0.000000
# 4 0.000000 0.000000 0.000000 0.158717 0.000000 0.047797
# 5 0.004167 0.003144 0.007636 0.000000 0.044580 0.000000
# 6 0.000000 0.000000 0.000000 0.047797 0.000000 0.050680
#
#
# Mechanical properties :
#
#
# Convention : Reuss Voigt Hill
#
# Bulk Modulus (GPa) = 39.18806 52.13134 45.65970
# Shear Modulus (GPa) = 16.16524 28.05706 22.11115
#
# Velocity S-wave (km/s) = 2.66781 3.51467 3.12010
# Velocity P-wave (km/s) = 5.17138 6.27875 5.75178
#
# Compressibility (1/GPa) = 0.02551798
#
# Stress axis : x y z
#
# Youngs Moduli (GPa) = 91.84443 103.34103 64.07841
#
# Poissons Ratio (x) = 0.27763 0.11919
# Poissons Ratio (y) = 0.24674 0.04996
# Poissons Ratio (z) = 0.17084 0.08057
#
# Static dielectric constant tensor:
#      x y z
#    x 1.931440 0.000000 0.061300 
#    y 0.000000 1.875540 0.000000 
#    z 0.061300 0.000000 1.846680 
# 
# From -- ./inp_files/129826.got.cif
#   From: 2010.05.17/outbox.cif.g08.bks.cpg/sg15_65_cif.got.tgz:129826.got - 2010.06.03 18:47:42.
