data_PCOD9265453
_publ_section_title
;
Structure prediction by ZEFSAII (Michael W. Deem and Ramdas Pophale) SiO2 
 PCOD9265453
Probable space group: C 2/C
;
_chemical_formula_sum "Si O2"
_cell_formula_units_Z 40
_cell_length_a 27.544914
_cell_length_b 16.557009
_cell_length_c 15.148563
_cell_angle_alpha 90.000000
_cell_angle_beta 161.937919
_cell_angle_gamma 90.000000
_cell_volume 2142.015929
_symmetry_space_group_name_H-M "C 2/C"
_symmetry_group_IT_number 15
_symmetry_cell_setting 'monoclinic'
loop_
_space_group_symop_operation_xyz
x,y,z
-x,y,1/2-z
-x,-y,-z
x,-y,1/2+z
1/2+x,1/2+y,z
1/2-x,1/2+y,1/2-z
1/2-x,1/2-y,-z
1/2+x,1/2-y,1/2+z
loop_
_atom_site_type_symbol
_atom_site_label
_atom_site_fract_x
_atom_site_fract_y
_atom_site_fract_z
Si Si1 0.500000 0.519418 0.250000
Si Si2 0.307545 0.265309 0.700088
Si Si3 0.835727 0.411480 0.282992
Si Si4 0.927806 0.536809 0.745754
Si Si5 0.000000 0.326186 0.250000
Si Si6 0.097036 0.055118 0.100275
O O1 0.656134 0.572121 0.500406
O O2 0.535625 0.464235 0.396780
O O3 0.250000 0.250000 0.500000
O O4 0.382949 0.182146 0.861817
O O5 0.153900 0.276718 0.494811
O O6 0.401768 0.349467 0.872085
O O7 0.858814 0.445294 0.223340
O O8 0.955910 0.462427 0.549193
O O9 0.018690 0.615205 0.866781
O O10 0.778015 0.528598 0.423944
O O11 0.000000 0.000000 0.000000
#
# Coordination Sequence:
#
# PCOD9265453 Si02
#       6
#     4   8   8   8   4   8
#     4  12  23  40  67  94 126 172 212 261 334 367
#     4  11  20  37  61  94 123 162 212 259 314 376
#     4  11  21  38  65  95 122 166 213 258 315 383
#     4  10  21  39  64  89 126 165 211 256 318 376
#     4  10  19  36  61  86 124 168 206 255 310 377
#     4  11  22  42  64  93 130 168 214 266 314 385
#
# _framework density 18.673998000000001
#
# number of rings (size 3 to 8) (size 9 to 14) (size 15 to 20)
#    0.000    1.200    6.000    3.000    0.000    0.000 
#    0.000    4.000    0.000    0.000    0.000    0.000 
#    0.000    0.000    0.000    0.000    0.000    0.000 
#
# Total GULP energy -111569.134238 kJ/mol
# GULP energy per Si atom -5578.456712 kJ/mol
# Density = 1.863150 g / cm^3
# Si number density = 18.673998 Si / 1000 Ang^3
#
#
#
# Elastic Constant Matrix: (Units=GPa)
#
#
# Indices 1 2 3 4 5 6 
#
# 1 101.1819 30.3374 31.8745 0.0000 1.4865 0.0000
# 2 30.3374 150.5886 55.8645 0.0000 -5.0979 0.0000
# 3 31.8745 55.8645 83.5961 0.0000 -3.6244 0.0000
# 4 0.0000 0.0000 0.0000 29.3878 0.0000 -2.0004
# 5 1.4865 -5.0979 -3.6244 0.0000 40.6377 0.0000
# 6 0.0000 0.0000 0.0000 -2.0004 0.0000 35.1271
#
#
#
# Elastic Compliance Matrix: (Units=1/GPa)
#
#
# Indices 1 2 3 4 5 6 
#
# 1 0.011354 -0.000926 -0.003748 0.000000 -0.000866 0.000000
# 2 -0.000926 0.008919 -0.005579 0.000000 0.000655 0.000000
# 3 -0.003748 -0.005579 0.017161 0.000000 0.000968 0.000000
# 4 0.000000 0.000000 0.000000 0.034160 0.000000 0.001945
# 5 -0.000866 0.000655 0.000968 0.000000 0.024808 0.000000
# 6 0.000000 0.000000 0.000000 0.001945 0.000000 0.028579
#
#
# Mechanical properties :
#
#
# Convention : Reuss Voigt Hill
#
# Bulk Modulus (GPa) = 59.07042 63.50216 61.28629
# Shear Modulus (GPa) = 33.08415 35.51653 34.30034
#
# Velocity S-wave (km/s) = 4.21369 4.36584 4.29044
# Velocity P-wave (km/s) = 7.44141 7.71320 7.57853
#
# Compressibility (1/GPa) = 0.01692895
#
# Stress axis : x y z
#
# Youngs Moduli (GPa) = 88.07234 112.12091 58.27089
#
# Poissons Ratio (x) = 0.10387 0.21838
# Poissons Ratio (y) = 0.08159 0.32507
# Poissons Ratio (z) = 0.33007 0.62548
#
# Static dielectric constant tensor:
#      x y z
#    x 1.689910 0.000000 0.020110 
#    y 0.000000 1.659080 0.000000 
#    z 0.020110 0.000000 1.669110 
# 
# From -- ./inp_files/133863.got.cif
#   From: 2010.05.17/outbox.cif.g08.bks.cpg/sg15_67_cif.got.tgz:133863.got - 2010.06.03 18:47:42.
