data_PCOD9265128
_publ_section_title
;
Structure prediction by ZEFSAII (Michael W. Deem and Ramdas Pophale) SiO2 
 PCOD9265128
Probable space group: C 2/C
;
_chemical_formula_sum "Si O2"
_cell_formula_units_Z 48
_cell_length_a 19.512702
_cell_length_b 19.018615
_cell_length_c 14.679700
_cell_angle_alpha 90.000000
_cell_angle_beta 149.221063
_cell_angle_gamma 90.000000
_cell_volume 2787.737407
_symmetry_space_group_name_H-M "C 2/C"
_symmetry_group_IT_number 15
_symmetry_cell_setting 'monoclinic'
loop_
_space_group_symop_operation_xyz
x,y,z
-x,y,1/2-z
-x,-y,-z
x,-y,1/2+z
1/2+x,1/2+y,z
1/2-x,1/2+y,1/2-z
1/2-x,1/2-y,-z
1/2+x,1/2-y,1/2+z
loop_
_atom_site_type_symbol
_atom_site_label
_atom_site_fract_x
_atom_site_fract_y
_atom_site_fract_z
Si Si1 0.620497 0.582505 0.106781
Si Si2 0.806880 0.071477 0.785978
Si Si3 0.365981 0.685498 0.217802
Si Si4 0.852105 0.654057 0.045361
Si Si5 0.673772 0.311879 0.038987
Si Si6 0.358769 0.684266 0.537130
O O1 0.698978 0.509273 0.189124
O O2 0.648056 0.617492 0.235707
O O3 0.458761 0.574852 0.919699
O O4 0.655137 0.636146 0.066593
O O5 0.707119 0.098647 0.593906
O O6 0.792147 0.124449 0.854437
O O7 0.521646 0.708770 0.392263
O O8 0.274930 0.746645 0.156401
O O9 0.327790 0.668496 0.069946
O O10 0.853158 0.733187 0.004665
O O11 0.000000 0.636891 0.250000
O O12 0.755284 0.663612 0.021373
O O13 0.500000 0.673541 0.750000
#
# Coordination Sequence:
#
# PCOD9265128 Si02
#       6
#     8   8   8   8   8   8
#     4  10  20  34  56  83 111 142 184 224 268 326
#     4  10  20  35  54  84 111 143 181 225 273 322
#     4   9  18  34  56  80 105 138 180 225 267 312
#     4  10  21  36  58  82 113 143 183 231 275 323
#     4   9  18  34  56  80 104 139 182 223 267 314
#     4  10  19  36  58  83 107 147 187 225 271 321
#
# _framework density 17.218264999999999
#
# number of rings (size 3 to 8) (size 9 to 14) (size 15 to 20)
#    0.000    2.333    1.667    1.000    0.000    1.333 
#    6.000    0.833    7.333    0.000    0.000    0.000 
#    0.000    0.000    0.000    0.000    0.000    0.000 
#
# Total GULP energy -133775.766558 kJ/mol
# GULP energy per Si atom -5573.990273 kJ/mol
# Density = 1.717908 g / cm^3
# Si number density = 17.218265 Si / 1000 Ang^3
#
#
#
# Elastic Constant Matrix: (Units=GPa)
#
#
# Indices 1 2 3 4 5 6 
#
# 1 55.5807 34.9680 33.0914 0.0000 0.1162 0.0000
# 2 34.9680 82.2450 53.6991 0.0000 -8.1516 0.0000
# 3 33.0914 53.6991 91.8994 0.0000 2.5173 0.0000
# 4 0.0000 0.0000 0.0000 23.7504 0.0000 1.9036
# 5 0.1162 -8.1516 2.5173 0.0000 17.1666 0.0000
# 6 0.0000 0.0000 0.0000 1.9036 0.0000 -7.4372
#
#
#
# Elastic Compliance Matrix: (Units=1/GPa)
#
#
# Indices 1 2 3 4 5 6 
#
# 1 0.025938 -0.008667 -0.004175 0.000000 -0.003679 0.000000
# 2 -0.008667 0.024897 -0.011800 0.000000 0.013612 0.000000
# 3 -0.004175 -0.011800 0.019511 0.000000 -0.008436 0.000000
# 4 0.000000 0.000000 0.000000 0.041258 0.000000 0.010560
# 5 -0.003679 0.013612 -0.008436 0.000000 0.065978 0.000000
# 6 0.000000 0.000000 0.000000 0.010560 0.000000 -0.131755
#
#
# Mechanical properties :
#
#
# Convention : Reuss Voigt Hill
#
# Bulk Modulus (GPa) = 47.47769 52.58244 50.03007
# Shear Modulus (GPa) = 48.95681 13.89374 31.42527
#
# Velocity S-wave (km/s) = 5.33805 2.84371 4.27677
# Velocity P-wave (km/s) = 8.10105 6.43330 7.31486
#
# Compressibility (1/GPa) = 0.02106252
#
# Stress axis : x y z
#
# Youngs Moduli (GPa) = 38.55390 40.16507 51.25339
#
# Poissons Ratio (x) = 0.34810 0.21397
# Poissons Ratio (y) = 0.33414 0.60480
# Poissons Ratio (z) = 0.16095 0.47395
#
# Static dielectric constant tensor:
#      x y z
#    x 1.566000 0.000000 0.004530 
#    y 0.000000 1.576100 0.000000 
#    z 0.004530 0.000000 1.586590 
# 
# From -- ./inp_files/97161.got.cif
#   From: 2010.05.17/outbox.cif.g08.bks.cpg/sg15_49_cif.got.tgz:97161.got - 2010.06.03 18:47:42.
