data_PCOD9265265
_publ_section_title
;
Structure prediction by ZEFSAII (Michael W. Deem and Ramdas Pophale) SiO2 
 PCOD9265265
Probable space group: C 2/C
;
_chemical_formula_sum "Si O2"
_cell_formula_units_Z 52
_cell_length_a 9.903381
_cell_length_b 14.024024
_cell_length_c 32.701193
_cell_angle_alpha 90.000000
_cell_angle_beta 39.994889
_cell_angle_gamma 90.000000
_cell_volume 2919.046772
_symmetry_space_group_name_H-M "C 2/C"
_symmetry_group_IT_number 15
_symmetry_cell_setting 'monoclinic'
loop_
_space_group_symop_operation_xyz
x,y,z
-x,y,1/2-z
-x,-y,-z
x,-y,1/2+z
1/2+x,1/2+y,z
1/2-x,1/2+y,1/2-z
1/2-x,1/2-y,-z
1/2+x,1/2-y,1/2+z
loop_
_atom_site_type_symbol
_atom_site_label
_atom_site_fract_x
_atom_site_fract_y
_atom_site_fract_z
Si Si1 0.866209 0.971068 0.819118
Si Si2 0.644698 0.288001 0.565711
Si Si3 0.633123 0.654889 0.576274
Si Si4 0.542536 0.167877 0.433141
Si Si5 0.791085 0.810648 0.346516
Si Si6 0.081578 0.034206 0.356996
Si Si7 0.000000 0.655580 0.250000
O O1 0.662089 0.909429 0.877721
O O2 0.000000 0.933246 0.750000
O O3 0.999848 0.964957 0.829529
O O4 0.820574 0.082771 0.822746
O O5 0.750000 0.250000 0.500000
O O6 0.800934 0.288981 0.568367
O O7 0.428117 0.229101 0.620518
O O8 0.566483 0.397232 0.581549
O O9 0.540854 0.747304 0.575762
O O10 0.709015 0.678793 0.604526
O O11 0.456982 0.572671 0.618865
O O12 0.841475 0.623962 0.503145
O O13 0.971747 0.733587 0.293064
O O14 0.306030 0.084428 0.301989
#
# Coordination Sequence:
#
# PCOD9265265 Si02
#       7
#     8   8   8   8   8   8   4
#     4  10  21  38  57  89 109 153 189 237 276 357
#     4  10  19  36  59  87 107 150 186 240 277 346
#     4  10  21  40  57  88 113 156 182 245 284 341
#     4  10  22  38  60  83 122 144 197 232 296 332
#     4  10  20  36  63  79 116 147 195 230 290 332
#     4   9  22  37  58  79 119 150 192 225 301 335
#     4  10  20  40  54  86 112 154 186 242 278 350
#
# _framework density 17.814035000000001
#
# number of rings (size 3 to 8) (size 9 to 14) (size 15 to 20)
#    0.000    2.154    2.308    0.000    4.308    1.846 
#    4.154    0.769    0.000    0.000    0.000    0.000 
#    0.000    0.000    0.000    0.000    0.000    0.000 
#
# Total GULP energy -144750.598225 kJ/mol
# GULP energy per Si atom -5567.330701 kJ/mol
# Density = 1.777349 g / cm^3
# Si number density = 17.814035 Si / 1000 Ang^3
#
#
#
# Elastic Constant Matrix: (Units=GPa)
#
#
# Indices 1 2 3 4 5 6 
#
# 1 33.0697 27.6012 23.6605 0.0007 -11.6767 -0.0006
# 2 27.6012 96.6322 60.4368 0.0006 -4.5032 -0.0005
# 3 23.6605 60.4368 125.9360 -0.0001 5.4858 -0.0008
# 4 0.0007 0.0006 -0.0001 28.2926 -0.0006 0.5309
# 5 -11.6767 -4.5032 5.4858 -0.0006 19.5680 0.0008
# 6 -0.0006 -0.0005 -0.0008 0.5309 0.0008 23.3887
#
#
#
# Elastic Compliance Matrix: (Units=1/GPa)
#
#
# Indices 1 2 3 4 5 6 
#
# 1 0.054897 -0.009760 -0.007045 -0.000001 0.032487 0.000000
# 2 -0.009760 0.017121 -0.006379 0.000000 -0.000096 0.000000
# 3 -0.007045 -0.006379 0.012728 0.000000 -0.009240 0.000000
# 4 -0.000001 0.000000 0.000000 0.035360 0.000001 -0.000803
# 5 0.032487 -0.000096 -0.009240 0.000001 0.073058 -0.000002
# 6 0.000000 0.000000 0.000000 -0.000803 -0.000002 0.042774
#
#
# Mechanical properties :
#
#
# Convention : Reuss Voigt Hill
#
# Bulk Modulus (GPa) = 26.05643 53.22610 39.64127
# Shear Modulus (GPa) = 16.94350 23.84583 20.39466
#
# Velocity S-wave (km/s) = 3.08739 3.66265 3.38726
# Velocity P-wave (km/s) = 5.23144 6.91595 6.13181
#
# Compressibility (1/GPa) = 0.03837824
#
# Stress axis : x y z
#
# Youngs Moduli (GPa) = 18.21592 58.40703 78.56827
#
# Poissons Ratio (x) = 0.57006 0.55353
# Poissons Ratio (y) = 0.17779 0.50116
# Poissons Ratio (z) = 0.12833 0.37256
#
# Static dielectric constant tensor:
#      x y z
#    x 1.590060 0.000000 -0.017030 
#    y 0.000000 1.609390 0.000000 
#    z -0.017030 0.000000 1.644160 
# 
# From -- ./inp_files/231164.got.cif
#   From: 2010.05.17/outbox.cif.g08.bks.cpg/sg15_116_cif.got.tgz:231164.got - 2010.06.03 18:47:42.
