data_PCOD9265879
_publ_section_title
;
Structure prediction by ZEFSAII (Michael W. Deem and Ramdas Pophale) SiO2 
 PCOD9265879
Probable space group: C 2/C
;
_chemical_formula_sum "Si O2"
_cell_formula_units_Z 44
_cell_length_a 11.936177
_cell_length_b 21.999271
_cell_length_c 7.980604
_cell_angle_alpha 90.000000
_cell_angle_beta 116.231602
_cell_angle_gamma 90.000000
_cell_volume 1879.787986
_symmetry_space_group_name_H-M "C 2/C"
_symmetry_group_IT_number 15
_symmetry_cell_setting 'monoclinic'
loop_
_space_group_symop_operation_xyz
x,y,z
-x,y,1/2-z
-x,-y,-z
x,-y,1/2+z
1/2+x,1/2+y,z
1/2-x,1/2+y,1/2-z
1/2-x,1/2-y,-z
1/2+x,1/2-y,1/2+z
loop_
_atom_site_type_symbol
_atom_site_label
_atom_site_fract_x
_atom_site_fract_y
_atom_site_fract_z
Si Si1 0.883027 0.317526 0.540699
Si Si2 0.871598 0.811582 0.908492
Si Si3 0.862287 0.011854 0.481417
Si Si4 0.000000 0.893066 0.250000
Si Si5 0.759987 0.906586 0.620798
Si Si6 0.503244 0.070019 0.453528
O O1 0.895660 0.259945 0.426705
O O2 0.754872 0.316551 0.561617
O O3 0.000000 0.312366 0.750000
O O4 0.887262 0.381560 0.446372
O O5 0.838801 0.846537 0.715344
O O6 0.980379 0.848684 0.078278
O O7 0.805062 0.948562 0.500279
O O8 0.885662 0.059522 0.649188
O O9 0.783296 0.048906 0.296009
O O10 0.000000 0.000000 0.500000
O O11 0.613204 0.897753 0.532227
O O12 0.500000 0.067412 0.250000
O O13 0.500000 0.000000 0.500000
#
# Coordination Sequence:
#
# PCOD9265879 Si02
#       6
#     8   8   8   4   8   8
#     4  10  19  37  56  90 124 165 215 257 307 381
#     4  10  20  34  59  86 123 164 213 261 303 378
#     4  11  21  36  55  87 130 157 208 262 321 382
#     4  10  20  32  54  86 114 158 204 258 312 360
#     4  11  21  35  58  90 125 163 207 264 317 372
#     4  11  22  38  60  92 126 165 207 260 318 376
#
# _framework density 23.406894999999999
#
# number of rings (size 3 to 8) (size 9 to 14) (size 15 to 20)
#    0.000    1.455    6.364    1.091    2.545    0.000 
#    0.000    0.000    0.000    4.364    0.000   16.545 
#    0.000    0.000    0.000    0.000    0.000    0.000 
#
# Total GULP energy -122734.671837 kJ/mol
# GULP energy per Si atom -5578.848720 kJ/mol
# Density = 2.335362 g / cm^3
# Si number density = 23.406895 Si / 1000 Ang^3
#
#
#
# Elastic Constant Matrix: (Units=GPa)
#
#
# Indices 1 2 3 4 5 6 
#
# 1 80.7546 8.9131 5.2573 0.0000 0.3317 0.0000
# 2 8.9131 179.5122 12.0692 0.0000 -8.1004 0.0000
# 3 5.2573 12.0692 22.3937 0.0000 -0.6849 0.0000
# 4 0.0000 0.0000 0.0000 16.1461 0.0000 -0.9503
# 5 0.3317 -8.1004 -0.6849 0.0000 20.4163 0.0000
# 6 0.0000 0.0000 0.0000 -0.9503 0.0000 35.1117
#
#
#
# Elastic Compliance Matrix: (Units=1/GPa)
#
#
# Indices 1 2 3 4 5 6 
#
# 1 0.012614 -0.000465 -0.002726 0.000000 -0.000481 0.000000
# 2 -0.000465 0.005897 -0.003000 0.000000 0.002247 0.000000
# 3 -0.002726 -0.003000 0.046925 0.000000 0.000428 0.000000
# 4 0.000000 0.000000 0.000000 0.062033 0.000000 0.001679
# 5 -0.000481 0.002247 0.000428 0.000000 0.049894 0.000000
# 6 0.000000 0.000000 0.000000 0.001679 0.000000 0.028526
#
#
# Mechanical properties :
#
#
# Convention : Reuss Voigt Hill
#
# Bulk Modulus (GPa) = 18.84838 37.23773 28.04305
# Shear Modulus (GPa) = 21.19043 31.42955 26.30999
#
# Velocity S-wave (km/s) = 3.01210 3.66833 3.35629
# Velocity P-wave (km/s) = 4.49076 5.82113 5.19868
#
# Compressibility (1/GPa) = 0.05305497
#
# Stress axis : x y z
#
# Youngs Moduli (GPa) = 79.27759 169.58283 21.31041
#
# Poissons Ratio (x) = 0.07881 0.05808
# Poissons Ratio (y) = 0.03684 0.06394
# Poissons Ratio (z) = 0.21607 0.50880
#
# Static dielectric constant tensor:
#      x y z
#    x 1.959120 0.000000 0.049650 
#    y 0.000000 1.952470 0.000000 
#    z 0.049650 0.000000 2.101700 
# 
# From -- ./inp_files/32228.got.cif
#   From: 2010.05.17/outbox.cif.g08.bks.cpg/sg15_17_cif.got.tgz:32228.got - 2010.06.03 18:47:42.
