data_PCOD9265959
_publ_section_title
;
Structure prediction by ZEFSAII (Michael W. Deem and Ramdas Pophale) SiO2 
 PCOD9265959
Probable space group: C 2/C
;
_chemical_formula_sum "Si O2"
_cell_formula_units_Z 40
_cell_length_a 8.855885
_cell_length_b 16.717280
_cell_length_c 20.195932
_cell_angle_alpha 90.000000
_cell_angle_beta 137.217319
_cell_angle_gamma 90.000000
_cell_volume 2030.820887
_symmetry_space_group_name_H-M "C 2/C"
_symmetry_group_IT_number 15
_symmetry_cell_setting 'monoclinic'
loop_
_space_group_symop_operation_xyz
x,y,z
-x,y,1/2-z
-x,-y,-z
x,-y,1/2+z
1/2+x,1/2+y,z
1/2-x,1/2+y,1/2-z
1/2-x,1/2-y,-z
1/2+x,1/2-y,1/2+z
loop_
_atom_site_type_symbol
_atom_site_label
_atom_site_fract_x
_atom_site_fract_y
_atom_site_fract_z
Si Si1 0.898732 0.693520 0.500265
Si Si2 0.315822 0.429135 0.486224
Si Si3 0.140668 0.247500 0.891893
Si Si4 0.815864 0.426628 0.640585
Si Si5 0.241128 0.804907 0.153119
O O1 0.750000 0.750000 0.500000
O O2 0.841386 0.607092 0.508709
O O3 0.810433 0.720463 0.400162
O O4 0.161022 0.710779 0.588204
O O5 0.569412 0.425331 0.592981
O O6 0.228317 0.514952 0.435343
O O7 0.320147 0.373533 0.420531
O O8 0.109605 0.338010 0.857084
O O9 0.915366 0.197954 0.832331
O O10 0.250000 0.250000 0.000000
O O11 0.000000 0.459346 0.750000
O O12 0.500000 0.812450 0.250000
#
# Coordination Sequence:
#
# PCOD9265959 Si02
#       5
#     8   8   8   8   8
#     4   9  17  35  56  81 111 151 181 230 278 325
#     4  10  21  39  55  80 117 151 185 235 279 335
#     4  10  19  37  58  86 113 147 186 236 284 325
#     4  11  22  35  60  82 111 152 194 226 284 342
#     4  10  20  34  61  86 114 146 190 230 280 336
#
# _framework density 19.696467999999999
#
# number of rings (size 3 to 8) (size 9 to 14) (size 15 to 20)
#    0.000    2.000    6.000    0.600    2.800    0.000 
#    0.000    4.000    0.000    0.000    0.000    0.000 
#    0.000    0.000    0.000    0.000    0.000    0.000 
#
# Total GULP energy -111399.194126 kJ/mol
# GULP energy per Si atom -5569.959706 kJ/mol
# Density = 1.965164 g / cm^3
# Si number density = 19.696468 Si / 1000 Ang^3
#
#
#
# Elastic Constant Matrix: (Units=GPa)
#
#
# Indices 1 2 3 4 5 6 
#
# 1 96.7498 14.4714 35.5231 0.0000 35.9060 0.0000
# 2 14.4714 46.1590 14.7924 0.0000 9.3286 0.0000
# 3 35.5231 14.7924 105.7649 0.0001 32.7334 0.0000
# 4 0.0000 0.0000 0.0001 14.3017 0.0000 3.5811
# 5 35.9060 9.3286 32.7334 0.0000 34.8280 0.0000
# 6 0.0000 0.0000 0.0000 3.5811 0.0000 20.8029
#
#
#
# Elastic Compliance Matrix: (Units=1/GPa)
#
#
# Indices 1 2 3 4 5 6 
#
# 1 0.016899 -0.001844 -0.000252 0.000000 -0.016691 0.000000
# 2 -0.001844 0.023362 -0.001833 0.000000 -0.002634 0.000000
# 3 -0.000252 -0.001833 0.013487 0.000000 -0.011924 0.000000
# 4 0.000000 0.000000 0.000000 0.073071 0.000000 -0.012579
# 5 -0.016691 -0.002634 -0.011924 0.000000 0.057833 0.000000
# 6 0.000000 0.000000 0.000000 -0.012579 0.000000 0.050236
#
#
# Mechanical properties :
#
#
# Convention : Reuss Voigt Hill
#
# Bulk Modulus (GPa) = 21.79173 42.02751 31.90962
# Shear Modulus (GPa) = 19.37673 26.24566 22.81119
#
# Velocity S-wave (km/s) = 3.13991 3.65431 3.40683
# Velocity P-wave (km/s) = 4.92272 6.26013 5.63127
#
# Compressibility (1/GPa) = 0.04588896
#
# Stress axis : x y z
#
# Youngs Moduli (GPa) = 59.17629 42.80454 74.14816
#
# Poissons Ratio (x) = 0.07893 0.01870
# Poissons Ratio (y) = 0.10912 0.13591
# Poissons Ratio (z) = 0.01492 0.07846
#
# Static dielectric constant tensor:
#      x y z
#    x 1.785740 0.000000 0.022110 
#    y 0.000000 1.741230 0.000000 
#    z 0.022110 0.000000 1.710360 
# 
# From -- ./inp_files/133805.got.cif
#   From: 2010.05.17/outbox.cif.g08.bks.cpg/sg15_67_cif.got.tgz:133805.got - 2010.06.03 18:47:42.
