data_PCOD9265755
_publ_section_title
;
Structure prediction by ZEFSAII (Michael W. Deem and Ramdas Pophale) SiO2 
 PCOD9265755
Probable space group: C 2/C
;
_chemical_formula_sum "Si O2"
_cell_formula_units_Z 52
_cell_length_a 16.049509
_cell_length_b 8.261734
_cell_length_c 21.626467
_cell_angle_alpha 90.000000
_cell_angle_beta 132.362729
_cell_angle_gamma 90.000000
_cell_volume 2118.851740
_symmetry_space_group_name_H-M "C 2/C"
_symmetry_group_IT_number 15
_symmetry_cell_setting 'monoclinic'
loop_
_space_group_symop_operation_xyz
x,y,z
-x,y,1/2-z
-x,-y,-z
x,-y,1/2+z
1/2+x,1/2+y,z
1/2-x,1/2+y,1/2-z
1/2-x,1/2-y,-z
1/2+x,1/2-y,1/2+z
loop_
_atom_site_type_symbol
_atom_site_label
_atom_site_fract_x
_atom_site_fract_y
_atom_site_fract_z
Si Si1 0.077198 0.866643 0.075381
Si Si2 0.342748 0.430294 0.069471
Si Si3 0.369239 0.750879 0.025868
Si Si4 0.000000 0.088680 0.750000
Si Si5 0.171820 0.063572 0.239453
Si Si6 0.862285 0.690617 0.976916
Si Si7 0.109254 0.616687 0.648763
O O1 0.133203 0.956445 0.160638
O O2 0.148935 0.792076 0.055208
O O3 0.993916 0.721862 0.055673
O O4 0.000000 0.000000 0.000000
O O5 0.412084 0.588486 0.084334
O O6 0.425183 0.332139 0.157474
O O7 0.221606 0.450472 0.042254
O O8 0.313302 0.342319 0.990491
O O9 0.472749 0.877882 0.082847
O O10 0.250000 0.750000 0.000000
O O11 0.100451 0.996010 0.763347
O O12 0.306687 0.034325 0.307423
O O13 0.147948 0.251628 0.217838
O O14 0.858717 0.692889 0.901926
#
# Coordination Sequence:
#
# PCOD9265755 Si02
#       7
#     8   8   8   4   8   8   8
#     4  11  18  41  67  86 121 182 213 253 331 400
#     4  11  20  36  64  92 123 162 218 268 314 378
#     4  11  23  43  65  91 129 174 216 264 331 400
#     4  12  20  36  64  96 126 170 216 266 336 376
#     4  12  23  41  67  95 131 173 213 272 331 393
#     4  10  19  36  65  92 117 167 220 260 308 399
#     4  11  23  43  66  93 135 170 221 264 337 395
#
# _framework density 24.541594
#
# number of rings (size 3 to 8) (size 9 to 14) (size 15 to 20)
#    0.000    0.923    9.231    0.000    0.000    1.231 
#    2.769    1.538    0.000    0.000    0.000    0.000 
#    0.000    0.000    0.000    0.000    0.000    0.000 
#
# Total GULP energy -144852.261918 kJ/mol
# GULP energy per Si atom -5571.240843 kJ/mol
# Density = 2.448574 g / cm^3
# Si number density = 24.541594 Si / 1000 Ang^3
#
#
#
# Elastic Constant Matrix: (Units=GPa)
#
#
# Indices 1 2 3 4 5 6 
#
# 1 212.6665 28.0395 35.2332 0.0000 18.1143 0.0000
# 2 28.0395 27.2031 10.4667 0.0000 13.8823 0.0000
# 3 35.2332 10.4667 92.9736 0.0000 12.8620 0.0000
# 4 0.0000 0.0000 0.0000 29.8005 0.0000 15.6462
# 5 18.1143 13.8823 12.8620 0.0000 41.9626 0.0000
# 6 0.0000 0.0000 0.0000 15.6462 0.0000 43.7199
#
#
#
# Elastic Compliance Matrix: (Units=1/GPa)
#
#
# Indices 1 2 3 4 5 6 
#
# 1 0.005651 -0.005090 -0.001529 0.000000 -0.000287 0.000000
# 2 -0.005090 0.049677 -0.001769 0.000000 -0.013695 0.000000
# 3 -0.001529 -0.001769 0.011865 0.000000 -0.002392 0.000000
# 4 0.000000 0.000000 0.000000 0.041320 0.000000 -0.014787
# 5 -0.000287 -0.013695 -0.002392 0.000000 0.029218 0.000000
# 6 0.000000 0.000000 0.000000 -0.014787 0.000000 0.028165
#
#
# Mechanical properties :
#
#
# Convention : Reuss Voigt Hill
#
# Bulk Modulus (GPa) = 19.83462 53.36913 36.60188
# Shear Modulus (GPa) = 25.06547 40.37019 32.71783
#
# Velocity S-wave (km/s) = 3.19932 4.06022 3.65521
# Velocity P-wave (km/s) = 4.66338 6.61620 5.72369
#
# Compressibility (1/GPa) = 0.05041689
#
# Stress axis : x y z
#
# Youngs Moduli (GPa) = 176.95857 20.13023 84.28089
#
# Poissons Ratio (x) = 0.10247 0.12885
# Poissons Ratio (y) = 0.90075 0.14909
# Poissons Ratio (z) = 0.27053 0.03561
#
# Static dielectric constant tensor:
#      x y z
#    x 1.995110 0.000000 0.059380 
#    y 0.000000 2.221170 0.000000 
#    z 0.059380 0.000000 1.999240 
# 
# From -- ./inp_files/243801.got.cif
#   From: 2010.05.17/outbox.cif.g08.bks.cpg/sg15_122_cif.got.tgz:243801.got - 2010.06.03 18:47:42.
