data_PCOD9265073
_publ_section_title
;
Structure prediction by ZEFSAII (Michael W. Deem and Ramdas Pophale) SiO2 
 PCOD9265073
Probable space group: C 2/C
;
_chemical_formula_sum "Si O2"
_cell_formula_units_Z 52
_cell_length_a 23.099636
_cell_length_b 9.917405
_cell_length_c 22.242471
_cell_angle_alpha 90.000000
_cell_angle_beta 148.131481
_cell_angle_gamma 90.000000
_cell_volume 2690.276616
_symmetry_space_group_name_H-M "C 2/C"
_symmetry_group_IT_number 15
_symmetry_cell_setting 'monoclinic'
loop_
_space_group_symop_operation_xyz
x,y,z
-x,y,1/2-z
-x,-y,-z
x,-y,1/2+z
1/2+x,1/2+y,z
1/2-x,1/2+y,1/2-z
1/2-x,1/2-y,-z
1/2+x,1/2-y,1/2+z
loop_
_atom_site_type_symbol
_atom_site_label
_atom_site_fract_x
_atom_site_fract_y
_atom_site_fract_z
Si Si1 0.103492 0.252740 0.658995
Si Si2 0.500000 0.619579 0.750000
Si Si3 0.779617 0.230606 0.205622
Si Si4 0.421917 0.628575 0.430476
Si Si5 0.329468 0.267741 0.014254
Si Si6 0.223136 0.531152 0.329549
Si Si7 0.195875 0.044797 0.837306
O O1 0.179143 0.259901 0.665270
O O2 0.119022 0.382924 0.715256
O O3 0.145529 0.126359 0.735829
O O4 0.979930 0.228948 0.528270
O O5 0.553791 0.705719 0.851886
O O6 0.600882 0.542749 0.805452
O O7 0.891097 0.203322 0.342114
O O8 0.789410 0.372026 0.179797
O O9 0.768841 0.102544 0.152822
O O10 0.500000 0.500000 0.500000
O O11 0.308513 0.567641 0.352507
O O12 0.250000 0.250000 0.000000
O O13 0.282557 0.398717 0.938187
O O14 0.299044 0.136052 0.948701
#
# Coordination Sequence:
#
# PCOD9265073 Si02
#       7
#     8   4   8   8   8   8   8
#     4  10  19  36  57  86 121 159 195 229 284 351
#     4  10  20  38  66  84 102 152 212 242 290 350
#     4  11  21  34  57  92 124 151 191 241 297 350
#     4  11  19  34  58  82 121 161 191 221 287 351
#     4   9  20  38  60  80 106 150 204 246 289 344
#     4  10  21  35  58  85 118 152 193 245 287 348
#     4  10  20  37  61  86 116 155 193 242 294 346
#
# _framework density 19.328866999999999
#
# number of rings (size 3 to 8) (size 9 to 14) (size 15 to 20)
#    0.000    1.846    3.077    1.846    0.000    0.615 
#    0.000    7.692    0.000   11.077    0.000    0.000 
#    0.000    0.000    0.000    0.000    0.000    0.000 
#
# Total GULP energy -144849.378930 kJ/mol
# GULP energy per Si atom -5571.129959 kJ/mol
# Density = 1.928487 g / cm^3
# Si number density = 19.328867 Si / 1000 Ang^3
#
#
#
# Elastic Constant Matrix: (Units=GPa)
#
#
# Indices 1 2 3 4 5 6 
#
# 1 62.9773 39.8012 -2.9047 0.0000 -1.0552 0.0000
# 2 39.8012 176.2669 63.3604 0.0000 -17.8495 0.0000
# 3 -2.9047 63.3604 111.5555 0.0000 -17.9594 0.0000
# 4 0.0000 0.0000 0.0000 15.7113 0.0000 4.6145
# 5 -1.0552 -17.8495 -17.9594 0.0000 28.2996 0.0000
# 6 0.0000 0.0000 0.0000 4.6145 0.0000 19.7920
#
#
#
# Elastic Compliance Matrix: (Units=1/GPa)
#
#
# Indices 1 2 3 4 5 6 
#
# 1 0.019750 -0.005868 0.003753 0.000000 -0.000583 0.000000
# 2 -0.005868 0.008991 -0.004880 0.000000 0.002355 0.000000
# 3 0.003753 -0.004880 0.012653 0.000000 0.005092 0.000000
# 4 0.000000 0.000000 0.000000 0.068328 0.000000 -0.015931
# 5 -0.000583 0.002355 0.005092 0.000000 0.040031 0.000000
# 6 0.000000 0.000000 0.000000 -0.015931 0.000000 0.054240
#
#
# Mechanical properties :
#
#
# Convention : Reuss Voigt Hill
#
# Bulk Modulus (GPa) = 36.48945 61.25708 48.87326
# Shear Modulus (GPa) = 22.01497 29.46342 25.73920
#
# Velocity S-wave (km/s) = 3.37852 3.90849 3.65313
# Velocity P-wave (km/s) = 5.84281 7.22006 6.56763
#
# Compressibility (1/GPa) = 0.02740518
#
# Stress axis : x y z
#
# Youngs Moduli (GPa) = 50.63163 111.22392 79.02978
#
# Poissons Ratio (x) = 0.65264 -0.29661
# Poissons Ratio (y) = 0.29710 0.38568
# Poissons Ratio (z) = -0.19003 0.54280
#
# Static dielectric constant tensor:
#      x y z
#    x 1.711460 0.000000 0.006200 
#    y 0.000000 1.697130 0.000000 
#    z 0.006200 0.000000 1.779390 
# 
# From -- ./inp_files/121801.got.cif
#   From: 2010.05.17/outbox.cif.g08.bks.cpg/sg15_61_cif.got.tgz:121801.got - 2010.06.03 18:47:42.
