data_PCOD9265867
_publ_section_title
;
Structure prediction by ZEFSAII (Michael W. Deem and Ramdas Pophale) SiO2 
 PCOD9265867
Probable space group: C 2/C
;
_chemical_formula_sum "Si O2"
_cell_formula_units_Z 56
_cell_length_a 27.358109
_cell_length_b 6.066988
_cell_length_c 14.074398
_cell_angle_alpha 90.000000
_cell_angle_beta 102.119665
_cell_angle_gamma 90.000000
_cell_volume 2284.018645
_symmetry_space_group_name_H-M "C 2/C"
_symmetry_group_IT_number 15
_symmetry_cell_setting 'monoclinic'
loop_
_space_group_symop_operation_xyz
x,y,z
-x,y,1/2-z
-x,-y,-z
x,-y,1/2+z
1/2+x,1/2+y,z
1/2-x,1/2+y,1/2-z
1/2-x,1/2-y,-z
1/2+x,1/2-y,1/2+z
loop_
_atom_site_type_symbol
_atom_site_label
_atom_site_fract_x
_atom_site_fract_y
_atom_site_fract_z
Si Si1 0.440071 0.191395 0.056569
Si Si2 0.589823 0.584675 0.563594
Si Si3 0.041603 0.534336 0.142245
Si Si4 0.124307 0.785590 0.733986
Si Si5 0.783693 0.550218 0.644030
Si Si6 0.688685 0.702632 0.534326
Si Si7 0.343904 0.333073 0.115618
O O1 0.483163 0.076678 0.137146
O O2 0.386713 0.179571 0.086975
O O3 0.442037 0.455379 0.029110
O O4 0.450376 0.076868 0.958996
O O5 0.559978 0.716557 0.630635
O O6 0.620369 0.394634 0.629577
O O7 0.632322 0.748586 0.543280
O O8 0.077818 0.384186 0.221156
O O9 0.176408 0.663956 0.771407
O O10 0.126974 0.985906 0.809625
O O11 0.728722 0.652380 0.632715
O O12 0.794665 0.622804 0.538222
O O13 0.800719 0.297515 0.653148
O O14 0.683260 0.471755 0.476589
#
# Coordination Sequence:
#
# PCOD9265867 Si02
#       7
#     8   8   8   8   8   8   8
#     4   9  20  35  61  87 104 150 203 233 292 346
#     4  10  19  37  56  83 113 150 189 245 284 344
#     4  10  19  37  59  83 117 149 191 247 286 347
#     4  10  22  36  51  82 123 150 189 230 297 347
#     4  10  19  37  56  82 112 151 189 244 288 342
#     4   9  20  35  60  85 105 146 206 235 286 347
#     4  10  19  37  59  82 116 152 191 245 289 350
#
# _framework density 24.518187000000001
#
# number of rings (size 3 to 8) (size 9 to 14) (size 15 to 20)
#    0.000    2.286    0.000    2.571    0.000    0.000 
#    5.143    4.286    0.000    0.000    0.000    0.000 
#    0.000    0.000    0.000    0.000    0.000    0.000 
#
# Total GULP energy -156132.769418 kJ/mol
# GULP energy per Si atom -5576.170336 kJ/mol
# Density = 2.446238 g / cm^3
# Si number density = 24.518187 Si / 1000 Ang^3
#
#
#
# Elastic Constant Matrix: (Units=GPa)
#
#
# Indices 1 2 3 4 5 6 
#
# 1 60.8951 26.8064 3.5997 0.0000 17.0412 0.0000
# 2 26.8064 65.5517 36.7383 0.0000 20.2497 0.0000
# 3 3.5997 36.7383 71.7605 0.0000 22.6806 0.0000
# 4 0.0000 0.0000 0.0000 26.5155 0.0000 -5.5590
# 5 17.0412 20.2497 22.6806 0.0000 33.7536 0.0000
# 6 0.0000 0.0000 0.0000 -5.5590 0.0000 18.1919
#
#
#
# Elastic Compliance Matrix: (Units=1/GPa)
#
#
# Indices 1 2 3 4 5 6 
#
# 1 0.023651 -0.010656 0.007646 0.000000 -0.010686 0.000000
# 2 -0.010656 0.027561 -0.012760 0.000000 -0.002581 0.000000
# 3 0.007646 -0.012760 0.023977 0.000000 -0.012317 0.000000
# 4 0.000000 0.000000 0.000000 0.040295 0.000000 0.012313
# 5 -0.010686 -0.002581 -0.012317 0.000000 0.044846 0.000000
# 6 0.000000 0.000000 0.000000 0.012313 0.000000 0.058732
#
#
# Mechanical properties :
#
#
# Convention : Reuss Voigt Hill
#
# Bulk Modulus (GPa) = 22.90959 36.94401 29.92680
# Shear Modulus (GPa) = 18.85710 24.42972 21.64341
#
# Velocity S-wave (km/s) = 2.77629 3.15999 2.97433
# Velocity P-wave (km/s) = 4.43184 5.33055 4.90184
#
# Compressibility (1/GPa) = 0.04364985
#
# Stress axis : x y z
#
# Youngs Moduli (GPa) = 42.28166 36.28269 41.70649
#
# Poissons Ratio (x) = 0.38663 -0.31891
# Poissons Ratio (y) = 0.45056 0.53218
# Poissons Ratio (z) = -0.32330 0.46297
#
# Static dielectric constant tensor:
#      x y z
#    x 2.016420 0.000000 0.021100 
#    y 0.000000 2.001410 0.000000 
#    z 0.021100 0.000000 2.017290 
# 
# From -- ./inp_files/223947.got.cif
#   From: 2010.05.17/outbox.cif.g08.bks.cpg/sg15_112_cif.got.tgz:223947.got - 2010.06.03 18:47:42.
