data_PCOD9265599
_publ_section_title
;
Structure prediction by ZEFSAII (Michael W. Deem and Ramdas Pophale) SiO2 
 PCOD9265599
Probable space group: C 2/C
;
_chemical_formula_sum "Si O2"
_cell_formula_units_Z 52
_cell_length_a 13.293544
_cell_length_b 16.373414
_cell_length_c 15.178222
_cell_angle_alpha 90.000000
_cell_angle_beta 44.456283
_cell_angle_gamma 90.000000
_cell_volume 2313.797035
_symmetry_space_group_name_H-M "C 2/C"
_symmetry_group_IT_number 15
_symmetry_cell_setting 'monoclinic'
loop_
_space_group_symop_operation_xyz
x,y,z
-x,y,1/2-z
-x,-y,-z
x,-y,1/2+z
1/2+x,1/2+y,z
1/2-x,1/2+y,1/2-z
1/2-x,1/2-y,-z
1/2+x,1/2-y,1/2+z
loop_
_atom_site_type_symbol
_atom_site_label
_atom_site_fract_x
_atom_site_fract_y
_atom_site_fract_z
Si Si1 0.752977 0.459547 0.766388
Si Si2 0.180247 0.955657 0.018672
Si Si3 0.037364 0.372662 0.620155
Si Si4 0.953041 0.120926 0.404735
Si Si5 0.984613 0.199045 0.656392
Si Si6 0.000000 0.268304 0.250000
Si Si7 0.249102 0.141942 0.801253
O O1 0.616760 0.410718 0.813052
O O2 0.769313 0.556048 0.738138
O O3 0.900646 0.412288 0.658748
O O4 0.725968 0.463884 0.888560
O O5 0.056926 0.887680 0.092492
O O6 0.127797 0.042685 0.086083
O O7 0.318242 0.922943 0.982777
O O8 0.000000 0.373251 0.750000
O O9 0.061044 0.280146 0.573195
O O10 0.936383 0.203882 0.360591
O O11 0.877092 0.133650 0.546437
O O12 0.821152 0.202577 0.725566
O O13 0.000000 0.205549 0.750000
O O14 0.886158 0.324159 0.268298
#
# Coordination Sequence:
#
# PCOD9265599 Si02
#       7
#     8   8   8   8   8   4   8
#     4  10  19  39  66  88 120 175 218 257 317 400
#     4  10  19  36  62  92 121 170 211 263 321 388
#     4   9  20  33  58  91 122 155 213 262 311 375
#     4  11  22  42  66  89 126 175 215 262 322 392
#     4  11  21  38  63  94 129 164 213 267 323 378
#     4  12  28  40  68  98 138 162 218 280 320 376
#     4  11  23  43  65  95 125 175 219 259 321 391
#
# _framework density 22.473882
#
# number of rings (size 3 to 8) (size 9 to 14) (size 15 to 20)
#    0.000    1.538    3.077    2.769    6.462    0.000 
#    2.769    0.000    0.000    2.769    0.000    0.000 
#    0.000    0.000    0.000    0.000    0.000    0.000 
#
# Total GULP energy -145166.490707 kJ/mol
# GULP energy per Si atom -5583.326566 kJ/mol
# Density = 2.242273 g / cm^3
# Si number density = 22.473882 Si / 1000 Ang^3
#
#
#
# Elastic Constant Matrix: (Units=GPa)
#
#
# Indices 1 2 3 4 5 6 
#
# 1 120.9998 38.7248 24.8695 0.0000 -34.3260 0.0000
# 2 38.7248 92.4469 16.4754 0.0000 -21.4861 0.0000
# 3 24.8695 16.4754 23.6697 0.0000 -8.4096 0.0000
# 4 0.0000 0.0000 0.0000 13.4889 0.0000 -13.9926
# 5 -34.3260 -21.4861 -8.4096 0.0000 34.0782 0.0000
# 6 0.0000 0.0000 0.0000 -13.9926 0.0000 32.8513
#
#
#
# Elastic Compliance Matrix: (Units=1/GPa)
#
#
# Indices 1 2 3 4 5 6 
#
# 1 0.013706 -0.001612 -0.009574 0.000000 0.010427 0.000000
# 2 -0.001612 0.013866 -0.005950 0.000000 0.005651 0.000000
# 3 -0.009574 -0.005950 0.056658 0.000000 0.000586 0.000000
# 4 0.000000 0.000000 0.000000 0.132821 0.000000 0.056573
# 5 0.010427 0.005651 0.000586 0.000000 0.043554 0.000000
# 6 0.000000 0.000000 0.000000 0.056573 0.000000 0.054537
#
#
# Mechanical properties :
#
#
# Convention : Reuss Voigt Hill
#
# Bulk Modulus (GPa) = 20.01734 44.13951 32.07842
# Shear Modulus (GPa) = 13.65869 26.55347 20.10608
#
# Velocity S-wave (km/s) = 2.46795 3.44106 2.99430
# Velocity P-wave (km/s) = 4.12884 5.95574 5.12436
#
# Compressibility (1/GPa) = 0.04995670
#
# Stress axis : x y z
#
# Youngs Moduli (GPa) = 72.96017 72.11957 17.64978
#
# Poissons Ratio (x) = 0.11623 0.16899
# Poissons Ratio (y) = 0.11758 0.10502
# Poissons Ratio (z) = 0.69856 0.42915
#
# Static dielectric constant tensor:
#      x y z
#    x 1.818640 0.000000 0.011000 
#    y 0.000000 1.892240 0.000000 
#    z 0.011000 0.000000 1.835750 
# 
# From -- ./inp_files/205660.got.cif
#   From: 2010.05.17/outbox.cif.g08.bks.cpg/sg15_103_cif.got.tgz:205660.got - 2010.06.03 18:47:42.
