data_PCOD9265288
_publ_section_title
;
Structure prediction by ZEFSAII (Michael W. Deem and Ramdas Pophale) SiO2 
 PCOD9265288
Probable space group: C 2/C
;
_chemical_formula_sum "Si O2"
_cell_formula_units_Z 48
_cell_length_a 9.006678
_cell_length_b 13.775949
_cell_length_c 15.609644
_cell_angle_alpha 90.000000
_cell_angle_beta 106.660376
_cell_angle_gamma 90.000000
_cell_volume 1855.471074
_symmetry_space_group_name_H-M "C 2/C"
_symmetry_group_IT_number 15
_symmetry_cell_setting 'monoclinic'
loop_
_space_group_symop_operation_xyz
x,y,z
-x,y,1/2-z
-x,-y,-z
x,-y,1/2+z
1/2+x,1/2+y,z
1/2-x,1/2+y,1/2-z
1/2-x,1/2-y,-z
1/2+x,1/2-y,1/2+z
loop_
_atom_site_type_symbol
_atom_site_label
_atom_site_fract_x
_atom_site_fract_y
_atom_site_fract_z
Si Si1 0.061634 0.629847 0.597861
Si Si2 0.107664 0.702928 0.084316
Si Si3 0.811040 0.944334 0.013428
Si Si4 0.668064 0.036802 0.211861
Si Si5 0.786377 0.302445 0.636591
Si Si6 0.139488 0.914658 0.130421
O O1 0.154647 0.573309 0.538272
O O2 0.035552 0.542311 0.661462
O O3 0.187658 0.709995 0.650801
O O4 0.930642 0.685816 0.521997
O O5 0.192675 0.607036 0.134323
O O6 0.185299 0.802928 0.126057
O O7 0.943212 0.714182 0.108796
O O8 0.826534 0.855929 0.948791
O O9 0.811563 0.035068 0.950974
O O10 0.955651 0.935839 0.099947
O O11 0.663164 0.120355 0.283743
O O12 0.793305 0.965584 0.274587
#
# Coordination Sequence:
#
# PCOD9265288 Si02
#       6
#     8   8   8   8   8   8
#     4  11  20  38  60  88 114 149 195 238 288 342
#     4  11  20  39  62  84 112 155 195 237 281 343
#     4   9  18  35  62  90 110 148 188 243 284 340
#     4  11  24  31  52  91 124 146 184 241 291 333
#     4  10  19  38  62  86 110 148 198 239 283 337
#     4  10  19  36  59  89 118 145 192 239 287 334
#
# _framework density 25.869440999999998
#
# number of rings (size 3 to 8) (size 9 to 14) (size 15 to 20)
#    0.000    1.667    3.333    3.000    0.000    0.667 
#    0.000    0.833    0.000    4.000    4.333    0.000 
#    0.000    0.000    0.000    0.000    0.000    0.000 
#
# Total GULP energy -134025.817642 kJ/mol
# GULP energy per Si atom -5584.409068 kJ/mol
# Density = 2.581056 g / cm^3
# Si number density = 25.869441 Si / 1000 Ang^3
#
#
#
# Elastic Constant Matrix: (Units=GPa)
#
#
# Indices 1 2 3 4 5 6 
#
# 1 38.0648 6.5040 23.4873 0.0000 7.1516 0.0000
# 2 6.5040 209.4691 72.6559 0.0000 5.3992 0.0000
# 3 23.4873 72.6559 146.3208 0.0000 27.5098 0.0000
# 4 0.0000 0.0000 0.0000 60.4880 0.0000 5.5985
# 5 7.1516 5.3992 27.5098 0.0000 40.8273 0.0000
# 6 0.0000 0.0000 0.0000 5.5985 0.0000 27.7461
#
#
#
# Elastic Compliance Matrix: (Units=1/GPa)
#
#
# Indices 1 2 3 4 5 6 
#
# 1 0.029442 0.000777 -0.004721 0.000000 -0.002079 0.000000
# 2 0.000777 0.005852 -0.003274 0.000000 0.001296 0.000000
# 3 -0.004721 -0.003274 0.010284 0.000000 -0.005669 0.000000
# 4 0.000000 0.000000 0.000000 0.016847 0.000000 -0.003399
# 5 -0.002079 0.001296 -0.005669 0.000000 0.028506 0.000000
# 6 0.000000 0.000000 0.000000 -0.003399 0.000000 0.036727
#
#
# Mechanical properties :
#
#
# Convention : Reuss Voigt Hill
#
# Bulk Modulus (GPa) = 32.11176 66.57211 49.34193
# Shear Modulus (GPa) = 32.79230 45.22612 39.00921
#
# Velocity S-wave (km/s) = 3.56421 4.18574 3.88742
# Velocity P-wave (km/s) = 5.42016 7.01073 6.26611
#
# Compressibility (1/GPa) = 0.03114124
#
# Stress axis : x y z
#
# Youngs Moduli (GPa) = 33.96532 170.87699 97.23974
#
# Poissons Ratio (x) = -0.13275 0.45905
# Poissons Ratio (y) = -0.02639 0.31839
# Poissons Ratio (z) = 0.16035 0.55951
#
# Static dielectric constant tensor:
#      x y z
#    x 2.112970 0.000000 -0.004980 
#    y 0.000000 2.082390 0.000000 
#    z -0.004980 0.000000 2.087570 
# 
# From -- ./inp_files/196609.got.cif
#   From: 2010.05.17/outbox.cif.g08.bks.cpg/sg15_99_cif.got.tgz:196609.got - 2010.06.03 18:47:42.
