data_PCOD9265038
_publ_section_title
;
Structure prediction by ZEFSAII (Michael W. Deem and Ramdas Pophale) SiO2 
 PCOD9265038
Probable space group: C 2/C
;
_chemical_formula_sum "Si O2"
_cell_formula_units_Z 48
_cell_length_a 27.345996
_cell_length_b 9.507172
_cell_length_c 18.955058
_cell_angle_alpha 90.000000
_cell_angle_beta 149.137872
_cell_angle_gamma 90.000000
_cell_volume 2527.932887
_symmetry_space_group_name_H-M "C 2/C"
_symmetry_group_IT_number 15
_symmetry_cell_setting 'monoclinic'
loop_
_space_group_symop_operation_xyz
x,y,z
-x,y,1/2-z
-x,-y,-z
x,-y,1/2+z
1/2+x,1/2+y,z
1/2-x,1/2+y,1/2-z
1/2-x,1/2-y,-z
1/2+x,1/2-y,1/2+z
loop_
_atom_site_type_symbol
_atom_site_label
_atom_site_fract_x
_atom_site_fract_y
_atom_site_fract_z
Si Si1 0.781061 0.519372 0.525557
Si Si2 0.103836 0.533085 0.545579
Si Si3 0.891620 0.592566 0.294402
Si Si4 0.904992 0.298166 0.084556
Si Si5 0.720673 0.217100 0.592050
Si Si6 0.393426 0.485508 0.096093
O O1 0.844970 0.499391 0.674330
O O2 0.816581 0.649478 0.523104
O O3 0.798742 0.382150 0.499130
O O4 0.672502 0.518502 0.417255
O O5 0.118112 0.487036 0.643374
O O6 0.093736 0.396690 0.482471
O O7 0.187533 0.629354 0.618469
O O8 0.002648 0.613090 0.415925
O O9 0.829624 0.733558 0.224154
O O10 0.897630 0.133008 0.059750
O O11 0.000000 0.319935 0.250000
O O12 0.658536 0.358566 0.507843
O O13 0.500000 0.445828 0.250000
#
# Coordination Sequence:
#
# PCOD9265038 Si02
#       6
#     8   8   8   8   8   8
#     4  10  20  37  59  85 112 154 190 242 279 351
#     4  10  22  37  62  82 112 162 185 238 284 354
#     4  10  20  37  58  85 115 145 201 225 294 340
#     4  10  19  36  57  82 114 150 193 230 286 348
#     4  10  23  36  61  87 113 151 191 245 283 338
#     4  10  21  32  55  87 116 141 187 247 289 323
#
# _framework density 18.987846000000001
#
# number of rings (size 3 to 8) (size 9 to 14) (size 15 to 20)
#    0.000    2.000    1.667    2.500    4.667    2.667 
#    0.000    0.000    0.000    7.000    0.000    0.000 
#    0.000    0.000    0.000    0.000    0.000    0.000 
#
# Total GULP energy -133953.588432 kJ/mol
# GULP energy per Si atom -5581.399518 kJ/mol
# Density = 1.894463 g / cm^3
# Si number density = 18.987846 Si / 1000 Ang^3
#
#
#
# Elastic Constant Matrix: (Units=GPa)
#
#
# Indices 1 2 3 4 5 6 
#
# 1 70.8405 0.2471 13.2700 0.0000 -6.4023 0.0000
# 2 0.2471 74.5367 3.4057 0.0000 -6.6020 0.0000
# 3 13.2700 3.4057 48.8916 0.0000 -6.1988 0.0000
# 4 0.0000 0.0000 0.0000 7.7301 0.0000 6.0655
# 5 -6.4023 -6.6020 -6.1988 0.0000 23.0845 0.0000
# 6 0.0000 0.0000 0.0000 6.0655 0.0000 22.8760
#
#
#
# Elastic Compliance Matrix: (Units=1/GPa)
#
#
# Indices 1 2 3 4 5 6 
#
# 1 0.015109 0.000413 -0.003710 0.000000 0.003312 0.000000
# 2 0.000413 0.013787 -0.000578 0.000000 0.003902 0.000000
# 3 -0.003710 -0.000578 0.022102 0.000000 0.004741 0.000000
# 4 0.000000 0.000000 0.000000 0.163349 0.000000 -0.043312
# 5 0.003312 0.003902 0.004741 0.000000 0.046627 0.000000
# 6 0.000000 0.000000 0.000000 -0.043312 0.000000 0.055198
#
#
# Mechanical properties :
#
#
# Convention : Reuss Voigt Hill
#
# Bulk Modulus (GPa) = 23.12221 25.34606 24.23413
# Shear Modulus (GPa) = 14.77820 22.56119 18.66970
#
# Velocity S-wave (km/s) = 2.79283 3.45075 3.13907
# Velocity P-wave (km/s) = 4.75433 5.40874 5.09206
#
# Compressibility (1/GPa) = 0.04324846
#
# Stress axis : x y z
#
# Youngs Moduli (GPa) = 66.18560 72.53277 45.24564
#
# Poissons Ratio (x) = -0.02994 0.16785
# Poissons Ratio (y) = -0.02732 0.02614
# Poissons Ratio (z) = 0.24553 0.04190
#
# Static dielectric constant tensor:
#      x y z
#    x 1.661260 0.000000 0.023050 
#    y 0.000000 1.667900 0.000000 
#    z 0.023050 0.000000 1.651680 
# 
# From -- ./inp_files/166401.got.cif
#   From: 2010.05.17/outbox.cif.g08.bks.cpg/sg15_84_cif.got.tgz:166401.got - 2010.06.03 18:47:42.
