data_PCOD9265423
_publ_section_title
;
Structure prediction by ZEFSAII (Michael W. Deem and Ramdas Pophale) SiO2 
 PCOD9265423
Probable space group: C 2/C
;
_chemical_formula_sum "Si O2"
_cell_formula_units_Z 64
_cell_length_a 14.688076
_cell_length_b 11.655750
_cell_length_c 22.963436
_cell_angle_alpha 90.000000
_cell_angle_beta 40.428163
_cell_angle_gamma 90.000000
_cell_volume 2549.459207
_symmetry_space_group_name_H-M "C 2/C"
_symmetry_group_IT_number 15
_symmetry_cell_setting 'monoclinic'
loop_
_space_group_symop_operation_xyz
x,y,z
-x,y,1/2-z
-x,-y,-z
x,-y,1/2+z
1/2+x,1/2+y,z
1/2-x,1/2+y,1/2-z
1/2-x,1/2-y,-z
1/2+x,1/2-y,1/2+z
loop_
_atom_site_type_symbol
_atom_site_label
_atom_site_fract_x
_atom_site_fract_y
_atom_site_fract_z
Si Si1 0.916765 0.567674 0.627670
Si Si2 0.133329 0.613648 0.609321
Si Si3 0.881497 0.645215 0.076664
Si Si4 0.976720 0.132949 0.945666
Si Si5 0.389369 0.620462 0.869452
Si Si6 0.647277 0.357318 0.603059
Si Si7 0.191620 0.767938 0.203700
Si Si8 0.715302 0.523192 0.363252
O O1 0.840923 0.455822 0.639922
O O2 0.807863 0.670803 0.686203
O O3 0.014733 0.539364 0.634664
O O4 0.020983 0.602000 0.524022
O O5 0.266483 0.624618 0.499579
O O6 0.060047 0.740546 0.641198
O O7 0.188716 0.558270 0.642194
O O8 0.959527 0.743802 0.072941
O O9 0.748109 0.685475 0.105873
O O10 0.861156 0.132771 0.951265
O O11 0.112314 0.048932 0.871082
O O12 0.896456 0.087640 0.040918
O O13 0.403700 0.483232 0.853936
O O14 0.288228 0.680413 0.872198
O O15 0.538461 0.683837 0.792157
O O16 0.200998 0.631562 0.202452
#
# Coordination Sequence:
#
# PCOD9265423 Si02
#       8
#     8   8   8   8   8   8   8   8
#     4  10  21  36  61  94 129 168 208 273 324 375
#     4  10  21  34  66 102 130 163 206 280 332 382
#     4  10  19  36  60  96 130 158 218 271 316 384
#     4  11  23  39  67 100 132 173 216 272 345 387
#     4  11  25  44  64  90 130 187 217 272 331 408
#     4  10  19  38  63  96 134 161 217 266 334 391
#     4  11  25  45  61  90 135 178 225 268 332 402
#     4  11  23  40  65 102 139 166 215 281 330 402
#
# _framework density 25.103365
#
# number of rings (size 3 to 8) (size 9 to 14) (size 15 to 20)
#    0.000    1.500    5.000    0.000    3.500    0.500 
#    2.250    0.000    0.000    3.000    0.000    0.000 
#    0.000    0.000    0.000    0.000    0.000    0.000 
#
# Total GULP energy -178818.370504 kJ/mol
# GULP energy per Si atom -5588.074078 kJ/mol
# Density = 2.504623 g / cm^3
# Si number density = 25.103365 Si / 1000 Ang^3
#
#
#
# Elastic Constant Matrix: (Units=GPa)
#
#
# Indices 1 2 3 4 5 6 
#
# 1 65.0668 1.9681 7.9483 0.0000 -10.9905 0.0000
# 2 1.9681 122.1930 34.1095 0.0000 5.1881 0.0000
# 3 7.9483 34.1095 36.5566 0.0000 -2.3549 0.0000
# 4 0.0000 0.0000 0.0000 32.2133 0.0000 -9.7522
# 5 -10.9905 5.1881 -2.3549 0.0000 27.5329 0.0000
# 6 0.0000 0.0000 0.0000 -9.7522 0.0000 36.6648
#
#
#
# Elastic Compliance Matrix: (Units=1/GPa)
#
#
# Indices 1 2 3 4 5 6 
#
# 1 0.016877 0.000501 -0.003729 0.000000 0.006324 0.000000
# 2 0.000501 0.011330 -0.010865 0.000000 -0.002864 0.000000
# 3 -0.003729 -0.010865 0.038552 0.000000 0.003856 0.000000
# 4 0.000000 0.000000 0.000000 0.033762 0.000000 0.008980
# 5 0.006324 -0.002864 0.003856 0.000000 0.039714 0.000000
# 6 0.000000 0.000000 0.000000 0.008980 0.000000 0.029663
#
#
# Mechanical properties :
#
#
# Convention : Reuss Voigt Hill
#
# Bulk Modulus (GPa) = 25.92562 34.65201 30.28882
# Shear Modulus (GPa) = 23.70309 31.26824 27.48567
#
# Velocity S-wave (km/s) = 3.07615 3.53311 3.31252
# Velocity P-wave (km/s) = 4.79238 5.52064 5.16935
#
# Compressibility (1/GPa) = 0.03857188
#
# Stress axis : x y z
#
# Youngs Moduli (GPa) = 59.25091 88.25906 25.93902
#
# Poissons Ratio (x) = -0.04419 0.09674
# Poissons Ratio (y) = -0.02967 0.28183
# Poissons Ratio (z) = 0.22097 0.95895
#
# Static dielectric constant tensor:
#      x y z
#    x 1.985020 0.000000 0.093930 
#    y 0.000000 1.957430 0.000000 
#    z 0.093930 0.000000 2.064230 
# 
# From -- ./inp_files/313563.got.cif
#   From: 2010.05.17/outbox.cif.g08.bks.cpg/sg15_157_cif.got.tgz:313563.got - 2010.06.03 18:47:42.
