data_PCOD9265790
_publ_section_title
;
Structure prediction by ZEFSAII (Michael W. Deem and Ramdas Pophale) SiO2 
 PCOD9265790
Probable space group: C 2/C
;
_chemical_formula_sum "Si O2"
_cell_formula_units_Z 24
_cell_length_a 9.582200
_cell_length_b 9.518784
_cell_length_c 12.885242
_cell_angle_alpha 90.000000
_cell_angle_beta 49.268885
_cell_angle_gamma 90.000000
_cell_volume 890.599561
_symmetry_space_group_name_H-M "C 2/C"
_symmetry_group_IT_number 15
_symmetry_cell_setting 'monoclinic'
loop_
_space_group_symop_operation_xyz
x,y,z
-x,y,1/2-z
-x,-y,-z
x,-y,1/2+z
1/2+x,1/2+y,z
1/2-x,1/2+y,1/2-z
1/2-x,1/2-y,-z
1/2+x,1/2-y,1/2+z
loop_
_atom_site_type_symbol
_atom_site_label
_atom_site_fract_x
_atom_site_fract_y
_atom_site_fract_z
Si Si1 0.115498 0.119477 0.004945
Si Si2 0.500000 0.034010 0.750000
Si Si3 0.968424 0.280912 0.913747
Si Si4 0.000000 0.044537 0.750000
O O1 0.014847 0.258406 0.011633
O O2 0.321226 0.121372 0.863303
O O3 0.000000 0.000000 0.000000
O O4 0.114911 0.061069 0.121986
O O5 0.525318 0.926612 0.834745
O O6 0.075785 0.159705 0.795554
O O7 0.750000 0.250000 0.000000
#
# Coordination Sequence:
#
# PCOD9265790 Si02
#       4
#     8   4   8   4
#     4  10  20  38  65 100 133 169 221 271 318 394
#     4  11  20  38  72  97 130 175 216 266 331 374
#     4  10  19  36  67 100 128 178 218 260 332 390
#     4   9  18  34  62  95 132 161 216 278 313 374
#
# _framework density 26.948139000000001
#
# number of rings (size 3 to 8) (size 9 to 14) (size 15 to 20)
#    0.000    2.000    6.667    0.000    0.000    0.000 
#    0.000    6.667    7.333   20.000    0.000    0.000 
#    0.000    0.000    0.000    0.000    0.000    0.000 
#
# Total GULP energy -67009.266944 kJ/mol
# GULP energy per Si atom -5584.105579 kJ/mol
# Density = 2.688680 g / cm^3
# Si number density = 26.948139 Si / 1000 Ang^3
#
#
#
# Elastic Constant Matrix: (Units=GPa)
#
#
# Indices 1 2 3 4 5 6 
#
# 1 94.7092 40.4426 54.3442 0.0000 -10.8951 0.0000
# 2 40.4426 100.1014 16.3679 0.0000 2.5320 0.0000
# 3 54.3442 16.3679 153.1633 0.0000 -28.2663 0.0000
# 4 0.0000 0.0000 0.0000 -1.2946 0.0000 -9.9714
# 5 -10.8951 2.5320 -28.2663 0.0000 37.5834 0.0000
# 6 0.0000 0.0000 0.0000 -9.9714 0.0000 37.2299
#
#
#
# Elastic Compliance Matrix: (Units=1/GPa)
#
#
# Indices 1 2 3 4 5 6 
#
# 1 0.015878 -0.005670 -0.004770 0.000000 0.001397 0.000000
# 2 -0.005670 0.012292 0.000281 0.000000 -0.002260 0.000000
# 3 -0.004770 0.000281 0.009211 0.000000 0.005526 0.000000
# 4 0.000000 0.000000 0.000000 -0.252188 0.000000 -0.067544
# 5 0.001397 -0.002260 0.005526 0.000000 0.031321 0.000000
# 6 0.000000 0.000000 0.000000 -0.067544 0.000000 0.008769
#
#
# Mechanical properties :
#
#
# Convention : Reuss Voigt Hill
#
# Bulk Modulus (GPa) = 58.60635 63.36483 60.98559
# Shear Modulus (GPa) = -33.62215 30.49169 -1.56523
#
# Velocity S-wave (km/s) = -3.53606 3.36742 -0.76295
# Velocity P-wave (km/s) = 2.26350 6.21965 4.68014
#
# Compressibility (1/GPa) = 0.01706300
#
# Stress axis : x y z
#
# Youngs Moduli (GPa) = 62.98204 81.35412 108.56458
#
# Poissons Ratio (x) = 0.46130 0.51782
# Poissons Ratio (y) = 0.35712 -0.03052
# Poissons Ratio (z) = 0.30040 -0.02287
#
# Static dielectric constant tensor:
#      x y z
#    x 2.217510 0.000000 0.115910 
#    y 0.000000 2.146020 0.000000 
#    z 0.115910 0.000000 2.173410 
# 
# From -- ./inp_files/53970.got.cif
#   From: 2010.05.17/outbox.cif.g08.bks.cpg/sg15_27_cif.got.tgz:53970.got - 2010.06.03 18:47:42.
