data_PCOD9265797
_publ_section_title
;
Structure prediction by ZEFSAII (Michael W. Deem and Ramdas Pophale) SiO2 
 PCOD9265797
Probable space group: C 2/C
;
_chemical_formula_sum "Si O2"
_cell_formula_units_Z 60
_cell_length_a 11.108087
_cell_length_b 16.858493
_cell_length_c 16.750026
_cell_angle_alpha 90.000000
_cell_angle_beta 80.975804
_cell_angle_gamma 90.000000
_cell_volume 3097.878262
_symmetry_space_group_name_H-M "C 2/C"
_symmetry_group_IT_number 15
_symmetry_cell_setting 'monoclinic'
loop_
_space_group_symop_operation_xyz
x,y,z
-x,y,1/2-z
-x,-y,-z
x,-y,1/2+z
1/2+x,1/2+y,z
1/2-x,1/2+y,1/2-z
1/2-x,1/2-y,-z
1/2+x,1/2-y,1/2+z
loop_
_atom_site_type_symbol
_atom_site_label
_atom_site_fract_x
_atom_site_fract_y
_atom_site_fract_z
Si Si1 0.500000 0.069344 0.250000
Si Si2 0.716066 0.187368 0.279032
Si Si3 0.438414 0.044773 0.432851
Si Si4 0.300150 0.441306 0.452228
Si Si5 0.769016 0.777917 0.377177
Si Si6 0.418636 0.427488 0.828248
Si Si7 0.476636 0.774479 0.576966
Si Si8 0.057387 0.838702 0.950879
O O1 0.617515 0.126656 0.249430
O O2 0.476607 0.024592 0.337123
O O3 0.747967 0.255764 0.213070
O O4 0.828284 0.135124 0.296414
O O5 0.645522 0.225321 0.360203
O O6 0.295729 0.036640 0.468325
O O7 0.481974 0.135347 0.438358
O O8 0.500000 0.000000 0.500000
O O9 0.243456 0.367425 0.407758
O O10 0.340327 0.511026 0.389093
O O11 0.416051 0.406352 0.486950
O O12 0.681599 0.712950 0.428491
O O13 0.909763 0.762607 0.385727
O O14 0.500000 0.466788 0.750000
O O15 0.508577 0.379170 0.877038
O O16 0.465081 0.724843 0.497587
#
# Coordination Sequence:
#
# PCOD9265797 Si02
#       8
#     4   8   8   8   8   8   8   8
#     4  10  20  38  66  90 122 162 222 260 310 384
#     4  11  20  38  64  94 122 168 212 263 314 384
#     4  11  20  36  63  94 125 160 211 278 321 369
#     4  11  22  39  64  96 119 166 223 262 312 395
#     4  11  18  38  70  90 118 163 218 258 305 381
#     4  12  27  40  60  92 139 171 203 266 348 392
#     4  10  19  36  67  92 111 159 226 264 296 381
#     4  11  21  41  65  87 127 171 206 258 331 398
#
# _framework density 19.368093999999999
#
# number of rings (size 3 to 8) (size 9 to 14) (size 15 to 20)
#    0.000    1.067    6.667    2.800    0.000    2.667 
#    0.000    0.000    7.333    0.000    0.000    0.000 
#    0.000    0.000    0.000    0.000    0.000    0.000 
#
# Total GULP energy -167336.567371 kJ/mol
# GULP energy per Si atom -5577.885579 kJ/mol
# Density = 1.932401 g / cm^3
# Si number density = 19.368094 Si / 1000 Ang^3
#
#
#
# Elastic Constant Matrix: (Units=GPa)
#
#
# Indices 1 2 3 4 5 6 
#
# 1 37.9725 19.5301 28.7189 0.0000 6.0946 0.0000
# 2 19.5301 46.3699 44.4318 0.0000 0.9793 0.0000
# 3 28.7189 44.4318 147.4796 0.0000 -18.6958 0.0000
# 4 0.0000 0.0000 0.0000 37.3624 0.0000 -3.1256
# 5 6.0946 0.9793 -18.6958 0.0000 39.0742 0.0000
# 6 0.0000 0.0000 0.0000 -3.1256 0.0000 16.7200
#
#
#
# Elastic Compliance Matrix: (Units=1/GPa)
#
#
# Indices 1 2 3 4 5 6 
#
# 1 0.036792 -0.010559 -0.004979 0.000000 -0.007857 0.000000
# 2 -0.010559 0.034484 -0.008765 0.000000 -0.003411 0.000000
# 3 -0.004979 -0.008765 0.011196 0.000000 0.006354 0.000000
# 4 0.000000 0.000000 0.000000 0.027190 0.000000 0.005083
# 5 -0.007857 -0.003411 0.006354 0.000000 0.029943 0.000000
# 6 0.000000 0.000000 0.000000 0.005083 0.000000 0.060759
#
#
# Mechanical properties :
#
#
# Convention : Reuss Voigt Hill
#
# Bulk Modulus (GPa) = 29.52879 46.35372 37.94125
# Shear Modulus (GPa) = 19.21147 27.90741 23.55944
#
# Velocity S-wave (km/s) = 3.15288 3.80003 3.49148
# Velocity P-wave (km/s) = 5.34167 6.57561 5.99050
#
# Compressibility (1/GPa) = 0.03386526
#
# Stress axis : x y z
#
# Youngs Moduli (GPa) = 27.17946 28.99893 89.31383
#
# Poissons Ratio (x) = 0.30620 0.44473
# Poissons Ratio (y) = 0.28699 0.78287
# Poissons Ratio (z) = 0.13534 0.25419
#
# Static dielectric constant tensor:
#      x y z
#    x 1.709390 0.000000 -0.029370 
#    y 0.000000 1.669160 0.000000 
#    z -0.029370 0.000000 1.747370 
# 
# From -- ./inp_files/197826.got.cif
#   From: 2010.05.17/outbox.cif.g08.bks.cpg/sg15_99_cif.got.tgz:197826.got - 2010.06.03 18:47:42.
