data_PCOD9265443
_publ_section_title
;
Structure prediction by ZEFSAII (Michael W. Deem and Ramdas Pophale) SiO2 
 PCOD9265443
Probable space group: C 2/C
;
_chemical_formula_sum "Si O2"
_cell_formula_units_Z 40
_cell_length_a 20.295351
_cell_length_b 9.190486
_cell_length_c 30.211757
_cell_angle_alpha 90.000000
_cell_angle_beta 19.896720
_cell_angle_gamma 90.000000
_cell_volume 1917.810981
_symmetry_space_group_name_H-M "C 2/C"
_symmetry_group_IT_number 15
_symmetry_cell_setting 'monoclinic'
loop_
_space_group_symop_operation_xyz
x,y,z
-x,y,1/2-z
-x,-y,-z
x,-y,1/2+z
1/2+x,1/2+y,z
1/2-x,1/2+y,1/2-z
1/2-x,1/2-y,-z
1/2+x,1/2-y,1/2+z
loop_
_atom_site_type_symbol
_atom_site_label
_atom_site_fract_x
_atom_site_fract_y
_atom_site_fract_z
Si Si1 0.389581 0.749893 0.181518
Si Si2 0.950924 0.979304 0.082623
Si Si3 0.907618 0.002286 0.241427
Si Si4 0.916895 0.211868 0.930519
Si Si5 0.320730 0.993987 0.529579
O O1 0.215304 0.859135 0.303645
O O2 0.383159 0.632480 0.145822
O O3 0.413417 0.646635 0.208774
O O4 0.570086 0.852604 0.056091
O O5 0.120708 0.910518 0.007454
O O6 0.000000 0.000000 0.000000
O O7 0.727858 0.003809 0.387930
O O8 0.110342 0.996798 0.139612
O O9 0.914008 0.861973 0.205405
O O10 0.942711 0.364256 0.938956
O O11 0.750000 0.250000 0.000000
#
# Coordination Sequence:
#
# PCOD9265443 Si02
#       5
#     8   8   8   8   8
#     4  11  22  38  58  85 121 157 198 252 307 367
#     4  11  24  40  60  90 122 159 204 253 310 369
#     4   9  20  37  58  86 116 151 197 243 299 363
#     4   9  20  39  60  83 115 155 200 247 297 361
#     4  10  19  36  61  85 115 156 196 243 299 363
#
# _framework density 20.857112000000001
#
# number of rings (size 3 to 8) (size 9 to 14) (size 15 to 20)
#    0.000    2.000    0.000    3.000    0.000    4.800 
#    0.000    9.000    0.000    4.800    0.000    0.000 
#    0.000    0.000    0.000    0.000    0.000    0.000 
#
# Total GULP energy -111500.579306 kJ/mol
# GULP energy per Si atom -5575.028965 kJ/mol
# Density = 2.080964 g / cm^3
# Si number density = 20.857112 Si / 1000 Ang^3
#
#
#
# Elastic Constant Matrix: (Units=GPa)
#
#
# Indices 1 2 3 4 5 6 
#
# 1 114.0695 55.8811 60.8961 0.0224 42.0515 -0.0084
# 2 55.8811 182.2689 77.7373 0.0112 30.9946 -0.0167
# 3 60.8961 77.7373 99.3343 0.0166 34.0462 -0.0711
# 4 0.0224 0.0112 0.0166 1.2319 0.0048 9.0425
# 5 42.0515 30.9946 34.0462 0.0048 41.6706 -0.0160
# 6 -0.0084 -0.0167 -0.0711 9.0425 -0.0160 30.7855
#
#
#
# Elastic Compliance Matrix: (Units=1/GPa)
#
#
# Indices 1 2 3 4 5 6 
#
# 1 0.016243 -0.000693 -0.005520 0.000055 -0.011366 -0.000031
# 2 -0.000693 0.008308 -0.005831 -0.000076 -0.000716 0.000013
# 3 -0.005520 -0.005831 0.020304 0.000327 -0.006682 -0.000057
# 4 0.000055 -0.000076 0.000327 -0.702203 -0.000105 0.206255
# 5 -0.011366 -0.000716 -0.006682 -0.000105 0.041459 0.000033
# 6 -0.000031 0.000013 -0.000057 0.206255 0.000033 -0.028100
#
#
# Mechanical properties :
#
#
# Convention : Reuss Voigt Hill
#
# Bulk Modulus (GPa) = 48.15313 87.18909 67.67111
# Shear Modulus (GPa) = -8.15689 28.14814 9.99562
#
# Velocity S-wave (km/s) = -1.97973 3.67764 2.19154
# Velocity P-wave (km/s) = 4.23220 7.74126 6.23853
#
# Compressibility (1/GPa) = 0.02076708
#
# Stress axis : x y z
#
# Youngs Moduli (GPa) = 61.56583 120.37226 49.25049
#
# Poissons Ratio (x) = 0.08341 0.27184
# Poissons Ratio (y) = 0.04266 0.28719
# Poissons Ratio (z) = 0.33982 0.70193
#
# Static dielectric constant tensor:
#      x y z
#    x 1.868910 0.000050 -0.043400 
#    y 0.000050 1.702480 0.000050 
#    z -0.043400 0.000050 1.734590 
# 
# From -- ./inp_files/317439.got.cif
#   From: 2010.05.17/outbox.cif.g08.bks.cpg/sg15_159_cif.got.tgz:317439.got - 2010.06.03 18:47:42.
