data_PCOD9265468
_publ_section_title
;
Structure prediction by ZEFSAII (Michael W. Deem and Ramdas Pophale) SiO2 
 PCOD9265468
Probable space group: C 2/C
;
_chemical_formula_sum "Si O2"
_cell_formula_units_Z 48
_cell_length_a 21.218133
_cell_length_b 7.784037
_cell_length_c 17.900949
_cell_angle_alpha 90.000000
_cell_angle_beta 114.476221
_cell_angle_gamma 90.000000
_cell_volume 2690.872489
_symmetry_space_group_name_H-M "C 2/C"
_symmetry_group_IT_number 15
_symmetry_cell_setting 'monoclinic'
loop_
_space_group_symop_operation_xyz
x,y,z
-x,y,1/2-z
-x,-y,-z
x,-y,1/2+z
1/2+x,1/2+y,z
1/2-x,1/2+y,1/2-z
1/2-x,1/2-y,-z
1/2+x,1/2-y,1/2+z
loop_
_atom_site_type_symbol
_atom_site_label
_atom_site_fract_x
_atom_site_fract_y
_atom_site_fract_z
Si Si1 0.322143 0.695777 0.856043
Si Si2 0.167323 0.696154 0.801888
Si Si3 0.575209 0.500002 0.000265
Si Si4 0.575981 0.500001 0.323074
Si Si5 0.332676 0.803841 0.698113
Si Si6 0.177857 0.195780 0.143958
O O1 0.248010 0.750843 0.851606
O O2 0.308931 0.499999 0.820344
O O3 0.343769 0.797980 0.793439
O O4 0.380846 0.662915 0.946389
O O5 0.251989 0.749152 0.648395
O O6 0.156230 0.702019 0.706562
O O7 0.571171 0.500003 0.909939
O O8 0.500000 0.500000 0.000000
O O9 0.382671 0.667982 0.184317
O O10 0.619153 0.662919 0.053612
O O11 0.500000 0.500002 0.250000
O O12 0.617329 0.332024 0.315681
O O13 0.158548 0.499997 0.824007
#
# Coordination Sequence:
#
# PCOD9265468 Si02
#       6
#     8   8   8   8   8   8
#     4   8  17  35  57  88 111 152 191 223 289 339
#     4  10  19  36  61  88 116 148 197 235 284 351
#     4  10  20  38  60  82 119 156 195 236 290 348
#     4  12  24  38  60  84 119 158 191 242 296 338
#     4  10  19  36  61  88 116 148 197 235 284 351
#     4   8  17  35  57  88 111 152 191 223 289 339
#
# _framework density 17.838080999999999
#
# number of rings (size 3 to 8) (size 9 to 14) (size 15 to 20)
#    1.000    1.333    1.667    2.000    2.333    2.000 
#    0.000    1.667    0.000    4.000    0.000    0.000 
#    0.000    0.000    0.000    0.000    0.000    0.000 
#
# Total GULP energy -133610.008271 kJ/mol
# GULP energy per Si atom -5567.083678 kJ/mol
# Density = 1.779748 g / cm^3
# Si number density = 17.838081 Si / 1000 Ang^3
#
#
#
# Elastic Constant Matrix: (Units=GPa)
#
#
# Indices 1 2 3 4 5 6 
#
# 1 158.6961 64.2398 96.8108 0.0000 -1.7658 0.0000
# 2 64.2398 78.7201 32.4977 0.0000 -11.2389 0.0000
# 3 96.8108 32.4977 139.4291 0.0000 10.8081 0.0000
# 4 0.0000 0.0000 0.0000 21.8528 0.0000 -3.6729
# 5 -1.7658 -11.2389 10.8081 0.0000 27.1183 0.0000
# 6 0.0000 0.0000 0.0000 -3.6729 0.0000 32.6895
#
#
#
# Elastic Compliance Matrix: (Units=1/GPa)
#
#
# Indices 1 2 3 4 5 6 
#
# 1 0.014925 -0.008595 -0.008419 0.000000 0.000765 0.000000
# 2 -0.008595 0.020588 0.000568 0.000000 0.007746 0.000000
# 3 -0.008419 0.000568 0.013321 0.000000 -0.005622 0.000000
# 4 0.000000 0.000000 0.000000 0.046641 0.000000 0.005241
# 5 0.000765 0.007746 -0.005622 0.000000 0.042376 0.000000
# 6 0.000000 0.000000 0.000000 0.005241 0.000000 0.031180
#
#
# Mechanical properties :
#
#
# Convention : Reuss Voigt Hill
#
# Bulk Modulus (GPa) = 62.72052 84.88244 73.80148
# Shear Modulus (GPa) = 24.12704 28.55194 26.33949
#
# Velocity S-wave (km/s) = 3.68170 4.00511 3.84681
# Velocity P-wave (km/s) = 7.30141 8.31121 7.82262
#
# Compressibility (1/GPa) = 0.01594375
#
# Stress axis : x y z
#
# Youngs Moduli (GPa) = 67.00209 48.57144 75.06937
#
# Poissons Ratio (x) = 0.41746 0.63201
# Poissons Ratio (y) = 0.57586 -0.04268
# Poissons Ratio (z) = 0.56409 -0.02761
#
# Static dielectric constant tensor:
#      x y z
#    x 1.613180 0.000000 0.017490 
#    y 0.000000 1.648570 0.000000 
#    z 0.017490 0.000000 1.600360 
# 
# From -- ./inp_files/209808.got.cif
#   From: 2010.05.17/outbox.cif.g08.bks.cpg/sg15_105_cif.got.tgz:209808.got - 2010.06.03 18:47:42.
