data_PCOD9265105
_publ_section_title
;
Structure prediction by ZEFSAII (Michael W. Deem and Ramdas Pophale) SiO2 
 PCOD9265105
Probable space group: C 2/C
;
_chemical_formula_sum "Si O2"
_cell_formula_units_Z 48
_cell_length_a 9.563135
_cell_length_b 27.215269
_cell_length_c 12.032924
_cell_angle_alpha 90.000000
_cell_angle_beta 129.393532
_cell_angle_gamma 90.000000
_cell_volume 2420.216066
_symmetry_space_group_name_H-M "C 2/C"
_symmetry_group_IT_number 15
_symmetry_cell_setting 'monoclinic'
loop_
_space_group_symop_operation_xyz
x,y,z
-x,y,1/2-z
-x,-y,-z
x,-y,1/2+z
1/2+x,1/2+y,z
1/2-x,1/2+y,1/2-z
1/2-x,1/2-y,-z
1/2+x,1/2-y,1/2+z
loop_
_atom_site_type_symbol
_atom_site_label
_atom_site_fract_x
_atom_site_fract_y
_atom_site_fract_z
Si Si1 0.678682 0.727955 0.578921
Si Si2 0.632389 0.690817 0.205946
Si Si3 0.875172 0.531283 0.083039
Si Si4 0.301112 0.881165 0.110556
Si Si5 0.404681 0.585314 0.409631
Si Si6 0.702924 0.937824 0.604169
O O1 0.750000 0.750000 0.500000
O O2 0.474194 0.715875 0.449249
O O3 0.715078 0.770559 0.684390
O O4 0.776952 0.675046 0.639882
O O5 0.500000 0.686454 0.250000
O O6 0.669618 0.637407 0.175149
O O7 0.714210 0.563532 0.051982
O O8 0.000000 0.515428 0.250000
O O9 0.012254 0.561067 0.073167
O O10 0.804152 0.484128 0.981905
O O11 0.500000 0.898026 0.250000
O O12 0.289452 0.889743 0.971012
O O13 0.114230 0.908785 0.049638
O O14 0.360315 0.554725 0.275093
#
# Coordination Sequence:
#
# PCOD9265105 Si02
#       6
#     8   8   8   8   8   8
#     4   9  16  27  46  76 107 138 179 230 274 313
#     4   9  16  28  48  78 110 141 182 227 273 323
#     4   9  20  37  57  81 109 141 183 232 283 337
#     4  11  21  33  52  83 115 146 186 232 275 323
#     4  10  20  35  56  83 110 144 185 226 278 336
#     4  10  19  36  58  79 107 142 182 230 280 333
#
# _framework density 19.832941000000002
#
# number of rings (size 3 to 8) (size 9 to 14) (size 15 to 20)
#    0.000    2.333    0.000    5.500    0.000    0.667 
#    0.000    4.167    0.000    0.000    0.000  130.667 
#    0.000    0.000    0.000    0.000    0.000    0.000 
#
# Total GULP energy -133622.228303 kJ/mol
# GULP energy per Si atom -5567.592846 kJ/mol
# Density = 1.978780 g / cm^3
# Si number density = 19.832941 Si / 1000 Ang^3
#
#
#
# Elastic Constant Matrix: (Units=GPa)
#
#
# Indices 1 2 3 4 5 6 
#
# 1 99.5423 49.2020 44.5084 0.0000 6.2136 0.0000
# 2 49.2020 71.9377 37.7034 0.0000 4.8075 0.0000
# 3 44.5084 37.7034 87.5629 0.0000 21.0897 0.0000
# 4 0.0000 0.0000 0.0000 18.1419 0.0000 16.9189
# 5 6.2136 4.8075 21.0897 0.0000 29.2379 0.0000
# 6 0.0000 0.0000 0.0000 16.9189 0.0000 6.5334
#
#
#
# Elastic Compliance Matrix: (Units=1/GPa)
#
#
# Indices 1 2 3 4 5 6 
#
# 1 0.016524 -0.008793 -0.004981 0.000000 0.001527 0.000000
# 2 -0.008793 0.022879 -0.005961 0.000000 0.002407 0.000000
# 3 -0.004981 -0.005961 0.019398 0.000000 -0.011953 0.000000
# 4 0.000000 0.000000 0.000000 -0.038954 0.000000 0.100875
# 5 0.001527 0.002407 -0.011953 0.000000 0.042104 0.000000
# 6 0.000000 0.000000 0.000000 0.100875 0.000000 -0.108167
#
#
# Mechanical properties :
#
#
# Convention : Reuss Voigt Hill
#
# Bulk Modulus (GPa) = 51.73284 57.98562 54.85923
# Shear Modulus (GPa) = -16530.45725 19.29124 -8255.58301
#
# Velocity S-wave (km/s) = -91.39444 3.12218 -64.58791
# Velocity P-wave (km/s) = 105.40928 6.50368 74.39361
#
# Compressibility (1/GPa) = 0.01933008
#
# Stress axis : x y z
#
# Youngs Moduli (GPa) = 60.51785 43.70896 51.55194
#
# Poissons Ratio (x) = 0.38434 0.25677
# Poissons Ratio (y) = 0.53215 0.30732
# Poissons Ratio (z) = 0.30142 0.26056
#
# Static dielectric constant tensor:
#      x y z
#    x 1.708540 0.000000 0.025440 
#    y 0.000000 1.682730 0.000000 
#    z 0.025440 0.000000 1.755040 
# 
# From -- ./inp_files/80924.got.cif
#   From: 2010.05.17/outbox.cif.g08.bks.cpg/sg15_41_cif.got.tgz:80924.got - 2010.06.03 18:47:42.
