data_PCOD9265091
_publ_section_title
;
Structure prediction by ZEFSAII (Michael W. Deem and Ramdas Pophale) SiO2 
 PCOD9265091
Probable space group: C 2/C
;
_chemical_formula_sum "Si O2"
_cell_formula_units_Z 60
_cell_length_a 11.743415
_cell_length_b 32.010402
_cell_length_c 10.590494
_cell_angle_alpha 90.000000
_cell_angle_beta 51.312534
_cell_angle_gamma 90.000000
_cell_volume 3107.506421
_symmetry_space_group_name_H-M "C 2/C"
_symmetry_group_IT_number 15
_symmetry_cell_setting 'monoclinic'
loop_
_space_group_symop_operation_xyz
x,y,z
-x,y,1/2-z
-x,-y,-z
x,-y,1/2+z
1/2+x,1/2+y,z
1/2-x,1/2+y,1/2-z
1/2-x,1/2-y,-z
1/2+x,1/2-y,1/2+z
loop_
_atom_site_type_symbol
_atom_site_label
_atom_site_fract_x
_atom_site_fract_y
_atom_site_fract_z
Si Si1 0.963011 0.801613 0.622892
Si Si2 0.645211 0.978202 0.066035
Si Si3 0.929756 0.397974 0.521852
Si Si4 0.846466 0.111454 0.119381
Si Si5 0.039488 0.965894 0.577865
Si Si6 0.263012 0.231355 0.850312
Si Si7 0.000000 0.337375 0.250000
Si Si8 0.355301 0.925496 0.942080
O O1 0.924831 0.844767 0.582379
O O2 0.832472 0.767740 0.717241
O O3 0.000000 0.808088 0.750000
O O4 0.098443 0.783615 0.448932
O O5 0.500000 0.977640 0.250000
O O6 0.675177 0.025947 0.007031
O O7 0.613968 0.946008 0.976022
O O8 0.785788 0.961102 0.042711
O O9 0.802033 0.382386 0.699189
O O10 0.933038 0.368302 0.399681
O O11 0.087252 0.400154 0.477867
O O12 0.783443 0.094830 0.030008
O O13 0.949116 0.075637 0.107516
O O14 0.000000 0.978092 0.750000
O O15 0.000000 0.000000 0.500000
O O16 0.377108 0.193091 0.777261
O O17 0.250000 0.250000 0.000000
O O18 0.500000 0.925707 0.750000
#
# Coordination Sequence:
#
# PCOD9265091 Si02
#       8
#     8   8   8   8   8   8   4   8
#     4  10  20  34  61  89 120 153 204 254 319 377
#     4  11  22  40  61  87 126 170 220 267 316 375
#     4  11  22  36  61  92 123 162 214 267 308 378
#     4  11  22  39  62  89 125 171 213 253 318 385
#     4  12  25  42  62  95 132 174 220 269 327 382
#     4  10  19  36  57  92 121 155 190 258 328 382
#     4  12  22  36  60  98 126 148 208 268 330 370
#     4   9  21  39  58  84 119 170 211 253 309 372
#
# _framework density 19.308085999999999
#
# number of rings (size 3 to 8) (size 9 to 14) (size 15 to 20)
#    0.000    1.333    5.333    2.400    1.867    1.067 
#    0.000    0.000    0.000    0.800    3.467    0.000 
#    0.000    0.000    0.000    0.000    0.000    0.000 
#
# Total GULP energy -167344.201172 kJ/mol
# GULP energy per Si atom -5578.140039 kJ/mol
# Density = 1.926414 g / cm^3
# Si number density = 19.308086 Si / 1000 Ang^3
#
#
#
# Elastic Constant Matrix: (Units=GPa)
#
#
# Indices 1 2 3 4 5 6 
#
# 1 96.8973 35.0811 26.5262 0.0000 -13.4246 0.0000
# 2 35.0811 119.7841 31.9993 0.0000 -1.9698 0.0000
# 3 26.5262 31.9993 41.4780 0.0000 -21.5397 0.0000
# 4 0.0000 0.0000 0.0000 -8.9288 0.0000 14.0662
# 5 -13.4246 -1.9698 -21.5397 0.0000 26.1215 0.0000
# 6 0.0000 0.0000 0.0000 14.0662 0.0000 0.3076
#
#
#
# Elastic Compliance Matrix: (Units=1/GPa)
#
#
# Indices 1 2 3 4 5 6 
#
# 1 0.012920 -0.002284 -0.005494 0.000000 0.001937 0.000000
# 2 -0.002284 0.012790 -0.014893 0.000000 -0.012490 0.000000
# 3 -0.005494 -0.014893 0.064820 0.000000 0.049503 0.000000
# 4 0.000000 0.000000 0.000000 -0.001534 0.000000 0.070119
# 5 0.001937 -0.012490 0.049503 0.000000 0.079157 0.000000
# 6 0.000000 0.000000 0.000000 0.070119 0.000000 0.044509
#
#
# Mechanical properties :
#
#
# Convention : Reuss Voigt Hill
#
# Bulk Modulus (GPa) = 22.13026 49.48585 35.80806
# Shear Modulus (GPa) = 18.31050 14.47024 16.39037
#
# Velocity S-wave (km/s) = 3.08284 2.74056 2.91673
# Velocity P-wave (km/s) = 4.91512 5.97490 5.47074
#
# Compressibility (1/GPa) = 0.04518699
#
# Stress axis : x y z
#
# Youngs Moduli (GPa) = 77.40158 78.18358 15.42738
#
# Poissons Ratio (x) = 0.17858 0.08477
# Poissons Ratio (y) = 0.17679 0.22976
# Poissons Ratio (z) = 0.42528 1.16438
#
# Static dielectric constant tensor:
#      x y z
#    x 1.711860 0.000000 -0.000250 
#    y 0.000000 1.671000 0.000000 
#    z -0.000250 0.000000 1.688550 
# 
# From -- ./inp_files/92600.got.cif
#   From: 2010.05.17/outbox.cif.g08.bks.cpg/sg15_47_cif.got.tgz:92600.got - 2010.06.03 18:47:42.
