data_PCOD9265361
_publ_section_title
;
Structure prediction by ZEFSAII (Michael W. Deem and Ramdas Pophale) SiO2 
 PCOD9265361
Probable space group: C 2/C
;
_chemical_formula_sum "Si O2"
_cell_formula_units_Z 48
_cell_length_a 11.442894
_cell_length_b 22.382852
_cell_length_c 11.621567
_cell_angle_alpha 90.000000
_cell_angle_beta 129.420412
_cell_angle_gamma 90.000000
_cell_volume 2299.421751
_symmetry_space_group_name_H-M "C 2/C"
_symmetry_group_IT_number 15
_symmetry_cell_setting 'monoclinic'
loop_
_space_group_symop_operation_xyz
x,y,z
-x,y,1/2-z
-x,-y,-z
x,-y,1/2+z
1/2+x,1/2+y,z
1/2-x,1/2+y,1/2-z
1/2-x,1/2-y,-z
1/2+x,1/2-y,1/2+z
loop_
_atom_site_type_symbol
_atom_site_label
_atom_site_fract_x
_atom_site_fract_y
_atom_site_fract_z
Si Si1 0.302864 0.077398 0.553306
Si Si2 0.000000 0.892546 0.750000
Si Si3 0.509145 0.890756 0.536263
Si Si4 0.837242 0.689481 0.079163
Si Si5 0.203120 0.818075 0.720120
Si Si6 0.820625 0.289745 0.147941
Si Si7 0.500000 0.978185 0.750000
O O1 0.146844 0.071321 0.384344
O O2 0.452472 0.081537 0.563009
O O3 0.283456 0.140159 0.609390
O O4 0.348309 0.018458 0.650225
O O5 0.941395 0.848372 0.813461
O O6 0.369011 0.849414 0.485960
O O7 0.650993 0.845849 0.627948
O O8 0.511634 0.937680 0.642572
O O9 0.725862 0.661454 0.104061
O O10 0.000000 0.696967 0.250000
O O11 0.750000 0.750000 0.000000
O O12 0.212645 0.747908 0.756664
O O13 0.000000 0.287560 0.250000
O O14 0.750000 0.250000 0.000000
#
# Coordination Sequence:
#
# PCOD9265361 Si02
#       7
#     8   4   8   8   8   8   4
#     4  11  24  38  62  95 118 159 214 252 307 364
#     4  10  20  37  58  84 119 152 192 260 314 340
#     4  10  21  41  62  87 123 169 200 248 304 368
#     4  10  22  36  60  87 120 162 202 245 307 366
#     4  10  19  36  60  86 124 155 198 245 321 361
#     4  12  21  34  58  94 124 151 194 262 310 355
#     4  12  22  43  64  88 123 168 214 244 288 384
#
# _framework density 20.874813
#
# number of rings (size 3 to 8) (size 9 to 14) (size 15 to 20)
#    0.000    1.333    7.500    0.500    2.333    2.667 
#    0.000    3.333    1.833    0.000    0.000    0.000 
#    0.000    0.000    0.000    0.000    0.000    0.000 
#
# Total GULP energy -133611.602457 kJ/mol
# GULP energy per Si atom -5567.150102 kJ/mol
# Density = 2.082730 g / cm^3
# Si number density = 20.874813 Si / 1000 Ang^3
#
#
#
# Elastic Constant Matrix: (Units=GPa)
#
#
# Indices 1 2 3 4 5 6 
#
# 1 106.0123 16.8983 11.5255 0.0000 1.6245 0.0000
# 2 16.8983 109.3145 29.4823 0.0000 13.2705 0.0000
# 3 11.5255 29.4823 59.8381 0.0000 21.9918 0.0000
# 4 0.0000 0.0000 0.0000 41.6433 0.0000 -2.0970
# 5 1.6245 13.2705 21.9918 0.0000 23.9848 0.0000
# 6 0.0000 0.0000 0.0000 -2.0970 0.0000 24.5816
#
#
#
# Elastic Compliance Matrix: (Units=1/GPa)
#
#
# Indices 1 2 3 4 5 6 
#
# 1 0.009810 -0.001207 -0.001955 0.000000 0.001796 0.000000
# 2 -0.001207 0.010740 -0.004382 0.000000 -0.001843 0.000000
# 3 -0.001955 -0.004382 0.027612 0.000000 -0.022761 0.000000
# 4 0.000000 0.000000 0.000000 0.024117 0.000000 0.002057
# 5 0.001796 -0.001843 -0.022761 0.000000 0.063461 0.000000
# 6 0.000000 0.000000 0.000000 0.002057 0.000000 0.040856
#
#
# Mechanical properties :
#
#
# Convention : Reuss Voigt Hill
#
# Bulk Modulus (GPa) = 30.23433 43.44191 36.83812
# Shear Modulus (GPa) = 24.66581 32.52585 28.59583
#
# Velocity S-wave (km/s) = 3.44118 3.95161 3.70519
# Velocity P-wave (km/s) = 5.50491 6.45571 5.99917
#
# Compressibility (1/GPa) = 0.03307498
#
# Stress axis : x y z
#
# Youngs Moduli (GPa) = 101.93348 93.10946 36.21566
#
# Poissons Ratio (x) = 0.11241 0.07079
# Poissons Ratio (y) = 0.12307 0.15869
# Poissons Ratio (z) = 0.19925 0.40799
#
# Static dielectric constant tensor:
#      x y z
#    x 1.863700 0.000000 -0.137200 
#    y 0.000000 1.838390 0.000000 
#    z -0.137200 0.000000 1.895970 
# 
# From -- ./inp_files/89811.got.cif
#   From: 2010.05.17/outbox.cif.g08.bks.cpg/sg15_45_cif.got.tgz:89811.got - 2010.06.03 18:47:42.
