data_PCOD9265696
_publ_section_title
;
Structure prediction by ZEFSAII (Michael W. Deem and Ramdas Pophale) SiO2 
 PCOD9265696
Probable space group: C 2/C
;
_chemical_formula_sum "Si O2"
_cell_formula_units_Z 56
_cell_length_a 24.838407
_cell_length_b 7.652731
_cell_length_c 14.352987
_cell_angle_alpha 90.000000
_cell_angle_beta 131.525396
_cell_angle_gamma 90.000000
_cell_volume 2042.529024
_symmetry_space_group_name_H-M "C 2/C"
_symmetry_group_IT_number 15
_symmetry_cell_setting 'monoclinic'
loop_
_space_group_symop_operation_xyz
x,y,z
-x,y,1/2-z
-x,-y,-z
x,-y,1/2+z
1/2+x,1/2+y,z
1/2-x,1/2+y,1/2-z
1/2-x,1/2-y,-z
1/2+x,1/2-y,1/2+z
loop_
_atom_site_type_symbol
_atom_site_label
_atom_site_fract_x
_atom_site_fract_y
_atom_site_fract_z
Si Si1 0.106645 0.345731 0.626842
Si Si2 0.800648 0.309602 0.449273
Si Si3 0.742380 0.730111 0.298895
Si Si4 0.936084 0.921134 0.105599
Si Si5 0.489447 0.789902 0.140549
Si Si6 0.595999 0.446053 0.645810
Si Si7 0.192991 0.511001 0.373080
O O1 0.180024 0.315787 0.651735
O O2 0.120692 0.475933 0.728996
O O3 0.047305 0.398758 0.483204
O O4 0.086028 0.153963 0.642297
O O5 0.796791 0.326251 0.334235
O O6 0.865874 0.184140 0.554350
O O7 0.810353 0.485071 0.520038
O O8 0.730184 0.196857 0.392751
O O9 0.681814 0.584729 0.249805
O O10 0.741475 0.862600 0.383565
O O11 0.000000 0.870872 0.250000
O O12 0.934456 0.893729 0.991213
O O13 0.934057 0.132372 0.106458
O O14 0.500000 0.887605 0.250000
O O15 0.554477 0.672034 0.173067
#
# Coordination Sequence:
#
# PCOD9265696 Si02
#       7
#     8   8   8   8   8   8   8
#     4  10  19  36  64  84 114 157 208 244 296 348
#     4   9  20  35  58  89 113 153 204 246 276 357
#     4  10  20  40  57  86 126 157 186 249 306 356
#     4   9  17  30  59  82 110 142 199 242 288 332
#     4  10  21  35  55  88 120 152 194 255 297 343
#     4  10  21  37  58  89 122 149 194 256 302 344
#     4  10  20  35  62  84 116 154 200 239 293 352
#
# _framework density 27.416992
#
# number of rings (size 3 to 8) (size 9 to 14) (size 15 to 20)
#    0.000    2.286    0.000    5.143    6.000    0.000 
#    5.143    1.429    0.000    0.000    0.000    0.000 
#    0.000    0.000    0.000    0.000    0.000    0.000 
#
# Total GULP energy -156688.795057 kJ/mol
# GULP energy per Si atom -5596.028395 kJ/mol
# Density = 2.735459 g / cm^3
# Si number density = 27.416992 Si / 1000 Ang^3
#
#
#
# Elastic Constant Matrix: (Units=GPa)
#
#
# Indices 1 2 3 4 5 6 
#
# 1 61.3517 15.3292 35.6610 0.0000 5.6592 0.0000
# 2 15.3292 73.3575 6.3192 0.0000 -2.7327 0.0000
# 3 35.6610 6.3192 129.6302 0.0000 -2.9999 0.0000
# 4 0.0000 0.0000 0.0000 31.9740 0.0000 -3.2295
# 5 5.6592 -2.7327 -2.9999 0.0000 53.4394 0.0000
# 6 0.0000 0.0000 0.0000 -3.2295 0.0000 31.9868
#
#
#
# Elastic Compliance Matrix: (Units=1/GPa)
#
#
# Indices 1 2 3 4 5 6 
#
# 1 0.020789 -0.003964 -0.005589 0.000000 -0.002718 0.000000
# 2 -0.003964 0.014469 0.000413 0.000000 0.001183 0.000000
# 3 -0.005589 0.000413 0.009258 0.000000 0.001133 0.000000
# 4 0.000000 0.000000 0.000000 0.031598 0.000000 0.003190
# 5 -0.002718 0.001183 0.001133 0.000000 0.019125 0.000000
# 6 0.000000 0.000000 0.000000 0.003190 0.000000 0.031585
#
#
# Mechanical properties :
#
#
# Convention : Reuss Voigt Hill
#
# Bulk Modulus (GPa) = 38.11664 42.10648 40.11156
# Shear Modulus (GPa) = 32.49953 37.28204 34.89078
#
# Velocity S-wave (km/s) = 3.44667 3.69157 3.57122
# Velocity P-wave (km/s) = 5.45638 5.79322 5.62732
#
# Compressibility (1/GPa) = 0.02623526
#
# Stress axis : x y z
#
# Youngs Moduli (GPa) = 48.10221 69.11451 108.01715
#
# Poissons Ratio (x) = 0.27397 0.60367
# Poissons Ratio (y) = 0.19068 -0.04456
# Poissons Ratio (z) = 0.26883 -0.02851
#
# Static dielectric constant tensor:
#      x y z
#    x 2.144900 0.000000 -0.011120 
#    y 0.000000 2.146430 0.000000 
#    z -0.011120 0.000000 2.280360 
# 
# From -- ./inp_files/180859.got.cif
#   From: 2010.05.17/outbox.cif.g08.bks.cpg/sg15_91_cif.got.tgz:180859.got - 2010.06.03 18:47:42.
