data_PCOD9265834
_publ_section_title
;
Structure prediction by ZEFSAII (Michael W. Deem and Ramdas Pophale) SiO2 
 PCOD9265834
Probable space group: C 2/C
;
_chemical_formula_sum "Si O2"
_cell_formula_units_Z 60
_cell_length_a 12.340694
_cell_length_b 14.112372
_cell_length_c 18.383812
_cell_angle_alpha 90.000000
_cell_angle_beta 129.594773
_cell_angle_gamma 90.000000
_cell_volume 2467.107369
_symmetry_space_group_name_H-M "C 2/C"
_symmetry_group_IT_number 15
_symmetry_cell_setting 'monoclinic'
loop_
_space_group_symop_operation_xyz
x,y,z
-x,y,1/2-z
-x,-y,-z
x,-y,1/2+z
1/2+x,1/2+y,z
1/2-x,1/2+y,1/2-z
1/2-x,1/2-y,-z
1/2+x,1/2-y,1/2+z
loop_
_atom_site_type_symbol
_atom_site_label
_atom_site_fract_x
_atom_site_fract_y
_atom_site_fract_z
Si Si1 0.712745 0.120270 0.601561
Si Si2 0.440192 0.926916 0.610328
Si Si3 0.970061 0.829418 0.843368
Si Si4 0.565355 0.857608 0.431611
Si Si5 0.000000 0.149884 0.750000
Si Si6 0.721788 0.900919 0.643447
Si Si7 0.199059 0.091270 0.105883
Si Si8 0.492561 0.468308 0.391848
O O1 0.594787 0.135372 0.610296
O O2 0.846417 0.188172 0.665748
O O3 0.643167 0.121948 0.492420
O O4 0.752210 0.009213 0.632435
O O5 0.409809 0.040106 0.593031
O O6 0.602406 0.906439 0.656945
O O7 0.358520 0.899642 0.648745
O O8 0.065745 0.736941 0.883894
O O9 0.861388 0.849880 0.731851
O O10 0.868203 0.829894 0.871121
O O11 0.051323 0.927996 0.893794
O O12 0.653668 0.851457 0.544011
O O13 0.029411 0.092191 0.688639
O O14 0.154590 0.995504 0.131667
O O15 0.098679 0.081663 0.992198
#
# Coordination Sequence:
#
# PCOD9265834 Si02
#       8
#     8   8   8   8   4   8   8   8
#     4   9  17  32  56  84 105 144 199 235 270 353
#     4   9  17  34  60  79 110 151 198 233 290 350
#     4  10  19  37  53  82 123 151 182 245 303 337
#     4   9  20  36  55  85 117 144 195 248 289 340
#     4  12  16  32  62  84 100 150 204 228 256 362
#     4   9  18  35  56  81 108 162 193 234 282 360
#     4   9  18  36  55  83 115 147 187 241 290 346
#     4   9  20  32  59  82 115 148 191 232 289 344
#
# _framework density 24.319980999999999
#
# number of rings (size 3 to 8) (size 9 to 14) (size 15 to 20)
#    0.800    1.867    2.667    1.600    0.000    0.533 
#    2.400    6.000    0.000    4.800    0.000    0.000 
#    0.000    0.000    0.000    0.000    0.000    0.000 
#
# Total GULP energy -167316.550814 kJ/mol
# GULP energy per Si atom -5577.218360 kJ/mol
# Density = 2.426463 g / cm^3
# Si number density = 24.319981 Si / 1000 Ang^3
#
#
#
# Elastic Constant Matrix: (Units=GPa)
#
#
# Indices 1 2 3 4 5 6 
#
# 1 131.9312 3.2437 2.5311 0.0000 8.9281 0.0000
# 2 3.2437 80.6418 32.6880 0.0000 0.2647 0.0000
# 3 2.5311 32.6880 103.6231 0.0000 12.5642 0.0000
# 4 0.0000 0.0000 0.0000 3.7974 0.0000 3.2991
# 5 8.9281 0.2647 12.5642 0.0000 36.6924 0.0000
# 6 0.0000 0.0000 0.0000 3.2991 0.0000 13.4361
#
#
#
# Elastic Compliance Matrix: (Units=1/GPa)
#
#
# Indices 1 2 3 4 5 6 
#
# 1 0.007716 -0.000370 0.000162 0.000000 -0.001930 0.000000
# 2 -0.000370 0.014315 -0.004700 0.000000 0.001596 0.000000
# 3 0.000162 -0.004700 0.011612 0.000000 -0.003982 0.000000
# 4 0.000000 0.000000 0.000000 0.334743 0.000000 -0.082192
# 5 -0.001930 0.001596 -0.003982 0.000000 0.029075 0.000000
# 6 0.000000 0.000000 0.000000 -0.082192 0.000000 0.094608
#
#
# Mechanical properties :
#
#
# Convention : Reuss Voigt Hill
#
# Bulk Modulus (GPa) = 41.96764 43.68018 42.82391
# Shear Modulus (GPa) = 9.80724 29.30074 19.55399
#
# Velocity S-wave (km/s) = 2.01031 3.47479 2.83862
# Velocity P-wave (km/s) = 4.76260 5.83939 5.32827
#
# Compressibility (1/GPa) = 0.02382788
#
# Stress axis : x y z
#
# Youngs Moduli (GPa) = 129.59532 69.85480 86.11862
#
# Poissons Ratio (x) = 0.02583 -0.01397
# Poissons Ratio (y) = 0.04793 0.40478
# Poissons Ratio (z) = -0.02103 0.32834
#
# Static dielectric constant tensor:
#      x y z
#    x 2.025120 0.000000 0.009330 
#    y 0.000000 1.972250 0.000000 
#    z 0.009330 0.000000 1.953030 
# 
# From -- ./inp_files/244383.got.cif
#   From: 2010.05.17/outbox.cif.g08.bks.cpg/sg15_123_cif.got.tgz:244383.got - 2010.06.03 18:47:42.
