data_PCOD9265166
_publ_section_title
;
Structure prediction by ZEFSAII (Michael W. Deem and Ramdas Pophale) SiO2 
 PCOD9265166
Probable space group: C 2/C
;
_chemical_formula_sum "Si O2"
_cell_formula_units_Z 52
_cell_length_a 17.553929
_cell_length_b 11.630657
_cell_length_c 13.874146
_cell_angle_alpha 90.000000
_cell_angle_beta 110.343895
_cell_angle_gamma 90.000000
_cell_volume 2655.908059
_symmetry_space_group_name_H-M "C 2/C"
_symmetry_group_IT_number 15
_symmetry_cell_setting 'monoclinic'
loop_
_space_group_symop_operation_xyz
x,y,z
-x,y,1/2-z
-x,-y,-z
x,-y,1/2+z
1/2+x,1/2+y,z
1/2-x,1/2+y,1/2-z
1/2-x,1/2-y,-z
1/2+x,1/2-y,1/2+z
loop_
_atom_site_type_symbol
_atom_site_label
_atom_site_fract_x
_atom_site_fract_y
_atom_site_fract_z
Si Si1 0.200448 0.222931 0.075678
Si Si2 0.687124 0.593918 0.403938
Si Si3 0.000000 0.790437 0.250000
Si Si4 0.242200 0.664904 0.867341
Si Si5 0.348497 0.807226 0.788037
Si Si6 0.311928 0.041642 0.840595
Si Si7 0.438841 0.449654 0.051434
O O1 0.266496 0.188938 0.186433
O O2 0.160401 0.344179 0.091481
O O3 0.250000 0.250000 0.000000
O O4 0.134372 0.123999 0.029266
O O5 0.743715 0.609080 0.523183
O O6 0.690302 0.718360 0.356407
O O7 0.727299 0.498511 0.352897
O O8 0.601812 0.552195 0.405468
O O9 0.922086 0.718431 0.249488
O O10 0.979134 0.867161 0.148080
O O11 0.326900 0.707560 0.855996
O O12 0.202135 0.580076 0.774791
O O13 0.361525 0.923701 0.854528
O O14 0.500000 0.500000 0.000000
#
# Coordination Sequence:
#
# PCOD9265166 Si02
#       7
#     8   8   4   8   8   8   8
#     4  11  20  41  65  89 122 167 213 250 316 395
#     4  10  19  36  58  86 123 160 194 258 317 357
#     4  12  24  40  58  90 130 166 206 270 322 372
#     4   9  19  34  58  89 117 152 212 252 296 382
#     4  10  21  38  62  88 125 162 215 258 312 377
#     4  10  20  34  62  90 111 165 211 250 298 379
#     4  12  25  39  64  95 128 162 206 266 327 375
#
# _framework density 19.578990999999998
#
# number of rings (size 3 to 8) (size 9 to 14) (size 15 to 20)
#    0.000    1.538    3.077    2.769    0.000    4.923 
#    0.000    2.308    0.000    0.000    0.000    0.000 
#    0.000    0.000    0.000    0.000    0.000    0.000 
#
# Total GULP energy -145117.321318 kJ/mol
# GULP energy per Si atom -5581.435435 kJ/mol
# Density = 1.953443 g / cm^3
# Si number density = 19.578991 Si / 1000 Ang^3
#
#
#
# Elastic Constant Matrix: (Units=GPa)
#
#
# Indices 1 2 3 4 5 6 
#
# 1 119.6150 26.8687 21.2352 0.0000 -17.0462 0.0000
# 2 26.8687 54.2175 8.2012 0.0000 -2.4774 0.0000
# 3 21.2352 8.2012 71.5382 0.0000 -10.6218 0.0000
# 4 0.0000 0.0000 0.0000 36.8638 0.0000 -13.8801
# 5 -17.0462 -2.4774 -10.6218 0.0000 29.0918 0.0000
# 6 0.0000 0.0000 0.0000 -13.8801 0.0000 29.2357
#
#
#
# Elastic Compliance Matrix: (Units=1/GPa)
#
#
# Indices 1 2 3 4 5 6 
#
# 1 0.010454 -0.004675 -0.001815 0.000000 0.005065 0.000000
# 2 -0.004675 0.020881 -0.001215 0.000000 -0.001405 0.000000
# 3 -0.001815 -0.001215 0.015314 0.000000 0.004424 0.000000
# 4 0.000000 0.000000 0.000000 0.033032 0.000000 0.015682
# 5 0.005065 -0.001405 0.004424 0.000000 0.038837 0.000000
# 6 0.000000 0.000000 0.000000 0.015682 0.000000 0.041650
#
#
# Mechanical properties :
#
#
# Convention : Reuss Voigt Hill
#
# Bulk Modulus (GPa) = 32.01150 39.77565 35.89358
# Shear Modulus (GPa) = 26.88320 31.64263 29.26291
#
# Velocity S-wave (km/s) = 3.70951 4.02450 3.87021
# Velocity P-wave (km/s) = 5.89344 6.47727 6.19224
#
# Compressibility (1/GPa) = 0.03123877
#
# Stress axis : x y z
#
# Youngs Moduli (GPa) = 95.65449 47.89156 65.30185
#
# Poissons Ratio (x) = 0.22389 0.11854
# Poissons Ratio (y) = 0.44717 0.07932
# Poissons Ratio (z) = 0.17364 0.05817
#
# Static dielectric constant tensor:
#      x y z
#    x 1.681220 0.000000 -0.002320 
#    y 0.000000 1.722530 0.000000 
#    z -0.002320 0.000000 1.695600 
# 
# From -- ./inp_files/152685.got.cif
#   From: 2010.05.17/outbox.cif.g08.bks.cpg/sg15_77_cif.got.tgz:152685.got - 2010.06.03 18:47:42.
