data_PCOD9265433
_publ_section_title
;
Structure prediction by ZEFSAII (Michael W. Deem and Ramdas Pophale) SiO2 
 PCOD9265433
Probable space group: C 2/C
;
_chemical_formula_sum "Si O2"
_cell_formula_units_Z 48
_cell_length_a 20.302253
_cell_length_b 30.610044
_cell_length_c 12.356025
_cell_angle_alpha 90.000000
_cell_angle_beta 20.379506
_cell_angle_gamma 90.000000
_cell_volume 2674.001180
_symmetry_space_group_name_H-M "C 2/C"
_symmetry_group_IT_number 15
_symmetry_cell_setting 'monoclinic'
loop_
_space_group_symop_operation_xyz
x,y,z
-x,y,1/2-z
-x,-y,-z
x,-y,1/2+z
1/2+x,1/2+y,z
1/2-x,1/2+y,1/2-z
1/2-x,1/2-y,-z
1/2+x,1/2-y,1/2+z
loop_
_atom_site_type_symbol
_atom_site_label
_atom_site_fract_x
_atom_site_fract_y
_atom_site_fract_z
Si Si1 0.466545 0.304717 0.681310
Si Si2 0.489130 0.628676 0.581681
Si Si3 0.981182 0.539870 0.947004
Si Si4 0.840370 0.962863 0.737189
Si Si5 0.689520 0.868583 0.727428
Si Si6 0.022509 0.706150 0.838991
O O1 0.500000 0.323300 0.750000
O O2 0.519299 0.335542 0.500049
O O3 0.554543 0.255819 0.538953
O O4 0.244118 0.296094 0.017363
O O5 0.543448 0.582089 0.448013
O O6 0.656355 0.635047 0.412647
O O7 0.299714 0.628396 0.944904
O O8 0.180024 0.540356 0.576678
O O9 0.795986 0.531244 0.157343
O O10 0.936590 0.587950 0.063127
O O11 0.000000 0.500000 0.000000
O O12 0.000000 0.000000 0.500000
O O13 0.570995 0.824955 0.928792
O O14 0.000000 0.689452 0.750000
#
# Coordination Sequence:
#
# PCOD9265433 Si02
#       6
#     8   8   8   8   8   8
#     4  10  21  36  57  86 116 148 189 241 290 336
#     4  10  20  37  58  86 115 149 197 233 283 346
#     4  10  21  37  60  87 112 146 194 237 282 336
#     4  10  21  38  60  83 116 152 186 234 286 344
#     4  10  20  35  63  84 110 155 194 237 278 343
#     4  10  19  36  61  83 111 151 195 235 282 346
#
# _framework density 17.950627000000001
#
# number of rings (size 3 to 8) (size 9 to 14) (size 15 to 20)
#    0.000    2.000    1.667    2.000    2.333    2.667 
#    6.000    0.833    0.000    0.000    0.000    0.000 
#    0.000    0.000    0.000    0.000    0.000    0.000 
#
# Total GULP energy -133723.900235 kJ/mol
# GULP energy per Si atom -5571.829176 kJ/mol
# Density = 1.790977 g / cm^3
# Si number density = 17.950627 Si / 1000 Ang^3
#
#
#
# Elastic Constant Matrix: (Units=GPa)
#
#
# Indices 1 2 3 4 5 6 
#
# 1 73.4106 43.4273 43.1427 -0.0353 23.1569 0.0089
# 2 43.4273 126.0464 82.9838 -0.0005 29.7075 0.0010
# 3 43.1427 82.9838 128.3510 -0.0544 18.6563 0.0188
# 4 -0.0353 -0.0005 -0.0544 63.2550 0.0365 3.5941
# 5 23.1569 29.7075 18.6563 0.0365 25.2108 -0.0131
# 6 0.0089 0.0010 0.0188 3.5941 -0.0131 32.1302
#
#
#
# Elastic Compliance Matrix: (Units=1/GPa)
#
#
# Indices 1 2 3 4 5 6 
#
# 1 0.021670 -0.000848 -0.004469 0.000018 -0.015599 -0.000012
# 2 -0.000848 0.017111 -0.008920 -0.000001 -0.012783 0.000000
# 3 -0.004469 -0.008920 0.014495 0.000008 0.003889 -0.000006
# 4 0.000018 -0.000001 0.000008 0.015910 -0.000046 -0.001780
# 5 -0.015599 -0.012783 0.003889 -0.000046 0.066179 0.000035
# 6 -0.000012 0.000000 -0.000006 -0.001780 0.000035 0.031322
#
#
# Mechanical properties :
#
#
# Convention : Reuss Voigt Hill
#
# Bulk Modulus (GPa) = 40.31622 74.10171 57.20897
# Shear Modulus (GPa) = 24.57866 34.66949 29.62408
#
# Velocity S-wave (km/s) = 3.70433 4.39952 4.06681
# Velocity P-wave (km/s) = 6.38783 8.19623 7.34787
#
# Compressibility (1/GPa) = 0.02480391
#
# Stress axis : x y z
#
# Youngs Moduli (GPa) = 46.14628 58.44186 68.98974
#
# Poissons Ratio (x) = 0.04954 0.30828
# Poissons Ratio (y) = 0.03912 0.61538
# Poissons Ratio (z) = 0.20621 0.52129
#
# Static dielectric constant tensor:
#      x y z
#    x 1.663520 0.000010 -0.004460 
#    y 0.000010 1.624920 0.000020 
#    z -0.004460 0.000020 1.604220 
# 
# From -- ./inp_files/80521.got.cif
#   From: 2010.05.17/outbox.cif.g08.bks.cpg/sg15_41_cif.got.tgz:80521.got - 2010.06.03 18:47:42.
