data_PCOD9265821
_publ_section_title
;
Structure prediction by ZEFSAII (Michael W. Deem and Ramdas Pophale) SiO2 
 PCOD9265821
Probable space group: C 2/C
;
_chemical_formula_sum "Si O2"
_cell_formula_units_Z 56
_cell_length_a 23.872522
_cell_length_b 6.875659
_cell_length_c 13.767463
_cell_angle_alpha 90.000000
_cell_angle_beta 117.170629
_cell_angle_gamma 90.000000
_cell_volume 2010.416376
_symmetry_space_group_name_H-M "C 2/C"
_symmetry_group_IT_number 15
_symmetry_cell_setting 'monoclinic'
loop_
_space_group_symop_operation_xyz
x,y,z
-x,y,1/2-z
-x,-y,-z
x,-y,1/2+z
1/2+x,1/2+y,z
1/2-x,1/2+y,1/2-z
1/2-x,1/2-y,-z
1/2+x,1/2-y,1/2+z
loop_
_atom_site_type_symbol
_atom_site_label
_atom_site_fract_x
_atom_site_fract_y
_atom_site_fract_z
Si Si1 0.163180 0.233178 0.717649
Si Si2 0.176582 0.251419 0.334277
Si Si3 0.197868 0.367329 0.148738
Si Si4 0.931357 0.881784 0.493037
Si Si5 0.989198 0.707992 0.081990
Si Si6 0.301074 0.505442 0.485441
Si Si7 0.091803 0.568644 0.320670
O O1 0.170011 0.417599 0.646431
O O2 0.229190 0.128110 0.762189
O O3 0.101638 0.112608 0.639562
O O4 0.148799 0.320251 0.812181
O O5 0.165253 0.252057 0.211051
O O6 0.237610 0.388440 0.405441
O O7 0.193011 0.048804 0.396969
O O8 0.114438 0.348100 0.331315
O O9 0.198565 0.224602 0.056116
O O10 0.864951 0.903951 0.496551
O O11 0.980064 0.702646 0.503633
O O12 0.971326 0.060910 0.566513
O O13 0.925594 0.622350 0.082644
O O14 0.037454 0.620475 0.199584
#
# Coordination Sequence:
#
# PCOD9265821 Si02
#       7
#     8   8   8   8   8   8   8
#     4  10  19  36  70  97 147 190 246 301 379 455
#     4  10  22  41  70 106 154 189 260 317 381 468
#     4  11  19  41  69 104 144 206 239 309 398 457
#     4  10  20  42  64 105 143 182 238 317 370 452
#     4   9  20  39  75  95 139 184 256 299 373 441
#     4  11  22  42  69 108 150 194 247 316 393 450
#     4   9  18  41  69 105 132 195 251 309 369 450
#
# _framework density 27.854925999999999
#
# number of rings (size 3 to 8) (size 9 to 14) (size 15 to 20)
#    0.000    2.000    4.286    0.000    0.000    0.000 
#   12.857    2.143   28.286    0.000    0.000    6.000 
#    0.000    0.000    0.000    0.000    0.000    0.000 
#
# Total GULP energy -155904.618569 kJ/mol
# GULP energy per Si atom -5568.022092 kJ/mol
# Density = 2.779153 g / cm^3
# Si number density = 27.854926 Si / 1000 Ang^3
#
#
#
# Elastic Constant Matrix: (Units=GPa)
#
#
# Indices 1 2 3 4 5 6 
#
# 1 125.0682 62.7335 25.4053 0.0000 4.9726 0.0000
# 2 62.7335 155.2966 66.8598 0.0000 7.8756 0.0000
# 3 25.4053 66.8598 83.4121 0.0000 -5.0600 0.0000
# 4 0.0000 0.0000 0.0000 52.7969 0.0000 -0.5422
# 5 4.9726 7.8756 -5.0600 0.0000 42.4713 0.0000
# 6 0.0000 0.0000 0.0000 -0.5422 0.0000 11.8095
#
#
#
# Elastic Compliance Matrix: (Units=1/GPa)
#
#
# Indices 1 2 3 4 5 6 
#
# 1 0.010038 -0.004137 0.000236 0.000000 -0.000380 0.000000
# 2 -0.004137 0.011875 -0.008424 0.000000 -0.002721 0.000000
# 3 0.000236 -0.008424 0.018899 0.000000 0.003786 0.000000
# 4 0.000000 0.000000 0.000000 0.018949 0.000000 0.000870
# 5 -0.000380 -0.002721 0.003786 0.000000 0.024545 0.000000
# 6 0.000000 0.000000 0.000000 0.000870 0.000000 0.084717
#
#
# Mechanical properties :
#
#
# Convention : Reuss Voigt Hill
#
# Bulk Modulus (GPa) = 61.87460 74.86378 68.36919
# Shear Modulus (GPa) = 25.11787 35.33409 30.22598
#
# Velocity S-wave (km/s) = 3.00615 3.56547 3.29769
# Velocity P-wave (km/s) = 5.85753 6.62456 6.25282
#
# Compressibility (1/GPa) = 0.01616172
#
# Stress axis : x y z
#
# Youngs Moduli (GPa) = 99.62097 84.20915 52.91405
#
# Poissons Ratio (x) = 0.34839 -0.01248
# Poissons Ratio (y) = 0.41215 0.44573
# Poissons Ratio (z) = -0.02349 0.70935
#
# Static dielectric constant tensor:
#      x y z
#    x 2.384130 0.000000 -0.022470 
#    y 0.000000 2.246550 0.000000 
#    z -0.022470 0.000000 2.231560 
# 
# From -- ./inp_files/171975.got.cif
#   From: 2010.05.17/outbox.cif.g08.bks.cpg/sg15_86_cif.got.tgz:171975.got - 2010.06.03 18:47:42.
