data_PCOD9265835
_publ_section_title
;
Structure prediction by ZEFSAII (Michael W. Deem and Ramdas Pophale) SiO2 
 PCOD9265835
Probable space group: C 2/C
;
_chemical_formula_sum "Si O2"
_cell_formula_units_Z 48
_cell_length_a 8.866430
_cell_length_b 10.801042
_cell_length_c 27.050146
_cell_angle_alpha 90.000000
_cell_angle_beta 62.921642
_cell_angle_gamma 90.000000
_cell_volume 2306.544305
_symmetry_space_group_name_H-M "C 2/C"
_symmetry_group_IT_number 15
_symmetry_cell_setting 'monoclinic'
loop_
_space_group_symop_operation_xyz
x,y,z
-x,y,1/2-z
-x,-y,-z
x,-y,1/2+z
1/2+x,1/2+y,z
1/2-x,1/2+y,1/2-z
1/2-x,1/2-y,-z
1/2+x,1/2-y,1/2+z
loop_
_atom_site_type_symbol
_atom_site_label
_atom_site_fract_x
_atom_site_fract_y
_atom_site_fract_z
Si Si1 0.617254 0.102851 0.778933
Si Si2 0.676296 0.635353 0.253671
Si Si3 0.140125 0.577442 0.433733
Si Si4 0.524604 0.697801 0.132204
Si Si5 0.981020 0.809420 0.984749
Si Si6 0.727199 0.968381 0.518979
O O1 0.500000 0.072434 0.750000
O O2 0.736629 0.220664 0.744539
O O3 0.710642 0.978051 0.780109
O O4 0.506151 0.169207 0.838019
O O5 0.500000 0.637331 0.250000
O O6 0.620352 0.616031 0.319434
O O7 0.294538 0.637160 0.381224
O O8 0.077654 0.686079 0.479843
O O9 0.214506 0.475952 0.460810
O O10 0.967075 0.534572 0.434096
O O11 0.510413 0.702054 0.075595
O O12 0.159745 0.855823 0.978943
O O13 0.836889 0.911973 0.018030
#
# Coordination Sequence:
#
# PCOD9265835 Si02
#       6
#     8   8   8   8   8   8
#     4   9  20  42  60  84 116 153 197 254 296 348
#     4   9  20  42  59  83 117 149 197 255 293 349
#     4  10  19  37  53  84 120 151 186 234 289 346
#     4   9  19  38  57  86 115 154 192 238 299 347
#     4  10  19  37  53  87 119 146 192 236 279 353
#     4   9  19  34  55  78 122 149 180 230 282 336
#
# _framework density 20.810352999999999
#
# number of rings (size 3 to 8) (size 9 to 14) (size 15 to 20)
#    1.000    1.667    0.000    2.500    0.000    0.667 
#   24.000    1.667    0.000    0.000    0.000    0.000 
#    0.000    0.000    0.000    0.000    0.000    0.000 
#
# Total GULP energy -133658.692117 kJ/mol
# GULP energy per Si atom -5569.112172 kJ/mol
# Density = 2.076299 g / cm^3
# Si number density = 20.810353 Si / 1000 Ang^3
#
#
#
# Elastic Constant Matrix: (Units=GPa)
#
#
# Indices 1 2 3 4 5 6 
#
# 1 94.1408 21.0963 9.8123 0.0000 6.7726 0.0000
# 2 21.0963 60.6584 12.7338 0.0000 8.6101 0.0000
# 3 9.8123 12.7338 59.4119 0.0000 1.7095 0.0000
# 4 0.0000 0.0000 0.0000 24.9385 0.0000 2.0777
# 5 6.7726 8.6101 1.7095 0.0000 19.3768 0.0000
# 6 0.0000 0.0000 0.0000 2.0777 0.0000 33.9900
#
#
#
# Elastic Compliance Matrix: (Units=1/GPa)
#
#
# Indices 1 2 3 4 5 6 
#
# 1 0.011696 -0.003487 -0.001114 0.000000 -0.002440 0.000000
# 2 -0.003487 0.019418 -0.003381 0.000000 -0.007111 0.000000
# 3 -0.001114 -0.003381 0.017731 0.000000 0.000328 0.000000
# 4 0.000000 0.000000 0.000000 0.040304 0.000000 -0.002464
# 5 -0.002440 -0.007111 0.000328 0.000000 0.055592 0.000000
# 6 0.000000 0.000000 0.000000 -0.002464 0.000000 0.029571
#
#
# Mechanical properties :
#
#
# Convention : Reuss Voigt Hill
#
# Bulk Modulus (GPa) = 30.41450 33.49955 31.95703
# Shear Modulus (GPa) = 24.84644 27.03229 25.93937
#
# Velocity S-wave (km/s) = 3.45910 3.60805 3.53436
# Velocity P-wave (km/s) = 5.53179 5.78704 5.66085
#
# Compressibility (1/GPa) = 0.03287906
#
# Stress axis : x y z
#
# Youngs Moduli (GPa) = 85.50274 51.49905 56.39869
#
# Poissons Ratio (x) = 0.17960 0.06282
# Poissons Ratio (y) = 0.29818 0.19070
# Poissons Ratio (z) = 0.09524 0.17413
#
# Static dielectric constant tensor:
#      x y z
#    x 1.765570 0.000000 -0.012330 
#    y 0.000000 1.814710 0.000000 
#    z -0.012330 0.000000 1.787470 
# 
# From -- ./inp_files/306877.got.cif
#   From: 2010.05.17/outbox.cif.g08.bks.cpg/sg15_154_cif.got.tgz:306877.got - 2010.06.03 18:47:42.
