data_PCOD9265279
_publ_section_title
;
Structure prediction by ZEFSAII (Michael W. Deem and Ramdas Pophale) SiO2 
 PCOD9265279
Probable space group: C 2/C
;
_chemical_formula_sum "Si O2"
_cell_formula_units_Z 56
_cell_length_a 17.071817
_cell_length_b 14.931436
_cell_length_c 10.982957
_cell_angle_alpha 90.000000
_cell_angle_beta 110.390870
_cell_angle_gamma 90.000000
_cell_volume 2624.198056
_symmetry_space_group_name_H-M "C 2/C"
_symmetry_group_IT_number 15
_symmetry_cell_setting 'monoclinic'
loop_
_space_group_symop_operation_xyz
x,y,z
-x,y,1/2-z
-x,-y,-z
x,-y,1/2+z
1/2+x,1/2+y,z
1/2-x,1/2+y,1/2-z
1/2-x,1/2-y,-z
1/2+x,1/2-y,1/2+z
loop_
_atom_site_type_symbol
_atom_site_label
_atom_site_fract_x
_atom_site_fract_y
_atom_site_fract_z
Si Si1 0.831659 0.835692 0.358703
Si Si2 0.045482 0.458188 0.404645
Si Si3 0.291035 0.684289 0.212170
Si Si4 0.879322 0.907772 0.973232
Si Si5 0.043088 0.055208 0.665319
Si Si6 0.257903 0.035931 0.506059
Si Si7 0.069855 0.751165 0.882241
O O1 0.790881 0.741404 0.306183
O O2 0.876512 0.883022 0.271576
O O3 0.765699 0.900044 0.391443
O O4 0.906620 0.816528 0.495340
O O5 0.143760 0.484895 0.449412
O O6 0.047453 0.348960 0.412820
O O7 0.000000 0.479700 0.250000
O O8 0.000000 0.500000 0.500000
O O9 0.342875 0.664026 0.360742
O O10 0.345287 0.744888 0.150048
O O11 0.269038 0.593213 0.127722
O O12 0.919467 0.987560 0.912815
O O13 0.802624 0.951882 0.004581
O O14 0.962698 0.883206 0.090907
O O15 0.000000 0.999060 0.750000
O O16 0.000000 0.782603 0.750000
#
# Coordination Sequence:
#
# PCOD9265279 Si02
#       7
#     8   8   8   8   8   8   8
#     4  10  19  36  61  82 122 155 204 251 307 368
#     4  11  24  40  61  90 128 168 211 260 315 374
#     4  11  19  36  62  89 115 159 210 256 304 379
#     4  10  22  35  64  89 120 154 207 258 321 376
#     4  10  21  40  55  89 122 158 191 260 325 373
#     4  10  20  38  58  90 121 159 201 263 314 367
#     4  10  19  36  59  88 114 157 215 252 296 364
#
# _framework density 21.339853000000002
#
# number of rings (size 3 to 8) (size 9 to 14) (size 15 to 20)
#    0.000    1.714    2.857    2.571    2.000    2.857 
#    0.000    2.857    0.000    0.000    0.000    0.000 
#    0.000    0.000    0.000    0.000    0.000    0.000 
#
# Total GULP energy -156051.937830 kJ/mol
# GULP energy per Si atom -5573.283494 kJ/mol
# Density = 2.129128 g / cm^3
# Si number density = 21.339853 Si / 1000 Ang^3
#
#
#
# Elastic Constant Matrix: (Units=GPa)
#
#
# Indices 1 2 3 4 5 6 
#
# 1 158.2426 35.8867 48.4937 0.0000 -6.4143 0.0000
# 2 35.8867 55.7559 21.4683 0.0000 -12.5376 0.0000
# 3 48.4937 21.4683 76.0827 0.0000 -0.2506 0.0000
# 4 0.0000 0.0000 0.0000 2.5541 0.0000 7.4438
# 5 -6.4143 -12.5376 -0.2506 0.0000 25.7024 0.0000
# 6 0.0000 0.0000 0.0000 7.4438 0.0000 27.1980
#
#
#
# Elastic Compliance Matrix: (Units=1/GPa)
#
#
# Indices 1 2 3 4 5 6 
#
# 1 0.008518 -0.003741 -0.004373 0.000000 0.000258 0.000000
# 2 -0.003741 0.024552 -0.004507 0.000000 0.010999 0.000000
# 3 -0.004373 -0.004507 0.017192 0.000000 -0.003122 0.000000
# 4 0.000000 0.000000 0.000000 1.935054 0.000000 -0.529602
# 5 0.000258 0.010999 -0.003122 0.000000 0.044306 0.000000
# 6 0.000000 0.000000 0.000000 -0.529602 0.000000 0.181713
#
#
# Mechanical properties :
#
#
# Convention : Reuss Voigt Hill
#
# Bulk Modulus (GPa) = 39.96745 55.75317 47.86031
# Shear Modulus (GPa) = 2.22725 23.37306 12.80016
#
# Velocity S-wave (km/s) = 1.02273 3.31309 2.45179
# Velocity P-wave (km/s) = 4.49047 6.38893 5.52190
#
# Compressibility (1/GPa) = 0.02502036
#
# Stress axis : x y z
#
# Youngs Moduli (GPa) = 117.39325 40.73022 58.16519
#
# Poissons Ratio (x) = 0.15237 0.25436
# Poissons Ratio (y) = 0.43915 0.26216
# Poissons Ratio (z) = 0.51337 0.18358
#
# Static dielectric constant tensor:
#      x y z
#    x 1.804700 0.000000 -0.038680 
#    y 0.000000 1.777050 0.000000 
#    z -0.038680 0.000000 1.989370 
# 
# From -- ./inp_files/98387.got.cif
#   From: 2010.05.17/outbox.cif.g08.bks.cpg/sg15_50_cif.got.tgz:98387.got - 2010.06.03 18:47:42.
