data_PCOD9265373
_publ_section_title
;
Structure prediction by ZEFSAII (Michael W. Deem and Ramdas Pophale) SiO2 
 PCOD9265373
Probable space group: C 2/C
;
_chemical_formula_sum "Si O2"
_cell_formula_units_Z 40
_cell_length_a 15.408394
_cell_length_b 8.950779
_cell_length_c 12.194846
_cell_angle_alpha 90.000000
_cell_angle_beta 71.267932
_cell_angle_gamma 90.000000
_cell_volume 1592.790220
_symmetry_space_group_name_H-M "C 2/C"
_symmetry_group_IT_number 15
_symmetry_cell_setting 'monoclinic'
loop_
_space_group_symop_operation_xyz
x,y,z
-x,y,1/2-z
-x,-y,-z
x,-y,1/2+z
1/2+x,1/2+y,z
1/2-x,1/2+y,1/2-z
1/2-x,1/2-y,-z
1/2+x,1/2-y,1/2+z
loop_
_atom_site_type_symbol
_atom_site_label
_atom_site_fract_x
_atom_site_fract_y
_atom_site_fract_z
Si Si1 0.635002 0.539664 0.479452
Si Si2 0.890335 0.263386 0.817141
Si Si3 0.627277 0.097521 0.588492
Si Si4 0.514557 0.319288 0.865587
Si Si5 0.729119 0.736967 0.854341
O O1 0.644465 0.639215 0.582810
O O2 0.558359 0.414571 0.533595
O O3 0.607199 0.646857 0.391486
O O4 0.713884 0.432936 0.404752
O O5 0.878260 0.426356 0.875329
O O6 0.825659 0.251758 0.736098
O O7 0.000000 0.241451 0.750000
O O8 0.521852 0.150942 0.612387
O O9 0.684436 0.142615 0.455621
O O10 0.662054 0.221493 0.666320
O O11 0.500000 0.380599 0.750000
#
# Coordination Sequence:
#
# PCOD9265373 Si02
#       5
#     8   8   8   8   8
#     4  10  21  37  62  90 121 163 207 248 302 373
#     4  12  24  40  66  95 122 160 209 257 306 359
#     4  10  24  41  61  90 125 160 202 257 308 358
#     4  10  19  36  60  87 121 161 202 249 305 363
#     4  10  24  45  61  88 131 165 202 251 307 372
#
# _framework density 25.113163
#
# number of rings (size 3 to 8) (size 9 to 14) (size 15 to 20)
#    0.000    1.600    0.000    6.000    0.000   12.000 
#    0.000    0.000    0.000    0.000    0.000    0.000 
#    0.000    0.000    0.000    0.000    0.000    0.000 
#
# Total GULP energy -111690.090408 kJ/mol
# GULP energy per Si atom -5584.504520 kJ/mol
# Density = 2.505600 g / cm^3
# Si number density = 25.113163 Si / 1000 Ang^3
#
#
#
# Elastic Constant Matrix: (Units=GPa)
#
#
# Indices 1 2 3 4 5 6 
#
# 1 69.9394 26.9817 16.2758 0.0000 22.0367 0.0000
# 2 26.9817 161.2668 50.8865 0.0000 11.8678 0.0000
# 3 16.2758 50.8865 107.9902 0.0000 43.5410 0.0000
# 4 0.0000 0.0000 0.0000 38.9436 0.0000 -6.3094
# 5 22.0367 11.8678 43.5410 0.0000 41.7413 0.0000
# 6 0.0000 0.0000 0.0000 -6.3094 0.0000 11.3762
#
#
#
# Elastic Compliance Matrix: (Units=1/GPa)
#
#
# Indices 1 2 3 4 5 6 
#
# 1 0.018873 -0.003494 0.004175 0.000000 -0.013325 0.000000
# 2 -0.003494 0.008099 -0.005359 0.000000 0.005132 0.000000
# 3 0.004175 -0.005359 0.019727 0.000000 -0.021258 0.000000
# 4 0.000000 0.000000 0.000000 0.028213 0.000000 0.015647
# 5 -0.013325 0.005132 -0.021258 0.000000 0.051707 0.000000
# 6 0.000000 0.000000 0.000000 0.015647 0.000000 0.096581
#
#
# Mechanical properties :
#
#
# Convention : Reuss Voigt Hill
#
# Bulk Modulus (GPa) = 26.77952 58.60939 42.69446
# Shear Modulus (GPa) = 20.40777 34.74904 27.57841
#
# Velocity S-wave (km/s) = 2.85376 3.72385 3.31745
# Velocity P-wave (km/s) = 4.64169 6.47133 5.63132
#
# Compressibility (1/GPa) = 0.03734196
#
# Stress axis : x y z
#
# Youngs Moduli (GPa) = 52.98545 123.47499 50.69154
#
# Poissons Ratio (x) = 0.43146 -0.21162
# Poissons Ratio (y) = 0.18515 0.27165
# Poissons Ratio (z) = -0.22119 0.66168
#
# Static dielectric constant tensor:
#      x y z
#    x 2.407010 0.000000 -0.018260 
#    y 0.000000 1.971410 0.000000 
#    z -0.018260 0.000000 2.036890 
# 
# From -- ./inp_files/102769.got.cif
#   From: 2010.05.17/outbox.cif.g08.bks.cpg/sg15_52_cif.got.tgz:102769.got - 2010.06.03 18:47:42.
