data_PCOD9265438
_publ_section_title
;
Structure prediction by ZEFSAII (Michael W. Deem and Ramdas Pophale) SiO2 
 PCOD9265438
Probable space group: C 2/C
;
_chemical_formula_sum "Si O2"
_cell_formula_units_Z 48
_cell_length_a 24.682932
_cell_length_b 10.799370
_cell_length_c 14.582945
_cell_angle_alpha 90.000000
_cell_angle_beta 35.602493
_cell_angle_gamma 90.000000
_cell_volume 2262.984271
_symmetry_space_group_name_H-M "C 2/C"
_symmetry_group_IT_number 15
_symmetry_cell_setting 'monoclinic'
loop_
_space_group_symop_operation_xyz
x,y,z
-x,y,1/2-z
-x,-y,-z
x,-y,1/2+z
1/2+x,1/2+y,z
1/2-x,1/2+y,1/2-z
1/2-x,1/2-y,-z
1/2+x,1/2-y,1/2+z
loop_
_atom_site_type_symbol
_atom_site_label
_atom_site_fract_x
_atom_site_fract_y
_atom_site_fract_z
Si Si1 0.310112 0.492979 0.489328
Si Si2 0.572237 0.284613 0.232767
Si Si3 0.949741 0.014692 0.456864
Si Si4 0.131992 0.394031 0.317229
Si Si5 0.369694 0.617286 0.227275
Si Si6 0.988701 0.471935 0.658077
O O1 0.334467 0.351386 0.429427
O O2 0.398393 0.530522 0.431461
O O3 0.220417 0.523167 0.671319
O O4 0.309131 0.571050 0.396432
O O5 0.500000 0.260931 0.250000
O O6 0.515714 0.391280 0.364376
O O7 0.578442 0.148576 0.265035
O O8 0.874704 0.982958 0.638308
O O9 0.023639 0.119227 0.381160
O O10 0.157623 0.249662 0.275058
O O11 0.056015 0.421459 0.342240
O O12 0.085124 0.430020 0.477973
O O13 0.000000 0.502437 0.750000
#
# Coordination Sequence:
#
# PCOD9265438 Si02
#       6
#     8   8   8   8   8   8
#     4  10  21  35  59  91 119 144 199 263 296 337
#     4   8  15  34  60  79 104 155 203 234 280 347
#     4   9  18  35  60  85 110 155 205 239 289 358
#     4  11  23  38  57  91 122 150 197 248 305 354
#     4  10  19  36  61  84 117 157 193 247 299 357
#     4  10  22  40  61  77 117 171 198 231 295 375
#
# _framework density 21.210930000000001
#
# number of rings (size 3 to 8) (size 9 to 14) (size 15 to 20)
#    0.000    2.333    1.667    2.000    0.000    3.333 
#    0.000    3.333    0.000    0.000    0.000    0.000 
#    0.000    0.000    0.000    0.000    0.000    0.000 
#
# Total GULP energy -133759.841759 kJ/mol
# GULP energy per Si atom -5573.326740 kJ/mol
# Density = 2.116265 g / cm^3
# Si number density = 21.210930 Si / 1000 Ang^3
#
#
#
# Elastic Constant Matrix: (Units=GPa)
#
#
# Indices 1 2 3 4 5 6 
#
# 1 41.7005 -6.9759 16.7327 0.0000 22.1609 0.0000
# 2 -6.9759 47.4311 16.1450 0.0000 -2.4593 0.0000
# 3 16.7327 16.1450 100.5721 0.0000 21.3041 0.0000
# 4 0.0000 0.0000 0.0000 20.1107 0.0000 0.0619
# 5 22.1609 -2.4593 21.3041 0.0000 32.0477 0.0000
# 6 0.0000 0.0000 0.0000 0.0619 0.0000 17.0803
#
#
#
# Elastic Compliance Matrix: (Units=1/GPa)
#
#
# Indices 1 2 3 4 5 6 
#
# 1 0.039081 0.005099 -0.001954 0.000000 -0.025334 0.000000
# 2 0.005099 0.023610 -0.004976 0.000000 0.001593 0.000000
# 3 -0.001954 -0.004976 0.012642 0.000000 -0.007434 0.000000
# 4 0.000000 0.000000 0.000000 0.049725 0.000000 -0.000180
# 5 -0.025334 0.001593 -0.007434 0.000000 0.053786 0.000000
# 6 0.000000 0.000000 0.000000 -0.000180 0.000000 0.058548
#
#
# Mechanical properties :
#
#
# Convention : Reuss Voigt Hill
#
# Bulk Modulus (GPa) = 13.95273 26.83416 20.39344
# Shear Modulus (GPa) = 18.87196 24.76787 21.81992
#
# Velocity S-wave (km/s) = 2.98607 3.42086 3.21083
# Velocity P-wave (km/s) = 4.29897 5.31805 4.83543
#
# Compressibility (1/GPa) = 0.07167058
#
# Stress axis : x y z
#
# Youngs Moduli (GPa) = 25.58791 42.35567 79.10225
#
# Poissons Ratio (x) = -0.21599 0.15459
# Poissons Ratio (y) = -0.13048 0.39362
# Poissons Ratio (z) = 0.05001 0.21076
#
# Static dielectric constant tensor:
#      x y z
#    x 1.784270 0.000000 0.025640 
#    y 0.000000 1.792720 0.000000 
#    z 0.025640 0.000000 1.819790 
# 
# From -- ./inp_files/177756.got.cif
#   From: 2010.05.17/outbox.cif.g08.bks.cpg/sg15_89_cif.got.tgz:177756.got - 2010.06.03 18:47:42.
