data_PCOD9265508
_publ_section_title
;
Structure prediction by ZEFSAII (Michael W. Deem and Ramdas Pophale) SiO2 
 PCOD9265508
Probable space group: C 2/C
;
_chemical_formula_sum "Si O2"
_cell_formula_units_Z 36
_cell_length_a 14.478515
_cell_length_b 9.929589
_cell_length_c 13.413782
_cell_angle_alpha 90.000000
_cell_angle_beta 127.430990
_cell_angle_gamma 90.000000
_cell_volume 1531.348615
_symmetry_space_group_name_H-M "C 2/C"
_symmetry_group_IT_number 15
_symmetry_cell_setting 'monoclinic'
loop_
_space_group_symop_operation_xyz
x,y,z
-x,y,1/2-z
-x,-y,-z
x,-y,1/2+z
1/2+x,1/2+y,z
1/2-x,1/2+y,1/2-z
1/2-x,1/2-y,-z
1/2+x,1/2-y,1/2+z
loop_
_atom_site_type_symbol
_atom_site_label
_atom_site_fract_x
_atom_site_fract_y
_atom_site_fract_z
Si Si1 0.118293 0.732096 0.455754
Si Si2 0.534492 0.482210 0.904413
Si Si3 0.820967 0.163477 0.293245
Si Si4 0.500000 0.997191 0.750000
Si Si5 0.244277 0.400529 0.360824
O O1 0.250000 0.750000 0.500000
O O2 0.130774 0.744519 0.583639
O O3 0.051710 0.603172 0.369193
O O4 0.049136 0.866201 0.378816
O O5 0.427140 0.394611 0.797106
O O6 0.500000 0.500000 0.000000
O O7 0.662128 0.417417 0.990182
O O8 0.733633 0.259459 0.178102
O O9 0.762494 0.032156 0.303186
O O10 0.390385 0.089711 0.702362
#
# Coordination Sequence:
#
# PCOD9265508 Si02
#       5
#     8   8   8   4   8
#     4  10  19  36  61  92 113 156 198 246 286 360
#     4   8  18  37  59  83 121 147 195 242 290 343
#     4  10  22  39  63  87 122 155 199 240 301 348
#     4  12  22  36  62  86 124 150 208 240 296 344
#     4  10  22  39  61  88 117 157 197 248 290 357
#
# _framework density 23.508690999999999
#
# number of rings (size 3 to 8) (size 9 to 14) (size 15 to 20)
#    0.000    2.667    4.444    0.000    9.333    0.889 
#    0.000    4.444    0.000    0.000    0.000    0.000 
#    0.000    0.000    0.000    0.000    0.000    0.000 
#
# Total GULP energy -100459.790582 kJ/mol
# GULP energy per Si atom -5581.099477 kJ/mol
# Density = 2.345518 g / cm^3
# Si number density = 23.508691 Si / 1000 Ang^3
#
#
#
# Elastic Constant Matrix: (Units=GPa)
#
#
# Indices 1 2 3 4 5 6 
#
# 1 69.3601 -9.8766 14.6241 0.0000 21.6075 0.0000
# 2 -9.8766 74.4806 6.7792 0.0000 -9.7192 0.0000
# 3 14.6241 6.7792 53.3004 0.0000 3.5559 0.0000
# 4 0.0000 0.0000 0.0000 19.6134 0.0000 23.3276
# 5 21.6075 -9.7192 3.5559 0.0000 25.3655 0.0000
# 6 0.0000 0.0000 0.0000 23.3276 0.0000 28.9006
#
#
#
# Elastic Compliance Matrix: (Units=1/GPa)
#
#
# Indices 1 2 3 4 5 6 
#
# 1 0.020729 0.001010 -0.004708 0.000000 -0.016611 0.000000
# 2 0.001010 0.014437 -0.002448 0.000000 0.005015 0.000000
# 3 -0.004708 -0.002448 0.020350 0.000000 0.000219 0.000000
# 4 0.000000 0.000000 0.000000 1.275464 0.000000 -1.029513
# 5 -0.016611 0.005015 0.000219 0.000000 0.055464 0.000000
# 6 0.000000 0.000000 0.000000 -1.029513 0.000000 0.865591
#
#
# Mechanical properties :
#
#
# Convention : Reuss Voigt Hill
#
# Bulk Modulus (GPa) = 23.13513 24.46604 23.80059
# Shear Modulus (GPa) = 2.19420 27.15019 14.67219
#
# Velocity S-wave (km/s) = 0.96715 3.40207 2.50095
# Velocity P-wave (km/s) = 3.33311 5.08546 4.29951
#
# Compressibility (1/GPa) = 0.04322431
#
# Stress axis : x y z
#
# Youngs Moduli (GPa) = 48.24274 69.26435 49.14025
#
# Poissons Ratio (x) = -0.06993 0.23133
# Poissons Ratio (y) = -0.04871 0.12029
# Poissons Ratio (z) = 0.22710 0.16955
#
# Static dielectric constant tensor:
#      x y z
#    x 1.995120 0.000000 -0.040190 
#    y 0.000000 1.985480 0.000000 
#    z -0.040190 0.000000 1.975790 
# 
# From -- ./inp_files/151144.got.cif
#   From: 2010.05.17/outbox.cif.g08.bks.cpg/sg15_76_cif.got.tgz:151144.got - 2010.06.03 18:47:42.
