data_PCOD9265972
_publ_section_title
;
Structure prediction by ZEFSAII (Michael W. Deem and Ramdas Pophale) SiO2 
 PCOD9265972
Probable space group: C 2/C
;
_chemical_formula_sum "Si O2"
_cell_formula_units_Z 56
_cell_length_a 20.876134
_cell_length_b 10.843164
_cell_length_c 16.465391
_cell_angle_alpha 90.000000
_cell_angle_beta 47.883486
_cell_angle_gamma 90.000000
_cell_volume 2764.743076
_symmetry_space_group_name_H-M "C 2/C"
_symmetry_group_IT_number 15
_symmetry_cell_setting 'monoclinic'
loop_
_space_group_symop_operation_xyz
x,y,z
-x,y,1/2-z
-x,-y,-z
x,-y,1/2+z
1/2+x,1/2+y,z
1/2-x,1/2+y,1/2-z
1/2-x,1/2-y,-z
1/2+x,1/2-y,1/2+z
loop_
_atom_site_type_symbol
_atom_site_label
_atom_site_fract_x
_atom_site_fract_y
_atom_site_fract_z
Si Si1 0.808323 0.666632 0.129042
Si Si2 0.500000 0.015477 0.250000
Si Si3 0.186078 0.521919 0.141479
Si Si4 0.808462 0.981975 0.887578
Si Si5 0.256757 0.726438 0.839213
Si Si6 0.876448 0.410737 0.140771
Si Si7 0.967759 0.306824 0.404665
Si Si8 0.000000 0.895751 0.750000
O O1 0.723658 0.614203 0.155377
O O2 0.798068 0.753061 0.215302
O O3 0.859612 0.545340 0.117694
O O4 0.872540 0.729724 0.011897
O O5 0.463793 0.924579 0.349531
O O6 0.588989 0.075093 0.205034
O O7 0.240316 0.640372 0.123132
O O8 0.168966 0.426449 0.230707
O O9 0.238849 0.468643 0.020248
O O10 0.907627 0.964233 0.830302
O O11 0.797718 0.118681 0.858326
O O12 0.163631 0.678807 0.892148
O O13 0.969865 0.355833 0.078361
O O14 0.007119 0.194252 0.321568
#
# Coordination Sequence:
#
# PCOD9265972 Si02
#       8
#     8   4   8   8   8   8   8   4
#     4  10  20  37  64  83 113 155 191 248 298 324
#     4   9  18  35  60  96 110 137 206 251 274 342
#     4  10  20  38  65  85 117 155 191 243 294 336
#     4  11  23  42  59  83 121 159 194 239 288 350
#     4  10  22  39  57  89 119 154 194 234 293 355
#     4   9  20  36  59  89 119 142 195 245 286 350
#     4  10  19  37  58  89 113 146 198 243 288 338
#     4  11  26  37  56  88 118 155 202 233 278 362
#
# _framework density 20.255046
#
# number of rings (size 3 to 8) (size 9 to 14) (size 15 to 20)
#    0.000    2.000    1.429    1.714    2.000    1.143 
#    2.571    0.714    0.000    0.000    0.000    0.000 
#    0.000    0.000    0.000    0.000    0.000    0.000 
#
# Total GULP energy -155962.812608 kJ/mol
# GULP energy per Si atom -5570.100450 kJ/mol
# Density = 2.020894 g / cm^3
# Si number density = 20.255046 Si / 1000 Ang^3
#
#
#
# Elastic Constant Matrix: (Units=GPa)
#
#
# Indices 1 2 3 4 5 6 
#
# 1 114.3553 22.3465 19.4748 0.0000 -18.5903 0.0000
# 2 22.3465 25.4270 -1.1087 0.0000 -1.4070 0.0000
# 3 19.4748 -1.1087 73.0297 0.0000 -5.2148 0.0000
# 4 0.0000 0.0000 0.0000 30.6269 0.0000 14.6026
# 5 -18.5903 -1.4070 -5.2148 0.0000 23.3500 0.0000
# 6 0.0000 0.0000 0.0000 14.6026 0.0000 20.5003
#
#
#
# Elastic Compliance Matrix: (Units=1/GPa)
#
#
# Indices 1 2 3 4 5 6 
#
# 1 0.012824 -0.010907 -0.002950 0.000000 0.008894 0.000000
# 2 -0.010907 0.048780 0.003291 0.000000 -0.005009 0.000000
# 3 -0.002950 0.003291 0.014609 0.000000 0.001112 0.000000
# 4 0.000000 0.000000 0.000000 0.049443 0.000000 -0.035219
# 5 0.008894 -0.005009 0.001112 0.000000 0.049854 0.000000
# 6 0.000000 0.000000 0.000000 -0.035219 0.000000 0.073866
#
#
# Mechanical properties :
#
#
# Convention : Reuss Voigt Hill
#
# Bulk Modulus (GPa) = 18.15483 32.69302 25.42392
# Shear Modulus (GPa) = 17.30881 26.36873 21.83877
#
# Velocity S-wave (km/s) = 2.92643 3.61201 3.28714
# Velocity P-wave (km/s) = 4.51677 5.79407 5.19483
#
# Compressibility (1/GPa) = 0.05508176
#
# Stress axis : x y z
#
# Youngs Moduli (GPa) = 77.97637 20.50010 68.44993
#
# Poissons Ratio (x) = 0.22360 0.20195
# Poissons Ratio (y) = 0.85050 -0.22530
# Poissons Ratio (z) = 0.23006 -0.06748
#
# Static dielectric constant tensor:
#      x y z
#    x 1.785090 0.000000 -0.012090 
#    y 0.000000 1.703110 0.000000 
#    z -0.012090 0.000000 1.832530 
# 
# From -- ./inp_files/219092.got.cif
#   From: 2010.05.17/outbox.cif.g08.bks.cpg/sg15_110_cif.got.tgz:219092.got - 2010.06.03 18:47:42.
