data_PCOD9265137
_publ_section_title
;
Structure prediction by ZEFSAII (Michael W. Deem and Ramdas Pophale) SiO2 
 PCOD9265137
Probable space group: C 2/C
;
_chemical_formula_sum "Si O2"
_cell_formula_units_Z 64
_cell_length_a 26.878549
_cell_length_b 14.395876
_cell_length_c 8.257463
_cell_angle_alpha 90.000000
_cell_angle_beta 55.559082
_cell_angle_gamma 90.000000
_cell_volume 2635.067331
_symmetry_space_group_name_H-M "C 2/C"
_symmetry_group_IT_number 15
_symmetry_cell_setting 'monoclinic'
loop_
_space_group_symop_operation_xyz
x,y,z
-x,y,1/2-z
-x,-y,-z
x,-y,1/2+z
1/2+x,1/2+y,z
1/2-x,1/2+y,1/2-z
1/2-x,1/2-y,-z
1/2+x,1/2-y,1/2+z
loop_
_atom_site_type_symbol
_atom_site_label
_atom_site_fract_x
_atom_site_fract_y
_atom_site_fract_z
Si Si1 0.800383 0.582282 0.139663
Si Si2 0.119513 0.495064 0.249801
Si Si3 0.898436 0.966350 0.559024
Si Si4 0.952175 0.309864 0.076359
Si Si5 0.819358 0.780887 0.213037
Si Si6 0.690305 0.565650 0.543521
Si Si7 0.080018 0.139526 0.177260
Si Si8 0.087782 0.692564 0.198064
O O1 0.859815 0.548374 0.126424
O O2 0.790423 0.691656 0.184107
O O3 0.742883 0.535481 0.327164
O O4 0.819694 0.555713 0.925323
O O5 0.068684 0.415782 0.351752
O O6 0.102480 0.583047 0.171841
O O7 0.868173 0.914142 0.463283
O O8 0.933866 0.905273 0.622406
O O9 0.841342 0.996388 0.774275
O O10 0.933709 0.057613 0.427931
O O11 0.943349 0.243949 0.248724
O O12 0.912565 0.279715 0.991047
O O13 0.020582 0.300270 0.892700
O O14 0.782966 0.852512 0.391829
O O15 0.868204 0.743645 0.256003
O O16 0.852266 0.838138 0.010171
#
# Coordination Sequence:
#
# PCOD9265137 Si02
#       8
#     8   8   8   8   8   8   8   8
#     4  11  21  35  57  84 123 164 199 248 297 355
#     4  11  21  38  55  88 128 161 205 249 296 360
#     4   9  20  37  61  85 115 155 197 251 310 359
#     4  11  21  39  62  87 121 161 210 247 306 367
#     4  10  21  37  57  86 120 154 205 255 300 353
#     4  10  19  36  58  83 117 161 205 243 305 361
#     4  10  20  38  64  88 116 156 196 258 311 365
#     4  10  23  38  60  87 121 166 198 254 304 359
#
# _framework density 24.287803
#
# number of rings (size 3 to 8) (size 9 to 14) (size 15 to 20)
#    0.000    1.750    2.500    2.250    0.000    0.500 
#    0.000    0.625    0.000   25.500    0.000    0.000 
#    0.000    0.000    0.000    0.000    0.000    0.000 
#
# Total GULP energy -178310.538038 kJ/mol
# GULP energy per Si atom -5572.204314 kJ/mol
# Density = 2.423252 g / cm^3
# Si number density = 24.287803 Si / 1000 Ang^3
#
#
#
# Elastic Constant Matrix: (Units=GPa)
#
#
# Indices 1 2 3 4 5 6 
#
# 1 44.8940 3.0042 -9.8570 0.0000 17.9476 0.0000
# 2 3.0042 79.7731 3.5456 0.0000 17.2246 0.0000
# 3 -9.8570 3.5456 70.9210 0.0000 9.5674 0.0000
# 4 0.0000 0.0000 0.0000 44.9874 0.0000 34.6530
# 5 17.9476 17.2246 9.5674 0.0000 28.4445 0.0000
# 6 0.0000 0.0000 0.0000 34.6530 0.0000 11.1303
#
#
#
# Elastic Compliance Matrix: (Units=1/GPa)
#
#
# Indices 1 2 3 4 5 6 
#
# 1 0.034696 0.004203 0.008285 0.000000 -0.027224 0.000000
# 2 0.004203 0.014946 0.001483 0.000000 -0.012202 0.000000
# 3 0.008285 0.001483 0.016765 0.000000 -0.011764 0.000000
# 4 0.000000 0.000000 0.000000 -0.015898 0.000000 0.049497
# 5 -0.027224 -0.012202 -0.011764 0.000000 0.063679 0.000000
# 6 0.000000 0.000000 0.000000 0.049497 0.000000 -0.064258
#
#
# Mechanical properties :
#
#
# Convention : Reuss Voigt Hill
#
# Bulk Modulus (GPa) = 10.59900 20.99709 15.79805
# Shear Modulus (GPa) = 93.56853 30.17213 61.87033
#
# Velocity S-wave (km/s) = 6.21358 3.52842 5.05264
# Velocity P-wave (km/s) = 7.47338 5.02628 6.36848
#
# Compressibility (1/GPa) = 0.09434851
#
# Stress axis : x y z
#
# Youngs Moduli (GPa) = 28.82179 66.90803 59.64978
#
# Poissons Ratio (x) = -0.28124 -0.49418
# Poissons Ratio (y) = -0.12115 -0.08846
# Poissons Ratio (z) = -0.23878 -0.09923
#
# Static dielectric constant tensor:
#      x y z
#    x 2.010760 0.000000 0.059320 
#    y 0.000000 1.997570 0.000000 
#    z 0.059320 0.000000 1.962210 
# 
# From -- ./inp_files/70140.got.cif
#   From: 2010.05.17/outbox.cif.g08.bks.cpg/sg15_36_cif.got.tgz:70140.got - 2010.06.03 18:47:42.
