data_PCOD9265692
_publ_section_title
;
Structure prediction by ZEFSAII (Michael W. Deem and Ramdas Pophale) SiO2 
 PCOD9265692
Probable space group: C 2/C
;
_chemical_formula_sum "Si O2"
_cell_formula_units_Z 48
_cell_length_a 9.668923
_cell_length_b 14.664893
_cell_length_c 15.024702
_cell_angle_alpha 90.000000
_cell_angle_beta 72.889985
_cell_angle_gamma 90.000000
_cell_volume 2036.119947
_symmetry_space_group_name_H-M "C 2/C"
_symmetry_group_IT_number 15
_symmetry_cell_setting 'monoclinic'
loop_
_space_group_symop_operation_xyz
x,y,z
-x,y,1/2-z
-x,-y,-z
x,-y,1/2+z
1/2+x,1/2+y,z
1/2-x,1/2+y,1/2-z
1/2-x,1/2-y,-z
1/2+x,1/2-y,1/2+z
loop_
_atom_site_type_symbol
_atom_site_label
_atom_site_fract_x
_atom_site_fract_y
_atom_site_fract_z
Si Si1 0.801621 0.542948 0.720767
Si Si2 0.743203 0.323375 0.386546
Si Si3 0.622328 0.495669 0.606624
Si Si4 0.936660 0.125848 0.035801
Si Si5 0.534408 0.179049 0.940009
Si Si6 0.639074 0.867664 0.868389
O O1 0.793108 0.595339 0.813669
O O2 0.648265 0.539550 0.697880
O O3 0.862326 0.439922 0.711055
O O4 0.995284 0.646517 0.453589
O O5 0.592618 0.352764 0.459987
O O6 0.876435 0.301009 0.426299
O O7 0.896572 0.397711 0.134029
O O8 0.645466 0.568601 0.523754
O O9 0.476889 0.440612 0.610021
O O10 0.750628 0.421152 0.586183
O O11 0.206024 0.268600 0.838356
O O12 0.619136 0.275214 0.925444
#
# Coordination Sequence:
#
# PCOD9265692 Si02
#       6
#     8   8   8   8   8   8
#     4  10  22  34  56  86 118 139 187 234 280 323
#     4  11  19  37  57  82 112 150 184 230 276 331
#     4   9  19  38  55  86 107 146 190 230 274 331
#     4  10  19  36  64  79 108 148 194 225 276 331
#     4  11  18  36  61  81 108 151 189 224 270 347
#     4   9  19  39  57  80 112 150 190 219 278 333
#
# _framework density 23.574248000000001
#
# number of rings (size 3 to 8) (size 9 to 14) (size 15 to 20)
#    1.000    1.000    3.333    2.000    0.000    1.333 
#    6.000    0.000   14.667    0.000    0.000    0.000 
#    0.000    0.000    0.000    0.000    0.000    0.000 
#
# Total GULP energy -133901.815778 kJ/mol
# GULP energy per Si atom -5579.242324 kJ/mol
# Density = 2.352059 g / cm^3
# Si number density = 23.574248 Si / 1000 Ang^3
#
#
#
# Elastic Constant Matrix: (Units=GPa)
#
#
# Indices 1 2 3 4 5 6 
#
# 1 51.0785 12.4631 8.3451 0.0000 9.1990 0.0000
# 2 12.4631 134.5273 27.7953 0.0000 1.6865 0.0000
# 3 8.3451 27.7953 50.5729 0.0000 4.4868 0.0000
# 4 0.0000 0.0000 0.0000 37.3380 0.0000 16.1144
# 5 9.1990 1.6865 4.4868 0.0000 33.0944 0.0000
# 6 0.0000 0.0000 0.0000 16.1144 0.0000 23.5800
#
#
#
# Elastic Compliance Matrix: (Units=1/GPa)
#
#
# Indices 1 2 3 4 5 6 
#
# 1 0.021292 -0.001443 -0.002229 0.000000 -0.005543 0.000000
# 2 -0.001443 0.008485 -0.004476 0.000000 0.000575 0.000000
# 3 -0.002229 -0.004476 0.022800 0.000000 -0.002244 0.000000
# 4 0.000000 0.000000 0.000000 0.037986 0.000000 -0.025959
# 5 -0.005543 0.000575 -0.002244 0.000000 0.032032 0.000000
# 6 0.000000 0.000000 0.000000 -0.025959 0.000000 0.060149
#
#
# Mechanical properties :
#
#
# Convention : Reuss Voigt Hill
#
# Bulk Modulus (GPa) = 27.56199 37.04286 32.30242
# Shear Modulus (GPa) = 23.68169 31.30750 27.49460
#
# Velocity S-wave (km/s) = 3.17291 3.64818 3.41882
# Velocity P-wave (km/s) = 5.01399 5.78731 5.41448
#
# Compressibility (1/GPa) = 0.03628185
#
# Stress axis : x y z
#
# Youngs Moduli (GPa) = 46.96592 117.85879 43.85880
#
# Poissons Ratio (x) = 0.17002 0.09775
# Poissons Ratio (y) = 0.06775 0.19632
# Poissons Ratio (z) = 0.10468 0.52757
#
# Static dielectric constant tensor:
#      x y z
#    x 1.930760 0.000000 0.011600 
#    y 0.000000 1.943640 0.000000 
#    z 0.011600 0.000000 1.899750 
# 
# From -- ./inp_files/197198.got.cif
#   From: 2010.05.17/outbox.cif.g08.bks.cpg/sg15_99_cif.got.tgz:197198.got - 2010.06.03 18:47:42.
