data_PCOD9265063
_publ_section_title
;
Structure prediction by ZEFSAII (Michael W. Deem and Ramdas Pophale) SiO2 
 PCOD9265063
Probable space group: C 2/C
;
_chemical_formula_sum "Si O2"
_cell_formula_units_Z 56
_cell_length_a 7.789887
_cell_length_b 14.624932
_cell_length_c 25.431898
_cell_angle_alpha 90.000000
_cell_angle_beta 59.568946
_cell_angle_gamma 90.000000
_cell_volume 2498.225215
_symmetry_space_group_name_H-M "C 2/C"
_symmetry_group_IT_number 15
_symmetry_cell_setting 'monoclinic'
loop_
_space_group_symop_operation_xyz
x,y,z
-x,y,1/2-z
-x,-y,-z
x,-y,1/2+z
1/2+x,1/2+y,z
1/2-x,1/2+y,1/2-z
1/2-x,1/2-y,-z
1/2+x,1/2-y,1/2+z
loop_
_atom_site_type_symbol
_atom_site_label
_atom_site_fract_x
_atom_site_fract_y
_atom_site_fract_z
Si Si1 0.994888 0.479916 0.097943
Si Si2 0.688979 0.331469 0.780950
Si Si3 0.161689 0.901188 0.609613
Si Si4 0.597845 0.594147 0.001397
Si Si5 0.912860 0.782018 0.091582
Si Si6 0.060679 0.340430 0.650842
Si Si7 0.984270 0.634116 0.808402
O O1 0.812966 0.514499 0.090864
O O2 0.093268 0.570095 0.109912
O O3 0.921843 0.420991 0.158543
O O4 0.163661 0.420779 0.042864
O O5 0.507990 0.400828 0.819599
O O6 0.837232 0.349537 0.709939
O O7 0.592839 0.231623 0.787642
O O8 0.808139 0.331116 0.817538
O O9 0.063069 0.891065 0.567989
O O10 0.293116 0.810164 0.596321
O O11 0.521738 0.671040 0.972745
O O12 0.500000 0.500000 0.000000
O O13 0.066695 0.748085 0.111828
O O14 0.748027 0.849568 0.142232
O O15 0.000000 0.585120 0.750000
#
# Coordination Sequence:
#
# PCOD9265063 Si02
#       7
#     8   8   8   8   8   8   8
#     4  10  23  37  59  85 117 159 194 250 303 350
#     4  10  21  36  61  84 119 155 194 244 289 367
#     4  10  21  40  60  84 116 158 203 232 295 364
#     4  11  22  39  59  87 119 152 199 257 295 344
#     4   9  20  37  62  81 113 155 194 233 295 354
#     4  10  20  39  58  89 118 154 199 238 301 361
#     4  10  19  36  57  85 116 151 189 239 303 355
#
# _framework density 22.415914999999998
#
# number of rings (size 3 to 8) (size 9 to 14) (size 15 to 20)
#    0.000    2.000    1.429    1.714    2.000    1.143 
#    0.000   10.714    0.000    0.000    0.000    0.000 
#    0.000    0.000    0.000    0.000    0.000    0.000 
#
# Total GULP energy -156460.622987 kJ/mol
# GULP energy per Si atom -5587.879392 kJ/mol
# Density = 2.236489 g / cm^3
# Si number density = 22.415915 Si / 1000 Ang^3
#
#
#
# Elastic Constant Matrix: (Units=GPa)
#
#
# Indices 1 2 3 4 5 6 
#
# 1 50.9111 -4.1855 12.3489 0.0001 11.9919 0.0000
# 2 -4.1855 28.8769 10.4371 0.0000 0.4720 0.0000
# 3 12.3489 10.4371 98.8992 0.0000 6.9895 0.0000
# 4 0.0001 0.0000 0.0000 27.4999 0.0000 11.0229
# 5 11.9919 0.4720 6.9895 0.0000 34.9517 0.0000
# 6 0.0000 0.0000 0.0000 11.0229 0.0000 21.6201
#
#
#
# Elastic Compliance Matrix: (Units=1/GPa)
#
#
# Indices 1 2 3 4 5 6 
#
# 1 0.022356 0.004349 -0.002743 0.000000 -0.007181 0.000000
# 2 0.004349 0.036852 -0.004353 0.000000 -0.001119 0.000000
# 3 -0.002743 -0.004353 0.010998 0.000000 -0.001199 0.000000
# 4 0.000000 0.000000 0.000000 0.045704 0.000000 -0.023302
# 5 -0.007181 -0.001119 -0.001199 0.000000 0.031330 0.000000
# 6 0.000000 0.000000 0.000000 -0.023302 0.000000 0.058134
#
#
# Mechanical properties :
#
#
# Convention : Reuss Voigt Hill
#
# Bulk Modulus (GPa) = 15.45299 23.98757 19.72028
# Shear Modulus (GPa) = 21.51116 27.48679 24.49898
#
# Velocity S-wave (km/s) = 3.10116 3.50554 3.30953
# Velocity P-wave (km/s) = 4.44204 5.20667 4.83948
#
# Compressibility (1/GPa) = 0.06471238
#
# Stress axis : x y z
#
# Youngs Moduli (GPa) = 44.73001 27.13578 90.92595
#
# Poissons Ratio (x) = -0.11802 0.24941
# Poissons Ratio (y) = -0.19454 0.39580
# Poissons Ratio (z) = 0.12269 0.11812
#
# Static dielectric constant tensor:
#      x y z
#    x 1.871270 0.000000 -0.010880 
#    y 0.000000 1.803970 0.000000 
#    z -0.010880 0.000000 1.837240 
# 
# From -- ./inp_files/264390.got.cif
#   From: 2010.05.17/outbox.cif.g08.bks.cpg/sg15_133_cif.got.tgz:264390.got - 2010.06.03 18:47:42.
