data_PCOD9265471
_publ_section_title
;
Structure prediction by ZEFSAII (Michael W. Deem and Ramdas Pophale) SiO2 
 PCOD9265471
Probable space group: C 2/C
;
_chemical_formula_sum "Si O2"
_cell_formula_units_Z 56
_cell_length_a 9.202461
_cell_length_b 18.485350
_cell_length_c 26.231676
_cell_angle_alpha 90.000000
_cell_angle_beta 44.398843
_cell_angle_gamma 90.000000
_cell_volume 3122.035712
_symmetry_space_group_name_H-M "C 2/C"
_symmetry_group_IT_number 15
_symmetry_cell_setting 'monoclinic'
loop_
_space_group_symop_operation_xyz
x,y,z
-x,y,1/2-z
-x,-y,-z
x,-y,1/2+z
1/2+x,1/2+y,z
1/2-x,1/2+y,1/2-z
1/2-x,1/2-y,-z
1/2+x,1/2-y,1/2+z
loop_
_atom_site_type_symbol
_atom_site_label
_atom_site_fract_x
_atom_site_fract_y
_atom_site_fract_z
Si Si1 0.517052 0.610458 0.011333
Si Si2 0.839448 0.519256 0.430177
Si Si3 0.173651 0.411581 0.453250
Si Si4 0.049872 0.206237 0.568488
Si Si5 0.282044 0.513475 0.331223
Si Si6 0.194272 0.187486 0.166467
Si Si7 0.253490 0.318901 0.961560
O O1 0.683820 0.546966 0.960526
O O2 0.541208 0.668084 0.959588
O O3 0.280073 0.584599 0.066852
O O4 0.574861 0.633353 0.053434
O O5 0.855079 0.544576 0.486028
O O6 0.068455 0.499822 0.354085
O O7 0.359384 0.355203 0.417484
O O8 0.246773 0.467103 0.391414
O O9 0.964312 0.364883 0.490814
O O10 0.250000 0.250000 0.500000
O O11 0.891202 0.263601 0.631976
O O12 0.500000 0.494959 0.250000
O O13 0.277131 0.600607 0.339094
O O14 0.168732 0.203091 0.113233
O O15 0.000000 0.206012 0.250000
O O16 0.250000 0.250000 0.000000
#
# Coordination Sequence:
#
# PCOD9265471 Si02
#       7
#     8   8   8   8   8   8   8
#     4  10  20  32  62  93 117 144 211 259 295 354
#     4  10  19  36  61  88 117 156 200 257 307 354
#     4  11  21  38  65  88 119 162 216 255 299 376
#     4  11  20  40  61  88 121 164 206 253 310 377
#     4  11  22  38  61  90 124 167 209 253 314 376
#     4  11  23  39  61  90 126 167 201 257 325 377
#     4  12  20  36  64  93 118 156 213 258 302 370
#
# _framework density 17.937014000000001
#
# number of rings (size 3 to 8) (size 9 to 14) (size 15 to 20)
#    0.000    1.143    5.714    2.143    0.000    0.000 
#    5.143    0.000    0.000   22.286    0.000    0.000 
#    0.000    0.000    0.000    0.000    0.000    0.000 
#
# Total GULP energy -155949.457357 kJ/mol
# GULP energy per Si atom -5569.623477 kJ/mol
# Density = 1.789619 g / cm^3
# Si number density = 17.937014 Si / 1000 Ang^3
#
#
#
# Elastic Constant Matrix: (Units=GPa)
#
#
# Indices 1 2 3 4 5 6 
#
# 1 117.0589 41.7077 54.9344 -0.0006 -15.0364 0.0008
# 2 41.7077 89.0697 50.4921 -0.0007 -8.9818 0.0004
# 3 54.9344 50.4921 131.5314 0.0004 -24.8008 0.0003
# 4 -0.0006 -0.0007 0.0004 22.3544 0.0002 -3.0020
# 5 -15.0364 -8.9818 -24.8008 0.0002 23.2694 -0.0006
# 6 0.0008 0.0004 0.0003 -3.0020 -0.0006 50.7625
#
#
#
# Elastic Compliance Matrix: (Units=1/GPa)
#
#
# Indices 1 2 3 4 5 6 
#
# 1 0.011527 -0.003434 -0.002930 0.000000 0.003000 0.000000
# 2 -0.003434 0.015376 -0.004715 0.000000 -0.001309 0.000000
# 3 -0.002930 -0.004715 0.012436 -0.000001 0.009540 0.000000
# 4 0.000000 0.000000 -0.000001 0.045092 0.000000 0.002667
# 5 0.003000 -0.001309 0.009540 0.000000 0.054576 0.000001
# 6 0.000000 0.000000 0.000000 0.002667 0.000001 0.019857
#
#
# Mechanical properties :
#
#
# Convention : Reuss Voigt Hill
#
# Bulk Modulus (GPa) = 58.20932 70.21427 64.21180
# Shear Modulus (GPa) = 26.77388 31.97899 29.37643
#
# Velocity S-wave (km/s) = 3.86769 4.22696 4.05131
# Velocity P-wave (km/s) = 7.24347 7.94058 7.60002
#
# Compressibility (1/GPa) = 0.01717938
#
# Stress axis : x y z
#
# Youngs Moduli (GPa) = 86.75526 65.03619 80.41425
#
# Poissons Ratio (x) = 0.22332 0.23564
# Poissons Ratio (y) = 0.29790 0.37918
# Poissons Ratio (z) = 0.25422 0.30667
#
# Static dielectric constant tensor:
#      x y z
#    x 1.653970 0.000000 -0.017880 
#    y 0.000000 1.729760 0.000000 
#    z -0.017880 0.000000 1.587830 
# 
# From -- ./inp_files/289682.got.cif
#   From: 2010.05.17/outbox.cif.g08.bks.cpg/sg15_145_cif.got.tgz:289682.got - 2010.06.03 18:47:42.
