data_PCOD9265621
_publ_section_title
;
Structure prediction by ZEFSAII (Michael W. Deem and Ramdas Pophale) SiO2 
 PCOD9265621
Probable space group: C 2/C
;
_chemical_formula_sum "Si O2"
_cell_formula_units_Z 56
_cell_length_a 9.000792
_cell_length_b 31.719723
_cell_length_c 11.384770
_cell_angle_alpha 90.000000
_cell_angle_beta 121.912822
_cell_angle_gamma 90.000000
_cell_volume 2759.097643
_symmetry_space_group_name_H-M "C 2/C"
_symmetry_group_IT_number 15
_symmetry_cell_setting 'monoclinic'
loop_
_space_group_symop_operation_xyz
x,y,z
-x,y,1/2-z
-x,-y,-z
x,-y,1/2+z
1/2+x,1/2+y,z
1/2-x,1/2+y,1/2-z
1/2-x,1/2-y,-z
1/2+x,1/2-y,1/2+z
loop_
_atom_site_type_symbol
_atom_site_label
_atom_site_fract_x
_atom_site_fract_y
_atom_site_fract_z
Si Si1 0.355726 0.287128 0.793421
Si Si2 0.196262 0.372887 0.378511
Si Si3 0.198276 0.628078 0.300061
Si Si4 0.707355 0.576337 0.363524
Si Si5 0.830381 0.777168 0.425780
Si Si6 0.543013 0.601692 0.898619
Si Si7 0.398522 0.506759 0.582667
O O1 0.500000 0.287982 0.750000
O O2 0.262091 0.331867 0.753017
O O3 0.224249 0.249163 0.710899
O O4 0.465751 0.280707 0.958276
O O5 0.214812 0.388165 0.519503
O O6 0.247197 0.323707 0.388246
O O7 0.351233 0.399170 0.378714
O O8 0.000000 0.379923 0.250000
O O9 0.213343 0.584723 0.231476
O O10 0.328127 0.627586 0.465196
O O11 0.000000 0.634184 0.250000
O O12 0.500000 0.582921 0.250000
O O13 0.731851 0.532286 0.445000
O O14 0.750000 0.750000 0.500000
O O15 0.500000 0.617064 0.750000
O O16 0.640179 0.556316 0.934849
O O17 0.500000 0.503917 0.750000
O O18 0.500000 0.500000 0.500000
#
# Coordination Sequence:
#
# PCOD9265621 Si02
#       7
#     8   8   8   8   8   8   8
#     4  10  20  39  65  94 128 169 220 277 331 396
#     4  12  23  38  67 100 132 170 221 275 334 399
#     4  12  25  43  65  97 132 177 225 275 332 403
#     4  11  20  41  71  96 124 176 224 273 334 394
#     4  10  19  36  62  97 126 162 219 277 329 387
#     4  11  24  44  62  92 136 176 211 270 339 398
#     4  10  19  37  70  96 128 174 219 271 337 399
#
# _framework density 20.296491
#
# number of rings (size 3 to 8) (size 9 to 14) (size 15 to 20)
#    0.000    1.143    4.286    4.286    2.000    0.000 
#    0.000    2.857    0.000    0.000    0.000    0.000 
#    0.000    0.000    0.000    0.000    0.000    0.000 
#
# Total GULP energy -155927.924871 kJ/mol
# GULP energy per Si atom -5568.854460 kJ/mol
# Density = 2.025030 g / cm^3
# Si number density = 20.296491 Si / 1000 Ang^3
#
#
#
# Elastic Constant Matrix: (Units=GPa)
#
#
# Indices 1 2 3 4 5 6 
#
# 1 50.9282 10.1457 46.0361 0.0000 14.7265 0.0000
# 2 10.1457 121.0553 37.8852 0.0000 9.2699 0.0000
# 3 46.0361 37.8852 134.0556 0.0000 11.1166 0.0000
# 4 0.0000 0.0000 0.0000 49.6476 0.0000 -10.0902
# 5 14.7265 9.2699 11.1166 0.0000 34.0482 0.0000
# 6 0.0000 0.0000 0.0000 -10.0902 0.0000 3.9149
#
#
#
# Elastic Compliance Matrix: (Units=1/GPa)
#
#
# Indices 1 2 3 4 5 6 
#
# 1 0.031941 0.001428 -0.010478 0.000000 -0.010783 0.000000
# 2 0.001428 0.009220 -0.002916 0.000000 -0.002176 0.000000
# 3 -0.010478 -0.002916 0.011759 0.000000 0.001487 0.000000
# 4 0.000000 0.000000 0.000000 0.042298 0.000000 0.109018
# 5 -0.010783 -0.002176 0.001487 0.000000 0.034141 0.000000
# 6 0.000000 0.000000 0.000000 0.109018 0.000000 0.536412
#
#
# Mechanical properties :
#
#
# Convention : Reuss Voigt Hill
#
# Bulk Modulus (GPa) = 34.49744 54.90811 44.70278
# Shear Modulus (GPa) = 7.14935 31.65362 19.40149
#
# Velocity S-wave (km/s) = 1.87886 3.95341 3.09512
# Velocity P-wave (km/s) = 4.66267 6.92467 5.90303
#
# Compressibility (1/GPa) = 0.02898766
#
# Stress axis : x y z
#
# Youngs Moduli (GPa) = 31.30821 108.45871 85.04430
#
# Poissons Ratio (x) = -0.15487 0.89110
# Poissons Ratio (y) = -0.04471 0.24796
# Poissons Ratio (z) = 0.32805 0.31622
#
# Static dielectric constant tensor:
#      x y z
#    x 1.742440 0.000000 -0.038340 
#    y 0.000000 1.802510 0.000000 
#    z -0.038340 0.000000 1.767190 
# 
# From -- ./inp_files/82680.got.cif
#   From: 2010.05.17/outbox.cif.g08.bks.cpg/sg15_42_cif.got.tgz:82680.got - 2010.06.03 18:47:42.
