data_PCOD9265110
_publ_section_title
;
Structure prediction by ZEFSAII (Michael W. Deem and Ramdas Pophale) SiO2 
 PCOD9265110
Probable space group: C 2/C
;
_chemical_formula_sum "Si O2"
_cell_formula_units_Z 52
_cell_length_a 18.585337
_cell_length_b 16.229759
_cell_length_c 9.666789
_cell_angle_alpha 90.000000
_cell_angle_beta 68.633666
_cell_angle_gamma 90.000000
_cell_volume 2715.441098
_symmetry_space_group_name_H-M "C 2/C"
_symmetry_group_IT_number 15
_symmetry_cell_setting 'monoclinic'
loop_
_space_group_symop_operation_xyz
x,y,z
-x,y,1/2-z
-x,-y,-z
x,-y,1/2+z
1/2+x,1/2+y,z
1/2-x,1/2+y,1/2-z
1/2-x,1/2-y,-z
1/2+x,1/2-y,1/2+z
loop_
_atom_site_type_symbol
_atom_site_label
_atom_site_fract_x
_atom_site_fract_y
_atom_site_fract_z
Si Si1 0.902618 0.245555 0.596564
Si Si2 0.500000 0.548174 0.250000
Si Si3 0.336682 0.517087 0.825501
Si Si4 0.433919 0.304238 0.616427
Si Si5 0.295377 0.408315 0.089027
Si Si6 0.671817 0.798324 0.099314
Si Si7 0.827059 0.198092 0.927979
O O1 0.860651 0.161382 0.569147
O O2 0.867234 0.315835 0.521750
O O3 0.879043 0.242551 0.773163
O O4 0.992615 0.241207 0.501474
O O5 0.574330 0.489734 0.187468
O O6 0.529975 0.611015 0.347974
O O7 0.319925 0.518112 0.674170
O O8 0.306801 0.606810 0.888990
O O9 0.298247 0.441921 0.931721
O O10 0.389997 0.254381 0.769214
O O11 0.372281 0.313455 0.538561
O O12 0.209869 0.370398 0.164748
O O13 0.750000 0.750000 0.000000
O O14 0.750000 0.250000 0.000000
#
# Coordination Sequence:
#
# PCOD9265110 Si02
#       7
#     8   4   8   8   8   8   8
#     4  10  20  36  57  87 114 154 199 246 300 349
#     4  12  22  34  60  94 126 158 186 240 306 376
#     4  11  23  35  55  83 123 156 200 232 308 353
#     4  12  20  37  59  88 122 157 199 244 301 356
#     4  10  21  37  54  85 117 163 196 240 286 363
#     4  10  19  36  58  79 118 158 207 237 284 355
#     4  11  25  39  55  83 122 163 202 249 295 356
#
# _framework density 19.149743000000001
#
# number of rings (size 3 to 8) (size 9 to 14) (size 15 to 20)
#    0.000    1.231    3.077    5.077    4.308    2.462 
#    0.000    0.000    0.000    0.000    0.000   19.385 
#    0.000    0.000    0.000    0.000    0.000    0.000 
#
# Total GULP energy -144873.133565 kJ/mol
# GULP energy per Si atom -5572.043599 kJ/mol
# Density = 1.910616 g / cm^3
# Si number density = 19.149743 Si / 1000 Ang^3
#
#
#
# Elastic Constant Matrix: (Units=GPa)
#
#
# Indices 1 2 3 4 5 6 
#
# 1 73.6440 35.5052 19.4199 0.0000 5.7500 0.0000
# 2 35.5052 44.3288 17.6776 0.0000 -6.3501 0.0000
# 3 19.4199 17.6776 86.3578 0.0000 4.0506 0.0000
# 4 0.0000 0.0000 0.0000 25.3099 0.0000 0.5954
# 5 5.7500 -6.3501 4.0506 0.0000 45.2961 0.0000
# 6 0.0000 0.0000 0.0000 0.5954 0.0000 34.7433
#
#
#
# Elastic Compliance Matrix: (Units=1/GPa)
#
#
# Indices 1 2 3 4 5 6 
#
# 1 0.023590 -0.019258 -0.001100 0.000000 -0.005596 0.000000
# 2 -0.019258 0.040994 -0.004464 0.000000 0.008591 0.000000
# 3 -0.001100 -0.004464 0.012818 0.000000 -0.001632 0.000000
# 4 0.000000 0.000000 0.000000 0.039526 0.000000 -0.000677
# 5 -0.005596 0.008591 -0.001632 0.000000 0.024138 0.000000
# 6 0.000000 0.000000 0.000000 -0.000677 0.000000 0.028794
#
#
# Mechanical properties :
#
#
# Convention : Reuss Voigt Hill
#
# Bulk Modulus (GPa) = 36.02558 38.83733 37.43145
# Shear Modulus (GPa) = 21.85736 29.85173 25.85455
#
# Velocity S-wave (km/s) = 3.38211 3.95252 3.67839
# Velocity P-wave (km/s) = 5.83995 6.41520 6.13432
#
# Compressibility (1/GPa) = 0.02775806
#
# Stress axis : x y z
#
# Youngs Moduli (GPa) = 42.39016 24.39394 78.01831
#
# Poissons Ratio (x) = 0.46977 0.08585
# Poissons Ratio (y) = 0.81633 0.34826
# Poissons Ratio (z) = 0.04665 0.10889
#
# Static dielectric constant tensor:
#      x y z
#    x 1.687340 0.000000 0.026200 
#    y 0.000000 1.724320 0.000000 
#    z 0.026200 0.000000 1.766310 
# 
# From -- ./inp_files/48464.got.cif
#   From: 2010.05.17/outbox.cif.g08.bks.cpg/sg15_25_cif.got.tgz:48464.got - 2010.06.03 18:47:42.
