data_PCOD9265819
_publ_section_title
;
Structure prediction by ZEFSAII (Michael W. Deem and Ramdas Pophale) SiO2 
 PCOD9265819
Probable space group: C 2/C
;
_chemical_formula_sum "Si O2"
_cell_formula_units_Z 56
_cell_length_a 13.988194
_cell_length_b 13.839055
_cell_length_c 21.155659
_cell_angle_alpha 90.000000
_cell_angle_beta 38.700525
_cell_angle_gamma 90.000000
_cell_volume 2560.638123
_symmetry_space_group_name_H-M "C 2/C"
_symmetry_group_IT_number 15
_symmetry_cell_setting 'monoclinic'
loop_
_space_group_symop_operation_xyz
x,y,z
-x,y,1/2-z
-x,-y,-z
x,-y,1/2+z
1/2+x,1/2+y,z
1/2-x,1/2+y,1/2-z
1/2-x,1/2-y,-z
1/2+x,1/2-y,1/2+z
loop_
_atom_site_type_symbol
_atom_site_label
_atom_site_fract_x
_atom_site_fract_y
_atom_site_fract_z
Si Si1 0.784680 0.960835 0.500604
Si Si2 0.831982 0.677571 0.702672
Si Si3 0.901110 0.425848 0.507356
Si Si4 0.247494 0.638285 0.298266
Si Si5 0.837015 0.444663 0.315569
Si Si6 0.083286 0.933483 0.274734
Si Si7 0.511281 0.854944 0.811991
O O1 0.662088 0.877528 0.579040
O O2 0.716438 0.016112 0.475217
O O3 0.768243 0.030177 0.570507
O O4 0.950821 0.925502 0.395570
O O5 0.865441 0.785133 0.708906
O O6 0.768998 0.621085 0.796530
O O7 0.702437 0.655220 0.717194
O O8 0.982821 0.627347 0.598828
O O9 0.811969 0.353690 0.599669
O O10 0.000000 0.500000 0.500000
O O11 0.318542 0.530791 0.261120
O O12 0.102953 0.666244 0.328467
O O13 0.895771 0.546148 0.255214
O O14 0.000000 0.396971 0.250000
O O15 0.000000 0.941234 0.250000
O O16 0.500000 0.801181 0.750000
#
# Coordination Sequence:
#
# PCOD9265819 Si02
#       7
#     8   8   8   8   8   8   8
#     4  10  19  36  70  90 122 179 214 269 337 396
#     4  12  25  42  67  98 135 174 229 281 327 406
#     4  12  19  44  71  88 129 187 226 259 343 413
#     4  12  25  41  68 100 130 175 229 275 334 399
#     4   9  17  38  64  86 120 169 211 261 332 389
#     4  12  24  43  65 100 137 174 224 288 331 393
#     4   9  18  40  66  89 121 174 216 261 334 402
#
# _framework density 21.86955
#
# number of rings (size 3 to 8) (size 9 to 14) (size 15 to 20)
#    0.000    1.429    8.571    0.000    0.000    2.857 
#    5.143    2.143    0.000    0.000    0.000    0.000 
#    0.000    0.000    0.000    0.000    0.000    0.000 
#
# Total GULP energy -156075.831154 kJ/mol
# GULP energy per Si atom -5574.136827 kJ/mol
# Density = 2.181977 g / cm^3
# Si number density = 21.869550 Si / 1000 Ang^3
#
#
#
# Elastic Constant Matrix: (Units=GPa)
#
#
# Indices 1 2 3 4 5 6 
#
# 1 58.9232 -3.8053 1.3813 0.0000 5.1254 0.0000
# 2 -3.8053 50.9503 -4.1041 -0.0001 6.9433 0.0000
# 3 1.3813 -4.1041 94.5290 -0.0003 2.6284 0.0001
# 4 0.0000 -0.0001 -0.0003 16.6530 0.0001 -1.1415
# 5 5.1254 6.9433 2.6284 0.0001 29.4627 0.0000
# 6 0.0000 0.0000 0.0001 -1.1415 0.0000 14.5142
#
#
#
# Elastic Compliance Matrix: (Units=1/GPa)
#
#
# Indices 1 2 3 4 5 6 
#
# 1 0.017385 0.001759 -0.000082 0.000000 -0.003432 0.000000
# 2 0.001759 0.020554 0.001012 0.000000 -0.005240 0.000000
# 3 -0.000082 0.001012 0.010657 0.000000 -0.001175 0.000000
# 4 0.000000 0.000000 0.000000 0.060375 0.000000 0.004748
# 5 -0.003432 -0.005240 -0.001175 0.000000 0.035878 0.000000
# 6 0.000000 0.000000 0.000000 0.004748 0.000000 0.069271
#
#
# Mechanical properties :
#
#
# Convention : Reuss Voigt Hill
#
# Bulk Modulus (GPa) = 18.52702 21.26070 19.89386
# Shear Modulus (GPa) = 22.05244 26.18803 24.12024
#
# Velocity S-wave (km/s) = 3.17892 3.46420 3.32462
# Velocity P-wave (km/s) = 4.68658 5.07381 4.88403
#
# Compressibility (1/GPa) = 0.05397522
#
# Stress axis : x y z
#
# Youngs Moduli (GPa) = 57.51990 48.65216 93.83868
#
# Poissons Ratio (x) = -0.08560 0.00772
# Poissons Ratio (y) = -0.10121 -0.09500
# Poissons Ratio (z) = 0.00473 -0.04925
#
# Static dielectric constant tensor:
#      x y z
#    x 1.909510 0.000000 0.013530 
#    y 0.000000 1.875290 0.000000 
#    z 0.013530 0.000000 1.776200 
# 
# From -- ./inp_files/244510.got.cif
#   From: 2010.05.17/outbox.cif.g08.bks.cpg/sg15_123_cif.got.tgz:244510.got - 2010.06.03 18:47:42.
