data_PCOD9265378
_publ_section_title
;
Structure prediction by ZEFSAII (Michael W. Deem and Ramdas Pophale) SiO2 
 PCOD9265378
Probable space group: C 2/C
;
_chemical_formula_sum "Si O2"
_cell_formula_units_Z 64
_cell_length_a 25.545332
_cell_length_b 11.177136
_cell_length_c 15.574514
_cell_angle_alpha 90.000000
_cell_angle_beta 42.618982
_cell_angle_gamma 90.000000
_cell_volume 3011.078679
_symmetry_space_group_name_H-M "C 2/C"
_symmetry_group_IT_number 15
_symmetry_cell_setting 'monoclinic'
loop_
_space_group_symop_operation_xyz
x,y,z
-x,y,1/2-z
-x,-y,-z
x,-y,1/2+z
1/2+x,1/2+y,z
1/2-x,1/2+y,1/2-z
1/2-x,1/2-y,-z
1/2+x,1/2-y,1/2+z
loop_
_atom_site_type_symbol
_atom_site_label
_atom_site_fract_x
_atom_site_fract_y
_atom_site_fract_z
Si Si1 0.622372 0.841729 0.927461
Si Si2 0.423845 0.962049 0.894071
Si Si3 0.786661 0.080052 0.268041
Si Si4 0.329260 0.253105 0.577744
Si Si5 0.345091 0.334438 0.242621
Si Si6 0.411166 0.583398 0.844988
Si Si7 0.702582 0.901816 0.050096
Si Si8 0.656806 0.659891 0.035155
O O1 0.701869 0.919333 0.824807
O O2 0.605907 0.773889 0.858947
O O3 0.566918 0.926635 0.050337
O O4 0.641351 0.727653 0.965402
O O5 0.500000 0.933063 0.750000
O O6 0.360190 0.000185 0.898779
O O7 0.388281 0.853933 0.990395
O O8 0.761914 0.091691 0.397210
O O9 0.837344 0.960584 0.200394
O O10 0.826083 0.194603 0.177601
O O11 0.243972 0.210870 0.650935
O O12 0.358879 0.359761 0.482213
O O13 0.378096 0.368441 0.295188
O O14 0.500000 0.617854 0.750000
O O15 0.402556 0.440545 0.864896
O O16 0.661492 0.773304 0.093754
O O17 0.758555 0.902787 0.063541
#
# Coordination Sequence:
#
# PCOD9265378 Si02
#       8
#     8   8   8   8   8   8   8   8
#     4   9  20  35  64  90 112 160 210 255 311 355
#     4  10  19  36  60  87 129 161 200 253 306 374
#     4   9  17  34  61  91 119 146 204 267 302 348
#     4  11  21  37  63  93 118 166 208 254 312 365
#     4  11  20  41  65  88 124 156 211 266 303 365
#     4  12  25  38  59  89 131 168 202 250 321 382
#     4   9  17  34  61  90 114 158 207 257 304 352
#     4   9  17  35  59  85 118 151 212 252 300 364
#
# _framework density 21.254840999999999
#
# number of rings (size 3 to 8) (size 9 to 14) (size 15 to 20)
#    0.000    2.250    3.750    1.500    0.000    2.000 
#    0.000    2.500   13.750    1.500    0.000    0.000 
#    0.000    0.000    0.000    0.000    0.000    0.000 
#
# Total GULP energy -178351.113234 kJ/mol
# GULP energy per Si atom -5573.472289 kJ/mol
# Density = 2.120646 g / cm^3
# Si number density = 21.254841 Si / 1000 Ang^3
#
#
#
# Elastic Constant Matrix: (Units=GPa)
#
#
# Indices 1 2 3 4 5 6 
#
# 1 45.2535 16.9887 27.1921 0.0000 -0.4792 0.0000
# 2 16.9887 78.9644 38.0490 -0.0001 -4.2228 0.0001
# 3 27.1921 38.0490 79.3366 0.0000 -10.3156 0.0000
# 4 0.0000 -0.0001 0.0000 34.1480 0.0000 4.8186
# 5 -0.4792 -4.2228 -10.3156 0.0000 13.8104 -0.0001
# 6 0.0000 0.0001 0.0000 4.8186 -0.0001 3.9914
#
#
#
# Elastic Compliance Matrix: (Units=1/GPa)
#
#
# Indices 1 2 3 4 5 6 
#
# 1 0.028612 -0.001778 -0.009853 0.000000 -0.006910 0.000000
# 2 -0.001778 0.016592 -0.007417 0.000000 -0.000528 -0.000001
# 3 -0.009853 -0.007417 0.021264 0.000000 0.013274 0.000000
# 4 0.000000 0.000000 0.000000 0.035297 0.000000 -0.042612
# 5 -0.006910 -0.000528 0.013274 0.000000 0.081923 0.000002
# 6 0.000000 -0.000001 0.000000 -0.042612 0.000002 0.301977
#
#
# Mechanical properties :
#
#
# Convention : Reuss Voigt Hill
#
# Bulk Modulus (GPa) = 35.24308 40.89046 38.06677
# Shear Modulus (GPa) = 9.37703 18.47826 13.92764
#
# Velocity S-wave (km/s) = 2.10269 2.95170 2.56260
# Velocity P-wave (km/s) = 4.74471 5.55848 5.16764
#
# Compressibility (1/GPa) = 0.02837436
#
# Stress axis : x y z
#
# Youngs Moduli (GPa) = 34.95005 60.27039 47.02729
#
# Poissons Ratio (x) = 0.10715 0.46334
# Poissons Ratio (y) = 0.06214 0.34878
# Poissons Ratio (z) = 0.34435 0.44700
#
# Static dielectric constant tensor:
#      x y z
#    x 1.809420 0.000000 0.028340 
#    y 0.000000 1.818520 0.000000 
#    z 0.028340 0.000000 1.802810 
# 
# From -- ./inp_files/177798.got.cif
#   From: 2010.05.17/outbox.cif.g08.bks.cpg/sg15_89_cif.got.tgz:177798.got - 2010.06.03 18:47:42.
