data_PCOD9265685
_publ_section_title
;
Structure prediction by ZEFSAII (Michael W. Deem and Ramdas Pophale) SiO2 
 PCOD9265685
Probable space group: C 2/C
;
_chemical_formula_sum "Si O2"
_cell_formula_units_Z 64
_cell_length_a 13.504233
_cell_length_b 12.545025
_cell_length_c 25.581581
_cell_angle_alpha 90.000000
_cell_angle_beta 140.613780
_cell_angle_gamma 90.000000
_cell_volume 2749.989402
_symmetry_space_group_name_H-M "C 2/C"
_symmetry_group_IT_number 15
_symmetry_cell_setting 'monoclinic'
loop_
_space_group_symop_operation_xyz
x,y,z
-x,y,1/2-z
-x,-y,-z
x,-y,1/2+z
1/2+x,1/2+y,z
1/2-x,1/2+y,1/2-z
1/2-x,1/2-y,-z
1/2+x,1/2-y,1/2+z
loop_
_atom_site_type_symbol
_atom_site_label
_atom_site_fract_x
_atom_site_fract_y
_atom_site_fract_z
Si Si1 0.865809 0.294235 0.451836
Si Si2 0.136117 0.241240 0.502298
Si Si3 0.047156 0.893918 0.329272
Si Si4 0.668674 0.037760 0.809300
Si Si5 0.172290 0.779565 0.811412
Si Si6 0.036023 0.692349 0.131505
Si Si7 0.985357 0.030283 0.393511
Si Si8 0.254003 0.076158 0.065330
O O1 0.733373 0.380414 0.405121
O O2 0.779899 0.179489 0.412543
O O3 0.987950 0.316820 0.455780
O O4 0.954553 0.281373 0.542947
O O5 0.250000 0.250000 0.500000
O O6 0.240446 0.260994 0.597154
O O7 0.042464 0.135469 0.445860
O O8 0.007526 0.004036 0.341888
O O9 0.000000 0.887532 0.250000
O O10 0.974881 0.793611 0.333282
O O11 0.500000 0.985524 0.750000
O O12 0.646937 0.157628 0.781137
O O13 0.803127 0.986134 0.830166
O O14 0.737284 0.028502 0.895658
O O15 0.288200 0.831986 0.816055
O O16 0.000000 0.825012 0.750000
O O17 0.920097 0.601253 0.106384
O O18 0.105041 0.943006 0.467757
#
# Coordination Sequence:
#
# PCOD9265685 Si02
#       8
#     8   8   8   8   8   8   8   8
#     4  10  19  38  62  93 125 161 214 268 315 392
#     4  11  24  41  64  89 122 177 228 262 321 397
#     4  11  22  36  63  98 132 170 210 267 338 384
#     4  11  22  36  61  99 124 154 211 271 333 374
#     4  10  21  39  64  93 130 169 207 271 340 385
#     4  10  19  36  63  96 131 163 211 261 330 392
#     4  12  20  42  65  90 129 168 212 274 323 392
#     4  11  18  34  68  97 117 159 208 268 324 372
#
# _framework density 23.272817
#
# number of rings (size 3 to 8) (size 9 to 14) (size 15 to 20)
#    0.000    1.250    6.250    1.875    0.000    3.000 
#    2.250    1.250    2.750    0.000    0.000    0.000 
#    0.000    0.000    0.000    0.000    0.000    0.000 
#
# Total GULP energy -178268.220982 kJ/mol
# GULP energy per Si atom -5570.881906 kJ/mol
# Density = 2.321985 g / cm^3
# Si number density = 23.272817 Si / 1000 Ang^3
#
#
#
# Elastic Constant Matrix: (Units=GPa)
#
#
# Indices 1 2 3 4 5 6 
#
# 1 204.9054 27.2116 71.9736 0.0000 37.3849 0.0000
# 2 27.2116 19.9842 9.8796 0.0000 10.5675 0.0000
# 3 71.9736 9.8796 96.6254 0.0000 18.4913 0.0000
# 4 0.0000 0.0000 0.0000 -1.5242 0.0000 -6.6321
# 5 37.3849 10.5675 18.4913 0.0000 57.5274 0.0000
# 6 0.0000 0.0000 0.0000 -6.6321 0.0000 19.3467
#
#
#
# Elastic Compliance Matrix: (Units=1/GPa)
#
#
# Indices 1 2 3 4 5 6 
#
# 1 0.007918 -0.007232 -0.004718 0.000000 -0.002300 0.000000
# 2 -0.007232 0.063491 0.000243 0.000000 -0.007041 0.000000
# 3 -0.004718 0.000243 0.014130 0.000000 -0.001520 0.000000
# 4 0.000000 0.000000 0.000000 -0.263317 0.000000 -0.090265
# 5 -0.002300 -0.007041 -0.001520 0.000000 0.020660 0.000000
# 6 0.000000 0.000000 0.000000 -0.090265 0.000000 0.020745
#
#
# Mechanical properties :
#
#
# Convention : Reuss Voigt Hill
#
# Bulk Modulus (GPa) = 16.09702 59.96053 38.02878
# Shear Modulus (GPa) = -54.20015 29.23331 -12.48342
#
# Velocity S-wave (km/s) = -4.83111 3.54801 -2.31853
# Velocity P-wave (km/s) = 4.91811 6.52722 3.03454
#
# Compressibility (1/GPa) = 0.06212328
#
# Stress axis : x y z
#
# Youngs Moduli (GPa) = 126.30026 15.75032 70.77321
#
# Poissons Ratio (x) = 0.11391 0.33390
# Poissons Ratio (y) = 0.91344 -0.01719
# Poissons Ratio (z) = 0.59588 -0.00383
#
# Static dielectric constant tensor:
#      x y z
#    x 1.924250 0.000000 0.027890 
#    y 0.000000 1.940760 0.000000 
#    z 0.027890 0.000000 1.954370 
# 
# From -- ./inp_files/293098.got.cif
#   From: 2010.05.17/outbox.cif.g08.bks.cpg/sg15_147_cif.got.tgz:293098.got - 2010.06.03 18:47:42.
