data_PCOD9265650
_publ_section_title
;
Structure prediction by ZEFSAII (Michael W. Deem and Ramdas Pophale) SiO2 
 PCOD9265650
Probable space group: C 2/C
;
_chemical_formula_sum "Si O2"
_cell_formula_units_Z 64
_cell_length_a 11.370211
_cell_length_b 21.391957
_cell_length_c 21.325987
_cell_angle_alpha 90.000000
_cell_angle_beta 145.226817
_cell_angle_gamma 90.000000
_cell_volume 2958.378694
_symmetry_space_group_name_H-M "C 2/C"
_symmetry_group_IT_number 15
_symmetry_cell_setting 'monoclinic'
loop_
_space_group_symop_operation_xyz
x,y,z
-x,y,1/2-z
-x,-y,-z
x,-y,1/2+z
1/2+x,1/2+y,z
1/2-x,1/2+y,1/2-z
1/2-x,1/2-y,-z
1/2+x,1/2-y,1/2+z
loop_
_atom_site_type_symbol
_atom_site_label
_atom_site_fract_x
_atom_site_fract_y
_atom_site_fract_z
Si Si1 0.655881 0.145589 0.067018
Si Si2 0.361362 0.015014 0.086740
Si Si3 0.729394 0.535967 0.288319
Si Si4 0.974041 0.241388 0.545723
Si Si5 0.557293 0.688502 0.844766
Si Si6 0.908720 0.909088 0.568991
Si Si7 0.258341 0.869929 0.628534
Si Si8 0.753377 0.431376 0.403911
O O1 0.734703 0.102612 0.160147
O O2 0.635671 0.217729 0.077485
O O3 0.790956 0.136704 0.064291
O O4 0.431862 0.114755 0.955135
O O5 0.608998 0.017887 0.195853
O O6 0.270000 0.066234 0.093435
O O7 0.335762 0.038897 0.003985
O O8 0.251108 0.948118 0.043769
O O9 0.510747 0.539901 0.159574
O O10 0.732243 0.483944 0.342807
O O11 0.786257 0.291507 0.468058
O O12 0.068011 0.218587 0.653055
O O13 0.858974 0.183530 0.462409
O O14 0.500000 0.711474 0.750000
O O15 0.565610 0.613768 0.842231
O O16 0.104041 0.880032 0.619067
O O17 0.500000 0.855138 0.750000
#
# Coordination Sequence:
#
# PCOD9265650 Si02
#       8
#     8   8   8   8   8   8   8   8
#     4  10  21  38  60  94 126 173 216 279 338 388
#     4  11  21  41  60  97 133 169 222 275 342 394
#     4  11  21  37  64  99 133 167 221 282 337 408
#     4  10  23  41  61  88 133 170 225 284 325 404
#     4  10  21  35  61  94 121 170 219 277 341 386
#     4  12  24  38  68  98 136 181 221 274 346 413
#     4  12  25  43  65  94 135 187 232 274 336 413
#     4  10  19  36  63  90 133 161 210 283 333 395
#
# _framework density 21.633469000000002
#
# number of rings (size 3 to 8) (size 9 to 14) (size 15 to 20)
#    0.000    1.250    5.000    1.875    3.500    1.500 
#    0.000    0.000    0.000    0.000    0.000    0.000 
#    0.000    0.000    0.000    0.000    0.000    0.000 
#
# Total GULP energy -178493.680883 kJ/mol
# GULP energy per Si atom -5577.927528 kJ/mol
# Density = 2.158423 g / cm^3
# Si number density = 21.633469 Si / 1000 Ang^3
#
#
#
# Elastic Constant Matrix: (Units=GPa)
#
#
# Indices 1 2 3 4 5 6 
#
# 1 150.7379 51.1127 26.2630 0.0003 8.6862 -0.0001
# 2 51.1127 83.3231 27.4033 0.0002 -4.0847 0.0002
# 3 26.2630 27.4033 58.6879 0.0016 -7.3712 -0.0007
# 4 0.0003 0.0002 0.0016 15.4703 0.0004 -6.5615
# 5 8.6862 -4.0847 -7.3712 0.0004 25.1871 -0.0004
# 6 -0.0001 0.0002 -0.0007 -6.5615 -0.0004 35.4703
#
#
#
# Elastic Compliance Matrix: (Units=1/GPa)
#
#
# Indices 1 2 3 4 5 6 
#
# 1 0.008984 -0.004990 -0.002264 0.000000 -0.004570 0.000000
# 2 -0.004990 0.016954 -0.005317 0.000000 0.002914 0.000000
# 3 -0.002264 -0.005317 0.021308 -0.000002 0.006155 0.000000
# 4 0.000000 0.000000 -0.000002 0.070143 -0.000002 0.012975
# 5 -0.004570 0.002914 0.006155 -0.000002 0.043553 0.000000
# 6 0.000000 0.000000 0.000000 0.012975 0.000000 0.030593
#
#
# Mechanical properties :
#
#
# Convention : Reuss Voigt Hill
#
# Bulk Modulus (GPa) = 45.24285 55.81189 50.52737
# Shear Modulus (GPa) = 22.31673 27.75687 25.03680
#
# Velocity S-wave (km/s) = 3.21531 3.58586 3.40563
# Velocity P-wave (km/s) = 5.89432 6.55739 6.23468
#
# Compressibility (1/GPa) = 0.02210294
#
# Stress axis : x y z
#
# Youngs Moduli (GPa) = 111.30820 58.98185 46.92993
#
# Poissons Ratio (x) = 0.29435 0.10626
# Poissons Ratio (y) = 0.55548 0.24954
# Poissons Ratio (z) = 0.25203 0.31362
#
# Static dielectric constant tensor:
#      x y z
#    x 1.878750 0.000000 0.045370 
#    y 0.000000 1.845690 0.000000 
#    z 0.045370 0.000000 1.870280 
# 
# From -- ./inp_files/240428.got.cif
#   From: 2010.05.17/outbox.cif.g08.bks.cpg/sg15_121_cif.got.tgz:240428.got - 2010.06.03 18:47:42.
