data_PCOD9265961
_publ_section_title
;
Structure prediction by ZEFSAII (Michael W. Deem and Ramdas Pophale) SiO2 
 PCOD9265961
Probable space group: C 2/C
;
_chemical_formula_sum "Si O2"
_cell_formula_units_Z 48
_cell_length_a 13.427083
_cell_length_b 13.832314
_cell_length_c 10.654069
_cell_angle_alpha 90.000000
_cell_angle_beta 117.486114
_cell_angle_gamma 90.000000
_cell_volume 1755.398477
_symmetry_space_group_name_H-M "C 2/C"
_symmetry_group_IT_number 15
_symmetry_cell_setting 'monoclinic'
loop_
_space_group_symop_operation_xyz
x,y,z
-x,y,1/2-z
-x,-y,-z
x,-y,1/2+z
1/2+x,1/2+y,z
1/2-x,1/2+y,1/2-z
1/2-x,1/2-y,-z
1/2+x,1/2-y,1/2+z
loop_
_atom_site_type_symbol
_atom_site_label
_atom_site_fract_x
_atom_site_fract_y
_atom_site_fract_z
Si Si1 0.117643 0.999622 0.945858
Si Si2 0.601044 0.908266 0.902971
Si Si3 0.634856 0.285755 0.864271
Si Si4 0.052566 0.614935 0.964189
Si Si5 0.132508 0.083832 0.702538
Si Si6 0.787606 0.303867 0.738677
O O1 0.096450 0.889583 0.890962
O O2 0.178089 0.044199 0.860517
O O3 0.177683 0.980221 0.113138
O O4 0.001624 0.060350 0.887270
O O5 0.500000 0.875786 0.750000
O O6 0.563737 0.889297 0.025488
O O7 0.700428 0.847370 0.894022
O O8 0.591411 0.024841 0.901593
O O9 0.667702 0.294814 0.737340
O O10 0.750000 0.250000 0.000000
O O11 0.554911 0.208613 0.881702
O O12 0.144248 0.625832 0.127776
O O13 0.157448 0.197154 0.716352
#
# Coordination Sequence:
#
# PCOD9265961 Si02
#       6
#     8   8   8   8   8   8
#     4  10  21  36  59  93 121 165 213 258 321 376
#     4   9  19  33  56  86 105 152 202 250 296 375
#     4  10  19  37  58  86 119 167 200 256 325 385
#     4   9  18  34  56  81 114 147 205 244 301 376
#     4  10  21  36  60  93 122 164 214 264 310 383
#     4  10  20  36  62  82 120 164 202 253 327 379
#
# _framework density 27.34422
#
# number of rings (size 3 to 8) (size 9 to 14) (size 15 to 20)
#    0.000    2.333    3.333    0.000    7.000    1.333 
#    3.000    0.000    3.667    1.000    0.000    0.000 
#    0.000    0.000    0.000    0.000    0.000    0.000 
#
# Total GULP energy -134149.676524 kJ/mol
# GULP energy per Si atom -5589.569855 kJ/mol
# Density = 2.728198 g / cm^3
# Si number density = 27.344220 Si / 1000 Ang^3
#
#
#
# Elastic Constant Matrix: (Units=GPa)
#
#
# Indices 1 2 3 4 5 6 
#
# 1 127.6361 64.6857 50.3199 0.0000 -48.4631 0.0000
# 2 64.6857 160.4359 58.8277 0.0000 -37.5552 0.0000
# 3 50.3199 58.8277 169.2320 0.0000 -27.2290 0.0000
# 4 0.0000 0.0000 0.0000 48.8486 0.0000 -15.6057
# 5 -48.4631 -37.5552 -27.2290 0.0000 59.8441 0.0000
# 6 0.0000 0.0000 0.0000 -15.6057 0.0000 43.9656
#
#
#
# Elastic Compliance Matrix: (Units=1/GPa)
#
#
# Indices 1 2 3 4 5 6 
#
# 1 0.012886 -0.002741 -0.001593 0.000000 0.007990 0.000000
# 2 -0.002741 0.008535 -0.001777 0.000000 0.002328 0.000000
# 3 -0.001593 -0.001777 0.007136 0.000000 0.000841 0.000000
# 4 0.000000 0.000000 0.000000 0.023090 0.000000 0.008196
# 5 0.007990 0.002328 0.000841 0.000000 0.025024 0.000000
# 6 0.000000 0.000000 0.000000 0.008196 0.000000 0.025654
#
#
# Mechanical properties :
#
#
# Convention : Reuss Voigt Hill
#
# Bulk Modulus (GPa) = 61.22242 89.44116 75.33179
# Shear Modulus (GPa) = 41.66953 49.42972 45.54963
#
# Velocity S-wave (km/s) = 3.90794 4.25630 4.08583
# Velocity P-wave (km/s) = 6.54223 7.54554 7.06172
#
# Compressibility (1/GPa) = 0.01633389
#
# Stress axis : x y z
#
# Youngs Moduli (GPa) = 77.60474 117.16958 140.13577
#
# Poissons Ratio (x) = 0.32114 0.22325
# Poissons Ratio (y) = 0.21270 0.24906
# Poissons Ratio (z) = 0.12363 0.20824
#
# Static dielectric constant tensor:
#      x y z
#    x 1.743200 0.000000 0.179830 
#    y 0.000000 2.063560 0.000000 
#    z 0.179830 0.000000 2.121800 
# 
# From -- ./inp_files/103765.got.cif
#   From: 2010.05.17/outbox.cif.g08.bks.cpg/sg15_52_cif.got.tgz:103765.got - 2010.06.03 18:47:42.
