data_PCOD9265712
_publ_section_title
;
Structure prediction by ZEFSAII (Michael W. Deem and Ramdas Pophale) SiO2 
 PCOD9265712
Probable space group: C 2/C
;
_chemical_formula_sum "Si O2"
_cell_formula_units_Z 56
_cell_length_a 14.006992
_cell_length_b 18.873838
_cell_length_c 11.080039
_cell_angle_alpha 90.000000
_cell_angle_beta 70.347030
_cell_angle_gamma 90.000000
_cell_volume 2758.548370
_symmetry_space_group_name_H-M "C 2/C"
_symmetry_group_IT_number 15
_symmetry_cell_setting 'monoclinic'
loop_
_space_group_symop_operation_xyz
x,y,z
-x,y,1/2-z
-x,-y,-z
x,-y,1/2+z
1/2+x,1/2+y,z
1/2-x,1/2+y,1/2-z
1/2-x,1/2-y,-z
1/2+x,1/2-y,1/2+z
loop_
_atom_site_type_symbol
_atom_site_label
_atom_site_fract_x
_atom_site_fract_y
_atom_site_fract_z
Si Si1 0.500000 0.333434 0.750000
Si Si2 0.670714 0.366411 0.334069
Si Si3 0.998140 0.393606 0.893417
Si Si4 0.619342 0.873077 0.173864
Si Si5 0.500000 0.431855 0.250000
Si Si6 0.851284 0.507820 0.030924
Si Si7 0.073477 0.262173 0.010441
Si Si8 0.130063 0.953225 0.593195
O O1 0.497781 0.284574 0.870163
O O2 0.593737 0.387100 0.690993
O O3 0.792334 0.369301 0.264395
O O4 0.593103 0.386765 0.261846
O O5 0.636628 0.290515 0.400314
O O6 0.650049 0.421431 0.452920
O O7 0.085881 0.449946 0.894217
O O8 0.000000 0.384267 0.750000
O O9 0.016268 0.320048 0.954190
O O10 0.897477 0.431455 0.986066
O O11 0.500000 0.864827 0.250000
O O12 0.642787 0.809725 0.069701
O O13 0.627949 0.946669 0.099282
O O14 0.454373 0.485874 0.368527
O O15 0.732469 0.513503 0.102583
#
# Coordination Sequence:
#
# PCOD9265712 Si02
#       8
#     4   8   8   8   4   8   8   8
#     4   9  18  38  64  90 111 152 212 264 293 360
#     4  10  22  37  60  87 122 160 204 254 311 374
#     4  10  21  36  57  89 129 163 196 256 323 380
#     4  10  19  36  64  90 112 155 213 262 290 357
#     4  11  22  36  60  88 119 164 198 258 323 370
#     4   9  20  37  59  87 115 160 213 256 304 361
#     4  10  20  37  60  88 122 159 207 249 312 371
#     4   9  20  39  62  86 116 156 217 264 299 352
#
# _framework density 20.300530999999999
#
# number of rings (size 3 to 8) (size 9 to 14) (size 15 to 20)
#    0.000    2.286    0.714    1.286    1.000    6.857 
#    1.286    0.000    0.000    2.571    0.000    0.000 
#    0.000    0.000    0.000    0.000    0.000    0.000 
#
# Total GULP energy -156210.089040 kJ/mol
# GULP energy per Si atom -5578.931751 kJ/mol
# Density = 2.025433 g / cm^3
# Si number density = 20.300531 Si / 1000 Ang^3
#
#
#
# Elastic Constant Matrix: (Units=GPa)
#
#
# Indices 1 2 3 4 5 6 
#
# 1 139.0857 64.3369 48.1121 0.0000 1.4711 0.0000
# 2 64.3369 101.1915 41.7688 0.0000 1.7420 0.0000
# 3 48.1121 41.7688 70.9378 0.0000 1.6362 0.0000
# 4 0.0000 0.0000 0.0000 17.2164 0.0000 2.6462
# 5 1.4711 1.7420 1.6362 0.0000 29.3465 0.0000
# 6 0.0000 0.0000 0.0000 2.6462 0.0000 11.1050
#
#
#
# Elastic Compliance Matrix: (Units=1/GPa)
#
#
# Indices 1 2 3 4 5 6 
#
# 1 0.011170 -0.005251 -0.004484 0.000000 0.000002 0.000000
# 2 -0.005251 0.015527 -0.005573 0.000000 -0.000348 0.000000
# 3 -0.004484 -0.005573 0.020433 0.000000 -0.000584 0.000000
# 4 0.000000 0.000000 0.000000 0.060293 0.000000 -0.014367
# 5 0.000002 -0.000348 -0.000584 0.000000 0.034129 0.000000
# 6 0.000000 0.000000 0.000000 -0.014367 0.000000 0.093473
#
#
# Mechanical properties :
#
#
# Convention : Reuss Voigt Hill
#
# Bulk Modulus (GPa) = 60.55511 68.85008 64.70259
# Shear Modulus (GPa) = 18.44031 22.00006 20.22018
#
# Velocity S-wave (km/s) = 3.01718 3.29556 3.15944
# Velocity P-wave (km/s) = 6.48320 6.96204 6.72688
#
# Compressibility (1/GPa) = 0.01651388
#
# Stress axis : x y z
#
# Youngs Moduli (GPa) = 89.52751 64.40335 48.94037
#
# Poissons Ratio (x) = 0.33817 0.21945
# Poissons Ratio (y) = 0.47009 0.27276
# Poissons Ratio (z) = 0.40144 0.35893
#
# Static dielectric constant tensor:
#      x y z
#    x 1.747300 0.000000 -0.025100 
#    y 0.000000 1.723080 0.000000 
#    z -0.025100 0.000000 1.756220 
# 
# From -- ./inp_files/98280.got.cif
#   From: 2010.05.17/outbox.cif.g08.bks.cpg/sg15_50_cif.got.tgz:98280.got - 2010.06.03 18:47:42.
