data_PCOD9265082
_publ_section_title
;
Structure prediction by ZEFSAII (Michael W. Deem and Ramdas Pophale) SiO2 
 PCOD9265082
Probable space group: C 2/C
;
_chemical_formula_sum "Si O2"
_cell_formula_units_Z 56
_cell_length_a 22.460873
_cell_length_b 12.509186
_cell_length_c 14.270776
_cell_angle_alpha 90.000000
_cell_angle_beta 36.382681
_cell_angle_gamma 90.000000
_cell_volume 2378.408902
_symmetry_space_group_name_H-M "C 2/C"
_symmetry_group_IT_number 15
_symmetry_cell_setting 'monoclinic'
loop_
_space_group_symop_operation_xyz
x,y,z
-x,y,1/2-z
-x,-y,-z
x,-y,1/2+z
1/2+x,1/2+y,z
1/2-x,1/2+y,1/2-z
1/2-x,1/2-y,-z
1/2+x,1/2-y,1/2+z
loop_
_atom_site_type_symbol
_atom_site_label
_atom_site_fract_x
_atom_site_fract_y
_atom_site_fract_z
Si Si1 0.231327 0.014050 0.817179
Si Si2 0.991478 0.255006 0.390369
Si Si3 0.418599 0.875388 0.066157
Si Si4 0.693321 0.277670 0.922547
Si Si5 0.920351 0.087060 0.629052
Si Si6 0.404980 0.233164 0.263965
Si Si7 0.837810 0.197644 0.448979
O O1 0.351959 0.018017 0.652883
O O2 0.185574 0.043969 0.773331
O O3 0.185912 0.901440 0.905244
O O4 0.197695 0.099911 0.940375
O O5 0.048569 0.350343 0.369121
O O6 0.072383 0.176395 0.238544
O O7 0.944899 0.187692 0.532527
O O8 0.899479 0.279868 0.438000
O O9 0.336364 0.787981 0.133089
O O10 0.514643 0.851315 0.878655
O O11 0.802492 0.272627 0.832943
O O12 0.622323 0.227153 0.092745
O O13 0.934286 0.141341 0.711516
O O14 0.000000 0.000000 0.500000
O O15 0.750000 0.250000 0.500000
#
# Coordination Sequence:
#
# PCOD9265082 Si02
#       7
#     8   8   8   8   8   8   8
#     4  11  22  37  65  97 129 172 226 272 341 405
#     4   9  20  33  56  87 124 169 204 269 339 378
#     4  11  21  41  65  93 133 173 223 284 337 399
#     4  11  24  43  65  95 131 180 222 282 338 403
#     4  10  20  37  60  93 123 165 223 279 326 398
#     4  10  23  42  65  88 136 171 223 278 340 396
#     4  10  19  36  57  87 130 167 210 270 329 396
#
# _framework density 23.545152999999999
#
# number of rings (size 3 to 8) (size 9 to 14) (size 15 to 20)
#    0.000    1.714    2.857    2.143    2.000    0.571 
#    2.571    0.000    0.000    3.429    0.000    0.000 
#    0.000    0.000    0.000    0.000    0.000    0.000 
#
# Total GULP energy -156116.773936 kJ/mol
# GULP energy per Si atom -5575.599069 kJ/mol
# Density = 2.349156 g / cm^3
# Si number density = 23.545153 Si / 1000 Ang^3
#
#
#
# Elastic Constant Matrix: (Units=GPa)
#
#
# Indices 1 2 3 4 5 6 
#
# 1 119.5090 17.0448 10.7884 0.0000 -17.0395 0.0000
# 2 17.0448 32.8510 2.4209 0.0000 -6.6888 0.0000
# 3 10.7884 2.4209 108.2146 0.0000 -6.7279 0.0000
# 4 0.0000 0.0000 0.0000 24.6121 0.0000 -9.5441
# 5 -17.0395 -6.6888 -6.7279 0.0000 37.7327 0.0000
# 6 0.0000 0.0000 0.0000 -9.5441 0.0000 22.2379
#
#
#
# Elastic Compliance Matrix: (Units=1/GPa)
#
#
# Indices 1 2 3 4 5 6 
#
# 1 0.009513 -0.004188 -0.000641 0.000000 0.003439 0.000000
# 2 -0.004188 0.033438 -0.000080 0.000000 0.004022 0.000000
# 3 -0.000641 -0.000080 0.009392 0.000000 0.001371 0.000000
# 4 0.000000 0.000000 0.000000 0.048742 0.000000 0.020919
# 5 0.003439 0.004022 0.001371 0.000000 0.029013 0.000000
# 6 0.000000 0.000000 0.000000 0.020919 0.000000 0.053947
#
#
# Mechanical properties :
#
#
# Convention : Reuss Voigt Hill
#
# Bulk Modulus (GPa) = 23.51618 35.67586 29.59602
# Shear Modulus (GPa) = 24.03391 32.27124 28.15257
#
# Velocity S-wave (km/s) = 3.19840 3.70619 3.46162
# Velocity P-wave (km/s) = 4.86303 5.78787 5.34549
#
# Compressibility (1/GPa) = 0.04252391
#
# Stress axis : x y z
#
# Youngs Moduli (GPa) = 105.11752 29.90567 106.47561
#
# Poissons Ratio (x) = 0.12526 0.06824
# Poissons Ratio (y) = 0.44028 0.00857
# Poissons Ratio (z) = 0.06737 0.00241
#
# Static dielectric constant tensor:
#      x y z
#    x 1.979210 0.000000 0.007180 
#    y 0.000000 1.481310 0.000000 
#    z 0.007180 0.000000 2.016420 
# 
# From -- ./inp_files/168445.got.cif
#   From: 2010.05.17/outbox.cif.g08.bks.cpg/sg15_85_cif.got.tgz:168445.got - 2010.06.03 18:47:42.
