data_PCOD9265021
_publ_section_title
;
Structure prediction by ZEFSAII (Michael W. Deem and Ramdas Pophale) SiO2 
 PCOD9265021
Probable space group: C 2/C
;
_chemical_formula_sum "Si O2"
_cell_formula_units_Z 44
_cell_length_a 13.004998
_cell_length_b 23.223808
_cell_length_c 8.515842
_cell_angle_alpha 90.000000
_cell_angle_beta 65.822853
_cell_angle_gamma 90.000000
_cell_volume 2346.395186
_symmetry_space_group_name_H-M "C 2/C"
_symmetry_group_IT_number 15
_symmetry_cell_setting 'monoclinic'
loop_
_space_group_symop_operation_xyz
x,y,z
-x,y,1/2-z
-x,-y,-z
x,-y,1/2+z
1/2+x,1/2+y,z
1/2-x,1/2+y,1/2-z
1/2-x,1/2-y,-z
1/2+x,1/2-y,1/2+z
loop_
_atom_site_type_symbol
_atom_site_label
_atom_site_fract_x
_atom_site_fract_y
_atom_site_fract_z
Si Si1 0.609808 0.420038 0.904691
Si Si2 0.769300 0.275864 0.315492
Si Si3 0.536740 0.191050 0.996646
Si Si4 0.181759 0.662079 0.213597
Si Si5 0.000000 0.993269 0.250000
Si Si6 0.962144 0.822628 0.097467
O O1 0.731833 0.390702 0.840078
O O2 0.589418 0.465247 0.779695
O O3 0.567964 0.454393 0.084448
O O4 0.523395 0.366468 0.944180
O O5 0.750000 0.250000 0.500000
O O6 0.749357 0.220948 0.212940
O O7 0.671409 0.321537 0.339868
O O8 0.888878 0.305224 0.206556
O O9 0.620724 0.171740 0.084521
O O10 0.420088 0.156942 0.095744
O O11 0.499601 0.257037 0.047838
O O12 0.000000 0.837023 0.250000
#
# Coordination Sequence:
#
# PCOD9265021 Si02
#       6
#     8   8   8   8   4   8
#     4  11  22  40  59  84 107 151 192 259 295 327
#     4  11  22  31  52  92 128 157 180 227 273 370
#     4  10  19  36  56  92 119 155 192 207 277 391
#     4  10  20  35  61  81 121 155 189 228 284 357
#     4  10  26  40  58  82 106 140 218 258 292 334
#     4  11  19  33  59  85 121 154 187 223 290 354
#
# _framework density 18.752168999999999
#
# number of rings (size 3 to 8) (size 9 to 14) (size 15 to 20)
#    0.000    1.455    6.364    1.636    2.545    2.909 
#    0.000    0.000    0.000    4.364    0.000    0.000 
#    0.000    0.000    0.000    0.000    0.000    0.000 
#
# Total GULP energy -122752.327561 kJ/mol
# GULP energy per Si atom -5579.651253 kJ/mol
# Density = 1.870949 g / cm^3
# Si number density = 18.752169 Si / 1000 Ang^3
#
#
#
# Elastic Constant Matrix: (Units=GPa)
#
#
# Indices 1 2 3 4 5 6 
#
# 1 98.1657 47.2141 41.1935 0.0000 -31.1593 0.0000
# 2 47.2141 86.7428 21.4760 0.0000 -11.7881 0.0000
# 3 41.1935 21.4760 80.7343 0.0000 -23.2771 0.0000
# 4 0.0000 0.0000 0.0000 -1.2657 0.0000 -10.1806
# 5 -31.1593 -11.7881 -23.2771 0.0000 32.3648 0.0000
# 6 0.0000 0.0000 0.0000 -10.1806 0.0000 31.0924
#
#
#
# Elastic Compliance Matrix: (Units=1/GPa)
#
#
# Indices 1 2 3 4 5 6 
#
# 1 0.020087 -0.008067 -0.004258 0.000000 0.013339 0.000000
# 2 -0.008067 0.015769 -0.000835 0.000000 -0.002623 0.000000
# 3 -0.004258 -0.000835 0.017046 0.000000 0.007856 0.000000
# 4 0.000000 0.000000 0.000000 -0.217434 0.000000 -0.071195
# 5 0.013339 -0.002623 0.007856 0.000000 0.048435 0.000000
# 6 0.000000 0.000000 0.000000 -0.071195 0.000000 0.008851
#
#
# Mechanical properties :
#
#
# Convention : Reuss Voigt Hill
#
# Bulk Modulus (GPa) = 37.61714 53.93443 45.77579
# Shear Modulus (GPa) = -69.38107 22.82226 -23.27941
#
# Velocity S-wave (km/s) = -6.08928 3.49240 -3.52721
# Velocity P-wave (km/s) = 5.41621 6.71466 2.80636
#
# Compressibility (1/GPa) = 0.02658363
#
# Stress axis : x y z
#
# Youngs Moduli (GPa) = 49.78293 63.41440 58.66469
#
# Poissons Ratio (x) = 0.51154 0.24977
# Poissons Ratio (y) = 0.40158 0.04900
# Poissons Ratio (z) = 0.21196 0.05297
#
# Static dielectric constant tensor:
#      x y z
#    x 1.668410 0.000000 -0.007470 
#    y 0.000000 1.613740 0.000000 
#    z -0.007470 0.000000 1.732090 
# 
# From -- ./inp_files/31830.got.cif
#   From: 2010.05.17/outbox.cif.g08.bks.cpg/sg15_16_cif.got.tgz:31830.got - 2010.06.03 18:47:42.
