data_PCOD9265163
_publ_section_title
;
Structure prediction by ZEFSAII (Michael W. Deem and Ramdas Pophale) SiO2 
 PCOD9265163
Probable space group: C 2/C
;
_chemical_formula_sum "Si O2"
_cell_formula_units_Z 52
_cell_length_a 8.812950
_cell_length_b 12.755900
_cell_length_c 25.644176
_cell_angle_alpha 90.000000
_cell_angle_beta 128.810368
_cell_angle_gamma 90.000000
_cell_volume 2246.382959
_symmetry_space_group_name_H-M "C 2/C"
_symmetry_group_IT_number 15
_symmetry_cell_setting 'monoclinic'
loop_
_space_group_symop_operation_xyz
x,y,z
-x,y,1/2-z
-x,-y,-z
x,-y,1/2+z
1/2+x,1/2+y,z
1/2-x,1/2+y,1/2-z
1/2-x,1/2-y,-z
1/2+x,1/2-y,1/2+z
loop_
_atom_site_type_symbol
_atom_site_label
_atom_site_fract_x
_atom_site_fract_y
_atom_site_fract_z
Si Si1 0.368728 0.054584 0.171120
Si Si2 0.000000 0.184160 0.250000
Si Si3 0.490905 0.642656 0.361134
Si Si4 0.576032 0.982663 0.931094
Si Si5 0.650036 0.331119 0.139433
Si Si6 0.762812 0.062008 0.574943
Si Si7 0.745739 0.311127 0.053323
O O1 0.500000 0.073053 0.250000
O O2 0.186603 0.131202 0.138229
O O3 0.462119 0.066253 0.133920
O O4 0.273319 0.939052 0.158708
O O5 0.956979 0.119108 0.292966
O O6 0.802674 0.252415 0.198867
O O7 0.651197 0.556527 0.411126
O O8 0.562625 0.761801 0.378453
O O9 0.394259 0.050449 0.913142
O O10 0.744839 0.066894 0.955730
O O11 0.650015 0.916153 0.996309
O O12 0.447050 0.362250 0.122725
O O13 0.597851 0.293413 0.069074
O O14 0.750000 0.250000 0.000000
#
# Coordination Sequence:
#
# PCOD9265163 Si02
#       7
#     8   4   8   8   8   8   8
#     4  10  21  38  60  86 114 161 201 245 291 374
#     4  10  20  40  58  88 122 160 196 264 296 376
#     4  10  22  36  61  83 116 154 205 239 313 348
#     4  10  22  38  62  86 127 147 208 247 302 362
#     4   9  20  37  63  79 119 158 203 237 309 359
#     4  10  21  40  60  92 111 164 196 257 299 359
#     4  10  19  36  58  86 116 153 191 251 299 358
#
# _framework density 23.148323000000001
#
# number of rings (size 3 to 8) (size 9 to 14) (size 15 to 20)
#    0.000    2.154    2.308    0.000    4.308    1.846 
#    2.769    0.769    0.000    0.000    0.000    0.000 
#    0.000    0.000    0.000    0.000    0.000    0.000 
#
# Total GULP energy -144896.846185 kJ/mol
# GULP energy per Si atom -5572.955623 kJ/mol
# Density = 2.309564 g / cm^3
# Si number density = 23.148323 Si / 1000 Ang^3
#
#
#
# Elastic Constant Matrix: (Units=GPa)
#
#
# Indices 1 2 3 4 5 6 
#
# 1 113.5861 3.6271 49.4764 0.0000 -16.3809 0.0000
# 2 3.6271 34.6389 -4.0440 0.0000 7.0374 0.0000
# 3 49.4764 -4.0440 93.7588 0.0000 -27.0843 0.0000
# 4 0.0000 0.0000 0.0000 14.0668 0.0000 0.8217
# 5 -16.3809 7.0374 -27.0843 0.0000 32.1363 0.0000
# 6 0.0000 0.0000 0.0000 0.8217 0.0000 25.8349
#
#
#
# Elastic Compliance Matrix: (Units=1/GPa)
#
#
# Indices 1 2 3 4 5 6 
#
# 1 0.011613 -0.002202 -0.005781 0.000000 0.001529 0.000000
# 2 -0.002202 0.030677 0.000291 0.000000 -0.007595 0.000000
# 3 -0.005781 0.000291 0.016998 0.000000 0.011315 0.000000
# 4 0.000000 0.000000 0.000000 0.071222 0.000000 -0.002265
# 5 0.001529 -0.007595 0.011315 0.000000 0.043096 0.000000
# 6 0.000000 0.000000 0.000000 -0.002265 0.000000 0.038779
#
#
# Mechanical properties :
#
#
# Convention : Reuss Voigt Hill
#
# Bulk Modulus (GPa) = 22.77731 37.78922 30.28326
# Shear Modulus (GPa) = 20.62680 27.26923 23.94802
#
# Velocity S-wave (km/s) = 2.98832 3.43596 3.21993
# Velocity P-wave (km/s) = 4.66560 5.66580 5.18985
#
# Compressibility (1/GPa) = 0.04390334
#
# Stress axis : x y z
#
# Youngs Moduli (GPa) = 86.11023 32.59790 58.83201
#
# Poissons Ratio (x) = 0.07177 0.34013
# Poissons Ratio (y) = 0.18959 -0.01712
# Poissons Ratio (z) = 0.49784 -0.00949
#
# Static dielectric constant tensor:
#      x y z
#    x 1.918970 0.000000 -0.046160 
#    y 0.000000 1.899290 0.000000 
#    z -0.046160 0.000000 1.971770 
# 
# From -- ./inp_files/231287.got.cif
#   From: 2010.05.17/outbox.cif.g08.bks.cpg/sg15_116_cif.got.tgz:231287.got - 2010.06.03 18:47:42.
