data_PCOD9265995
_publ_section_title
;
Structure prediction by ZEFSAII (Michael W. Deem and Ramdas Pophale) SiO2 
 PCOD9265995
Probable space group: C 2/C
;
_chemical_formula_sum "Si O2"
_cell_formula_units_Z 64
_cell_length_a 21.603763
_cell_length_b 29.610588
_cell_length_c 7.872939
_cell_angle_alpha 90.000000
_cell_angle_beta 38.475952
_cell_angle_gamma 90.000000
_cell_volume 3133.528381
_symmetry_space_group_name_H-M "C 2/C"
_symmetry_group_IT_number 15
_symmetry_cell_setting 'monoclinic'
loop_
_space_group_symop_operation_xyz
x,y,z
-x,y,1/2-z
-x,-y,-z
x,-y,1/2+z
1/2+x,1/2+y,z
1/2-x,1/2+y,1/2-z
1/2-x,1/2-y,-z
1/2+x,1/2-y,1/2+z
loop_
_atom_site_type_symbol
_atom_site_label
_atom_site_fract_x
_atom_site_fract_y
_atom_site_fract_z
Si Si1 0.726945 0.973832 0.100726
Si Si2 0.110017 0.175922 0.589024
Si Si3 0.688791 0.653296 0.781152
Si Si4 0.196981 0.884579 0.606864
Si Si5 0.187696 0.730711 0.792313
Si Si6 0.197649 0.563776 0.029815
Si Si7 0.022330 0.564239 0.889557
Si Si8 0.078172 0.647320 0.930990
O O1 0.731637 0.958150 0.282694
O O2 0.617527 0.961259 0.260723
O O3 0.803212 0.937909 0.853079
O O4 0.740195 0.027438 0.070417
O O5 0.120686 0.164282 0.765039
O O6 0.174002 0.144105 0.323617
O O7 0.146860 0.227021 0.482869
O O8 0.000000 0.171761 0.750000
O O9 0.747627 0.697702 0.723936
O O10 0.763475 0.614664 0.545870
O O11 0.639676 0.632009 0.059115
O O12 0.310026 0.873095 0.300869
O O13 0.250000 0.750000 0.500000
O O14 0.100066 0.700212 0.897204
O O15 0.079024 0.560038 0.289764
O O16 0.040775 0.618500 0.851880
O O17 0.000000 0.547539 0.750000
O O18 0.000000 0.637180 0.250000
#
# Coordination Sequence:
#
# PCOD9265995 Si02
#       8
#     8   8   8   8   8   8   8   8
#     4  10  21  36  56  87 124 166 207 255 313 377
#     4  12  25  41  70  93 123 168 218 269 323 381
#     4  10  23  41  68  92 124 167 207 263 329 377
#     4   9  21  42  61  90 130 165 206 270 309 376
#     4  11  21  43  66  89 130 167 209 269 322 383
#     4  11  22  36  60  88 124 168 208 258 314 389
#     4  11  21  31  52  88 130 171 209 251 302 384
#     4  10  19  37  59  83 126 167 204 255 320 364
#
# _framework density 20.424261000000001
#
# number of rings (size 3 to 8) (size 9 to 14) (size 15 to 20)
#    0.000    1.500    2.500    6.000    5.250    0.500 
#    0.000    1.250    0.000    0.750    0.000    0.000 
#    0.000    0.000    0.000    0.000    0.000    0.000 
#
# Total GULP energy -178163.094793 kJ/mol
# GULP energy per Si atom -5567.596712 kJ/mol
# Density = 2.037777 g / cm^3
# Si number density = 20.424261 Si / 1000 Ang^3
#
#
#
# Elastic Constant Matrix: (Units=GPa)
#
#
# Indices 1 2 3 4 5 6 
#
# 1 101.2580 35.1330 18.3536 0.0000 6.4295 0.0000
# 2 35.1330 113.4955 24.0456 0.0000 -0.1236 0.0000
# 3 18.3536 24.0456 40.6954 0.0000 2.3218 0.0000
# 4 0.0000 0.0000 0.0000 -16.8464 0.0000 36.1430
# 5 6.4295 -0.1236 2.3218 0.0000 14.4724 0.0000
# 6 0.0000 0.0000 0.0000 36.1430 0.0000 1.2318
#
#
#
# Elastic Compliance Matrix: (Units=1/GPa)
#
#
# Indices 1 2 3 4 5 6 
#
# 1 0.011802 -0.002958 -0.003304 0.000000 -0.004738 0.000000
# 2 -0.002958 0.010829 -0.005192 0.000000 0.002240 0.000000
# 3 -0.003304 -0.005192 0.029318 0.000000 -0.003280 0.000000
# 4 0.000000 0.000000 0.000000 -0.000928 0.000000 0.027235
# 5 -0.004738 0.002240 -0.003280 0.000000 0.071748 0.000000
# 6 0.000000 0.000000 0.000000 0.027235 0.000000 0.012695
#
#
# Mechanical properties :
#
#
# Convention : Reuss Voigt Hill
#
# Bulk Modulus (GPa) = 34.43596 45.61259 40.02428
# Shear Modulus (GPa) = 29.75255 11.63266 20.69260
#
# Velocity S-wave (km/s) = 3.82085 2.38912 3.18644
# Velocity P-wave (km/s) = 6.03010 5.47645 5.75993
#
# Compressibility (1/GPa) = 0.02903941
#
# Stress axis : x y z
#
# Youngs Moduli (GPa) = 84.73108 92.34300 34.10871
#
# Poissons Ratio (x) = 0.27319 0.11271
# Poissons Ratio (y) = 0.25067 0.17710
# Poissons Ratio (z) = 0.27998 0.47946
#
# Static dielectric constant tensor:
#      x y z
#    x 1.767580 0.000000 -0.000580 
#    y 0.000000 1.842780 0.000000 
#    z -0.000580 0.000000 1.776370 
# 
# From -- ./inp_files/64200.got.cif
#   From: 2010.05.17/outbox.cif.g08.bks.cpg/sg15_33_cif.got.tgz:64200.got - 2010.06.03 18:47:42.
