data_PCOD9265742
_publ_section_title
;
Structure prediction by ZEFSAII (Michael W. Deem and Ramdas Pophale) SiO2 
 PCOD9265742
Probable space group: C 2/C
;
_chemical_formula_sum "Si O2"
_cell_formula_units_Z 56
_cell_length_a 9.726213
_cell_length_b 17.705229
_cell_length_c 20.329306
_cell_angle_alpha 90.000000
_cell_angle_beta 53.773420
_cell_angle_gamma 90.000000
_cell_volume 2824.050936
_symmetry_space_group_name_H-M "C 2/C"
_symmetry_group_IT_number 15
_symmetry_cell_setting 'monoclinic'
loop_
_space_group_symop_operation_xyz
x,y,z
-x,y,1/2-z
-x,-y,-z
x,-y,1/2+z
1/2+x,1/2+y,z
1/2-x,1/2+y,1/2-z
1/2-x,1/2-y,-z
1/2+x,1/2-y,1/2+z
loop_
_atom_site_type_symbol
_atom_site_label
_atom_site_fract_x
_atom_site_fract_y
_atom_site_fract_z
Si Si1 0.309646 0.218445 0.912810
Si Si2 0.272239 0.949939 0.440763
Si Si3 0.618863 0.579110 0.422114
Si Si4 0.819593 0.592743 0.494640
Si Si5 0.338706 0.711359 0.191466
Si Si6 0.648332 0.666379 0.659237
Si Si7 0.060162 0.275444 0.878632
O O1 0.355398 0.130187 0.905001
O O2 0.468776 0.268049 0.843977
O O3 0.151410 0.226705 0.908700
O O4 0.250000 0.250000 0.000000
O O5 0.369151 0.006845 0.462392
O O6 0.082620 0.935059 0.523642
O O7 0.226209 0.000817 0.389530
O O8 0.673755 0.607162 0.479616
O O9 0.667189 0.639754 0.354713
O O10 0.743630 0.605068 0.588031
O O11 0.963168 0.654451 0.438892
O O12 0.273287 0.783507 0.168379
O O13 0.209763 0.698607 0.287343
O O14 0.500000 0.637768 0.750000
O O15 0.565293 0.724861 0.630193
#
# Coordination Sequence:
#
# PCOD9265742 Si02
#       7
#     8   8   8   8   8   8   8
#     4  12  23  39  64  89 125 167 204 261 319 369
#     4   9  20  37  63  94 118 166 216 246 312 391
#     4   9  18  36  65  89 121 161 210 253 300 389
#     4  10  19  36  65  87 120 158 216 251 302 365
#     4  11  22  39  59  95 126 161 208 262 316 369
#     4  10  20  35  62  94 123 155 210 265 311 368
#     4  11  23  37  61  94 125 163 213 258 309 376
#
# _framework density 19.829668999999999
#
# number of rings (size 3 to 8) (size 9 to 14) (size 15 to 20)
#    0.857    0.857    2.857    2.571    0.000    0.000 
#    0.000    5.714    3.143    0.000    0.000    0.000 
#    0.000    0.000    0.000    0.000    0.000    0.000 
#
# Total GULP energy -156164.272747 kJ/mol
# GULP energy per Si atom -5577.295455 kJ/mol
# Density = 1.978454 g / cm^3
# Si number density = 19.829669 Si / 1000 Ang^3
#
#
#
# Elastic Constant Matrix: (Units=GPa)
#
#
# Indices 1 2 3 4 5 6 
#
# 1 52.8877 4.7938 9.1614 -0.0001 0.6976 0.0002
# 2 4.7938 104.0807 38.4842 0.0000 0.2255 0.0001
# 3 9.1614 38.4842 69.1939 -0.0001 5.5074 0.0001
# 4 -0.0001 0.0000 -0.0001 9.5362 0.0001 1.7813
# 5 0.6976 0.2255 5.5074 0.0001 22.2109 -0.0001
# 6 0.0002 0.0001 0.0001 1.7813 -0.0001 26.3722
#
#
#
# Elastic Compliance Matrix: (Units=1/GPa)
#
#
# Indices 1 2 3 4 5 6 
#
# 1 0.019352 0.000072 -0.002605 0.000000 0.000037 0.000000
# 2 0.000072 0.012150 -0.006893 0.000000 0.001584 0.000000
# 3 -0.002605 -0.006893 0.018994 0.000000 -0.004558 0.000000
# 4 0.000000 0.000000 0.000000 0.106203 -0.000001 -0.007174
# 5 0.000037 0.001584 -0.004558 -0.000001 0.046136 0.000000
# 6 0.000000 0.000000 0.000000 -0.007174 0.000000 0.038403
#
#
# Mechanical properties :
#
#
# Convention : Reuss Voigt Hill
#
# Bulk Modulus (GPa) = 31.60263 36.78236 34.19249
# Shear Modulus (GPa) = 18.47483 23.20540 20.84012
#
# Velocity S-wave (km/s) = 3.05565 3.42458 3.24536
# Velocity P-wave (km/s) = 5.33113 5.85034 5.59676
#
# Compressibility (1/GPa) = 0.03164294
#
# Stress axis : x y z
#
# Youngs Moduli (GPa) = 51.67356 82.30494 52.64913
#
# Poissons Ratio (x) = -0.00592 0.13716
# Poissons Ratio (y) = -0.00371 0.36292
# Poissons Ratio (z) = 0.13462 0.56734
#
# Static dielectric constant tensor:
#      x y z
#    x 1.710690 0.000000 0.002150 
#    y 0.000000 1.721210 0.000000 
#    z 0.002150 0.000000 1.676580 
# 
# From -- ./inp_files/192035.got.cif
#   From: 2010.05.17/outbox.cif.g08.bks.cpg/sg15_97_cif.got.tgz:192035.got - 2010.06.03 18:47:42.
