data_PCOD9265283
_publ_section_title
;
Structure prediction by ZEFSAII (Michael W. Deem and Ramdas Pophale) SiO2 
 PCOD9265283
Probable space group: C 2/C
;
_chemical_formula_sum "Si O2"
_cell_formula_units_Z 52
_cell_length_a 22.801721
_cell_length_b 9.759430
_cell_length_c 14.786351
_cell_angle_alpha 90.000000
_cell_angle_beta 52.466735
_cell_angle_gamma 90.000000
_cell_volume 2609.312851
_symmetry_space_group_name_H-M "C 2/C"
_symmetry_group_IT_number 15
_symmetry_cell_setting 'monoclinic'
loop_
_space_group_symop_operation_xyz
x,y,z
-x,y,1/2-z
-x,-y,-z
x,-y,1/2+z
1/2+x,1/2+y,z
1/2-x,1/2+y,1/2-z
1/2-x,1/2-y,-z
1/2+x,1/2-y,1/2+z
loop_
_atom_site_type_symbol
_atom_site_label
_atom_site_fract_x
_atom_site_fract_y
_atom_site_fract_z
Si Si1 0.536599 0.130494 0.557500
Si Si2 0.661514 0.308653 0.485100
Si Si3 0.242044 0.960310 0.559781
Si Si4 0.000000 0.415657 0.750000
Si Si5 0.774786 0.848699 0.271888
Si Si6 0.156712 0.381816 0.664590
Si Si7 0.881662 0.421485 0.146008
O O1 0.577154 0.260753 0.559998
O O2 0.457348 0.161382 0.587901
O O3 0.523287 0.015212 0.645965
O O4 0.590947 0.056718 0.434341
O O5 0.707322 0.171084 0.467361
O O6 0.681977 0.417778 0.542009
O O7 0.687400 0.352941 0.361326
O O8 0.210265 0.016024 0.683063
O O9 0.292735 0.078929 0.467845
O O10 0.925633 0.337958 0.789263
O O11 0.804663 0.723657 0.303961
O O12 0.686356 0.847671 0.337751
O O13 0.145970 0.523297 0.731027
#
# Coordination Sequence:
#
# PCOD9265283 Si02
#       7
#     8   8   8   4   8   8   8
#     4  10  19  36  59  88 120 154 199 264 301 349
#     4  11  22  39  62  89 129 160 204 257 305 367
#     4  11  23  37  58  92 122 163 204 247 305 371
#     4  10  20  34  60  90 122 148 212 256 308 350
#     4  12  21  37  62  92 126 159 202 252 313 364
#     4  11  20  36  60  91 122 158 199 260 304 365
#     4  10  20  35  59  93 122 153 205 254 308 357
#
# _framework density 19.928616999999999
#
# number of rings (size 3 to 8) (size 9 to 14) (size 15 to 20)
#    0.000    1.231    6.154    0.462    0.000    0.000 
#    0.000    0.000    0.000    5.538    0.000    0.000 
#    0.000    0.000    0.000    0.000    0.000    0.000 
#
# Total GULP energy -145201.781997 kJ/mol
# GULP energy per Si atom -5584.683923 kJ/mol
# Density = 1.988326 g / cm^3
# Si number density = 19.928617 Si / 1000 Ang^3
#
#
#
# Elastic Constant Matrix: (Units=GPa)
#
#
# Indices 1 2 3 4 5 6 
#
# 1 181.2259 46.4671 30.7646 0.0000 -17.4735 0.0000
# 2 46.4671 28.9276 6.9834 0.0000 -10.5742 0.0000
# 3 30.7646 6.9834 44.4770 0.0000 8.2516 0.0000
# 4 0.0000 0.0000 0.0000 22.9704 0.0000 11.2051
# 5 -17.4735 -10.5742 8.2516 0.0000 35.7614 0.0000
# 6 0.0000 0.0000 0.0000 11.2051 0.0000 40.6574
#
#
#
# Elastic Compliance Matrix: (Units=1/GPa)
#
#
# Indices 1 2 3 4 5 6 
#
# 1 0.010347 -0.014659 -0.005212 0.000000 0.001924 0.000000
# 2 -0.014659 0.062935 -0.001949 0.000000 0.011896 0.000000
# 3 -0.005212 -0.001949 0.028181 0.000000 -0.009625 0.000000
# 4 0.000000 0.000000 0.000000 0.050296 0.000000 -0.013862
# 5 0.001924 0.011896 -0.009625 0.000000 0.034642 0.000000
# 6 0.000000 0.000000 0.000000 -0.013862 0.000000 0.028416
#
#
# Mechanical properties :
#
#
# Convention : Reuss Voigt Hill
#
# Bulk Modulus (GPa) = 17.29434 47.00673 32.15054
# Shear Modulus (GPa) = 18.00303 31.23886 24.62094
#
# Velocity S-wave (km/s) = 3.00888 3.96351 3.51872
# Velocity P-wave (km/s) = 4.55721 6.67717 5.71633
#
# Compressibility (1/GPa) = 0.05782238
#
# Stress axis : x y z
#
# Youngs Moduli (GPa) = 96.64706 15.88932 35.48546
#
# Poissons Ratio (x) = 0.23292 0.18496
# Poissons Ratio (y) = 1.41675 0.06916
# Poissons Ratio (z) = 0.50375 0.03097
#
# Static dielectric constant tensor:
#      x y z
#    x 1.752920 0.000000 0.015460 
#    y 0.000000 1.698910 0.000000 
#    z 0.015460 0.000000 1.775990 
# 
# From -- ./inp_files/167573.got.cif
#   From: 2010.05.17/outbox.cif.g08.bks.cpg/sg15_84_cif.got.tgz:167573.got - 2010.06.03 18:47:42.
