data_PCOD9265825
_publ_section_title
;
Structure prediction by ZEFSAII (Michael W. Deem and Ramdas Pophale) SiO2 
 PCOD9265825
Probable space group: C 2/C
;
_chemical_formula_sum "Si O2"
_cell_formula_units_Z 48
_cell_length_a 15.251713
_cell_length_b 16.227555
_cell_length_c 18.646469
_cell_angle_alpha 90.000000
_cell_angle_beta 30.915815
_cell_angle_gamma 90.000000
_cell_volume 2371.067338
_symmetry_space_group_name_H-M "C 2/C"
_symmetry_group_IT_number 15
_symmetry_cell_setting 'monoclinic'
loop_
_space_group_symop_operation_xyz
x,y,z
-x,y,1/2-z
-x,-y,-z
x,-y,1/2+z
1/2+x,1/2+y,z
1/2-x,1/2+y,1/2-z
1/2-x,1/2-y,-z
1/2+x,1/2-y,1/2+z
loop_
_atom_site_type_symbol
_atom_site_label
_atom_site_fract_x
_atom_site_fract_y
_atom_site_fract_z
Si Si1 0.065277 0.057539 0.784166
Si Si2 0.948293 0.591845 0.557036
Si Si3 0.512623 0.426077 0.548247
Si Si4 0.939850 0.218084 0.871847
Si Si5 0.167141 0.361174 0.776398
Si Si6 0.111073 0.455213 0.244310
O O1 0.254460 0.096181 0.662300
O O2 0.000000 0.040458 0.750000
O O3 0.947729 0.128450 0.903242
O O4 0.049786 0.971991 0.836262
O O5 0.951961 0.595117 0.640814
O O6 0.000000 0.500000 0.500000
O O7 0.082227 0.641933 0.415314
O O8 0.500000 0.500000 0.500000
O O9 0.372448 0.355990 0.632966
O O10 0.713141 0.411064 0.403829
O O11 0.000000 0.198069 0.750000
O O12 0.069522 0.287235 0.806844
O O13 0.750000 0.250000 0.000000
O O14 0.131618 0.450263 0.761701
O O15 0.000000 0.459879 0.250000
#
# Coordination Sequence:
#
# PCOD9265825 Si02
#       6
#     8   8   8   8   8   8
#     4  11  22  36  57  85 126 153 192 241 299 357
#     4  10  19  37  51  80 114 150 198 241 291 352
#     4  10  20  35  55  80 113 152 204 243 275 350
#     4  11  25  37  56  91 127 163 191 229 308 379
#     4  10  20  37  56  79 121 156 197 237 291 364
#     4  10  21  32  57  83 114 149 196 253 299 335
#
# _framework density 20.244046999999998
#
# number of rings (size 3 to 8) (size 9 to 14) (size 15 to 20)
#    0.000    1.667    5.000    2.500   11.667    0.000 
#    0.000    0.000    0.000    0.000    0.000    5.833 
#    0.000    0.000    0.000    0.000    0.000    0.000 
#
# Total GULP energy -133605.688508 kJ/mol
# GULP energy per Si atom -5566.903688 kJ/mol
# Density = 2.019797 g / cm^3
# Si number density = 20.244047 Si / 1000 Ang^3
#
#
#
# Elastic Constant Matrix: (Units=GPa)
#
#
# Indices 1 2 3 4 5 6 
#
# 1 123.7936 12.5117 50.0913 -0.0028 4.8221 0.0001
# 2 12.5117 32.2438 0.6148 -0.0060 -7.0671 0.0028
# 3 50.0913 0.6148 100.9512 -0.0033 -5.2487 0.0014
# 4 -0.0028 -0.0060 -0.0033 21.0112 0.0026 -6.3819
# 5 4.8221 -7.0671 -5.2487 0.0026 32.9419 -0.0004
# 6 0.0001 0.0028 0.0014 -6.3819 -0.0004 16.0868
#
#
#
# Elastic Compliance Matrix: (Units=1/GPa)
#
#
# Indices 1 2 3 4 5 6 
#
# 1 0.010983 -0.004935 -0.005605 0.000000 -0.003560 0.000001
# 2 -0.004935 0.034764 0.002685 0.000008 0.008608 -0.000003
# 3 -0.005605 0.002685 0.012850 0.000001 0.003444 -0.000001
# 4 0.000000 0.000008 0.000001 0.054114 -0.000002 0.021468
# 5 -0.003560 0.008608 0.003444 -0.000002 0.033273 -0.000002
# 6 0.000001 -0.000003 -0.000001 0.021468 -0.000002 0.070679
#
#
# Mechanical properties :
#
#
# Convention : Reuss Voigt Hill
#
# Bulk Modulus (GPa) = 23.31740 42.60268 32.96004
# Shear Modulus (GPa) = 20.26997 26.92604 23.59801
#
# Velocity S-wave (km/s) = 3.16773 3.65097 3.41790
# Velocity P-wave (km/s) = 4.99225 6.23402 5.64737
#
# Compressibility (1/GPa) = 0.04288642
#
# Stress axis : x y z
#
# Youngs Moduli (GPa) = 91.04690 28.76510 77.82357
#
# Poissons Ratio (x) = 0.14196 0.43619
# Poissons Ratio (y) = 0.44934 -0.20893
# Poissons Ratio (z) = 0.51031 -0.07723
#
# Static dielectric constant tensor:
#      x y z
#    x 1.793750 0.000000 -0.012890 
#    y 0.000000 1.706140 0.000000 
#    z -0.012890 0.000000 1.720880 
# 
# From -- ./inp_files/206378.got.cif
#   From: 2010.05.17/outbox.cif.g08.bks.cpg/sg15_104_cif.got.tgz:206378.got - 2010.06.03 18:47:42.
