data_PCOD9265141
_publ_section_title
;
Structure prediction by ZEFSAII (Michael W. Deem and Ramdas Pophale) SiO2 
 PCOD9265141
Probable space group: C 2/C
;
_chemical_formula_sum "Si O2"
_cell_formula_units_Z 56
_cell_length_a 11.469681
_cell_length_b 9.040248
_cell_length_c 25.962083
_cell_angle_alpha 90.000000
_cell_angle_beta 57.190047
_cell_angle_gamma 90.000000
_cell_volume 2262.531948
_symmetry_space_group_name_H-M "C 2/C"
_symmetry_group_IT_number 15
_symmetry_cell_setting 'monoclinic'
loop_
_space_group_symop_operation_xyz
x,y,z
-x,y,1/2-z
-x,-y,-z
x,-y,1/2+z
1/2+x,1/2+y,z
1/2-x,1/2+y,1/2-z
1/2-x,1/2-y,-z
1/2+x,1/2-y,1/2+z
loop_
_atom_site_type_symbol
_atom_site_label
_atom_site_fract_x
_atom_site_fract_y
_atom_site_fract_z
Si Si1 0.094827 0.004391 0.354456
Si Si2 0.545434 0.772893 0.582868
Si Si3 0.347172 0.615462 0.357451
Si Si4 0.361946 0.364483 0.266366
Si Si5 0.817545 0.630197 0.555653
Si Si6 0.125948 0.568572 0.679700
Si Si7 0.063157 0.423205 0.368628
O O1 0.117886 0.908202 0.297295
O O2 0.247681 0.040360 0.337972
O O3 0.021318 0.888666 0.410490
O O4 0.985183 0.124033 0.360337
O O5 0.676993 0.731652 0.588781
O O6 0.610798 0.839676 0.515399
O O7 0.432719 0.895446 0.626927
O O8 0.372131 0.494370 0.306827
O O9 0.237368 0.537064 0.421707
O O10 0.319325 0.763803 0.333341
O O11 0.500000 0.270200 0.250000
O O12 0.195104 0.347870 0.309007
O O13 0.923941 0.647919 0.577696
O O14 0.000000 0.555528 0.750000
O O15 0.071869 0.569995 0.634341
#
# Coordination Sequence:
#
# PCOD9265141 Si02
#       7
#     8   8   8   8   8   8   8
#     4  10  19  36  58  84 115 156 203 244 303 365
#     4  10  21  39  66  89 115 156 206 265 303 358
#     4   9  20  37  62  81 113 163 205 249 303 367
#     4   9  17  35  57  79 110 151 202 244 290 362
#     4   9  20  42  65  88 113 154 215 257 302 363
#     4  12  23  37  54  87 130 162 195 246 312 376
#     4  11  22  37  58  89 125 155 200 252 312 371
#
# _framework density 24.751033
#
# number of rings (size 3 to 8) (size 9 to 14) (size 15 to 20)
#    0.000    2.000    1.429    4.286    0.000    1.143 
#    0.000    7.857    0.000    5.143    0.000    0.000 
#    0.000    0.000    0.000    0.000    0.000    0.000 
#
# Total GULP energy -155911.905852 kJ/mol
# GULP energy per Si atom -5568.282352 kJ/mol
# Density = 2.469470 g / cm^3
# Si number density = 24.751033 Si / 1000 Ang^3
#
#
#
# Elastic Constant Matrix: (Units=GPa)
#
#
# Indices 1 2 3 4 5 6 
#
# 1 180.2095 11.1734 15.3886 0.0000 11.5629 0.0000
# 2 11.1734 59.5914 2.3580 0.0000 -6.4761 0.0000
# 3 15.3886 2.3580 32.7891 0.0000 -8.9389 0.0000
# 4 0.0000 0.0000 0.0000 -3.5681 0.0000 -3.3271
# 5 11.5629 -6.4761 -8.9389 0.0000 40.0714 0.0000
# 6 0.0000 0.0000 0.0000 -3.3271 0.0000 44.5184
#
#
#
# Elastic Compliance Matrix: (Units=1/GPa)
#
#
# Indices 1 2 3 4 5 6 
#
# 1 0.006108 -0.001306 -0.003525 0.000000 -0.002760 0.000000
# 2 -0.001306 0.017368 0.000247 0.000000 0.003239 0.000000
# 3 -0.003525 0.000247 0.034522 0.000000 0.008758 0.000000
# 4 0.000000 0.000000 0.000000 -0.262004 0.000000 -0.019581
# 5 -0.002760 0.003239 0.008758 0.000000 0.028229 0.000000
# 6 0.000000 0.000000 0.000000 -0.019581 0.000000 0.020999
#
#
# Mechanical properties :
#
#
# Convention : Reuss Voigt Hill
#
# Bulk Modulus (GPa) = 20.47920 36.71445 28.59682
# Shear Modulus (GPa) = -38.65999 32.44900 -3.10549
#
# Velocity S-wave (km/s) = -3.95644 3.62472 -1.12135
# Velocity P-wave (km/s) = 3.54672 5.69068 3.14679
#
# Compressibility (1/GPa) = 0.04883004
#
# Stress axis : x y z
#
# Youngs Moduli (GPa) = 163.71512 57.57724 28.96680
#
# Poissons Ratio (x) = 0.07518 0.10211
# Poissons Ratio (y) = 0.21377 -0.00715
# Poissons Ratio (z) = 0.57713 -0.01421
#
# Static dielectric constant tensor:
#      x y z
#    x 2.209180 0.000000 0.056080 
#    y 0.000000 2.059970 0.000000 
#    z 0.056080 0.000000 2.324060 
# 
# From -- ./inp_files/291978.got.cif
#   From: 2010.05.17/outbox.cif.g08.bks.cpg/sg15_146_cif.got.tgz:291978.got - 2010.06.03 18:47:42.
