data_PCOD9265982
_publ_section_title
;
Structure prediction by ZEFSAII (Michael W. Deem and Ramdas Pophale) SiO2 
 PCOD9265982
Probable space group: C 2/C
;
_chemical_formula_sum "Si O2"
_cell_formula_units_Z 64
_cell_length_a 9.650796
_cell_length_b 13.489565
_cell_length_c 25.461518
_cell_angle_alpha 90.000000
_cell_angle_beta 118.869028
_cell_angle_gamma 90.000000
_cell_volume 2902.775444
_symmetry_space_group_name_H-M "C 2/C"
_symmetry_group_IT_number 15
_symmetry_cell_setting 'monoclinic'
loop_
_space_group_symop_operation_xyz
x,y,z
-x,y,1/2-z
-x,-y,-z
x,-y,1/2+z
1/2+x,1/2+y,z
1/2-x,1/2+y,1/2-z
1/2-x,1/2-y,-z
1/2+x,1/2-y,1/2+z
loop_
_atom_site_type_symbol
_atom_site_label
_atom_site_fract_x
_atom_site_fract_y
_atom_site_fract_z
Si Si1 0.154202 0.733684 0.810748
Si Si2 0.995566 0.213718 0.865249
Si Si3 0.850129 0.913363 0.187161
Si Si4 0.504988 0.108176 0.636254
Si Si5 0.069295 0.587511 0.442535
Si Si6 0.433463 0.594832 0.520646
Si Si7 0.071228 0.785118 0.955211
Si Si8 0.726418 0.590159 0.404894
O O1 0.317637 0.720937 0.810263
O O2 0.103995 0.637935 0.835085
O O3 0.199452 0.816669 0.861592
O O4 0.000000 0.763881 0.750000
O O5 0.108468 0.184076 0.838488
O O6 0.049596 0.315040 0.902789
O O7 0.991372 0.129976 0.910507
O O8 0.685295 0.905475 0.187293
O O9 0.000000 0.939593 0.250000
O O10 0.818089 0.995718 0.137034
O O11 0.501629 0.199632 0.594366
O O12 0.447850 0.010102 0.596438
O O13 0.245709 0.586561 0.497287
O O14 0.914390 0.587297 0.452076
O O15 0.500000 0.500000 0.500000
O O16 0.471111 0.686591 0.487750
O O17 0.106999 0.886363 0.929745
O O18 0.250000 0.750000 0.000000
#
# Coordination Sequence:
#
# PCOD9265982 Si02
#       8
#     8   8   8   8   8   8   8   8
#     4  10  19  37  59  81 109 147 188 236 283 329
#     4  11  23  38  57  84 114 147 189 231 282 341
#     4  11  22  39  59  84 114 151 194 243 287 332
#     4  10  22  38  58  84 114 149 193 235 279 343
#     4  10  21  39  57  82 118 152 184 231 283 338
#     4  12  23  38  59  85 117 151 184 228 284 344
#     4  11  21  38  60  87 118 152 189 233 288 348
#     4   9  21  37  59  85 113 147 193 235 283 343
#
# _framework density 22.047865999999999
#
# number of rings (size 3 to 8) (size 9 to 14) (size 15 to 20)
#    0.000    1.500    0.000    6.750    0.000    1.000 
#    0.000    5.625    0.000    0.000    0.000    0.000 
#    0.000    0.000    0.000    0.000    0.000    0.000 
#
# Total GULP energy -178855.278313 kJ/mol
# GULP energy per Si atom -5589.227447 kJ/mol
# Density = 2.199768 g / cm^3
# Si number density = 22.047866 Si / 1000 Ang^3
#
#
#
# Elastic Constant Matrix: (Units=GPa)
#
#
# Indices 1 2 3 4 5 6 
#
# 1 79.4174 14.8669 20.0760 0.0000 25.4911 0.0000
# 2 14.8669 78.2181 -0.1925 0.0000 6.2468 0.0000
# 3 20.0760 -0.1925 70.6157 0.0000 36.9599 0.0000
# 4 0.0000 0.0000 0.0000 17.0114 0.0000 9.4791
# 5 25.4911 6.2468 36.9599 0.0000 44.2487 0.0000
# 6 0.0000 0.0000 0.0000 9.4791 0.0000 16.2855
#
#
#
# Elastic Compliance Matrix: (Units=1/GPa)
#
#
# Indices 1 2 3 4 5 6 
#
# 1 0.015851 -0.002298 0.000172 0.000000 -0.008951 0.000000
# 2 -0.002298 0.013388 0.001752 0.000000 -0.002030 0.000000
# 3 0.000172 0.001752 0.025405 0.000000 -0.021567 0.000000
# 4 0.000000 0.000000 0.000000 0.087003 0.000000 -0.050641
# 5 -0.008951 -0.002030 -0.021567 0.000000 0.046057 0.000000
# 6 0.000000 0.000000 0.000000 -0.050641 0.000000 0.090881
#
#
# Mechanical properties :
#
#
# Convention : Reuss Voigt Hill
#
# Bulk Modulus (GPa) = 18.55358 33.08356 25.81857
# Shear Modulus (GPa) = 16.81823 28.40917 22.61370
#
# Velocity S-wave (km/s) = 2.76489 3.59349 3.20607
# Velocity P-wave (km/s) = 4.31581 5.67939 5.04389
#
# Compressibility (1/GPa) = 0.05389795
#
# Stress axis : x y z
#
# Youngs Moduli (GPa) = 63.08582 74.69430 39.36260
#
# Poissons Ratio (x) = 0.17161 -0.00678
# Poissons Ratio (y) = 0.14494 -0.06897
# Poissons Ratio (z) = -0.01087 -0.13088
#
# Static dielectric constant tensor:
#      x y z
#    x 1.823220 0.000000 -0.005120 
#    y 0.000000 1.827340 0.000000 
#    z -0.005120 0.000000 1.799860 
# 
# From -- ./inp_files/308035.got.cif
#   From: 2010.05.17/outbox.cif.g08.bks.cpg/sg15_155_cif.got.tgz:308035.got - 2010.06.03 18:47:42.
