data_PCOD9265436
_publ_section_title
;
Structure prediction by ZEFSAII (Michael W. Deem and Ramdas Pophale) SiO2 
 PCOD9265436
Probable space group: C 2/C
;
_chemical_formula_sum "Si O2"
_cell_formula_units_Z 48
_cell_length_a 15.686915
_cell_length_b 8.958034
_cell_length_c 16.765688
_cell_angle_alpha 90.000000
_cell_angle_beta 92.528972
_cell_angle_gamma 90.000000
_cell_volume 2353.685528
_symmetry_space_group_name_H-M "C 2/C"
_symmetry_group_IT_number 15
_symmetry_cell_setting 'monoclinic'
loop_
_space_group_symop_operation_xyz
x,y,z
-x,y,1/2-z
-x,-y,-z
x,-y,1/2+z
1/2+x,1/2+y,z
1/2-x,1/2+y,1/2-z
1/2-x,1/2-y,-z
1/2+x,1/2-y,1/2+z
loop_
_atom_site_type_symbol
_atom_site_label
_atom_site_fract_x
_atom_site_fract_y
_atom_site_fract_z
Si Si1 0.304455 0.277494 0.581360
Si Si2 0.544054 0.425549 0.580242
Si Si3 0.888052 0.058656 0.655560
Si Si4 0.659484 0.366931 0.164643
Si Si5 0.516444 0.110320 0.927154
Si Si6 0.502951 0.820059 0.842831
O O1 0.250000 0.250000 0.500000
O O2 0.325263 0.449919 0.604013
O O3 0.250851 0.202828 0.650764
O O4 0.392654 0.190982 0.571110
O O5 0.500000 0.500000 0.500000
O O6 0.479089 0.471533 0.649775
O O7 0.634556 0.495584 0.606420
O O8 0.547584 0.248658 0.573955
O O9 0.854191 0.084084 0.743995
O O10 0.916953 0.221463 0.622855
O O11 0.587658 0.245910 0.132958
O O12 0.510148 0.994674 0.855055
O O13 0.500000 0.000000 0.000000
O O14 0.500000 0.785424 0.750000
#
# Coordination Sequence:
#
# PCOD9265436 Si02
#       6
#     8   8   8   8   8   8
#     4  11  23  39  59  85 120 161 202 249 306 369
#     4  10  19  36  61  84 114 157 199 241 300 372
#     4   9  20  38  59  82 117 159 197 239 302 371
#     4  10  20  38  61  85 114 156 199 247 302 360
#     4  11  22  36  57  85 113 147 194 245 296 360
#     4   9  19  37  60  83 112 148 191 243 297 358
#
# _framework density 20.393547999999999
#
# number of rings (size 3 to 8) (size 9 to 14) (size 15 to 20)
#    0.000    2.000    0.000    6.500    0.000    5.333 
#    0.000    6.667    0.000    0.000    0.000    0.000 
#    0.000    0.000    0.000    0.000    0.000    0.000 
#
# Total GULP energy -133737.853110 kJ/mol
# GULP energy per Si atom -5572.410546 kJ/mol
# Density = 2.034713 g / cm^3
# Si number density = 20.393548 Si / 1000 Ang^3
#
#
#
# Elastic Constant Matrix: (Units=GPa)
#
#
# Indices 1 2 3 4 5 6 
#
# 1 52.9104 17.0391 12.4845 0.0000 -3.6925 0.0000
# 2 17.0391 144.1397 19.0531 0.0000 8.8946 0.0000
# 3 12.4845 19.0531 72.3990 0.0000 -11.4740 0.0000
# 4 0.0000 0.0000 0.0000 34.7284 0.0000 2.8426
# 5 -3.6925 8.8946 -11.4740 0.0000 28.3408 0.0000
# 6 0.0000 0.0000 0.0000 2.8426 0.0000 31.9331
#
#
#
# Elastic Compliance Matrix: (Units=1/GPa)
#
#
# Indices 1 2 3 4 5 6 
#
# 1 0.020379 -0.002213 -0.002566 0.000000 0.002311 0.000000
# 2 -0.002213 0.007716 -0.002221 0.000000 -0.003609 0.000000
# 3 -0.002566 -0.002221 0.015918 0.000000 0.006807 0.000000
# 4 0.000000 0.000000 0.000000 0.029006 0.000000 -0.002582
# 5 0.002311 -0.003609 0.006807 0.000000 0.039475 0.000000
# 6 0.000000 0.000000 0.000000 -0.002582 0.000000 0.031545
#
#
# Mechanical properties :
#
#
# Convention : Reuss Voigt Hill
#
# Bulk Modulus (GPa) = 33.31724 40.73358 37.02541
# Shear Modulus (GPa) = 29.75451 33.72527 31.73989
#
# Velocity S-wave (km/s) = 3.82385 4.07101 3.94936
# Velocity P-wave (km/s) = 5.98902 6.48958 6.24432
#
# Compressibility (1/GPa) = 0.03001449
#
# Stress axis : x y z
#
# Youngs Moduli (GPa) = 49.07005 129.60877 62.82162
#
# Poissons Ratio (x) = 0.28676 0.16118
# Poissons Ratio (y) = 0.10857 0.13952
# Poissons Ratio (z) = 0.12590 0.28785
#
# Static dielectric constant tensor:
#      x y z
#    x 1.744650 0.000000 -0.025420 
#    y 0.000000 1.788760 0.000000 
#    z -0.025420 0.000000 1.879180 
# 
# From -- ./inp_files/208647.got.cif
#   From: 2010.05.17/outbox.cif.g08.bks.cpg/sg15_105_cif.got.tgz:208647.got - 2010.06.03 18:47:42.
