data_PCOD9265584
_publ_section_title
;
Structure prediction by ZEFSAII (Michael W. Deem and Ramdas Pophale) SiO2 
 PCOD9265584
Probable space group: C 2/C
;
_chemical_formula_sum "Si O2"
_cell_formula_units_Z 48
_cell_length_a 11.124206
_cell_length_b 14.272764
_cell_length_c 17.092328
_cell_angle_alpha 90.000000
_cell_angle_beta 126.429425
_cell_angle_gamma 90.000000
_cell_volume 2183.495898
_symmetry_space_group_name_H-M "C 2/C"
_symmetry_group_IT_number 15
_symmetry_cell_setting 'monoclinic'
loop_
_space_group_symop_operation_xyz
x,y,z
-x,y,1/2-z
-x,-y,-z
x,-y,1/2+z
1/2+x,1/2+y,z
1/2-x,1/2+y,1/2-z
1/2-x,1/2-y,-z
1/2+x,1/2-y,1/2+z
loop_
_atom_site_type_symbol
_atom_site_label
_atom_site_fract_x
_atom_site_fract_y
_atom_site_fract_z
Si Si1 0.452020 0.367914 0.365022
Si Si2 0.161924 0.374635 0.522673
Si Si3 0.464894 0.311580 0.554605
Si Si4 0.932499 0.666022 0.343858
Si Si5 0.775520 0.569212 0.012120
Si Si6 0.275613 0.451828 0.827285
O O1 0.452804 0.338954 0.457959
O O2 0.409980 0.271751 0.306129
O O3 0.620508 0.401432 0.412239
O O4 0.339746 0.454397 0.313375
O O5 0.319260 0.347867 0.543811
O O6 0.040192 0.301201 0.441710
O O7 0.162138 0.353392 0.614487
O O8 0.142352 0.483670 0.498563
O O9 0.607687 0.366762 0.640867
O O10 0.879536 0.586057 0.264804
O O11 0.106429 0.652655 0.432705
O O12 0.733427 0.534408 0.083036
#
# Coordination Sequence:
#
# PCOD9265584 Si02
#       6
#     8   8   8   8   8   8
#     4  10  20  41  63  81 115 163 200 226 289 365
#     4  10  19  36  62  90 116 149 199 239 289 346
#     4   9  18  36  64  89 109 155 200 234 282 363
#     4  11  25  35  57  95 124 142 194 259 294 324
#     4  11  20  41  64  84 113 165 198 229 285 369
#     4  11  21  40  61  85 117 159 197 240 292 344
#
# _framework density 21.983097000000001
#
# number of rings (size 3 to 8) (size 9 to 14) (size 15 to 20)
#    0.000    1.667    3.333    2.500    0.000    2.000 
#    0.000    5.000    0.000    0.000    0.000    0.000 
#    0.000    0.000    0.000    0.000    0.000    0.000 
#
# Total GULP energy -134053.867995 kJ/mol
# GULP energy per Si atom -5585.577833 kJ/mol
# Density = 2.193306 g / cm^3
# Si number density = 21.983097 Si / 1000 Ang^3
#
#
#
# Elastic Constant Matrix: (Units=GPa)
#
#
# Indices 1 2 3 4 5 6 
#
# 1 78.6789 31.1673 3.0019 0.0000 14.7806 0.0000
# 2 31.1673 152.4749 29.6913 0.0000 11.7610 0.0000
# 3 3.0019 29.6913 27.8000 0.0000 11.6389 0.0000
# 4 0.0000 0.0000 0.0000 17.3567 0.0000 -1.5349
# 5 14.7806 11.7610 11.6389 0.0000 17.5665 0.0000
# 6 0.0000 0.0000 0.0000 -1.5349 0.0000 22.5146
#
#
#
# Elastic Compliance Matrix: (Units=1/GPa)
#
#
# Indices 1 2 3 4 5 6 
#
# 1 0.017502 -0.004157 0.010448 0.000000 -0.018866 0.000000
# 2 -0.004157 0.009270 -0.011511 0.000000 0.004918 0.000000
# 3 0.010448 -0.011511 0.065860 0.000000 -0.044721 0.000000
# 4 0.000000 0.000000 0.000000 0.057964 0.000000 0.003952
# 5 -0.018866 0.004918 -0.044721 0.000000 0.099139 0.000000
# 6 0.000000 0.000000 0.000000 0.003952 0.000000 0.044685
#
#
# Mechanical properties :
#
#
# Convention : Reuss Voigt Hill
#
# Bulk Modulus (GPa) = 12.16639 42.96387 27.56513
# Shear Modulus (GPa) = 15.04854 24.49378 19.77116
#
# Velocity S-wave (km/s) = 2.61923 3.34160 3.00222
# Velocity P-wave (km/s) = 3.83322 5.87153 4.95825
#
# Compressibility (1/GPa) = 0.08219364
#
# Stress axis : x y z
#
# Youngs Moduli (GPa) = 57.13588 107.87016 15.18361
#
# Poissons Ratio (x) = 0.44842 -0.15865
# Poissons Ratio (y) = 0.23751 0.17478
# Poissons Ratio (z) = -0.59698 1.24171
#
# Static dielectric constant tensor:
#      x y z
#    x 1.795990 0.000000 -0.024830 
#    y 0.000000 1.830820 0.000000 
#    z -0.024830 0.000000 1.812540 
# 
# From -- ./inp_files/143612.got.cif
#   From: 2010.05.17/outbox.cif.g08.bks.cpg/sg15_72_cif.got.tgz:143612.got - 2010.06.03 18:47:42.
