data_PCOD9265725
_publ_section_title
;
Structure prediction by ZEFSAII (Michael W. Deem and Ramdas Pophale) SiO2 
 PCOD9265725
Probable space group: C 2/C
;
_chemical_formula_sum "Si O2"
_cell_formula_units_Z 56
_cell_length_a 11.527305
_cell_length_b 11.785925
_cell_length_c 25.014363
_cell_angle_alpha 90.000000
_cell_angle_beta 50.239465
_cell_angle_gamma 90.000000
_cell_volume 2612.471035
_symmetry_space_group_name_H-M "C 2/C"
_symmetry_group_IT_number 15
_symmetry_cell_setting 'monoclinic'
loop_
_space_group_symop_operation_xyz
x,y,z
-x,y,1/2-z
-x,-y,-z
x,-y,1/2+z
1/2+x,1/2+y,z
1/2-x,1/2+y,1/2-z
1/2-x,1/2-y,-z
1/2+x,1/2-y,1/2+z
loop_
_atom_site_type_symbol
_atom_site_label
_atom_site_fract_x
_atom_site_fract_y
_atom_site_fract_z
Si Si1 0.747826 0.066957 0.959837
Si Si2 0.595538 0.220814 0.933499
Si Si3 0.581378 0.943685 0.783754
Si Si4 0.340311 0.622569 0.275248
Si Si5 0.879327 0.294837 0.907954
Si Si6 0.523905 0.191281 0.835938
Si Si7 0.275414 0.172496 0.076342
O O1 0.661902 0.097882 0.930210
O O2 0.882454 0.161034 0.922816
O O3 0.771414 0.933850 0.948303
O O4 0.639665 0.117415 0.037801
O O5 0.719510 0.302817 0.923329
O O6 0.593481 0.230479 0.871317
O O7 0.432107 0.222481 0.008853
O O8 0.500000 0.947490 0.750000
O O9 0.757814 0.938290 0.749523
O O10 0.513472 0.831587 0.831102
O O11 0.527288 0.057996 0.828096
O O12 0.500000 0.570937 0.250000
O O13 0.389268 0.744931 0.237326
O O14 0.233608 0.633889 0.358747
O O15 0.353412 0.233953 0.888146
#
# Coordination Sequence:
#
# PCOD9265725 Si02
#       7
#     8   8   8   8   8   8   8
#     4   9  19  37  61  89 125 155 211 259 317 363
#     4  10  19  36  64  94 123 165 215 258 312 378
#     4  12  23  43  65  89 130 170 206 269 329 374
#     4  10  24  44  62  92 123 169 223 255 315 385
#     4   9  21  37  62  94 126 159 208 262 323 371
#     4  11  24  42  60  91 128 168 212 262 322 382
#     4  11  20  38  63  90 122 171 214 261 311 382
#
# _framework density 21.435644
#
# number of rings (size 3 to 8) (size 9 to 14) (size 15 to 20)
#    0.857    0.857    0.000    5.571    0.000    0.000 
#    5.143    5.714    0.000    0.000    0.000    0.000 
#    0.000    0.000    0.000    0.000    0.000    0.000 
#
# Total GULP energy -155878.649014 kJ/mol
# GULP energy per Si atom -5567.094608 kJ/mol
# Density = 2.138686 g / cm^3
# Si number density = 21.435644 Si / 1000 Ang^3
#
#
#
# Elastic Constant Matrix: (Units=GPa)
#
#
# Indices 1 2 3 4 5 6 
#
# 1 124.5741 23.2005 24.3986 0.0000 18.3034 0.0000
# 2 23.2005 35.9246 7.4537 0.0000 -17.7042 0.0000
# 3 24.3986 7.4537 59.5477 0.0000 10.1089 0.0000
# 4 0.0000 0.0000 0.0000 22.3241 0.0000 -3.6680
# 5 18.3034 -17.7042 10.1089 0.0000 33.3496 0.0000
# 6 0.0000 0.0000 0.0000 -3.6680 0.0000 23.3804
#
#
#
# Elastic Compliance Matrix: (Units=1/GPa)
#
#
# Indices 1 2 3 4 5 6 
#
# 1 0.013604 -0.016497 -0.000796 0.000000 -0.015983 0.000000
# 2 -0.016497 0.062349 -0.008646 0.000000 0.044774 0.000000
# 3 -0.000796 -0.008646 0.019932 0.000000 -0.010195 0.000000
# 4 0.000000 0.000000 0.000000 0.045980 0.000000 0.007214
# 5 -0.015983 0.044774 -0.010195 0.000000 0.065617 0.000000
# 6 0.000000 0.000000 0.000000 0.007214 0.000000 0.043903
#
#
# Mechanical properties :
#
#
# Convention : Reuss Voigt Hill
#
# Bulk Modulus (GPa) = 22.72307 36.68354 29.70330
# Shear Modulus (GPa) = 15.72667 26.81040 21.26853
#
# Velocity S-wave (km/s) = 2.71157 3.54042 3.15334
# Velocity P-wave (km/s) = 4.51964 5.81921 5.21010
#
# Compressibility (1/GPa) = 0.04400814
#
# Stress axis : x y z
#
# Youngs Moduli (GPa) = 73.50828 16.03866 50.17000
#
# Poissons Ratio (x) = 0.26459 0.03992
# Poissons Ratio (y) = 1.21267 0.43376
# Poissons Ratio (z) = 0.05849 0.13867
#
# Static dielectric constant tensor:
#      x y z
#    x 1.878960 0.000000 0.005170 
#    y 0.000000 1.741200 0.000000 
#    z 0.005170 0.000000 1.797700 
# 
# From -- ./inp_files/292196.got.cif
#   From: 2010.05.17/outbox.cif.g08.bks.cpg/sg15_147_cif.got.tgz:292196.got - 2010.06.03 18:47:42.
