data_PCOD9265555
_publ_section_title
;
Structure prediction by ZEFSAII (Michael W. Deem and Ramdas Pophale) SiO2 
 PCOD9265555
Probable space group: C 2/C
;
_chemical_formula_sum "Si O2"
_cell_formula_units_Z 48
_cell_length_a 20.415679
_cell_length_b 7.688488
_cell_length_c 19.808542
_cell_angle_alpha 90.000000
_cell_angle_beta 55.429862
_cell_angle_gamma 90.000000
_cell_volume 2560.266254
_symmetry_space_group_name_H-M "C 2/C"
_symmetry_group_IT_number 15
_symmetry_cell_setting 'monoclinic'
loop_
_space_group_symop_operation_xyz
x,y,z
-x,y,1/2-z
-x,-y,-z
x,-y,1/2+z
1/2+x,1/2+y,z
1/2-x,1/2+y,1/2-z
1/2-x,1/2-y,-z
1/2+x,1/2-y,1/2+z
loop_
_atom_site_type_symbol
_atom_site_label
_atom_site_fract_x
_atom_site_fract_y
_atom_site_fract_z
Si Si1 0.422696 0.382105 0.246765
Si Si2 0.383614 0.038437 0.017671
Si Si3 0.920910 0.708405 0.750782
Si Si4 0.659787 0.276568 0.571567
Si Si5 0.284510 0.628632 0.921178
Si Si6 0.548894 0.907026 0.875744
O O1 0.500000 0.364272 0.250000
O O2 0.412779 0.587792 0.235634
O O3 0.343434 0.302323 0.328972
O O4 0.436933 0.268486 0.172810
O O5 0.402176 0.085561 0.083536
O O6 0.295375 0.958425 0.062583
O O7 0.389083 0.198244 0.961433
O O8 0.455724 0.917592 0.950154
O O9 0.855416 0.683002 0.847964
O O10 0.926710 0.569867 0.687312
O O11 0.000000 0.693710 0.750000
O O12 0.750000 0.250000 0.500000
O O13 0.655327 0.482515 0.583582
O O14 0.250000 0.750000 0.000000
#
# Coordination Sequence:
#
# PCOD9265555 Si02
#       6
#     8   8   8   8   8   8
#     4  10  22  38  62  90 115 156 211 248 293 366
#     4  10  22  41  57  93 122 159 202 248 315 361
#     4  10  19  36  62  87 114 155 207 247 291 354
#     4   9  19  36  60  82 116 153 198 248 294 349
#     4  10  21  39  61  92 118 153 209 250 299 364
#     4  11  22  39  64  86 127 164 199 248 313 365
#
# _framework density 18.748049000000002
#
# number of rings (size 3 to 8) (size 9 to 14) (size 15 to 20)
#    0.000    2.000    1.667    1.500    4.667    0.000 
#   12.000    1.667    0.000    0.000    0.000    0.000 
#    0.000    0.000    0.000    0.000    0.000    0.000 
#
# Total GULP energy -133666.063213 kJ/mol
# GULP energy per Si atom -5569.419301 kJ/mol
# Density = 1.870538 g / cm^3
# Si number density = 18.748049 Si / 1000 Ang^3
#
#
#
# Elastic Constant Matrix: (Units=GPa)
#
#
# Indices 1 2 3 4 5 6 
#
# 1 90.9232 28.9361 50.7713 0.0017 4.5693 -0.0007
# 2 28.9361 55.0778 37.9706 0.0030 24.7740 -0.0024
# 3 50.7713 37.9706 121.7852 0.0006 12.4394 -0.0004
# 4 0.0017 0.0030 0.0006 29.6260 0.0007 -4.7850
# 5 4.5693 24.7740 12.4394 0.0007 37.1423 -0.0003
# 6 -0.0007 -0.0024 -0.0004 -4.7850 -0.0003 10.4363
#
#
#
# Elastic Compliance Matrix: (Units=1/GPa)
#
#
# Indices 1 2 3 4 5 6 
#
# 1 0.015647 -0.006782 -0.004840 0.000000 0.004219 -0.000001
# 2 -0.006782 0.035128 -0.006023 -0.000002 -0.020579 0.000006
# 3 -0.004840 -0.006023 0.012048 0.000000 0.000578 -0.000001
# 4 0.000000 -0.000002 0.000000 0.036454 0.000000 0.016714
# 5 0.004219 -0.020579 0.000578 0.000000 0.039937 -0.000003
# 6 -0.000001 0.000006 -0.000001 0.016714 -0.000003 0.103483
#
#
# Mechanical properties :
#
#
# Convention : Reuss Voigt Hill
#
# Bulk Modulus (GPa) = 36.31963 55.90470 46.11217
# Shear Modulus (GPa) = 17.41175 25.44813 21.42994
#
# Velocity S-wave (km/s) = 3.05080 3.68825 3.38457
# Velocity P-wave (km/s) = 5.64131 6.92974 6.31845
#
# Compressibility (1/GPa) = 0.02753332
#
# Stress axis : x y z
#
# Youngs Moduli (GPa) = 63.90997 28.46759 83.00391
#
# Poissons Ratio (x) = 0.19306 0.40171
# Poissons Ratio (y) = 0.43343 0.49993
# Poissons Ratio (z) = 0.30930 0.17146
#
# Static dielectric constant tensor:
#      x y z
#    x 1.647090 0.000000 -0.014820 
#    y 0.000000 1.758720 0.000000 
#    z -0.014820 0.000000 1.741640 
# 
# From -- ./inp_files/213283.got.cif
#   From: 2010.05.17/outbox.cif.g08.bks.cpg/sg15_107_cif.got.tgz:213283.got - 2010.06.03 18:47:42.
