data_PCOD9265006
_publ_section_title
;
Structure prediction by ZEFSAII (Michael W. Deem and Ramdas Pophale) SiO2 
 PCOD9265006
Probable space group: C 2/C
;
_chemical_formula_sum "Si O2"
_cell_formula_units_Z 64
_cell_length_a 27.069251
_cell_length_b 8.870905
_cell_length_c 18.790406
_cell_angle_alpha 90.000000
_cell_angle_beta 139.075932
_cell_angle_gamma 90.000000
_cell_volume 2955.699386
_symmetry_space_group_name_H-M "C 2/C"
_symmetry_group_IT_number 15
_symmetry_cell_setting 'monoclinic'
loop_
_space_group_symop_operation_xyz
x,y,z
-x,y,1/2-z
-x,-y,-z
x,-y,1/2+z
1/2+x,1/2+y,z
1/2-x,1/2+y,1/2-z
1/2-x,1/2-y,-z
1/2+x,1/2-y,1/2+z
loop_
_atom_site_type_symbol
_atom_site_label
_atom_site_fract_x
_atom_site_fract_y
_atom_site_fract_z
Si Si1 0.911530 0.366348 0.472035
Si Si2 0.771944 0.076279 0.467091
Si Si3 0.124383 0.469178 0.373622
Si Si4 0.714418 0.247538 0.039673
Si Si5 0.748994 0.476722 0.803062
Si Si6 0.072465 0.784085 0.369517
Si Si7 0.811815 0.281776 0.746041
Si Si8 0.565993 0.032060 0.652782
O O1 0.829034 0.434154 0.398468
O O2 0.926614 0.228895 0.543247
O O3 0.916449 0.349710 0.391416
O O4 0.978453 0.487377 0.558895
O O5 0.709056 0.037300 0.456763
O O6 0.853695 0.130637 0.577665
O O7 0.732521 0.201146 0.375872
O O8 0.783642 0.920850 0.435384
O O9 0.133163 0.328586 0.436136
O O10 0.078683 0.608957 0.353473
O O11 0.095959 0.426237 0.263784
O O12 0.758806 0.140108 0.141054
O O13 0.750000 0.250000 0.000000
O O14 0.761888 0.372138 0.748942
O O15 0.686322 0.606749 0.731379
O O16 0.000000 0.846596 0.250000
O O17 0.888171 0.378249 0.818972
#
# Coordination Sequence:
#
# PCOD9265006 Si02
#       8
#     8   8   8   8   8   8   8   8
#     4  10  19  36  56  84 119 153 199 239 286 354
#     4  10  21  37  54  85 120 147 189 249 299 345
#     4  10  19  36  59  84 113 154 200 238 295 353
#     4  10  21  36  55  83 119 151 192 248 296 346
#     4  11  20  36  61  89 116 159 199 244 295 349
#     4  12  21  35  59  89 112 157 198 247 294 357
#     4  10  20  35  61  90 116 152 195 245 294 352
#     4   9  20  34  56  88 116 156 196 241 291 350
#
# _framework density 21.653082999999999
#
# number of rings (size 3 to 8) (size 9 to 14) (size 15 to 20)
#    0.000    1.750    3.750    1.125    0.000    4.000 
#    0.000    1.875    0.000    0.750    6.500    0.000 
#    0.000    0.000    0.000    0.000    0.000    0.000 
#
# Total GULP energy -178466.465512 kJ/mol
# GULP energy per Si atom -5577.077047 kJ/mol
# Density = 2.160380 g / cm^3
# Si number density = 21.653083 Si / 1000 Ang^3
#
#
#
# Elastic Constant Matrix: (Units=GPa)
#
#
# Indices 1 2 3 4 5 6 
#
# 1 51.3792 0.5531 12.1197 0.0000 0.3569 0.0000
# 2 0.5531 68.9225 0.3842 0.0000 -8.0302 0.0000
# 3 12.1197 0.3842 71.9322 0.0000 2.4210 0.0000
# 4 0.0000 0.0000 0.0000 23.5883 0.0000 -7.1197
# 5 0.3569 -8.0302 2.4210 0.0000 39.0620 0.0000
# 6 0.0000 0.0000 0.0000 -7.1197 0.0000 21.0520
#
#
#
# Elastic Compliance Matrix: (Units=1/GPa)
#
#
# Indices 1 2 3 4 5 6 
#
# 1 0.020270 -0.000144 -0.003414 0.000000 -0.000003 0.000000
# 2 -0.000144 0.014869 -0.000158 0.000000 0.003068 0.000000
# 3 -0.003414 -0.000158 0.014508 0.000000 -0.000901 0.000000
# 4 0.000000 0.000000 0.000000 0.047213 0.000000 0.015967
# 5 -0.000003 0.003068 -0.000901 0.000000 0.026287 0.000000
# 6 0.000000 0.000000 0.000000 0.015967 0.000000 0.052901
#
#
# Mechanical properties :
#
#
# Convention : Reuss Voigt Hill
#
# Bulk Modulus (GPa) = 23.68912 24.26087 23.97499
# Shear Modulus (GPa) = 25.30963 28.68560 26.99761
#
# Velocity S-wave (km/s) = 3.42258 3.64370 3.53487
# Velocity P-wave (km/s) = 5.15585 5.37873 5.26847
#
# Compressibility (1/GPa) = 0.04221347
#
# Stress axis : x y z
#
# Youngs Moduli (GPa) = 49.33377 67.25619 68.92554
#
# Poissons Ratio (x) = 0.00968 0.23534
# Poissons Ratio (y) = 0.00710 0.01092
# Poissons Ratio (z) = 0.16844 0.01065
#
# Static dielectric constant tensor:
#      x y z
#    x 1.840170 0.000000 -0.028900 
#    y 0.000000 1.866690 0.000000 
#    z -0.028900 0.000000 1.846500 
# 
# From -- ./inp_files/224637.got.cif
#   From: 2010.05.17/outbox.cif.g08.bks.cpg/sg15_113_cif.got.tgz:224637.got - 2010.06.03 18:47:42.
