data_PCOD9265765
_publ_section_title
;
Structure prediction by ZEFSAII (Michael W. Deem and Ramdas Pophale) SiO2 
 PCOD9265765
Probable space group: C 2/C
;
_chemical_formula_sum "Si O2"
_cell_formula_units_Z 60
_cell_length_a 15.401314
_cell_length_b 21.265080
_cell_length_c 13.853172
_cell_angle_alpha 90.000000
_cell_angle_beta 138.590473
_cell_angle_gamma 90.000000
_cell_volume 3000.974007
_symmetry_space_group_name_H-M "C 2/C"
_symmetry_group_IT_number 15
_symmetry_cell_setting 'monoclinic'
loop_
_space_group_symop_operation_xyz
x,y,z
-x,y,1/2-z
-x,-y,-z
x,-y,1/2+z
1/2+x,1/2+y,z
1/2-x,1/2+y,1/2-z
1/2-x,1/2-y,-z
1/2+x,1/2-y,1/2+z
loop_
_atom_site_type_symbol
_atom_site_label
_atom_site_fract_x
_atom_site_fract_y
_atom_site_fract_z
Si Si1 0.803108 0.637729 0.794396
Si Si2 0.629048 0.963729 0.301052
Si Si3 0.637047 0.109634 0.320078
Si Si4 0.825515 0.229206 0.967644
Si Si5 0.500000 0.648432 0.250000
Si Si6 0.351820 0.411554 0.165716
Si Si7 0.721765 0.553335 0.382824
Si Si8 0.601763 0.854074 0.586775
O O1 0.829526 0.573692 0.757740
O O2 0.762262 0.687990 0.678776
O O3 0.688679 0.631784 0.777859
O O4 0.943779 0.646784 0.963034
O O5 0.500000 0.939265 0.250000
O O6 0.739282 0.954270 0.473019
O O7 0.609195 0.037273 0.264812
O O8 0.500000 0.133305 0.250000
O O9 0.751168 0.105215 0.494694
O O10 0.666056 0.146526 0.246287
O O11 0.865681 0.292435 0.946991
O O12 0.750000 0.250000 0.000000
O O13 0.942161 0.189236 0.113534
O O14 0.606756 0.603829 0.288681
O O15 0.500000 0.407032 0.250000
O O16 0.323051 0.482833 0.179552
O O17 0.840239 0.584436 0.420533
#
# Coordination Sequence:
#
# PCOD9265765 Si02
#       8
#     8   8   8   8   4   8   8   8
#     4  12  24  42  69 100 132 177 230 278 337 407
#     4  10  19  36  66 101 133 165 213 274 343 396
#     4  10  22  42  66  97 133 176 225 279 330 402
#     4  12  26  44  66  98 134 175 219 282 339 406
#     4  12  22  42  62  94 142 174 206 262 352 404
#     4  11  25  45  68 100 142 178 224 284 344 401
#     4  11  22  39  67 100 138 175 211 277 348 410
#     4  12  24  42  68  97 131 181 234 276 328 404
#
# _framework density 19.993507999999999
#
# number of rings (size 3 to 8) (size 9 to 14) (size 15 to 20)
#    0.000    0.800    6.000    1.600    0.000    2.133 
#    0.000    4.000    0.000    0.000    0.000    0.000 
#    0.000    0.000    0.000    0.000    0.000    0.000 
#
# Total GULP energy -167459.457434 kJ/mol
# GULP energy per Si atom -5581.981914 kJ/mol
# Density = 1.994800 g / cm^3
# Si number density = 19.993508 Si / 1000 Ang^3
#
#
#
# Elastic Constant Matrix: (Units=GPa)
#
#
# Indices 1 2 3 4 5 6 
#
# 1 122.3779 45.1481 47.7529 0.0000 -1.0818 0.0000
# 2 45.1481 52.1648 31.0941 0.0000 -6.2735 0.0000
# 3 47.7529 31.0941 79.2466 0.0000 0.9338 0.0000
# 4 0.0000 0.0000 0.0000 23.3753 0.0000 -10.1843
# 5 -1.0818 -6.2735 0.9338 0.0000 37.2828 0.0000
# 6 0.0000 0.0000 0.0000 -10.1843 0.0000 16.5532
#
#
#
# Elastic Compliance Matrix: (Units=1/GPa)
#
#
# Indices 1 2 3 4 5 6 
#
# 1 0.013168 -0.008868 -0.004444 0.000000 -0.000999 0.000000
# 2 -0.008868 0.031758 -0.007179 0.000000 0.005266 0.000000
# 3 -0.004444 -0.007179 0.018134 0.000000 -0.001791 0.000000
# 4 0.000000 0.000000 0.000000 0.058447 0.000000 0.035959
# 5 -0.000999 0.005266 -0.001791 0.000000 0.027724 0.000000
# 6 0.000000 0.000000 0.000000 0.035959 0.000000 0.082535
#
#
# Mechanical properties :
#
#
# Convention : Reuss Voigt Hill
#
# Bulk Modulus (GPa) = 45.29233 55.75328 50.52280
# Shear Modulus (GPa) = 17.85024 24.09523 20.97274
#
# Velocity S-wave (km/s) = 2.99122 3.47530 3.24231
# Velocity P-wave (km/s) = 5.88494 6.63700 6.27226
#
# Compressibility (1/GPa) = 0.02207880
#
# Stress axis : x y z
#
# Youngs Moduli (GPa) = 75.94016 31.48797 55.14388
#
# Poissons Ratio (x) = 0.27925 0.24503
# Poissons Ratio (y) = 0.67347 0.39588
# Poissons Ratio (z) = 0.33744 0.22605
#
# Static dielectric constant tensor:
#      x y z
#    x 1.711040 0.000000 0.033350 
#    y 0.000000 1.782420 0.000000 
#    z 0.033350 0.000000 1.734850 
# 
# From -- ./inp_files/156395.got.cif
#   From: 2010.05.17/outbox.cif.g08.bks.cpg/sg15_79_cif.got.tgz:156395.got - 2010.06.03 18:47:42.
