data_PCOD9265536
_publ_section_title
;
Structure prediction by ZEFSAII (Michael W. Deem and Ramdas Pophale) SiO2 
 PCOD9265536
Probable space group: C 2/C
;
_chemical_formula_sum "Si O2"
_cell_formula_units_Z 48
_cell_length_a 12.271596
_cell_length_b 9.346761
_cell_length_c 16.019836
_cell_angle_alpha 90.000000
_cell_angle_beta 98.452232
_cell_angle_gamma 90.000000
_cell_volume 1817.512760
_symmetry_space_group_name_H-M "C 2/C"
_symmetry_group_IT_number 15
_symmetry_cell_setting 'monoclinic'
loop_
_space_group_symop_operation_xyz
x,y,z
-x,y,1/2-z
-x,-y,-z
x,-y,1/2+z
1/2+x,1/2+y,z
1/2-x,1/2+y,1/2-z
1/2-x,1/2-y,-z
1/2+x,1/2-y,1/2+z
loop_
_atom_site_type_symbol
_atom_site_label
_atom_site_fract_x
_atom_site_fract_y
_atom_site_fract_z
Si Si1 0.763586 0.610815 0.294425
Si Si2 0.361359 0.464015 0.064253
Si Si3 0.448822 0.394227 0.827198
Si Si4 0.069069 0.336303 0.959346
Si Si5 0.042286 0.572492 0.637990
Si Si6 0.172688 0.186694 0.564034
O O1 0.703166 0.532883 0.365656
O O2 0.680781 0.614400 0.207456
O O3 0.874060 0.517848 0.295805
O O4 0.789434 0.767143 0.338573
O O5 0.486383 0.520971 0.094552
O O6 0.359003 0.294128 0.063839
O O7 0.326373 0.525045 0.970286
O O8 0.500000 0.463578 0.750000
O O9 0.488514 0.229784 0.836585
O O10 0.057736 0.468108 0.895619
O O11 0.945715 0.267250 0.955673
O O12 0.098018 0.396026 0.053496
O O13 0.250000 0.250000 0.500000
#
# Coordination Sequence:
#
# PCOD9265536 Si02
#       6
#     8   8   8   8   8   8
#     4   9  21  36  55  84 118 146 184 240 283 341
#     4  10  19  36  62  83 108 150 196 230 278 343
#     4  10  21  39  59  79 111 155 190 226 288 346
#     4  10  20  35  60  85 112 147 191 240 283 331
#     4  10  21  38  56  82 119 147 183 238 291 334
#     4   9  17  32  55  84 109 145 190 229 271 334
#
# _framework density 26.40972
#
# number of rings (size 3 to 8) (size 9 to 14) (size 15 to 20)
#    0.000    2.333    1.667    0.500    0.000    3.333 
#    0.000    4.167    0.000    0.000    0.000    0.000 
#    0.000    0.000    0.000    0.000    0.000    0.000 
#
# Total GULP energy -134127.707416 kJ/mol
# GULP energy per Si atom -5588.654476 kJ/mol
# Density = 2.634961 g / cm^3
# Si number density = 26.409720 Si / 1000 Ang^3
#
#
#
# Elastic Constant Matrix: (Units=GPa)
#
#
# Indices 1 2 3 4 5 6 
#
# 1 42.9628 -11.8700 16.3208 0.0000 10.1377 0.0000
# 2 -11.8700 149.5005 46.2433 0.0000 15.8559 0.0000
# 3 16.3208 46.2433 122.7140 0.0000 32.7459 0.0000
# 4 0.0000 0.0000 0.0000 12.0162 0.0000 7.2002
# 5 10.1377 15.8559 32.7459 0.0000 48.1094 0.0000
# 6 0.0000 0.0000 0.0000 7.2002 0.0000 27.3507
#
#
#
# Elastic Compliance Matrix: (Units=1/GPa)
#
#
# Indices 1 2 3 4 5 6 
#
# 1 0.026785 0.003768 -0.003843 0.000000 -0.004270 0.000000
# 2 0.003768 0.008120 -0.003220 0.000000 -0.001279 0.000000
# 3 -0.003843 -0.003220 0.011455 0.000000 -0.005926 0.000000
# 4 0.000000 0.000000 0.000000 0.098807 0.000000 -0.026011
# 5 -0.004270 -0.001279 -0.005926 0.000000 0.026141 0.000000
# 6 0.000000 0.000000 0.000000 -0.026011 0.000000 0.043410
#
#
# Mechanical properties :
#
#
# Convention : Reuss Voigt Hill
#
# Bulk Modulus (GPa) = 25.14444 46.28504 35.71474
# Shear Modulus (GPa) = 21.31636 35.12749 28.22193
#
# Velocity S-wave (km/s) = 2.84410 3.65101 3.27252
# Velocity P-wave (km/s) = 4.50853 5.94449 5.27559
#
# Compressibility (1/GPa) = 0.03977022
#
# Stress axis : x y z
#
# Youngs Moduli (GPa) = 37.33500 123.15776 87.30013
#
# Poissons Ratio (x) = -0.46408 0.33547
# Poissons Ratio (y) = -0.14069 0.28109
# Poissons Ratio (z) = 0.14347 0.39654
#
# Static dielectric constant tensor:
#      x y z
#    x 2.218350 0.000000 0.016070 
#    y 0.000000 2.061010 0.000000 
#    z 0.016070 0.000000 2.052280 
# 
# From -- ./inp_files/242332.got.cif
#   From: 2010.05.17/outbox.cif.g08.bks.cpg/sg15_122_cif.got.tgz:242332.got - 2010.06.03 18:47:42.
