data_PCOD9265883
_publ_section_title
;
Structure prediction by ZEFSAII (Michael W. Deem and Ramdas Pophale) SiO2 
 PCOD9265883
Probable space group: C 2/C
;
_chemical_formula_sum "Si O2"
_cell_formula_units_Z 48
_cell_length_a 23.872158
_cell_length_b 20.580355
_cell_length_c 8.436116
_cell_angle_alpha 90.000000
_cell_angle_beta 139.864174
_cell_angle_gamma 90.000000
_cell_volume 2671.644050
_symmetry_space_group_name_H-M "C 2/C"
_symmetry_group_IT_number 15
_symmetry_cell_setting 'monoclinic'
loop_
_space_group_symop_operation_xyz
x,y,z
-x,y,1/2-z
-x,-y,-z
x,-y,1/2+z
1/2+x,1/2+y,z
1/2-x,1/2+y,1/2-z
1/2-x,1/2-y,-z
1/2+x,1/2-y,1/2+z
loop_
_atom_site_type_symbol
_atom_site_label
_atom_site_fract_x
_atom_site_fract_y
_atom_site_fract_z
Si Si1 0.272249 0.695719 0.674995
Si Si2 0.196882 0.930427 0.833842
Si Si3 0.310271 0.810227 0.189462
Si Si4 0.325903 0.570380 0.589972
Si Si5 0.987587 0.893532 0.910090
Si Si6 0.436003 0.252477 0.737538
O O1 0.250000 0.750000 0.500000
O O2 0.193425 0.690612 0.629156
O O3 0.292873 0.629893 0.626133
O O4 0.355821 0.716802 0.961917
O O5 0.194943 0.924420 0.640247
O O6 0.103678 0.914294 0.712540
O O7 0.212185 0.004098 0.921075
O O8 0.265460 0.877388 0.042445
O O9 0.399185 0.794698 0.291733
O O10 0.250000 0.750000 0.000000
O O11 0.430778 0.573721 0.828979
O O12 0.985970 0.814912 0.917700
O O13 0.000000 0.909014 0.750000
O O14 0.500000 0.219848 0.750000
#
# Coordination Sequence:
#
# PCOD9265883 Si02
#       6
#     8   8   8   8   8   8
#     4  11  21  36  57  83 111 148 194 240 279 343
#     4  12  23  36  55  80 116 158 192 236 278 341
#     4  10  19  37  57  76 111 150 195 235 282 327
#     4  12  23  35  53  83 115 152 195 227 291 346
#     4  11  19  36  52  77 117 155 184 228 276 345
#     4  10  19  37  59  78 116 151 193 236 292 328
#
# _framework density 17.966466
#
# number of rings (size 3 to 8) (size 9 to 14) (size 15 to 20)
#    0.000    1.000    6.667    5.000    0.000    0.000 
#    0.000    0.833    0.000    0.000    0.000   10.500 
#    0.000    0.000    0.000    0.000    0.000    0.000 
#
# Total GULP energy -133967.670050 kJ/mol
# GULP energy per Si atom -5581.986252 kJ/mol
# Density = 1.792557 g / cm^3
# Si number density = 17.966466 Si / 1000 Ang^3
#
#
#
# Elastic Constant Matrix: (Units=GPa)
#
#
# Indices 1 2 3 4 5 6 
#
# 1 174.0984 52.2928 19.7991 0.0000 -23.3604 0.0000
# 2 52.2928 109.2913 26.7527 0.0000 -8.1826 0.0000
# 3 19.7991 26.7527 32.0446 0.0000 -22.0134 0.0000
# 4 0.0000 0.0000 0.0000 23.6213 0.0000 2.4411
# 5 -23.3604 -8.1826 -22.0134 0.0000 30.4189 0.0000
# 6 0.0000 0.0000 0.0000 2.4411 0.0000 35.7364
#
#
#
# Elastic Compliance Matrix: (Units=1/GPa)
#
#
# Indices 1 2 3 4 5 6 
#
# 1 0.007499 -0.003954 0.003765 0.000000 0.007420 0.000000
# 2 -0.003954 0.014560 -0.018112 0.000000 -0.012227 0.000000
# 3 0.003765 -0.018112 0.084796 0.000000 0.059384 0.000000
# 4 0.000000 0.000000 0.000000 0.042636 0.000000 -0.002912
# 5 0.007420 -0.012227 0.059384 0.000000 0.078258 0.000000
# 6 0.000000 0.000000 0.000000 -0.002912 0.000000 0.028182
#
#
# Mechanical properties :
#
#
# Convention : Reuss Voigt Hill
#
# Bulk Modulus (GPa) = 14.23438 57.01372 35.62405
# Shear Modulus (GPa) = 15.82530 32.39463 24.10996
#
# Velocity S-wave (km/s) = 2.97109 4.25085 3.66723
# Velocity P-wave (km/s) = 4.43957 7.47632 6.14838
#
# Compressibility (1/GPa) = 0.07025243
#
# Stress axis : x y z
#
# Youngs Moduli (GPa) = 133.35153 68.68204 11.79303
#
# Poissons Ratio (x) = 0.27158 -0.04440
# Poissons Ratio (y) = 0.52729 0.21359
# Poissons Ratio (z) = -0.50206 1.24397
#
# Static dielectric constant tensor:
#      x y z
#    x 1.656800 0.000000 0.004400 
#    y 0.000000 1.618000 0.000000 
#    z 0.004400 0.000000 1.617430 
# 
# From -- ./inp_files/56797.got.cif
#   From: 2010.05.17/outbox.cif.g08.bks.cpg/sg15_29_cif.got.tgz:56797.got - 2010.06.03 18:47:42.
