data_PCOD9265737
_publ_section_title
;
Structure prediction by ZEFSAII (Michael W. Deem and Ramdas Pophale) SiO2 
 PCOD9265737
Probable space group: C 2/C
;
_chemical_formula_sum "Si O2"
_cell_formula_units_Z 56
_cell_length_a 12.325181
_cell_length_b 13.958176
_cell_length_c 26.810184
_cell_angle_alpha 90.000000
_cell_angle_beta 147.287486
_cell_angle_gamma 90.000000
_cell_volume 2492.622324
_symmetry_space_group_name_H-M "C 2/C"
_symmetry_group_IT_number 15
_symmetry_cell_setting 'monoclinic'
loop_
_space_group_symop_operation_xyz
x,y,z
-x,y,1/2-z
-x,-y,-z
x,-y,1/2+z
1/2+x,1/2+y,z
1/2-x,1/2+y,1/2-z
1/2-x,1/2-y,-z
1/2+x,1/2-y,1/2+z
loop_
_atom_site_type_symbol
_atom_site_label
_atom_site_fract_x
_atom_site_fract_y
_atom_site_fract_z
Si Si1 0.339232 0.690123 0.264424
Si Si2 0.226008 0.407343 0.108953
Si Si3 0.897609 0.139729 0.503402
Si Si4 0.067887 0.640059 0.450634
Si Si5 0.821698 0.401968 0.216126
Si Si6 0.128575 0.991548 0.236468
Si Si7 0.739592 0.807681 0.841106
O O1 0.384911 0.796492 0.262435
O O2 0.470940 0.597257 0.301479
O O3 0.316586 0.683940 0.314817
O O4 0.129886 0.659788 0.157744
O O5 0.445695 0.416630 0.167786
O O6 0.243716 0.474059 0.164225
O O7 0.212629 0.301728 0.126385
O O8 0.070940 0.416481 0.003821
O O9 0.876432 0.252919 0.508155
O O10 0.731707 0.095654 0.476276
O O11 0.843709 0.128608 0.424419
O O12 0.120221 0.110454 0.605429
O O13 0.761324 0.468470 0.239407
O O14 0.000000 0.437790 0.250000
O O15 0.500000 0.821851 0.750000
#
# Coordination Sequence:
#
# PCOD9265737 Si02
#       7
#     8   8   8   8   8   8   8
#     4  11  23  37  61  95 120 159 201 251 306 362
#     4  10  19  36  65  85 115 154 205 256 290 345
#     4   9  18  33  61  93 113 157 206 248 301 352
#     4   9  17  33  61  91 118 145 207 259 297 341
#     4  11  23  43  60  84 132 166 189 245 315 371
#     4  11  22  37  61  91 117 157 206 242 304 356
#     4  11  17  34  65  92 113 151 203 260 289 340
#
# _framework density 22.466298999999999
#
# number of rings (size 3 to 8) (size 9 to 14) (size 15 to 20)
#    0.000    1.714    5.714    0.000    2.000    1.143 
#    0.000    2.857    0.000    0.000    0.000    0.000 
#    0.000    0.000    0.000    0.000    0.000    0.000 
#
# Total GULP energy -156296.016390 kJ/mol
# GULP energy per Si atom -5582.000585 kJ/mol
# Density = 2.241516 g / cm^3
# Si number density = 22.466299 Si / 1000 Ang^3
#
#
#
# Elastic Constant Matrix: (Units=GPa)
#
#
# Indices 1 2 3 4 5 6 
#
# 1 106.8125 15.8033 34.8838 0.0000 -29.6545 0.0000
# 2 15.8033 73.3724 -4.2859 0.0000 -14.0781 0.0000
# 3 34.8838 -4.2859 103.8454 0.0001 -42.6226 -0.0003
# 4 0.0000 0.0000 0.0001 11.6046 0.0000 1.6324
# 5 -29.6545 -14.0781 -42.6226 0.0000 34.2121 0.0000
# 6 0.0000 0.0000 -0.0003 1.6324 0.0000 -11.8572
#
#
#
# Elastic Compliance Matrix: (Units=1/GPa)
#
#
# Indices 1 2 3 4 5 6 
#
# 1 0.012361 -0.000577 0.000254 0.000000 0.010794 0.000000
# 2 -0.000577 0.017211 0.007379 0.000000 0.015775 0.000000
# 3 0.000254 0.007379 0.022890 0.000000 0.031774 -0.000001
# 4 0.000000 0.000000 0.000000 0.084536 0.000000 0.011638
# 5 0.010794 0.015775 0.031774 0.000000 0.084662 -0.000001
# 6 0.000000 0.000000 -0.000001 0.011638 -0.000001 -0.082735
#
#
# Mechanical properties :
#
#
# Convention : Reuss Voigt Hill
#
# Bulk Modulus (GPa) = 15.02051 41.87032 28.44541
# Shear Modulus (GPa) = 34.01242 22.63383 28.32313
#
# Velocity S-wave (km/s) = 3.89515 3.17749 3.55448
# Velocity P-wave (km/s) = 5.18940 5.66916 5.43457
#
# Compressibility (1/GPa) = 0.06657565
#
# Stress axis : x y z
#
# Youngs Moduli (GPa) = 80.89811 58.10182 43.68635
#
# Poissons Ratio (x) = 0.03350 -0.01110
# Poissons Ratio (y) = 0.04664 -0.32236
# Poissons Ratio (z) = -0.02055 -0.42873
#
# Static dielectric constant tensor:
#      x y z
#    x 1.827410 0.000000 -0.002000 
#    y 0.000000 1.882800 0.000000 
#    z -0.002000 0.000000 1.848600 
# 
# From -- ./inp_files/292892.got.cif
#   From: 2010.05.17/outbox.cif.g08.bks.cpg/sg15_147_cif.got.tgz:292892.got - 2010.06.03 18:47:42.
