data_PCOD9265653
_publ_section_title
;
Structure prediction by ZEFSAII (Michael W. Deem and Ramdas Pophale) SiO2 
 PCOD9265653
Probable space group: C 2/C
;
_chemical_formula_sum "Si O2"
_cell_formula_units_Z 56
_cell_length_a 18.077407
_cell_length_b 22.694388
_cell_length_c 8.586065
_cell_angle_alpha 90.000000
_cell_angle_beta 128.506187
_cell_angle_gamma 90.000000
_cell_volume 2756.486350
_symmetry_space_group_name_H-M "C 2/C"
_symmetry_group_IT_number 15
_symmetry_cell_setting 'monoclinic'
loop_
_space_group_symop_operation_xyz
x,y,z
-x,y,1/2-z
-x,-y,-z
x,-y,1/2+z
1/2+x,1/2+y,z
1/2-x,1/2+y,1/2-z
1/2-x,1/2-y,-z
1/2+x,1/2-y,1/2+z
loop_
_atom_site_type_symbol
_atom_site_label
_atom_site_fract_x
_atom_site_fract_y
_atom_site_fract_z
Si Si1 0.247099 0.088553 0.615994
Si Si2 0.228116 0.818980 0.635167
Si Si3 0.669829 0.695498 0.699292
Si Si4 0.124176 0.579975 0.173795
Si Si5 0.549108 0.147129 0.644587
Si Si6 0.534776 0.728359 0.971778
Si Si7 0.294309 0.002488 0.945566
O O1 0.193394 0.147587 0.598526
O O2 0.354585 0.110833 0.732117
O O3 0.228727 0.046315 0.444166
O O4 0.241413 0.043383 0.752933
O O5 0.283458 0.759887 0.760672
O O6 0.211901 0.821412 0.425951
O O7 0.294735 0.873000 0.763259
O O8 0.124363 0.814584 0.573640
O O9 0.557464 0.702408 0.566967
O O10 0.158790 0.545149 0.368490
O O11 0.122997 0.532052 0.036070
O O12 0.027228 0.614290 0.063226
O O13 0.500000 0.150370 0.750000
O O14 0.565322 0.212191 0.598612
O O15 0.500000 0.743194 0.750000
#
# Coordination Sequence:
#
# PCOD9265653 Si02
#       7
#     8   8   8   8   8   8   8
#     4  11  22  40  59  86 121 158 200 245 291 360
#     4  10  19  36  63  91 116 153 195 248 301 349
#     4  10  19  36  63  91 116 153 195 248 301 349
#     4  11  22  40  59  86 121 158 200 245 291 360
#     4  12  24  37  56  93 128 157 195 244 301 362
#     4  10  22  38  63  92 121 156 198 241 302 364
#     4  10  24  39  60  83 118 166 200 241 292 347
#
# _framework density 20.315719000000001
#
# number of rings (size 3 to 8) (size 9 to 14) (size 15 to 20)
#    0.000    1.429    5.714    0.000    2.000    3.429 
#    2.571    2.143    0.000    5.143    0.000    0.000 
#    0.000    0.000    0.000    0.000    0.000    0.000 
#
# Total GULP energy -156391.489583 kJ/mol
# GULP energy per Si atom -5585.410342 kJ/mol
# Density = 2.026948 g / cm^3
# Si number density = 20.315719 Si / 1000 Ang^3
#
#
#
# Elastic Constant Matrix: (Units=GPa)
#
#
# Indices 1 2 3 4 5 6 
#
# 1 89.7493 32.4587 19.6157 0.0000 10.8165 0.0000
# 2 32.4587 94.0551 20.2499 0.0000 -2.4115 0.0000
# 3 19.6157 20.2499 18.1083 0.0000 -3.0441 0.0000
# 4 0.0000 0.0000 0.0000 -0.0260 0.0000 -14.1993
# 5 10.8165 -2.4115 -3.0441 0.0000 28.5197 0.0000
# 6 0.0000 0.0000 0.0000 -14.1993 0.0000 23.3357
#
#
#
# Elastic Compliance Matrix: (Units=1/GPa)
#
#
# Indices 1 2 3 4 5 6 
#
# 1 0.016672 -0.002341 -0.016840 0.000000 -0.008319 0.000000
# 2 -0.002341 0.014339 -0.013386 0.000000 0.000672 0.000000
# 3 -0.016840 -0.013386 0.090950 0.000000 0.014963 0.000000
# 4 0.000000 0.000000 0.000000 -0.115394 0.000000 -0.070215
# 5 -0.008319 0.000672 0.014963 0.000000 0.039872 0.000000
# 6 0.000000 0.000000 0.000000 -0.070215 0.000000 0.000129
#
#
# Mechanical properties :
#
#
# Convention : Reuss Voigt Hill
#
# Bulk Modulus (GPa) = 17.59748 38.50680 28.05214
# Shear Modulus (GPa) = 38.27143 19.00510 28.63826
#
# Velocity S-wave (km/s) = 4.34502 3.06189 3.75862
# Velocity P-wave (km/s) = 5.81834 5.61209 5.71615
#
# Compressibility (1/GPa) = 0.05682632
#
# Stress axis : x y z
#
# Youngs Moduli (GPa) = 59.98077 69.73858 10.99503
#
# Poissons Ratio (x) = 0.16327 0.18516
# Poissons Ratio (y) = 0.14043 0.14718
# Poissons Ratio (z) = 1.01009 0.93354
#
# Static dielectric constant tensor:
#      x y z
#    x 1.719380 0.000000 -0.049510 
#    y 0.000000 1.718550 0.000000 
#    z -0.049510 0.000000 1.746420 
# 
# From -- ./inp_files/42748.got.cif
#   From: 2010.05.17/outbox.cif.g08.bks.cpg/sg15_22_cif.got.tgz:42748.got - 2010.06.03 18:47:42.
