data_PCOD9265432
_publ_section_title
;
Structure prediction by ZEFSAII (Michael W. Deem and Ramdas Pophale) SiO2 
 PCOD9265432
Probable space group: C 2/C
;
_chemical_formula_sum "Si O2"
_cell_formula_units_Z 48
_cell_length_a 21.989288
_cell_length_b 7.938858
_cell_length_c 14.280827
_cell_angle_alpha 90.000000
_cell_angle_beta 122.337105
_cell_angle_gamma 90.000000
_cell_volume 2106.375971
_symmetry_space_group_name_H-M "C 2/C"
_symmetry_group_IT_number 15
_symmetry_cell_setting 'monoclinic'
loop_
_space_group_symop_operation_xyz
x,y,z
-x,y,1/2-z
-x,-y,-z
x,-y,1/2+z
1/2+x,1/2+y,z
1/2-x,1/2+y,1/2-z
1/2-x,1/2-y,-z
1/2+x,1/2-y,1/2+z
loop_
_atom_site_type_symbol
_atom_site_label
_atom_site_fract_x
_atom_site_fract_y
_atom_site_fract_z
Si Si1 0.848062 0.121111 0.839106
Si Si2 0.325925 0.250117 0.610189
Si Si3 0.584042 0.063820 0.304060
Si Si4 0.084689 0.543363 0.081780
Si Si5 0.808361 0.248017 0.322274
Si Si6 0.583105 0.564221 0.799764
O O1 0.886071 0.273263 0.927386
O O2 0.774276 0.194863 0.732111
O O3 0.902231 0.072038 0.799710
O O4 0.825484 0.943514 0.867823
O O5 0.250000 0.250000 0.500000
O O6 0.316395 0.252824 0.715281
O O7 0.369297 0.416765 0.620890
O O8 0.368940 0.084236 0.616819
O O9 0.500000 0.031058 0.250000
O O10 0.595489 0.059919 0.202318
O O11 0.601033 0.250646 0.352845
O O12 0.135810 0.388098 0.094133
O O13 0.000000 0.500000 0.000000
O O14 0.500000 0.530978 0.750000
#
# Coordination Sequence:
#
# PCOD9265432 Si02
#       6
#     8   8   8   8   8   8
#     4  10  19  36  61  82 114 152 189 234 293 343
#     4  10  21  35  56  85 112 149 192 232 283 343
#     4   9  19  37  56  76 112 150 181 232 288 331
#     4  10  21  36  57  86 114 148 197 240 286 347
#     4  10  20  37  58  83 117 155 188 239 295 346
#     4   9  19  37  60  79 110 152 188 232 287 339
#
# _framework density 22.787953999999999
#
# number of rings (size 3 to 8) (size 9 to 14) (size 15 to 20)
#    0.000    2.333    1.667    0.500    0.000    2.667 
#    0.000    5.000    0.000    0.000    0.000    0.000 
#    0.000    0.000    0.000    0.000    0.000    0.000 
#
# Total GULP energy -134144.661270 kJ/mol
# GULP energy per Si atom -5589.360886 kJ/mol
# Density = 2.273609 g / cm^3
# Si number density = 22.787954 Si / 1000 Ang^3
#
#
#
# Elastic Constant Matrix: (Units=GPa)
#
#
# Indices 1 2 3 4 5 6 
#
# 1 86.2177 37.3689 30.0550 0.0000 23.7970 0.0000
# 2 37.3689 205.4458 116.1934 0.0000 50.5655 0.0000
# 3 30.0550 116.1934 90.0242 0.0000 27.7403 0.0000
# 4 0.0000 0.0000 0.0000 -15.3551 0.0000 19.8102
# 5 23.7970 50.5655 27.7403 0.0000 47.7048 0.0000
# 6 0.0000 0.0000 0.0000 19.8102 0.0000 32.8689
#
#
#
# Elastic Compliance Matrix: (Units=1/GPa)
#
#
# Indices 1 2 3 4 5 6 
#
# 1 0.014320 0.001980 -0.005469 0.000000 -0.006062 0.000000
# 2 0.001980 0.020309 -0.024289 0.000000 -0.008391 0.000000
# 3 -0.005469 -0.024289 0.043261 0.000000 0.003317 0.000000
# 4 0.000000 0.000000 0.000000 -0.036637 0.000000 0.022081
# 5 -0.006062 -0.008391 0.003317 0.000000 0.030952 0.000000
# 6 0.000000 0.000000 0.000000 0.022081 0.000000 0.017115
#
#
# Mechanical properties :
#
#
# Convention : Reuss Voigt Hill
#
# Bulk Modulus (GPa) = 44.77028 83.21357 63.99193
# Shear Modulus (GPa) = 32.82566 26.24843 29.53704
#
# Velocity S-wave (km/s) = 3.79949 3.39758 3.60414
# Velocity P-wave (km/s) = 6.23997 7.21021 6.74257
#
# Compressibility (1/GPa) = 0.02233625
#
# Stress axis : x y z
#
# Youngs Moduli (GPa) = 69.83308 49.23827 23.11558
#
# Poissons Ratio (x) = -0.09751 0.12641
# Poissons Ratio (y) = -0.13830 0.56144
# Poissons Ratio (z) = 0.38190 1.19593
#
# Static dielectric constant tensor:
#      x y z
#    x 1.891260 0.000000 -0.046150 
#    y 0.000000 1.882280 0.000000 
#    z -0.046150 0.000000 1.781290 
# 
# From -- ./inp_files/254913.got.cif
#   From: 2010.05.17/outbox.cif.g08.bks.cpg/sg15_128_cif.got.tgz:254913.got - 2010.06.03 18:47:42.
