data_PCOD9265149
_publ_section_title
;
Structure prediction by ZEFSAII (Michael W. Deem and Ramdas Pophale) SiO2 
 PCOD9265149
Probable space group: C 2/C
;
_chemical_formula_sum "Si O2"
_cell_formula_units_Z 64
_cell_length_a 12.775234
_cell_length_b 15.992909
_cell_length_c 28.730493
_cell_angle_alpha 90.000000
_cell_angle_beta 143.551392
_cell_angle_gamma 90.000000
_cell_volume 3487.386419
_symmetry_space_group_name_H-M "C 2/C"
_symmetry_group_IT_number 15
_symmetry_cell_setting 'monoclinic'
loop_
_space_group_symop_operation_xyz
x,y,z
-x,y,1/2-z
-x,-y,-z
x,-y,1/2+z
1/2+x,1/2+y,z
1/2-x,1/2+y,1/2-z
1/2-x,1/2-y,-z
1/2+x,1/2-y,1/2+z
loop_
_atom_site_type_symbol
_atom_site_label
_atom_site_fract_x
_atom_site_fract_y
_atom_site_fract_z
Si Si1 0.384242 0.411413 0.326349
Si Si2 0.047854 0.242435 0.943512
Si Si3 0.224096 0.988290 0.916177
Si Si4 0.457716 0.371286 0.973252
Si Si5 0.249993 0.984861 0.128943
Si Si6 0.531026 0.936911 0.159485
Si Si7 0.554250 0.931829 0.589230
Si Si8 0.774011 0.848064 0.508821
O O1 0.455594 0.328967 0.378609
O O2 0.544504 0.459740 0.358691
O O3 0.297993 0.472926 0.334495
O O4 0.218888 0.393358 0.233884
O O5 0.952450 0.331992 0.907663
O O6 0.250000 0.250000 0.000000
O O7 0.053817 0.209803 0.998963
O O8 0.290374 0.968128 0.887971
O O9 0.375414 0.040568 0.997883
O O10 0.213712 0.899325 0.939115
O O11 0.278939 0.422049 0.901284
O O12 0.595714 0.429959 0.049995
O O13 0.547113 0.361760 0.955594
O O14 0.431309 0.951304 0.172821
O O15 0.391507 0.885807 0.078597
O O16 0.557995 0.022323 0.140233
O O17 0.750000 0.750000 0.500000
#
# Coordination Sequence:
#
# PCOD9265149 Si02
#       8
#     8   8   8   8   8   8   8   8
#     4  11  21  37  59  87 118 153 194 246 307 353
#     4  11  20  34  59  89 116 149 205 252 284 348
#     4  10  20  37  61  83 114 156 198 238 292 360
#     4   9  17  29  57  84 107 139 189 239 284 331
#     4   9  17  33  56  84 109 142 186 236 289 348
#     4  10  22  37  58  81 120 155 187 240 305 352
#     4  10  21  38  58  86 115 157 200 238 288 357
#     4  10  19  36  58  85 111 147 199 243 284 346
#
# _framework density 18.351852000000001
#
# number of rings (size 3 to 8) (size 9 to 14) (size 15 to 20)
#    0.000    2.000    2.500    1.875    3.500    0.500 
#    2.250    0.000    5.500    0.000    0.000    0.000 
#    0.000    0.000    0.000    0.000    0.000    0.000 
#
# Total GULP energy -178296.376344 kJ/mol
# GULP energy per Si atom -5571.761761 kJ/mol
# Density = 1.831008 g / cm^3
# Si number density = 18.351852 Si / 1000 Ang^3
#
#
#
# Elastic Constant Matrix: (Units=GPa)
#
#
# Indices 1 2 3 4 5 6 
#
# 1 91.5036 14.9955 25.1943 0.0000 11.2978 0.0000
# 2 14.9955 101.0904 16.7852 0.0000 3.4719 0.0000
# 3 25.1943 16.7852 49.3977 0.0000 23.2052 0.0000
# 4 0.0000 0.0000 0.0000 13.0865 0.0000 1.4692
# 5 11.2978 3.4719 23.2052 0.0000 23.4536 0.0000
# 6 0.0000 0.0000 0.0000 1.4692 0.0000 27.5994
#
#
#
# Elastic Compliance Matrix: (Units=1/GPa)
#
#
# Indices 1 2 3 4 5 6 
#
# 1 0.012785 -0.000851 -0.006348 0.000000 0.000248 0.000000
# 2 -0.000851 0.010714 -0.004959 0.000000 0.003730 0.000000
# 3 -0.006348 -0.004959 0.043693 0.000000 -0.039438 0.000000
# 4 0.000000 0.000000 0.000000 0.076874 0.000000 -0.004092
# 5 0.000248 0.003730 -0.039438 0.000000 0.080986 0.000000
# 6 0.000000 0.000000 0.000000 -0.004092 0.000000 0.036450
#
#
# Mechanical properties :
#
#
# Convention : Reuss Voigt Hill
#
# Bulk Modulus (GPa) = 23.32300 39.54908 31.43604
# Shear Modulus (GPa) = 16.66049 25.16235 20.91142
#
# Velocity S-wave (km/s) = 3.01630 3.70686 3.37927
# Velocity P-wave (km/s) = 4.98670 6.31810 5.69146
#
# Compressibility (1/GPa) = 0.04287614
#
# Stress axis : x y z
#
# Youngs Moduli (GPa) = 78.21498 93.33923 22.88679
#
# Poissons Ratio (x) = 0.07943 0.14529
# Poissons Ratio (y) = 0.06656 0.11349
# Poissons Ratio (z) = 0.49654 0.46284
#
# Static dielectric constant tensor:
#      x y z
#    x 1.610900 0.000000 -0.045360 
#    y 0.000000 1.410680 0.000000 
#    z -0.045360 0.000000 1.612120 
# 
# From -- ./inp_files/311231.got.cif
#   From: 2010.05.17/outbox.cif.g08.bks.cpg/sg15_156_cif.got.tgz:311231.got - 2010.06.03 18:47:42.
