data_PCOD9265990
_publ_section_title
;
Structure prediction by ZEFSAII (Michael W. Deem and Ramdas Pophale) SiO2 
 PCOD9265990
Probable space group: C 2/C
;
_chemical_formula_sum "Si O2"
_cell_formula_units_Z 64
_cell_length_a 9.537677
_cell_length_b 24.892541
_cell_length_c 32.209033
_cell_angle_alpha 90.000000
_cell_angle_beta 152.910431
_cell_angle_gamma 90.000000
_cell_volume 3482.299989
_symmetry_space_group_name_H-M "C 2/C"
_symmetry_group_IT_number 15
_symmetry_cell_setting 'monoclinic'
loop_
_space_group_symop_operation_xyz
x,y,z
-x,y,1/2-z
-x,-y,-z
x,-y,1/2+z
1/2+x,1/2+y,z
1/2-x,1/2+y,1/2-z
1/2-x,1/2-y,-z
1/2+x,1/2-y,1/2+z
loop_
_atom_site_type_symbol
_atom_site_label
_atom_site_fract_x
_atom_site_fract_y
_atom_site_fract_z
Si Si1 0.253675 0.544711 0.946968
Si Si2 0.169286 0.907021 0.249835
Si Si3 0.221956 0.338274 0.543100
Si Si4 0.894187 0.849460 0.934726
Si Si5 0.074463 0.453412 0.052476
Si Si6 0.404200 0.204740 0.773067
Si Si7 0.961008 0.761393 0.016774
Si Si8 0.162352 0.692844 0.251059
O O1 0.982487 0.560336 0.843101
O O2 0.086642 0.531453 0.946398
O O3 0.500000 0.500000 0.000000
O O4 0.456306 0.597342 0.008729
O O5 0.253075 0.850172 0.250365
O O6 0.000000 0.897357 0.250000
O O7 0.929386 0.939969 0.157814
O O8 0.360781 0.326494 0.534093
O O9 0.993956 0.292140 0.498022
O O10 0.512347 0.332858 0.650674
O O11 0.072830 0.396968 0.501857
O O12 0.569705 0.852983 0.825863
O O13 0.836122 0.808846 0.956151
O O14 0.000000 0.500000 0.000000
O O15 0.500000 0.200527 0.750000
O O16 0.709016 0.217831 0.880166
O O17 0.202388 0.257780 0.729902
O O18 0.750000 0.750000 0.000000
O O19 0.000000 0.715387 0.250000
#
# Coordination Sequence:
#
# PCOD9265990 Si02
#       8
#     8   8   8   8   8   8   8   8
#     4  10  22  41  62  88 117 155 199 246 298 355
#     4  10  22  41  62  87 116 155 201 247 294 355
#     4   9  21  37  57  83 114 156 197 238 286 357
#     4  10  19  37  59  83 113 154 198 236 290 350
#     4  10  23  40  63  87 118 154 201 250 299 349
#     4  11  22  35  53  87 123 155 197 239 298 351
#     4  11  22  34  54  86 123 153 191 242 298 352
#     4   9  19  35  57  84 116 155 197 240 288 348
#
# _framework density 18.378657
#
# number of rings (size 3 to 8) (size 9 to 14) (size 15 to 20)
#    0.000    2.000    1.250    1.500    3.500    3.000 
#    0.000    1.250    0.000    0.750    0.000    0.000 
#    0.000    0.000    0.000    0.000    0.000    0.000 
#
# Total GULP energy -178472.976066 kJ/mol
# GULP energy per Si atom -5577.280502 kJ/mol
# Density = 1.833683 g / cm^3
# Si number density = 18.378657 Si / 1000 Ang^3
#
#
#
# Elastic Constant Matrix: (Units=GPa)
#
#
# Indices 1 2 3 4 5 6 
#
# 1 77.7835 59.6317 44.2479 0.0000 -2.8413 -0.0029
# 2 59.6317 82.5388 57.3418 0.0027 -2.0402 0.0043
# 3 44.2479 57.3418 107.0640 -0.0095 2.3920 0.0014
# 4 0.0000 0.0027 -0.0095 27.1468 0.0048 1.1837
# 5 -2.8413 -2.0402 2.3920 0.0048 25.6444 -0.0031
# 6 -0.0029 0.0043 0.0014 1.1837 -0.0031 35.8681
#
#
#
# Elastic Compliance Matrix: (Units=1/GPa)
#
#
# Indices 1 2 3 4 5 6 
#
# 1 0.028993 -0.019990 -0.001315 0.000001 0.001745 0.000005
# 2 -0.019990 0.033239 -0.009570 -0.000007 0.001322 -0.000005
# 3 -0.001315 -0.009570 0.015061 0.000007 -0.002312 0.000000
# 4 0.000001 -0.000007 0.000007 0.036890 -0.000008 -0.001217
# 5 0.001745 0.001322 -0.002312 -0.000008 0.039509 0.000004
# 6 0.000005 -0.000005 0.000000 -0.001217 0.000004 0.027920
#
#
# Mechanical properties :
#
#
# Convention : Reuss Voigt Hill
#
# Bulk Modulus (GPa) = 64.33941 65.53656 64.93799
# Shear Modulus (GPa) = 20.11726 24.80953 22.46340
#
# Velocity S-wave (km/s) = 3.31206 3.67810 3.49987
# Velocity P-wave (km/s) = 7.05053 7.33310 7.19320
#
# Compressibility (1/GPa) = 0.01554257
#
# Stress axis : x y z
#
# Youngs Moduli (GPa) = 34.49129 30.08531 66.39620
#
# Poissons Ratio (x) = 0.60139 0.08732
# Poissons Ratio (y) = 0.68947 0.63543
# Poissons Ratio (z) = 0.04536 0.28793
#
# Static dielectric constant tensor:
#      x y z
#    x 1.297160 -0.000190 -0.029220 
#    y -0.000190 1.581570 -0.000030 
#    z -0.029220 -0.000030 1.690060 
# 
# From -- ./inp_files/309148.got.cif
#   From: 2010.05.17/outbox.cif.g08.bks.cpg/sg15_155_cif.got.tgz:309148.got - 2010.06.03 18:47:42.
