data_PCOD9265957
_publ_section_title
;
Structure prediction by ZEFSAII (Michael W. Deem and Ramdas Pophale) SiO2 
 PCOD9265957
Probable space group: C 2/C
;
_chemical_formula_sum "Si O2"
_cell_formula_units_Z 64
_cell_length_a 14.529741
_cell_length_b 9.968173
_cell_length_c 24.278209
_cell_angle_alpha 90.000000
_cell_angle_beta 52.972871
_cell_angle_gamma 90.000000
_cell_volume 2807.266666
_symmetry_space_group_name_H-M "C 2/C"
_symmetry_group_IT_number 15
_symmetry_cell_setting 'monoclinic'
loop_
_space_group_symop_operation_xyz
x,y,z
-x,y,1/2-z
-x,-y,-z
x,-y,1/2+z
1/2+x,1/2+y,z
1/2-x,1/2+y,1/2-z
1/2-x,1/2-y,-z
1/2+x,1/2-y,1/2+z
loop_
_atom_site_type_symbol
_atom_site_label
_atom_site_fract_x
_atom_site_fract_y
_atom_site_fract_z
Si Si1 0.819634 0.695160 0.285728
Si Si2 0.596172 0.376122 0.083719
Si Si3 0.597601 0.182112 0.597610
Si Si4 0.780548 0.421226 0.109701
Si Si5 0.084311 0.915326 0.851141
Si Si6 0.432690 0.328157 0.520229
Si Si7 0.060722 0.386664 0.647637
Si Si8 0.832462 0.704718 0.056027
O O1 0.777768 0.846076 0.316919
O O2 0.716187 0.619975 0.291749
O O3 0.939462 0.672799 0.212172
O O4 0.847211 0.631346 0.336118
O O5 0.686667 0.429196 0.094863
O O6 0.475744 0.446195 0.143139
O O7 0.596929 0.215763 0.087147
O O8 0.625138 0.404209 0.009958
O O9 0.500215 0.296167 0.638322
O O10 0.708796 0.225141 0.593215
O O11 0.632021 0.171954 0.520505
O O12 0.552315 0.038721 0.632959
O O13 0.876115 0.315754 0.054738
O O14 0.826606 0.571894 0.095925
O O15 0.077287 0.907663 0.919901
O O16 0.565771 0.298578 0.458788
#
# Coordination Sequence:
#
# PCOD9265957 Si02
#       8
#     8   8   8   8   8   8   8   8
#     4   9  22  40  62  82 111 155 203 252 296 338
#     4  11  21  35  57  87 116 153 199 237 296 352
#     4  10  21  37  60  87 126 158 190 241 306 358
#     4  10  19  37  58  85 121 154 193 247 292 352
#     4  10  21  38  57  85 122 152 193 247 294 353
#     4  10  21  33  55  90 123 156 189 234 298 363
#     4  10  22  41  62  80 115 158 202 250 294 351
#     4  10  20  35  58  93 126 155 190 240 301 368
#
# _framework density 22.797976999999999
#
# number of rings (size 3 to 8) (size 9 to 14) (size 15 to 20)
#    0.000    2.000    1.250    1.875    1.750    5.000 
#    0.000    0.000    5.500    0.000    0.000    0.000 
#    0.000    0.000    0.000    0.000    0.000    0.000 
#
# Total GULP energy -178860.308514 kJ/mol
# GULP energy per Si atom -5589.384641 kJ/mol
# Density = 2.274609 g / cm^3
# Si number density = 22.797977 Si / 1000 Ang^3
#
#
#
# Elastic Constant Matrix: (Units=GPa)
#
#
# Indices 1 2 3 4 5 6 
#
# 1 82.1075 9.5400 12.7757 0.0000 -32.5009 0.0000
# 2 9.5400 112.9201 13.9617 0.0000 -9.6842 0.0000
# 3 12.7757 13.9617 33.2609 0.0000 -19.7257 0.0000
# 4 0.0000 0.0000 0.0000 18.5927 0.0000 -7.6833
# 5 -32.5009 -9.6842 -19.7257 0.0000 33.3458 0.0000
# 6 0.0000 0.0000 0.0000 -7.6833 0.0000 19.5423
#
#
#
# Elastic Compliance Matrix: (Units=1/GPa)
#
#
# Indices 1 2 3 4 5 6 
#
# 1 0.020643 -0.000494 0.006355 0.000000 0.023736 0.000000
# 2 -0.000494 0.009360 -0.003717 0.000000 0.000038 0.000000
# 3 0.006355 -0.003717 0.049629 0.000000 0.034473 0.000000
# 4 0.000000 0.000000 0.000000 0.064218 0.000000 0.025248
# 5 0.023736 0.000038 0.034473 0.000000 0.073527 0.000000
# 6 0.000000 0.000000 0.000000 0.025248 0.000000 0.061098
#
#
# Mechanical properties :
#
#
# Convention : Reuss Voigt Hill
#
# Bulk Modulus (GPa) = 11.91595 33.42705 22.67150
# Shear Modulus (GPa) = 16.54750 27.09688 21.82219
#
# Velocity S-wave (km/s) = 2.69705 3.45130 3.09722
# Velocity P-wave (km/s) = 3.86483 5.52956 4.77037
#
# Compressibility (1/GPa) = 0.08392115
#
# Stress axis : x y z
#
# Youngs Moduli (GPa) = 48.44180 106.83326 20.14959
#
# Poissons Ratio (x) = 0.05279 -0.12805
# Poissons Ratio (y) = 0.02394 0.07489
# Poissons Ratio (z) = -0.30786 0.39707
#
# Static dielectric constant tensor:
#      x y z
#    x 1.869090 0.000000 -0.019120 
#    y 0.000000 1.858280 0.000000 
#    z -0.019120 0.000000 1.863930 
# 
# From -- ./inp_files/313132.got.cif
#   From: 2010.05.17/outbox.cif.g08.bks.cpg/sg15_157_cif.got.tgz:313132.got - 2010.06.03 18:47:42.
