data_PCOD9265096
_publ_section_title
;
Structure prediction by ZEFSAII (Michael W. Deem and Ramdas Pophale) SiO2 
 PCOD9265096
Probable space group: C 2/C
;
_chemical_formula_sum "Si O2"
_cell_formula_units_Z 64
_cell_length_a 14.670958
_cell_length_b 17.022358
_cell_length_c 24.105643
_cell_angle_alpha 90.000000
_cell_angle_beta 150.853255
_cell_angle_gamma 90.000000
_cell_volume 2932.032353
_symmetry_space_group_name_H-M "C 2/C"
_symmetry_group_IT_number 15
_symmetry_cell_setting 'monoclinic'
loop_
_space_group_symop_operation_xyz
x,y,z
-x,y,1/2-z
-x,-y,-z
x,-y,1/2+z
1/2+x,1/2+y,z
1/2-x,1/2+y,1/2-z
1/2-x,1/2-y,-z
1/2+x,1/2-y,1/2+z
loop_
_atom_site_type_symbol
_atom_site_label
_atom_site_fract_x
_atom_site_fract_y
_atom_site_fract_z
Si Si1 0.778956 0.354990 0.975095
Si Si2 0.981065 0.885866 0.297485
Si Si3 0.783997 0.472644 0.881969
Si Si4 0.062978 0.799412 0.515659
Si Si5 0.140714 0.334489 0.657980
Si Si6 0.320525 0.214780 0.816500
Si Si7 0.790821 0.658056 0.035733
Si Si8 0.195866 0.318339 0.385339
O O1 0.755411 0.359302 0.029202
O O2 0.002258 0.340728 0.088347
O O3 0.727240 0.428493 0.908920
O O4 0.698999 0.274395 0.905167
O O5 0.864775 0.836535 0.280249
O O6 0.000000 0.837971 0.250000
O O7 0.180751 0.895491 0.432325
O O8 0.852185 0.957591 0.209086
O O9 0.782411 0.407997 0.833098
O O10 0.000000 0.500000 0.000000
O O11 0.998967 0.716636 0.454169
O O12 0.868542 0.835003 0.435381
O O13 0.174804 0.771205 0.628424
O O14 0.192056 0.849491 0.542950
O O15 0.308263 0.274617 0.759648
O O16 0.010414 0.355103 0.641647
O O17 0.750000 0.750000 0.000000
O O18 0.000000 0.336518 0.250000
#
# Coordination Sequence:
#
# PCOD9265096 Si02
#       8
#     8   8   8   8   8   8   8   8
#     4  10  22  37  57  94 128 173 226 275 318 406
#     4  12  23  37  61  99 129 173 210 270 352 395
#     4  12  23  41  61  93 144 171 209 270 348 411
#     4  10  19  36  57  96 121 156 222 285 312 379
#     4  11  21  39  63  97 135 174 214 284 332 392
#     4  11  20  36  67  93 127 167 227 273 334 380
#     4  10  20  36  62  96 130 164 223 282 321 384
#     4  10  20  35  59  86 127 171 223 276 326 376
#
# _framework density 21.827864000000002
#
# number of rings (size 3 to 8) (size 9 to 14) (size 15 to 20)
#    0.000    1.250    6.250    3.000    0.000    0.500 
#    4.500    0.000    0.000    0.750    9.750    0.000 
#    0.000    0.000    0.000    0.000    0.000    0.000 
#
# Total GULP energy -178587.796598 kJ/mol
# GULP energy per Si atom -5580.868644 kJ/mol
# Density = 2.177818 g / cm^3
# Si number density = 21.827864 Si / 1000 Ang^3
#
#
#
# Elastic Constant Matrix: (Units=GPa)
#
#
# Indices 1 2 3 4 5 6 
#
# 1 130.5392 11.4383 5.0822 0.0000 8.8181 0.0000
# 2 11.4383 58.4621 19.3297 0.0001 -4.3766 0.0001
# 3 5.0822 19.3297 67.6752 0.0005 3.8910 0.0003
# 4 0.0000 0.0001 0.0005 38.7121 0.0002 -6.9277
# 5 8.8181 -4.3766 3.8910 0.0002 28.5768 0.0001
# 6 0.0000 0.0001 0.0003 -6.9277 0.0001 25.9619
#
#
#
# Elastic Compliance Matrix: (Units=1/GPa)
#
#
# Indices 1 2 3 4 5 6 
#
# 1 0.008001 -0.001795 0.000070 0.000000 -0.002753 0.000000
# 2 -0.001795 0.019678 -0.005736 0.000000 0.004349 0.000000
# 3 0.000070 -0.005736 0.016591 0.000000 -0.003159 0.000000
# 4 0.000000 0.000000 0.000000 0.027127 0.000000 0.007239
# 5 -0.002753 0.004349 -0.003159 0.000000 0.036939 0.000000
# 6 0.000000 0.000000 0.000000 0.007239 0.000000 0.040450
#
#
# Mechanical properties :
#
#
# Convention : Reuss Voigt Hill
#
# Bulk Modulus (GPa) = 34.07216 36.48631 35.27923
# Shear Modulus (GPa) = 28.82005 33.37191 31.09598
#
# Velocity S-wave (km/s) = 3.63758 3.91432 3.77848
# Velocity P-wave (km/s) = 5.76940 6.09762 5.93578
#
# Compressibility (1/GPa) = 0.02934948
#
# Stress axis : x y z
#
# Youngs Moduli (GPa) = 124.98345 50.81757 60.27320
#
# Poissons Ratio (x) = 0.09120 -0.00422
# Poissons Ratio (y) = 0.22431 0.34572
# Poissons Ratio (z) = -0.00876 0.29148
#
# Static dielectric constant tensor:
#      x y z
#    x 1.925770 0.000000 0.004170 
#    y 0.000000 1.773480 0.000000 
#    z 0.004170 0.000000 1.815650 
# 
# From -- ./inp_files/274865.got.cif
#   From: 2010.05.17/outbox.cif.g08.bks.cpg/sg15_138_cif.got.tgz:274865.got - 2010.06.03 18:47:42.
