data_PCOD9265164
_publ_section_title
;
Structure prediction by ZEFSAII (Michael W. Deem and Ramdas Pophale) SiO2 
 PCOD9265164
Probable space group: C 2/C
;
_chemical_formula_sum "Si O2"
_cell_formula_units_Z 48
_cell_length_a 25.885976
_cell_length_b 15.688193
_cell_length_c 10.262479
_cell_angle_alpha 90.000000
_cell_angle_beta 31.014935
_cell_angle_gamma 90.000000
_cell_volume 2147.422182
_symmetry_space_group_name_H-M "C 2/C"
_symmetry_group_IT_number 15
_symmetry_cell_setting 'monoclinic'
loop_
_space_group_symop_operation_xyz
x,y,z
-x,y,1/2-z
-x,-y,-z
x,-y,1/2+z
1/2+x,1/2+y,z
1/2-x,1/2+y,1/2-z
1/2-x,1/2-y,-z
1/2+x,1/2-y,1/2+z
loop_
_atom_site_type_symbol
_atom_site_label
_atom_site_fract_x
_atom_site_fract_y
_atom_site_fract_z
Si Si1 0.858287 0.135654 0.672469
Si Si2 0.174206 0.879217 0.959906
Si Si3 0.500000 0.504859 0.750000
Si Si4 0.500000 0.067406 0.250000
Si Si5 0.161191 0.683451 0.955334
Si Si6 0.047015 0.685630 0.475049
Si Si7 0.381413 0.086045 0.927653
O O1 0.806403 0.129948 0.927005
O O2 0.771992 0.150186 0.750711
O O3 0.927563 0.219702 0.531919
O O4 0.928461 0.056039 0.489373
O O5 0.073406 0.933059 0.169449
O O6 0.164909 0.784205 0.920732
O O7 0.262893 0.924111 0.687011
O O8 0.406502 0.126658 0.494294
O O9 0.558017 0.001639 0.220790
O O10 0.096797 0.676819 0.227935
O O11 0.095605 0.622228 0.476494
O O12 0.930905 0.658558 0.731583
#
# Coordination Sequence:
#
# PCOD9265164 Si02
#       7
#     8   8   4   4   8   8   8
#     4  11  21  39  64  84 111 159 203 225 282 352
#     4  11  22  41  60  87 115 156 192 238 287 348
#     4  12  25  37  60  88 126 142 188 253 297 322
#     4  10  23  33  54  90 120 146 184 247 295 328
#     4  11  20  39  61  83 115 156 196 232 289 341
#     4   9  18  35  63  86 104 153 196 242 261 348
#     4  10  19  36  58  86 117 141 200 233 288 332
#
# _framework density 22.352381999999999
#
# number of rings (size 3 to 8) (size 9 to 14) (size 15 to 20)
#    0.000    1.667    3.333    4.000    0.000    2.667 
#    3.000    0.000    0.000    3.000    0.000    0.000 
#    0.000    0.000    0.000    0.000    0.000    0.000 
#
# Total GULP energy -133888.541006 kJ/mol
# GULP energy per Si atom -5578.689209 kJ/mol
# Density = 2.230151 g / cm^3
# Si number density = 22.352382 Si / 1000 Ang^3
#
#
#
# Elastic Constant Matrix: (Units=GPa)
#
#
# Indices 1 2 3 4 5 6 
#
# 1 54.7136 41.0231 28.8563 0.0000 -19.0834 0.0000
# 2 41.0231 126.7565 43.5287 0.0000 -37.5264 0.0000
# 3 28.8563 43.5287 116.6529 0.0000 -25.6355 0.0000
# 4 0.0000 0.0000 0.0000 18.7590 0.0000 -12.6245
# 5 -19.0834 -37.5264 -25.6355 0.0000 34.0755 0.0000
# 6 0.0000 0.0000 0.0000 -12.6245 0.0000 15.4558
#
#
#
# Elastic Compliance Matrix: (Units=1/GPa)
#
#
# Indices 1 2 3 4 5 6 
#
# 1 0.026260 -0.005607 -0.003030 0.000000 0.006252 0.000000
# 2 -0.005607 0.013242 -0.001245 0.000000 0.010506 0.000000
# 3 -0.003030 -0.001245 0.010917 0.000000 0.005145 0.000000
# 4 0.000000 0.000000 0.000000 0.118384 0.000000 0.096697
# 5 0.006252 0.010506 0.005145 0.000000 0.048288 0.000000
# 6 0.000000 0.000000 0.000000 0.096697 0.000000 0.143684
#
#
# Mechanical properties :
#
#
# Convention : Reuss Voigt Hill
#
# Bulk Modulus (GPa) = 32.62202 58.32656 45.47429
# Shear Modulus (GPa) = 12.79567 25.97239 19.38403
#
# Velocity S-wave (km/s) = 2.39519 3.41244 2.94802
# Velocity P-wave (km/s) = 4.71968 6.45578 5.65475
#
# Compressibility (1/GPa) = 0.03065414
#
# Stress axis : x y z
#
# Youngs Moduli (GPa) = 38.08129 75.51889 91.59827
#
# Poissons Ratio (x) = 0.42346 0.27750
# Poissons Ratio (y) = 0.21353 0.11407
# Poissons Ratio (z) = 0.11537 0.09405
#
# Static dielectric constant tensor:
#      x y z
#    x 1.911050 0.000000 -0.037640 
#    y 0.000000 1.852920 0.000000 
#    z -0.037640 0.000000 1.848460 
# 
# From -- ./inp_files/126843.got.cif
#   From: 2010.05.17/outbox.cif.g08.bks.cpg/sg15_64_cif.got.tgz:126843.got - 2010.06.03 18:47:42.
