data_PCOD9265977
_publ_section_title
;
Structure prediction by ZEFSAII (Michael W. Deem and Ramdas Pophale) SiO2 
 PCOD9265977
Probable space group: C 2/C
;
_chemical_formula_sum "Si O2"
_cell_formula_units_Z 60
_cell_length_a 6.493259
_cell_length_b 16.010691
_cell_length_c 23.997631
_cell_angle_alpha 90.000000
_cell_angle_beta 106.544518
_cell_angle_gamma 90.000000
_cell_volume 2391.542155
_symmetry_space_group_name_H-M "C 2/C"
_symmetry_group_IT_number 15
_symmetry_cell_setting 'monoclinic'
loop_
_space_group_symop_operation_xyz
x,y,z
-x,y,1/2-z
-x,-y,-z
x,-y,1/2+z
1/2+x,1/2+y,z
1/2-x,1/2+y,1/2-z
1/2-x,1/2-y,-z
1/2+x,1/2-y,1/2+z
loop_
_atom_site_type_symbol
_atom_site_label
_atom_site_fract_x
_atom_site_fract_y
_atom_site_fract_z
Si Si1 0.002326 0.253929 0.570015
Si Si2 0.757924 0.521826 0.094673
Si Si3 0.179059 0.437069 0.134824
Si Si4 0.000000 0.571866 0.250000
Si Si5 0.739470 0.892958 0.011630
Si Si6 0.589422 0.210599 0.830165
Si Si7 0.159328 0.068269 0.692742
Si Si8 0.756442 0.682895 0.153823
O O1 0.237726 0.246261 0.612907
O O2 0.933615 0.173953 0.528638
O O3 0.950629 0.336768 0.530566
O O4 0.844991 0.255965 0.612614
O O5 0.728608 0.529077 0.026920
O O6 0.663656 0.449494 0.125809
O O7 0.655691 0.606076 0.111597
O O8 0.014311 0.514140 0.126423
O O9 0.406996 0.438412 0.183847
O O10 0.050266 0.361972 0.152688
O O11 0.197706 0.421587 0.070641
O O12 0.800769 0.506419 0.230095
O O13 0.958863 0.638794 0.198219
O O14 0.726280 0.159233 0.793633
O O15 0.408708 0.282750 0.812848
#
# Coordination Sequence:
#
# PCOD9265977 Si02
#       8
#     8   8   8   4   8   8   8   8
#     4  10  21  39  61  91 134 167 215 263 319 379
#     4   9  22  37  60  91 131 169 213 256 322 376
#     4  11  21  40  61  91 132 171 215 262 317 390
#     4  10  24  46  70  94 120 158 220 268 344 386
#     4  10  19  37  58  95 129 173 218 258 312 390
#     4  11  21  41  64  89 129 171 208 270 320 381
#     4  10  22  44  63  91 126 166 212 275 332 387
#     4  10  21  44  63  94 122 162 217 272 321 391
#
# _framework density 25.088415000000001
#
# number of rings (size 3 to 8) (size 9 to 14) (size 15 to 20)
#    0.000    1.867    2.667    0.400    0.000    5.333 
#    7.200    9.333    0.000    0.000    0.000    0.000 
#    0.000    0.000    0.000    0.000    0.000    0.000 
#
# Total GULP energy -167382.347505 kJ/mol
# GULP energy per Si atom -5579.411583 kJ/mol
# Density = 2.503131 g / cm^3
# Si number density = 25.088415 Si / 1000 Ang^3
#
#
#
# Elastic Constant Matrix: (Units=GPa)
#
#
# Indices 1 2 3 4 5 6 
#
# 1 109.6058 35.7399 28.1486 0.0000 28.8220 0.0000
# 2 35.7399 72.1589 25.8651 0.0000 14.0318 0.0000
# 3 28.1486 25.8651 96.3164 0.0000 13.8198 0.0000
# 4 0.0000 0.0000 0.0000 55.7952 0.0000 2.3376
# 5 28.8220 14.0318 13.8198 0.0000 38.4952 0.0000
# 6 0.0000 0.0000 0.0000 2.3376 0.0000 29.0540
#
#
#
# Elastic Compliance Matrix: (Units=1/GPa)
#
#
# Indices 1 2 3 4 5 6 
#
# 1 0.012927 -0.004394 -0.001517 0.000000 -0.007532 0.000000
# 2 -0.004394 0.017546 -0.003144 0.000000 -0.001977 0.000000
# 3 -0.001517 -0.003144 0.011959 0.000000 -0.002011 0.000000
# 4 0.000000 0.000000 0.000000 0.017983 0.000000 -0.001447
# 5 -0.007532 -0.001977 -0.002011 0.000000 0.033059 0.000000
# 6 0.000000 0.000000 0.000000 -0.001447 0.000000 0.034535
#
#
# Mechanical properties :
#
#
# Convention : Reuss Voigt Hill
#
# Bulk Modulus (GPa) = 41.11659 50.84316 45.97988
# Shear Modulus (GPa) = 32.41982 37.22404 34.82193
#
# Velocity S-wave (km/s) = 3.59865 3.85608 3.72959
# Velocity P-wave (km/s) = 5.80442 6.33525 6.07564
#
# Compressibility (1/GPa) = 0.02432108
#
# Stress axis : x y z
#
# Youngs Moduli (GPa) = 77.35953 56.99281 83.62096
#
# Poissons Ratio (x) = 0.25043 0.12686
# Poissons Ratio (y) = 0.33992 0.26291
# Poissons Ratio (z) = 0.11736 0.17919
#
# Static dielectric constant tensor:
#      x y z
#    x 2.031200 0.000000 -0.009700 
#    y 0.000000 2.013900 0.000000 
#    z -0.009700 0.000000 2.044460 
# 
# From -- ./inp_files/305824.got.cif
#   From: 2010.05.17/outbox.cif.g08.bks.cpg/sg15_153_cif.got.tgz:305824.got - 2010.06.03 18:47:42.
