data_PCOD9265225
_publ_section_title
;
Structure prediction by ZEFSAII (Michael W. Deem and Ramdas Pophale) SiO2 
 PCOD9265225
Probable space group: C 2/C
;
_chemical_formula_sum "Si O2"
_cell_formula_units_Z 64
_cell_length_a 12.357633
_cell_length_b 12.687958
_cell_length_c 31.541966
_cell_angle_alpha 90.000000
_cell_angle_beta 38.280431
_cell_angle_gamma 90.000000
_cell_volume 3063.830811
_symmetry_space_group_name_H-M "C 2/C"
_symmetry_group_IT_number 15
_symmetry_cell_setting 'monoclinic'
loop_
_space_group_symop_operation_xyz
x,y,z
-x,y,1/2-z
-x,-y,-z
x,-y,1/2+z
1/2+x,1/2+y,z
1/2-x,1/2+y,1/2-z
1/2-x,1/2-y,-z
1/2+x,1/2-y,1/2+z
loop_
_atom_site_type_symbol
_atom_site_label
_atom_site_fract_x
_atom_site_fract_y
_atom_site_fract_z
Si Si1 0.891635 0.256489 0.542706
Si Si2 0.160868 0.194191 0.818475
Si Si3 0.989635 0.719453 0.662915
Si Si4 0.945931 0.284110 0.815176
Si Si5 0.590781 0.833627 0.549334
Si Si6 0.922865 0.484918 0.872450
Si Si7 0.046780 0.816267 0.916560
Si Si8 0.600068 0.451665 0.412963
O O1 0.685951 0.251668 0.616183
O O2 0.972984 0.147729 0.537969
O O3 0.009827 0.346735 0.527575
O O4 0.912156 0.249851 0.486143
O O5 0.348860 0.227638 0.743511
O O6 0.161163 0.091638 0.848316
O O7 0.030789 0.192783 0.817885
O O8 0.071510 0.279642 0.876387
O O9 0.944351 0.785829 0.635137
O O10 0.981071 0.595823 0.652278
O O11 0.012876 0.392739 0.816707
O O12 0.736046 0.290811 0.879391
O O13 0.000000 0.277273 0.750000
O O14 0.750000 0.750000 0.500000
O O15 0.629751 0.934276 0.566335
O O16 0.759690 0.514909 0.893490
O O17 0.999968 0.939630 0.936205
#
# Coordination Sequence:
#
# PCOD9265225 Si02
#       8
#     8   8   8   8   8   8   8   8
#     4  10  21  38  58  85 116 153 192 249 300 355
#     4  10  21  35  57  90 118 150 194 249 305 353
#     4  11  23  36  54  86 126 155 193 241 304 370
#     4  10  19  36  59  83 109 151 200 245 288 342
#     4  10  20  39  63  88 116 151 202 259 297 348
#     4   9  21  35  60  85 113 150 198 241 299 349
#     4  11  21  38  60  84 116 156 203 244 296 356
#     4   9  20  35  61  85 112 145 201 247 291 351
#
# _framework density 20.888883
#
# number of rings (size 3 to 8) (size 9 to 14) (size 15 to 20)
#    0.000    2.000    1.250    3.000    3.500    7.000 
#    0.000    1.875    0.000    0.000    0.000    0.000 
#    0.000    0.000    0.000    0.000    0.000    0.000 
#
# Total GULP energy -178310.355226 kJ/mol
# GULP energy per Si atom -5572.198601 kJ/mol
# Density = 2.084134 g / cm^3
# Si number density = 20.888883 Si / 1000 Ang^3
#
#
#
# Elastic Constant Matrix: (Units=GPa)
#
#
# Indices 1 2 3 4 5 6 
#
# 1 91.3991 27.1629 20.2237 0.0000 5.6950 0.0000
# 2 27.1629 45.0983 6.1135 0.0000 5.3069 0.0000
# 3 20.2237 6.1135 93.3574 -0.0001 -2.5197 0.0000
# 4 0.0000 0.0000 -0.0001 25.4653 0.0000 13.3023
# 5 5.6950 5.3069 -2.5197 0.0000 40.2525 0.0000
# 6 0.0000 0.0000 0.0000 13.3023 0.0000 37.9564
#
#
#
# Elastic Compliance Matrix: (Units=1/GPa)
#
#
# Indices 1 2 3 4 5 6 
#
# 1 0.013919 -0.007914 -0.002526 0.000000 -0.001084 0.000000
# 2 -0.007914 0.027251 -0.000137 0.000000 -0.002482 0.000000
# 3 -0.002526 -0.000137 0.011297 0.000000 0.001083 0.000000
# 4 0.000000 0.000000 0.000000 0.048069 0.000000 -0.016846
# 5 -0.001084 -0.002482 0.001083 0.000000 0.025392 0.000000
# 6 0.000000 0.000000 0.000000 -0.016846 0.000000 0.032250
#
#
# Mechanical properties :
#
#
# Convention : Reuss Voigt Hill
#
# Bulk Modulus (GPa) = 31.93576 37.42831 34.68204
# Shear Modulus (GPa) = 26.34767 32.49183 29.41975
#
# Velocity S-wave (km/s) = 3.55537 3.94821 3.75693
# Velocity P-wave (km/s) = 5.67237 6.22424 5.95470
#
# Compressibility (1/GPa) = 0.03131286
#
# Stress axis : x y z
#
# Youngs Moduli (GPa) = 71.84193 36.69608 88.51907
#
# Poissons Ratio (x) = 0.29040 0.22363
# Poissons Ratio (y) = 0.56853 0.01214
# Poissons Ratio (z) = 0.18150 0.00503
#
# Static dielectric constant tensor:
#      x y z
#    x 1.814050 0.000000 0.004600 
#    y 0.000000 1.822200 0.000000 
#    z 0.004600 0.000000 1.789770 
# 
# From -- ./inp_files/311164.got.cif
#   From: 2010.05.17/outbox.cif.g08.bks.cpg/sg15_156_cif.got.tgz:311164.got - 2010.06.03 18:47:42.
