data_PCOD9265500
_publ_section_title
;
Structure prediction by ZEFSAII (Michael W. Deem and Ramdas Pophale) SiO2 
 PCOD9265500
Probable space group: C 2/C
;
_chemical_formula_sum "Si O2"
_cell_formula_units_Z 32
_cell_length_a 15.712370
_cell_length_b 4.847594
_cell_length_c 15.907051
_cell_angle_alpha 90.000000
_cell_angle_beta 91.450430
_cell_angle_gamma 90.000000
_cell_volume 1211.207187
_symmetry_space_group_name_H-M "C 2/C"
_symmetry_group_IT_number 15
_symmetry_cell_setting 'monoclinic'
loop_
_space_group_symop_operation_xyz
x,y,z
-x,y,1/2-z
-x,-y,-z
x,-y,1/2+z
1/2+x,1/2+y,z
1/2-x,1/2+y,1/2-z
1/2-x,1/2-y,-z
1/2+x,1/2-y,1/2+z
loop_
_atom_site_type_symbol
_atom_site_label
_atom_site_fract_x
_atom_site_fract_y
_atom_site_fract_z
Si Si1 0.231580 0.081338 0.698301
Si Si2 0.520232 0.482636 0.901187
Si Si3 0.418319 0.025622 0.376049
Si Si4 0.669339 0.880385 0.452202
O O1 0.287868 0.307879 0.749536
O O2 0.153621 0.281124 0.667954
O O3 0.284696 0.955680 0.621013
O O4 0.503619 0.788491 0.869093
O O5 0.612208 0.348884 0.904876
O O6 0.452229 0.277350 0.856049
O O7 0.500000 0.500000 0.000000
O O8 0.386184 0.996730 0.472893
O O9 0.750000 0.750000 0.500000
#
# Coordination Sequence:
#
# PCOD9265500 Si02
#       4
#     8   8   8   8
#     4  11  24  41  58  84 120 157 195 239 290 348
#     4  10  19  36  61  91 116 145 193 247 290 341
#     4  10  21  39  62  87 116 152 194 243 292 346
#     4   9  20  38  62  86 113 152 195 237 287 343
#
# _framework density 26.419919
#
# number of rings (size 3 to 8) (size 9 to 14) (size 15 to 20)
#    0.000    2.000    0.000    4.500    0.000    6.000 
#    0.000   28.750    0.000    0.000    0.000    0.000 
#    0.000    0.000    0.000    0.000    0.000    0.000 
#
# Total GULP energy -89314.997884 kJ/mol
# GULP energy per Si atom -5582.187368 kJ/mol
# Density = 2.635979 g / cm^3
# Si number density = 26.419919 Si / 1000 Ang^3
#
#
#
# Elastic Constant Matrix: (Units=GPa)
#
#
# Indices 1 2 3 4 5 6 
#
# 1 112.6262 19.2838 10.6471 0.0000 16.9545 0.0000
# 2 19.2838 150.3927 16.7582 0.0000 12.9161 0.0000
# 3 10.6471 16.7582 35.4023 0.0000 -9.0426 0.0000
# 4 0.0000 0.0000 0.0000 24.8043 0.0000 5.0181
# 5 16.9545 12.9161 -9.0426 0.0000 42.1740 0.0000
# 6 0.0000 0.0000 0.0000 5.0181 0.0000 28.9256
#
#
#
# Elastic Compliance Matrix: (Units=1/GPa)
#
#
# Indices 1 2 3 4 5 6 
#
# 1 0.010053 -0.000429 -0.004041 0.000000 -0.004777 0.000000
# 2 -0.000429 0.007423 -0.004149 0.000000 -0.002991 0.000000
# 3 -0.004041 -0.004149 0.034029 0.000000 0.010191 0.000000
# 4 0.000000 0.000000 0.000000 0.041782 0.000000 -0.007248
# 5 -0.004777 -0.002991 0.010191 0.000000 0.028733 0.000000
# 6 0.000000 0.000000 0.000000 -0.007248 0.000000 0.035829
#
#
# Mechanical properties :
#
#
# Convention : Reuss Voigt Hill
#
# Bulk Modulus (GPa) = 29.18066 43.53325 36.35695
# Shear Modulus (GPa) = 26.80835 35.96292 31.38564
#
# Velocity S-wave (km/s) = 3.18889 3.69345 3.45041
# Velocity P-wave (km/s) = 4.96263 5.89084 5.44654
#
# Compressibility (1/GPa) = 0.03426927
#
# Stress axis : x y z
#
# Youngs Moduli (GPa) = 99.46907 134.70947 29.38664
#
# Poissons Ratio (x) = 0.05773 0.11874
# Poissons Ratio (y) = 0.04263 0.12192
# Poissons Ratio (z) = 0.40193 0.55891
#
# Static dielectric constant tensor:
#      x y z
#    x 2.137400 0.000000 0.052340 
#    y 0.000000 2.090520 0.000000 
#    z 0.052340 0.000000 2.168120 
# 
# From -- ./inp_files/158226.got.cif
#   From: 2010.05.17/outbox.cif.g08.bks.cpg/sg15_80_cif.got.tgz:158226.got - 2010.06.03 18:47:42.
