data_PCOD9265623
_publ_section_title
;
Structure prediction by ZEFSAII (Michael W. Deem and Ramdas Pophale) SiO2 
 PCOD9265623
Probable space group: C 2/C
;
_chemical_formula_sum "Si O2"
_cell_formula_units_Z 56
_cell_length_a 28.233221
_cell_length_b 9.281464
_cell_length_c 19.745482
_cell_angle_alpha 90.000000
_cell_angle_beta 27.496711
_cell_angle_gamma 90.000000
_cell_volume 2388.924133
_symmetry_space_group_name_H-M "C 2/C"
_symmetry_group_IT_number 15
_symmetry_cell_setting 'monoclinic'
loop_
_space_group_symop_operation_xyz
x,y,z
-x,y,1/2-z
-x,-y,-z
x,-y,1/2+z
1/2+x,1/2+y,z
1/2-x,1/2+y,1/2-z
1/2-x,1/2-y,-z
1/2+x,1/2-y,1/2+z
loop_
_atom_site_type_symbol
_atom_site_label
_atom_site_fract_x
_atom_site_fract_y
_atom_site_fract_z
Si Si1 0.041457 0.274466 0.347461
Si Si2 0.269020 0.774478 0.555572
Si Si3 0.067387 0.568785 0.353711
Si Si4 0.937609 0.050305 0.388977
Si Si5 0.720461 0.640295 0.339796
Si Si6 0.945482 0.142971 0.593618
Si Si7 0.730532 0.029754 0.859255
O O1 0.154909 0.242437 0.233009
O O2 0.049286 0.444089 0.321311
O O3 0.018219 0.162894 0.318194
O O4 0.951896 0.234140 0.514770
O O5 0.250000 0.750000 0.500000
O O6 0.344213 0.649682 0.483343
O O7 0.314877 0.926148 0.524786
O O8 0.185692 0.594936 0.227671
O O9 0.025760 0.728469 0.392318
O O10 0.000000 0.500000 0.500000
O O11 0.000000 0.974374 0.250000
O O12 0.883519 0.942553 0.508847
O O13 0.698248 0.811999 0.372370
O O14 0.754630 0.575598 0.224065
O O15 0.838663 0.080487 0.753140
O O16 0.000000 0.000000 0.500000
#
# Coordination Sequence:
#
# PCOD9265623 Si02
#       7
#     8   8   8   8   8   8   8
#     4  11  21  41  64  99 137 184 236 281 357 427
#     4  12  25  44  70  97 137 189 236 291 351 429
#     4   9  21  35  62  98 138 172 222 287 361 412
#     4  12  25  44  71  98 139 196 246 295 357 435
#     4  11  23  43  68 106 141 181 235 301 361 424
#     4  10  19  36  62  99 136 172 221 281 358 420
#     4  11  24  40  70 104 140 178 236 295 361 424
#
# _framework density 23.441516
#
# number of rings (size 3 to 8) (size 9 to 14) (size 15 to 20)
#    0.000    1.143    5.714    0.857    4.000    0.000 
#    0.000    1.429    3.143    0.000    0.000    0.000 
#    0.000    0.000    0.000    0.000    0.000    0.000 
#
# Total GULP energy -155941.970754 kJ/mol
# GULP energy per Si atom -5569.356098 kJ/mol
# Density = 2.338816 g / cm^3
# Si number density = 23.441516 Si / 1000 Ang^3
#
#
#
# Elastic Constant Matrix: (Units=GPa)
#
#
# Indices 1 2 3 4 5 6 
#
# 1 65.8385 54.1026 14.6310 0.0001 -3.7499 0.0000
# 2 54.1026 228.9897 23.3829 0.0004 4.7577 0.0000
# 3 14.6310 23.3829 64.7537 0.0002 -6.9352 0.0000
# 4 0.0001 0.0004 0.0002 22.9032 0.0000 -8.4769
# 5 -3.7499 4.7577 -6.9352 0.0000 33.0288 0.0000
# 6 0.0000 0.0000 0.0000 -8.4769 0.0000 33.0442
#
#
#
# Elastic Compliance Matrix: (Units=1/GPa)
#
#
# Indices 1 2 3 4 5 6 
#
# 1 0.019502 -0.004393 -0.002573 0.000000 0.002307 0.000000
# 2 -0.004393 0.005558 -0.001180 0.000000 -0.001547 0.000000
# 3 -0.002573 -0.001180 0.016816 0.000000 0.003409 0.000000
# 4 0.000000 0.000000 0.000000 0.048243 0.000000 0.012376
# 5 0.002307 -0.001547 0.003409 0.000000 0.031477 0.000000
# 6 0.000000 0.000000 0.000000 0.012376 0.000000 0.033437
#
#
# Mechanical properties :
#
#
# Convention : Reuss Voigt Hill
#
# Bulk Modulus (GPa) = 39.08822 60.42385 49.75604
# Shear Modulus (GPa) = 27.80079 35.62627 31.71353
#
# Velocity S-wave (km/s) = 3.44752 3.90268 3.68214
# Velocity P-wave (km/s) = 5.70598 6.79266 6.27290
#
# Compressibility (1/GPa) = 0.02558315
#
# Stress axis : x y z
#
# Youngs Moduli (GPa) = 51.27787 179.93689 59.46825
#
# Poissons Ratio (x) = 0.79042 0.15302
# Poissons Ratio (y) = 0.22525 0.07017
# Poissons Ratio (z) = 0.13194 0.21232
#
# Static dielectric constant tensor:
#      x y z
#    x 1.992440 0.000000 -0.036360 
#    y 0.000000 1.983700 0.000000 
#    z -0.036360 0.000000 2.028760 
# 
# From -- ./inp_files/258966.got.cif
#   From: 2010.05.17/outbox.cif.g08.bks.cpg/sg15_130_cif.got.tgz:258966.got - 2010.06.03 18:47:42.
