data_PCOD9265913
_publ_section_title
;
Structure prediction by ZEFSAII (Michael W. Deem and Ramdas Pophale) SiO2 
 PCOD9265913
Probable space group: C 2/C
;
_chemical_formula_sum "Si O2"
_cell_formula_units_Z 56
_cell_length_a 9.428856
_cell_length_b 17.307682
_cell_length_c 17.594944
_cell_angle_alpha 90.000000
_cell_angle_beta 57.024704
_cell_angle_gamma 90.000000
_cell_volume 2408.788936
_symmetry_space_group_name_H-M "C 2/C"
_symmetry_group_IT_number 15
_symmetry_cell_setting 'monoclinic'
loop_
_space_group_symop_operation_xyz
x,y,z
-x,y,1/2-z
-x,-y,-z
x,-y,1/2+z
1/2+x,1/2+y,z
1/2-x,1/2+y,1/2-z
1/2-x,1/2-y,-z
1/2+x,1/2-y,1/2+z
loop_
_atom_site_type_symbol
_atom_site_label
_atom_site_fract_x
_atom_site_fract_y
_atom_site_fract_z
Si Si1 0.000000 0.039734 0.750000
Si Si2 0.431464 0.919159 0.988512
Si Si3 0.500000 0.008832 0.250000
Si Si4 0.210304 0.902101 0.612276
Si Si5 0.843096 0.616928 0.681431
Si Si6 0.646918 0.393529 0.460009
Si Si7 0.633450 0.236502 0.612817
Si Si8 0.699874 0.434606 0.912429
O O1 0.889830 0.978280 0.832508
O O2 0.855675 0.092724 0.751501
O O3 0.606756 0.886888 0.904315
O O4 0.291741 0.923799 0.965528
O O5 0.361488 0.880640 0.084436
O O6 0.500000 0.000000 0.000000
O O7 0.550753 0.951625 0.305371
O O8 0.656702 0.065673 0.191731
O O9 0.242251 0.908260 0.511823
O O10 0.115369 0.821636 0.649893
O O11 0.951739 0.694216 0.667841
O O12 0.742020 0.327699 0.386069
O O13 0.456751 0.377463 0.542545
O O14 0.640374 0.475874 0.420994
O O15 0.750000 0.250000 0.500000
#
# Coordination Sequence:
#
# PCOD9265913 Si02
#       8
#     4   8   4   8   8   8   8   8
#     4  12  24  37  64 103 128 164 212 282 330 389
#     4  12  18  39  62  90 121 168 218 265 299 382
#     4  12  20  35  58  95 130 160 198 278 332 381
#     4  11  21  37  65  89 126 163 214 260 327 380
#     4  12  23  40  65  96 130 169 223 265 329 387
#     4  10  19  37  57  89 113 170 214 261 304 383
#     4  10  20  41  68  88 122 176 219 265 312 397
#     4  11  21  32  61  92 129 154 219 274 316 362
#
# _framework density 23.248197000000001
#
# number of rings (size 3 to 8) (size 9 to 14) (size 15 to 20)
#    0.000    0.857    8.571    0.857    0.000    1.714 
#    0.000    0.714    0.000    7.714    0.000    0.000 
#    0.000    0.000    0.000    0.000    0.000    0.000 
#
# Total GULP energy -155921.311510 kJ/mol
# GULP energy per Si atom -5568.618268 kJ/mol
# Density = 2.319528 g / cm^3
# Si number density = 23.248197 Si / 1000 Ang^3
#
#
#
# Elastic Constant Matrix: (Units=GPa)
#
#
# Indices 1 2 3 4 5 6 
#
# 1 118.4910 43.5636 27.4756 0.0000 -28.4129 0.0000
# 2 43.5636 88.8203 21.2848 0.0000 -22.4936 0.0000
# 3 27.4756 21.2848 95.6318 0.0000 -20.2068 0.0000
# 4 0.0000 0.0000 0.0000 26.7593 0.0000 -14.0069
# 5 -28.4129 -22.4936 -20.2068 0.0000 43.5795 0.0000
# 6 0.0000 0.0000 0.0000 -14.0069 0.0000 22.8452
#
#
#
# Elastic Compliance Matrix: (Units=1/GPa)
#
#
# Indices 1 2 3 4 5 6 
#
# 1 0.011375 -0.004064 -0.001374 0.000000 0.004681 0.000000
# 2 -0.004064 0.014637 -0.001168 0.000000 0.004364 0.000000
# 3 -0.001374 -0.001168 0.011967 0.000000 0.004050 0.000000
# 4 0.000000 0.000000 0.000000 0.055032 0.000000 0.033741
# 5 0.004681 0.004364 0.004050 0.000000 0.030129 0.000000
# 6 0.000000 0.000000 0.000000 0.033741 0.000000 0.064460
#
#
# Mechanical properties :
#
#
# Convention : Reuss Voigt Hill
#
# Bulk Modulus (GPa) = 40.37798 54.17680 47.27739
# Shear Modulus (GPa) = 23.91560 32.67808 28.29684
#
# Velocity S-wave (km/s) = 3.21083 3.75322 3.49257
# Velocity P-wave (km/s) = 5.58138 6.49126 6.05344
#
# Compressibility (1/GPa) = 0.02476597
#
# Stress axis : x y z
#
# Youngs Moduli (GPa) = 87.91326 68.31997 83.56042
#
# Poissons Ratio (x) = 0.27766 0.11484
# Poissons Ratio (y) = 0.35729 0.09761
# Poissons Ratio (z) = 0.12083 0.07980
#
# Static dielectric constant tensor:
#      x y z
#    x 1.990570 0.000000 -0.077270 
#    y 0.000000 1.968010 0.000000 
#    z -0.077270 0.000000 2.132370 
# 
# From -- ./inp_files/233812.got.cif
#   From: 2010.05.17/outbox.cif.g08.bks.cpg/sg15_117_cif.got.tgz:233812.got - 2010.06.03 18:47:42.
