data_PCOD9265986
_publ_section_title
;
Structure prediction by ZEFSAII (Michael W. Deem and Ramdas Pophale) SiO2 
 PCOD9265986
Probable space group: C 2/C
;
_chemical_formula_sum "Si O2"
_cell_formula_units_Z 36
_cell_length_a 19.513500
_cell_length_b 13.120025
_cell_length_c 9.234785
_cell_angle_alpha 90.000000
_cell_angle_beta 137.023045
_cell_angle_gamma 90.000000
_cell_volume 1611.731002
_symmetry_space_group_name_H-M "C 2/C"
_symmetry_group_IT_number 15
_symmetry_cell_setting 'monoclinic'
loop_
_space_group_symop_operation_xyz
x,y,z
-x,y,1/2-z
-x,-y,-z
x,-y,1/2+z
1/2+x,1/2+y,z
1/2-x,1/2+y,1/2-z
1/2-x,1/2-y,-z
1/2+x,1/2-y,1/2+z
loop_
_atom_site_type_symbol
_atom_site_label
_atom_site_fract_x
_atom_site_fract_y
_atom_site_fract_z
Si Si1 0.882206 0.811835 0.621551
Si Si2 0.000000 0.513123 0.250000
Si Si3 0.159716 0.235535 0.751269
Si Si4 0.549487 0.143742 0.575633
Si Si5 0.924999 0.030752 0.760101
O O1 0.821520 0.767135 0.392267
O O2 0.884602 0.738341 0.764484
O O3 0.000000 0.811695 0.750000
O O4 0.861350 0.930692 0.618552
O O5 0.950222 0.438361 0.292369
O O6 0.071235 0.585294 0.459264
O O7 0.130883 0.122774 0.754893
O O8 0.064318 0.311782 0.621309
O O9 0.250000 0.250000 0.000000
O O10 0.000000 0.066014 0.750000
O O11 0.000000 0.000000 0.000000
#
# Coordination Sequence:
#
# PCOD9265986 Si02
#       5
#     8   4   8   8   8
#     4   9  17  36  59  85 112 154 202 251 296 364
#     4  10  20  34  60  84 106 152 216 238 284 364
#     4  11  22  38  57  91 130 154 191 270 320 344
#     4  10  19  37  59  82 113 159 204 246 293 372
#     4  11  19  36  67  92 113 161 217 248 296 380
#
# _framework density 22.336234000000001
#
# number of rings (size 3 to 8) (size 9 to 14) (size 15 to 20)
#    0.000    1.778   10.000    0.000    1.556    0.000 
#    4.000    0.000    0.000    2.667    0.000    0.000 
#    0.000    0.000    0.000    0.000    0.000    0.000 
#
# Total GULP energy -100375.786403 kJ/mol
# GULP energy per Si atom -5576.432578 kJ/mol
# Density = 2.228540 g / cm^3
# Si number density = 22.336234 Si / 1000 Ang^3
#
#
#
# Elastic Constant Matrix: (Units=GPa)
#
#
# Indices 1 2 3 4 5 6 
#
# 1 40.4302 19.2195 34.5777 0.0000 -12.1758 0.0000
# 2 19.2195 116.7317 44.4746 0.0000 0.7824 0.0000
# 3 34.5777 44.4746 166.1165 0.0000 -14.3607 0.0000
# 4 0.0000 0.0000 0.0000 45.7320 0.0000 -18.6182
# 5 -12.1758 0.7824 -14.3607 0.0000 26.1205 0.0000
# 6 0.0000 0.0000 0.0000 -18.6182 0.0000 26.3442
#
#
#
# Elastic Compliance Matrix: (Units=1/GPa)
#
#
# Indices 1 2 3 4 5 6 
#
# 1 0.035050 -0.003935 -0.005060 0.000000 0.013674 0.000000
# 2 -0.003935 0.010060 -0.002162 0.000000 -0.003324 0.000000
# 3 -0.005060 -0.002162 0.007826 0.000000 0.002008 0.000000
# 4 0.000000 0.000000 0.000000 0.030699 0.000000 0.021696
# 5 0.013674 -0.003324 0.002008 0.000000 0.045862 0.000000
# 6 0.000000 0.000000 0.000000 0.021696 0.000000 0.053292
#
#
# Mechanical properties :
#
#
# Convention : Reuss Voigt Hill
#
# Bulk Modulus (GPa) = 32.65545 57.75801 45.20673
# Shear Modulus (GPa) = 23.22224 34.63978 28.93101
#
# Velocity S-wave (km/s) = 3.22788 3.94233 3.60286
# Velocity P-wave (km/s) = 5.34266 6.82915 6.13112
#
# Compressibility (1/GPa) = 0.03062276
#
# Stress axis : x y z
#
# Youngs Moduli (GPa) = 28.53048 99.39955 127.78560
#
# Poissons Ratio (x) = 0.39110 0.64663
# Poissons Ratio (y) = 0.11226 0.27625
# Poissons Ratio (z) = 0.14437 0.21489
#
# Static dielectric constant tensor:
#      x y z
#    x 1.831540 0.000000 -0.004420 
#    y 0.000000 -10.550620 0.000000 
#    z -0.004420 0.000000 1.790010 
# 
# From -- ./inp_files/46499.got.cif
#   From: 2010.05.17/outbox.cif.g08.bks.cpg/sg15_24_cif.got.tgz:46499.got - 2010.06.03 18:47:42.
