data_PCOD9265058
_publ_section_title
;
Structure prediction by ZEFSAII (Michael W. Deem and Ramdas Pophale) SiO2 
 PCOD9265058
Probable space group: C 2/C
;
_chemical_formula_sum "Si O2"
_cell_formula_units_Z 64
_cell_length_a 25.288252
_cell_length_b 12.180109
_cell_length_c 13.352854
_cell_angle_alpha 90.000000
_cell_angle_beta 57.419353
_cell_angle_gamma 90.000000
_cell_volume 3465.638308
_symmetry_space_group_name_H-M "C 2/C"
_symmetry_group_IT_number 15
_symmetry_cell_setting 'monoclinic'
loop_
_space_group_symop_operation_xyz
x,y,z
-x,y,1/2-z
-x,-y,-z
x,-y,1/2+z
1/2+x,1/2+y,z
1/2-x,1/2+y,1/2-z
1/2-x,1/2-y,-z
1/2+x,1/2-y,1/2+z
loop_
_atom_site_type_symbol
_atom_site_label
_atom_site_fract_x
_atom_site_fract_y
_atom_site_fract_z
Si Si1 0.436764 0.862896 0.422549
Si Si2 0.344930 0.894117 0.694709
Si Si3 0.876538 0.988297 0.894580
Si Si4 0.074241 0.411418 0.297371
Si Si5 0.533610 0.381293 0.552087
Si Si6 0.134087 0.147367 0.775391
Si Si7 0.890993 0.164877 0.196074
Si Si8 0.703127 0.474803 0.833338
O O1 0.377414 0.878876 0.553566
O O2 0.500318 0.918701 0.399311
O O3 0.424219 0.902997 0.324171
O O4 0.454491 0.734299 0.403649
O O5 0.350459 0.775669 0.742142
O O6 0.273956 0.934649 0.759435
O O7 0.385998 0.986378 0.707093
O O8 0.937664 0.971396 0.902417
O O9 0.870964 0.885099 0.824310
O O10 0.877739 0.092612 0.819995
O O11 0.820091 0.995302 0.031538
O O12 0.101167 0.295603 0.310518
O O13 0.574256 0.372038 0.409484
O O14 0.460018 0.387027 0.606955
O O15 0.189021 0.078858 0.775652
O O16 0.842386 0.119756 0.164521
#
# Coordination Sequence:
#
# PCOD9265058 Si02
#       8
#     8   8   8   8   8   8   8   8
#     4   9  19  39  63  88 112 140 196 244 289 342
#     4  11  23  40  60  81 121 159 185 241 290 339
#     4  10  19  36  57  84 118 152 187 234 285 341
#     4  10  20  37  66  91 108 147 193 242 295 343
#     4   9  17  35  63  87 113 147 187 246 292 332
#     4   9  22  39  57  84 119 151 197 238 289 347
#     4  10  20  36  60  91 115 146 196 241 284 345
#     4  10  24  38  56  85 119 155 198 229 281 348
#
# _framework density 18.467017999999999
#
# number of rings (size 3 to 8) (size 9 to 14) (size 15 to 20)
#    0.000    2.250    1.250    0.750    1.750    8.000 
#    2.250    1.250   11.000    0.000    0.000    0.000 
#    0.000    0.000    0.000    0.000    0.000    0.000 
#
# Total GULP energy -178607.994080 kJ/mol
# GULP energy per Si atom -5581.499815 kJ/mol
# Density = 1.842499 g / cm^3
# Si number density = 18.467018 Si / 1000 Ang^3
#
#
#
# Elastic Constant Matrix: (Units=GPa)
#
#
# Indices 1 2 3 4 5 6 
#
# 1 102.1623 49.0810 46.1292 0.0000 -24.4903 0.0000
# 2 49.0810 112.4813 9.8855 0.0000 -10.2847 0.0000
# 3 46.1292 9.8855 52.4308 0.0000 -16.5016 0.0000
# 4 0.0000 0.0000 0.0000 20.0177 0.0000 -1.4669
# 5 -24.4903 -10.2847 -16.5016 0.0000 21.8220 0.0000
# 6 0.0000 0.0000 0.0000 -1.4669 0.0000 30.6206
#
#
#
# Elastic Compliance Matrix: (Units=1/GPa)
#
#
# Indices 1 2 3 4 5 6 
#
# 1 0.022994 -0.007716 -0.015483 0.000000 0.010461 0.000000
# 2 -0.007716 0.011890 0.004705 0.000000 0.000502 0.000000
# 3 -0.015483 0.004705 0.035482 0.000000 0.011672 0.000000
# 4 0.000000 0.000000 0.000000 0.050132 0.000000 0.002402
# 5 0.010461 0.000502 0.011672 0.000000 0.066628 0.000000
# 6 0.000000 0.000000 0.000000 0.002402 0.000000 0.032773
#
#
# Mechanical properties :
#
#
# Convention : Reuss Voigt Hill
#
# Bulk Modulus (GPa) = 29.96139 53.02955 41.49547
# Shear Modulus (GPa) = 18.65585 25.29065 21.97325
#
# Velocity S-wave (km/s) = 3.18185 3.70470 3.45318
# Velocity P-wave (km/s) = 5.45513 6.86133 6.19824
#
# Compressibility (1/GPa) = 0.03337628
#
# Stress axis : x y z
#
# Youngs Moduli (GPa) = 43.48912 84.10634 28.18364
#
# Poissons Ratio (x) = 0.64899 0.43638
# Poissons Ratio (y) = 0.33557 -0.13261
# Poissons Ratio (z) = 0.67336 -0.39572
#
# Static dielectric constant tensor:
#      x y z
#    x 1.621240 0.000000 -0.007880 
#    y 0.000000 1.647820 0.000000 
#    z -0.007880 0.000000 1.640920 
# 
# From -- ./inp_files/117985.got.cif
#   From: 2010.05.17/outbox.cif.g08.bks.cpg/sg15_59_cif.got.tgz:117985.got - 2010.06.03 18:47:42.
