data_PCOD9265358
_publ_section_title
;
Structure prediction by ZEFSAII (Michael W. Deem and Ramdas Pophale) SiO2 
 PCOD9265358
Probable space group: C 2/C
;
_chemical_formula_sum "Si O2"
_cell_formula_units_Z 60
_cell_length_a 25.217300
_cell_length_b 8.237641
_cell_length_c 23.218724
_cell_angle_alpha 90.000000
_cell_angle_beta 142.835122
_cell_angle_gamma 90.000000
_cell_volume 2913.777243
_symmetry_space_group_name_H-M "C 2/C"
_symmetry_group_IT_number 15
_symmetry_cell_setting 'monoclinic'
loop_
_space_group_symop_operation_xyz
x,y,z
-x,y,1/2-z
-x,-y,-z
x,-y,1/2+z
1/2+x,1/2+y,z
1/2-x,1/2+y,1/2-z
1/2-x,1/2-y,-z
1/2+x,1/2-y,1/2+z
loop_
_atom_site_type_symbol
_atom_site_label
_atom_site_fract_x
_atom_site_fract_y
_atom_site_fract_z
Si Si1 0.732765 0.186035 0.287587
Si Si2 0.097586 0.219919 0.573786
Si Si3 0.813261 0.477720 0.573214
Si Si4 0.917356 0.853902 0.898808
Si Si5 0.255658 0.353674 0.379876
Si Si6 0.000000 0.650945 0.750000
Si Si7 0.415346 0.370708 0.766139
Si Si8 0.300506 0.365504 0.124942
O O1 0.651383 0.208138 0.173943
O O2 0.820721 0.216105 0.326621
O O3 0.728305 0.314848 0.335778
O O4 0.735891 0.009684 0.321270
O O5 0.157559 0.234337 0.568854
O O6 0.995523 0.267353 0.484111
O O7 0.088320 0.024660 0.572905
O O8 0.746559 0.577990 0.556918
O O9 0.910439 0.551608 0.662263
O O10 0.772432 0.463126 0.474471
O O11 0.817413 0.298493 0.604273
O O12 0.939131 0.902387 0.852292
O O13 0.174237 0.232656 0.306811
O O14 0.984365 0.764191 0.791650
O O15 0.388374 0.530265 0.708132
#
# Coordination Sequence:
#
# PCOD9265358 Si02
#       8
#     8   8   8   8   8   4   8   8
#     4  10  19  39  59  89 122 165 197 259 307 369
#     4  10  19  36  60  86 122 163 194 257 302 366
#     4   9  21  43  60  89 120 162 204 262 306 364
#     4  10  21  35  58  92 122 153 212 242 307 360
#     4   9  20  36  60  81 125 160 193 254 321 351
#     4  10  24  40  56  90 130 148 200 266 312 348
#     4  11  21  38  59  88 119 159 200 254 298 378
#     4  10  21  39  68  85 115 169 214 238 317 373
#
# _framework density 20.591829000000001
#
# number of rings (size 3 to 8) (size 9 to 14) (size 15 to 20)
#    0.000    2.133    2.667    0.000    0.000    4.800 
#    7.200    3.333    0.000    0.000    0.000    0.000 
#    0.000    0.000    0.000    0.000    0.000    0.000 
#
# Total GULP energy -167345.649181 kJ/mol
# GULP energy per Si atom -5578.188306 kJ/mol
# Density = 2.054496 g / cm^3
# Si number density = 20.591829 Si / 1000 Ang^3
#
#
#
# Elastic Constant Matrix: (Units=GPa)
#
#
# Indices 1 2 3 4 5 6 
#
# 1 79.1872 6.8303 11.0480 0.0000 -3.4578 0.0000
# 2 6.8303 20.8115 -3.6584 -0.0001 -7.2081 0.0000
# 3 11.0480 -3.6584 69.7208 0.0000 -7.5256 0.0000
# 4 0.0000 -0.0001 0.0000 16.8309 0.0000 2.8139
# 5 -3.4578 -7.2081 -7.5256 0.0000 26.1168 0.0000
# 6 0.0000 0.0000 0.0000 2.8139 0.0000 17.9598
#
#
#
# Elastic Compliance Matrix: (Units=1/GPa)
#
#
# Indices 1 2 3 4 5 6 
#
# 1 0.013375 -0.004909 -0.002407 0.000000 -0.000278 0.000000
# 2 -0.004909 0.056342 0.005514 0.000000 0.016489 0.000000
# 3 -0.002407 0.005514 0.015630 0.000000 0.005707 0.000000
# 4 0.000000 0.000000 0.000000 0.061013 0.000000 -0.009559
# 5 -0.000278 0.016489 0.005707 0.000000 0.044448 0.000000
# 6 0.000000 0.000000 0.000000 -0.009559 0.000000 0.057178
#
#
# Mechanical properties :
#
#
# Convention : Reuss Voigt Hill
#
# Bulk Modulus (GPa) = 12.23351 22.01772 17.12562
# Shear Modulus (GPa) = 17.93162 22.54813 20.23987
#
# Velocity S-wave (km/s) = 2.95415 3.31267 3.13854
# Velocity P-wave (km/s) = 4.19403 5.03462 4.63343
#
# Compressibility (1/GPa) = 0.08174267
#
# Stress axis : x y z
#
# Youngs Moduli (GPa) = 74.76386 17.74885 63.98091
#
# Poissons Ratio (x) = 0.08713 0.15400
# Poissons Ratio (y) = 0.36702 -0.35279
# Poissons Ratio (z) = 0.17996 -0.09787
#
# Static dielectric constant tensor:
#      x y z
#    x 1.745240 0.000000 0.010410 
#    y 0.000000 1.755030 0.000000 
#    z 0.010410 0.000000 1.775710 
# 
# From -- ./inp_files/255180.got.cif
#   From: 2010.05.17/outbox.cif.g08.bks.cpg/sg15_128_cif.got.tgz:255180.got - 2010.06.03 18:47:42.
