data_PCOD9265182
_publ_section_title
;
Structure prediction by ZEFSAII (Michael W. Deem and Ramdas Pophale) SiO2 
 PCOD9265182
Probable space group: C 2/C
;
_chemical_formula_sum "Si O2"
_cell_formula_units_Z 52
_cell_length_a 11.166629
_cell_length_b 31.733365
_cell_length_c 8.287814
_cell_angle_alpha 90.000000
_cell_angle_beta 61.314899
_cell_angle_gamma 90.000000
_cell_volume 2576.392274
_symmetry_space_group_name_H-M "C 2/C"
_symmetry_group_IT_number 15
_symmetry_cell_setting 'monoclinic'
loop_
_space_group_symop_operation_xyz
x,y,z
-x,y,1/2-z
-x,-y,-z
x,-y,1/2+z
1/2+x,1/2+y,z
1/2-x,1/2+y,1/2-z
1/2-x,1/2-y,-z
1/2+x,1/2-y,1/2+z
loop_
_atom_site_type_symbol
_atom_site_label
_atom_site_fract_x
_atom_site_fract_y
_atom_site_fract_z
Si Si1 0.500000 0.477960 0.250000
Si Si2 0.195140 0.869762 0.784280
Si Si3 0.132112 0.476564 0.275538
Si Si4 0.076924 0.152532 0.861080
Si Si5 0.657156 0.709498 0.091293
Si Si6 0.757331 0.914807 0.435220
Si Si7 0.779012 0.041207 0.364154
O O1 0.385093 0.446062 0.395435
O O2 0.404128 0.512188 0.223079
O O3 0.218125 0.825317 0.678763
O O4 0.203102 0.909382 0.661876
O O5 0.280279 0.886331 0.885560
O O6 0.041846 0.866612 0.951470
O O7 0.148852 0.443989 0.413193
O O8 0.154741 0.522574 0.337566
O O9 0.000000 0.472340 0.250000
O O10 0.251370 0.468233 0.068631
O O11 0.181163 0.117466 0.734185
O O12 0.000000 0.168932 0.750000
O O13 0.146816 0.187119 0.924724
O O14 0.500000 0.718765 0.250000
O O15 0.750000 0.750000 0.000000
#
# Coordination Sequence:
#
# PCOD9265182 Si02
#       7
#     4   8   8   8   8   8   8
#     4  10  20  30  54  94 126 144 204 252 312 346
#     4  10  20  36  59  92 119 152 202 262 327 366
#     4  11  24  38  52  76 123 185 223 250 296 363
#     4   9  18  36  63  89 123 155 195 258 321 372
#     4  10  22  41  67  95 126 158 201 260 332 403
#     4  10  19  36  58  88 125 158 207 261 309 361
#     4  11  23  33  57  83 119 162 211 264 304 355
#
# _framework density 20.183263
#
# number of rings (size 3 to 8) (size 9 to 14) (size 15 to 20)
#    0.000    1.846    2.308    3.231    5.385    1.846 
#    0.000   10.000    0.000    2.769    0.000    0.000 
#    0.000    0.000    0.000    0.000    0.000    0.000 
#
# Total GULP energy -144919.699696 kJ/mol
# GULP energy per Si atom -5573.834604 kJ/mol
# Density = 2.013732 g / cm^3
# Si number density = 20.183263 Si / 1000 Ang^3
#
#
#
# Elastic Constant Matrix: (Units=GPa)
#
#
# Indices 1 2 3 4 5 6 
#
# 1 107.3123 58.5937 29.4038 0.0000 19.0334 0.0000
# 2 58.5937 165.3180 64.9372 0.0000 8.6471 0.0000
# 3 29.4038 64.9372 91.8193 0.0000 12.2793 0.0000
# 4 0.0000 0.0000 0.0000 34.2714 0.0000 7.5426
# 5 19.0334 8.6471 12.2793 0.0000 17.1428 0.0000
# 6 0.0000 0.0000 0.0000 7.5426 0.0000 29.5054
#
#
#
# Elastic Compliance Matrix: (Units=1/GPa)
#
#
# Indices 1 2 3 4 5 6 
#
# 1 0.014046 -0.004451 0.000481 0.000000 -0.013695 0.000000
# 2 -0.004451 0.009786 -0.006079 0.000000 0.004360 0.000000
# 3 0.000481 -0.006079 0.016254 0.000000 -0.009111 0.000000
# 4 0.000000 0.000000 0.000000 0.030918 0.000000 -0.007904
# 5 -0.013695 0.004360 -0.009111 0.000000 0.077865 0.000000
# 6 0.000000 0.000000 0.000000 -0.007904 0.000000 0.035913
#
#
# Mechanical properties :
#
#
# Convention : Reuss Voigt Hill
#
# Bulk Modulus (GPa) = 50.02614 74.47989 62.25301
# Shear Modulus (GPa) = 23.63584 30.28493 26.96038
#
# Velocity S-wave (km/s) = 3.42579 3.87783 3.65880
# Velocity P-wave (km/s) = 6.36300 7.55195 6.98283
#
# Compressibility (1/GPa) = 0.01998955
#
# Stress axis : x y z
#
# Youngs Moduli (GPa) = 71.19464 102.18421 61.52207
#
# Poissons Ratio (x) = 0.45483 -0.02961
# Poissons Ratio (y) = 0.31689 0.37398
# Poissons Ratio (z) = -0.03427 0.62115
#
# Static dielectric constant tensor:
#      x y z
#    x 1.829910 0.000000 0.003010 
#    y 0.000000 1.702360 0.000000 
#    z 0.003010 0.000000 1.805690 
# 
# From -- ./inp_files/33516.got.cif
#   From: 2010.05.17/outbox.cif.g08.bks.cpg/sg15_17_cif.got.tgz:33516.got - 2010.06.03 18:47:42.
