data_PCOD9265405
_publ_section_title
;
Structure prediction by ZEFSAII (Michael W. Deem and Ramdas Pophale) SiO2 
 PCOD9265405
Probable space group: C 2/C
;
_chemical_formula_sum "Si O2"
_cell_formula_units_Z 48
_cell_length_a 16.073692
_cell_length_b 11.714274
_cell_length_c 11.920338
_cell_angle_alpha 90.000000
_cell_angle_beta 64.230622
_cell_angle_gamma 90.000000
_cell_volume 2021.287199
_symmetry_space_group_name_H-M "C 2/C"
_symmetry_group_IT_number 15
_symmetry_cell_setting 'monoclinic'
loop_
_space_group_symop_operation_xyz
x,y,z
-x,y,1/2-z
-x,-y,-z
x,-y,1/2+z
1/2+x,1/2+y,z
1/2-x,1/2+y,1/2-z
1/2-x,1/2-y,-z
1/2+x,1/2-y,1/2+z
loop_
_atom_site_type_symbol
_atom_site_label
_atom_site_fract_x
_atom_site_fract_y
_atom_site_fract_z
Si Si1 0.218537 0.852447 0.158135
Si Si2 0.610648 0.701048 0.368870
Si Si3 0.667684 0.011934 0.555564
Si Si4 0.648847 0.449337 0.415967
Si Si5 0.862040 0.759175 0.908679
Si Si6 0.428234 0.776834 0.885614
O O1 0.290392 0.759011 0.160083
O O2 0.152941 0.879908 0.299239
O O3 0.159619 0.803815 0.090121
O O4 0.272837 0.966131 0.085993
O O5 0.605686 0.569917 0.409453
O O6 0.606410 0.718936 0.237836
O O7 0.546673 0.764542 0.498573
O O8 0.602438 0.906021 0.619445
O O9 0.744778 0.028054 0.607170
O O10 0.612650 0.129566 0.573659
O O11 0.607043 0.368394 0.536838
O O12 0.750000 0.750000 0.000000
O O13 0.500000 0.743214 0.750000
#
# Coordination Sequence:
#
# PCOD9265405 Si02
#       6
#     8   8   8   8   8   8
#     4  11  20  35  64  90 118 154 201 259 302 352
#     4  11  20  37  62  91 119 154 203 254 299 355
#     4  10  19  36  60  90 117 152 200 259 299 344
#     4  11  19  33  64  95 117 147 201 262 308 344
#     4  10  20  34  60  98 121 144 192 265 311 350
#     4  11  24  41  59  86 126 169 202 239 305 373
#
# _framework density 23.747243000000001
#
# number of rings (size 3 to 8) (size 9 to 14) (size 15 to 20)
#    0.000    1.333    6.667    3.000    0.000    0.000 
#    0.000    1.667    0.000    0.000    0.000    0.000 
#    0.000    0.000    0.000    0.000    0.000    0.000 
#
# Total GULP energy -134038.367400 kJ/mol
# GULP energy per Si atom -5584.931975 kJ/mol
# Density = 2.369319 g / cm^3
# Si number density = 23.747243 Si / 1000 Ang^3
#
#
#
# Elastic Constant Matrix: (Units=GPa)
#
#
# Indices 1 2 3 4 5 6 
#
# 1 58.5694 30.8865 35.7081 0.0000 12.6610 0.0000
# 2 30.8865 178.5249 71.3534 0.0000 22.8094 0.0000
# 3 35.7081 71.3534 174.9577 0.0000 18.6053 0.0000
# 4 0.0000 0.0000 0.0000 34.6638 0.0000 10.2428
# 5 12.6610 22.8094 18.6053 0.0000 25.2532 0.0000
# 6 0.0000 0.0000 0.0000 10.2428 0.0000 16.9501
#
#
#
# Elastic Compliance Matrix: (Units=1/GPa)
#
#
# Indices 1 2 3 4 5 6 
#
# 1 0.021226 -0.001602 -0.002931 0.000000 -0.007036 0.000000
# 2 -0.001602 0.007291 -0.002204 0.000000 -0.004158 0.000000
# 3 -0.002931 -0.002204 0.007427 0.000000 -0.002011 0.000000
# 4 0.000000 0.000000 0.000000 0.035120 0.000000 -0.021222
# 5 -0.007036 -0.004158 -0.002011 0.000000 0.048364 0.000000
# 6 0.000000 0.000000 0.000000 -0.021222 0.000000 0.071821
#
#
# Mechanical properties :
#
#
# Convention : Reuss Voigt Hill
#
# Bulk Modulus (GPa) = 44.50405 76.43865 60.47135
# Shear Modulus (GPa) = 23.56126 33.64701 28.60413
#
# Velocity S-wave (km/s) = 3.15329 3.76823 3.47439
# Velocity P-wave (km/s) = 5.66030 7.15479 6.45097
#
# Compressibility (1/GPa) = 0.02246986
#
# Stress axis : x y z
#
# Youngs Moduli (GPa) = 47.11140 137.15670 134.64980
#
# Poissons Ratio (x) = 0.21974 0.39461
# Poissons Ratio (y) = 0.07548 0.29681
# Poissons Ratio (z) = 0.13807 0.30234
#
# Static dielectric constant tensor:
#      x y z
#    x 2.002740 0.000000 -0.036480 
#    y 0.000000 1.916270 0.000000 
#    z -0.036480 0.000000 1.923340 
# 
# From -- ./inp_files/110882.got.cif
#   From: 2010.05.17/outbox.cif.g08.bks.cpg/sg15_56_cif.got.tgz:110882.got - 2010.06.03 18:47:42.
