data_PCOD9265088
_publ_section_title
;
Structure prediction by ZEFSAII (Michael W. Deem and Ramdas Pophale) SiO2 
 PCOD9265088
Probable space group: C 2/C
;
_chemical_formula_sum "Si O2"
_cell_formula_units_Z 56
_cell_length_a 13.013653
_cell_length_b 9.575199
_cell_length_c 25.520019
_cell_angle_alpha 90.000000
_cell_angle_beta 122.768406
_cell_angle_gamma 90.000000
_cell_volume 2673.956854
_symmetry_space_group_name_H-M "C 2/C"
_symmetry_group_IT_number 15
_symmetry_cell_setting 'monoclinic'
loop_
_space_group_symop_operation_xyz
x,y,z
-x,y,1/2-z
-x,-y,-z
x,-y,1/2+z
1/2+x,1/2+y,z
1/2-x,1/2+y,1/2-z
1/2-x,1/2-y,-z
1/2+x,1/2-y,1/2+z
loop_
_atom_site_type_symbol
_atom_site_label
_atom_site_fract_x
_atom_site_fract_y
_atom_site_fract_z
Si Si1 0.163656 0.767405 0.082488
Si Si2 0.798128 0.472455 0.052490
Si Si3 0.722926 0.978356 0.073889
Si Si4 0.492143 0.576615 0.687305
Si Si5 0.833773 0.971766 0.847938
Si Si6 0.595491 0.315538 0.539561
Si Si7 0.923269 0.603593 0.182365
O O1 0.181838 0.606216 0.098600
O O2 0.250730 0.823252 0.059676
O O3 0.192598 0.873870 0.136790
O O4 0.025485 0.792788 0.026638
O O5 0.689844 0.584725 0.034666
O O6 0.902778 0.522194 0.122134
O O7 0.819108 0.481482 0.996754
O O8 0.867812 0.963873 0.122519
O O9 0.659199 0.831862 0.067847
O O10 0.500000 0.534851 0.750000
O O11 0.605298 0.501592 0.690236
O O12 0.484215 0.746780 0.686053
O O13 0.929965 0.896142 0.913321
O O14 0.710557 0.885121 0.826467
O O15 0.000000 0.532433 0.250000
#
# Coordination Sequence:
#
# PCOD9265088 Si02
#       7
#     8   8   8   8   8   8   8
#     4  10  21  35  56  94 132 163 200 273 325 364
#     4  10  20  36  64  87 123 169 214 252 315 380
#     4  12  21  36  58  97 130 158 216 262 321 378
#     4  11  23  43  67  90 125 172 214 262 326 388
#     4  10  21  42  67  88 121 171 219 257 316 394
#     4  10  19  36  57  90 121 168 212 253 313 387
#     4   9  20  42  68  95 120 167 223 255 316 388
#
# _framework density 20.942747000000001
#
# number of rings (size 3 to 8) (size 9 to 14) (size 15 to 20)
#    0.000    2.000    2.857    4.714    2.000    0.000 
#    5.143    2.857    0.000    0.000    0.000    0.000 
#    0.000    0.000    0.000    0.000    0.000    0.000 
#
# Total GULP energy -156149.813673 kJ/mol
# GULP energy per Si atom -5576.779060 kJ/mol
# Density = 2.089508 g / cm^3
# Si number density = 20.942747 Si / 1000 Ang^3
#
#
#
# Elastic Constant Matrix: (Units=GPa)
#
#
# Indices 1 2 3 4 5 6 
#
# 1 24.6925 5.5427 4.5276 0.0000 -12.4172 0.0000
# 2 5.5427 71.1912 -15.4307 0.0000 -7.2829 0.0000
# 3 4.5276 -15.4307 72.7129 0.0000 0.7978 0.0000
# 4 0.0000 0.0000 0.0000 1.9861 0.0000 -5.0469
# 5 -12.4172 -7.2829 0.7978 0.0000 36.1686 0.0000
# 6 0.0000 0.0000 0.0000 -5.0469 0.0000 9.1775
#
#
#
# Elastic Compliance Matrix: (Units=1/GPa)
#
#
# Indices 1 2 3 4 5 6 
#
# 1 0.050338 -0.003066 -0.003969 0.000000 0.016752 0.000000
# 2 -0.003066 0.015220 0.003400 0.000000 0.001937 0.000000
# 3 -0.003969 0.003400 0.014732 0.000000 -0.001003 0.000000
# 4 0.000000 0.000000 0.000000 -1.266986 0.000000 -0.696744
# 5 0.016752 0.001937 -0.001003 0.000000 0.033812 0.000000
# 6 0.000000 0.000000 0.000000 -0.696744 0.000000 -0.274193
#
#
# Mechanical properties :
#
#
# Convention : Reuss Voigt Hill
#
# Bulk Modulus (GPa) = 13.69465 17.54177 15.61821
# Shear Modulus (GPa) = -3.58303 21.06357 8.74027
#
# Velocity S-wave (km/s) = -1.30942 3.17483 2.04511
# Velocity P-wave (km/s) = 2.06571 4.67264 3.61253
#
# Compressibility (1/GPa) = 0.07302120
#
# Stress axis : x y z
#
# Youngs Moduli (GPa) = 19.86563 65.70126 67.87805
#
# Poissons Ratio (x) = 0.20142 0.26940
# Poissons Ratio (y) = 0.06090 -0.23076
# Poissons Ratio (z) = 0.07884 -0.22336
#
# Static dielectric constant tensor:
#      x y z
#    x 1.789200 0.000000 0.009880 
#    y 0.000000 1.747960 0.000000 
#    z 0.009880 0.000000 1.786910 
# 
# From -- ./inp_files/273232.got.cif
#   From: 2010.05.17/outbox.cif.g08.bks.cpg/sg15_137_cif.got.tgz:273232.got - 2010.06.03 18:47:42.
