data_PCOD9265747
_publ_section_title
;
Structure prediction by ZEFSAII (Michael W. Deem and Ramdas Pophale) SiO2 
 PCOD9265747
Probable space group: C 2/C
;
_chemical_formula_sum "Si O2"
_cell_formula_units_Z 56
_cell_length_a 11.108692
_cell_length_b 15.899272
_cell_length_c 16.575347
_cell_angle_alpha 90.000000
_cell_angle_beta 111.597714
_cell_angle_gamma 90.000000
_cell_volume 2722.000575
_symmetry_space_group_name_H-M "C 2/C"
_symmetry_group_IT_number 15
_symmetry_cell_setting 'monoclinic'
loop_
_space_group_symop_operation_xyz
x,y,z
-x,y,1/2-z
-x,-y,-z
x,-y,1/2+z
1/2+x,1/2+y,z
1/2-x,1/2+y,1/2-z
1/2-x,1/2-y,-z
1/2+x,1/2-y,1/2+z
loop_
_atom_site_type_symbol
_atom_site_label
_atom_site_fract_x
_atom_site_fract_y
_atom_site_fract_z
Si Si1 0.666800 0.476521 0.626096
Si Si2 0.094752 0.459494 0.902661
Si Si3 0.075123 0.606812 0.682136
Si Si4 0.738975 0.575479 0.437022
Si Si5 0.142845 0.047763 0.777751
Si Si6 0.986408 0.678192 0.487615
Si Si7 0.039497 0.129817 0.511173
O O1 0.816459 0.453224 0.653889
O O2 0.627364 0.472947 0.708472
O O3 0.620943 0.571379 0.591978
O O4 0.590687 0.418668 0.544685
O O5 0.966037 0.511087 0.851111
O O6 0.178835 0.524019 0.976645
O O7 0.075790 0.377069 0.950755
O O8 0.232587 0.604084 0.719060
O O9 0.000000 0.625778 0.750000
O O10 0.024929 0.660692 0.591705
O O11 0.682638 0.502164 0.367605
O O12 0.843925 0.641913 0.432243
O O13 0.625682 0.627225 0.451681
O O14 0.000000 0.088847 0.750000
O O15 0.989093 0.776367 0.470298
#
# Coordination Sequence:
#
# PCOD9265747 Si02
#       7
#     8   8   8   8   8   8   8
#     4  10  22  38  60  87 121 168 207 249 311 375
#     4  10  19  36  65  88 115 163 211 245 299 375
#     4  11  21  38  63  94 125 158 207 256 306 366
#     4  10  19  37  60  87 115 157 205 249 302 368
#     4  12  21  37  64  90 120 162 210 250 300 374
#     4  11  21  38  63  91 121 162 204 261 309 363
#     4  10  22  39  58  90 123 156 208 255 306 371
#
# _framework density 20.573104000000001
#
# number of rings (size 3 to 8) (size 9 to 14) (size 15 to 20)
#    0.000    1.429    5.714    1.286    0.000    0.571 
#    2.571    0.000    0.000    0.857    0.000    0.000 
#    0.000    0.000    0.000    0.000    0.000    0.000 
#
# Total GULP energy -155965.926459 kJ/mol
# GULP energy per Si atom -5570.211659 kJ/mol
# Density = 2.052628 g / cm^3
# Si number density = 20.573104 Si / 1000 Ang^3
#
#
#
# Elastic Constant Matrix: (Units=GPa)
#
#
# Indices 1 2 3 4 5 6 
#
# 1 115.2624 18.5657 11.5688 0.0000 12.2310 0.0000
# 2 18.5657 96.1814 -4.4067 0.0000 2.9155 0.0000
# 3 11.5688 -4.4067 57.7909 0.0000 4.5843 0.0000
# 4 0.0000 0.0000 0.0000 4.9566 0.0000 -3.5649
# 5 12.2310 2.9155 4.5843 0.0000 29.9984 0.0000
# 6 0.0000 0.0000 0.0000 -3.5649 0.0000 11.6823
#
#
#
# Elastic Compliance Matrix: (Units=1/GPa)
#
#
# Indices 1 2 3 4 5 6 
#
# 1 0.009510 -0.001813 -0.001770 0.000000 -0.003431 0.000000
# 2 -0.001813 0.010818 0.001227 0.000000 -0.000500 0.000000
# 3 -0.001770 0.001227 0.017921 0.000000 -0.002136 0.000000
# 4 0.000000 0.000000 0.000000 0.258483 0.000000 0.078877
# 5 -0.003431 -0.000500 -0.002136 0.000000 0.035109 0.000000
# 6 0.000000 0.000000 0.000000 0.078877 0.000000 0.109670
#
#
# Mechanical properties :
#
#
# Convention : Reuss Voigt Hill
#
# Bulk Modulus (GPa) = 29.81606 35.63225 32.72416
# Shear Modulus (GPa) = 10.93135 25.56124 18.24630
#
# Velocity S-wave (km/s) = 2.30759 3.52868 2.98132
# Velocity P-wave (km/s) = 4.65018 5.82748 5.27180
#
# Compressibility (1/GPa) = 0.03353897
#
# Stress axis : x y z
#
# Youngs Moduli (GPa) = 105.15798 92.43584 55.80016
#
# Poissons Ratio (x) = 0.16756 0.09875
# Poissons Ratio (y) = 0.19062 -0.06849
# Poissons Ratio (z) = 0.18610 -0.11346
#
# Static dielectric constant tensor:
#      x y z
#    x 1.891120 0.000000 -0.038340 
#    y 0.000000 1.691740 0.000000 
#    z -0.038340 0.000000 1.808220 
# 
# From -- ./inp_files/197938.got.cif
#   From: 2010.05.17/outbox.cif.g08.bks.cpg/sg15_99_cif.got.tgz:197938.got - 2010.06.03 18:47:42.
