data_PCOD9265943
_publ_section_title
;
Structure prediction by ZEFSAII (Michael W. Deem and Ramdas Pophale) SiO2 
 PCOD9265943
Probable space group: C 2/C
;
_chemical_formula_sum "Si O2"
_cell_formula_units_Z 48
_cell_length_a 18.349637
_cell_length_b 11.025454
_cell_length_c 22.943482
_cell_angle_alpha 90.000000
_cell_angle_beta 151.859184
_cell_angle_gamma 90.000000
_cell_volume 2189.243510
_symmetry_space_group_name_H-M "C 2/C"
_symmetry_group_IT_number 15
_symmetry_cell_setting 'monoclinic'
loop_
_space_group_symop_operation_xyz
x,y,z
-x,y,1/2-z
-x,-y,-z
x,-y,1/2+z
1/2+x,1/2+y,z
1/2-x,1/2+y,1/2-z
1/2-x,1/2-y,-z
1/2+x,1/2-y,1/2+z
loop_
_atom_site_type_symbol
_atom_site_label
_atom_site_fract_x
_atom_site_fract_y
_atom_site_fract_z
Si Si1 0.979126 0.702116 0.489884
Si Si2 0.711043 0.149678 0.321486
Si Si3 0.405760 0.593393 0.768880
Si Si4 0.097628 0.510685 0.484889
Si Si5 0.652697 0.561574 0.636309
Si Si6 0.249542 0.892511 0.514859
O O1 0.138986 0.777003 0.598065
O O2 0.994009 0.609749 0.446263
O O3 0.956228 0.620915 0.530905
O O4 0.846179 0.801193 0.386273
O O5 0.591455 0.260113 0.236904
O O6 0.730386 0.106623 0.401621
O O7 0.708016 0.025245 0.283521
O O8 0.269108 0.537033 0.634161
O O9 0.367389 0.566444 0.808936
O O10 0.580459 0.553442 0.880948
O O11 0.125456 0.539536 0.436842
O O12 0.500000 0.500000 0.500000
O O13 0.250000 0.750000 0.500000
#
# Coordination Sequence:
#
# PCOD9265943 Si02
#       6
#     8   8   8   8   8   8
#     4   9  18  38  55  85 117 154 195 241 305 353
#     4  10  22  37  62  87 116 161 196 253 306 361
#     4  11  21  34  60  88 112 156 205 245 297 363
#     4  10  21  33  59  90 119 153 199 253 301 359
#     4  10  19  37  58  83 119 154 198 247 301 361
#     4  12  20  38  56  88 122 150 198 254 303 345
#
# _framework density 21.925383
#
# number of rings (size 3 to 8) (size 9 to 14) (size 15 to 20)
#    0.000    1.667    6.667    0.500    2.333    0.000 
#    3.000    0.833    0.000    0.000    4.333    0.000 
#    0.000    0.000    0.000    0.000    0.000    0.000 
#
# Total GULP energy -134062.734266 kJ/mol
# GULP energy per Si atom -5585.947261 kJ/mol
# Density = 2.187548 g / cm^3
# Si number density = 21.925383 Si / 1000 Ang^3
#
#
#
# Elastic Constant Matrix: (Units=GPa)
#
#
# Indices 1 2 3 4 5 6 
#
# 1 140.0170 70.7200 31.3870 0.0002 -7.5043 0.0001
# 2 70.7200 104.3240 14.0891 0.0006 -4.6257 0.0003
# 3 31.3870 14.0891 62.3691 0.0005 -3.6034 0.0003
# 4 0.0002 0.0006 0.0005 24.8472 0.0001 -7.0723
# 5 -7.5043 -4.6257 -3.6034 0.0001 33.4390 0.0001
# 6 0.0001 0.0003 0.0003 -7.0723 0.0001 38.8357
#
#
#
# Elastic Compliance Matrix: (Units=1/GPa)
#
#
# Indices 1 2 3 4 5 6 
#
# 1 0.011924 -0.007457 -0.004248 0.000000 0.001187 0.000000
# 2 -0.007457 0.014593 0.000479 0.000000 0.000397 0.000000
# 3 -0.004248 0.000479 0.018125 0.000000 0.001066 0.000000
# 4 0.000000 0.000000 0.000000 0.042446 0.000000 0.007730
# 5 0.001187 0.000397 0.001066 0.000000 0.030341 0.000000
# 6 0.000000 0.000000 0.000000 0.007730 0.000000 0.027157
#
#
# Mechanical properties :
#
#
# Convention : Reuss Voigt Hill
#
# Bulk Modulus (GPa) = 45.06368 59.90027 52.48197
# Shear Modulus (GPa) = 28.66396 32.12532 30.39464
#
# Velocity S-wave (km/s) = 3.61964 3.83196 3.72731
# Velocity P-wave (km/s) = 6.16984 6.85259 6.52015
#
# Compressibility (1/GPa) = 0.02219082
#
# Stress axis : x y z
#
# Youngs Moduli (GPa) = 83.86337 68.52402 55.17358
#
# Poissons Ratio (x) = 0.51098 0.23436
# Poissons Ratio (y) = 0.62537 -0.02643
# Poissons Ratio (z) = 0.35623 -0.03282
#
# Static dielectric constant tensor:
#      x y z
#    x 1.821170 0.000000 0.074650 
#    y 0.000000 1.667320 0.000000 
#    z 0.074650 0.000000 1.967910 
# 
# From -- ./inp_files/248449.got.cif
#   From: 2010.05.17/outbox.cif.g08.bks.cpg/sg15_125_cif.got.tgz:248449.got - 2010.06.03 18:47:42.
