data_PCOD9265506
_publ_section_title
;
Structure prediction by ZEFSAII (Michael W. Deem and Ramdas Pophale) SiO2 
 PCOD9265506
Probable space group: C 2/C
;
_chemical_formula_sum "Si O2"
_cell_formula_units_Z 64
_cell_length_a 8.686509
_cell_length_b 21.028222
_cell_length_c 20.299020
_cell_angle_alpha 90.000000
_cell_angle_beta 64.012027
_cell_angle_gamma 90.000000
_cell_volume 3332.940319
_symmetry_space_group_name_H-M "C 2/C"
_symmetry_group_IT_number 15
_symmetry_cell_setting 'monoclinic'
loop_
_space_group_symop_operation_xyz
x,y,z
-x,y,1/2-z
-x,-y,-z
x,-y,1/2+z
1/2+x,1/2+y,z
1/2-x,1/2+y,1/2-z
1/2-x,1/2-y,-z
1/2+x,1/2-y,1/2+z
loop_
_atom_site_type_symbol
_atom_site_label
_atom_site_fract_x
_atom_site_fract_y
_atom_site_fract_z
Si Si1 0.579335 0.283767 0.004503
Si Si2 0.704278 0.375733 0.218723
Si Si3 0.501401 0.827703 0.075189
Si Si4 0.050102 0.433997 0.955318
Si Si5 0.047688 0.974550 0.403840
Si Si6 0.348311 0.490967 0.818108
Si Si7 0.224116 0.156726 0.863574
Si Si8 0.206516 0.078713 0.444550
O O1 0.501894 0.237696 0.964085
O O2 0.629594 0.351379 0.963649
O O3 0.750000 0.250000 0.000000
O O4 0.440161 0.299956 0.086992
O O5 0.500000 0.364729 0.250000
O O6 0.740217 0.452373 0.207228
O O7 0.759292 0.346813 0.279015
O O8 0.814031 0.345482 0.138920
O O9 0.624658 0.825267 0.115229
O O10 0.557051 0.881236 0.011319
O O11 0.221118 0.446190 0.881514
O O12 0.901407 0.418024 0.930727
O O13 0.000000 0.500000 0.000000
O O14 0.172228 0.915675 0.391542
O O15 0.889956 0.965616 0.483539
O O16 0.152068 0.040068 0.390070
O O17 0.953985 0.969048 0.352327
O O18 0.500000 0.456889 0.750000
#
# Coordination Sequence:
#
# PCOD9265506 Si02
#       8
#     8   8   8   8   8   8   8   8
#     4  11  23  42  65  90 129 175 223 261 323 389
#     4  11  21  40  65  94 132 168 212 268 329 390
#     4  12  24  40  65  98 129 170 221 277 315 380
#     4  12  21  36  63  96 130 161 217 263 320 380
#     4  10  19  36  61  91 127 157 201 264 329 372
#     4  11  22  38  59  92 133 172 199 261 335 390
#     4  11  23  39  64  99 130 162 213 275 327 378
#     4  10  21  36  61  95 121 163 208 264 314 379
#
# _framework density 19.202262000000001
#
# number of rings (size 3 to 8) (size 9 to 14) (size 15 to 20)
#    0.000    1.000    6.250    2.250    3.500    0.000 
#    0.000    0.625    2.750    1.500    0.000    0.000 
#    0.000    0.000    0.000    0.000    0.000    0.000 
#
# Total GULP energy -178495.414058 kJ/mol
# GULP energy per Si atom -5577.981689 kJ/mol
# Density = 1.915856 g / cm^3
# Si number density = 19.202262 Si / 1000 Ang^3
#
#
#
# Elastic Constant Matrix: (Units=GPa)
#
#
# Indices 1 2 3 4 5 6 
#
# 1 80.5712 33.3166 33.6105 0.0000 13.7022 0.0000
# 2 33.3166 88.8389 42.9178 0.0000 2.9011 0.0000
# 3 33.6105 42.9178 122.9160 0.0000 -13.4547 0.0000
# 4 0.0000 0.0000 0.0000 23.1810 0.0000 1.6718
# 5 13.7022 2.9011 -13.4547 0.0000 28.6876 0.0000
# 6 0.0000 0.0000 0.0000 1.6718 0.0000 31.5055
#
#
#
# Elastic Compliance Matrix: (Units=1/GPa)
#
#
# Indices 1 2 3 4 5 6 
#
# 1 0.017737 -0.004136 -0.004519 0.000000 -0.010173 0.000000
# 2 -0.004136 0.014905 -0.004240 0.000000 -0.001520 0.000000
# 3 -0.004519 -0.004240 0.011738 0.000000 0.008092 0.000000
# 4 0.000000 0.000000 0.000000 0.043305 0.000000 -0.002298
# 5 -0.010173 -0.001520 0.008092 0.000000 0.043667 0.000000
# 6 0.000000 0.000000 0.000000 -0.002298 0.000000 0.031862
#
#
# Mechanical properties :
#
#
# Convention : Reuss Voigt Hill
#
# Bulk Modulus (GPa) = 53.79479 56.89064 55.34272
# Shear Modulus (GPa) = 25.61461 28.84024 27.22743
#
# Velocity S-wave (km/s) = 3.65627 3.87966 3.76962
# Velocity P-wave (km/s) = 6.77496 7.05411 6.91594
#
# Compressibility (1/GPa) = 0.01858916
#
# Stress axis : x y z
#
# Youngs Moduli (GPa) = 56.37881 67.08982 85.19595
#
# Poissons Ratio (x) = 0.27750 0.38504
# Poissons Ratio (y) = 0.23320 0.36121
# Poissons Ratio (z) = 0.25480 0.28445
#
# Static dielectric constant tensor:
#      x y z
#    x 1.719080 0.000000 0.017400 
#    y 0.000000 1.666170 0.000000 
#    z 0.017400 0.000000 1.743050 
# 
# From -- ./inp_files/233860.got.cif
#   From: 2010.05.17/outbox.cif.g08.bks.cpg/sg15_117_cif.got.tgz:233860.got - 2010.06.03 18:47:42.
