data_PCOD9265683
_publ_section_title
;
Structure prediction by ZEFSAII (Michael W. Deem and Ramdas Pophale) SiO2 
 PCOD9265683
Probable space group: C 2/C
;
_chemical_formula_sum "Si O2"
_cell_formula_units_Z 52
_cell_length_a 11.376516
_cell_length_b 19.394355
_cell_length_c 25.178988
_cell_angle_alpha 90.000000
_cell_angle_beta 28.397689
_cell_angle_gamma 90.000000
_cell_volume 2642.131609
_symmetry_space_group_name_H-M "C 2/C"
_symmetry_group_IT_number 15
_symmetry_cell_setting 'monoclinic'
loop_
_space_group_symop_operation_xyz
x,y,z
-x,y,1/2-z
-x,-y,-z
x,-y,1/2+z
1/2+x,1/2+y,z
1/2-x,1/2+y,1/2-z
1/2-x,1/2-y,-z
1/2+x,1/2-y,1/2+z
loop_
_atom_site_type_symbol
_atom_site_label
_atom_site_fract_x
_atom_site_fract_y
_atom_site_fract_z
Si Si1 0.046489 0.398887 0.026075
Si Si2 0.000000 0.471824 0.750000
Si Si3 0.014605 0.125643 0.876787
Si Si4 0.875958 0.006282 0.855524
Si Si5 0.601219 0.627219 0.457297
Si Si6 0.219675 0.783188 0.120105
Si Si7 0.965099 0.596406 0.843945
O O1 0.010198 0.408449 0.102728
O O2 0.854827 0.445372 0.069049
O O3 0.967043 0.322745 0.040809
O O4 0.305757 0.432918 0.908095
O O5 0.237375 0.424077 0.643394
O O6 0.996981 0.523915 0.701316
O O7 0.874906 0.183918 0.897827
O O8 0.305386 0.143057 0.767455
O O9 0.011073 0.055379 0.843683
O O10 0.893043 0.110621 0.981909
O O11 0.000000 0.994334 0.750000
O O12 0.717992 0.703032 0.406153
O O13 0.311701 0.622885 0.557427
O O14 0.000000 0.797789 0.250000
#
# Coordination Sequence:
#
# PCOD9265683 Si02
#       7
#     8   4   8   8   8   8   8
#     4  10  21  37  64  94 127 165 208 264 309 371
#     4  12  26  42  62  96 130 168 206 260 318 378
#     4  11  21  43  68  92 129 168 208 262 317 377
#     4  10  19  36  63  96 126 164 211 257 312 367
#     4  12  26  42  64  95 127 169 213 257 312 389
#     4  11  22  46  66  88 125 171 214 253 321 380
#     4  12  23  39  65  94 128 164 207 264 322 366
#
# _framework density 19.681080000000001
#
# number of rings (size 3 to 8) (size 9 to 14) (size 15 to 20)
#    0.000    0.923    5.385    2.769    2.154    0.615 
#    0.000    1.538    0.000    0.000    0.000    0.000 
#    0.000    0.000    0.000    0.000    0.000    0.000 
#
# Total GULP energy -144994.542454 kJ/mol
# GULP energy per Si atom -5576.713171 kJ/mol
# Density = 1.963628 g / cm^3
# Si number density = 19.681080 Si / 1000 Ang^3
#
#
#
# Elastic Constant Matrix: (Units=GPa)
#
#
# Indices 1 2 3 4 5 6 
#
# 1 64.2684 19.9605 8.3492 0.1103 -17.7081 -0.0198
# 2 19.9605 84.0317 20.6870 0.0269 -11.6019 -0.0291
# 3 8.3492 20.6870 52.0445 0.0022 -8.2409 -0.0036
# 4 0.1103 0.0269 0.0022 26.6793 -0.0215 2.8091
# 5 -17.7081 -11.6019 -8.2409 -0.0215 24.1215 -0.0126
# 6 -0.0198 -0.0291 -0.0036 2.8091 -0.0126 12.7945
#
#
#
# Elastic Compliance Matrix: (Units=1/GPa)
#
#
# Indices 1 2 3 4 5 6 
#
# 1 0.020162 -0.002954 0.000062 -0.000075 0.013401 0.000054
# 2 -0.002954 0.014175 -0.004677 -0.000002 0.003051 0.000030
# 3 0.000062 -0.004677 0.021899 0.000007 0.005277 -0.000001
# 4 -0.000075 -0.000002 0.000007 0.038370 -0.000024 -0.008424
# 5 0.013401 0.003051 0.005277 -0.000024 0.054566 0.000088
# 6 0.000054 0.000030 -0.000001 -0.008424 0.000088 0.080008
#
#
# Mechanical properties :
#
#
# Convention : Reuss Voigt Hill
#
# Bulk Modulus (GPa) = 24.33278 33.14868 28.74073
# Shear Modulus (GPa) = 19.37855 22.80892 21.09373
#
# Velocity S-wave (km/s) = 3.14128 3.40799 3.27735
# Velocity P-wave (km/s) = 5.05443 5.68906 5.38111
#
# Compressibility (1/GPa) = 0.04109682
#
# Stress axis : x y z
#
# Youngs Moduli (GPa) = 49.59854 70.54830 45.66376
#
# Poissons Ratio (x) = 0.20840 -0.00282
# Poissons Ratio (y) = 0.14652 0.21358
# Poissons Ratio (z) = -0.00306 0.32997
#
# Static dielectric constant tensor:
#      x y z
#    x 1.725530 0.000050 -0.040780 
#    y 0.000050 1.698240 -0.000040 
#    z -0.040780 -0.000040 1.742660 
# 
# From -- ./inp_files/293448.got.cif
#   From: 2010.05.17/outbox.cif.g08.bks.cpg/sg15_147_cif.got.tgz:293448.got - 2010.06.03 18:47:42.
