data_PCOD9265272
_publ_section_title
;
Structure prediction by ZEFSAII (Michael W. Deem and Ramdas Pophale) SiO2 
 PCOD9265272
Probable space group: C 2/C
;
_chemical_formula_sum "Si O2"
_cell_formula_units_Z 60
_cell_length_a 26.661861
_cell_length_b 22.347950
_cell_length_c 10.169392
_cell_angle_alpha 90.000000
_cell_angle_beta 29.675770
_cell_angle_gamma 90.000000
_cell_volume 2999.911353
_symmetry_space_group_name_H-M "C 2/C"
_symmetry_group_IT_number 15
_symmetry_cell_setting 'monoclinic'
loop_
_space_group_symop_operation_xyz
x,y,z
-x,y,1/2-z
-x,-y,-z
x,-y,1/2+z
1/2+x,1/2+y,z
1/2-x,1/2+y,1/2-z
1/2-x,1/2-y,-z
1/2+x,1/2-y,1/2+z
loop_
_atom_site_type_symbol
_atom_site_label
_atom_site_fract_x
_atom_site_fract_y
_atom_site_fract_z
Si Si1 0.402061 0.533342 0.784014
Si Si2 0.000000 0.769958 0.250000
Si Si3 0.681509 0.649959 0.898312
Si Si4 0.705522 0.473434 0.229143
Si Si5 0.609119 0.170036 0.166040
Si Si6 0.554934 0.039175 0.265354
Si Si7 0.087491 0.744585 0.458085
Si Si8 0.480836 0.346150 0.520812
O O1 0.500000 0.500000 0.500000
O O2 0.313657 0.516161 0.881249
O O3 0.440152 0.602084 0.696516
O O4 0.363269 0.513027 0.015807
O O5 0.940534 0.725742 0.291818
O O6 0.059763 0.813514 0.016730
O O7 0.663946 0.594618 0.840727
O O8 0.801231 0.651294 0.636318
O O9 0.656497 0.715245 0.896238
O O10 0.614628 0.634070 0.175661
O O11 0.823765 0.475559 0.001701
O O12 0.544638 0.109836 0.324604
O O13 0.636734 0.195848 0.248437
O O14 0.500000 0.029463 0.250000
O O15 0.500000 0.000000 0.500000
O O16 0.035174 0.796544 0.488985
O O17 0.000000 0.716864 0.750000
#
# Coordination Sequence:
#
# PCOD9265272 Si02
#       8
#     8   4   8   8   8   8   8   8
#     4  12  23  37  61  92 134 165 206 251 312 374
#     4  10  22  40  56  86 120 160 210 250 310 356
#     4  10  19  36  59  87 118 159 204 242 309 367
#     4  11  24  39  62  94 122 169 211 254 315 380
#     4  10  21  38  63  86 117 155 201 257 306 364
#     4  11  24  46  70  90 122 161 210 269 317 362
#     4   9  18  35  59  84 118 153 197 243 305 365
#     4  10  21  35  59  84 123 166 193 248 305 369
#
# _framework density 20.000591
#
# number of rings (size 3 to 8) (size 9 to 14) (size 15 to 20)
#    0.000    1.600    3.333    1.600    1.867    1.067 
#    0.000    0.000   11.733    0.000    0.000    0.000 
#    0.000    0.000    0.000    0.000    0.000    0.000 
#
# Total GULP energy -167041.057062 kJ/mol
# GULP energy per Si atom -5568.035235 kJ/mol
# Density = 1.995507 g / cm^3
# Si number density = 20.000591 Si / 1000 Ang^3
#
#
#
# Elastic Constant Matrix: (Units=GPa)
#
#
# Indices 1 2 3 4 5 6 
#
# 1 61.1671 40.5124 20.7510 0.0000 10.1914 0.0000
# 2 40.5124 61.2181 35.9275 0.0000 6.7652 0.0000
# 3 20.7510 35.9275 84.8475 0.0000 1.4187 0.0000
# 4 0.0000 0.0000 0.0000 29.0651 0.0000 9.1868
# 5 10.1914 6.7652 1.4187 0.0000 21.5305 0.0000
# 6 0.0000 0.0000 0.0000 9.1868 0.0000 16.7794
#
#
#
# Elastic Compliance Matrix: (Units=1/GPa)
#
#
# Indices 1 2 3 4 5 6 
#
# 1 0.030580 -0.019980 0.001120 0.000000 -0.008271 0.000000
# 2 -0.019980 0.035659 -0.010195 0.000000 -0.001075 0.000000
# 3 0.001120 -0.010195 0.015802 0.000000 0.001632 0.000000
# 4 0.000000 0.000000 0.000000 0.041606 0.000000 -0.022779
# 5 -0.008271 -0.001075 0.001632 0.000000 0.050591 0.000000
# 6 0.000000 0.000000 0.000000 -0.022779 0.000000 0.072069
#
#
# Mechanical properties :
#
#
# Convention : Reuss Voigt Hill
#
# Bulk Modulus (GPa) = 41.78812 44.62382 43.20597
# Shear Modulus (GPa) = 16.00539 20.81111 18.40825
#
# Velocity S-wave (km/s) = 2.83193 3.22922 3.03708
# Velocity P-wave (km/s) = 5.62423 6.02192 5.82646
#
# Compressibility (1/GPa) = 0.02393024
#
# Stress axis : x y z
#
# Youngs Moduli (GPa) = 32.70082 28.04304 63.28461
#
# Poissons Ratio (x) = 0.56031 -0.07086
# Poissons Ratio (y) = 0.65337 0.64519
# Poissons Ratio (z) = -0.03662 0.28590
#
# Static dielectric constant tensor:
#      x y z
#    x 2.662900 0.000000 1.399530 
#    y 0.000000 1.748780 0.000000 
#    z 1.399530 0.000000 3.896390 
# 
# From -- ./inp_files/67722.got.cif
#   From: 2010.05.17/outbox.cif.g08.bks.cpg/sg15_34_cif.got.tgz:67722.got - 2010.06.03 18:47:42.
