data_PCOD9265870
_publ_section_title
;
Structure prediction by ZEFSAII (Michael W. Deem and Ramdas Pophale) SiO2 
 PCOD9265870
Probable space group: C 2/C
;
_chemical_formula_sum "Si O2"
_cell_formula_units_Z 48
_cell_length_a 17.610742
_cell_length_b 8.772954
_cell_length_c 21.203983
_cell_angle_alpha 90.000000
_cell_angle_beta 132.671911
_cell_angle_gamma 90.000000
_cell_volume 2408.652779
_symmetry_space_group_name_H-M "C 2/C"
_symmetry_group_IT_number 15
_symmetry_cell_setting 'monoclinic'
loop_
_space_group_symop_operation_xyz
x,y,z
-x,y,1/2-z
-x,-y,-z
x,-y,1/2+z
1/2+x,1/2+y,z
1/2-x,1/2+y,1/2-z
1/2-x,1/2-y,-z
1/2+x,1/2-y,1/2+z
loop_
_atom_site_type_symbol
_atom_site_label
_atom_site_fract_x
_atom_site_fract_y
_atom_site_fract_z
Si Si1 0.412439 0.892418 0.245007
Si Si2 0.076308 0.642157 0.031696
Si Si3 0.314037 0.850216 0.776070
Si Si4 0.635232 0.530611 0.740934
Si Si5 0.037116 0.853275 0.900461
Si Si6 0.701088 0.360347 0.894524
O O1 0.500000 0.965432 0.250000
O O2 0.476518 0.768585 0.321938
O O3 0.328885 0.800942 0.155732
O O4 0.361129 0.014810 0.261136
O O5 0.117721 0.683280 0.123782
O O6 0.179024 0.601094 0.048415
O O7 0.031085 0.783751 0.966783
O O8 0.000000 0.500000 0.000000
O O9 0.312760 0.694096 0.737299
O O10 0.206293 0.910573 0.742518
O O11 0.523169 0.509806 0.646858
O O12 0.638300 0.479796 0.815277
O O13 0.347596 0.636810 0.063423
#
# Coordination Sequence:
#
# PCOD9265870 Si02
#       6
#     8   8   8   8   8   8
#     4   9  18  35  57  79 111 146 195 238 280 333
#     4  11  21  33  59  83 117 151 187 232 287 348
#     4  11  21  36  54  87 110 149 191 235 292 331
#     4  10  21  34  60  79 113 144 196 241 277 337
#     4  10  19  37  56  83 113 149 191 230 285 344
#     4   9  20  36  59  84 108 153 193 234 280 338
#
# _framework density 19.928152999999998
#
# number of rings (size 3 to 8) (size 9 to 14) (size 15 to 20)
#    0.000    2.000    1.667    5.000    2.333    2.000 
#    0.000    0.000    0.000    1.000    0.000    0.000 
#    0.000    0.000    0.000    0.000    0.000    0.000 
#
# Total GULP energy -133860.409708 kJ/mol
# GULP energy per Si atom -5577.517071 kJ/mol
# Density = 1.988280 g / cm^3
# Si number density = 19.928153 Si / 1000 Ang^3
#
#
#
# Elastic Constant Matrix: (Units=GPa)
#
#
# Indices 1 2 3 4 5 6 
#
# 1 115.3302 27.6388 13.1577 0.0000 3.7798 0.0000
# 2 27.6388 53.1489 -8.9265 0.0000 1.8816 0.0000
# 3 13.1577 -8.9265 35.1847 0.0000 4.0122 0.0000
# 4 0.0000 0.0000 0.0000 13.1970 0.0000 3.0510
# 5 3.7798 1.8816 4.0122 0.0000 32.3223 0.0000
# 6 0.0000 0.0000 0.0000 3.0510 0.0000 29.9249
#
#
#
# Elastic Compliance Matrix: (Units=1/GPa)
#
#
# Indices 1 2 3 4 5 6 
#
# 1 0.010924 -0.006640 -0.005749 0.000000 -0.000177 0.000000
# 2 -0.006640 0.023791 0.008712 0.000000 -0.001690 0.000000
# 3 -0.005749 0.008712 0.033233 0.000000 -0.003960 0.000000
# 4 0.000000 0.000000 0.000000 0.077604 0.000000 -0.007912
# 5 -0.000177 -0.001690 -0.003960 0.000000 0.031549 0.000000
# 6 0.000000 0.000000 0.000000 -0.007912 0.000000 0.034224
#
#
# Mechanical properties :
#
#
# Convention : Reuss Voigt Hill
#
# Bulk Modulus (GPa) = 16.50369 29.71155 23.10762
# Shear Modulus (GPa) = 20.93122 26.54178 23.73650
#
# Velocity S-wave (km/s) = 3.24440 3.65344 3.45498
# Velocity P-wave (km/s) = 4.72593 5.72176 5.24752
#
# Compressibility (1/GPa) = 0.06059252
#
# Stress axis : x y z
#
# Youngs Moduli (GPa) = 91.54338 42.03267 30.09032
#
# Poissons Ratio (x) = 0.27910 0.17300
# Poissons Ratio (y) = 0.60785 -0.26214
# Poissons Ratio (z) = 0.52633 -0.36618
#
# Static dielectric constant tensor:
#      x y z
#    x 1.749550 0.000000 0.032450 
#    y 0.000000 1.702720 0.000000 
#    z 0.032450 0.000000 1.752740 
# 
# From -- ./inp_files/279437.got.cif
#   From: 2010.05.17/outbox.cif.g08.bks.cpg/sg15_140_cif.got.tgz:279437.got - 2010.06.03 18:47:42.
