data_PCOD9265866
_publ_section_title
;
Structure prediction by ZEFSAII (Michael W. Deem and Ramdas Pophale) SiO2 
 PCOD9265866
Probable space group: C 2/C
;
_chemical_formula_sum "Si O2"
_cell_formula_units_Z 56
_cell_length_a 13.821305
_cell_length_b 21.049198
_cell_length_c 11.206614
_cell_angle_alpha 90.000000
_cell_angle_beta 73.240421
_cell_angle_gamma 90.000000
_cell_volume 3121.823224
_symmetry_space_group_name_H-M "C 2/C"
_symmetry_group_IT_number 15
_symmetry_cell_setting 'monoclinic'
loop_
_space_group_symop_operation_xyz
x,y,z
-x,y,1/2-z
-x,-y,-z
x,-y,1/2+z
1/2+x,1/2+y,z
1/2-x,1/2+y,1/2-z
1/2-x,1/2-y,-z
1/2+x,1/2-y,1/2+z
loop_
_atom_site_type_symbol
_atom_site_label
_atom_site_fract_x
_atom_site_fract_y
_atom_site_fract_z
Si Si1 0.619987 0.738713 0.196196
Si Si2 0.788802 0.042122 0.331586
Si Si3 0.250376 0.915658 0.034326
Si Si4 0.390954 0.627858 0.114489
Si Si5 0.130826 0.138770 0.002602
Si Si6 0.794542 0.373997 0.267262
Si Si7 0.879397 0.512730 0.288008
O O1 0.500000 0.742642 0.250000
O O2 0.645633 0.686935 0.290342
O O3 0.647277 0.707008 0.059755
O O4 0.660996 0.808615 0.200188
O O5 0.862810 0.064904 0.200204
O O6 0.810163 0.089967 0.431677
O O7 0.677371 0.040895 0.309938
O O8 0.806578 0.972248 0.375650
O O9 0.301478 0.876297 0.121921
O O10 0.173420 0.875670 0.982468
O O11 0.328937 0.950798 0.917778
O O12 0.510595 0.628875 0.051193
O O13 0.179695 0.128203 0.856762
O O14 0.848099 0.438128 0.296579
O O15 0.000000 0.519245 0.250000
#
# Coordination Sequence:
#
# PCOD9265866 Si02
#       7
#     8   8   8   8   8   8   8
#     4   9  19  37  58  78 103 145 190 225 271 320
#     4   9  18  35  54  81 106 143 183 214 267 327
#     4  10  21  37  53  84 112 141 184 220 278 329
#     4   9  20  37  57  77 113 149 175 227 274 319
#     4  10  19  37  56  82 112 142 183 224 272 317
#     4  11  21  34  56  84 109 144 185 228 267 324
#     4  10  21  38  55  76 115 144 177 226 276 322
#
# _framework density 17.938234999999999
#
# number of rings (size 3 to 8) (size 9 to 14) (size 15 to 20)
#    0.000    2.286    1.429    2.143    0.000    4.000 
#    7.714    0.000    3.143    0.000    0.000    0.000 
#    0.000    0.000    0.000    0.000    0.000    0.000 
#
# Total GULP energy -155972.802670 kJ/mol
# GULP energy per Si atom -5570.457238 kJ/mol
# Density = 1.789741 g / cm^3
# Si number density = 17.938235 Si / 1000 Ang^3
#
#
#
# Elastic Constant Matrix: (Units=GPa)
#
#
# Indices 1 2 3 4 5 6 
#
# 1 99.0774 44.6026 43.5902 0.0000 0.3632 0.0000
# 2 44.6026 55.3898 13.2707 0.0000 -8.7388 0.0000
# 3 43.5902 13.2707 73.4640 0.0000 6.3033 0.0000
# 4 0.0000 0.0000 0.0000 16.5062 0.0000 0.3574
# 5 0.3632 -8.7388 6.3033 0.0000 16.6392 0.0000
# 6 0.0000 0.0000 0.0000 0.3574 0.0000 21.4673
#
#
#
# Elastic Compliance Matrix: (Units=1/GPa)
#
#
# Indices 1 2 3 4 5 6 
#
# 1 0.021316 -0.015741 -0.009360 0.000000 -0.005187 0.000000
# 2 -0.015741 0.032931 0.001941 0.000000 0.016903 0.000000
# 3 -0.009360 0.001941 0.019339 0.000000 -0.006102 0.000000
# 4 0.000000 0.000000 0.000000 0.060605 0.000000 -0.001009
# 5 -0.005187 0.016903 -0.006102 0.000000 0.071402 0.000000
# 6 0.000000 0.000000 0.000000 -0.001009 0.000000 0.046599
#
#
# Mechanical properties :
#
#
# Convention : Reuss Voigt Hill
#
# Bulk Modulus (GPa) = 36.67479 47.87312 42.27395
# Shear Modulus (GPa) = 16.25493 19.35373 17.80433
#
# Velocity S-wave (km/s) = 3.01352 3.28824 3.15387
# Velocity P-wave (km/s) = 5.70945 6.41579 6.07290
#
# Compressibility (1/GPa) = 0.02726669
#
# Stress axis : x y z
#
# Youngs Moduli (GPa) = 46.91312 30.36672 51.70997
#
# Poissons Ratio (x) = 0.47799 0.48398
# Poissons Ratio (y) = 0.73844 -0.10035
# Poissons Ratio (z) = 0.43908 -0.05893
#
# Static dielectric constant tensor:
#      x y z
#    x 1.612030 0.000000 0.016040 
#    y 0.000000 1.628360 0.000000 
#    z 0.016040 0.000000 1.638140 
# 
# From -- ./inp_files/89057.got.cif
#   From: 2010.05.17/outbox.cif.g08.bks.cpg/sg15_45_cif.got.tgz:89057.got - 2010.06.03 18:47:42.
