data_PCOD9265333
_publ_section_title
;
Structure prediction by ZEFSAII (Michael W. Deem and Ramdas Pophale) SiO2 
 PCOD9265333
Probable space group: C 2/C
;
_chemical_formula_sum "Si O2"
_cell_formula_units_Z 44
_cell_length_a 6.770191
_cell_length_b 17.117837
_cell_length_c 18.461955
_cell_angle_alpha 90.000000
_cell_angle_beta 122.322890
_cell_angle_gamma 90.000000
_cell_volume 1808.044114
_symmetry_space_group_name_H-M "C 2/C"
_symmetry_group_IT_number 15
_symmetry_cell_setting 'monoclinic'
loop_
_space_group_symop_operation_xyz
x,y,z
-x,y,1/2-z
-x,-y,-z
x,-y,1/2+z
1/2+x,1/2+y,z
1/2-x,1/2+y,1/2-z
1/2-x,1/2-y,-z
1/2+x,1/2-y,1/2+z
loop_
_atom_site_type_symbol
_atom_site_label
_atom_site_fract_x
_atom_site_fract_y
_atom_site_fract_z
Si Si1 0.627242 0.416211 0.026496
Si Si2 0.702058 0.663131 0.926225
Si Si3 0.828265 0.546191 0.840782
Si Si4 0.000000 0.465708 0.750000
Si Si5 0.029410 0.315281 0.836225
Si Si6 0.294665 0.117604 0.410711
O O1 0.506878 0.363289 0.063115
O O2 0.897459 0.432585 0.098379
O O3 0.500000 0.500000 0.000000
O O4 0.631612 0.374276 0.948385
O O5 0.690828 0.617517 0.847857
O O6 0.693869 0.754994 0.909243
O O7 0.941834 0.632993 0.009221
O O8 0.772680 0.471060 0.879439
O O9 0.809402 0.517123 0.754291
O O10 0.099586 0.404939 0.829862
O O11 0.000000 0.282325 0.750000
O O12 0.796263 0.327693 0.839642
#
# Coordination Sequence:
#
# PCOD9265333 Si02
#       6
#     8   8   8   4   8   8
#     4  11  19  31  59  91 112 136 197 253 286 335
#     4  11  20  34  62  87 116 146 196 249 292 340
#     4  10  19  36  60  84 112 152 196 240 289 349
#     4   8  20  40  58  76 120 166 196 230 294 364
#     4   9  21  37  57  80 118 162 194 230 299 360
#     4  10  19  37  58  84 113 153 189 240 296 351
#
# _framework density 24.335691000000001
#
# number of rings (size 3 to 8) (size 9 to 14) (size 15 to 20)
#    0.545    1.455    3.636    1.636    0.000    2.182 
#    0.000    0.000    0.000   12.000    0.000    0.000 
#    0.000    0.000    0.000    0.000    0.000    0.000 
#
# Total GULP energy -122831.155263 kJ/mol
# GULP energy per Si atom -5583.234330 kJ/mol
# Density = 2.428030 g / cm^3
# Si number density = 24.335691 Si / 1000 Ang^3
#
#
#
# Elastic Constant Matrix: (Units=GPa)
#
#
# Indices 1 2 3 4 5 6 
#
# 1 139.9239 41.7170 53.2177 0.0000 -40.5752 0.0000
# 2 41.7170 108.1931 35.8985 0.0000 -29.5076 0.0000
# 3 53.2177 35.8985 85.2525 0.0000 -38.3620 0.0000
# 4 0.0000 0.0000 0.0000 25.7566 0.0000 -1.2848
# 5 -40.5752 -29.5076 -38.3620 0.0000 52.8917 0.0000
# 6 0.0000 0.0000 0.0000 -1.2848 0.0000 23.6476
#
#
#
# Elastic Compliance Matrix: (Units=1/GPa)
#
#
# Indices 1 2 3 4 5 6 
#
# 1 0.010309 -0.001531 -0.003884 0.000000 0.004238 0.000000
# 2 -0.001531 0.011582 -0.002290 0.000000 0.003626 0.000000
# 3 -0.003884 -0.002290 0.019600 0.000000 0.009959 0.000000
# 4 0.000000 0.000000 0.000000 0.038931 0.000000 0.002115
# 5 0.004238 0.003626 0.009959 0.000000 0.031404 0.000000
# 6 0.000000 0.000000 0.000000 0.002115 0.000000 0.042402
#
#
# Mechanical properties :
#
#
# Convention : Reuss Voigt Hill
#
# Bulk Modulus (GPa) = 38.34028 66.11510 52.22769
# Shear Modulus (GPa) = 28.03803 33.96159 30.99981
#
# Velocity S-wave (km/s) = 3.39800 3.73975 3.57296
# Velocity P-wave (km/s) = 5.58427 6.77308 6.20720
#
# Compressibility (1/GPa) = 0.02608223
#
# Stress axis : x y z
#
# Youngs Moduli (GPa) = 97.00184 86.34377 51.02114
#
# Poissons Ratio (x) = 0.13215 0.19817
# Poissons Ratio (y) = 0.14846 0.11682
# Poissons Ratio (z) = 0.37675 0.19769
#
# Static dielectric constant tensor:
#      x y z
#    x 1.915020 0.000000 -0.016540 
#    y 0.000000 1.870000 0.000000 
#    z -0.016540 0.000000 2.140510 
# 
# From -- ./inp_files/227021.got.cif
#   From: 2010.05.17/outbox.cif.g08.bks.cpg/sg15_114_cif.got.tgz:227021.got - 2010.06.03 18:47:42.
