data_PCOD9265504
_publ_section_title
;
Structure prediction by ZEFSAII (Michael W. Deem and Ramdas Pophale) SiO2 
 PCOD9265504
Probable space group: C 2/C
;
_chemical_formula_sum "Si O2"
_cell_formula_units_Z 56
_cell_length_a 11.977228
_cell_length_b 10.185883
_cell_length_c 24.035843
_cell_angle_alpha 90.000000
_cell_angle_beta 128.334900
_cell_angle_gamma 90.000000
_cell_volume 2300.123881
_symmetry_space_group_name_H-M "C 2/C"
_symmetry_group_IT_number 15
_symmetry_cell_setting 'monoclinic'
loop_
_space_group_symop_operation_xyz
x,y,z
-x,y,1/2-z
-x,-y,-z
x,-y,1/2+z
1/2+x,1/2+y,z
1/2-x,1/2+y,1/2-z
1/2-x,1/2-y,-z
1/2+x,1/2-y,1/2+z
loop_
_atom_site_type_symbol
_atom_site_label
_atom_site_fract_x
_atom_site_fract_y
_atom_site_fract_z
Si Si1 0.157016 0.751758 0.723793
Si Si2 0.862324 0.339301 0.601540
Si Si3 0.905639 0.668003 0.474402
Si Si4 0.078578 0.536335 0.619120
Si Si5 0.668722 0.204074 0.846749
Si Si6 0.075382 0.119731 0.955481
Si Si7 0.308302 0.438723 0.860177
O O1 0.227412 0.762327 0.806219
O O2 0.178998 0.627170 0.689069
O O3 0.991836 0.736098 0.689333
O O4 0.183299 0.883561 0.698393
O O5 0.994568 0.436645 0.633903
O O6 0.915260 0.195429 0.600021
O O7 0.738887 0.401320 0.522973
O O8 0.769201 0.326602 0.628112
O O9 0.965427 0.632188 0.552851
O O10 0.761186 0.748951 0.426888
O O11 0.877086 0.545185 0.423177
O O12 0.016258 0.765490 0.477753
O O13 0.698811 0.053862 0.841412
O O14 0.964090 0.999536 0.923069
#
# Coordination Sequence:
#
# PCOD9265504 Si02
#       7
#     8   8   8   8   8   8   8
#     4  11  24  41  63  91 121 165 210 249 311 375
#     4  10  19  36  61  91 125 162 194 260 307 363
#     4   9  20  38  61  90 126 163 201 264 312 359
#     4  10  20  36  63  94 122 163 208 253 316 369
#     4  10  24  44  60  89 127 161 209 259 300 375
#     4   9  20  36  57  91 128 153 208 245 309 374
#     4  11  22  41  62  87 120 167 199 255 307 361
#
# _framework density 24.346515
#
# number of rings (size 3 to 8) (size 9 to 14) (size 15 to 20)
#    0.000    2.000    1.429    1.286    4.000    2.857 
#    0.000    0.000    0.000    0.000    0.000    0.000 
#    0.000    0.000    0.000    0.000    0.000    0.000 
#
# Total GULP energy -156137.306747 kJ/mol
# GULP energy per Si atom -5576.332384 kJ/mol
# Density = 2.429110 g / cm^3
# Si number density = 24.346515 Si / 1000 Ang^3
#
#
#
# Elastic Constant Matrix: (Units=GPa)
#
#
# Indices 1 2 3 4 5 6 
#
# 1 88.0857 21.6790 0.3410 0.0000 -5.2229 0.0000
# 2 21.6790 49.5773 15.0834 0.0000 -6.8750 0.0000
# 3 0.3410 15.0834 57.5946 0.0000 -11.7626 0.0000
# 4 0.0000 0.0000 0.0000 35.0235 0.0000 -7.1636
# 5 -5.2229 -6.8750 -11.7626 0.0000 28.0457 0.0000
# 6 0.0000 0.0000 0.0000 -7.1636 0.0000 7.5431
#
#
#
# Elastic Compliance Matrix: (Units=1/GPa)
#
#
# Indices 1 2 3 4 5 6 
#
# 1 0.012916 -0.005969 0.001836 0.000000 0.001712 0.000000
# 2 -0.005969 0.024949 -0.005989 0.000000 0.002492 0.000000
# 3 0.001836 -0.005989 0.020441 0.000000 0.007447 0.000000
# 4 0.000000 0.000000 0.000000 0.035435 0.000000 0.033653
# 5 0.001712 0.002492 0.007447 0.000000 0.039709 0.000000
# 6 0.000000 0.000000 0.000000 0.033653 0.000000 0.164531
#
#
# Mechanical properties :
#
#
# Convention : Reuss Voigt Hill
#
# Bulk Modulus (GPa) = 26.27313 29.94051 28.10682
# Shear Modulus (GPa) = 15.10970 24.66607 19.88789
#
# Velocity S-wave (km/s) = 2.49391 3.18642 2.86119
# Velocity P-wave (km/s) = 4.37122 5.08547 4.74181
#
# Compressibility (1/GPa) = 0.03806169
#
# Stress axis : x y z
#
# Youngs Moduli (GPa) = 77.42278 40.08255 48.92047
#
# Poissons Ratio (x) = 0.23926 -0.08984
# Poissons Ratio (y) = 0.46215 0.29301
# Poissons Ratio (z) = -0.14219 0.24007
#
# Static dielectric constant tensor:
#      x y z
#    x 1.915020 0.000000 -0.033540 
#    y 0.000000 2.080280 0.000000 
#    z -0.033540 0.000000 2.059340 
# 
# From -- ./inp_files/237625.got.cif
#   From: 2010.05.17/outbox.cif.g08.bks.cpg/sg15_119_cif.got.tgz:237625.got - 2010.06.03 18:47:42.
