data_PCOD9265532
_publ_section_title
;
Structure prediction by ZEFSAII (Michael W. Deem and Ramdas Pophale) SiO2 
 PCOD9265532
Probable space group: C 2/C
;
_chemical_formula_sum "Si O2"
_cell_formula_units_Z 36
_cell_length_a 9.994100
_cell_length_b 29.112075
_cell_length_c 5.687171
_cell_angle_alpha 90.000000
_cell_angle_beta 68.877234
_cell_angle_gamma 90.000000
_cell_volume 1543.499621
_symmetry_space_group_name_H-M "C 2/C"
_symmetry_group_IT_number 15
_symmetry_cell_setting 'monoclinic'
loop_
_space_group_symop_operation_xyz
x,y,z
-x,y,1/2-z
-x,-y,-z
x,-y,1/2+z
1/2+x,1/2+y,z
1/2-x,1/2+y,1/2-z
1/2-x,1/2-y,-z
1/2+x,1/2-y,1/2+z
loop_
_atom_site_type_symbol
_atom_site_label
_atom_site_fract_x
_atom_site_fract_y
_atom_site_fract_z
Si Si1 0.500000 0.695073 0.250000
Si Si2 0.500000 0.164261 0.750000
Si Si3 0.500000 0.298214 0.250000
Si Si4 0.324298 0.977406 0.867342
Si Si5 0.800386 0.715537 0.240027
Si Si6 0.342819 0.877199 0.967460
O O1 0.482109 0.673553 0.520126
O O2 0.650803 0.721359 0.195869
O O3 0.573689 0.196147 0.510400
O O4 0.378032 0.131634 0.717600
O O5 0.369747 0.260441 0.314725
O O6 0.500000 0.978430 0.750000
O O7 0.272960 0.925073 0.944524
O O8 0.281469 0.995232 0.633906
O O9 0.777700 0.669866 0.414087
O O10 0.500000 0.880114 0.750000
#
# Coordination Sequence:
#
# PCOD9265532 Si02
#       6
#     4   4   4   8   8   8
#     4  12  29  40  64  90 120 148 202 256 298 340
#     4  10  19  36  62  81 118 156 208 228 297 350
#     4  12  24  44  62  87 118 158 192 248 307 356
#     4   9  18  28  45  79 117 148 184 235 287 334
#     4  11  23  41  61  88 116 159 201 242 294 359
#     4   9  19  32  56  79 115 160 194 234 288 355
#
# _framework density 23.323623000000001
#
# number of rings (size 3 to 8) (size 9 to 14) (size 15 to 20)
#    0.000    1.778    3.333    2.000   14.000    0.000 
#    0.000    0.000    0.000    0.000    0.000    1.556 
#    0.000    0.000    0.000    0.000    0.000    0.000 
#
# Total GULP energy -100289.742872 kJ/mol
# GULP energy per Si atom -5571.652382 kJ/mol
# Density = 2.327054 g / cm^3
# Si number density = 23.323623 Si / 1000 Ang^3
#
#
#
# Elastic Constant Matrix: (Units=GPa)
#
#
# Indices 1 2 3 4 5 6 
#
# 1 93.1905 18.3460 9.1416 0.0000 7.6037 0.0000
# 2 18.3460 162.9711 61.0154 0.0000 20.9283 0.0000
# 3 9.1416 61.0154 139.9400 0.0000 52.9635 0.0000
# 4 0.0000 0.0000 0.0000 20.2799 0.0000 0.3318
# 5 7.6037 20.9283 52.9635 0.0000 38.0447 0.0000
# 6 0.0000 0.0000 0.0000 0.3318 0.0000 15.7557
#
#
#
# Elastic Compliance Matrix: (Units=1/GPa)
#
#
# Indices 1 2 3 4 5 6 
#
# 1 0.011109 -0.001213 0.000826 0.000000 -0.002703 0.000000
# 2 -0.001213 0.007480 -0.003628 0.000000 0.001179 0.000000
# 3 0.000826 -0.003628 0.016869 0.000000 -0.021653 0.000000
# 4 0.000000 0.000000 0.000000 0.049327 0.000000 -0.001039
# 5 -0.002703 0.001179 -0.021653 0.000000 0.056321 0.000000
# 6 0.000000 0.000000 0.000000 -0.001039 0.000000 0.063491
#
#
# Mechanical properties :
#
#
# Convention : Reuss Voigt Hill
#
# Bulk Modulus (GPa) = 36.45846 63.67863 50.06855
# Shear Modulus (GPa) = 22.54603 35.32263 28.93433
#
# Velocity S-wave (km/s) = 3.11249 3.89582 3.52598
# Velocity P-wave (km/s) = 5.34624 6.89914 6.17172
#
# Compressibility (1/GPa) = 0.02742848
#
# Stress axis : x y z
#
# Youngs Moduli (GPa) = 90.01728 133.69829 59.28032
#
# Poissons Ratio (x) = 0.16214 -0.04898
# Poissons Ratio (y) = 0.10917 0.21507
# Poissons Ratio (z) = -0.07437 0.48506
#
# Static dielectric constant tensor:
#      x y z
#    x 1.955780 0.000000 -0.030670 
#    y 0.000000 1.871490 0.000000 
#    z -0.030670 0.000000 2.191400 
# 
# From -- ./inp_files/5438.got.cif
#   From: 2010.05.17/outbox.cif.g08.bks.cpg/sg15_3_cif.got.tgz:5438.got - 2010.06.03 18:47:42.
