data_PCOD9265015
_publ_section_title
;
Structure prediction by ZEFSAII (Michael W. Deem and Ramdas Pophale) SiO2 
 PCOD9265015
Probable space group: C 2/C
;
_chemical_formula_sum "Si O2"
_cell_formula_units_Z 52
_cell_length_a 16.550946
_cell_length_b 23.533051
_cell_length_c 11.922740
_cell_angle_alpha 90.000000
_cell_angle_beta 142.150481
_cell_angle_gamma 90.000000
_cell_volume 2849.411772
_symmetry_space_group_name_H-M "C 2/C"
_symmetry_group_IT_number 15
_symmetry_cell_setting 'monoclinic'
loop_
_space_group_symop_operation_xyz
x,y,z
-x,y,1/2-z
-x,-y,-z
x,-y,1/2+z
1/2+x,1/2+y,z
1/2-x,1/2+y,1/2-z
1/2-x,1/2-y,-z
1/2+x,1/2-y,1/2+z
loop_
_atom_site_type_symbol
_atom_site_label
_atom_site_fract_x
_atom_site_fract_y
_atom_site_fract_z
Si Si1 0.168882 0.373827 0.047415
Si Si2 0.000000 0.695518 0.750000
Si Si3 0.575745 0.001297 0.457969
Si Si4 0.189811 0.378442 0.593557
Si Si5 0.876744 0.667051 0.250317
Si Si6 0.353382 0.719331 0.831713
Si Si7 0.640586 0.719258 0.257940
O O1 0.290883 0.340891 0.233839
O O2 0.158629 0.440773 0.053751
O O3 0.166013 0.358922 0.913272
O O4 0.030298 0.347651 0.938398
O O5 0.941078 0.654657 0.591475
O O6 0.889590 0.737615 0.675009
O O7 0.500000 0.003618 0.250000
O O8 0.663450 0.944437 0.547994
O O9 0.500000 0.000000 0.500000
O O10 0.203559 0.363495 0.739174
O O11 0.306198 0.344154 0.658750
O O12 0.860961 0.734913 0.238951
O O13 0.249726 0.750109 0.800860
O O14 0.498933 0.714889 0.041740
#
# Coordination Sequence:
#
# PCOD9265015 Si02
#       7
#     8   4   8   8   8   8   8
#     4  11  20  36  61  89 119 159 204 254 302 364
#     4  12  20  38  62  90 122 156 202 260 322 368
#     4  12  23  40  64  90 127 167 216 262 301 373
#     4  11  22  37  58  90 120 158 205 257 309 363
#     4  10  19  36  56  88 124 145 201 253 308 362
#     4  11  21  38  59  91 123 161 194 260 314 374
#     4  11  23  37  60  90 129 154 204 255 316 381
#
# _framework density 18.249381
#
# number of rings (size 3 to 8) (size 9 to 14) (size 15 to 20)
#    0.000    0.923    8.462    0.923    0.000    0.000 
#    0.000    0.769    0.000    0.000    0.000    0.000 
#    0.000    0.000    0.000    0.000    0.000    0.000 
#
# Total GULP energy -144845.505439 kJ/mol
# GULP energy per Si atom -5570.980978 kJ/mol
# Density = 1.820784 g / cm^3
# Si number density = 18.249381 Si / 1000 Ang^3
#
#
#
# Elastic Constant Matrix: (Units=GPa)
#
#
# Indices 1 2 3 4 5 6 
#
# 1 66.7495 41.2369 21.6929 0.0000 -5.2311 0.0000
# 2 41.2369 193.9933 48.2981 0.0000 3.3619 0.0000
# 3 21.6929 48.2981 84.2372 0.0000 2.8289 0.0000
# 4 0.0000 0.0000 0.0000 38.3568 0.0000 7.7963
# 5 -5.2311 3.3619 2.8289 0.0000 26.1170 0.0000
# 6 0.0000 0.0000 0.0000 7.7963 0.0000 25.1078
#
#
#
# Elastic Compliance Matrix: (Units=1/GPa)
#
#
# Indices 1 2 3 4 5 6 
#
# 1 0.018292 -0.003214 -0.003016 0.000000 0.004404 0.000000
# 2 -0.003214 0.006582 -0.002907 0.000000 -0.001176 0.000000
# 3 -0.003016 -0.002907 0.014375 0.000000 -0.001787 0.000000
# 4 0.000000 0.000000 0.000000 0.027827 0.000000 -0.008641
# 5 0.004404 -0.001176 -0.001787 0.000000 0.039516 0.000000
# 6 0.000000 0.000000 0.000000 -0.008641 0.000000 0.042511
#
#
# Mechanical properties :
#
#
# Convention : Reuss Voigt Hill
#
# Bulk Modulus (GPa) = 47.67386 63.04840 55.36113
# Shear Modulus (GPa) = 28.67491 33.49979 31.08735
#
# Velocity S-wave (km/s) = 3.96824 4.28912 4.13179
# Velocity P-wave (km/s) = 6.86849 7.69103 7.29137
#
# Compressibility (1/GPa) = 0.02097586
#
# Stress axis : x y z
#
# Youngs Moduli (GPa) = 54.66837 151.92856 69.56762
#
# Poissons Ratio (x) = 0.48827 0.20981
# Poissons Ratio (y) = 0.17569 0.20222
# Poissons Ratio (z) = 0.16487 0.44162
#
# Static dielectric constant tensor:
#      x y z
#    x 1.687580 0.000000 -0.020580 
#    y 0.000000 1.627900 0.000000 
#    z -0.020580 0.000000 1.670040 
# 
# From -- ./inp_files/100706.got.cif
#   From: 2010.05.17/outbox.cif.g08.bks.cpg/sg15_51_cif.got.tgz:100706.got - 2010.06.03 18:47:42.
