data_PCOD9265768
_publ_section_title
;
Structure prediction by ZEFSAII (Michael W. Deem and Ramdas Pophale) SiO2 
 PCOD9265768
Probable space group: C 2/C
;
_chemical_formula_sum "Si O2"
_cell_formula_units_Z 40
_cell_length_a 10.898848
_cell_length_b 18.424878
_cell_length_c 8.315761
_cell_angle_alpha 90.000000
_cell_angle_beta 87.339478
_cell_angle_gamma 90.000000
_cell_volume 1668.087527
_symmetry_space_group_name_H-M "C 2/C"
_symmetry_group_IT_number 15
_symmetry_cell_setting 'monoclinic'
loop_
_space_group_symop_operation_xyz
x,y,z
-x,y,1/2-z
-x,-y,-z
x,-y,1/2+z
1/2+x,1/2+y,z
1/2-x,1/2+y,1/2-z
1/2-x,1/2-y,-z
1/2+x,1/2-y,1/2+z
loop_
_atom_site_type_symbol
_atom_site_label
_atom_site_fract_x
_atom_site_fract_y
_atom_site_fract_z
Si Si1 0.863847 0.583811 0.706671
Si Si2 0.306983 0.354401 0.843391
Si Si3 0.238945 0.995248 0.493056
Si Si4 0.722746 0.279172 0.181005
Si Si5 0.943962 0.880774 0.496443
O O1 0.836442 0.558069 0.528006
O O2 0.833713 0.668162 0.726028
O O3 0.000000 0.566853 0.750000
O O4 0.765439 0.540090 0.820084
O O5 0.234702 0.426797 0.892699
O O6 0.221878 0.284522 0.813817
O O7 0.376724 0.362903 0.669735
O O8 0.415064 0.359768 0.972672
O O9 0.109020 0.036887 0.526638
O O10 0.750000 0.250000 0.000000
O O11 0.610119 0.332591 0.145167
#
# Coordination Sequence:
#
# PCOD9265768 Si02
#       5
#     8   8   8   8   8
#     4  11  24  40  64  85 121 165 204 252 309 356
#     4  10  19  36  66  89 121 159 198 247 308 360
#     4  11  21  41  60  94 124 153 210 255 296 368
#     4   9  21  38  61  87 122 158 201 246 296 374
#     4   9  19  36  61  93 121 160 196 246 308 358
#
# _framework density 23.979557
#
# number of rings (size 3 to 8) (size 9 to 14) (size 15 to 20)
#    0.000    2.000    2.000    1.200    5.600    0.800 
#    0.000    0.000    4.400    0.000    0.000    0.000 
#    0.000    0.000    0.000    0.000    0.000    0.000 
#
# Total GULP energy -111427.905731 kJ/mol
# GULP energy per Si atom -5571.395287 kJ/mol
# Density = 2.392498 g / cm^3
# Si number density = 23.979557 Si / 1000 Ang^3
#
#
#
# Elastic Constant Matrix: (Units=GPa)
#
#
# Indices 1 2 3 4 5 6 
#
# 1 67.4967 25.3978 24.8872 0.0000 29.5778 0.0000
# 2 25.3978 149.3295 45.2767 0.0000 17.1028 0.0000
# 3 24.8872 45.2767 90.6006 0.0000 20.4954 0.0000
# 4 0.0000 0.0000 0.0000 57.4459 0.0000 19.3624
# 5 29.5778 17.1028 20.4954 0.0000 37.8844 0.0000
# 6 0.0000 0.0000 0.0000 19.3624 0.0000 -38.4752
#
#
#
# Elastic Compliance Matrix: (Units=1/GPa)
#
#
# Indices 1 2 3 4 5 6 
#
# 1 0.023311 -0.001492 -0.001929 0.000000 -0.016483 0.000000
# 2 -0.001492 0.008077 -0.003493 0.000000 -0.000592 0.000000
# 3 -0.001929 -0.003493 0.014375 0.000000 -0.004694 0.000000
# 4 0.000000 0.000000 0.000000 0.014883 0.000000 0.007490
# 5 -0.016483 -0.000592 -0.004694 0.000000 0.042071 0.000000
# 6 0.000000 0.000000 0.000000 0.007490 0.000000 -0.022222
#
#
# Mechanical properties :
#
#
# Convention : Reuss Voigt Hill
#
# Bulk Modulus (GPa) = 31.31343 55.39449 43.35396
# Shear Modulus (GPa) = 47.63334 25.49536 36.56435
#
# Velocity S-wave (km/s) = 4.46176 3.26423 3.90912
# Velocity P-wave (km/s) = 6.29522 6.11210 6.20434
#
# Compressibility (1/GPa) = 0.03193518
#
# Stress axis : x y z
#
# Youngs Moduli (GPa) = 42.89801 123.80598 69.56718
#
# Poissons Ratio (x) = 0.18473 0.13420
# Poissons Ratio (y) = 0.06401 0.24298
# Poissons Ratio (z) = 0.08275 0.43242
#
# Static dielectric constant tensor:
#      x y z
#    x 1.954140 0.000000 0.010670 
#    y 0.000000 2.020410 0.000000 
#    z 0.010670 0.000000 2.023690 
# 
# From -- ./inp_files/29057.got.cif
#   From: 2010.05.17/outbox.cif.g08.bks.cpg/sg15_15_cif.got.tgz:29057.got - 2010.06.03 18:47:42.
