data_PCOD9265317
_publ_section_title
;
Structure prediction by ZEFSAII (Michael W. Deem and Ramdas Pophale) SiO2 
 PCOD9265317
Probable space group: C 2/C
;
_chemical_formula_sum "Si O2"
_cell_formula_units_Z 52
_cell_length_a 11.504421
_cell_length_b 14.669359
_cell_length_c 14.271551
_cell_angle_alpha 90.000000
_cell_angle_beta 87.043658
_cell_angle_gamma 90.000000
_cell_volume 2405.296946
_symmetry_space_group_name_H-M "C 2/C"
_symmetry_group_IT_number 15
_symmetry_cell_setting 'monoclinic'
loop_
_space_group_symop_operation_xyz
x,y,z
-x,y,1/2-z
-x,-y,-z
x,-y,1/2+z
1/2+x,1/2+y,z
1/2-x,1/2+y,1/2-z
1/2-x,1/2-y,-z
1/2+x,1/2-y,1/2+z
loop_
_atom_site_type_symbol
_atom_site_label
_atom_site_fract_x
_atom_site_fract_y
_atom_site_fract_z
Si Si1 0.235415 0.951608 0.798190
Si Si2 0.739564 0.664351 0.740214
Si Si3 0.431328 0.294971 0.654468
Si Si4 0.965498 0.510968 0.861670
Si Si5 0.356042 0.871908 0.617874
Si Si6 0.137478 0.701815 0.575595
Si Si7 0.000000 0.251933 0.750000
O O1 0.131852 0.893287 0.848551
O O2 0.265607 0.896103 0.702621
O O3 0.229896 0.056148 0.761686
O O4 0.345222 0.954208 0.864364
O O5 0.834475 0.713270 0.668091
O O6 0.226004 0.705309 0.658981
O O7 0.611934 0.695068 0.715534
O O8 0.500000 0.291706 0.750000
O O9 0.535981 0.277689 0.576672
O O10 0.000000 0.514181 0.750000
O O11 0.073081 0.464353 0.908878
O O12 0.938165 0.612079 0.893736
O O13 0.308842 0.826582 0.526092
O O14 0.454325 0.812526 0.666021
#
# Coordination Sequence:
#
# PCOD9265317 Si02
#       7
#     8   8   8   8   8   8   4
#     4  10  19  36  60  81 116 158 196 227 292 358
#     4  10  22  39  59  85 117 158 195 236 292 355
#     4  10  19  37  56  85 115 151 191 240 294 347
#     4   9  16  33  57  86 119 151 190 235 289 346
#     4  11  19  36  62  88 114 156 198 243 285 347
#     4  10  21  34  60  92 119 143 198 253 287 330
#     4  12  22  40  58  80 120 158 196 234 298 358
#
# _framework density 21.618953000000001
#
# number of rings (size 3 to 8) (size 9 to 14) (size 15 to 20)
#    0.000    1.846    3.846    3.692    1.077    0.615 
#    0.000    6.154    0.000    1.846    0.000    0.000 
#    0.000    0.000    0.000    0.000    0.000    0.000 
#
# Total GULP energy -144968.396601 kJ/mol
# GULP energy per Si atom -5575.707562 kJ/mol
# Density = 2.156975 g / cm^3
# Si number density = 21.618953 Si / 1000 Ang^3
#
#
#
# Elastic Constant Matrix: (Units=GPa)
#
#
# Indices 1 2 3 4 5 6 
#
# 1 76.2743 22.9865 -1.9542 0.0000 -8.1495 0.0000
# 2 22.9865 106.1916 -3.5676 0.0000 -1.4685 0.0000
# 3 -1.9542 -3.5676 28.8911 0.0000 -2.6428 0.0000
# 4 0.0000 0.0000 0.0000 15.8901 0.0000 -4.9655
# 5 -8.1495 -1.4685 -2.6428 0.0000 21.3752 0.0000
# 6 0.0000 0.0000 0.0000 -4.9655 0.0000 44.1367
#
#
#
# Elastic Compliance Matrix: (Units=1/GPa)
#
#
# Indices 1 2 3 4 5 6 
#
# 1 0.014650 -0.003057 0.001118 0.000000 0.005513 0.000000
# 2 -0.003057 0.010108 0.001010 0.000000 -0.000346 0.000000
# 3 0.001118 0.001010 0.035257 0.000000 0.004855 0.000000
# 4 0.000000 0.000000 0.000000 0.065225 0.000000 0.007338
# 5 0.005513 -0.000346 0.004855 0.000000 0.049462 0.000000
# 6 0.000000 0.000000 0.000000 0.007338 0.000000 0.023482
#
#
# Mechanical properties :
#
#
# Convention : Reuss Voigt Hill
#
# Bulk Modulus (GPa) = 17.19550 27.36516 22.28033
# Shear Modulus (GPa) = 22.78644 29.20656 25.99650
#
# Velocity S-wave (km/s) = 3.25006 3.67954 3.47145
# Velocity P-wave (km/s) = 4.69628 5.54414 5.13773
#
# Compressibility (1/GPa) = 0.05815473
#
# Stress axis : x y z
#
# Youngs Moduli (GPa) = 68.26093 98.93288 28.36314
#
# Poissons Ratio (x) = 0.30247 -0.03170
# Poissons Ratio (y) = 0.20869 -0.02864
# Poissons Ratio (z) = -0.07630 -0.09989
#
# Static dielectric constant tensor:
#      x y z
#    x 1.837920 0.000000 -0.055350 
#    y 0.000000 1.919650 0.000000 
#    z -0.055350 0.000000 1.818900 
# 
# From -- ./inp_files/197259.got.cif
#   From: 2010.05.17/outbox.cif.g08.bks.cpg/sg15_99_cif.got.tgz:197259.got - 2010.06.03 18:47:42.
