data_PCOD9265921
_publ_section_title
;
Structure prediction by ZEFSAII (Michael W. Deem and Ramdas Pophale) SiO2 
 PCOD9265921
Probable space group: C 2/C
;
_chemical_formula_sum "Si O2"
_cell_formula_units_Z 56
_cell_length_a 8.249730
_cell_length_b 13.083047
_cell_length_c 28.281148
_cell_angle_alpha 90.000000
_cell_angle_beta 125.471503
_cell_angle_gamma 90.000000
_cell_volume 2485.911693
_symmetry_space_group_name_H-M "C 2/C"
_symmetry_group_IT_number 15
_symmetry_cell_setting 'monoclinic'
loop_
_space_group_symop_operation_xyz
x,y,z
-x,y,1/2-z
-x,-y,-z
x,-y,1/2+z
1/2+x,1/2+y,z
1/2-x,1/2+y,1/2-z
1/2-x,1/2-y,-z
1/2+x,1/2-y,1/2+z
loop_
_atom_site_type_symbol
_atom_site_label
_atom_site_fract_x
_atom_site_fract_y
_atom_site_fract_z
Si Si1 0.787586 0.411838 0.702377
Si Si2 0.351518 0.797064 0.615757
Si Si3 0.713480 0.286921 0.782517
Si Si4 0.140677 0.073626 0.355559
Si Si5 0.894538 0.098726 0.505190
Si Si6 0.159672 0.408974 0.059195
Si Si7 0.824186 0.289997 0.962263
O O1 0.807150 0.367462 0.653286
O O2 0.759656 0.320753 0.736632
O O3 0.580131 0.470839 0.673455
O O4 0.000000 0.462605 0.750000
O O5 0.576171 0.753928 0.659179
O O6 0.289198 0.861381 0.558629
O O7 0.208342 0.700254 0.590576
O O8 0.500000 0.229002 0.750000
O O9 0.669506 0.385667 0.807987
O O10 0.170974 0.168713 0.397231
O O11 0.308514 0.992056 0.395719
O O12 0.817471 0.073443 0.544036
O O13 0.041029 0.196690 0.533749
O O14 0.000000 0.000000 0.500000
O O15 0.952005 0.389630 0.998458
O O16 0.750000 0.250000 0.000000
#
# Coordination Sequence:
#
# PCOD9265921 Si02
#       7
#     8   8   8   8   8   8   8
#     4   9  19  37  58  78 105 149 196 235 284 337
#     4  10  19  37  58  79 113 152 183 233 288 339
#     4   9  19  35  57  79 102 143 192 236 281 327
#     4  11  20  36  58  83 116 150 186 241 289 334
#     4  11  22  37  58  87 119 154 190 230 288 359
#     4  11  22  36  56  87 119 152 190 231 289 357
#     4  11  22  36  57  87 119 152 192 232 286 357
#
# _framework density 22.526945999999999
#
# number of rings (size 3 to 8) (size 9 to 14) (size 15 to 20)
#    0.000    1.714    0.000    7.286    0.000    1.143 
#    0.000    7.143    0.000    6.857    0.000    0.000 
#    0.000    0.000    0.000    0.000    0.000    0.000 
#
# Total GULP energy -156264.602438 kJ/mol
# GULP energy per Si atom -5580.878658 kJ/mol
# Density = 2.247567 g / cm^3
# Si number density = 22.526946 Si / 1000 Ang^3
#
#
#
# Elastic Constant Matrix: (Units=GPa)
#
#
# Indices 1 2 3 4 5 6 
#
# 1 62.6342 -3.0523 1.1274 0.0000 5.3949 0.0000
# 2 -3.0523 59.6126 12.2568 0.0000 -0.2756 0.0000
# 3 1.1274 12.2568 108.3445 0.0000 7.8100 0.0000
# 4 0.0000 0.0000 0.0000 8.6430 0.0000 3.0277
# 5 5.3949 -0.2756 7.8100 0.0000 51.9057 0.0000
# 6 0.0000 0.0000 0.0000 3.0277 0.0000 24.7117
#
#
#
# Elastic Compliance Matrix: (Units=1/GPa)
#
#
# Indices 1 2 3 4 5 6 
#
# 1 0.016152 0.000849 -0.000145 0.000000 -0.001652 0.000000
# 2 0.000849 0.017227 -0.001979 0.000000 0.000301 0.000000
# 3 -0.000145 -0.001979 0.009559 0.000000 -0.001434 0.000000
# 4 0.000000 0.000000 0.000000 0.120889 0.000000 -0.014811
# 5 -0.001652 0.000301 -0.001434 0.000000 0.019655 0.000000
# 6 0.000000 0.000000 0.000000 -0.014811 0.000000 0.042281
#
#
# Mechanical properties :
#
#
# Convention : Reuss Voigt Hill
#
# Bulk Modulus (GPa) = 24.76040 27.91722 26.33881
# Shear Modulus (GPa) = 20.68038 31.73603 26.20821
#
# Velocity S-wave (km/s) = 3.03319 3.75747 3.41459
# Velocity P-wave (km/s) = 4.82517 5.58968 5.22144
#
# Compressibility (1/GPa) = 0.04038707
#
# Stress axis : x y z
#
# Youngs Moduli (GPa) = 61.91166 58.04897 104.61789
#
# Poissons Ratio (x) = -0.04929 0.01517
# Poissons Ratio (y) = -0.05257 0.20708
# Poissons Ratio (z) = 0.00898 0.11490
#
# Static dielectric constant tensor:
#      x y z
#    x 1.881770 0.000000 0.084850 
#    y 0.000000 1.838650 0.000000 
#    z 0.084850 0.000000 1.871090 
# 
# From -- ./inp_files/264415.got.cif
#   From: 2010.05.17/outbox.cif.g08.bks.cpg/sg15_133_cif.got.tgz:264415.got - 2010.06.03 18:47:42.
