data_PCOD9265023
_publ_section_title
;
Structure prediction by ZEFSAII (Michael W. Deem and Ramdas Pophale) SiO2 
 PCOD9265023
Probable space group: C 2/C
;
_chemical_formula_sum "Si O2"
_cell_formula_units_Z 56
_cell_length_a 21.244473
_cell_length_b 18.079201
_cell_length_c 15.578305
_cell_angle_alpha 90.000000
_cell_angle_beta 27.888393
_cell_angle_gamma 90.000000
_cell_volume 2798.722956
_symmetry_space_group_name_H-M "C 2/C"
_symmetry_group_IT_number 15
_symmetry_cell_setting 'monoclinic'
loop_
_space_group_symop_operation_xyz
x,y,z
-x,y,1/2-z
-x,-y,-z
x,-y,1/2+z
1/2+x,1/2+y,z
1/2-x,1/2+y,1/2-z
1/2-x,1/2-y,-z
1/2+x,1/2-y,1/2+z
loop_
_atom_site_type_symbol
_atom_site_label
_atom_site_fract_x
_atom_site_fract_y
_atom_site_fract_z
Si Si1 0.054203 0.781891 0.087497
Si Si2 0.000000 0.949350 0.750000
Si Si3 0.817772 0.814546 0.279002
Si Si4 0.692892 0.412151 0.370854
Si Si5 0.489183 0.923698 0.069719
Si Si6 0.232873 0.944886 0.032414
Si Si7 0.000000 0.524249 0.750000
Si Si8 0.263903 0.582768 0.169091
O O1 0.000000 0.787239 0.250000
O O2 0.934490 0.759364 0.168276
O O3 0.177047 0.725736 0.938191
O O4 0.114369 0.859727 0.981215
O O5 0.091726 0.905047 0.572705
O O6 0.894739 0.000670 0.823900
O O7 0.849992 0.862444 0.156731
O O8 0.806938 0.871100 0.371319
O O9 0.846054 0.391611 0.212550
O O10 0.695621 0.500768 0.346481
O O11 0.482619 0.934738 0.180123
O O12 0.633031 0.887264 0.875755
O O13 0.500000 0.000000 0.000000
O O14 0.275004 0.929287 0.883738
O O15 0.362292 0.977820 0.924265
#
# Coordination Sequence:
#
# PCOD9265023 Si02
#       8
#     8   4   8   8   8   8   4   8
#     4  12  27  45  63 101 140 181 218 270 338 421
#     4  10  20  42  64  94 138 160 220 298 332 382
#     4  12  27  41  67  96 135 186 223 263 349 404
#     4  10  22  40  66  93 133 171 226 286 329 390
#     4  10  19  36  56  98 130 168 214 280 332 393
#     4  11  21  34  63  94 131 177 211 265 337 398
#     4  12  20  32  62 100 130 170 216 272 346 386
#     4  10  21  40  64  91 139 168 223 278 320 393
#
# _framework density 20.009126999999999
#
# number of rings (size 3 to 8) (size 9 to 14) (size 15 to 20)
#    0.000    1.143    5.714    3.857    4.000    3.429 
#    0.000    0.000    0.000    1.714    0.000    0.000 
#    0.000    0.000    0.000    0.000    0.000    0.000 
#
# Total GULP energy -156349.245536 kJ/mol
# GULP energy per Si atom -5583.901626 kJ/mol
# Density = 1.996359 g / cm^3
# Si number density = 20.009127 Si / 1000 Ang^3
#
#
#
# Elastic Constant Matrix: (Units=GPa)
#
#
# Indices 1 2 3 4 5 6 
#
# 1 111.4225 30.2341 33.2031 0.0003 -7.4746 -0.0002
# 2 30.2341 36.3638 33.9470 0.0004 -1.4937 -0.0004
# 3 33.2031 33.9470 134.9555 0.0005 -2.5335 -0.0005
# 4 0.0003 0.0004 0.0005 27.2637 -0.0005 -8.4675
# 5 -7.4746 -1.4937 -2.5335 -0.0005 27.8127 0.0004
# 6 -0.0002 -0.0004 -0.0005 -8.4675 0.0004 11.9732
#
#
#
# Elastic Compliance Matrix: (Units=1/GPa)
#
#
# Indices 1 2 3 4 5 6 
#
# 1 0.011811 -0.009207 -0.000540 0.000000 0.002630 0.000000
# 2 -0.009207 0.043151 -0.008607 0.000000 -0.000941 0.000001
# 3 -0.000540 -0.008607 0.009713 0.000000 0.000277 0.000000
# 4 0.000000 0.000000 0.000000 0.047002 0.000000 0.033240
# 5 0.002630 -0.000941 0.000277 0.000000 0.036636 -0.000001
# 6 0.000000 0.000001 0.000000 0.033240 -0.000001 0.107027
#
#
# Mechanical properties :
#
#
# Convention : Reuss Voigt Hill
#
# Bulk Modulus (GPa) = 35.75765 53.05668 44.40716
# Shear Modulus (GPa) = 16.59080 25.76711 21.17896
#
# Velocity S-wave (km/s) = 2.88264 3.59244 3.25694
# Velocity P-wave (km/s) = 5.38414 6.61675 6.03201
#
# Compressibility (1/GPa) = 0.02796604
#
# Stress axis : x y z
#
# Youngs Moduli (GPa) = 84.66899 23.17432 102.95525
#
# Poissons Ratio (x) = 0.21337 0.05564
# Poissons Ratio (y) = 0.77957 0.88611
# Poissons Ratio (z) = 0.04575 0.19946
#
# Static dielectric constant tensor:
#      x y z
#    x 1.741250 0.000000 -0.051940 
#    y 0.000000 1.737410 0.000000 
#    z -0.051940 0.000000 1.754680 
# 
# From -- ./inp_files/169138.got.cif
#   From: 2010.05.17/outbox.cif.g08.bks.cpg/sg15_85_cif.got.tgz:169138.got - 2010.06.03 18:47:42.
