data_PCOD9265103
_publ_section_title
;
Structure prediction by ZEFSAII (Michael W. Deem and Ramdas Pophale) SiO2 
 PCOD9265103
Probable space group: C 2/C
;
_chemical_formula_sum "Si O2"
_cell_formula_units_Z 64
_cell_length_a 21.591660
_cell_length_b 14.128180
_cell_length_c 11.105765
_cell_angle_alpha 90.000000
_cell_angle_beta 76.094534
_cell_angle_gamma 90.000000
_cell_volume 3288.538115
_symmetry_space_group_name_H-M "C 2/C"
_symmetry_group_IT_number 15
_symmetry_cell_setting 'monoclinic'
loop_
_space_group_symop_operation_xyz
x,y,z
-x,y,1/2-z
-x,-y,-z
x,-y,1/2+z
1/2+x,1/2+y,z
1/2-x,1/2+y,1/2-z
1/2-x,1/2-y,-z
1/2+x,1/2-y,1/2+z
loop_
_atom_site_type_symbol
_atom_site_label
_atom_site_fract_x
_atom_site_fract_y
_atom_site_fract_z
Si Si1 0.927070 0.467318 0.044402
Si Si2 0.076199 0.202484 0.713716
Si Si3 0.653069 0.625488 0.450152
Si Si4 0.348473 0.178859 0.674534
Si Si5 0.267617 0.148152 0.938975
Si Si6 0.747087 0.041891 0.926118
Si Si7 0.654725 0.563856 0.829029
Si Si8 0.922364 0.421562 0.780905
O O1 0.917267 0.361142 0.101365
O O2 0.899445 0.529383 0.168334
O O3 0.901989 0.467047 0.918232
O O4 0.000000 0.500000 0.000000
O O5 0.107631 0.161380 0.578061
O O6 0.103968 0.140088 0.808836
O O7 0.096593 0.311957 0.712790
O O8 0.000000 0.198687 0.750000
O O9 0.660009 0.712228 0.355377
O O10 0.721673 0.595356 0.474062
O O11 0.627037 0.529335 0.404096
O O12 0.327211 0.159948 0.820631
O O13 0.302132 0.112652 0.614775
O O14 0.206462 0.113637 0.890427
O O15 0.250000 0.250000 0.000000
O O16 0.277384 0.062105 0.027520
O O17 0.805236 0.029391 0.805639
O O18 0.000000 0.425212 0.750000
#
# Coordination Sequence:
#
# PCOD9265103 Si02
#       8
#     8   8   8   8   8   8   8   8
#     4  10  21  37  58  85 120 158 200 247 298 360
#     4  10  20  36  59  81 108 150 202 242 301 361
#     4  10  19  36  58  78 114 144 193 245 294 352
#     4  11  21  33  58  84 110 157 196 235 303 363
#     4  10  21  36  55  84 121 149 190 247 305 366
#     4   9  20  36  55  82 112 145 192 237 295 356
#     4   9  20  37  57  83 110 151 185 249 301 352
#     4   9  19  37  58  82 115 156 195 247 295 356
#
# _framework density 19.461535000000001
#
# number of rings (size 3 to 8) (size 9 to 14) (size 15 to 20)
#    0.000    2.250    1.250    1.125    1.750    1.500 
#    0.000    0.000    0.000    0.750    0.000    0.000 
#    0.000    0.000    0.000    0.000    0.000    0.000 
#
# Total GULP energy -178453.343343 kJ/mol
# GULP energy per Si atom -5576.666979 kJ/mol
# Density = 1.941724 g / cm^3
# Si number density = 19.461535 Si / 1000 Ang^3
#
#
#
# Elastic Constant Matrix: (Units=GPa)
#
#
# Indices 1 2 3 4 5 6 
#
# 1 30.7518 29.7249 12.5142 0.0000 2.2757 0.0000
# 2 29.7249 155.0181 66.7413 0.0000 14.8905 0.0000
# 3 12.5142 66.7413 102.1681 0.0000 8.3115 0.0000
# 4 0.0000 0.0000 0.0000 45.9187 0.0000 2.1448
# 5 2.2757 14.8905 8.3115 0.0000 23.6209 0.0000
# 6 0.0000 0.0000 0.0000 2.1448 0.0000 23.8434
#
#
#
# Elastic Compliance Matrix: (Units=1/GPa)
#
#
# Indices 1 2 3 4 5 6 
#
# 1 0.039942 -0.007813 0.000128 0.000000 0.001032 0.000000
# 2 -0.007813 0.010829 -0.005789 0.000000 -0.004037 0.000000
# 3 0.000128 -0.005789 0.013648 0.000000 -0.001166 0.000000
# 4 0.000000 0.000000 0.000000 0.021870 0.000000 -0.001967
# 5 0.001032 -0.004037 -0.001166 0.000000 0.045191 0.000000
# 6 0.000000 0.000000 0.000000 -0.001967 0.000000 0.042117
#
#
# Mechanical properties :
#
#
# Convention : Reuss Voigt Hill
#
# Bulk Modulus (GPa) = 26.68701 56.21096 41.44899
# Shear Modulus (GPa) = 23.47014 30.60709 27.03861
#
# Velocity S-wave (km/s) = 3.47648 3.97003 3.73142
# Velocity P-wave (km/s) = 5.46416 7.06828 6.31734
#
# Compressibility (1/GPa) = 0.03747141
#
# Stress axis : x y z
#
# Youngs Moduli (GPa) = 25.03611 92.34422 73.26836
#
# Poissons Ratio (x) = 0.72149 -0.00934
# Poissons Ratio (y) = 0.19561 0.42413
# Poissons Ratio (z) = -0.00319 0.53455
#
# Static dielectric constant tensor:
#      x y z
#    x 1.721610 0.000000 -0.001020 
#    y 0.000000 1.664140 0.000000 
#    z -0.001020 0.000000 1.716650 
# 
# From -- ./inp_files/117988.got.cif
#   From: 2010.05.17/outbox.cif.g08.bks.cpg/sg15_59_cif.got.tgz:117988.got - 2010.06.03 18:47:42.
