data_PCOD9265671
_publ_section_title
;
Structure prediction by ZEFSAII (Michael W. Deem and Ramdas Pophale) SiO2 
 PCOD9265671
Probable space group: C 2/C
;
_chemical_formula_sum "Si O2"
_cell_formula_units_Z 60
_cell_length_a 25.469153
_cell_length_b 7.556678
_cell_length_c 22.497058
_cell_angle_alpha 90.000000
_cell_angle_beta 34.969918
_cell_angle_gamma 90.000000
_cell_volume 2481.627674
_symmetry_space_group_name_H-M "C 2/C"
_symmetry_group_IT_number 15
_symmetry_cell_setting 'monoclinic'
loop_
_space_group_symop_operation_xyz
x,y,z
-x,y,1/2-z
-x,-y,-z
x,-y,1/2+z
1/2+x,1/2+y,z
1/2-x,1/2+y,1/2-z
1/2-x,1/2-y,-z
1/2+x,1/2-y,1/2+z
loop_
_atom_site_type_symbol
_atom_site_label
_atom_site_fract_x
_atom_site_fract_y
_atom_site_fract_z
Si Si1 0.815137 0.854215 0.710497
Si Si2 0.646387 0.447431 0.146005
Si Si3 0.000000 0.340099 0.750000
Si Si4 0.192364 0.491461 0.426632
Si Si5 0.523089 0.396828 0.867223
Si Si6 0.503113 0.977298 0.875991
Si Si7 0.699289 0.969996 0.715967
Si Si8 0.172704 0.112322 0.995936
O O1 0.744475 0.959084 0.818395
O O2 0.915106 0.936156 0.632050
O O3 0.810568 0.655797 0.739879
O O4 0.774954 0.863833 0.682205
O O5 0.587823 0.285383 0.175766
O O6 0.739064 0.388999 0.093340
O O7 0.584576 0.544716 0.253563
O O8 0.665170 0.574311 0.072615
O O9 0.992355 0.452831 0.815992
O O10 0.178834 0.680462 0.473509
O O11 0.092022 0.414428 0.507920
O O12 0.513785 0.184750 0.877731
O O13 0.419984 0.460734 0.950372
O O14 0.598097 0.886400 0.807314
O O15 0.738547 0.021862 0.615411
#
# Coordination Sequence:
#
# PCOD9265671 Si02
#       8
#     8   8   4   8   8   8   8   8
#     4   9  20  40  60  89 114 156 201 255 293 346
#     4  11  21  39  59  93 123 152 197 250 290 351
#     4  12  26  36  56  90 136 150 184 248 308 348
#     4   9  21  38  66  84 114 164 208 233 286 356
#     4   9  19  39  66  84 118 158 209 237 289 355
#     4  10  24  40  57  90 121 166 195 237 297 365
#     4  10  22  40  61  86 119 152 206 248 296 351
#     4  10  19  36  63  93 115 155 203 246 287 349
#
# _framework density 24.177679000000001
#
# number of rings (size 3 to 8) (size 9 to 14) (size 15 to 20)
#    0.000    2.133    1.333    1.200    5.600    3.733 
#    2.400    0.000    0.000    0.000    0.000    0.000 
#    0.000    0.000    0.000    0.000    0.000    0.000 
#
# Total GULP energy -167797.977545 kJ/mol
# GULP energy per Si atom -5593.265918 kJ/mol
# Density = 2.412265 g / cm^3
# Si number density = 24.177679 Si / 1000 Ang^3
#
#
#
# Elastic Constant Matrix: (Units=GPa)
#
#
# Indices 1 2 3 4 5 6 
#
# 1 123.6347 8.4880 42.9080 0.0092 -39.3415 -0.0100
# 2 8.4880 33.0836 11.7327 0.0107 -11.7467 -0.0123
# 3 42.9080 11.7327 72.0579 0.0050 -33.2189 -0.0091
# 4 0.0092 0.0107 0.0050 12.1384 -0.0042 -0.9501
# 5 -39.3415 -11.7467 -33.2189 -0.0042 39.7340 0.0036
# 6 -0.0100 -0.0123 -0.0091 -0.9501 0.0036 20.3153
#
#
#
# Elastic Compliance Matrix: (Units=1/GPa)
#
#
# Indices 1 2 3 4 5 6 
#
# 1 0.012198 0.001477 -0.002823 -0.000006 0.010154 0.000004
# 2 0.001477 0.034045 -0.001804 -0.000025 0.010019 0.000018
# 3 -0.002823 -0.001804 0.023297 0.000000 0.016149 0.000005
# 4 -0.000006 -0.000025 0.000000 0.082686 -0.000005 0.003867
# 5 0.010154 0.010019 0.016149 -0.000005 0.051684 0.000009
# 6 0.000004 0.000018 0.000005 0.003867 0.000009 0.049405
#
#
# Mechanical properties :
#
#
# Convention : Reuss Voigt Hill
#
# Bulk Modulus (GPa) = 15.81297 39.44818 27.63057
# Shear Modulus (GPa) = 17.81305 25.48071 21.64688
#
# Velocity S-wave (km/s) = 2.71727 3.24990 2.99544
# Velocity P-wave (km/s) = 4.04960 5.51668 4.83906
#
# Compressibility (1/GPa) = 0.06323924
#
# Stress axis : x y z
#
# Youngs Moduli (GPa) = 81.98298 29.37328 42.92402
#
# Poissons Ratio (x) = -0.04338 0.12117
# Poissons Ratio (y) = -0.12108 0.07743
# Poissons Ratio (z) = 0.23142 0.05299
#
# Static dielectric constant tensor:
#      x y z
#    x 1.953620 0.000000 -0.058430 
#    y 0.000000 1.940580 0.000000 
#    z -0.058430 0.000000 1.912470 
# 
# From -- ./inp_files/255171.got.cif
#   From: 2010.05.17/outbox.cif.g08.bks.cpg/sg15_128_cif.got.tgz:255171.got - 2010.06.03 18:47:42.
