data_PCOD9265028
_publ_section_title
;
Structure prediction by ZEFSAII (Michael W. Deem and Ramdas Pophale) SiO2 
 PCOD9265028
Probable space group: C 2/C
;
_chemical_formula_sum "Si O2"
_cell_formula_units_Z 64
_cell_length_a 21.711438
_cell_length_b 11.284270
_cell_length_c 24.332484
_cell_angle_alpha 90.000000
_cell_angle_beta 151.072163
_cell_angle_gamma 90.000000
_cell_volume 2883.576494
_symmetry_space_group_name_H-M "C 2/C"
_symmetry_group_IT_number 15
_symmetry_cell_setting 'monoclinic'
loop_
_space_group_symop_operation_xyz
x,y,z
-x,y,1/2-z
-x,-y,-z
x,-y,1/2+z
1/2+x,1/2+y,z
1/2-x,1/2+y,1/2-z
1/2-x,1/2-y,-z
1/2+x,1/2-y,1/2+z
loop_
_atom_site_type_symbol
_atom_site_label
_atom_site_fract_x
_atom_site_fract_y
_atom_site_fract_z
Si Si1 0.769863 0.018293 0.688194
Si Si2 0.272452 0.793871 0.437100
Si Si3 0.823677 0.507737 0.061237
Si Si4 0.121693 0.467593 0.182843
Si Si5 0.980980 0.885936 0.057638
Si Si6 0.360769 0.630506 0.923218
Si Si7 0.384429 0.086274 0.216397
Si Si8 0.845176 0.649448 0.480062
O O1 0.719463 0.119622 0.608398
O O2 0.675179 0.004787 0.665226
O O3 0.906212 0.058225 0.817631
O O4 0.761785 0.901384 0.644814
O O5 0.262068 0.879378 0.481848
O O6 0.391905 0.704179 0.522409
O O7 0.147208 0.714593 0.331399
O O8 0.803896 0.503340 0.111087
O O9 0.805727 0.391078 0.010546
O O10 0.972205 0.542170 0.174091
O O11 0.218966 0.374444 0.287008
O O12 0.140597 0.579168 0.238413
O O13 0.978367 0.419693 0.071870
O O14 0.047118 0.828245 0.055151
O O15 0.903777 0.997840 0.972815
O O16 0.368538 0.716587 0.981162
#
# Coordination Sequence:
#
# PCOD9265028 Si02
#       8
#     8   8   8   8   8   8   8   8
#     4  10  22  34  55  88 119 146 183 233 284 345
#     4  11  19  35  57  84 113 149 182 233 291 334
#     4   9  21  36  55  83 106 143 194 239 275 331
#     4  10  20  35  56  82 107 151 188 225 279 344
#     4  10  21  36  53  84 119 146 186 227 287 343
#     4  10  21  36  53  81 114 153 181 231 279 342
#     4  10  19  36  57  79 109 146 191 234 278 330
#     4  10  21  36  57  80 115 149 189 233 281 332
#
# _framework density 22.194659000000001
#
# number of rings (size 3 to 8) (size 9 to 14) (size 15 to 20)
#    0.000    2.000    1.250    2.250    1.750    4.000 
#    0.000    0.625    0.000    0.000    0.000    0.000 
#    0.000    0.000    0.000    0.000    0.000    0.000 
#
# Total GULP energy -178509.362439 kJ/mol
# GULP energy per Si atom -5578.417576 kJ/mol
# Density = 2.214414 g / cm^3
# Si number density = 22.194659 Si / 1000 Ang^3
#
#
#
# Elastic Constant Matrix: (Units=GPa)
#
#
# Indices 1 2 3 4 5 6 
#
# 1 59.7583 2.1504 7.4501 0.0000 -14.6314 0.0000
# 2 2.1504 56.9233 12.6286 0.0000 -8.0579 0.0000
# 3 7.4501 12.6286 66.2872 0.0000 -5.5675 0.0000
# 4 0.0000 0.0000 0.0000 19.8583 0.0000 -2.5049
# 5 -14.6314 -8.0579 -5.5675 0.0000 34.5978 0.0000
# 6 0.0000 0.0000 0.0000 -2.5049 0.0000 20.8652
#
#
#
# Elastic Compliance Matrix: (Units=1/GPa)
#
#
# Indices 1 2 3 4 5 6 
#
# 1 0.018837 0.000760 -0.001599 0.000000 0.007886 0.000000
# 2 0.000760 0.018869 -0.003329 0.000000 0.004180 0.000000
# 3 -0.001599 -0.003329 0.015994 0.000000 0.001122 0.000000
# 4 0.000000 0.000000 0.000000 0.051131 0.000000 0.006138
# 5 0.007886 0.004180 0.001122 0.000000 0.033393 0.000000
# 6 0.000000 0.000000 0.000000 0.006138 0.000000 0.048664
#
#
# Mechanical properties :
#
#
# Convention : Reuss Voigt Hill
#
# Bulk Modulus (GPa) = 22.04490 25.26967 23.65729
# Shear Modulus (GPa) = 23.77034 25.78024 24.77529
#
# Velocity S-wave (km/s) = 3.27615 3.41185 3.34469
# Velocity P-wave (km/s) = 4.92595 5.18952 5.05945
#
# Compressibility (1/GPa) = 0.04536197
#
# Stress axis : x y z
#
# Youngs Moduli (GPa) = 53.08727 52.99670 62.52302
#
# Poissons Ratio (x) = -0.04025 0.10000
# Poissons Ratio (y) = -0.04032 0.20815
# Poissons Ratio (z) = 0.08491 0.17643
#
# Static dielectric constant tensor:
#      x y z
#    x 1.893730 0.000000 0.007640 
#    y 0.000000 1.867820 0.000000 
#    z 0.007640 0.000000 1.819990 
# 
# From -- ./inp_files/117611.got.cif
#   From: 2010.05.17/outbox.cif.g08.bks.cpg/sg15_59_cif.got.tgz:117611.got - 2010.06.03 18:47:42.
