data_PCOD9265922
_publ_section_title
;
Structure prediction by ZEFSAII (Michael W. Deem and Ramdas Pophale) SiO2 
 PCOD9265922
Probable space group: C 2/C
;
_chemical_formula_sum "Si O2"
_cell_formula_units_Z 40
_cell_length_a 18.814410
_cell_length_b 9.646911
_cell_length_c 14.921394
_cell_angle_alpha 90.000000
_cell_angle_beta 44.616944
_cell_angle_gamma 90.000000
_cell_volume 1902.174095
_symmetry_space_group_name_H-M "C 2/C"
_symmetry_group_IT_number 15
_symmetry_cell_setting 'monoclinic'
loop_
_space_group_symop_operation_xyz
x,y,z
-x,y,1/2-z
-x,-y,-z
x,-y,1/2+z
1/2+x,1/2+y,z
1/2-x,1/2+y,1/2-z
1/2-x,1/2-y,-z
1/2+x,1/2-y,1/2+z
loop_
_atom_site_type_symbol
_atom_site_label
_atom_site_fract_x
_atom_site_fract_y
_atom_site_fract_z
Si Si1 0.086926 0.443632 0.598581
Si Si2 0.600750 0.453968 0.828418
Si Si3 0.921832 0.145818 0.966472
Si Si4 0.302256 0.457401 0.946673
Si Si5 0.057568 0.258545 0.102895
O O1 0.094916 0.308109 0.530623
O O2 0.190143 0.484271 0.557910
O O3 0.065686 0.584984 0.563142
O O4 0.000000 0.418053 0.750000
O O5 0.538260 0.597231 0.874957
O O6 0.677260 0.440471 0.677724
O O7 0.513581 0.338112 0.891824
O O8 0.637253 0.421648 0.895658
O O9 0.880227 0.071485 0.914808
O O10 0.337259 0.319858 0.969318
O O11 0.000000 0.265706 0.250000
#
# Coordination Sequence:
#
# PCOD9265922 Si02
#       5
#     8   8   8   8   8
#     4  11  21  34  56  87 116 146 187 240 288 327
#     4   9  19  38  58  79 111 155 194 225 280 350
#     4  10  20  35  59  85 111 146 191 240 284 333
#     4  10  19  37  58  79 114 157 190 224 281 350
#     4   8  17  34  56  78 109 149 185 224 278 340
#
# _framework density 21.028568
#
# number of rings (size 3 to 8) (size 9 to 14) (size 15 to 20)
#    0.000    2.400    0.000    4.200    0.000    0.800 
#    0.000   14.000    0.000    0.000    0.000    0.000 
#    0.000    0.000    0.000    0.000    0.000    0.000 
#
# Total GULP energy -111526.456207 kJ/mol
# GULP energy per Si atom -5576.322810 kJ/mol
# Density = 2.098071 g / cm^3
# Si number density = 21.028568 Si / 1000 Ang^3
#
#
#
# Elastic Constant Matrix: (Units=GPa)
#
#
# Indices 1 2 3 4 5 6 
#
# 1 43.5128 20.4664 32.4767 0.0000 1.5938 0.0000
# 2 20.4664 139.7023 3.9211 0.0000 -1.6698 0.0000
# 3 32.4767 3.9211 84.6499 0.0000 3.4809 0.0000
# 4 0.0000 0.0000 0.0000 9.5084 0.0000 -4.5977
# 5 1.5938 -1.6698 3.4809 0.0000 33.8253 0.0000
# 6 0.0000 0.0000 0.0000 -4.5977 0.0000 14.0352
#
#
#
# Elastic Compliance Matrix: (Units=1/GPa)
#
#
# Indices 1 2 3 4 5 6 
#
# 1 0.035127 -0.004781 -0.013234 0.000000 -0.000529 0.000000
# 2 -0.004781 0.007823 0.001453 0.000000 0.000462 0.000000
# 3 -0.013234 0.001453 0.016866 0.000000 -0.001040 0.000000
# 4 0.000000 0.000000 0.000000 0.124964 0.000000 0.040937
# 5 -0.000529 0.000462 -0.001040 0.000000 0.029718 0.000000
# 6 0.000000 0.000000 0.000000 0.040937 0.000000 0.084659
#
#
# Mechanical properties :
#
#
# Convention : Reuss Voigt Hill
#
# Bulk Modulus (GPa) = 37.46311 42.39926 39.93118
# Shear Modulus (GPa) = 14.65505 25.54052 20.09779
#
# Velocity S-wave (km/s) = 2.64277 3.48884 3.09485
# Velocity P-wave (km/s) = 5.21213 6.03621 5.63924
#
# Compressibility (1/GPa) = 0.02669293
#
# Stress axis : x y z
#
# Youngs Moduli (GPa) = 28.46815 127.82426 59.29083
#
# Poissons Ratio (x) = 0.61113 0.78463
# Poissons Ratio (y) = 0.13611 -0.08614
# Poissons Ratio (z) = 0.37673 -0.18572
#
# Static dielectric constant tensor:
#      x y z
#    x 1.766210 0.000000 -0.007850 
#    y 0.000000 1.795570 0.000000 
#    z -0.007850 0.000000 1.773000 
# 
# From -- ./inp_files/166018.got.cif
#   From: 2010.05.17/outbox.cif.g08.bks.cpg/sg15_84_cif.got.tgz:166018.got - 2010.06.03 18:47:42.
