data_PCOD9265437
_publ_section_title
;
Structure prediction by ZEFSAII (Michael W. Deem and Ramdas Pophale) SiO2 
 PCOD9265437
Probable space group: C 2/C
;
_chemical_formula_sum "Si O2"
_cell_formula_units_Z 64
_cell_length_a 22.810915
_cell_length_b 15.485074
_cell_length_c 7.817152
_cell_angle_alpha 90.000000
_cell_angle_beta 69.096040
_cell_angle_gamma 90.000000
_cell_volume 2579.497003
_symmetry_space_group_name_H-M "C 2/C"
_symmetry_group_IT_number 15
_symmetry_cell_setting 'monoclinic'
loop_
_space_group_symop_operation_xyz
x,y,z
-x,y,1/2-z
-x,-y,-z
x,-y,1/2+z
1/2+x,1/2+y,z
1/2-x,1/2+y,1/2-z
1/2-x,1/2-y,-z
1/2+x,1/2-y,1/2+z
loop_
_atom_site_type_symbol
_atom_site_label
_atom_site_fract_x
_atom_site_fract_y
_atom_site_fract_z
Si Si1 0.599925 0.659315 0.578490
Si Si2 0.709071 0.445472 0.786947
Si Si3 0.710597 0.631292 0.903373
Si Si4 0.590924 0.726714 0.084895
Si Si5 0.353372 0.136741 0.761075
Si Si6 0.646874 0.961424 0.873822
Si Si7 0.564681 0.172859 0.281784
Si Si8 0.519531 0.598487 0.982343
O O1 0.661679 0.610899 0.449513
O O2 0.606158 0.759005 0.628918
O O3 0.568551 0.614111 0.776678
O O4 0.544028 0.648414 0.499869
O O5 0.705994 0.405988 0.600920
O O6 0.781987 0.446827 0.767956
O O7 0.693943 0.547756 0.806628
O O8 0.781426 0.663033 0.800648
O O9 0.661098 0.707920 0.942226
O O10 0.602448 0.782841 0.241423
O O11 0.554887 0.781046 0.977553
O O12 0.556658 0.634473 0.109057
O O13 0.354201 0.083082 0.939795
O O14 0.369171 0.062845 0.608701
O O15 0.599217 0.913347 0.799855
O O16 0.500000 0.161193 0.250000
O O17 0.500000 0.500000 0.000000
#
# Coordination Sequence:
#
# PCOD9265437 Si02
#       8
#     8   8   8   8   8   8   8   8
#     4  10  20  36  56  82 116 155 202 242 285 362
#     4  10  22  36  57  88 124 153 201 242 306 360
#     4  10  21  36  57  90 122 159 195 249 300 372
#     4  10  19  36  61  84 116 163 199 247 296 364
#     4   9  19  39  62  87 120 153 203 246 314 364
#     4   9  20  39  62  88 116 156 194 256 303 370
#     4  10  19  39  64  85 114 158 205 241 306 371
#     4  10  20  35  56  84 115 162 204 237 287 356
#
# _framework density 24.811038
#
# number of rings (size 3 to 8) (size 9 to 14) (size 15 to 20)
#    0.000    2.250    2.500    1.125    5.250    0.500 
#    2.250    2.500    0.000    0.000    0.000    0.000 
#    0.000    0.000    0.000    0.000    0.000    0.000 
#
# Total GULP energy -179074.730622 kJ/mol
# GULP energy per Si atom -5596.085332 kJ/mol
# Density = 2.475457 g / cm^3
# Si number density = 24.811038 Si / 1000 Ang^3
#
#
#
# Elastic Constant Matrix: (Units=GPa)
#
#
# Indices 1 2 3 4 5 6 
#
# 1 117.4848 50.3697 20.5639 0.0000 23.5234 0.0000
# 2 50.3697 100.0734 6.3554 0.0000 -5.7539 0.0000
# 3 20.5639 6.3554 69.0798 0.0000 -2.3925 0.0000
# 4 0.0000 0.0000 0.0000 30.4110 0.0000 5.8472
# 5 23.5234 -5.7539 -2.3925 0.0000 24.8834 0.0000
# 6 0.0000 0.0000 0.0000 5.8472 0.0000 47.3332
#
#
#
# Elastic Compliance Matrix: (Units=1/GPa)
#
#
# Indices 1 2 3 4 5 6 
#
# 1 0.017204 -0.009435 -0.004908 0.000000 -0.018917 0.000000
# 2 -0.009435 0.015352 0.001834 0.000000 0.012646 0.000000
# 3 -0.004908 0.001834 0.015997 0.000000 0.006602 0.000000
# 4 0.000000 0.000000 0.000000 0.033683 0.000000 -0.004161
# 5 -0.018917 0.012646 0.006602 0.000000 0.061630 0.000000
# 6 0.000000 0.000000 0.000000 -0.004161 0.000000 0.021641
#
#
# Mechanical properties :
#
#
# Convention : Reuss Voigt Hill
#
# Bulk Modulus (GPa) = 42.49078 49.02398 45.75738
# Shear Modulus (GPa) = 25.20547 34.48211 29.84379
#
# Velocity S-wave (km/s) = 3.19077 3.73203 3.47197
# Velocity P-wave (km/s) = 5.54415 6.19456 5.87836
#
# Compressibility (1/GPa) = 0.02353452
#
# Stress axis : x y z
#
# Youngs Moduli (GPa) = 58.12712 65.13727 62.51140
#
# Poissons Ratio (x) = 0.61457 0.30683
# Poissons Ratio (y) = 0.54843 -0.11466
# Poissons Ratio (z) = 0.28531 -0.11948
#
# Static dielectric constant tensor:
#      x y z
#    x 1.924880 0.000000 0.003390 
#    y 0.000000 1.989070 0.000000 
#    z 0.003390 0.000000 2.079680 
# 
# From -- ./inp_files/62465.got.cif
#   From: 2010.05.17/outbox.cif.g08.bks.cpg/sg15_32_cif.got.tgz:62465.got - 2010.06.03 18:47:42.
