data_PCOD9265999
_publ_section_title
;
Structure prediction by ZEFSAII (Michael W. Deem and Ramdas Pophale) SiO2 
 PCOD9265999
Probable space group: C 2/C
;
_chemical_formula_sum "Si O2"
_cell_formula_units_Z 60
_cell_length_a 12.560151
_cell_length_b 12.579143
_cell_length_c 20.458816
_cell_angle_alpha 90.000000
_cell_angle_beta 91.784833
_cell_angle_gamma 90.000000
_cell_volume 3230.841539
_symmetry_space_group_name_H-M "C 2/C"
_symmetry_group_IT_number 15
_symmetry_cell_setting 'monoclinic'
loop_
_space_group_symop_operation_xyz
x,y,z
-x,y,1/2-z
-x,-y,-z
x,-y,1/2+z
1/2+x,1/2+y,z
1/2-x,1/2+y,1/2-z
1/2-x,1/2-y,-z
1/2+x,1/2-y,1/2+z
loop_
_atom_site_type_symbol
_atom_site_label
_atom_site_fract_x
_atom_site_fract_y
_atom_site_fract_z
Si Si1 0.148978 0.282912 0.723830
Si Si2 0.527830 0.376443 0.428875
Si Si3 0.860620 0.219618 0.143318
Si Si4 0.619345 0.453918 0.185256
Si Si5 0.838894 0.067874 0.020107
Si Si6 0.823161 0.547158 0.594838
Si Si7 0.559215 0.157993 0.358337
Si Si8 0.000000 0.127735 0.250000
O O1 0.262533 0.288895 0.691824
O O2 0.124985 0.156771 0.723831
O O3 0.135296 0.325455 0.796607
O O4 0.059326 0.337766 0.675878
O O5 0.480819 0.439271 0.365383
O O6 0.616621 0.450406 0.463167
O O7 0.426866 0.374065 0.475799
O O8 0.563810 0.260426 0.406020
O O9 0.835431 0.136996 0.085298
O O10 0.868316 0.337867 0.114740
O O11 0.965792 0.193476 0.186360
O O12 0.723453 0.469522 0.142853
O O13 0.596376 0.550590 0.232031
O O14 0.730308 0.057191 0.977511
O O15 0.905020 0.450489 0.606147
#
# Coordination Sequence:
#
# PCOD9265999 Si02
#       8
#     8   8   8   8   8   8   8   4
#     4   9  20  36  60  81 117 153 193 229 292 352
#     4   9  18  35  62  87 108 148 194 247 281 325
#     4  11  23  38  56  88 113 154 187 241 290 344
#     4   9  17  34  56  87 106 148 194 242 282 334
#     4  10  20  38  60  83 117 148 197 240 284 340
#     4  10  22  36  56  79 122 154 187 229 291 345
#     4  10  19  37  59  84 115 157 194 235 283 342
#     4  12  20  32  62  86 112 138 200 248 286 328
#
# _framework density 18.571013000000001
#
# number of rings (size 3 to 8) (size 9 to 14) (size 15 to 20)
#    0.000    2.133    1.333    3.600    0.000    1.600 
#    0.000    2.667    2.933    0.000    0.000    0.000 
#    0.000    0.000    0.000    0.000    0.000    0.000 
#
# Total GULP energy -167372.182871 kJ/mol
# GULP energy per Si atom -5579.072762 kJ/mol
# Density = 1.852874 g / cm^3
# Si number density = 18.571013 Si / 1000 Ang^3
#
#
#
# Elastic Constant Matrix: (Units=GPa)
#
#
# Indices 1 2 3 4 5 6 
#
# 1 32.4651 45.9279 13.4377 0.0000 9.4450 0.0000
# 2 45.9279 104.1227 44.8166 0.0000 27.1944 0.0000
# 3 13.4377 44.8166 78.1662 0.0000 15.0759 0.0000
# 4 0.0000 0.0000 0.0000 22.4657 0.0000 -2.0426
# 5 9.4450 27.1944 15.0759 0.0000 28.3510 0.0000
# 6 0.0000 0.0000 0.0000 -2.0426 0.0000 17.4767
#
#
#
# Elastic Compliance Matrix: (Units=1/GPa)
#
#
# Indices 1 2 3 4 5 6 
#
# 1 0.088507 -0.045311 0.008990 0.000000 0.009196 0.000000
# 2 -0.045311 0.038605 -0.011270 0.000000 -0.015942 0.000000
# 3 0.008990 -0.011270 0.018054 0.000000 -0.001785 0.000000
# 4 0.000000 0.000000 0.000000 0.044990 0.000000 0.005258
# 5 0.009196 -0.015942 -0.001785 0.000000 0.048449 0.000000
# 6 0.000000 0.000000 0.000000 0.005258 0.000000 0.057834
#
#
# Mechanical properties :
#
#
# Convention : Reuss Voigt Hill
#
# Bulk Modulus (GPa) = 20.00664 47.01313 33.50989
# Shear Modulus (GPa) = 12.24645 21.03014 16.63829
#
# Velocity S-wave (km/s) = 2.57074 3.36879 2.99645
# Velocity P-wave (km/s) = 4.42810 6.36412 5.48224
#
# Compressibility (1/GPa) = 0.04998340
#
# Stress axis : x y z
#
# Youngs Moduli (GPa) = 11.29858 25.90338 55.39042
#
# Poissons Ratio (x) = 1.17371 -0.49797
# Poissons Ratio (y) = 0.51195 0.62425
# Poissons Ratio (z) = -0.10158 0.29193
#
# Static dielectric constant tensor:
#      x y z
#    x 1.649740 0.000000 -0.003040 
#    y 0.000000 1.618500 0.000000 
#    z -0.003040 0.000000 1.653660 
# 
# From -- ./inp_files/204084.got.cif
#   From: 2010.05.17/outbox.cif.g08.bks.cpg/sg15_103_cif.got.tgz:204084.got - 2010.06.03 18:47:42.
