data_PCOD9265952
_publ_section_title
;
Structure prediction by ZEFSAII (Michael W. Deem and Ramdas Pophale) SiO2 
 PCOD9265952
Probable space group: C 2/C
;
_chemical_formula_sum "Si O2"
_cell_formula_units_Z 40
_cell_length_a 16.654281
_cell_length_b 8.882876
_cell_length_c 26.187915
_cell_angle_alpha 90.000000
_cell_angle_beta 147.929698
_cell_angle_gamma 90.000000
_cell_volume 2057.035286
_symmetry_space_group_name_H-M "C 2/C"
_symmetry_group_IT_number 15
_symmetry_cell_setting 'monoclinic'
loop_
_space_group_symop_operation_xyz
x,y,z
-x,y,1/2-z
-x,-y,-z
x,-y,1/2+z
1/2+x,1/2+y,z
1/2-x,1/2+y,1/2-z
1/2-x,1/2-y,-z
1/2+x,1/2-y,1/2+z
loop_
_atom_site_type_symbol
_atom_site_label
_atom_site_fract_x
_atom_site_fract_y
_atom_site_fract_z
Si Si1 0.505383 0.668173 0.634475
Si Si2 0.646663 0.430002 0.106944
Si Si3 0.445683 0.850542 0.000958
Si Si4 0.205670 0.584499 0.520816
Si Si5 0.734351 0.236566 0.341303
O O1 0.605270 0.594237 0.643841
O O2 0.349977 0.580594 0.562012
O O3 0.438670 0.828720 0.580020
O O4 0.601941 0.690404 0.737352
O O5 0.653663 0.264010 0.086173
O O6 0.773959 0.554641 0.163977
O O7 0.500000 0.500000 0.000000
O O8 0.345512 0.919066 0.991385
O O9 0.605084 0.772935 0.099947
O O10 0.500000 0.000000 0.000000
O O11 0.252045 0.687602 0.595405
#
# Coordination Sequence:
#
# PCOD9265952 Si02
#       5
#     8   8   8   8   8
#     4  11  21  34  61  83 117 154 193 232 298 340
#     4  10  19  37  58  85 114 152 192 243 286 343
#     4   9  17  36  58  79 113 151 188 237 283 334
#     4  10  21  38  56  85 116 154 191 241 287 345
#     4  10  21  35  60  83 115 153 198 237 284 350
#
# _framework density 19.445461999999999
#
# number of rings (size 3 to 8) (size 9 to 14) (size 15 to 20)
#    0.000    2.000    6.000    0.600    2.800    0.000 
#    0.000    4.000    0.000    4.800    0.000    0.000 
#    0.000    0.000    0.000    0.000    0.000    0.000 
#
# Total GULP energy -111379.724221 kJ/mol
# GULP energy per Si atom -5568.986211 kJ/mol
# Density = 1.940120 g / cm^3
# Si number density = 19.445462 Si / 1000 Ang^3
#
#
#
# Elastic Constant Matrix: (Units=GPa)
#
#
# Indices 1 2 3 4 5 6 
#
# 1 35.0628 5.8760 -14.0442 0.0000 4.8905 0.0000
# 2 5.8760 74.4089 -9.2699 0.0000 7.8816 0.0000
# 3 -14.0442 -9.2699 48.4137 0.0002 -10.7529 0.0000
# 4 0.0000 0.0000 0.0002 15.6600 0.0000 -3.9032
# 5 4.8905 7.8816 -10.7529 0.0000 18.4118 0.0000
# 6 0.0000 0.0000 0.0000 -3.9032 0.0000 20.1722
#
#
#
# Elastic Compliance Matrix: (Units=1/GPa)
#
#
# Indices 1 2 3 4 5 6 
#
# 1 0.032572 -0.001175 0.008519 0.000000 -0.003174 0.000000
# 2 -0.001175 0.014223 0.001263 0.000000 -0.005039 0.000000
# 3 0.008519 0.001263 0.026136 0.000000 0.012460 0.000000
# 4 0.000000 0.000000 0.000000 0.067093 0.000000 0.012982
# 5 -0.003174 -0.005039 0.012460 0.000000 0.064590 0.000000
# 6 0.000000 0.000000 0.000000 0.012982 0.000000 0.052085
#
#
# Mechanical properties :
#
#
# Convention : Reuss Voigt Hill
#
# Bulk Modulus (GPa) = 11.09307 13.66770 12.38039
# Shear Modulus (GPa) = 18.55063 22.53702 20.54383
#
# Velocity S-wave (km/s) = 3.09201 3.40808 3.25389
# Velocity P-wave (km/s) = 4.29703 4.74665 4.52743
#
# Compressibility (1/GPa) = 0.09014633
#
# Stress axis : x y z
#
# Youngs Moduli (GPa) = 30.70126 70.30804 38.26146
#
# Poissons Ratio (x) = 0.08259 -0.32595
# Poissons Ratio (y) = 0.03607 -0.04834
# Poissons Ratio (z) = -0.26154 -0.08883
#
# Static dielectric constant tensor:
#      x y z
#    x 1.758050 0.000000 0.002770 
#    y 0.000000 1.773100 0.000000 
#    z 0.002770 0.000000 1.667410 
# 
# From -- ./inp_files/165378.got.cif
#   From: 2010.05.17/outbox.cif.g08.bks.cpg/sg15_83_cif.got.tgz:165378.got - 2010.06.03 18:47:42.
