data_PCOD9265941
_publ_section_title
;
Structure prediction by ZEFSAII (Michael W. Deem and Ramdas Pophale) SiO2 
 PCOD9265941
Probable space group: C 2/C
;
_chemical_formula_sum "Si O2"
_cell_formula_units_Z 56
_cell_length_a 8.905153
_cell_length_b 16.473452
_cell_length_c 23.767552
_cell_angle_alpha 90.000000
_cell_angle_beta 128.215372
_cell_angle_gamma 90.000000
_cell_volume 2739.442595
_symmetry_space_group_name_H-M "C 2/C"
_symmetry_group_IT_number 15
_symmetry_cell_setting 'monoclinic'
loop_
_space_group_symop_operation_xyz
x,y,z
-x,y,1/2-z
-x,-y,-z
x,-y,1/2+z
1/2+x,1/2+y,z
1/2-x,1/2+y,1/2-z
1/2-x,1/2-y,-z
1/2+x,1/2-y,1/2+z
loop_
_atom_site_type_symbol
_atom_site_label
_atom_site_fract_x
_atom_site_fract_y
_atom_site_fract_z
Si Si1 0.789663 0.863713 0.037457
Si Si2 0.216285 0.523373 0.780458
Si Si3 0.554016 0.682910 0.697216
Si Si4 0.818328 0.348493 0.749757
Si Si5 0.044357 0.745615 0.027069
Si Si6 0.041102 0.021878 0.445177
Si Si7 0.447567 0.700370 0.093680
O O1 0.796650 0.959526 0.036264
O O2 0.872413 0.835907 0.116496
O O3 0.944631 0.825508 0.029746
O O4 0.584799 0.826106 0.978221
O O5 0.301393 0.607618 0.777238
O O6 0.222161 0.442075 0.742137
O O7 0.352129 0.498284 0.864476
O O8 0.000000 0.536664 0.750000
O O9 0.500000 0.686516 0.750000
O O10 0.629078 0.773031 0.697864
O O11 0.635648 0.314724 0.673542
O O12 0.000000 0.357819 0.750000
O O13 0.269740 0.735147 0.087592
O O14 0.019393 0.745235 0.953672
O O15 0.101453 0.112855 0.444990
O O16 0.000000 0.000000 0.500000
#
# Coordination Sequence:
#
# PCOD9265941 Si02
#       7
#     8   8   8   8   8   8   8
#     4  10  21  37  57  81 115 152 185 237 289 343
#     4   9  20  37  57  84 110 147 194 238 278 346
#     4  10  20  37  57  80 112 149 190 230 291 340
#     4   9  18  35  58  78 110 149 191 224 285 345
#     4  10  20  35  54  83 116 141 193 230 283 334
#     4  10  19  37  58  83 116 152 189 233 292 350
#     4  10  20  35  59  83 112 150 188 235 280 343
#
# _framework density 20.442114
#
# number of rings (size 3 to 8) (size 9 to 14) (size 15 to 20)
#    0.000    2.286    1.429    1.714    0.000    2.857 
#    2.571    5.000    0.000    0.000    0.000    0.000 
#    0.000    0.000    0.000    0.000    0.000    0.000 
#
# Total GULP energy -156077.718227 kJ/mol
# GULP energy per Si atom -5574.204222 kJ/mol
# Density = 2.039559 g / cm^3
# Si number density = 20.442114 Si / 1000 Ang^3
#
#
#
# Elastic Constant Matrix: (Units=GPa)
#
#
# Indices 1 2 3 4 5 6 
#
# 1 84.5075 19.8022 19.7259 0.0000 18.6575 0.0000
# 2 19.8022 114.2637 1.8701 0.0000 9.9734 0.0000
# 3 19.7259 1.8701 21.8696 0.0000 0.4331 0.0000
# 4 0.0000 0.0000 0.0000 22.6462 0.0000 -1.8761
# 5 18.6575 9.9734 0.4331 0.0000 31.9569 0.0000
# 6 0.0000 0.0000 0.0000 -1.8761 0.0000 21.4582
#
#
#
# Elastic Compliance Matrix: (Units=1/GPa)
#
#
# Indices 1 2 3 4 5 6 
#
# 1 0.018222 -0.002041 -0.016068 0.000000 -0.009784 0.000000
# 2 -0.002041 0.009237 0.001085 0.000000 -0.001706 0.000000
# 3 -0.016068 0.001085 0.059963 0.000000 0.008230 0.000000
# 4 0.000000 0.000000 0.000000 0.044480 0.000000 0.003889
# 5 -0.009784 -0.001706 0.008230 0.000000 0.037425 0.000000
# 6 0.000000 0.000000 0.000000 0.003889 0.000000 0.046942
#
#
# Mechanical properties :
#
#
# Convention : Reuss Voigt Hill
#
# Bulk Modulus (GPa) = 18.73586 33.71525 26.22556
# Shear Modulus (GPa) = 18.64925 27.16177 22.90551
#
# Velocity S-wave (km/s) = 3.02370 3.64911 3.35103
# Velocity P-wave (km/s) = 4.62337 5.85521 5.27537
#
# Compressibility (1/GPa) = 0.05337359
#
# Stress axis : x y z
#
# Youngs Moduli (GPa) = 54.87812 108.26586 16.67705
#
# Poissons Ratio (x) = 0.22097 0.26796
# Poissons Ratio (y) = 0.11201 -0.01809
# Poissons Ratio (z) = 0.88177 -0.11746
#
# Static dielectric constant tensor:
#      x y z
#    x 1.683120 0.000000 0.007560 
#    y 0.000000 1.765730 0.000000 
#    z 0.007560 0.000000 1.714080 
# 
# From -- ./inp_files/265315.got.cif
#   From: 2010.05.17/outbox.cif.g08.bks.cpg/sg15_133_cif.got.tgz:265315.got - 2010.06.03 18:47:42.
