data_PCOD9265130
_publ_section_title
;
Structure prediction by ZEFSAII (Michael W. Deem and Ramdas Pophale) SiO2 
 PCOD9265130
Probable space group: C 2/C
;
_chemical_formula_sum "Si O2"
_cell_formula_units_Z 48
_cell_length_a 34.587951
_cell_length_b 9.013862
_cell_length_c 20.252166
_cell_angle_alpha 90.000000
_cell_angle_beta 23.334639
_cell_angle_gamma 90.000000
_cell_volume 2500.994967
_symmetry_space_group_name_H-M "C 2/C"
_symmetry_group_IT_number 15
_symmetry_cell_setting 'monoclinic'
loop_
_space_group_symop_operation_xyz
x,y,z
-x,y,1/2-z
-x,-y,-z
x,-y,1/2+z
1/2+x,1/2+y,z
1/2-x,1/2+y,1/2-z
1/2-x,1/2-y,-z
1/2+x,1/2-y,1/2+z
loop_
_atom_site_type_symbol
_atom_site_label
_atom_site_fract_x
_atom_site_fract_y
_atom_site_fract_z
Si Si1 0.011412 0.297129 0.547224
Si Si2 0.621875 0.075356 0.359927
Si Si3 0.190301 0.897682 0.710580
Si Si4 0.805236 0.889925 0.038650
Si Si5 0.928534 0.008835 0.727413
Si Si6 0.142423 0.124138 0.890913
O O1 0.058192 0.451404 0.498216
O O2 0.101633 0.201758 0.378099
O O3 0.943823 0.344586 0.592183
O O4 0.954283 0.183783 0.683913
O O5 0.659778 0.204396 0.347363
O O6 0.707859 0.989703 0.187436
O O7 0.277332 0.780236 0.564952
O O8 0.149491 0.970717 0.707636
O O9 0.205665 0.023414 0.741842
O O10 0.835858 0.901817 0.066808
O O11 0.885125 0.954180 0.864181
O O12 0.029368 0.920707 0.555385
#
# Coordination Sequence:
#
# PCOD9265130 Si02
#       6
#     8   8   8   8   8   8
#     4   9  18  35  61  82 104 149 197 230 274 348
#     4  10  19  36  58  83 109 148 193 233 278 346
#     4  10  19  38  59  81 108 157 198 225 277 355
#     4  11  24  33  55  88 121 142 186 246 298 327
#     4  11  20  38  58  84 112 153 191 240 284 339
#     4  11  20  39  59  79 113 157 193 232 286 351
#
# _framework density 19.192363
#
# number of rings (size 3 to 8) (size 9 to 14) (size 15 to 20)
#    0.000    1.667    3.333    3.000    0.000    0.667 
#    0.000    0.000    0.000    6.000    0.000    0.000 
#    0.000    0.000    0.000    0.000    0.000    0.000 
#
# Total GULP energy -133905.921739 kJ/mol
# GULP energy per Si atom -5579.413406 kJ/mol
# Density = 1.914868 g / cm^3
# Si number density = 19.192363 Si / 1000 Ang^3
#
#
#
# Elastic Constant Matrix: (Units=GPa)
#
#
# Indices 1 2 3 4 5 6 
#
# 1 -20.4964 -11.8426 -29.9273 0.0000 -10.5494 -0.0001
# 2 -11.8426 116.7655 25.8849 0.0001 2.0358 0.0000
# 3 -29.9273 25.8849 35.4428 0.0000 3.8351 0.0000
# 4 0.0000 0.0001 0.0000 27.4684 0.0000 7.0674
# 5 -10.5494 2.0358 3.8351 0.0000 14.4621 0.0000
# 6 -0.0001 0.0000 0.0000 7.0674 0.0000 12.6755
#
#
#
# Elastic Compliance Matrix: (Units=1/GPa)
#
#
# Indices 1 2 3 4 5 6 
#
# 1 -0.019795 0.001946 -0.017033 0.000000 -0.010197 0.000000
# 2 0.001946 0.010032 -0.005852 0.000000 0.001559 0.000000
# 3 -0.017033 -0.005852 0.019934 0.000000 -0.016887 0.000000
# 4 0.000000 0.000000 0.000000 0.042503 0.000000 -0.023698
# 5 -0.010197 0.001559 -0.016887 0.000000 0.065967 0.000000
# 6 0.000000 0.000000 0.000000 -0.023698 0.000000 0.092105
#
#
# Mechanical properties :
#
#
# Convention : Reuss Voigt Hill
#
# Bulk Modulus (GPa) = -31.53814 11.10467 -10.21673
# Shear Modulus (GPa) = 20.65667 20.76100 20.70883
#
# Velocity S-wave (km/s) = 3.28425 3.29254 3.28840
# Velocity P-wave (km/s) = 1.44449 4.50033 3.01384
#
# Compressibility (1/GPa) = -0.03170764
#
# Stress axis : x y z
#
# Youngs Moduli (GPa) = -50.51691 99.68457 50.16668
#
# Poissons Ratio (x) = -0.19398 0.85447
# Poissons Ratio (y) = 0.09830 0.29358
# Poissons Ratio (z) = -0.86044 0.58335
#
# Static dielectric constant tensor:
#      x y z
#    x 1.663550 0.000000 -0.035130 
#    y 0.000000 1.695330 0.000000 
#    z -0.035130 0.000000 1.659230 
# 
# From -- ./inp_files/209286.got.cif
#   From: 2010.05.17/outbox.cif.g08.bks.cpg/sg15_105_cif.got.tgz:209286.got - 2010.06.03 18:47:42.
