data_PCOD9265092
_publ_section_title
;
Structure prediction by ZEFSAII (Michael W. Deem and Ramdas Pophale) SiO2 
 PCOD9265092
Probable space group: C 2/C
;
_chemical_formula_sum "Si O2"
_cell_formula_units_Z 56
_cell_length_a 7.567334
_cell_length_b 32.323675
_cell_length_c 9.769615
_cell_angle_alpha 90.000000
_cell_angle_beta 71.542323
_cell_angle_gamma 90.000000
_cell_volume 2266.756527
_symmetry_space_group_name_H-M "C 2/C"
_symmetry_group_IT_number 15
_symmetry_cell_setting 'monoclinic'
loop_
_space_group_symop_operation_xyz
x,y,z
-x,y,1/2-z
-x,-y,-z
x,-y,1/2+z
1/2+x,1/2+y,z
1/2-x,1/2+y,1/2-z
1/2-x,1/2-y,-z
1/2+x,1/2-y,1/2+z
loop_
_atom_site_type_symbol
_atom_site_label
_atom_site_fract_x
_atom_site_fract_y
_atom_site_fract_z
Si Si1 0.470976 0.123249 0.495364
Si Si2 0.187315 0.214878 0.837208
Si Si3 0.527912 0.784878 0.473072
Si Si4 0.293232 0.937795 0.229982
Si Si5 0.000000 0.903704 0.750000
Si Si6 0.159970 0.871532 0.441116
Si Si7 0.500000 0.937603 0.750000
Si Si8 0.659886 0.482251 0.862385
O O1 0.430585 0.170617 0.466641
O O2 0.312651 0.094642 0.601208
O O3 0.619602 0.129456 0.580031
O O4 0.556710 0.095372 0.354511
O O5 0.300906 0.223110 0.671090
O O6 0.345702 0.214132 0.917872
O O7 0.106095 0.168452 0.868419
O O8 0.032716 0.248826 0.909538
O O9 0.500000 0.942442 0.250000
O O10 0.148091 0.914863 0.366752
O O11 0.209751 0.983425 0.235011
O O12 0.071370 0.874090 0.612183
O O13 0.112594 0.938156 0.808518
O O14 0.363885 0.969049 0.866477
O O15 0.500000 0.500000 0.000000
#
# Coordination Sequence:
#
# PCOD9265092 Si02
#       8
#     8   8   8   8   4   8   4   8
#     4  10  21  37  62  85 121 171 213 253 319 395
#     4   9  17  30  55  87 125 152 197 262 321 374
#     4   9  17  32  54  90 120 156 203 256 317 383
#     4  10  20  37  63  83 122 168 209 259 319 382
#     4  12  24  38  60  94 130 158 212 282 310 376
#     4  10  19  36  57  92 123 159 207 263 327 373
#     4  12  26  44  62  92 128 178 218 262 332 388
#     4  12  26  42  60  93 128 167 222 273 322 379
#
# _framework density 24.704903999999999
#
# number of rings (size 3 to 8) (size 9 to 14) (size 15 to 20)
#    0.000    1.714    5.000    0.000    2.000    4.000 
#    0.000    0.000    0.000    0.857    0.000    0.000 
#    0.000    0.000    0.000    0.000    0.000    0.000 
#
# Total GULP energy -156012.339904 kJ/mol
# GULP energy per Si atom -5571.869282 kJ/mol
# Density = 2.464867 g / cm^3
# Si number density = 24.704904 Si / 1000 Ang^3
#
#
#
# Elastic Constant Matrix: (Units=GPa)
#
#
# Indices 1 2 3 4 5 6 
#
# 1 44.7128 36.7850 23.0290 0.0000 -0.2104 0.0000
# 2 36.7850 152.6685 78.5891 0.0000 -32.7064 0.0000
# 3 23.0290 78.5891 154.0588 0.0000 -38.9801 0.0000
# 4 0.0000 0.0000 0.0000 -0.4485 0.0000 21.4567
# 5 -0.2104 -32.7064 -38.9801 0.0000 20.7338 0.0000
# 6 0.0000 0.0000 0.0000 21.4567 0.0000 -35.2434
#
#
#
# Elastic Compliance Matrix: (Units=1/GPa)
#
#
# Indices 1 2 3 4 5 6 
#
# 1 0.035609 -0.011569 -0.007529 0.000000 -0.032042 0.000000
# 2 -0.011569 0.014020 0.000274 0.000000 0.022512 0.000000
# 3 -0.007529 0.000274 0.014432 0.000000 0.027487 0.000000
# 4 0.000000 0.000000 0.000000 0.079273 0.000000 0.048263
# 5 -0.032042 0.022512 0.027487 0.000000 0.135094 0.000000
# 6 0.000000 0.000000 0.000000 0.048263 0.000000 0.001009
#
#
# Mechanical properties :
#
#
# Convention : Reuss Voigt Hill
#
# Bulk Modulus (GPa) = 37.86031 69.80513 53.83272
# Shear Modulus (GPa) = 15.34269 11.21084 13.27676
#
# Velocity S-wave (km/s) = 2.49477 2.13255 2.32073
# Velocity P-wave (km/s) = 4.86382 5.86350 5.38690
#
# Compressibility (1/GPa) = 0.02641288
#
# Stress axis : x y z
#
# Youngs Moduli (GPa) = 28.08254 71.32907 69.29197
#
# Poissons Ratio (x) = 0.82519 0.52168
# Poissons Ratio (y) = 0.32488 -0.01896
# Poissons Ratio (z) = 0.21143 -0.01952
#
# Static dielectric constant tensor:
#      x y z
#    x 2.403510 0.000000 0.004750 
#    y 0.000000 1.950940 0.000000 
#    z 0.004750 0.000000 1.906800 
# 
# From -- ./inp_files/82523.got.cif
#   From: 2010.05.17/outbox.cif.g08.bks.cpg/sg15_42_cif.got.tgz:82523.got - 2010.06.03 18:47:42.
