data_PCOD9265633
_publ_section_title
;
Structure prediction by ZEFSAII (Michael W. Deem and Ramdas Pophale) SiO2 
 PCOD9265633
Probable space group: C 2/C
;
_chemical_formula_sum "Si O2"
_cell_formula_units_Z 60
_cell_length_a 12.101570
_cell_length_b 31.188896
_cell_length_c 17.675795
_cell_angle_alpha 90.000000
_cell_angle_beta 150.830182
_cell_angle_gamma 90.000000
_cell_volume 3251.666408
_symmetry_space_group_name_H-M "C 2/C"
_symmetry_group_IT_number 15
_symmetry_cell_setting 'monoclinic'
loop_
_space_group_symop_operation_xyz
x,y,z
-x,y,1/2-z
-x,-y,-z
x,-y,1/2+z
1/2+x,1/2+y,z
1/2-x,1/2+y,1/2-z
1/2-x,1/2-y,-z
1/2+x,1/2-y,1/2+z
loop_
_atom_site_type_symbol
_atom_site_label
_atom_site_fract_x
_atom_site_fract_y
_atom_site_fract_z
Si Si1 0.548902 0.792495 0.156902
Si Si2 0.723301 0.374493 0.718873
Si Si3 0.453550 0.124786 0.516397
Si Si4 0.808450 0.536457 0.878480
Si Si5 0.168946 0.976619 0.464095
Si Si6 0.000000 0.416068 0.750000
Si Si7 0.887970 0.067867 0.102589
Si Si8 0.889684 0.204865 0.998434
O O1 0.579984 0.834331 0.124499
O O2 0.306505 0.798795 0.054726
O O3 0.747576 0.790235 0.336789
O O4 0.526521 0.748168 0.098552
O O5 0.896794 0.387814 0.756696
O O6 0.572610 0.415545 0.653909
O O7 0.555092 0.335936 0.596216
O O8 0.845524 0.363147 0.871121
O O9 0.598047 0.081986 0.591542
O O10 0.262341 0.108117 0.461079
O O11 0.604829 0.523291 0.700699
O O12 0.728518 0.541467 0.916936
O O13 0.000000 0.500000 0.000000
O O14 0.297996 0.946995 0.600095
O O15 0.239823 0.026661 0.506677
O O16 0.000000 0.053174 0.250000
#
# Coordination Sequence:
#
# PCOD9265633 Si02
#       8
#     8   8   8   8   8   4   8   8
#     4  10  21  37  64  99 125 156 192 249 326 380
#     4  11  23  40  60  86 128 165 209 255 311 375
#     4  11  20  36  65  93 119 159 208 258 314 371
#     4  11  20  39  65  86 119 168 219 260 305 372
#     4  11  23  40  58  85 125 169 216 262 308 369
#     4  12  28  42  54  88 132 178 212 260 316 366
#     4  10  19  36  63  88 115 159 212 263 311 366
#     4  10  21  39  62  95 133 154 191 251 320 386
#
# _framework density 18.452076999999999
#
# number of rings (size 3 to 8) (size 9 to 14) (size 15 to 20)
#    0.000    1.333    5.333    1.600    1.867    1.600 
#    2.400    0.000    0.000    4.800    0.000    0.000 
#    0.000    0.000    0.000    0.000    0.000    0.000 
#
# Total GULP energy -167401.927487 kJ/mol
# GULP energy per Si atom -5580.064250 kJ/mol
# Density = 1.841008 g / cm^3
# Si number density = 18.452077 Si / 1000 Ang^3
#
#
#
# Elastic Constant Matrix: (Units=GPa)
#
#
# Indices 1 2 3 4 5 6 
#
# 1 70.3793 33.9301 16.9518 0.0000 5.0165 0.0000
# 2 33.9301 131.4278 59.4061 0.0000 -10.4184 0.0000
# 3 16.9518 59.4061 91.2662 -0.0002 -1.8862 -0.0001
# 4 0.0000 0.0000 -0.0002 36.1083 0.0000 1.9001
# 5 5.0165 -10.4184 -1.8862 0.0000 16.1882 0.0000
# 6 0.0000 0.0000 -0.0001 1.9001 0.0000 17.8720
#
#
#
# Elastic Compliance Matrix: (Units=1/GPa)
#
#
# Indices 1 2 3 4 5 6 
#
# 1 0.017315 -0.005133 -0.000054 0.000000 -0.008676 0.000000
# 2 -0.005133 0.012947 -0.007286 0.000000 0.009074 0.000000
# 3 -0.000054 -0.007286 0.015651 0.000000 -0.002849 0.000000
# 4 0.000000 0.000000 0.000000 0.027850 0.000000 -0.002961
# 5 -0.008676 0.009074 -0.002849 0.000000 0.069970 0.000000
# 6 0.000000 0.000000 0.000000 -0.002961 0.000000 0.056268
#
#
# Mechanical properties :
#
#
# Convention : Reuss Voigt Hill
#
# Bulk Modulus (GPa) = 47.69787 57.07213 52.38500
# Shear Modulus (GPa) = 21.55764 26.21939 23.88851
#
# Velocity S-wave (km/s) = 3.42175 3.77363 3.60199
# Velocity P-wave (km/s) = 6.44336 7.06995 6.76391
#
# Compressibility (1/GPa) = 0.02096530
#
# Stress axis : x y z
#
# Youngs Moduli (GPa) = 57.75349 77.23980 63.89486
#
# Poissons Ratio (x) = 0.39651 0.00345
# Poissons Ratio (y) = 0.29648 0.46554
# Poissons Ratio (z) = 0.00312 0.56278
#
# Static dielectric constant tensor:
#      x y z
#    x 1.656380 0.000000 0.033770 
#    y 0.000000 1.623660 0.000000 
#    z 0.033770 0.000000 1.668560 
# 
# From -- ./inp_files/201416.got.cif
#   From: 2010.05.17/outbox.cif.g08.bks.cpg/sg15_101_cif.got.tgz:201416.got - 2010.06.03 18:47:42.
