data_PCOD9265464
_publ_section_title
;
Structure prediction by ZEFSAII (Michael W. Deem and Ramdas Pophale) SiO2 
 PCOD9265464
Probable space group: C 2/C
;
_chemical_formula_sum "Si O2"
_cell_formula_units_Z 48
_cell_length_a 28.163579
_cell_length_b 9.183389
_cell_length_c 18.581089
_cell_angle_alpha 90.000000
_cell_angle_beta 24.719507
_cell_angle_gamma 90.000000
_cell_volume 2009.654814
_symmetry_space_group_name_H-M "C 2/C"
_symmetry_group_IT_number 15
_symmetry_cell_setting 'monoclinic'
loop_
_space_group_symop_operation_xyz
x,y,z
-x,y,1/2-z
-x,-y,-z
x,-y,1/2+z
1/2+x,1/2+y,z
1/2-x,1/2+y,1/2-z
1/2-x,1/2-y,-z
1/2+x,1/2-y,1/2+z
loop_
_atom_site_type_symbol
_atom_site_label
_atom_site_fract_x
_atom_site_fract_y
_atom_site_fract_z
Si Si1 0.102751 0.112777 0.445028
Si Si2 0.461815 0.110755 0.155734
Si Si3 0.192402 0.170883 0.177410
Si Si4 0.088204 0.872890 0.192286
Si Si5 0.075886 0.664684 0.708691
Si Si6 0.764227 0.495040 0.342573
O O1 0.131504 0.079026 0.323243
O O2 0.206875 0.065894 0.351936
O O3 0.068622 0.284972 0.494351
O O4 0.990273 0.049248 0.639135
O O5 0.381738 0.221039 0.311549
O O6 0.388908 0.058363 0.187863
O O7 0.488954 0.970199 0.165702
O O8 0.115668 0.230469 0.217881
O O9 0.234651 0.321001 0.157582
O O10 0.307010 0.104579 0.987034
O O11 0.000000 0.835799 0.250000
O O12 0.186483 0.960074 0.018232
O O13 0.000000 0.732146 0.750000
#
# Coordination Sequence:
#
# PCOD9265464 Si02
#       6
#     8   8   8   8   8   8
#     4   9  21  36  56  89 120 149 198 248 288 349
#     4   9  19  35  63  88 110 152 207 241 286 355
#     4  10  23  41  59  91 121 157 198 244 304 350
#     4   8  16  33  56  83 112 150 196 238 288 343
#     4  10  22  39  64  86 119 160 199 243 295 362
#     4  10  19  36  61  87 119 158 194 249 298 348
#
# _framework density 23.884699000000001
#
# number of rings (size 3 to 8) (size 9 to 14) (size 15 to 20)
#    1.000    1.667    0.000    1.000    0.000    7.333 
#    0.000    0.000    0.000   11.000    0.000    0.000 
#    0.000    0.000    0.000    0.000    0.000    0.000 
#
# Total GULP energy -133947.327734 kJ/mol
# GULP energy per Si atom -5581.138656 kJ/mol
# Density = 2.383034 g / cm^3
# Si number density = 23.884699 Si / 1000 Ang^3
#
#
#
# Elastic Constant Matrix: (Units=GPa)
#
#
# Indices 1 2 3 4 5 6 
#
# 1 156.6498 8.2822 47.2713 0.0000 3.5344 0.0000
# 2 8.2822 30.0778 -0.5037 -0.0006 -17.2330 0.0003
# 3 47.2713 -0.5037 86.7643 -0.0004 22.2626 0.0002
# 4 0.0000 -0.0006 -0.0004 21.7430 0.0002 -0.1839
# 5 3.5344 -17.2330 22.2626 0.0002 34.9924 -0.0001
# 6 0.0000 0.0003 0.0002 -0.1839 -0.0001 4.0967
#
#
#
# Elastic Compliance Matrix: (Units=1/GPa)
#
#
# Indices 1 2 3 4 5 6 
#
# 1 0.007828 -0.001378 -0.004656 0.000000 0.001493 0.000000
# 2 -0.001378 0.050034 -0.006354 0.000001 0.028822 -0.000003
# 3 -0.004656 -0.006354 0.017577 0.000000 -0.013842 0.000000
# 4 0.000000 0.000001 0.000000 0.046009 0.000000 0.002065
# 5 0.001493 0.028822 -0.013842 0.000000 0.051427 -0.000001
# 6 0.000000 -0.000003 0.000000 0.002065 -0.000001 0.244193
#
#
# Mechanical properties :
#
#
# Convention : Reuss Voigt Hill
#
# Bulk Modulus (GPa) = 19.73854 42.62128 31.17991
# Shear Modulus (GPa) = 10.89963 26.72923 18.81443
#
# Velocity S-wave (km/s) = 2.13854 3.34892 2.80968
# Velocity P-wave (km/s) = 3.79207 5.73036 4.85885
#
# Compressibility (1/GPa) = 0.05066232
#
# Stress axis : x y z
#
# Youngs Moduli (GPa) = 127.74982 19.98642 56.89338
#
# Poissons Ratio (x) = 0.02754 0.26488
# Poissons Ratio (y) = 0.17606 0.36151
# Poissons Ratio (z) = 0.59478 0.12700
#
# Static dielectric constant tensor:
#      x y z
#    x 1.910440 0.000000 0.016090 
#    y 0.000000 1.890710 0.000000 
#    z 0.016090 0.000000 1.958680 
# 
# From -- ./inp_files/222267.got.cif
#   From: 2010.05.17/outbox.cif.g08.bks.cpg/sg15_112_cif.got.tgz:222267.got - 2010.06.03 18:47:42.
