data_PCOD9265652
_publ_section_title
;
Structure prediction by ZEFSAII (Michael W. Deem and Ramdas Pophale) SiO2 
 PCOD9265652
Probable space group: C 2/C
;
_chemical_formula_sum "Si O2"
_cell_formula_units_Z 48
_cell_length_a 11.249550
_cell_length_b 15.684983
_cell_length_c 15.498384
_cell_angle_alpha 90.000000
_cell_angle_beta 80.469407
_cell_angle_gamma 90.000000
_cell_volume 2696.928569
_symmetry_space_group_name_H-M "C 2/C"
_symmetry_group_IT_number 15
_symmetry_cell_setting 'monoclinic'
loop_
_space_group_symop_operation_xyz
x,y,z
-x,y,1/2-z
-x,-y,-z
x,-y,1/2+z
1/2+x,1/2+y,z
1/2-x,1/2+y,1/2-z
1/2-x,1/2-y,-z
1/2+x,1/2-y,1/2+z
loop_
_atom_site_type_symbol
_atom_site_label
_atom_site_fract_x
_atom_site_fract_y
_atom_site_fract_z
Si Si1 0.323862 0.491841 0.444369
Si Si2 0.439748 0.755773 0.465541
Si Si3 0.793695 0.315960 0.067823
Si Si4 0.076990 0.093563 0.911073
Si Si5 0.747422 0.835760 0.881993
Si Si6 0.139662 0.217674 0.756681
O O1 0.235205 0.412001 0.457796
O O2 0.342076 0.535096 0.536317
O O3 0.456279 0.457403 0.401873
O O4 0.280748 0.565575 0.384914
O O5 0.565723 0.799714 0.431646
O O6 0.462240 0.673456 0.524010
O O7 0.349830 0.815573 0.530921
O O8 0.365336 0.719550 0.393530
O O9 0.716065 0.299557 0.162712
O O10 0.750000 0.250000 0.000000
O O11 0.141187 0.136906 0.822045
O O12 0.692266 0.798580 0.801606
O O13 0.000000 0.231309 0.750000
#
# Coordination Sequence:
#
# PCOD9265652 Si02
#       6
#     8   8   8   8   8   8
#     4  10  19  36  63  91 114 146 208 247 296 347
#     4   9  18  37  61  83 120 157 193 236 307 366
#     4  12  22  37  59  92 121 159 197 245 297 360
#     4   9  18  38  63  87 114 158 204 246 289 358
#     4   9  20  38  61  86 113 158 199 245 297 357
#     4  11  21  40  62  82 120 163 199 241 303 357
#
# _framework density 17.798023000000001
#
# number of rings (size 3 to 8) (size 9 to 14) (size 15 to 20)
#    0.000    2.000    3.333    2.000    0.000    1.333 
#    3.000    3.333    3.667    0.000    0.000    0.000 
#    0.000    0.000    0.000    0.000    0.000    0.000 
#
# Total GULP energy -133931.218078 kJ/mol
# GULP energy per Si atom -5580.467420 kJ/mol
# Density = 1.775751 g / cm^3
# Si number density = 17.798023 Si / 1000 Ang^3
#
#
#
# Elastic Constant Matrix: (Units=GPa)
#
#
# Indices 1 2 3 4 5 6 
#
# 1 131.5933 63.9859 44.0374 0.0000 -4.1553 0.0000
# 2 63.9859 131.7799 46.7576 0.0000 4.6762 0.0000
# 3 44.0374 46.7576 92.8985 0.0000 -1.0117 0.0000
# 4 0.0000 0.0000 0.0000 20.8950 0.0000 6.4706
# 5 -4.1553 4.6762 -1.0117 0.0000 18.8237 0.0000
# 6 0.0000 0.0000 0.0000 6.4706 0.0000 40.1725
#
#
#
# Elastic Compliance Matrix: (Units=1/GPa)
#
#
# Indices 1 2 3 4 5 6 
#
# 1 0.010773 -0.004320 -0.002897 0.000000 0.003296 0.000000
# 2 -0.004320 0.011094 -0.003579 0.000000 -0.003902 0.000000
# 3 -0.002897 -0.003579 0.013950 0.000000 0.000999 0.000000
# 4 0.000000 0.000000 0.000000 0.050371 0.000000 -0.008113
# 5 0.003296 -0.003902 0.000999 0.000000 0.054875 0.000000
# 6 0.000000 0.000000 0.000000 -0.008113 0.000000 0.026199
#
#
# Mechanical properties :
#
#
# Convention : Reuss Voigt Hill
#
# Bulk Modulus (GPa) = 70.29153 73.98149 72.13651
# Shear Modulus (GPa) = 25.82713 29.41098 27.61905
#
# Velocity S-wave (km/s) = 3.81349 4.06949 3.94357
# Velocity P-wave (km/s) = 7.67920 7.98364 7.83290
#
# Compressibility (1/GPa) = 0.01422646
#
# Stress axis : x y z
#
# Youngs Moduli (GPa) = 92.82295 90.13697 71.68682
#
# Poissons Ratio (x) = 0.38940 0.20765
# Poissons Ratio (y) = 0.40101 0.25653
# Poissons Ratio (z) = 0.26887 0.32256
#
# Static dielectric constant tensor:
#      x y z
#    x 1.616560 0.000000 0.027030 
#    y 0.000000 1.611160 0.000000 
#    z 0.027030 0.000000 1.609410 
# 
# From -- ./inp_files/143522.got.cif
#   From: 2010.05.17/outbox.cif.g08.bks.cpg/sg15_72_cif.got.tgz:143522.got - 2010.06.03 18:47:42.
