data_PCOD9265262
_publ_section_title
;
Structure prediction by ZEFSAII (Michael W. Deem and Ramdas Pophale) SiO2 
 PCOD9265262
Probable space group: C 2/C
;
_chemical_formula_sum "Si O2"
_cell_formula_units_Z 40
_cell_length_a 19.322518
_cell_length_b 9.689340
_cell_length_c 17.183285
_cell_angle_alpha 90.000000
_cell_angle_beta 147.535977
_cell_angle_gamma 90.000000
_cell_volume 1726.840724
_symmetry_space_group_name_H-M "C 2/C"
_symmetry_group_IT_number 15
_symmetry_cell_setting 'monoclinic'
loop_
_space_group_symop_operation_xyz
x,y,z
-x,y,1/2-z
-x,-y,-z
x,-y,1/2+z
1/2+x,1/2+y,z
1/2-x,1/2+y,1/2-z
1/2-x,1/2-y,-z
1/2+x,1/2-y,1/2+z
loop_
_atom_site_type_symbol
_atom_site_label
_atom_site_fract_x
_atom_site_fract_y
_atom_site_fract_z
Si Si1 0.000000 0.939940 0.250000
Si Si2 0.758916 0.888763 0.460162
Si Si3 0.500000 0.048343 0.250000
Si Si4 0.876456 0.071164 0.785111
Si Si5 0.929837 0.181437 0.997563
Si Si6 0.425834 0.996202 0.012732
O O1 0.115398 0.032164 0.391060
O O2 0.070748 0.866389 0.245744
O O3 0.750000 0.750000 0.500000
O O4 0.632235 0.971076 0.357186
O O5 0.792499 0.868212 0.401974
O O6 0.532087 0.087434 0.372335
O O7 0.725824 0.032691 0.641954
O O8 0.913551 0.173710 0.889831
O O9 0.956657 0.927435 0.874338
O O10 0.945902 0.332163 0.050130
O O11 0.500000 0.000000 0.000000
#
# Coordination Sequence:
#
# PCOD9265262 Si02
#       6
#     4   8   4   8   8   8
#     4  10  19  36  59  86 120 164 217 249 306 382
#     4  11  19  32  58  90 123 158 202 263 316 366
#     4  12  23  36  63  98 130 162 207 267 326 364
#     4  10  22  41  62  92 127 173 213 259 315 383
#     4  10  23  40  64  91 128 170 214 259 321 379
#     4  12  26  40  66  97 134 165 208 271 324 380
#
# _framework density 23.163689000000002
#
# number of rings (size 3 to 8) (size 9 to 14) (size 15 to 20)
#    0.000    1.200    4.000    1.800    8.400    0.000 
#    0.000    1.000    0.000    2.400    0.000    0.000 
#    0.000    0.000    0.000    0.000    0.000    0.000 
#
# Total GULP energy -111442.737064 kJ/mol
# GULP energy per Si atom -5572.136853 kJ/mol
# Density = 2.311097 g / cm^3
# Si number density = 23.163689 Si / 1000 Ang^3
#
#
#
# Elastic Constant Matrix: (Units=GPa)
#
#
# Indices 1 2 3 4 5 6 
#
# 1 233.1900 4.6007 55.7336 0.0000 -6.9842 0.0000
# 2 4.6007 52.7357 12.0086 0.0000 2.7448 0.0000
# 3 55.7336 12.0086 113.4071 0.0000 14.7167 0.0000
# 4 0.0000 0.0000 0.0000 11.2644 0.0000 1.5412
# 5 -6.9842 2.7448 14.7167 0.0000 58.6899 0.0000
# 6 0.0000 0.0000 0.0000 1.5412 0.0000 9.2327
#
#
#
# Elastic Compliance Matrix: (Units=1/GPa)
#
#
# Indices 1 2 3 4 5 6 
#
# 1 0.004945 0.000096 -0.002601 0.000000 0.001236 0.000000
# 2 0.000096 0.019442 -0.002057 0.000000 -0.000382 0.000000
# 3 -0.002601 -0.002057 0.010689 0.000000 -0.002894 0.000000
# 4 0.000000 0.000000 0.000000 0.090851 0.000000 -0.015166
# 5 0.001236 -0.000382 -0.002894 0.000000 0.017929 0.000000
# 6 0.000000 0.000000 0.000000 -0.015166 0.000000 0.110842
#
#
# Mechanical properties :
#
#
# Convention : Reuss Voigt Hill
#
# Bulk Modulus (GPa) = 38.52864 60.44652 49.48758
# Shear Modulus (GPa) = 18.35049 37.63671 27.99360
#
# Velocity S-wave (km/s) = 2.81767 4.03527 3.48014
# Velocity P-wave (km/s) = 5.22064 6.91833 6.12855
#
# Compressibility (1/GPa) = 0.02595472
#
# Stress axis : x y z
#
# Youngs Moduli (GPa) = 202.22072 51.43435 93.55180
#
# Poissons Ratio (x) = -0.00496 0.24332
# Poissons Ratio (y) = -0.01951 0.19240
# Poissons Ratio (z) = 0.52595 0.10578
#
# Static dielectric constant tensor:
#      x y z
#    x 1.989840 0.000000 -0.130640 
#    y 0.000000 1.953090 0.000000 
#    z -0.130640 0.000000 1.877160 
# 
# From -- ./inp_files/54249.got.cif
#   From: 2010.05.17/outbox.cif.g08.bks.cpg/sg15_28_cif.got.tgz:54249.got - 2010.06.03 18:47:42.
