data_PCOD9265812
_publ_section_title
;
Structure prediction by ZEFSAII (Michael W. Deem and Ramdas Pophale) SiO2 
 PCOD9265812
Probable space group: C 2/C
;
_chemical_formula_sum "Si O2"
_cell_formula_units_Z 36
_cell_length_a 9.700329
_cell_length_b 10.369400
_cell_length_c 13.604925
_cell_angle_alpha 90.000000
_cell_angle_beta 86.300089
_cell_angle_gamma 90.000000
_cell_volume 1365.620751
_symmetry_space_group_name_H-M "C 2/C"
_symmetry_group_IT_number 15
_symmetry_cell_setting 'monoclinic'
loop_
_space_group_symop_operation_xyz
x,y,z
-x,y,1/2-z
-x,-y,-z
x,-y,1/2+z
1/2+x,1/2+y,z
1/2-x,1/2+y,1/2-z
1/2-x,1/2-y,-z
1/2+x,1/2-y,1/2+z
loop_
_atom_site_type_symbol
_atom_site_label
_atom_site_fract_x
_atom_site_fract_y
_atom_site_fract_z
Si Si1 0.833615 0.118669 0.969661
Si Si2 0.905286 0.532457 0.401214
Si Si3 0.700059 0.738251 0.725937
Si Si4 0.606611 0.254432 0.449915
Si Si5 0.500000 0.183364 0.750000
O O1 0.824738 0.122444 0.851392
O O2 0.990759 0.145337 0.993975
O O3 0.750000 0.250000 0.000000
O O4 0.737629 0.019181 0.031037
O O5 0.863210 0.632367 0.315906
O O6 0.024574 0.616156 0.450589
O O7 0.960468 0.407314 0.343705
O O8 0.637960 0.712206 0.835082
O O9 0.863192 0.759440 0.729757
O O10 0.750000 0.250000 0.500000
#
# Coordination Sequence:
#
# PCOD9265812 Si02
#       5
#     8   8   8   8   4
#     4   8  18  37  63  86 127 173 203 265 323 371
#     4  10  21  45  62  93 132 166 215 268 317 382
#     4  10  21  37  65  92 129 166 215 260 320 381
#     4  10  19  36  68  92 128 171 204 268 328 369
#     4  12  24  38  72  96 122 184 212 260 332 384
#
# _framework density 26.361637999999999
#
# number of rings (size 3 to 8) (size 9 to 14) (size 15 to 20)
#    0.000    2.667    2.222    2.000    9.333    0.889 
#    0.000    1.111   24.444    0.000    0.000    0.000 
#    0.000    0.000    0.000    0.000    0.000    0.000 
#
# Total GULP energy -100849.166062 kJ/mol
# GULP energy per Si atom -5602.731448 kJ/mol
# Density = 2.630164 g / cm^3
# Si number density = 26.361638 Si / 1000 Ang^3
#
#
#
# Elastic Constant Matrix: (Units=GPa)
#
#
# Indices 1 2 3 4 5 6 
#
# 1 281.4024 31.6467 58.3844 0.0000 5.5020 0.0000
# 2 31.6467 70.4104 9.7901 0.0000 -4.7970 0.0000
# 3 58.3844 9.7901 167.5323 0.0000 -19.5883 0.0000
# 4 0.0000 0.0000 0.0000 18.0939 0.0000 -4.9724
# 5 5.5020 -4.7970 -19.5883 0.0000 58.0604 0.0000
# 6 0.0000 0.0000 0.0000 -4.9724 0.0000 30.2182
#
#
#
# Elastic Compliance Matrix: (Units=1/GPa)
#
#
# Indices 1 2 3 4 5 6 
#
# 1 0.004062 -0.001695 -0.001434 0.000000 -0.001009 0.000000
# 2 -0.001695 0.015075 -0.000131 0.000000 0.001362 0.000000
# 3 -0.001434 -0.000131 0.006758 0.000000 0.002405 0.000000
# 4 0.000000 0.000000 0.000000 0.057885 0.000000 0.009525
# 5 -0.001009 0.001362 0.002405 0.000000 0.018243 0.000000
# 6 0.000000 0.000000 0.000000 0.009525 0.000000 0.034660
#
#
# Mechanical properties :
#
#
# Convention : Reuss Voigt Hill
#
# Bulk Modulus (GPa) = 51.61553 79.88749 65.75151
# Shear Modulus (GPa) = 33.40895 49.24277 41.32586
#
# Velocity S-wave (km/s) = 3.56382 4.32669 3.96365
# Velocity P-wave (km/s) = 6.04622 7.43845 6.77818
#
# Compressibility (1/GPa) = 0.01937401
#
# Stress axis : x y z
#
# Youngs Moduli (GPa) = 246.21159 66.33407 147.97880
#
# Poissons Ratio (x) = 0.11242 0.21225
# Poissons Ratio (y) = 0.41728 0.01940
# Poissons Ratio (z) = 0.35315 0.00870
#
# Static dielectric constant tensor:
#      x y z
#    x 2.056790 0.000000 0.030220 
#    y 0.000000 2.140560 0.000000 
#    z 0.030220 0.000000 2.178170 
# 
# From -- ./inp_files/132808.got.cif
#   From: 2010.05.17/outbox.cif.g08.bks.cpg/sg15_67_cif.got.tgz:132808.got - 2010.06.03 18:47:42.
