data_PCOD9265507
_publ_section_title
;
Structure prediction by ZEFSAII (Michael W. Deem and Ramdas Pophale) SiO2 
 PCOD9265507
Probable space group: C 2/C
;
_chemical_formula_sum "Si O2"
_cell_formula_units_Z 48
_cell_length_a 8.529590
_cell_length_b 22.628600
_cell_length_c 11.128387
_cell_angle_alpha 90.000000
_cell_angle_beta 87.276247
_cell_angle_gamma 90.000000
_cell_volume 2145.493212
_symmetry_space_group_name_H-M "C 2/C"
_symmetry_group_IT_number 15
_symmetry_cell_setting 'monoclinic'
loop_
_space_group_symop_operation_xyz
x,y,z
-x,y,1/2-z
-x,-y,-z
x,-y,1/2+z
1/2+x,1/2+y,z
1/2-x,1/2+y,1/2-z
1/2-x,1/2-y,-z
1/2+x,1/2-y,1/2+z
loop_
_atom_site_type_symbol
_atom_site_label
_atom_site_fract_x
_atom_site_fract_y
_atom_site_fract_z
Si Si1 0.813170 0.669314 0.223739
Si Si2 0.396583 0.737485 0.079083
Si Si3 0.172142 0.473746 0.010952
Si Si4 0.607306 0.714899 0.866349
Si Si5 0.587192 0.143893 0.634137
Si Si6 0.308066 0.032843 0.246907
O O1 0.682960 0.703225 0.308865
O O2 0.828301 0.717796 0.116928
O O3 0.764052 0.601688 0.236724
O O4 0.000000 0.665630 0.250000
O O5 0.475933 0.800316 0.107498
O O6 0.250000 0.750000 0.000000
O O7 0.513091 0.700168 0.990303
O O8 0.132376 0.404209 0.032069
O O9 0.246730 0.500316 0.129674
O O10 0.249483 0.490554 0.880730
O O11 0.000000 0.500000 0.000000
O O12 0.500000 0.715147 0.750000
O O13 0.748413 0.671707 0.834544
O O14 0.500000 0.112750 0.750000
O O15 0.500000 0.030127 0.250000
#
# Coordination Sequence:
#
# PCOD9265507 Si02
#       6
#     8   8   8   8   8   8
#     4  10  19  36  61  91 132 171 220 266 343 403
#     4  12  22  36  60  93 128 177 212 268 346 407
#     4  10  21  38  60  97 129 170 230 283 328 386
#     4  11  22  41  57  93 134 171 217 273 343 411
#     4  12  23  38  62  96 129 169 226 282 334 403
#     4   9  19  36  59  90 129 172 218 282 327 388
#
# _framework density 22.372477
#
# number of rings (size 3 to 8) (size 9 to 14) (size 15 to 20)
#    0.000    1.333    5.000    3.000    4.667    0.000 
#    3.000    0.000    0.000    1.000    4.333    0.000 
#    0.000    0.000    0.000    0.000    0.000    0.000 
#
# Total GULP energy -133688.248374 kJ/mol
# GULP energy per Si atom -5570.343682 kJ/mol
# Density = 2.232156 g / cm^3
# Si number density = 22.372477 Si / 1000 Ang^3
#
#
#
# Elastic Constant Matrix: (Units=GPa)
#
#
# Indices 1 2 3 4 5 6 
#
# 1 74.5955 21.4016 26.9706 0.0000 0.6240 0.0000
# 2 21.4016 94.3273 34.2036 0.0000 8.0323 0.0000
# 3 26.9706 34.2036 160.5653 0.0000 -14.9763 0.0000
# 4 0.0000 0.0000 0.0000 20.7288 0.0000 4.3588
# 5 0.6240 8.0323 -14.9763 0.0000 34.7273 0.0000
# 6 0.0000 0.0000 0.0000 4.3588 0.0000 14.8170
#
#
#
# Elastic Compliance Matrix: (Units=1/GPa)
#
#
# Indices 1 2 3 4 5 6 
#
# 1 0.014879 -0.002609 -0.001992 0.000000 -0.000523 0.000000
# 2 -0.002609 0.012468 -0.002586 0.000000 -0.003952 0.000000
# 3 -0.001992 -0.002586 0.007473 0.000000 0.003857 0.000000
# 4 0.000000 0.000000 0.000000 0.051423 0.000000 -0.015127
# 5 -0.000523 -0.003952 0.003857 0.000000 0.031383 0.000000
# 6 0.000000 0.000000 0.000000 -0.015127 0.000000 0.071940
#
#
# Mechanical properties :
#
#
# Convention : Reuss Voigt Hill
#
# Bulk Modulus (GPa) = 48.91183 54.95998 51.93590
# Shear Modulus (GPa) = 23.72420 30.51545 27.11983
#
# Velocity S-wave (km/s) = 3.25994 3.69721 3.48544
# Velocity P-wave (km/s) = 6.00663 6.54561 6.28190
#
# Compressibility (1/GPa) = 0.02044495
#
# Stress axis : x y z
#
# Youngs Moduli (GPa) = 67.20959 80.20770 133.80945
#
# Poissons Ratio (x) = 0.20925 0.26659
# Poissons Ratio (y) = 0.17534 0.34607
# Poissons Ratio (z) = 0.13390 0.20744
#
# Static dielectric constant tensor:
#      x y z
#    x 1.780690 0.000000 0.002900 
#    y 0.000000 1.882260 0.000000 
#    z 0.002900 0.000000 1.951740 
# 
# From -- ./inp_files/79165.got.cif
#   From: 2010.05.17/outbox.cif.g08.bks.cpg/sg15_40_cif.got.tgz:79165.got - 2010.06.03 18:47:42.
