data_PCOD9265869
_publ_section_title
;
Structure prediction by ZEFSAII (Michael W. Deem and Ramdas Pophale) SiO2 
 PCOD9265869
Probable space group: C 2/C
;
_chemical_formula_sum "Si O2"
_cell_formula_units_Z 56
_cell_length_a 23.500792
_cell_length_b 14.651899
_cell_length_c 8.543530
_cell_angle_alpha 90.000000
_cell_angle_beta 121.991916
_cell_angle_gamma 90.000000
_cell_volume 2495.011378
_symmetry_space_group_name_H-M "C 2/C"
_symmetry_group_IT_number 15
_symmetry_cell_setting 'monoclinic'
loop_
_space_group_symop_operation_xyz
x,y,z
-x,y,1/2-z
-x,-y,-z
x,-y,1/2+z
1/2+x,1/2+y,z
1/2-x,1/2+y,1/2-z
1/2-x,1/2-y,-z
1/2+x,1/2-y,1/2+z
loop_
_atom_site_type_symbol
_atom_site_label
_atom_site_fract_x
_atom_site_fract_y
_atom_site_fract_z
Si Si1 0.618206 0.952127 0.514412
Si Si2 0.567311 0.558873 0.613466
Si Si3 0.834437 0.728642 0.940296
Si Si4 0.790395 0.580730 0.070186
Si Si5 0.542331 0.747103 0.657534
Si Si6 0.342773 0.561452 0.464325
Si Si7 0.566546 0.880926 0.128355
O O1 0.664773 0.902097 0.709043
O O2 0.577581 0.894471 0.328201
O O3 0.667654 0.012654 0.477825
O O4 0.572418 0.023364 0.543943
O O5 0.500000 0.500000 0.500000
O O6 0.551177 0.663824 0.550175
O O7 0.593837 0.567299 0.828109
O O8 0.629323 0.510339 0.618081
O O9 0.776211 0.667734 0.935706
O O10 0.888439 0.725564 0.160763
O O11 0.825014 0.834792 0.885525
O O12 0.870626 0.677770 0.849490
O O13 0.723334 0.534160 0.037327
O O14 0.500000 0.717996 0.750000
O O15 0.500539 0.828637 0.519938
#
# Coordination Sequence:
#
# PCOD9265869 Si02
#       7
#     8   8   8   8   8   8   8
#     4   9  19  34  58  85 114 149 189 237 283 340
#     4  11  21  37  59  84 112 147 193 239 287 345
#     4   9  19  36  56  79 115 156 191 234 284 341
#     4  10  19  37  56  82 116 150 194 238 281 341
#     4   9  18  36  58  82 117 155 189 234 290 344
#     4  11  22  37  60  84 110 154 195 236 291 340
#     4   9  17  35  57  82 117 151 186 232 288 341
#
# _framework density 22.444787000000002
#
# number of rings (size 3 to 8) (size 9 to 14) (size 15 to 20)
#    0.000    2.286    0.000    4.286    0.000    0.000 
#    0.000   29.286    0.000    3.429    0.000    0.000 
#    0.000    0.000    0.000    0.000    0.000    0.000 
#
# Total GULP energy -156285.088108 kJ/mol
# GULP energy per Si atom -5581.610290 kJ/mol
# Density = 2.239370 g / cm^3
# Si number density = 22.444787 Si / 1000 Ang^3
#
#
#
# Elastic Constant Matrix: (Units=GPa)
#
#
# Indices 1 2 3 4 5 6 
#
# 1 110.7165 42.8290 18.1712 0.0000 -10.4657 0.0000
# 2 42.8290 93.9748 32.9971 0.0000 -16.5783 0.0000
# 3 18.1712 32.9971 74.5768 0.0000 -6.3905 0.0000
# 4 0.0000 0.0000 0.0000 20.4488 0.0000 -7.2481
# 5 -10.4657 -16.5783 -6.3905 0.0000 26.5469 0.0000
# 6 0.0000 0.0000 0.0000 -7.2481 0.0000 42.1125
#
#
#
# Elastic Compliance Matrix: (Units=1/GPa)
#
#
# Indices 1 2 3 4 5 6 
#
# 1 0.011027 -0.004600 -0.000536 0.000000 0.001345 0.000000
# 2 -0.004600 0.015788 -0.005284 0.000000 0.006774 0.000000
# 3 -0.000536 -0.005284 0.015905 0.000000 0.000317 0.000000
# 4 0.000000 0.000000 0.000000 0.052080 0.000000 0.008964
# 5 0.001345 0.006774 0.000317 0.000000 0.042506 0.000000
# 6 0.000000 0.000000 0.000000 0.008964 0.000000 0.025289
#
#
# Mechanical properties :
#
#
# Convention : Reuss Voigt Hill
#
# Bulk Modulus (GPa) = 45.70595 51.91808 48.81202
# Shear Modulus (GPa) = 26.21537 30.17302 28.19420
#
# Velocity S-wave (km/s) = 3.42130 3.67048 3.54808
# Velocity P-wave (km/s) = 6.00125 6.41443 6.21128
#
# Compressibility (1/GPa) = 0.02187899
#
# Stress axis : x y z
#
# Youngs Moduli (GPa) = 90.68976 63.33942 62.87364
#
# Poissons Ratio (x) = 0.29134 0.03372
# Poissons Ratio (y) = 0.41715 0.33224
# Poissons Ratio (z) = 0.04863 0.33470
#
# Static dielectric constant tensor:
#      x y z
#    x 1.866740 0.000000 0.018870 
#    y 0.000000 1.967700 0.000000 
#    z 0.018870 0.000000 1.836050 
# 
# From -- ./inp_files/66291.got.cif
#   From: 2010.05.17/outbox.cif.g08.bks.cpg/sg15_34_cif.got.tgz:66291.got - 2010.06.03 18:47:42.
