data_PCOD9265842
_publ_section_title
;
Structure prediction by ZEFSAII (Michael W. Deem and Ramdas Pophale) SiO2 
 PCOD9265842
Probable space group: C 2/C
;
_chemical_formula_sum "Si O2"
_cell_formula_units_Z 56
_cell_length_a 13.718535
_cell_length_b 20.233596
_cell_length_c 11.969422
_cell_angle_alpha 90.000000
_cell_angle_beta 68.907979
_cell_angle_gamma 90.000000
_cell_volume 3099.826136
_symmetry_space_group_name_H-M "C 2/C"
_symmetry_group_IT_number 15
_symmetry_cell_setting 'monoclinic'
loop_
_space_group_symop_operation_xyz
x,y,z
-x,y,1/2-z
-x,-y,-z
x,-y,1/2+z
1/2+x,1/2+y,z
1/2-x,1/2+y,1/2-z
1/2-x,1/2-y,-z
1/2+x,1/2-y,1/2+z
loop_
_atom_site_type_symbol
_atom_site_label
_atom_site_fract_x
_atom_site_fract_y
_atom_site_fract_z
Si Si1 0.694639 0.029567 0.038927
Si Si2 0.472622 0.645094 0.464316
Si Si3 0.376188 0.908174 0.155363
Si Si4 0.424424 0.543194 0.952288
Si Si5 0.500000 0.446572 0.750000
Si Si6 0.274720 0.121279 0.929757
Si Si7 0.000000 0.513293 0.250000
Si Si8 0.530948 0.206926 0.606186
O O1 0.595823 0.050845 0.154031
O O2 0.692533 0.949703 0.033004
O O3 0.684768 0.063413 0.923773
O O4 0.806755 0.046504 0.044167
O O5 0.521000 0.614365 0.557828
O O6 0.526701 0.604125 0.339543
O O7 0.348358 0.631504 0.504955
O O8 0.484784 0.722861 0.444533
O O9 0.301760 0.885120 0.287031
O O10 0.452874 0.848555 0.091838
O O11 0.448414 0.965566 0.178532
O O12 0.421367 0.500092 0.839330
O O13 0.500000 0.500000 0.000000
O O14 0.351102 0.177933 0.945995
O O15 0.500000 0.213378 0.750000
#
# Coordination Sequence:
#
# PCOD9265842 Si02
#       8
#     8   8   8   8   4   8   4   8
#     4  11  20  36  59  86 114 152 184 239 292 323
#     4  11  21  36  57  82 116 148 186 235 284 340
#     4  10  20  34  58  83 114 148 185 238 284 330
#     4  10  22  36  54  88 116 146 186 237 282 340
#     4  10  20  33  56  81 112 144 180 232 284 330
#     4  10  20  34  56  88 111 141 197 235 279 334
#     4  10  20  35  58  87 114 142 192 240 274 338
#     4  10  19  37  54  80 114 146 191 234 281 335
#
# _framework density 18.065529999999999
#
# number of rings (size 3 to 8) (size 9 to 14) (size 15 to 20)
#    0.000    1.714    7.143    0.857    2.000    1.143 
#    0.000    0.714    0.000    0.857    0.000    0.000 
#    0.000    0.000    0.000    0.000    0.000    0.000 
#
# Total GULP energy -155884.351629 kJ/mol
# GULP energy per Si atom -5567.298272 kJ/mol
# Density = 1.802441 g / cm^3
# Si number density = 18.065530 Si / 1000 Ang^3
#
#
#
# Elastic Constant Matrix: (Units=GPa)
#
#
# Indices 1 2 3 4 5 6 
#
# 1 86.6771 31.8026 29.9769 0.0000 -7.1450 0.0000
# 2 31.8026 96.1005 28.0698 0.0000 8.1322 0.0000
# 3 29.9769 28.0698 49.6817 0.0000 -7.5307 0.0000
# 4 0.0000 0.0000 0.0000 23.1774 0.0000 4.4618
# 5 -7.1450 8.1322 -7.5307 0.0000 19.0433 0.0000
# 6 0.0000 0.0000 0.0000 4.4618 0.0000 23.3079
#
#
#
# Elastic Compliance Matrix: (Units=1/GPa)
#
#
# Indices 1 2 3 4 5 6 
#
# 1 0.015543 -0.003614 -0.006615 0.000000 0.004759 0.000000
# 2 -0.003614 0.014793 -0.007808 0.000000 -0.010761 0.000000
# 3 -0.006615 -0.007808 0.030488 0.000000 0.012909 0.000000
# 4 0.000000 0.000000 0.000000 0.044796 0.000000 -0.008575
# 5 0.004759 -0.010761 0.012909 0.000000 0.063998 0.000000
# 6 0.000000 0.000000 0.000000 -0.008575 0.000000 0.044546
#
#
# Mechanical properties :
#
#
# Convention : Reuss Voigt Hill
#
# Bulk Modulus (GPa) = 40.40577 45.79532 43.10054
# Shear Modulus (GPa) = 19.34315 22.61305 20.97810
#
# Velocity S-wave (km/s) = 3.27574 3.54181 3.41137
# Velocity P-wave (km/s) = 6.05987 6.49080 6.27903
#
# Compressibility (1/GPa) = 0.02474894
#
# Stress axis : x y z
#
# Youngs Moduli (GPa) = 64.33646 67.59845 32.79985
#
# Poissons Ratio (x) = 0.24432 0.21697
# Poissons Ratio (y) = 0.23253 0.25612
# Poissons Ratio (z) = 0.42559 0.52784
#
# Static dielectric constant tensor:
#      x y z
#    x 1.637840 0.000000 -0.011490 
#    y 0.000000 1.636120 0.000000 
#    z -0.011490 0.000000 1.680700 
# 
# From -- ./inp_files/98707.got.cif
#   From: 2010.05.17/outbox.cif.g08.bks.cpg/sg15_50_cif.got.tgz:98707.got - 2010.06.03 18:47:42.
