data_PCOD9265349
_publ_section_title
;
Structure prediction by ZEFSAII (Michael W. Deem and Ramdas Pophale) SiO2 
 PCOD9265349
Probable space group: C 2/C
;
_chemical_formula_sum "Si O2"
_cell_formula_units_Z 56
_cell_length_a 17.455564
_cell_length_b 21.124704
_cell_length_c 14.698602
_cell_angle_alpha 90.000000
_cell_angle_beta 28.997362
_cell_angle_gamma 90.000000
_cell_volume 2627.457516
_symmetry_space_group_name_H-M "C 2/C"
_symmetry_group_IT_number 15
_symmetry_cell_setting 'monoclinic'
loop_
_space_group_symop_operation_xyz
x,y,z
-x,y,1/2-z
-x,-y,-z
x,-y,1/2+z
1/2+x,1/2+y,z
1/2-x,1/2+y,1/2-z
1/2-x,1/2-y,-z
1/2+x,1/2-y,1/2+z
loop_
_atom_site_type_symbol
_atom_site_label
_atom_site_fract_x
_atom_site_fract_y
_atom_site_fract_z
Si Si1 0.163313 0.405352 0.048607
Si Si2 0.026061 0.061570 0.356028
Si Si3 0.451026 0.318395 0.403122
Si Si4 0.818788 0.751705 0.214870
Si Si5 0.314680 0.553046 0.110716
Si Si6 0.734677 0.657433 0.880194
Si Si7 0.038758 0.380895 0.978914
O O1 0.196574 0.351472 0.089825
O O2 0.000000 0.439106 0.250000
O O3 0.325922 0.443878 0.866067
O O4 0.122783 0.380899 0.990311
O O5 0.100970 0.057137 0.378419
O O6 0.940384 0.128864 0.435261
O O7 0.886081 0.010269 0.494004
O O8 0.500000 0.304326 0.250000
O O9 0.323538 0.269397 0.573559
O O10 0.593917 0.309136 0.325388
O O11 0.376876 0.387740 0.488277
O O12 0.769633 0.775297 0.165603
O O13 0.924170 0.688441 0.099051
O O14 0.128946 0.566202 0.324857
O O15 0.852898 0.615323 0.693220
#
# Coordination Sequence:
#
# PCOD9265349 Si02
#       7
#     8   8   8   8   8   8   8
#     4   9  20  36  55  86 120 154 185 234 287 340
#     4  10  19  36  60  86 116 153 198 233 282 349
#     4  11  22  38  60  83 112 149 196 247 292 339
#     4  11  21  38  57  84 114 154 192 239 292 350
#     4   9  20  37  59  83 115 155 193 238 290 338
#     4  11  20  34  59  84 118 153 194 234 284 349
#     4   9  20  37  56  83 121 153 194 233 288 342
#
# _framework density 21.313379999999999
#
# number of rings (size 3 to 8) (size 9 to 14) (size 15 to 20)
#    0.000    2.000    2.857    0.857    0.000    2.286 
#    0.000    2.857    0.000    2.571    0.000    0.000 
#    0.000    0.000    0.000    0.000    0.000    0.000 
#
# Total GULP energy -156046.573432 kJ/mol
# GULP energy per Si atom -5573.091908 kJ/mol
# Density = 2.126487 g / cm^3
# Si number density = 21.313380 Si / 1000 Ang^3
#
#
#
# Elastic Constant Matrix: (Units=GPa)
#
#
# Indices 1 2 3 4 5 6 
#
# 1 48.2914 -10.7994 21.0724 -0.0014 16.7830 -0.0013
# 2 -10.7994 32.9832 39.2562 0.0015 4.8391 0.0017
# 3 21.0724 39.2562 150.9704 0.0000 2.8768 -0.0006
# 4 -0.0014 0.0015 0.0000 22.0731 0.0056 1.7909
# 5 16.7830 4.8391 2.8768 0.0056 29.7743 -0.0012
# 6 -0.0013 0.0017 -0.0006 1.7909 -0.0012 13.3100
#
#
#
# Elastic Compliance Matrix: (Units=1/GPa)
#
#
# Indices 1 2 3 4 5 6 
#
# 1 0.047947 0.040007 -0.016487 0.000009 -0.031936 -0.000005
# 2 0.040007 0.078401 -0.025345 0.000007 -0.032844 -0.000011
# 3 -0.016487 -0.025345 0.015288 -0.000003 0.011935 0.000004
# 4 0.000009 0.000007 -0.000003 0.045804 -0.000015 -0.006163
# 5 -0.031936 -0.032844 0.011935 -0.000015 0.055772 0.000009
# 6 -0.000005 -0.000011 0.000004 -0.006163 0.000009 0.075961
#
#
# Mechanical properties :
#
#
# Convention : Reuss Voigt Hill
#
# Bulk Modulus (GPa) = 7.24703 36.81148 22.02925
# Shear Modulus (GPa) = 13.55681 25.21254 19.38467
#
# Velocity S-wave (km/s) = 2.52478 3.44313 3.01908
# Velocity P-wave (km/s) = 3.45065 5.75464 4.74462
#
# Compressibility (1/GPa) = 0.13798755
#
# Stress axis : x y z
#
# Youngs Moduli (GPa) = 20.85615 12.75491 65.41138
#
# Poissons Ratio (x) = -0.51028 1.07842
# Poissons Ratio (y) = -0.83439 1.65783
# Poissons Ratio (z) = 0.34385 0.32327
#
# Static dielectric constant tensor:
#      x y z
#    x 1.769990 -0.000010 -0.033540 
#    y -0.000010 1.754170 0.000010 
#    z -0.033540 0.000010 1.819410 
# 
# From -- ./inp_files/163737.got.cif
#   From: 2010.05.17/outbox.cif.g08.bks.cpg/sg15_82_cif.got.tgz:163737.got - 2010.06.03 18:47:42.
