data_PCOD9265254
_publ_section_title
;
Structure prediction by ZEFSAII (Michael W. Deem and Ramdas Pophale) SiO2 
 PCOD9265254
Probable space group: C 2/C
;
_chemical_formula_sum "Si O2"
_cell_formula_units_Z 56
_cell_length_a 26.215456
_cell_length_b 7.581845
_cell_length_c 16.076250
_cell_angle_alpha 90.000000
_cell_angle_beta 56.993281
_cell_angle_gamma 90.000000
_cell_volume 2679.633469
_symmetry_space_group_name_H-M "C 2/C"
_symmetry_group_IT_number 15
_symmetry_cell_setting 'monoclinic'
loop_
_space_group_symop_operation_xyz
x,y,z
-x,y,1/2-z
-x,-y,-z
x,-y,1/2+z
1/2+x,1/2+y,z
1/2-x,1/2+y,1/2-z
1/2-x,1/2-y,-z
1/2+x,1/2-y,1/2+z
loop_
_atom_site_type_symbol
_atom_site_label
_atom_site_fract_x
_atom_site_fract_y
_atom_site_fract_z
Si Si1 0.293742 0.968800 0.881867
Si Si2 0.327499 0.412963 0.054442
Si Si3 0.429303 0.455631 0.077278
Si Si4 0.169271 0.513767 0.476979
Si Si5 0.757664 0.188532 0.785712
Si Si6 0.143975 0.249102 0.275382
Si Si7 0.929606 0.461972 0.572808
O O1 0.326181 0.920316 0.938341
O O2 0.296542 0.829409 0.803577
O O3 0.220470 0.978338 0.956746
O O4 0.317656 0.163588 0.833811
O O5 0.391745 0.492642 0.024850
O O6 0.295137 0.373436 0.172698
O O7 0.332985 0.223083 0.007886
O O8 0.396493 0.572706 0.178465
O O9 0.422588 0.245800 0.096361
O O10 0.500000 0.500000 0.000000
O O11 0.229947 0.460889 0.370892
O O12 0.110063 0.483903 0.472995
O O13 0.695163 0.263528 0.802036
O O14 0.097427 0.408854 0.334287
O O15 0.000000 0.500000 0.500000
#
# Coordination Sequence:
#
# PCOD9265254 Si02
#       7
#     8   8   8   8   8   8   8
#     4  11  20  35  56  89 126 151 192 254 315 364
#     4  10  20  36  56  85 117 154 201 245 297 369
#     4  11  20  35  62  86 109 154 210 253 288 352
#     4  10  22  34  56  91 119 158 190 253 323 352
#     4  10  19  36  59  85 120 156 200 244 304 379
#     4  10  21  36  59  88 115 160 203 246 304 368
#     4  10  20  38  60  86 114 153 214 252 290 369
#
# _framework density 20.898381000000001
#
# number of rings (size 3 to 8) (size 9 to 14) (size 15 to 20)
#    0.000    1.714    2.857    4.286    2.000    0.000 
#    0.000    0.714    0.000    0.000   14.857    0.000 
#    0.000    0.000    0.000    0.000    0.000    0.000 
#
# Total GULP energy -156057.248890 kJ/mol
# GULP energy per Si atom -5573.473175 kJ/mol
# Density = 2.085082 g / cm^3
# Si number density = 20.898381 Si / 1000 Ang^3
#
#
#
# Elastic Constant Matrix: (Units=GPa)
#
#
# Indices 1 2 3 4 5 6 
#
# 1 118.7905 33.4938 46.8147 0.0000 -18.5342 0.0000
# 2 33.4938 95.0090 17.5868 0.0000 -3.4353 0.0000
# 3 46.8147 17.5868 44.7078 0.0000 2.4523 0.0000
# 4 0.0000 0.0000 0.0000 28.5884 0.0000 -12.9523
# 5 -18.5342 -3.4353 2.4523 0.0000 33.9859 0.0000
# 6 0.0000 0.0000 0.0000 -12.9523 0.0000 30.4834
#
#
#
# Elastic Compliance Matrix: (Units=1/GPa)
#
#
# Indices 1 2 3 4 5 6 
#
# 1 0.018223 -0.002568 -0.018676 0.000000 0.011026 0.000000
# 2 -0.002568 0.011788 -0.001944 0.000000 -0.000069 0.000000
# 3 -0.018676 -0.001944 0.043430 0.000000 -0.013515 0.000000
# 4 0.000000 0.000000 0.000000 0.043318 0.000000 0.018406
# 5 0.011026 -0.000069 -0.013515 0.000000 0.036405 0.000000
# 6 0.000000 0.000000 0.000000 0.018406 0.000000 0.040625
#
#
# Mechanical properties :
#
#
# Convention : Reuss Voigt Hill
#
# Bulk Modulus (GPa) = 36.94957 50.47751 43.71354
# Shear Modulus (GPa) = 20.06528 29.31899 24.69213
#
# Velocity S-wave (km/s) = 3.10197 3.74964 3.44107
# Velocity P-wave (km/s) = 5.52708 6.55382 6.06223
#
# Compressibility (1/GPa) = 0.02706391
#
# Stress axis : x y z
#
# Youngs Moduli (GPa) = 54.87654 84.83128 23.02582
#
# Poissons Ratio (x) = 0.21788 0.43003
# Poissons Ratio (y) = 0.14095 0.04476
# Poissons Ratio (z) = 1.02487 0.16490
#
# Static dielectric constant tensor:
#      x y z
#    x 1.766300 0.000000 -0.006310 
#    y 0.000000 1.860960 0.000000 
#    z -0.006310 0.000000 1.785490 
# 
# From -- ./inp_files/176528.got.cif
#   From: 2010.05.17/outbox.cif.g08.bks.cpg/sg15_89_cif.got.tgz:176528.got - 2010.06.03 18:47:42.
