data_PCOD9265569
_publ_section_title
;
Structure prediction by ZEFSAII (Michael W. Deem and Ramdas Pophale) SiO2 
 PCOD9265569
Probable space group: C 2/C
;
_chemical_formula_sum "Si O2"
_cell_formula_units_Z 32
_cell_length_a 4.985173
_cell_length_b 19.327173
_cell_length_c 18.625942
_cell_angle_alpha 90.000000
_cell_angle_beta 111.049834
_cell_angle_gamma 90.000000
_cell_volume 1674.840155
_symmetry_space_group_name_H-M "C 2/C"
_symmetry_group_IT_number 15
_symmetry_cell_setting 'monoclinic'
loop_
_space_group_symop_operation_xyz
x,y,z
-x,y,1/2-z
-x,-y,-z
x,-y,1/2+z
1/2+x,1/2+y,z
1/2-x,1/2+y,1/2-z
1/2-x,1/2-y,-z
1/2+x,1/2-y,1/2+z
loop_
_atom_site_type_symbol
_atom_site_label
_atom_site_fract_x
_atom_site_fract_y
_atom_site_fract_z
Si Si1 0.845271 0.934430 0.574674
Si Si2 0.326870 0.326633 0.802695
Si Si3 0.075199 0.271446 0.053277
Si Si4 0.709968 0.588362 0.973388
O O1 0.504782 0.922154 0.546785
O O2 0.015453 0.895274 0.652724
O O3 0.964594 0.902770 0.510455
O O4 0.875844 0.017105 0.573734
O O5 0.500000 0.301130 0.750000
O O6 0.345207 0.271222 0.868566
O O7 0.000000 0.340082 0.750000
O O8 0.250000 0.250000 0.000000
O O9 0.190759 0.350586 0.070220
O O10 0.750000 0.250000 0.000000
#
# Coordination Sequence:
#
# PCOD9265569 Si02
#       4
#     8   8   8   8
#     4  10  20  36  60  88 117 156 205 262 306 370
#     4  12  24  38  58  92 131 168 202 257 335 387
#     4  12  21  38  63  91 121 163 212 265 307 374
#     4  10  19  36  62  89 114 149 216 264 298 352
#
# _framework density 19.106300000000001
#
# number of rings (size 3 to 8) (size 9 to 14) (size 15 to 20)
#    0.000    1.000    5.000    3.000    0.000    0.000 
#    0.000    1.250    0.000    3.000    0.000    0.000 
#    0.000    0.000    0.000    0.000    0.000    0.000 
#
# Total GULP energy -89209.658498 kJ/mol
# GULP energy per Si atom -5575.603656 kJ/mol
# Density = 1.906281 g / cm^3
# Si number density = 19.106300 Si / 1000 Ang^3
#
#
#
# Elastic Constant Matrix: (Units=GPa)
#
#
# Indices 1 2 3 4 5 6 
#
# 1 123.9639 30.7592 33.9238 0.0000 -7.1456 0.0000
# 2 30.7592 140.7797 59.0181 0.0000 1.2121 0.0000
# 3 33.9238 59.0181 111.1132 0.0000 -1.7765 0.0000
# 4 0.0000 0.0000 0.0000 -0.0712 0.0000 0.2812
# 5 -7.1456 1.2121 -1.7765 0.0000 27.2950 0.0000
# 6 0.0000 0.0000 0.0000 0.2812 0.0000 29.8929
#
#
#
# Elastic Compliance Matrix: (Units=1/GPa)
#
#
# Indices 1 2 3 4 5 6 
#
# 1 0.009058 -0.001100 -0.002145 0.000000 0.002281 0.000000
# 2 -0.001100 0.009286 -0.004612 0.000000 -0.001000 0.000000
# 3 -0.002145 -0.004612 0.012112 0.000000 0.000432 0.000000
# 4 0.000000 0.000000 0.000000-13.539090 0.000000 0.127354
# 5 0.002281 -0.001000 0.000432 0.000000 0.037306 0.000000
# 6 0.000000 0.000000 0.000000 0.127354 0.000000 0.032255
#
#
# Mechanical properties :
#
#
# Convention : Reuss Voigt Hill
#
# Bulk Modulus (GPa) = 67.83608 69.25100 68.54354
# Shear Modulus (GPa) = -0.37262 28.23372 13.93055
#
# Velocity S-wave (km/s) = -0.44210 3.84828 2.70313
# Velocity P-wave (km/s) = 5.94315 7.48796 6.75983
#
# Compressibility (1/GPa) = 0.01474142
#
# Stress axis : x y z
#
# Youngs Moduli (GPa) = 110.39769 107.69125 82.56573
#
# Poissons Ratio (x) = 0.11841 0.17711
# Poissons Ratio (y) = 0.12138 0.38083
# Poissons Ratio (z) = 0.23681 0.49672
#
# Static dielectric constant tensor:
#      x y z
#    x 1.676320 0.000000 0.015610 
#    y 0.000000 1.807160 0.000000 
#    z 0.015610 0.000000 1.639000 
# 
# From -- ./inp_files/184075.got.cif
#   From: 2010.05.17/outbox.cif.g08.bks.cpg/sg15_93_cif.got.tgz:184075.got - 2010.06.03 18:47:42.
