data_PCOD9265694
_publ_section_title
;
Structure prediction by ZEFSAII (Michael W. Deem and Ramdas Pophale) SiO2 
 PCOD9265694
Probable space group: C 2/C
;
_chemical_formula_sum "Si O2"
_cell_formula_units_Z 48
_cell_length_a 17.718613
_cell_length_b 23.492059
_cell_length_c 5.636324
_cell_angle_alpha 90.000000
_cell_angle_beta 126.046627
_cell_angle_gamma 90.000000
_cell_volume 1896.912949
_symmetry_space_group_name_H-M "C 2/C"
_symmetry_group_IT_number 15
_symmetry_cell_setting 'monoclinic'
loop_
_space_group_symop_operation_xyz
x,y,z
-x,y,1/2-z
-x,-y,-z
x,-y,1/2+z
1/2+x,1/2+y,z
1/2-x,1/2+y,1/2-z
1/2-x,1/2-y,-z
1/2+x,1/2-y,1/2+z
loop_
_atom_site_type_symbol
_atom_site_label
_atom_site_fract_x
_atom_site_fract_y
_atom_site_fract_z
Si Si1 0.704966 0.136558 0.621633
Si Si2 0.879715 0.702485 0.412629
Si Si3 0.146735 0.187578 0.313961
Si Si4 0.500000 0.739319 0.750000
Si Si5 0.500000 0.902660 0.250000
Si Si6 0.500000 0.401694 0.750000
Si Si7 0.840391 0.033793 0.736699
Si Si8 0.000000 0.415021 0.750000
O O1 0.702224 0.186746 0.422607
O O2 0.764267 0.083768 0.630573
O O3 0.597274 0.119517 0.446286
O O4 0.753731 0.159257 0.951542
O O5 0.854551 0.753921 0.538992
O O6 0.914189 0.641837 0.577232
O O7 0.968430 0.724643 0.418769
O O8 0.077103 0.139994 0.287166
O O9 0.093548 0.203433 0.974909
O O10 0.503540 0.939499 0.493035
O O11 0.444019 0.439548 0.457089
O O12 0.829560 0.004971 0.457246
#
# Coordination Sequence:
#
# PCOD9265694 Si02
#       8
#     8   8   8   4   4   4   8   4
#     4  10  25  44  69  98 136 191 240 295 363 414
#     4  11  20  38  58  95 142 188 233 277 344 424
#     4  11  22  40  60 105 146 186 234 279 348 446
#     4  12  21  36  63  94 153 192 234 282 338 429
#     4  10  19  36  64  83 131 181 230 277 331 406
#     4  10  21  44  71 104 144 191 218 290 373 428
#     4  11  26  49  74 107 137 178 246 306 361 427
#     4  10  23  44  64  95 128 180 238 287 352 413
#
# _framework density 25.304272999999998
#
# number of rings (size 3 to 8) (size 9 to 14) (size 15 to 20)
#    0.000    1.333    3.333    3.000    0.000    6.000 
#    6.000    0.833    0.000    0.000    0.000    0.000 
#    0.000    0.000    0.000    0.000    0.000    0.000 
#
# Total GULP energy -134071.199477 kJ/mol
# GULP energy per Si atom -5586.299978 kJ/mol
# Density = 2.524668 g / cm^3
# Si number density = 25.304273 Si / 1000 Ang^3
#
#
#
# Elastic Constant Matrix: (Units=GPa)
#
#
# Indices 1 2 3 4 5 6 
#
# 1 104.7017 48.7066 49.2620 0.0000 17.2116 0.0000
# 2 48.7066 116.7791 45.5961 0.0000 10.9312 0.0000
# 3 49.2620 45.5961 165.4425 0.0000 7.8123 0.0000
# 4 0.0000 0.0000 0.0000 -37.0484 0.0000 -4.3625
# 5 17.2116 10.9312 7.8123 0.0000 64.5049 0.0000
# 6 0.0000 0.0000 0.0000 -4.3625 0.0000 4.0033
#
#
#
# Elastic Compliance Matrix: (Units=1/GPa)
#
#
# Indices 1 2 3 4 5 6 
#
# 1 0.013167 -0.004230 -0.002638 0.000000 -0.002477 0.000000
# 2 -0.004230 0.011067 -0.001765 0.000000 -0.000533 0.000000
# 3 -0.002638 -0.001765 0.007311 0.000000 0.000118 0.000000
# 4 0.000000 0.000000 0.000000 -0.023922 0.000000 -0.026068
# 5 -0.002477 -0.000533 0.000118 0.000000 0.016240 0.000000
# 6 0.000000 0.000000 0.000000 -0.026068 0.000000 0.221386
#
#
# Mechanical properties :
#
#
# Convention : Reuss Voigt Hill
#
# Bulk Modulus (GPa) = 70.03685 74.89475 72.46580
# Shear Modulus (GPa) = 18.70745 22.51585 20.61165
#
# Velocity S-wave (km/s) = 2.72196 2.98619 2.85713
# Velocity P-wave (km/s) = 6.13324 6.44606 6.29160
#
# Compressibility (1/GPa) = 0.01427820
#
# Stress axis : x y z
#
# Youngs Moduli (GPa) = 75.94766 90.36252 136.78383
#
# Poissons Ratio (x) = 0.38223 0.36082
# Poissons Ratio (y) = 0.32125 0.24146
# Poissons Ratio (z) = 0.20034 0.15952
#
# Static dielectric constant tensor:
#      x y z
#    x 1.950710 0.000000 -0.083910 
#    y 0.000000 1.954830 0.000000 
#    z -0.083910 0.000000 2.088630 
# 
# From -- ./inp_files/13996.got.cif
#   From: 2010.05.17/outbox.cif.g08.bks.cpg/sg15_7_cif.got.tgz:13996.got - 2010.06.03 18:47:42.
