data_PCOD9265724
_publ_section_title
;
Structure prediction by ZEFSAII (Michael W. Deem and Ramdas Pophale) SiO2 
 PCOD9265724
Probable space group: C 2/C
;
_chemical_formula_sum "Si O2"
_cell_formula_units_Z 40
_cell_length_a 7.987119
_cell_length_b 26.293136
_cell_length_c 8.759938
_cell_angle_alpha 90.000000
_cell_angle_beta 85.370700
_cell_angle_gamma 90.000000
_cell_volume 1833.641696
_symmetry_space_group_name_H-M "C 2/C"
_symmetry_group_IT_number 15
_symmetry_cell_setting 'monoclinic'
loop_
_space_group_symop_operation_xyz
x,y,z
-x,y,1/2-z
-x,-y,-z
x,-y,1/2+z
1/2+x,1/2+y,z
1/2-x,1/2+y,1/2-z
1/2-x,1/2-y,-z
1/2+x,1/2-y,1/2+z
loop_
_atom_site_type_symbol
_atom_site_label
_atom_site_fract_x
_atom_site_fract_y
_atom_site_fract_z
Si Si1 0.264306 0.677096 0.300827
Si Si2 0.500000 0.515111 0.250000
Si Si3 0.438558 0.399737 0.000858
Si Si4 0.000000 0.730557 0.750000
Si Si5 0.084926 0.346690 0.504974
Si Si6 0.233378 0.920528 0.196004
O O1 0.393827 0.641852 0.381767
O O2 0.346516 0.732611 0.310827
O O3 0.223205 0.663293 0.127748
O O4 0.089962 0.664413 0.397507
O O5 0.493151 0.550751 0.399198
O O6 0.662562 0.478296 0.216905
O O7 0.588582 0.392181 0.108523
O O8 0.278898 0.404123 0.127005
O O9 0.917712 0.694912 0.628196
O O10 0.110177 0.401260 0.416300
#
# Coordination Sequence:
#
# PCOD9265724 Si02
#       6
#     8   4   8   4   8   8
#     4  11  24  41  63  90 123 162 204 254 307 363
#     4  10  19  36  64  94 122 162 207 244 296 370
#     4  10  20  37  64  93 124 163 204 244 300 370
#     4  12  23  42  64  86 120 164 205 252 306 372
#     4  11  24  40  60  90 124 159 205 256 307 357
#     4  10  20  36  60  90 123 161 204 251 297 356
#
# _framework density 21.814512000000001
#
# number of rings (size 3 to 8) (size 9 to 14) (size 15 to 20)
#    0.000    1.600    0.000    7.800    0.000    0.000 
#    0.000    7.000    0.000    7.200    0.000    1.400 
#    0.000    0.000    0.000    0.000    0.000    0.000 
#
# Total GULP energy -111338.258438 kJ/mol
# GULP energy per Si atom -5566.912922 kJ/mol
# Density = 2.176486 g / cm^3
# Si number density = 21.814512 Si / 1000 Ang^3
#
#
#
# Elastic Constant Matrix: (Units=GPa)
#
#
# Indices 1 2 3 4 5 6 
#
# 1 90.7458 15.9245 41.1222 0.0000 -4.2471 0.0000
# 2 15.9245 97.0530 72.6771 0.0000 -2.8446 0.0000
# 3 41.1222 72.6771 170.0315 0.0000 9.3282 0.0000
# 4 0.0000 0.0000 0.0000 217.7974 0.0000 -3.4914
# 5 -4.2471 -2.8446 9.3282 0.0000 39.5397 0.0000
# 6 0.0000 0.0000 0.0000 -3.4914 0.0000 -41.8444
#
#
#
# Elastic Compliance Matrix: (Units=1/GPa)
#
#
# Indices 1 2 3 4 5 6 
#
# 1 0.012563 0.000541 -0.003390 0.000000 0.002188 0.000000
# 2 0.000541 0.015457 -0.006891 0.000000 0.002796 0.000000
# 3 -0.003390 -0.006891 0.009821 0.000000 -0.003177 0.000000
# 4 0.000000 0.000000 0.000000 0.004585 0.000000 -0.000383
# 5 0.002188 0.002796 -0.003177 0.000000 0.026477 0.000000
# 6 0.000000 0.000000 0.000000 -0.000383 0.000000 -0.023866
#
#
# Mechanical properties :
#
#
# Convention : Reuss Voigt Hill
#
# Bulk Modulus (GPa) = 54.46097 68.58644 61.52371
# Shear Modulus (GPa) = 70.78378 58.30562 64.54470
#
# Velocity S-wave (km/s) = 5.70250 5.17551 5.44538
# Velocity P-wave (km/s) = 8.26908 8.19900 8.23411
#
# Compressibility (1/GPa) = 0.01836177
#
# Stress axis : x y z
#
# Youngs Moduli (GPa) = 79.59652 64.69475 101.82365
#
# Poissons Ratio (x) = -0.03501 0.34516
# Poissons Ratio (y) = -0.04307 0.70169
# Poissons Ratio (z) = 0.26982 0.44582
#
# Static dielectric constant tensor:
#      x y z
#    x 1.939200 0.000000 -0.030780 
#    y 0.000000 1.803010 0.000000 
#    z -0.030780 0.000000 1.631120 
# 
# From -- ./inp_files/23702.got.cif
#   From: 2010.05.17/outbox.cif.g08.bks.cpg/sg15_12_cif.got.tgz:23702.got - 2010.06.03 18:47:42.
