data_PCOD9265666
_publ_section_title
;
Structure prediction by ZEFSAII (Michael W. Deem and Ramdas Pophale) SiO2 
 PCOD9265666
Probable space group: C 2/C
;
_chemical_formula_sum "Si O2"
_cell_formula_units_Z 64
_cell_length_a 17.445438
_cell_length_b 28.717798
_cell_length_c 11.938995
_cell_angle_alpha 90.000000
_cell_angle_beta 31.723540
_cell_angle_gamma 90.000000
_cell_volume 3145.131771
_symmetry_space_group_name_H-M "C 2/C"
_symmetry_group_IT_number 15
_symmetry_cell_setting 'monoclinic'
loop_
_space_group_symop_operation_xyz
x,y,z
-x,y,1/2-z
-x,-y,-z
x,-y,1/2+z
1/2+x,1/2+y,z
1/2-x,1/2+y,1/2-z
1/2-x,1/2-y,-z
1/2+x,1/2-y,1/2+z
loop_
_atom_site_type_symbol
_atom_site_label
_atom_site_fract_x
_atom_site_fract_y
_atom_site_fract_z
Si Si1 0.087945 0.569837 0.860680
Si Si2 0.850424 0.947341 0.875689
Si Si3 0.847433 0.364237 0.755851
Si Si4 0.620500 0.629986 0.342150
Si Si5 0.381900 0.755361 0.666480
Si Si6 0.381922 0.999267 0.480193
Si Si7 0.195586 0.767688 0.686205
Si Si8 0.621677 0.336869 0.197881
O O1 0.231640 0.577204 0.606222
O O2 0.141785 0.532902 0.886276
O O3 0.999076 0.610409 0.036557
O O4 0.968064 0.545220 0.927189
O O5 0.894452 0.909870 0.728744
O O6 0.757155 0.985560 0.921642
O O7 0.000000 0.963489 0.750000
O O8 0.733347 0.380976 0.802233
O O9 0.861007 0.308287 0.730858
O O10 0.758175 0.367198 0.983955
O O11 0.685172 0.676377 0.204115
O O12 0.465309 0.640691 0.591178
O O13 0.293817 0.748860 0.663077
O O14 0.542202 0.749637 0.420499
O O15 0.344323 0.715653 0.803411
O O16 0.500000 0.021705 0.250000
O O17 0.250000 0.750000 0.500000
O O18 0.500000 0.333181 0.250000
#
# Coordination Sequence:
#
# PCOD9265666 Si02
#       8
#     8   8   8   8   8   8   8   8
#     4  10  21  40  69  95 122 163 208 263 322 390
#     4  11  23  40  67  94 129 165 206 267 324 396
#     4  10  19  36  63  92 119 167 221 261 318 380
#     4   9  20  37  58  87 127 167 213 256 319 380
#     4  10  21  36  57  87 124 169 221 262 317 373
#     4   9  20  43  68  93 128 159 200 260 332 387
#     4  10  21  36  55  83 125 172 210 266 317 373
#     4   9  19  38  61  87 133 176 210 269 321 373
#
# _framework density 20.348908999999999
#
# number of rings (size 3 to 8) (size 9 to 14) (size 15 to 20)
#    0.000    2.250    1.250    1.500    1.750    2.500 
#    2.250    0.625    2.750    0.000    0.000    0.000 
#    0.000    0.000    0.000    0.000    0.000    0.000 
#
# Total GULP energy -178351.369422 kJ/mol
# GULP energy per Si atom -5573.480294 kJ/mol
# Density = 2.030259 g / cm^3
# Si number density = 20.348909 Si / 1000 Ang^3
#
#
#
# Elastic Constant Matrix: (Units=GPa)
#
#
# Indices 1 2 3 4 5 6 
#
# 1 86.3034 55.5645 36.2719 -0.0003 -25.0339 0.0002
# 2 55.5645 -9.3117 71.8368 0.0001 25.6250 -0.0001
# 3 36.2719 71.8368 86.4824 -0.0010 -9.2278 0.0005
# 4 -0.0003 0.0001 -0.0010 22.8144 0.0001 7.2425
# 5 -25.0339 25.6250 -9.2278 0.0001 33.1366 -0.0001
# 6 0.0002 -0.0001 0.0005 7.2425 -0.0001 29.6460
#
#
#
# Elastic Compliance Matrix: (Units=1/GPa)
#
#
# Indices 1 2 3 4 5 6 
#
# 1 0.012686 0.005806 -0.009894 0.000000 0.002339 0.000000
# 2 0.005806 -0.007009 0.004569 0.000000 0.011079 0.000000
# 3 -0.009894 0.004569 0.011072 0.000000 -0.007925 0.000000
# 4 0.000000 0.000000 0.000000 0.047517 -0.000001 -0.011608
# 5 0.002339 0.011079 -0.007925 -0.000001 0.021171 0.000000
# 6 0.000000 0.000000 0.000000 -0.011608 0.000000 0.036567
#
#
# Mechanical properties :
#
#
# Convention : Reuss Voigt Hill
#
# Bulk Modulus (GPa) = 56.46230 54.53560 55.49895
# Shear Modulus (GPa) = 39.38752 17.10614 28.24683
#
# Velocity S-wave (km/s) = 4.40433 2.90253 3.72980
# Velocity P-wave (km/s) = 7.32608 6.17182 6.77358
#
# Compressibility (1/GPa) = 0.01771093
#
# Stress axis : x y z
#
# Youngs Moduli (GPa) = 78.83015 -142.67196 90.32099
#
# Poissons Ratio (x) = 0.82834 0.89360
# Poissons Ratio (y) = -0.45768 -0.41269
# Poissons Ratio (z) = 0.77992 0.65189
#
# Static dielectric constant tensor:
#      x y z
#    x 1.676900 0.000000 0.044220 
#    y 0.000000 1.730950 0.000000 
#    z 0.044220 0.000000 1.653710 
# 
# From -- ./inp_files/108633.got.cif
#   From: 2010.05.17/outbox.cif.g08.bks.cpg/sg15_55_cif.got.tgz:108633.got - 2010.06.03 18:47:42.
