data_PCOD9265430
_publ_section_title
;
Structure prediction by ZEFSAII (Michael W. Deem and Ramdas Pophale) SiO2 
 PCOD9265430
Probable space group: C 2/C
;
_chemical_formula_sum "Si O2"
_cell_formula_units_Z 44
_cell_length_a 14.539713
_cell_length_b 8.506298
_cell_length_c 15.314937
_cell_angle_alpha 90.000000
_cell_angle_beta 102.861837
_cell_angle_gamma 90.000000
_cell_volume 1846.613574
_symmetry_space_group_name_H-M "C 2/C"
_symmetry_group_IT_number 15
_symmetry_cell_setting 'monoclinic'
loop_
_space_group_symop_operation_xyz
x,y,z
-x,y,1/2-z
-x,-y,-z
x,-y,1/2+z
1/2+x,1/2+y,z
1/2-x,1/2+y,1/2-z
1/2-x,1/2-y,-z
1/2+x,1/2-y,1/2+z
loop_
_atom_site_type_symbol
_atom_site_label
_atom_site_fract_x
_atom_site_fract_y
_atom_site_fract_z
Si Si1 0.054696 0.316914 0.674327
Si Si2 0.432091 0.504062 0.403272
Si Si3 0.637386 0.920597 0.940289
Si Si4 0.220474 0.712441 0.618656
Si Si5 0.170688 0.402022 0.282956
Si Si6 0.500000 0.660285 0.250000
O O1 0.127075 0.442146 0.729012
O O2 0.000000 0.258905 0.750000
O O3 0.973835 0.407372 0.600739
O O4 0.095989 0.174345 0.626537
O O5 0.500000 0.500000 0.500000
O O6 0.348931 0.634107 0.394094
O O7 0.495201 0.560921 0.335997
O O8 0.684894 0.761601 0.911218
O O9 0.682785 0.053365 0.887193
O O10 0.667771 0.916979 0.047399
O O11 0.240230 0.655813 0.721098
O O12 0.090762 0.270461 0.268360
#
# Coordination Sequence:
#
# PCOD9265430 Si02
#       6
#     8   8   8   8   8   4
#     4  10  19  36  61  81 116 151 194 236 290 338
#     4  11  21  35  57  86 111 152 191 239 283 347
#     4  10  20  39  58  84 122 146 191 244 288 346
#     4  10  23  37  61  86 117 156 191 238 304 339
#     4  10  21  39  61  87 111 160 196 240 288 349
#     4  10  20  36  58  88 112 142 208 234 278 340
#
# _framework density 23.827401999999999
#
# number of rings (size 3 to 8) (size 9 to 14) (size 15 to 20)
#    0.000    1.818    5.455    0.000    0.000    5.091 
#    0.000    0.000    0.000    4.364    0.000    0.000 
#    0.000    0.000    0.000    0.000    0.000    0.000 
#
# Total GULP energy -122857.710195 kJ/mol
# GULP energy per Si atom -5584.441373 kJ/mol
# Density = 2.377317 g / cm^3
# Si number density = 23.827402 Si / 1000 Ang^3
#
#
#
# Elastic Constant Matrix: (Units=GPa)
#
#
# Indices 1 2 3 4 5 6 
#
# 1 39.2780 9.5853 23.7011 0.0000 -6.9331 0.0000
# 2 9.5853 63.2680 22.7317 0.0000 -8.0925 0.0000
# 3 23.7011 22.7317 108.6230 0.0000 -9.0830 0.0000
# 4 0.0000 0.0000 0.0000 15.9827 0.0000 17.0727
# 5 -6.9331 -8.0925 -9.0830 0.0000 32.9424 0.0000
# 6 0.0000 0.0000 0.0000 17.0727 0.0000 -6.2828
#
#
#
# Elastic Compliance Matrix: (Units=1/GPa)
#
#
# Indices 1 2 3 4 5 6 
#
# 1 0.030203 -0.001935 -0.005828 0.000000 0.004274 0.000000
# 2 -0.001935 0.017570 -0.002997 0.000000 0.003083 0.000000
# 3 -0.005828 -0.002997 0.011199 0.000000 0.001125 0.000000
# 4 0.000000 0.000000 0.000000 0.016032 0.000000 0.043565
# 5 0.004274 0.003083 0.001125 0.000000 0.032323 0.000000
# 6 0.000000 0.000000 0.000000 0.043565 0.000000 -0.040783
#
#
# Mechanical properties :
#
#
# Convention : Reuss Voigt Hill
#
# Bulk Modulus (GPa) = 26.70076 35.91169 31.30623
# Shear Modulus (GPa) = 49.72789 18.87186 34.29987
#
# Velocity S-wave (km/s) = 4.57333 2.81734 3.79821
# Velocity P-wave (km/s) = 6.25439 5.06829 5.69232
#
# Compressibility (1/GPa) = 0.03745211
#
# Stress axis : x y z
#
# Youngs Moduli (GPa) = 33.10945 56.91514 89.29384
#
# Poissons Ratio (x) = 0.11015 0.52038
# Poissons Ratio (y) = 0.06408 0.26760
# Poissons Ratio (z) = 0.19295 0.17057
#
# Static dielectric constant tensor:
#      x y z
#    x 1.928130 0.000000 -0.008260 
#    y 0.000000 1.936550 0.000000 
#    z -0.008260 0.000000 1.815830 
# 
# From -- ./inp_files/159184.got.cif
#   From: 2010.05.17/outbox.cif.g08.bks.cpg/sg15_80_cif.got.tgz:159184.got - 2010.06.03 18:47:42.
