data_PCOD9265454
_publ_section_title
;
Structure prediction by ZEFSAII (Michael W. Deem and Ramdas Pophale) SiO2 
 PCOD9265454
Probable space group: C 2/C
;
_chemical_formula_sum "Si O2"
_cell_formula_units_Z 48
_cell_length_a 5.935119
_cell_length_b 13.798038
_cell_length_c 23.174935
_cell_angle_alpha 90.000000
_cell_angle_beta 99.559834
_cell_angle_gamma 90.000000
_cell_volume 1871.508683
_symmetry_space_group_name_H-M "C 2/C"
_symmetry_group_IT_number 15
_symmetry_cell_setting 'monoclinic'
loop_
_space_group_symop_operation_xyz
x,y,z
-x,y,1/2-z
-x,-y,-z
x,-y,1/2+z
1/2+x,1/2+y,z
1/2-x,1/2+y,1/2-z
1/2-x,1/2-y,-z
1/2+x,1/2-y,1/2+z
loop_
_atom_site_type_symbol
_atom_site_label
_atom_site_fract_x
_atom_site_fract_y
_atom_site_fract_z
Si Si1 0.769147 0.809102 0.276806
Si Si2 0.024446 0.032186 0.846517
Si Si3 0.466891 0.030185 0.911511
Si Si4 0.842539 0.130885 0.402601
Si Si5 0.467198 0.276116 0.400357
Si Si6 0.276135 0.129909 0.485409
O O1 0.500000 0.801454 0.250000
O O2 0.000000 0.775941 0.250000
O O3 0.847387 0.920507 0.294658
O O4 0.796736 0.757237 0.340076
O O5 0.296508 0.048800 0.851004
O O6 0.991855 0.107738 0.899578
O O7 0.982041 0.919648 0.856825
O O8 0.653654 0.951829 0.902333
O O9 0.326243 0.970986 0.954061
O O10 0.590735 0.118353 0.948919
O O11 0.709176 0.230422 0.391256
O O12 0.005229 0.136953 0.465115
O O13 0.385044 0.216549 0.452195
#
# Coordination Sequence:
#
# PCOD9265454 Si02
#       6
#     8   8   8   8   8   8
#     4  10  24  44  71  88 125 168 214 276 344 388
#     4   9  22  37  63  87 123 160 214 265 327 386
#     4   9  18  34  57  90 128 167 210 258 317 390
#     4  10  19  36  61  86 126 170 210 259 321 390
#     4   9  22  37  63  87 123 160 214 265 327 386
#     4   9  18  34  57  90 128 167 210 258 317 390
#
# _framework density 25.647755
#
# number of rings (size 3 to 8) (size 9 to 14) (size 15 to 20)
#    1.000    1.667    0.000    0.500    4.667    3.333 
#    0.000    2.500    0.000    0.000    0.000    0.000 
#    0.000    0.000    0.000    0.000    0.000    0.000 
#
# Total GULP energy -133653.852843 kJ/mol
# GULP energy per Si atom -5568.910535 kJ/mol
# Density = 2.558938 g / cm^3
# Si number density = 25.647755 Si / 1000 Ang^3
#
#
#
# Elastic Constant Matrix: (Units=GPa)
#
#
# Indices 1 2 3 4 5 6 
#
# 1 114.6316 45.2817 39.2208 0.0000 38.1508 0.0000
# 2 45.2817 91.4672 15.8945 0.0000 6.5393 0.0000
# 3 39.2208 15.8945 70.6554 0.0000 27.9084 0.0000
# 4 0.0000 0.0000 0.0000 19.6685 0.0000 7.0685
# 5 38.1508 6.5393 27.9084 0.0000 51.2537 0.0000
# 6 0.0000 0.0000 0.0000 7.0685 0.0000 47.6422
#
#
#
# Elastic Compliance Matrix: (Units=1/GPa)
#
#
# Indices 1 2 3 4 5 6 
#
# 1 0.015362 -0.006347 -0.003698 0.000000 -0.008611 0.000000
# 2 -0.006347 0.014000 -0.001002 0.000000 0.003484 0.000000
# 3 -0.003698 -0.001002 0.019485 0.000000 -0.007729 0.000000
# 4 0.000000 0.000000 0.000000 0.053706 0.000000 -0.007968
# 5 -0.008611 0.003484 -0.007729 0.000000 0.029685 0.000000
# 6 0.000000 0.000000 0.000000 -0.007968 0.000000 0.022172
#
#
# Mechanical properties :
#
#
# Convention : Reuss Voigt Hill
#
# Bulk Modulus (GPa) = 37.38113 53.06090 45.22102
# Shear Modulus (GPa) = 26.96557 35.47001 31.21779
#
# Velocity S-wave (km/s) = 3.24602 3.72286 3.49259
# Velocity P-wave (km/s) = 5.35307 6.26201 5.82530
#
# Compressibility (1/GPa) = 0.02675146
#
# Stress axis : x y z
#
# Youngs Moduli (GPa) = 65.09594 71.42843 51.32284
#
# Poissons Ratio (x) = 0.45334 0.18981
# Poissons Ratio (y) = 0.41315 0.05145
# Poissons Ratio (z) = 0.24075 0.07160
#
# Static dielectric constant tensor:
#      x y z
#    x 2.243850 0.000000 -0.072220 
#    y 0.000000 1.991240 0.000000 
#    z -0.072220 0.000000 2.116100 
# 
# From -- ./inp_files/275676.got.cif
#   From: 2010.05.17/outbox.cif.g08.bks.cpg/sg15_138_cif.got.tgz:275676.got - 2010.06.03 18:47:42.
