data_PCOD9265647
_publ_section_title
;
Structure prediction by ZEFSAII (Michael W. Deem and Ramdas Pophale) SiO2 
 PCOD9265647
Probable space group: C 2/C
;
_chemical_formula_sum "Si O2"
_cell_formula_units_Z 52
_cell_length_a 12.088584
_cell_length_b 9.117910
_cell_length_c 17.683883
_cell_angle_alpha 90.000000
_cell_angle_beta 90.250335
_cell_angle_gamma 90.000000
_cell_volume 1949.145328
_symmetry_space_group_name_H-M "C 2/C"
_symmetry_group_IT_number 15
_symmetry_cell_setting 'monoclinic'
loop_
_space_group_symop_operation_xyz
x,y,z
-x,y,1/2-z
-x,-y,-z
x,-y,1/2+z
1/2+x,1/2+y,z
1/2-x,1/2+y,1/2-z
1/2-x,1/2-y,-z
1/2+x,1/2-y,1/2+z
loop_
_atom_site_type_symbol
_atom_site_label
_atom_site_fract_x
_atom_site_fract_y
_atom_site_fract_z
Si Si1 0.169546 0.952112 0.965172
Si Si2 0.641655 0.621677 0.721469
Si Si3 0.000000 0.500000 0.000000
Si Si4 0.000000 0.139532 0.250000
Si Si5 0.992747 0.181266 0.569598
Si Si6 0.500000 0.872478 0.750000
Si Si7 0.954971 0.611554 0.869664
Si Si8 0.299397 0.145985 0.602145
O O1 0.219609 0.817224 0.916544
O O2 0.125429 0.099873 0.927535
O O3 0.232451 0.955057 0.045010
O O4 0.054479 0.876635 0.994395
O O5 0.603012 0.471574 0.759799
O O6 0.566966 0.640490 0.643936
O O7 0.601850 0.762162 0.769010
O O8 0.764864 0.621475 0.688795
O O9 0.004501 0.352731 0.944753
O O10 0.888711 0.574153 0.943700
O O11 0.031829 0.240372 0.178470
O O12 0.449421 0.983990 0.809515
O O13 0.074306 0.602415 0.915300
#
# Coordination Sequence:
#
# PCOD9265647 Si02
#       8
#     8   8   4   4   8   4   8   8
#     4   9  19  34  59  89 126 159 202 255 322 372
#     4  10  21  39  66  86 118 163 221 256 316 382
#     4  12  22  36  68  90 126 172 210 274 312 394
#     4  10  24  42  66  88 118 180 222 258 314 420
#     4  10  19  36  63  90 120 169 211 252 308 396
#     4  10  22  42  60  84 120 168 202 254 316 390
#     4  11  23  40  62  89 127 162 212 261 327 379
#     4  10  20  35  61  92 127 154 204 272 318 372
#
# _framework density 26.678360000000001
#
# number of rings (size 3 to 8) (size 9 to 14) (size 15 to 20)
#    0.000    1.846    3.077    0.923    4.308    1.231 
#    0.000    0.769    6.769    0.000    0.000    0.000 
#    0.000    0.000    0.000    0.000    0.000    0.000 
#
# Total GULP energy -144750.712938 kJ/mol
# GULP energy per Si atom -5567.335113 kJ/mol
# Density = 2.661764 g / cm^3
# Si number density = 26.678360 Si / 1000 Ang^3
#
#
#
# Elastic Constant Matrix: (Units=GPa)
#
#
# Indices 1 2 3 4 5 6 
#
# 1 42.2925 6.0036 -1.1137 0.0000 -1.1705 0.0000
# 2 6.0036 152.5299 35.3659 0.0000 7.1792 0.0000
# 3 -1.1137 35.3659 80.2703 0.0000 -9.4088 0.0000
# 4 0.0000 0.0000 0.0000 24.5776 0.0000 7.3179
# 5 -1.1705 7.1792 -9.4088 0.0000 51.3458 0.0000
# 6 0.0000 0.0000 0.0000 7.3179 0.0000 17.3520
#
#
#
# Elastic Compliance Matrix: (Units=1/GPa)
#
#
# Indices 1 2 3 4 5 6 
#
# 1 0.023866 -0.001205 0.000966 0.000000 0.000890 0.000000
# 2 -0.001205 0.007502 -0.003524 0.000000 -0.001722 0.000000
# 3 0.000966 -0.003524 0.014393 0.000000 0.003152 0.000000
# 4 0.000000 0.000000 0.000000 0.046530 0.000000 -0.019623
# 5 0.000890 -0.001722 0.003152 0.000000 0.020314 0.000000
# 6 0.000000 0.000000 0.000000 -0.019623 0.000000 0.065906
#
#
# Mechanical properties :
#
#
# Convention : Reuss Voigt Hill
#
# Bulk Modulus (GPa) = 26.15348 39.51159 32.83253
# Shear Modulus (GPa) = 25.15316 34.31087 29.73202
#
# Velocity S-wave (km/s) = 3.07389 3.59011 3.34198
# Velocity P-wave (km/s) = 4.73528 5.65930 5.21778
#
# Compressibility (1/GPa) = 0.03823583
#
# Stress axis : x y z
#
# Youngs Moduli (GPa) = 41.90057 133.30512 69.47694
#
# Poissons Ratio (x) = 0.16068 -0.06715
# Poissons Ratio (y) = 0.05050 0.24481
# Poissons Ratio (z) = -0.04050 0.46972
#
# Static dielectric constant tensor:
#      x y z
#    x 2.450010 0.000000 -0.204290 
#    y 0.000000 2.209320 0.000000 
#    z -0.204290 0.000000 2.617280 
# 
# From -- ./inp_files/242499.got.cif
#   From: 2010.05.17/outbox.cif.g08.bks.cpg/sg15_122_cif.got.tgz:242499.got - 2010.06.03 18:47:42.
