data_PCOD9265345
_publ_section_title
;
Structure prediction by ZEFSAII (Michael W. Deem and Ramdas Pophale) SiO2 
 PCOD9265345
Probable space group: C 2/C
;
_chemical_formula_sum "Si O2"
_cell_formula_units_Z 64
_cell_length_a 11.983302
_cell_length_b 8.197453
_cell_length_c 26.102120
_cell_angle_alpha 90.000000
_cell_angle_beta 102.715332
_cell_angle_gamma 90.000000
_cell_volume 2501.195668
_symmetry_space_group_name_H-M "C 2/C"
_symmetry_group_IT_number 15
_symmetry_cell_setting 'monoclinic'
loop_
_space_group_symop_operation_xyz
x,y,z
-x,y,1/2-z
-x,-y,-z
x,-y,1/2+z
1/2+x,1/2+y,z
1/2-x,1/2+y,1/2-z
1/2-x,1/2-y,-z
1/2+x,1/2-y,1/2+z
loop_
_atom_site_type_symbol
_atom_site_label
_atom_site_fract_x
_atom_site_fract_y
_atom_site_fract_z
Si Si1 0.253455 0.010966 0.414743
Si Si2 0.091165 0.688158 0.899980
Si Si3 0.012647 0.509163 0.193918
Si Si4 0.913876 0.088008 0.349310
Si Si5 0.773135 0.735483 0.764625
Si Si6 0.393111 0.085787 0.017789
Si Si7 0.632740 0.495478 0.801409
Si Si8 0.047049 0.255140 0.605138
O O1 0.162268 0.150858 0.419200
O O2 0.295435 0.900000 0.465472
O O3 0.359745 0.121450 0.407681
O O4 0.198247 0.936292 0.358315
O O5 0.083367 0.603952 0.843150
O O6 0.133891 0.549634 0.942098
O O7 0.961659 0.762016 0.888716
O O8 0.019910 0.660947 0.156558
O O9 0.000000 0.565218 0.250000
O O10 0.125534 0.394246 0.212206
O O11 0.009404 0.058446 0.312489
O O12 0.910015 0.925249 0.381436
O O13 0.795054 0.130083 0.310819
O O14 0.656768 0.636893 0.762032
O O15 0.802643 0.835781 0.715995
O O16 0.442220 0.237731 0.054574
O O17 0.500000 0.000000 0.000000
#
# Coordination Sequence:
#
# PCOD9265345 Si02
#       8
#     8   8   8   8   8   8   8   8
#     4  10  19  38  62  87 120 157 215 257 310 378
#     4   9  19  37  62  85 119 165 206 251 330 374
#     4  10  19  36  60  85 122 162 202 259 317 375
#     4  10  23  42  60  87 134 159 207 264 324 369
#     4  11  23  40  62  89 127 161 213 251 322 372
#     4   9  19  36  64  88 120 158 208 263 314 382
#     4  11  24  41  62  91 122 173 208 264 313 390
#     4  10  21  38  59  90 120 163 207 256 319 377
#
# _framework density 25.587764
#
# number of rings (size 3 to 8) (size 9 to 14) (size 15 to 20)
#    0.000    2.000    1.250    3.000    3.500    2.000 
#    4.500    5.000    0.000    0.000    0.000    0.000 
#    0.000    0.000    0.000    0.000    0.000    0.000 
#
# Total GULP energy -178690.705884 kJ/mol
# GULP energy per Si atom -5584.084559 kJ/mol
# Density = 2.552952 g / cm^3
# Si number density = 25.587764 Si / 1000 Ang^3
#
#
#
# Elastic Constant Matrix: (Units=GPa)
#
#
# Indices 1 2 3 4 5 6 
#
# 1 47.5790 5.2365 19.5922 0.0000 10.3639 0.0000
# 2 5.2365 74.4856 14.5107 0.0000 4.4059 0.0000
# 3 19.5922 14.5107 113.0759 0.0000 20.5583 0.0000
# 4 0.0000 0.0000 0.0000 20.9440 0.0000 19.8967
# 5 10.3639 4.4059 20.5583 0.0000 26.5996 0.0000
# 6 0.0000 0.0000 0.0000 19.8967 0.0000 23.1375
#
#
#
# Elastic Compliance Matrix: (Units=1/GPa)
#
#
# Indices 1 2 3 4 5 6 
#
# 1 0.023756 -0.000720 -0.002749 0.000000 -0.007012 0.000000
# 2 -0.000720 0.013817 -0.001493 0.000000 -0.000854 0.000000
# 3 -0.002749 -0.001493 0.010788 0.000000 -0.007019 0.000000
# 4 0.000000 0.000000 0.000000 0.260810 0.000000 -0.224279
# 5 -0.007012 -0.000854 -0.007019 0.000000 0.045893 0.000000
# 6 0.000000 0.000000 0.000000 -0.224279 0.000000 0.236085
#
#
# Mechanical properties :
#
#
# Convention : Reuss Voigt Hill
#
# Bulk Modulus (GPa) = 26.01609 34.86882 30.44246
# Shear Modulus (GPa) = 8.14485 27.18961 17.66723
#
# Velocity S-wave (km/s) = 1.78606 3.26329 2.63050
# Velocity P-wave (km/s) = 3.80037 5.27783 4.59882
#
# Compressibility (1/GPa) = 0.03843774
#
# Stress axis : x y z
#
# Youngs Moduli (GPa) = 42.09413 72.37238 92.69834
#
# Poissons Ratio (x) = 0.05209 0.25482
# Poissons Ratio (y) = 0.03030 0.13841
# Poissons Ratio (z) = 0.11571 0.10806
#
# Static dielectric constant tensor:
#      x y z
#    x 2.133160 0.000000 -0.010530 
#    y 0.000000 2.008350 0.000000 
#    z -0.010530 0.000000 1.943700 
# 
# From -- ./inp_files/295208.got.cif
#   From: 2010.05.17/outbox.cif.g08.bks.cpg/sg15_148_cif.got.tgz:295208.got - 2010.06.03 18:47:42.
