data_PCOD9265424
_publ_section_title
;
Structure prediction by ZEFSAII (Michael W. Deem and Ramdas Pophale) SiO2 
 PCOD9265424
Probable space group: C 2/C
;
_chemical_formula_sum "Si O2"
_cell_formula_units_Z 52
_cell_length_a 15.170788
_cell_length_b 8.407830
_cell_length_c 22.005895
_cell_angle_alpha 90.000000
_cell_angle_beta 124.343499
_cell_angle_gamma 90.000000
_cell_volume 2317.595946
_symmetry_space_group_name_H-M "C 2/C"
_symmetry_group_IT_number 15
_symmetry_cell_setting 'monoclinic'
loop_
_space_group_symop_operation_xyz
x,y,z
-x,y,1/2-z
-x,-y,-z
x,-y,1/2+z
1/2+x,1/2+y,z
1/2-x,1/2+y,1/2-z
1/2-x,1/2-y,-z
1/2+x,1/2-y,1/2+z
loop_
_atom_site_type_symbol
_atom_site_label
_atom_site_fract_x
_atom_site_fract_y
_atom_site_fract_z
Si Si1 0.281664 0.416874 0.144639
Si Si2 0.663795 0.547616 0.457786
Si Si3 0.069729 0.651582 0.867034
Si Si4 0.500000 0.600834 0.250000
Si Si5 0.056277 0.547924 0.085214
Si Si6 0.952727 0.925751 0.418563
Si Si7 0.260903 0.955435 0.626115
O O1 0.266856 0.480051 0.069968
O O2 0.392063 0.497687 0.207833
O O3 0.174809 0.474694 0.136309
O O4 0.289329 0.227119 0.146889
O O5 0.641725 0.734974 0.439026
O O6 0.546226 0.467126 0.408329
O O7 0.712892 0.489290 0.539951
O O8 0.137513 0.569778 0.839413
O O9 0.996234 0.780524 0.805871
O O10 0.012262 0.521837 0.885828
O O11 0.060468 0.737690 0.084935
O O12 0.000000 0.500000 0.000000
O O13 0.834860 0.998135 0.365842
O O14 0.000000 0.000000 0.500000
#
# Coordination Sequence:
#
# PCOD9265424 Si02
#       7
#     8   8   8   4   8   8   8
#     4  11  23  41  65  91 131 170 216 265 312 392
#     4  10  19  36  60  96 132 163 204 268 331 382
#     4  11  23  41  65  90 130 171 217 269 317 394
#     4  10  26  48  60  86 126 184 230 258 312 378
#     4  12  22  39  68 104 130 163 208 273 343 383
#     4  10  20  34  57  95 136 161 197 253 326 401
#     4  11  20  36  63  97 126 166 210 270 332 376
#
# _framework density 22.437042999999999
#
# number of rings (size 3 to 8) (size 9 to 14) (size 15 to 20)
#    0.000    1.231    0.000    9.231    0.000    0.615 
#    0.000    9.231    0.000    0.000    0.000    0.000 
#    0.000    0.000    0.000    0.000    0.000    0.000 
#
# Total GULP energy -145325.855803 kJ/mol
# GULP energy per Si atom -5589.455992 kJ/mol
# Density = 2.238598 g / cm^3
# Si number density = 22.437043 Si / 1000 Ang^3
#
#
#
# Elastic Constant Matrix: (Units=GPa)
#
#
# Indices 1 2 3 4 5 6 
#
# 1 78.4606 25.3973 4.2676 0.0000 28.6114 0.0000
# 2 25.3973 183.2004 37.7564 0.0000 22.7791 0.0000
# 3 4.2676 37.7564 72.4556 0.0000 17.7731 0.0000
# 4 0.0000 0.0000 0.0000 23.2307 0.0000 6.0795
# 5 28.6114 22.7791 17.7731 0.0000 27.8504 0.0000
# 6 0.0000 0.0000 0.0000 6.0795 0.0000 44.6401
#
#
#
# Elastic Compliance Matrix: (Units=1/GPa)
#
#
# Indices 1 2 3 4 5 6 
#
# 1 0.021968 -0.001031 0.005421 0.000000 -0.025184 0.000000
# 2 -0.001031 0.006469 -0.002694 0.000000 -0.002512 0.000000
# 3 0.005421 -0.002694 0.018628 0.000000 -0.015253 0.000000
# 4 0.000000 0.000000 0.000000 0.044637 0.000000 -0.006079
# 5 -0.025184 -0.002512 -0.015253 0.000000 0.073568 0.000000
# 6 0.000000 0.000000 0.000000 -0.006079 0.000000 0.023229
#
#
# Mechanical properties :
#
#
# Convention : Reuss Voigt Hill
#
# Bulk Modulus (GPa) = 19.81904 52.10656 35.96280
# Shear Modulus (GPa) = 24.76149 36.92391 30.84270
#
# Velocity S-wave (km/s) = 3.32565 4.06108 3.71163
# Velocity P-wave (km/s) = 4.85788 6.72783 5.86782
#
# Compressibility (1/GPa) = 0.05045652
#
# Stress axis : x y z
#
# Youngs Moduli (GPa) = 45.52088 154.58144 53.68346
#
# Poissons Ratio (x) = 0.15942 -0.29103
# Poissons Ratio (y) = 0.04695 0.14462
# Poissons Ratio (z) = -0.24678 0.41644
#
# Static dielectric constant tensor:
#      x y z
#    x 1.860160 0.000000 0.033170 
#    y 0.000000 1.789990 0.000000 
#    z 0.033170 0.000000 1.905090 
# 
# From -- ./inp_files/295278.got.cif
#   From: 2010.05.17/outbox.cif.g08.bks.cpg/sg15_148_cif.got.tgz:295278.got - 2010.06.03 18:47:42.
