data_PCOD9265738
_publ_section_title
;
Structure prediction by ZEFSAII (Michael W. Deem and Ramdas Pophale) SiO2 
 PCOD9265738
Probable space group: C 2/C
;
_chemical_formula_sum "Si O2"
_cell_formula_units_Z 44
_cell_length_a 22.826940
_cell_length_b 16.134799
_cell_length_c 11.623980
_cell_angle_alpha 90.000000
_cell_angle_beta 152.212088
_cell_angle_gamma 90.000000
_cell_volume 1995.898192
_symmetry_space_group_name_H-M "C 2/C"
_symmetry_group_IT_number 15
_symmetry_cell_setting 'monoclinic'
loop_
_space_group_symop_operation_xyz
x,y,z
-x,y,1/2-z
-x,-y,-z
x,-y,1/2+z
1/2+x,1/2+y,z
1/2-x,1/2+y,1/2-z
1/2-x,1/2-y,-z
1/2+x,1/2-y,1/2+z
loop_
_atom_site_type_symbol
_atom_site_label
_atom_site_fract_x
_atom_site_fract_y
_atom_site_fract_z
Si Si1 0.500000 0.998918 0.750000
Si Si2 0.724486 0.907330 0.529145
Si Si3 0.704000 0.742312 0.612734
Si Si4 0.957841 0.892519 0.801349
Si Si5 0.378749 0.733650 0.792002
Si Si6 0.924970 0.358492 0.456948
O O1 0.486406 0.938006 0.618704
O O2 0.368380 0.046463 0.543537
O O3 0.763006 0.820206 0.652539
O O4 0.853212 0.941419 0.694549
O O5 0.634486 0.884496 0.266909
O O6 0.614353 0.690503 0.371906
O O7 0.636276 0.774607 0.608192
O O8 0.810264 0.676609 0.833735
O O9 0.000000 0.931052 0.750000
O O10 0.068992 0.857233 0.076730
O O11 0.250000 0.750000 0.500000
O O12 0.481796 0.782960 0.899795
#
# Coordination Sequence:
#
# PCOD9265738 Si02
#       6
#     4   8   8   8   8   8
#     4  12  26  34  60 100 142 160 202 276 350 366
#     4  11  20  39  62  88 122 171 216 261 312 397
#     4  10  19  36  65  85 119 166 222 258 309 381
#     4   9  18  35  62  91 115 161 221 272 301 371
#     4  11  20  32  58  92 129 158 208 268 321 367
#     4  11  21  40  56  92 129 165 209 269 324 380
#
# _framework density 22.045210999999998
#
# number of rings (size 3 to 8) (size 9 to 14) (size 15 to 20)
#    0.000    1.455    3.636    3.818    1.273    0.000 
#    0.000    0.000    0.000   17.455    0.000    0.000 
#    0.000    0.000    0.000    0.000    0.000    0.000 
#
# Total GULP energy -122586.436907 kJ/mol
# GULP energy per Si atom -5572.110769 kJ/mol
# Density = 2.199504 g / cm^3
# Si number density = 22.045211 Si / 1000 Ang^3
#
#
#
# Elastic Constant Matrix: (Units=GPa)
#
#
# Indices 1 2 3 4 5 6 
#
# 1 100.4485 12.9022 10.1350 0.0000 24.0010 0.0000
# 2 12.9022 38.5034 9.3735 0.0000 4.4551 0.0000
# 3 10.1350 9.3735 94.8264 0.0000 7.7837 0.0000
# 4 0.0000 0.0000 0.0000 13.4902 0.0000 -1.7563
# 5 24.0010 4.4551 7.7837 0.0000 33.7395 0.0000
# 6 0.0000 0.0000 0.0000 -1.7563 0.0000 4.7929
#
#
#
# Elastic Compliance Matrix: (Units=1/GPa)
#
#
# Indices 1 2 3 4 5 6 
#
# 1 0.012375 -0.003103 -0.000333 0.000000 -0.008316 0.000000
# 2 -0.003103 0.027684 -0.002330 0.000000 -0.000910 0.000000
# 3 -0.000333 -0.002330 0.010975 0.000000 -0.001987 0.000000
# 4 0.000000 0.000000 0.000000 0.077842 0.000000 0.028525
# 5 -0.008316 -0.000910 -0.001987 0.000000 0.036133 0.000000
# 6 0.000000 0.000000 0.000000 0.028525 0.000000 0.219093
#
#
# Mechanical properties :
#
#
# Convention : Reuss Voigt Hill
#
# Bulk Modulus (GPa) = 25.31633 33.17776 29.24704
# Shear Modulus (GPa) = 12.23088 23.82903 18.02995
#
# Velocity S-wave (km/s) = 2.35799 3.29130 2.86293
# Velocity P-wave (km/s) = 4.34997 5.43379 4.92180
#
# Compressibility (1/GPa) = 0.03950020
#
# Stress axis : x y z
#
# Youngs Moduli (GPa) = 80.81044 36.12165 91.11910
#
# Poissons Ratio (x) = 0.11210 0.03036
# Poissons Ratio (y) = 0.25078 0.21232
# Poissons Ratio (z) = 0.02693 0.08417
#
# Static dielectric constant tensor:
#      x y z
#    x 1.961780 0.000000 0.072810 
#    y 0.000000 1.791200 0.000000 
#    z 0.072810 0.000000 1.848390 
# 
# From -- ./inp_files/119309.got.cif
#   From: 2010.05.17/outbox.cif.g08.bks.cpg/sg15_60_cif.got.tgz:119309.got - 2010.06.03 18:47:42.
