data_PCOD9265399
_publ_section_title
;
Structure prediction by ZEFSAII (Michael W. Deem and Ramdas Pophale) SiO2 
 PCOD9265399
Probable space group: C 2/C
;
_chemical_formula_sum "Si O2"
_cell_formula_units_Z 64
_cell_length_a 11.182821
_cell_length_b 13.945086
_cell_length_c 20.701017
_cell_angle_alpha 90.000000
_cell_angle_beta 106.146760
_cell_angle_gamma 90.000000
_cell_volume 3100.882892
_symmetry_space_group_name_H-M "C 2/C"
_symmetry_group_IT_number 15
_symmetry_cell_setting 'monoclinic'
loop_
_space_group_symop_operation_xyz
x,y,z
-x,y,1/2-z
-x,-y,-z
x,-y,1/2+z
1/2+x,1/2+y,z
1/2-x,1/2+y,1/2-z
1/2-x,1/2-y,-z
1/2+x,1/2-y,1/2+z
loop_
_atom_site_type_symbol
_atom_site_label
_atom_site_fract_x
_atom_site_fract_y
_atom_site_fract_z
Si Si1 0.120738 0.483292 0.692492
Si Si2 0.439410 0.854572 0.170555
Si Si3 0.007147 0.281025 0.822185
Si Si4 0.643354 0.467209 0.024041
Si Si5 0.668602 0.721150 0.597139
Si Si6 0.772400 0.425565 0.662721
Si Si7 0.273626 0.566678 0.096737
Si Si8 0.476830 0.658376 0.323124
O O1 0.168262 0.497074 0.773507
O O2 0.218867 0.490997 0.649498
O O3 0.999759 0.546058 0.654771
O O4 0.086175 0.371753 0.693328
O O5 0.500000 0.848944 0.250000
O O6 0.295598 0.822012 0.147816
O O7 0.504375 0.764280 0.144790
O O8 0.136939 0.339148 0.846897
O O9 0.000000 0.233665 0.750000
O O10 0.948971 0.219372 0.871273
O O11 0.643202 0.352273 0.035503
O O12 0.713955 0.517367 0.094181
O O13 0.500000 0.500000 0.000000
O O14 0.722212 0.485845 0.971043
O O15 0.699846 0.831040 0.582618
O O16 0.659088 0.377802 0.683347
O O17 0.416966 0.591746 0.131591
O O18 0.500000 0.658051 0.250000
#
# Coordination Sequence:
#
# PCOD9265399 Si02
#       8
#     8   8   8   8   8   8   8   8
#     4  10  19  38  64  93 118 155 206 259 305 362
#     4  10  20  34  63  94 120 152 208 255 307 368
#     4   9  20  37  65  91 122 160 197 254 318 362
#     4  12  24  40  60  88 126 166 206 251 307 368
#     4  10  22  42  61  87 122 161 205 255 307 367
#     4  11  21  39  62  88 130 163 201 254 314 364
#     4  10  21  40  63  86 120 161 209 250 304 368
#     4  10  19  36  60  89 120 165 202 250 310 367
#
# _framework density 20.639284
#
# number of rings (size 3 to 8) (size 9 to 14) (size 15 to 20)
#    0.000    1.750    2.500    3.000    5.250    0.000 
#    2.250    9.375    0.000    0.000    0.000    0.000 
#    0.000    0.000    0.000    0.000    0.000    0.000 
#
# Total GULP energy -178247.832433 kJ/mol
# GULP energy per Si atom -5570.244764 kJ/mol
# Density = 2.059231 g / cm^3
# Si number density = 20.639284 Si / 1000 Ang^3
#
#
#
# Elastic Constant Matrix: (Units=GPa)
#
#
# Indices 1 2 3 4 5 6 
#
# 1 136.7534 22.1684 45.5367 0.0000 -14.8789 0.0000
# 2 22.1684 29.5823 12.5889 0.0000 1.3184 0.0000
# 3 45.5367 12.5889 86.3385 0.0000 -10.4979 0.0000
# 4 0.0000 0.0000 0.0000 19.4327 0.0000 6.2721
# 5 -14.8789 1.3184 -10.4979 0.0000 31.7047 0.0000
# 6 0.0000 0.0000 0.0000 6.2721 0.0000 -2.9669
#
#
#
# Elastic Compliance Matrix: (Units=1/GPa)
#
#
# Indices 1 2 3 4 5 6 
#
# 1 0.009992 -0.005965 -0.003960 0.000000 0.003626 0.000000
# 2 -0.005965 0.039951 -0.003357 0.000000 -0.005572 0.000000
# 3 -0.003960 -0.003357 0.014536 0.000000 0.003095 0.000000
# 4 0.000000 0.000000 0.000000 0.030588 0.000000 0.064665
# 5 0.003626 -0.005572 0.003095 0.000000 0.034499 0.000000
# 6 0.000000 0.000000 0.000000 0.064665 0.000000 -0.200351
#
#
# Mechanical properties :
#
#
# Convention : Reuss Voigt Hill
#
# Bulk Modulus (GPa) = 26.37308 45.91802 36.14555
# Shear Modulus (GPa) = -158.31587 21.12611 -68.59488
#
# Velocity S-wave (km/s) = -8.76770 3.20283 -5.77124
# Velocity P-wave (km/s) = 9.47053 5.99780 5.18254
#
# Compressibility (1/GPa) = 0.03791745
#
# Stress axis : x y z
#
# Youngs Moduli (GPa) = 100.07648 25.03086 68.79294
#
# Poissons Ratio (x) = 0.14930 0.27239
# Poissons Ratio (y) = 0.59693 0.23092
# Poissons Ratio (z) = 0.39626 0.08402
#
# Static dielectric constant tensor:
#      x y z
#    x 1.762170 0.000000 -0.017340 
#    y 0.000000 1.808210 0.000000 
#    z -0.017340 0.000000 1.830350 
# 
# From -- ./inp_files/238786.got.cif
#   From: 2010.05.17/outbox.cif.g08.bks.cpg/sg15_120_cif.got.tgz:238786.got - 2010.06.03 18:47:42.
