data_PCOD9265989
_publ_section_title
;
Structure prediction by ZEFSAII (Michael W. Deem and Ramdas Pophale) SiO2 
 PCOD9265989
Probable space group: C 2/C
;
_chemical_formula_sum "Si O2"
_cell_formula_units_Z 64
_cell_length_a 10.733682
_cell_length_b 13.252406
_cell_length_c 24.301093
_cell_angle_alpha 90.000000
_cell_angle_beta 47.543491
_cell_angle_gamma 90.000000
_cell_volume 2550.362963
_symmetry_space_group_name_H-M "C 2/C"
_symmetry_group_IT_number 15
_symmetry_cell_setting 'monoclinic'
loop_
_space_group_symop_operation_xyz
x,y,z
-x,y,1/2-z
-x,-y,-z
x,-y,1/2+z
1/2+x,1/2+y,z
1/2-x,1/2+y,1/2-z
1/2-x,1/2-y,-z
1/2+x,1/2-y,1/2+z
loop_
_atom_site_type_symbol
_atom_site_label
_atom_site_fract_x
_atom_site_fract_y
_atom_site_fract_z
Si Si1 0.415984 0.955876 0.169443
Si Si2 0.176052 0.215243 0.220823
Si Si3 0.398265 0.474747 0.691898
Si Si4 0.698187 0.709980 0.696172
Si Si5 0.944460 0.375931 0.575352
Si Si6 0.101297 0.128036 0.418455
Si Si7 0.720839 0.568341 0.945502
Si Si8 0.757037 0.965941 0.440670
O O1 0.287776 0.975727 0.258035
O O2 0.300865 0.893808 0.161049
O O3 0.591056 0.897233 0.124726
O O4 0.469730 0.060387 0.124726
O O5 0.248009 0.256755 0.257390
O O6 0.325872 0.214750 0.131169
O O7 0.000000 0.258627 0.250000
O O8 0.130533 0.097118 0.247351
O O9 0.441841 0.394924 0.631887
O O10 0.556285 0.550196 0.640618
O O11 0.500000 0.701135 0.750000
O O12 0.762103 0.785901 0.630089
O O13 0.835139 0.447275 0.567456
O O14 0.127725 0.373612 0.491581
O O15 0.931660 0.148173 0.503377
O O16 0.171139 0.021724 0.419445
O O17 0.721535 0.515523 0.005258
#
# Coordination Sequence:
#
# PCOD9265989 Si02
#       8
#     8   8   8   8   8   8   8   8
#     4  10  22  36  57  87 119 162 196 254 311 379
#     4  10  19  37  59  83 112 156 204 255 296 367
#     4   9  18  32  58  86 112 146 199 252 301 357
#     4  11  26  38  58  89 131 166 199 253 328 371
#     4   9  18  31  59  84 107 147 201 255 292 360
#     4   9  20  38  61  89 118 161 204 264 305 368
#     4   9  19  37  62  87 114 152 215 255 307 367
#     4   9  16  29  54  87 106 136 193 256 296 345
#
# _framework density 25.094467999999999
#
# number of rings (size 3 to 8) (size 9 to 14) (size 15 to 20)
#    0.000    2.500    1.250    0.000    8.750    0.500 
#    2.250    0.000    0.000    1.500    0.000    0.000 
#    0.000    0.000    0.000    0.000    0.000    0.000 
#
# Total GULP energy -178396.389043 kJ/mol
# GULP energy per Si atom -5574.887158 kJ/mol
# Density = 2.503735 g / cm^3
# Si number density = 25.094468 Si / 1000 Ang^3
#
#
#
# Elastic Constant Matrix: (Units=GPa)
#
#
# Indices 1 2 3 4 5 6 
#
# 1 76.1982 1.2191 41.8326 0.0000 -27.5644 0.0000
# 2 1.2191 31.3136 30.4771 0.0000 -6.6992 0.0000
# 3 41.8326 30.4771 181.6974 0.0000 -52.0359 0.0000
# 4 0.0000 0.0000 0.0000 34.0509 0.0000 7.9194
# 5 -27.5644 -6.6992 -52.0359 0.0000 58.1922 0.0000
# 6 0.0000 0.0000 0.0000 7.9194 0.0000 20.7305
#
#
#
# Elastic Compliance Matrix: (Units=1/GPa)
#
#
# Indices 1 2 3 4 5 6 
#
# 1 0.016674 0.003236 -0.002706 0.000000 0.005851 0.000000
# 2 0.003236 0.038933 -0.007465 0.000000 -0.000660 0.000000
# 3 -0.002706 -0.007465 0.009095 0.000000 0.005991 0.000000
# 4 0.000000 0.000000 0.000000 0.032231 0.000000 -0.012313
# 5 0.005851 -0.000660 0.005991 0.000000 0.025237 0.000000
# 6 0.000000 0.000000 0.000000 -0.012313 0.000000 0.052942
#
#
# Mechanical properties :
#
#
# Convention : Reuss Voigt Hill
#
# Bulk Modulus (GPa) = 19.67220 48.47409 34.07315
# Shear Modulus (GPa) = 24.28067 36.97343 30.62705
#
# Velocity S-wave (km/s) = 3.11395 3.84261 3.49731
# Velocity P-wave (km/s) = 4.55908 6.24869 5.46952
#
# Compressibility (1/GPa) = 0.05083314
#
# Stress axis : x y z
#
# Youngs Moduli (GPa) = 59.97329 25.68520 109.95547
#
# Poissons Ratio (x) = -0.08313 0.29756
# Poissons Ratio (y) = -0.19410 0.82076
# Poissons Ratio (z) = 0.16230 0.19173
#
# Static dielectric constant tensor:
#      x y z
#    x 2.064580 0.000000 -0.032230 
#    y 0.000000 2.034770 0.000000 
#    z -0.032230 0.000000 2.059100 
# 
# From -- ./inp_files/199221.got.cif
#   From: 2010.05.17/outbox.cif.g08.bks.cpg/sg15_100_cif.got.tgz:199221.got - 2010.06.03 18:47:42.
