data_PCOD9265715
_publ_section_title
;
Structure prediction by ZEFSAII (Michael W. Deem and Ramdas Pophale) SiO2 
 PCOD9265715
Probable space group: C 2/C
;
_chemical_formula_sum "Si O2"
_cell_formula_units_Z 40
_cell_length_a 10.169202
_cell_length_b 17.453503
_cell_length_c 14.379359
_cell_angle_alpha 90.000000
_cell_angle_beta 135.951201
_cell_angle_gamma 90.000000
_cell_volume 1774.446808
_symmetry_space_group_name_H-M "C 2/C"
_symmetry_group_IT_number 15
_symmetry_cell_setting 'monoclinic'
loop_
_space_group_symop_operation_xyz
x,y,z
-x,y,1/2-z
-x,-y,-z
x,-y,1/2+z
1/2+x,1/2+y,z
1/2-x,1/2+y,1/2-z
1/2-x,1/2-y,-z
1/2+x,1/2-y,1/2+z
loop_
_atom_site_type_symbol
_atom_site_label
_atom_site_fract_x
_atom_site_fract_y
_atom_site_fract_z
Si Si1 0.991027 0.244746 0.453668
Si Si2 0.152781 0.358293 0.404336
Si Si3 0.553279 0.553177 0.671375
Si Si4 0.790817 0.472148 0.633411
Si Si5 0.097316 0.770617 0.203518
O O1 0.079551 0.324056 0.462797
O O2 0.146217 0.180042 0.513398
O O3 0.967193 0.249497 0.551114
O O4 0.797717 0.228409 0.302653
O O5 0.168780 0.448294 0.401027
O O6 0.000000 0.331573 0.250000
O O7 0.500000 0.527746 0.750000
O O8 0.690200 0.497710 0.679919
O O9 0.366790 0.566282 0.512077
O O10 0.642044 0.637969 0.725363
O O11 0.000000 0.435773 0.750000
O O12 0.000000 0.753375 0.250000
#
# Coordination Sequence:
#
# PCOD9265715 Si02
#       5
#     8   8   8   8   8
#     4  11  20  37  60  90 119 156 196 249 308 349
#     4  10  19  36  64  91 122 147 195 261 306 349
#     4  10  22  41  62  87 128 161 202 252 302 360
#     4  10  20  41  67  89 118 163 207 252 301 358
#     4  11  22  39  59  85 126 167 196 242 301 370
#
# _framework density 22.542235999999999
#
# number of rings (size 3 to 8) (size 9 to 14) (size 15 to 20)
#    0.000    1.600    4.000    1.800    0.000    0.800 
#    3.600    5.000    0.000    0.000    0.000    0.000 
#    0.000    0.000    0.000    0.000    0.000    0.000 
#
# Total GULP energy -111745.438110 kJ/mol
# GULP energy per Si atom -5587.271905 kJ/mol
# Density = 2.249093 g / cm^3
# Si number density = 22.542236 Si / 1000 Ang^3
#
#
#
# Elastic Constant Matrix: (Units=GPa)
#
#
# Indices 1 2 3 4 5 6 
#
# 1 96.7775 6.7642 32.0752 -0.0001 -8.5990 0.0000
# 2 6.7642 33.0099 13.5665 0.0000 -0.6183 0.0000
# 3 32.0752 13.5665 88.2283 -0.0002 19.9684 -0.0001
# 4 -0.0001 0.0000 -0.0002 23.8489 -0.0001 9.0335
# 5 -8.5990 -0.6183 19.9684 -0.0001 61.0305 0.0000
# 6 0.0000 0.0000 -0.0001 9.0335 0.0000 14.4723
#
#
#
# Elastic Compliance Matrix: (Units=1/GPa)
#
#
# Indices 1 2 3 4 5 6 
#
# 1 0.012400 -0.000322 -0.005241 0.000000 0.003459 0.000000
# 2 -0.000322 0.032600 -0.005357 0.000000 0.002038 0.000000
# 3 -0.005241 -0.005357 0.015382 0.000000 -0.005825 0.000000
# 4 0.000000 0.000000 0.000000 0.054914 0.000000 -0.034277
# 5 0.003459 0.002038 -0.005825 0.000000 0.018799 0.000000
# 6 0.000000 0.000000 0.000000 -0.034277 0.000000 0.090493
#
#
# Mechanical properties :
#
#
# Convention : Reuss Voigt Hill
#
# Bulk Modulus (GPa) = 25.94625 35.86973 30.90799
# Shear Modulus (GPa) = 19.28453 30.91098 25.09776
#
# Velocity S-wave (km/s) = 2.92804 3.70705 3.34033
# Velocity P-wave (km/s) = 4.79231 5.85404 5.34958
#
# Compressibility (1/GPa) = 0.03854121
#
# Stress axis : x y z
#
# Youngs Moduli (GPa) = 80.64564 30.67519 65.01176
#
# Poissons Ratio (x) = 0.00988 0.34074
# Poissons Ratio (y) = 0.02597 0.34825
# Poissons Ratio (z) = 0.42268 0.16432
#
# Static dielectric constant tensor:
#      x y z
#    x 1.867880 0.000000 0.010830 
#    y 0.000000 1.817760 0.000000 
#    z 0.010830 0.000000 1.785950 
# 
# From -- ./inp_files/146896.got.cif
#   From: 2010.05.17/outbox.cif.g08.bks.cpg/sg15_74_cif.got.tgz:146896.got - 2010.06.03 18:47:42.
