data_PCOD9265875
_publ_section_title
;
Structure prediction by ZEFSAII (Michael W. Deem and Ramdas Pophale) SiO2 
 PCOD9265875
Probable space group: C 2/C
;
_chemical_formula_sum "Si O2"
_cell_formula_units_Z 48
_cell_length_a 22.416883
_cell_length_b 18.871333
_cell_length_c 10.936604
_cell_angle_alpha 90.000000
_cell_angle_beta 146.091220
_cell_angle_gamma 90.000000
_cell_volume 2581.042069
_symmetry_space_group_name_H-M "C 2/C"
_symmetry_group_IT_number 15
_symmetry_cell_setting 'monoclinic'
loop_
_space_group_symop_operation_xyz
x,y,z
-x,y,1/2-z
-x,-y,-z
x,-y,1/2+z
1/2+x,1/2+y,z
1/2-x,1/2+y,1/2-z
1/2-x,1/2-y,-z
1/2+x,1/2-y,1/2+z
loop_
_atom_site_type_symbol
_atom_site_label
_atom_site_fract_x
_atom_site_fract_y
_atom_site_fract_z
Si Si1 0.286893 0.866845 0.780680
Si Si2 0.783849 0.169198 0.586331
Si Si3 0.380240 0.849224 0.506217
Si Si4 0.931104 0.495136 0.506890
Si Si5 0.828512 0.772060 0.741032
Si Si6 0.953071 0.234119 0.035494
O O1 0.204646 0.863915 0.526878
O O2 0.218027 0.844862 0.782154
O O3 0.381320 0.806359 0.924990
O O4 0.346993 0.941421 0.878593
O O5 0.750000 0.250000 0.500000
O O6 0.684184 0.132094 0.481651
O O7 0.878079 0.175133 0.844533
O O8 0.380409 0.916887 0.419698
O O9 0.324883 0.783144 0.347004
O O10 0.500000 0.830083 0.750000
O O11 0.000000 0.496376 0.750000
O O12 0.000000 0.500000 0.500000
O O13 0.750000 0.750000 0.500000
O O14 0.946670 0.763110 0.886305
O O15 0.000000 0.218641 0.250000
#
# Coordination Sequence:
#
# PCOD9265875 Si02
#       6
#     8   8   8   8   8   8
#     4  11  22  38  59  92 128 158 205 253 314 379
#     4  10  19  37  56  86 118 159 200 255 311 358
#     4  11  21  38  62  90 125 160 201 250 317 377
#     4  11  24  40  62  93 133 169 199 256 323 382
#     4  12  23  35  60  92 119 162 210 259 311 356
#     4  11  20  36  56  86 125 152 202 261 305 366
#
# _framework density 18.597141000000001
#
# number of rings (size 3 to 8) (size 9 to 14) (size 15 to 20)
#    0.000    1.000    5.000    5.500    2.333    0.000 
#    0.000    0.000    0.000    1.000    4.333    0.000 
#    0.000    0.000    0.000    0.000    0.000    0.000 
#
# Total GULP energy -133779.270769 kJ/mol
# GULP energy per Si atom -5574.136282 kJ/mol
# Density = 1.855481 g / cm^3
# Si number density = 18.597141 Si / 1000 Ang^3
#
#
#
# Elastic Constant Matrix: (Units=GPa)
#
#
# Indices 1 2 3 4 5 6 
#
# 1 103.7500 3.9881 7.2717 0.0000 -2.5073 0.0000
# 2 3.9881 57.6807 11.2285 0.0000 0.9949 0.0000
# 3 7.2717 11.2285 95.7618 0.0000 -15.3374 0.0000
# 4 0.0000 0.0000 0.0000 25.0957 0.0000 2.8102
# 5 -2.5073 0.9949 -15.3374 0.0000 38.3764 0.0000
# 6 0.0000 0.0000 0.0000 2.8102 0.0000 31.1862
#
#
#
# Elastic Compliance Matrix: (Units=1/GPa)
#
#
# Indices 1 2 3 4 5 6 
#
# 1 0.009712 -0.000560 -0.000607 0.000000 0.000407 0.000000
# 2 -0.000560 0.017843 -0.002275 0.000000 -0.001408 0.000000
# 3 -0.000607 -0.002275 0.011494 0.000000 0.004613 0.000000
# 4 0.000000 0.000000 0.000000 0.040254 0.000000 -0.003627
# 5 0.000407 -0.001408 0.004613 0.000000 0.027964 0.000000
# 6 0.000000 0.000000 0.000000 -0.003627 0.000000 0.032392
#
#
# Mechanical properties :
#
#
# Convention : Reuss Voigt Hill
#
# Bulk Modulus (GPa) = 31.08981 33.57436 32.33208
# Shear Modulus (GPa) = 31.79324 34.57861 33.18593
#
# Velocity S-wave (km/s) = 4.13919 4.31670 4.22887
# Velocity P-wave (km/s) = 6.29267 6.55270 6.42400
#
# Compressibility (1/GPa) = 0.03216488
#
# Stress axis : x y z
#
# Youngs Moduli (GPa) = 102.96072 56.04509 86.99988
#
# Poissons Ratio (x) = 0.03141 0.05278
# Poissons Ratio (y) = 0.05770 0.19794
# Poissons Ratio (z) = 0.06246 0.12751
#
# Static dielectric constant tensor:
#      x y z
#    x 1.723080 0.000000 0.025420 
#    y 0.000000 1.931770 0.000000 
#    z 0.025420 0.000000 1.663190 
# 
# From -- ./inp_files/87218.got.cif
#   From: 2010.05.17/outbox.cif.g08.bks.cpg/sg15_44_cif.got.tgz:87218.got - 2010.06.03 18:47:42.
