data_PCOD9265000
_publ_section_title
;
Structure prediction by ZEFSAII (Michael W. Deem and Ramdas Pophale) SiO2 
 PCOD9265000
Probable space group: C 2/C
;
_chemical_formula_sum "Si O2"
_cell_formula_units_Z 56
_cell_length_a 8.016707
_cell_length_b 14.717111
_cell_length_c 27.217566
_cell_angle_alpha 90.000000
_cell_angle_beta 121.325828
_cell_angle_gamma 90.000000
_cell_volume 2743.089079
_symmetry_space_group_name_H-M "C 2/C"
_symmetry_group_IT_number 15
_symmetry_cell_setting 'monoclinic'
loop_
_space_group_symop_operation_xyz
x,y,z
-x,y,1/2-z
-x,-y,-z
x,-y,1/2+z
1/2+x,1/2+y,z
1/2-x,1/2+y,1/2-z
1/2-x,1/2-y,-z
1/2+x,1/2-y,1/2+z
loop_
_atom_site_type_symbol
_atom_site_label
_atom_site_fract_x
_atom_site_fract_y
_atom_site_fract_z
Si Si1 0.780343 0.849884 0.119445
Si Si2 0.070598 0.769908 0.815000
Si Si3 0.460783 0.707848 0.032855
Si Si4 0.876517 0.953332 0.886239
Si Si5 0.406109 0.477205 0.682578
Si Si6 0.906858 0.148032 0.917233
Si Si7 0.664088 0.805230 0.810588
O O1 0.600945 0.784772 0.077547
O O2 0.904675 0.788214 0.176027
O O3 0.912316 0.859337 0.092061
O O4 0.751128 0.946862 0.141146
O O5 0.158238 0.872075 0.823173
O O6 0.229791 0.707593 0.867023
O O7 0.000000 0.738151 0.750000
O O8 0.869868 0.782585 0.815312
O O9 0.466516 0.613906 0.064544
O O10 0.250000 0.750000 0.000000
O O11 0.494637 0.684778 0.981260
O O12 0.697204 0.884011 0.855188
O O13 0.939167 0.977233 0.839607
O O14 0.836643 0.043683 0.910287
O O15 0.500000 0.500293 0.750000
O O16 0.500000 0.840125 0.750000
#
# Coordination Sequence:
#
# PCOD9265000 Si02
#       7
#     8   8   8   8   8   8   8
#     4  10  21  36  58  86 111 148 193 238 290 343
#     4  10  21  37  58  86 118 154 193 239 290 344
#     4  11  22  41  61  82 116 153 193 240 289 346
#     4   9  21  37  57  85 114 150 193 235 287 344
#     4   9  18  36  58  83 117 148 186 238 289 344
#     4  11  21  39  60  84 115 151 194 241 287 342
#     4  10  19  36  56  82 117 152 187 235 291 349
#
# _framework density 20.414942
#
# number of rings (size 3 to 8) (size 9 to 14) (size 15 to 20)
#    0.000    2.000    0.000    4.714    0.000    1.714 
#    0.000   22.143    0.000    0.000    0.000    0.000 
#    0.000    0.000    0.000    0.000    0.000    0.000 
#
# Total GULP energy -155980.906175 kJ/mol
# GULP energy per Si atom -5570.746649 kJ/mol
# Density = 2.036848 g / cm^3
# Si number density = 20.414942 Si / 1000 Ang^3
#
#
#
# Elastic Constant Matrix: (Units=GPa)
#
#
# Indices 1 2 3 4 5 6 
#
# 1 33.4490 10.3243 21.7051 0.0000 -8.7851 0.0000
# 2 10.3243 124.3611 54.7608 0.0000 6.0350 0.0000
# 3 21.7051 54.7608 117.9000 0.0000 -10.3531 0.0000
# 4 0.0000 0.0000 0.0000 30.2545 0.0000 -3.0262
# 5 -8.7851 6.0350 -10.3531 0.0000 31.6075 0.0000
# 6 0.0000 0.0000 0.0000 -3.0262 0.0000 14.2767
#
#
#
# Elastic Compliance Matrix: (Units=1/GPa)
#
#
# Indices 1 2 3 4 5 6 
#
# 1 0.035924 -0.001010 -0.005406 0.000000 0.008407 0.000000
# 2 -0.001010 0.010544 -0.005058 0.000000 -0.003951 0.000000
# 3 -0.005406 -0.005058 0.012128 0.000000 0.003436 0.000000
# 4 0.000000 0.000000 0.000000 0.033769 0.000000 0.007158
# 5 0.008407 -0.003951 0.003436 0.000000 0.035854 0.000000
# 6 0.000000 0.000000 0.000000 0.007158 0.000000 0.071561
#
#
# Mechanical properties :
#
#
# Convention : Reuss Voigt Hill
#
# Bulk Modulus (GPa) = 28.05251 49.92117 38.98684
# Shear Modulus (GPa) = 21.31175 27.82240 24.56708
#
# Velocity S-wave (km/s) = 3.23449 3.69568 3.47275
# Velocity P-wave (km/s) = 5.26500 6.53583 5.93453
#
# Compressibility (1/GPa) = 0.03564743
#
# Stress axis : x y z
#
# Youngs Moduli (GPa) = 27.83649 94.84018 82.45225
#
# Poissons Ratio (x) = 0.09576 0.44576
# Poissons Ratio (y) = 0.02811 0.41708
# Poissons Ratio (z) = 0.15049 0.47974
#
# Static dielectric constant tensor:
#      x y z
#    x 1.844490 0.000000 -0.199180 
#    y 0.000000 1.784570 0.000000 
#    z -0.199180 0.000000 2.133220 
# 
# From -- ./inp_files/264225.got.cif
#   From: 2010.05.17/outbox.cif.g08.bks.cpg/sg15_133_cif.got.tgz:264225.got - 2010.06.03 18:47:42.
