data_PCOD9265793
_publ_section_title
;
Structure prediction by ZEFSAII (Michael W. Deem and Ramdas Pophale) SiO2 
 PCOD9265793
Probable space group: C 2/C
;
_chemical_formula_sum "Si O2"
_cell_formula_units_Z 56
_cell_length_a 22.807370
_cell_length_b 8.951791
_cell_length_c 13.049018
_cell_angle_alpha 90.000000
_cell_angle_beta 111.213079
_cell_angle_gamma 90.000000
_cell_volume 2483.655054
_symmetry_space_group_name_H-M "C 2/C"
_symmetry_group_IT_number 15
_symmetry_cell_setting 'monoclinic'
loop_
_space_group_symop_operation_xyz
x,y,z
-x,y,1/2-z
-x,-y,-z
x,-y,1/2+z
1/2+x,1/2+y,z
1/2-x,1/2+y,1/2-z
1/2-x,1/2-y,-z
1/2+x,1/2-y,1/2+z
loop_
_atom_site_type_symbol
_atom_site_label
_atom_site_fract_x
_atom_site_fract_y
_atom_site_fract_z
Si Si1 0.904970 0.616324 0.337836
Si Si2 0.500000 0.956586 0.250000
Si Si3 0.395039 0.723210 0.551241
Si Si4 0.372267 0.563748 0.722337
Si Si5 0.500000 0.429645 0.250000
Si Si6 0.791978 0.571325 0.671782
Si Si7 0.196034 0.843138 0.681541
Si Si8 0.883961 0.421136 0.063048
O O1 0.889242 0.782501 0.290445
O O2 0.851940 0.504094 0.264154
O O3 0.898341 0.618294 0.455610
O O4 0.968029 0.553646 0.322293
O O5 0.443127 0.864803 0.165861
O O6 0.352199 0.621050 0.598325
O O7 0.463358 0.664512 0.636128
O O8 0.367162 0.700973 0.420836
O O9 0.387662 0.897421 0.571667
O O10 0.440623 0.484613 0.757807
O O11 0.323544 0.460183 0.744662
O O12 0.773561 0.705264 0.737369
O O13 0.742176 0.437284 0.637972
O O14 0.819178 0.623549 0.578525
#
# Coordination Sequence:
#
# PCOD9265793 Si02
#       8
#     8   4   8   8   4   8   8   8
#     4  11  20  40  67  95 136 175 220 270 331 390
#     4  10  19  36  67 106 133 174 225 268 321 416
#     4  10  20  41  69  95 130 178 215 270 351 388
#     4  10  21  42  66  97 133 171 224 272 326 413
#     4   8  19  42  67  94 135 170 221 266 333 422
#     4  11  25  43  61 101 128 173 236 278 320 407
#     4  12  26  43  71  92 134 181 228 280 340 385
#     4  11  21  39  67  99 139 173 223 276 336 389
#
# _framework density 22.547412999999999
#
# number of rings (size 3 to 8) (size 9 to 14) (size 15 to 20)
#    0.857    0.571    4.286    3.000    0.000    3.429 
#    0.000    5.000    0.000    0.000    0.000    0.000 
#    0.000    0.000    0.000    0.000    0.000    0.000 
#
# Total GULP energy -155979.892197 kJ/mol
# GULP energy per Si atom -5570.710436 kJ/mol
# Density = 2.249609 g / cm^3
# Si number density = 22.547413 Si / 1000 Ang^3
#
#
#
# Elastic Constant Matrix: (Units=GPa)
#
#
# Indices 1 2 3 4 5 6 
#
# 1 90.3092 23.8193 22.6550 0.0000 -9.0872 0.0000
# 2 23.8193 56.1643 14.4000 0.0000 -3.6041 0.0000
# 3 22.6550 14.4000 93.3561 0.0000 -18.4136 0.0000
# 4 0.0000 0.0000 0.0000 10.2892 0.0000 -0.0941
# 5 -9.0872 -3.6041 -18.4136 0.0000 27.5682 0.0000
# 6 0.0000 0.0000 0.0000 -0.0941 0.0000 34.5082
#
#
#
# Elastic Compliance Matrix: (Units=1/GPa)
#
#
# Indices 1 2 3 4 5 6 
#
# 1 0.013094 -0.004900 -0.001954 0.000000 0.002370 0.000000
# 2 -0.004900 0.020380 -0.002013 0.000000 -0.000295 0.000000
# 3 -0.001954 -0.002013 0.013035 0.000000 0.007799 0.000000
# 4 0.000000 0.000000 0.000000 0.097192 0.000000 0.000265
# 5 0.002370 -0.000295 0.007799 0.000000 0.042226 0.000000
# 6 0.000000 0.000000 0.000000 0.000265 0.000000 0.028979
#
#
# Mechanical properties :
#
#
# Convention : Reuss Voigt Hill
#
# Bulk Modulus (GPa) = 34.75255 40.17535 37.46395
# Shear Modulus (GPa) = 20.64138 26.40345 23.52241
#
# Velocity S-wave (km/s) = 3.02895 3.42573 3.23343
# Velocity P-wave (km/s) = 5.26111 5.78829 5.53099
#
# Compressibility (1/GPa) = 0.02877486
#
# Stress axis : x y z
#
# Youngs Moduli (GPa) = 76.36941 49.06736 76.71868
#
# Poissons Ratio (x) = 0.24044 0.14993
# Poissons Ratio (y) = 0.37422 0.15441
# Poissons Ratio (z) = 0.14925 0.09876
#
# Static dielectric constant tensor:
#      x y z
#    x 1.928560 0.000000 -0.035180 
#    y 0.000000 1.850800 0.000000 
#    z -0.035180 0.000000 1.872300 
# 
# From -- ./inp_files/172007.got.cif
#   From: 2010.05.17/outbox.cif.g08.bks.cpg/sg15_87_cif.got.tgz:172007.got - 2010.06.03 18:47:42.
