data_PCOD9265975
_publ_section_title
;
Structure prediction by ZEFSAII (Michael W. Deem and Ramdas Pophale) SiO2 
 PCOD9265975
Probable space group: C 2/C
;
_chemical_formula_sum "Si O2"
_cell_formula_units_Z 56
_cell_length_a 13.013228
_cell_length_b 14.778274
_cell_length_c 24.917490
_cell_angle_alpha 90.000000
_cell_angle_beta 147.646463
_cell_angle_gamma 90.000000
_cell_volume 2564.377888
_symmetry_space_group_name_H-M "C 2/C"
_symmetry_group_IT_number 15
_symmetry_cell_setting 'monoclinic'
loop_
_space_group_symop_operation_xyz
x,y,z
-x,y,1/2-z
-x,-y,-z
x,-y,1/2+z
1/2+x,1/2+y,z
1/2-x,1/2+y,1/2-z
1/2-x,1/2-y,-z
1/2+x,1/2-y,1/2+z
loop_
_atom_site_type_symbol
_atom_site_label
_atom_site_fract_x
_atom_site_fract_y
_atom_site_fract_z
Si Si1 0.389197 0.335039 0.869966
Si Si2 0.818546 0.672550 0.902787
Si Si3 0.468155 0.209853 0.154059
Si Si4 0.656624 0.530345 0.463387
Si Si5 0.188999 0.530045 0.356639
Si Si6 0.122565 0.020112 0.750900
Si Si7 0.501221 0.084623 0.424257
O O1 0.433970 0.260301 0.934265
O O2 0.574160 0.368373 0.919349
O O3 0.315216 0.429270 0.864183
O O4 0.198679 0.290517 0.760639
O O5 0.646884 0.710847 0.866156
O O6 0.728123 0.611826 0.815850
O O7 0.958506 0.607307 0.996930
O O8 0.397605 0.120575 0.154570
O O9 0.434321 0.176959 0.078461
O O10 0.691898 0.515618 0.543055
O O11 0.508835 0.473050 0.360244
O O12 0.861290 0.497997 0.531615
O O13 0.000000 0.479479 0.250000
O O14 0.000000 0.995365 0.750000
O O15 0.286964 0.944868 0.815324
#
# Coordination Sequence:
#
# PCOD9265975 Si02
#       7
#     8   8   8   8   8   8   8
#     4  10  19  37  58  91 130 163 199 265 325 367
#     4  11  22  38  64  94 131 161 215 266 308 368
#     4   9  18  35  60  92 127 158 204 271 314 359
#     4  11  22  37  63  93 128 168 207 259 325 372
#     4   8  17  34  59  88 123 164 208 258 314 378
#     4  12  24  42  64  93 130 169 216 258 314 385
#     4  11  23  40  64  96 124 167 222 259 309 385
#
# _framework density 21.837655000000002
#
# number of rings (size 3 to 8) (size 9 to 14) (size 15 to 20)
#    0.000    1.714    2.857    3.429    0.000    0.000 
#    0.000    0.714    0.000    0.857    0.000    0.000 
#    0.000    0.000    0.000    0.000    0.000    0.000 
#
# Total GULP energy -155892.403276 kJ/mol
# GULP energy per Si atom -5567.585831 kJ/mol
# Density = 2.178795 g / cm^3
# Si number density = 21.837655 Si / 1000 Ang^3
#
#
#
# Elastic Constant Matrix: (Units=GPa)
#
#
# Indices 1 2 3 4 5 6 
#
# 1 38.7191 24.8027 15.7340 -0.0001 -9.7699 0.0000
# 2 24.8027 61.5127 15.7809 0.0000 1.8891 0.0000
# 3 15.7340 15.7809 132.7204 -0.0004 -15.3128 -0.0001
# 4 -0.0001 0.0000 -0.0004 23.8504 -0.0001 -2.8369
# 5 -9.7699 1.8891 -15.3128 -0.0001 29.8980 0.0000
# 6 0.0000 0.0000 -0.0001 -2.8369 0.0000 35.4626
#
#
#
# Elastic Compliance Matrix: (Units=1/GPa)
#
#
# Indices 1 2 3 4 5 6 
#
# 1 0.040190 -0.016295 -0.001268 0.000000 0.013513 0.000000
# 2 -0.016295 0.023514 -0.001753 0.000000 -0.007709 0.000000
# 3 -0.001268 -0.001753 0.008352 0.000000 0.003974 0.000000
# 4 0.000000 0.000000 0.000000 0.042331 0.000000 0.003386
# 5 0.013513 -0.007709 0.003974 0.000000 0.040385 0.000000
# 6 0.000000 0.000000 0.000000 0.003386 0.000000 0.028470
#
#
# Mechanical properties :
#
#
# Convention : Reuss Voigt Hill
#
# Bulk Modulus (GPa) = 29.91928 38.39859 34.15894
# Shear Modulus (GPa) = 21.45778 29.61784 25.53781
#
# Velocity S-wave (km/s) = 3.13805 3.68676 3.42342
# Velocity P-wave (km/s) = 5.18270 5.97869 5.59487
#
# Compressibility (1/GPa) = 0.03342326
#
# Stress axis : x y z
#
# Youngs Moduli (GPa) = 24.88162 42.52826 119.73234
#
# Poissons Ratio (x) = 0.69300 0.15181
# Poissons Ratio (y) = 0.40545 0.20995
# Poissons Ratio (z) = 0.03155 0.07457
#
# Static dielectric constant tensor:
#      x y z
#    x 1.959020 0.000000 -0.030800 
#    y 0.000000 1.814870 0.000000 
#    z -0.030800 0.000000 1.890180 
# 
# From -- ./inp_files/296559.got.cif
#   From: 2010.05.17/outbox.cif.g08.bks.cpg/sg15_149_cif.got.tgz:296559.got - 2010.06.03 18:47:42.
