data_PCOD9265049
_publ_section_title
;
Structure prediction by ZEFSAII (Michael W. Deem and Ramdas Pophale) SiO2 
 PCOD9265049
Probable space group: C 2/C
;
_chemical_formula_sum "Si O2"
_cell_formula_units_Z 48
_cell_length_a 8.811146
_cell_length_b 17.192538
_cell_length_c 24.791775
_cell_angle_alpha 90.000000
_cell_angle_beta 48.467607
_cell_angle_gamma 90.000000
_cell_volume 2811.375139
_symmetry_space_group_name_H-M "C 2/C"
_symmetry_group_IT_number 15
_symmetry_cell_setting 'monoclinic'
loop_
_space_group_symop_operation_xyz
x,y,z
-x,y,1/2-z
-x,-y,-z
x,-y,1/2+z
1/2+x,1/2+y,z
1/2-x,1/2+y,1/2-z
1/2-x,1/2-y,-z
1/2+x,1/2-y,1/2+z
loop_
_atom_site_type_symbol
_atom_site_label
_atom_site_fract_x
_atom_site_fract_y
_atom_site_fract_z
Si Si1 0.060658 0.567745 0.529689
Si Si2 0.205122 0.837808 0.075271
Si Si3 0.156554 0.656791 0.079810
Si Si4 0.978854 0.945382 0.557845
Si Si5 0.041513 0.981119 0.325033
Si Si6 0.175243 0.470816 0.837111
O O1 0.297366 0.582574 0.477708
O O2 0.000000 0.500000 0.500000
O O3 0.923619 0.642272 0.549631
O O4 0.991265 0.531305 0.602470
O O5 0.138755 0.748770 0.092369
O O6 0.246881 0.858151 0.002504
O O7 0.048409 0.894805 0.142805
O O8 0.320663 0.621488 0.081583
O O9 0.944833 0.610567 0.136271
O O10 0.904656 0.990098 0.628304
O O11 0.000000 0.000000 0.500000
O O12 0.224327 0.996953 0.240985
O O13 0.854287 0.026769 0.339921
#
# Coordination Sequence:
#
# PCOD9265049 Si02
#       6
#     8   8   8   8   8   8
#     4  11  17  36  58  78 109 150 196 221 267 352
#     4  10  20  37  58  84 114 152 185 234 284 332
#     4  11  21  34  58  89 116 142 185 245 290 313
#     4  12  19  33  57  86 112 142 194 236 269 334
#     4  10  20  36  60  79 108 155 197 219 272 350
#     4  10  19  36  57  83 106 156 190 222 275 346
#
# _framework density 17.073495999999999
#
# number of rings (size 3 to 8) (size 9 to 14) (size 15 to 20)
#    0.000    1.333    8.333    0.000    0.000    1.333 
#    0.000    6.667    0.000    8.000    0.000    0.000 
#    0.000    0.000    0.000    0.000    0.000    0.000 
#
# Total GULP energy -133679.658918 kJ/mol
# GULP energy per Si atom -5569.985788 kJ/mol
# Density = 1.703464 g / cm^3
# Si number density = 17.073496 Si / 1000 Ang^3
#
#
#
# Elastic Constant Matrix: (Units=GPa)
#
#
# Indices 1 2 3 4 5 6 
#
# 1 70.8291 52.6042 35.4060 -0.0003 4.2290 -0.0002
# 2 52.6042 101.7130 53.5196 -0.0002 -3.4265 -0.0001
# 3 35.4060 53.5196 128.2961 -0.0005 6.8014 0.0002
# 4 -0.0003 -0.0002 -0.0005 21.5316 0.0003 -2.4378
# 5 4.2290 -3.4265 6.8014 0.0003 28.4959 -0.0001
# 6 -0.0002 -0.0001 0.0002 -2.4378 -0.0001 27.1588
#
#
#
# Elastic Compliance Matrix: (Units=1/GPa)
#
#
# Indices 1 2 3 4 5 6 
#
# 1 0.023812 -0.011711 -0.001442 0.000000 -0.004598 0.000000
# 2 -0.011711 0.018581 -0.004791 0.000000 0.005116 0.000000
# 3 -0.001442 -0.004791 0.010341 0.000000 -0.002830 0.000000
# 4 0.000000 0.000000 0.000000 0.046920 -0.000001 0.004212
# 5 -0.004598 0.005116 -0.002830 -0.000001 0.037066 0.000000
# 6 0.000000 0.000000 0.000000 0.004212 0.000000 0.037199
#
#
# Mechanical properties :
#
#
# Convention : Reuss Voigt Hill
#
# Bulk Modulus (GPa) = 59.36053 64.87754 62.11904
# Shear Modulus (GPa) = 23.21030 26.05783 24.63406
#
# Velocity S-wave (km/s) = 3.69105 3.91092 3.80257
# Velocity P-wave (km/s) = 7.28068 7.64691 7.46604
#
# Compressibility (1/GPa) = 0.01684621
#
# Stress axis : x y z
#
# Youngs Moduli (GPa) = 41.99634 53.81723 96.70242
#
# Poissons Ratio (x) = 0.63025 0.13947
# Poissons Ratio (y) = 0.49182 0.46327
# Poissons Ratio (z) = 0.06057 0.25782
#
# Static dielectric constant tensor:
#      x y z
#    x 1.612860 0.000000 -0.009460 
#    y 0.000000 1.572060 0.000000 
#    z -0.009460 0.000000 1.624680 
# 
# From -- ./inp_files/231865.got.cif
#   From: 2010.05.17/outbox.cif.g08.bks.cpg/sg15_116_cif.got.tgz:231865.got - 2010.06.03 18:47:42.
