data_PCOD9265270
_publ_section_title
;
Structure prediction by ZEFSAII (Michael W. Deem and Ramdas Pophale) SiO2 
 PCOD9265270
Probable space group: C 2/C
;
_chemical_formula_sum "Si O2"
_cell_formula_units_Z 56
_cell_length_a 18.097592
_cell_length_b 18.987890
_cell_length_c 7.302863
_cell_angle_alpha 90.000000
_cell_angle_beta 75.183116
_cell_angle_gamma 90.000000
_cell_volume 2426.073578
_symmetry_space_group_name_H-M "C 2/C"
_symmetry_group_IT_number 15
_symmetry_cell_setting 'monoclinic'
loop_
_space_group_symop_operation_xyz
x,y,z
-x,y,1/2-z
-x,-y,-z
x,-y,1/2+z
1/2+x,1/2+y,z
1/2-x,1/2+y,1/2-z
1/2-x,1/2-y,-z
1/2+x,1/2-y,1/2+z
loop_
_atom_site_type_symbol
_atom_site_label
_atom_site_fract_x
_atom_site_fract_y
_atom_site_fract_z
Si Si1 0.779363 0.315770 0.860932
Si Si2 0.324568 0.931219 0.129233
Si Si3 0.444884 0.190677 0.108769
Si Si4 0.480067 0.342047 0.041365
Si Si5 0.861235 0.101363 0.139585
Si Si6 0.347148 0.441896 0.225193
Si Si7 0.575224 0.944907 0.111590
O O1 0.855794 0.295379 0.708101
O O2 0.711648 0.348464 0.778270
O O3 0.750000 0.250000 0.000000
O O4 0.810214 0.376512 0.977278
O O5 0.241687 0.941378 0.274755
O O6 0.380576 0.906604 0.251956
O O7 0.366110 0.000337 0.018788
O O8 0.500000 0.186951 0.250000
O O9 0.466932 0.262001 0.992407
O O10 0.450609 0.116048 0.007135
O O11 0.500000 0.341825 0.250000
O O12 0.407590 0.395005 0.073513
O O13 0.555748 0.366463 0.890939
O O14 0.864430 0.024404 0.224170
O O15 0.851162 0.087888 0.927769
O O16 0.500000 0.980206 0.250000
#
# Coordination Sequence:
#
# PCOD9265270 Si02
#       7
#     8   8   8   8   8   8   8
#     4  11  22  40  65  90 121 166 208 252 313 379
#     4  11  23  40  61  90 122 157 207 259 311 380
#     4  11  22  41  64  89 121 164 209 257 311 375
#     4   9  19  37  61  87 118 155 198 241 296 367
#     4  10  20  35  59  88 117 152 195 243 298 361
#     4  10  19  36  59  87 117 151 192 245 302 363
#     4  12  25  41  62  91 124 165 211 263 315 369
#
# _framework density 23.082564999999999
#
# number of rings (size 3 to 8) (size 9 to 14) (size 15 to 20)
#    0.000    1.429    0.000    8.571    0.000    1.143 
#    0.000    5.714    0.000    0.000    0.000    0.000 
#    0.000    0.000    0.000    0.000    0.000    0.000 
#
# Total GULP energy -156535.944822 kJ/mol
# GULP energy per Si atom -5590.569458 kJ/mol
# Density = 2.303003 g / cm^3
# Si number density = 23.082565 Si / 1000 Ang^3
#
#
#
# Elastic Constant Matrix: (Units=GPa)
#
#
# Indices 1 2 3 4 5 6 
#
# 1 155.6266 62.3479 39.6562 0.0000 -30.1118 0.0000
# 2 62.3479 123.4961 6.3833 0.0000 -15.8951 0.0000
# 3 39.6562 6.3833 30.6016 0.0000 -14.6714 0.0000
# 4 0.0000 0.0000 0.0000 -17.1600 0.0000 7.1410
# 5 -30.1118 -15.8951 -14.6714 0.0000 28.5074 0.0000
# 6 0.0000 0.0000 0.0000 7.1410 0.0000 27.4652
#
#
#
# Elastic Compliance Matrix: (Units=1/GPa)
#
#
# Indices 1 2 3 4 5 6 
#
# 1 0.012684 -0.005256 -0.013703 0.000000 0.003415 0.000000
# 2 -0.005256 0.010912 0.006359 0.000000 0.003805 0.000000
# 3 -0.013703 0.006359 0.058240 0.000000 0.019045 0.000000
# 4 0.000000 0.000000 0.000000 -0.052585 0.000000 0.013672
# 5 0.003415 0.003805 0.019045 0.000000 0.050609 0.000000
# 6 0.000000 0.000000 0.000000 0.013672 0.000000 0.032855
#
#
# Mechanical properties :
#
#
# Convention : Reuss Voigt Hill
#
# Bulk Modulus (GPa) = 17.65665 58.49988 38.07827
# Shear Modulus (GPa) = 31.88944 21.18498 26.53721
#
# Velocity S-wave (km/s) = 3.72094 3.03279 3.39435
# Velocity P-wave (km/s) = 5.11140 6.13698 5.64752
#
# Compressibility (1/GPa) = 0.05663587
#
# Stress axis : x y z
#
# Youngs Moduli (GPa) = 78.84155 91.64317 17.17036
#
# Poissons Ratio (x) = 0.48164 0.23529
# Poissons Ratio (y) = 0.41436 -0.10919
# Poissons Ratio (z) = 1.08038 -0.58276
#
# Static dielectric constant tensor:
#      x y z
#    x 1.904610 0.000000 0.011600 
#    y 0.000000 1.899700 0.000000 
#    z 0.011600 0.000000 2.018210 
# 
# From -- ./inp_files/49036.got.cif
#   From: 2010.05.17/outbox.cif.g08.bks.cpg/sg15_25_cif.got.tgz:49036.got - 2010.06.03 18:47:42.
