data_PCOD9265968
_publ_section_title
;
Structure prediction by ZEFSAII (Michael W. Deem and Ramdas Pophale) SiO2 
 PCOD9265968
Probable space group: C 2/C
;
_chemical_formula_sum "Si O2"
_cell_formula_units_Z 52
_cell_length_a 19.517341
_cell_length_b 9.657264
_cell_length_c 20.389825
_cell_angle_alpha 90.000000
_cell_angle_beta 148.035000
_cell_angle_gamma 90.000000
_cell_volume 2034.572218
_symmetry_space_group_name_H-M "C 2/C"
_symmetry_group_IT_number 15
_symmetry_cell_setting 'monoclinic'
loop_
_space_group_symop_operation_xyz
x,y,z
-x,y,1/2-z
-x,-y,-z
x,-y,1/2+z
1/2+x,1/2+y,z
1/2-x,1/2+y,1/2-z
1/2-x,1/2-y,-z
1/2+x,1/2-y,1/2+z
loop_
_atom_site_type_symbol
_atom_site_label
_atom_site_fract_x
_atom_site_fract_y
_atom_site_fract_z
Si Si1 0.698434 0.353945 0.711921
Si Si2 0.500000 0.131221 0.250000
Si Si3 0.204895 0.725899 0.842891
Si Si4 0.423604 0.999758 0.819297
Si Si5 0.250000 0.250000 0.000000
Si Si6 0.858269 0.701167 0.956810
Si Si7 0.558466 0.484474 0.941044
Si Si8 0.000000 0.891856 0.750000
O O1 0.762401 0.328618 0.835151
O O2 0.794237 0.450417 0.748865
O O3 0.687724 0.219955 0.655312
O O4 0.561414 0.427171 0.614450
O O5 0.575977 0.044380 0.257377
O O6 0.601475 0.210957 0.375067
O O7 0.087215 0.662792 0.701802
O O8 0.128619 0.799110 0.839768
O O9 0.315178 0.614986 0.949483
O O10 0.539838 0.922279 0.949887
O O11 0.254307 0.312999 0.080772
O O12 0.913660 0.856983 0.016692
O O13 0.523876 0.476183 0.835778
#
# Coordination Sequence:
#
# PCOD9265968 Si02
#       8
#     8   4   8   8   4   8   8   4
#     4  11  23  40  64  97 130 180 228 277 336 412
#     4  10  19  37  58  88 122 169 217 276 338 400
#     4  11  23  43  69  94 136 179 224 278 345 407
#     4  11  23  38  65  95 129 181 222 280 342 405
#     4  10  20  36  60  92 132 170 216 276 346 402
#     4  11  23  41  65  98 139 175 230 285 346 412
#     4  11  23  44  71  97 131 182 224 284 345 407
#     4  10  25  45  70 102 130 169 233 278 342 418
#
# _framework density 25.558198000000001
#
# number of rings (size 3 to 8) (size 9 to 14) (size 15 to 20)
#    0.000    1.231    3.077    2.308    2.154    4.308 
#    0.000    0.000    0.000    0.000    0.000    0.000 
#    0.000    0.000    0.000    0.000    0.000    0.000 
#
# Total GULP energy -144878.501660 kJ/mol
# GULP energy per Si atom -5572.250064 kJ/mol
# Density = 2.550003 g / cm^3
# Si number density = 25.558198 Si / 1000 Ang^3
#
#
#
# Elastic Constant Matrix: (Units=GPa)
#
#
# Indices 1 2 3 4 5 6 
#
# 1 184.6285 14.4076 23.1789 0.0000 -5.4708 0.0000
# 2 14.4076 57.2289 19.7404 0.0000 0.7772 0.0000
# 3 23.1789 19.7404 57.6841 0.0000 -5.4989 0.0000
# 4 0.0000 0.0000 0.0000 35.0436 0.0000 -11.6356
# 5 -5.4708 0.7772 -5.4989 0.0000 36.1300 0.0000
# 6 0.0000 0.0000 0.0000 -11.6356 0.0000 23.2629
#
#
#
# Elastic Compliance Matrix: (Units=1/GPa)
#
#
# Indices 1 2 3 4 5 6 
#
# 1 0.005743 -0.000768 -0.001989 0.000000 0.000583 0.000000
# 2 -0.000768 0.019993 -0.006683 0.000000 -0.001563 0.000000
# 3 -0.001989 -0.006683 0.020708 0.000000 0.002994 0.000000
# 4 0.000000 0.000000 0.000000 0.034219 0.000000 0.017115
# 5 0.000583 -0.001563 0.002994 0.000000 0.028256 0.000000
# 6 0.000000 0.000000 0.000000 0.017115 0.000000 0.051548
#
#
# Mechanical properties :
#
#
# Convention : Reuss Voigt Hill
#
# Bulk Modulus (GPa) = 36.27828 46.02170 41.14999
# Shear Modulus (GPa) = 26.52050 35.03496 30.77773
#
# Velocity S-wave (km/s) = 3.22475 3.70644 3.47395
# Velocity P-wave (km/s) = 5.30005 6.03014 5.67685
#
# Compressibility (1/GPa) = 0.02756470
#
# Stress axis : x y z
#
# Youngs Moduli (GPa) = 174.11803 50.01688 48.29160
#
# Poissons Ratio (x) = 0.03839 0.09608
# Poissons Ratio (y) = 0.13364 0.32271
# Poissons Ratio (z) = 0.34641 0.33424
#
# Static dielectric constant tensor:
#      x y z
#    x 2.102810 0.000000 -0.096480 
#    y 0.000000 2.175800 0.000000 
#    z -0.096480 0.000000 2.019130 
# 
# From -- ./inp_files/126428.got.cif
#   From: 2010.05.17/outbox.cif.g08.bks.cpg/sg15_64_cif.got.tgz:126428.got - 2010.06.03 18:47:42.
