data_PCOD9265935
_publ_section_title
;
Structure prediction by ZEFSAII (Michael W. Deem and Ramdas Pophale) SiO2 
 PCOD9265935
Probable space group: C 2/C
;
_chemical_formula_sum "Si O2"
_cell_formula_units_Z 56
_cell_length_a 17.249587
_cell_length_b 15.503404
_cell_length_c 13.455782
_cell_angle_alpha 90.000000
_cell_angle_beta 49.988111
_cell_angle_gamma 90.000000
_cell_volume 2756.087755
_symmetry_space_group_name_H-M "C 2/C"
_symmetry_group_IT_number 15
_symmetry_cell_setting 'monoclinic'
loop_
_space_group_symop_operation_xyz
x,y,z
-x,y,1/2-z
-x,-y,-z
x,-y,1/2+z
1/2+x,1/2+y,z
1/2-x,1/2+y,1/2-z
1/2-x,1/2-y,-z
1/2+x,1/2-y,1/2+z
loop_
_atom_site_type_symbol
_atom_site_label
_atom_site_fract_x
_atom_site_fract_y
_atom_site_fract_z
Si Si1 0.599338 0.058002 0.393027
Si Si2 0.502026 0.798239 0.862592
Si Si3 0.193770 0.970289 0.223137
Si Si4 0.093019 0.863090 0.746481
Si Si5 0.228390 0.291937 0.410039
Si Si6 0.562450 0.356316 0.455855
Si Si7 0.287356 0.223238 0.143954
O O1 0.566177 0.114103 0.324633
O O2 0.636946 0.140634 0.429388
O O3 0.500000 0.000000 0.500000
O O4 0.701649 0.001256 0.310420
O O5 0.500000 0.776051 0.750000
O O6 0.540936 0.714851 0.889056
O O7 0.390160 0.812953 0.995956
O O8 0.215866 0.883253 0.145062
O O9 0.109449 0.942429 0.372577
O O10 0.149269 0.045242 0.190989
O O11 0.182453 0.793736 0.675082
O O12 0.000000 0.849667 0.750000
O O13 0.037976 0.865466 0.898630
O O14 0.250000 0.250000 0.500000
O O15 0.257034 0.236982 0.286983
O O16 0.653590 0.308195 0.439225
#
# Coordination Sequence:
#
# PCOD9265935 Si02
#       7
#     8   8   8   8   8   8   8
#     4  10  19  37  58  82 126 166 191 252 311 368
#     4  11  21  37  62  94 121 160 206 253 314 364
#     4  10  22  39  59  89 123 163 204 253 317 370
#     4  11  23  41  59  87 126 168 206 258 308 371
#     4  11  20  37  63  93 124 158 202 257 307 370
#     4  10  21  40  64  86 121 160 205 263 309 361
#     4   9  21  38  61  91 117 160 211 252 305 370
#
# _framework density 20.318655
#
# number of rings (size 3 to 8) (size 9 to 14) (size 15 to 20)
#    0.000    1.714    2.857    3.000    0.000    2.286 
#    7.714    0.000    0.000    8.571    0.000    0.000 
#    0.000    0.000    0.000    0.000    0.000    0.000 
#
# Total GULP energy -155941.903456 kJ/mol
# GULP energy per Si atom -5569.353695 kJ/mol
# Density = 2.027241 g / cm^3
# Si number density = 20.318655 Si / 1000 Ang^3
#
#
#
# Elastic Constant Matrix: (Units=GPa)
#
#
# Indices 1 2 3 4 5 6 
#
# 1 98.3012 25.1332 4.6856 0.0000 -4.1581 0.0000
# 2 25.1332 76.5110 4.2029 0.0000 5.9632 0.0000
# 3 4.6856 4.2029 43.5699 0.0000 -7.9945 0.0000
# 4 0.0000 0.0000 0.0000 31.8705 0.0000 -11.3241
# 5 -4.1581 5.9632 -7.9945 0.0000 28.1394 0.0000
# 6 0.0000 0.0000 0.0000 -11.3241 0.0000 23.8528
#
#
#
# Elastic Compliance Matrix: (Units=1/GPa)
#
#
# Indices 1 2 3 4 5 6 
#
# 1 0.011282 -0.003869 -0.000405 0.000000 0.002372 0.000000
# 2 -0.003869 0.014766 -0.001780 0.000000 -0.004207 0.000000
# 3 -0.000405 -0.001780 0.024502 0.000000 0.007279 0.000000
# 4 0.000000 0.000000 0.000000 0.037744 0.000000 0.017919
# 5 0.002372 -0.004207 0.007279 0.000000 0.038847 0.000000
# 6 0.000000 0.000000 0.000000 0.017919 0.000000 0.050431
#
#
# Mechanical properties :
#
#
# Convention : Reuss Voigt Hill
#
# Bulk Modulus (GPa) = 26.01243 31.82504 28.91874
# Shear Modulus (GPa) = 24.69209 29.06323 26.87766
#
# Velocity S-wave (km/s) = 3.48981 3.78613 3.64099
# Velocity P-wave (km/s) = 5.39152 5.90000 5.65148
#
# Compressibility (1/GPa) = 0.03844315
#
# Stress axis : x y z
#
# Youngs Moduli (GPa) = 88.64048 67.72108 40.81225
#
# Poissons Ratio (x) = 0.26198 0.01652
# Poissons Ratio (y) = 0.34291 0.07266
# Poissons Ratio (z) = 0.03589 0.12056
#
# Static dielectric constant tensor:
#      x y z
#    x 1.796500 0.000000 -0.022730 
#    y 0.000000 1.720980 0.000000 
#    z -0.022730 0.000000 1.745430 
# 
# From -- ./inp_files/162200.got.cif
#   From: 2010.05.17/outbox.cif.g08.bks.cpg/sg15_82_cif.got.tgz:162200.got - 2010.06.03 18:47:42.
