data_PCOD9265318
_publ_section_title
;
Structure prediction by ZEFSAII (Michael W. Deem and Ramdas Pophale) SiO2 
 PCOD9265318
Probable space group: C 2/C
;
_chemical_formula_sum "Si O2"
_cell_formula_units_Z 56
_cell_length_a 9.520256
_cell_length_b 11.786723
_cell_length_c 20.859584
_cell_angle_alpha 90.000000
_cell_angle_beta 116.850687
_cell_angle_gamma 90.000000
_cell_volume 2088.348825
_symmetry_space_group_name_H-M "C 2/C"
_symmetry_group_IT_number 15
_symmetry_cell_setting 'monoclinic'
loop_
_space_group_symop_operation_xyz
x,y,z
-x,y,1/2-z
-x,-y,-z
x,-y,1/2+z
1/2+x,1/2+y,z
1/2-x,1/2+y,1/2-z
1/2-x,1/2-y,-z
1/2+x,1/2-y,1/2+z
loop_
_atom_site_type_symbol
_atom_site_label
_atom_site_fract_x
_atom_site_fract_y
_atom_site_fract_z
Si Si1 0.969123 0.385530 0.330812
Si Si2 0.740011 0.914545 0.726597
Si Si3 0.178170 0.463192 0.958778
Si Si4 0.559280 0.363543 0.852415
Si Si5 0.462874 0.745497 0.877248
Si Si6 0.992698 0.852640 0.983962
Si Si7 0.229791 0.360580 0.095439
O O1 0.890424 0.493250 0.278722
O O2 0.041201 0.266961 0.323781
O O3 0.816527 0.357987 0.341359
O O4 0.094816 0.433355 0.407612
O O5 0.886125 0.915431 0.804404
O O6 0.658366 0.791994 0.699710
O O7 0.817833 0.924032 0.670402
O O8 0.359337 0.448378 0.972761
O O9 0.068160 0.357389 0.914440
O O10 0.177919 0.458521 0.035551
O O11 0.580330 0.361999 0.933658
O O12 0.586082 0.656300 0.875341
O O13 0.409304 0.689840 0.933583
O O14 0.869555 0.747390 0.950370
#
# Coordination Sequence:
#
# PCOD9265318 Si02
#       7
#     8   8   8   8   8   8   8
#     4  10  19  36  60  82 107 160 192 224 306 348
#     4  10  22  41  56  82 118 151 195 246 290 347
#     4   8  14  28  54  87 116 144 188 237 283 349
#     4  10  22  41  56  82 118 151 195 246 290 347
#     4   8  15  31  55  83 117 150 186 240 290 339
#     4   8  15  31  55  83 117 150 186 240 290 339
#     4   8  14  28  54  87 116 144 188 237 283 349
#
# _framework density 26.815442999999998
#
# number of rings (size 3 to 8) (size 9 to 14) (size 15 to 20)
#    0.000    3.143    0.000    2.143    0.000    1.714 
#   10.286   10.000    0.000    3.429    0.000    0.000 
#    0.000    0.000    0.000    0.000    0.000    0.000 
#
# Total GULP energy -156347.878981 kJ/mol
# GULP energy per Si atom -5583.852821 kJ/mol
# Density = 2.675441 g / cm^3
# Si number density = 26.815443 Si / 1000 Ang^3
#
#
#
# Elastic Constant Matrix: (Units=GPa)
#
#
# Indices 1 2 3 4 5 6 
#
# 1 107.8857 15.3012 30.5819 0.0000 -3.4129 0.0000
# 2 15.3012 70.3137 29.1361 0.0000 0.1831 0.0000
# 3 30.5819 29.1361 53.4185 0.0000 4.3901 0.0000
# 4 0.0000 0.0000 0.0000 11.9291 0.0000 11.3435
# 5 -3.4129 0.1831 4.3901 0.0000 33.1682 0.0000
# 6 0.0000 0.0000 0.0000 11.3435 0.0000 23.6879
#
#
#
# Elastic Compliance Matrix: (Units=1/GPa)
#
#
# Indices 1 2 3 4 5 6 
#
# 1 0.011205 0.000367 -0.006783 0.000000 0.002049 0.000000
# 2 0.000367 0.018437 -0.010374 0.000000 0.001309 0.000000
# 3 -0.006783 -0.010374 0.028626 0.000000 -0.004430 0.000000
# 4 0.000000 0.000000 0.000000 0.153917 0.000000 -0.073706
# 5 0.002049 0.001309 -0.004430 0.000000 0.030939 0.000000
# 6 0.000000 0.000000 0.000000 -0.073706 0.000000 0.077512
#
#
# Mechanical properties :
#
#
# Convention : Reuss Voigt Hill
#
# Bulk Modulus (GPa) = 40.50627 42.40627 41.45627
# Shear Modulus (GPa) = 13.79520 24.19696 18.99608
#
# Velocity S-wave (km/s) = 2.27061 3.00718 2.66447
# Velocity P-wave (km/s) = 4.69176 5.28261 4.99592
#
# Compressibility (1/GPa) = 0.02468754
#
# Stress axis : x y z
#
# Youngs Moduli (GPa) = 89.24896 54.23747 34.93345
#
# Poissons Ratio (x) = -0.01991 0.23696
# Poissons Ratio (y) = -0.03277 0.36240
# Poissons Ratio (z) = 0.60540 0.56267
#
# Static dielectric constant tensor:
#      x y z
#    x 2.063000 0.000000 0.001890 
#    y 0.000000 2.251460 0.000000 
#    z 0.001890 0.000000 2.086460 
# 
# From -- ./inp_files/288876.got.cif
#   From: 2010.05.17/outbox.cif.g08.bks.cpg/sg15_145_cif.got.tgz:288876.got - 2010.06.03 18:47:42.
