data_PCOD9265775
_publ_section_title
;
Structure prediction by ZEFSAII (Michael W. Deem and Ramdas Pophale) SiO2 
 PCOD9265775
Probable space group: C 2/C
;
_chemical_formula_sum "Si O2"
_cell_formula_units_Z 56
_cell_length_a 17.253578
_cell_length_b 7.914950
_cell_length_c 18.184226
_cell_angle_alpha 90.000000
_cell_angle_beta 117.363982
_cell_angle_gamma 90.000000
_cell_volume 2205.394267
_symmetry_space_group_name_H-M "C 2/C"
_symmetry_group_IT_number 15
_symmetry_cell_setting 'monoclinic'
loop_
_space_group_symop_operation_xyz
x,y,z
-x,y,1/2-z
-x,-y,-z
x,-y,1/2+z
1/2+x,1/2+y,z
1/2-x,1/2+y,1/2-z
1/2-x,1/2-y,-z
1/2+x,1/2-y,1/2+z
loop_
_atom_site_type_symbol
_atom_site_label
_atom_site_fract_x
_atom_site_fract_y
_atom_site_fract_z
Si Si1 0.076323 0.849239 0.240239
Si Si2 0.657441 0.722990 0.050959
Si Si3 0.160419 0.598925 0.396943
Si Si4 0.239889 0.995248 0.813759
Si Si5 0.578956 0.906374 0.627388
Si Si6 0.986059 0.251307 0.049830
Si Si7 0.836284 0.777971 0.586447
O O1 0.123281 0.731138 0.321850
O O2 0.035372 0.723090 0.163855
O O3 0.000000 0.946289 0.250000
O O4 0.152363 0.954000 0.233483
O O5 0.733707 0.595459 0.063203
O O6 0.567694 0.657961 0.046845
O O7 0.704963 0.849541 0.128635
O O8 0.640758 0.835198 0.970688
O O9 0.133029 0.406758 0.372412
O O10 0.318243 0.903906 0.806536
O O11 0.196954 0.893539 0.862281
O O12 0.569402 0.836408 0.540556
O O13 0.533451 0.088570 0.609997
O O14 0.918449 0.158426 0.073721
O O15 0.750000 0.750000 0.500000
#
# Coordination Sequence:
#
# PCOD9265775 Si02
#       7
#     8   8   8   8   8   8   8
#     4  11  23  40  60  87 122 164 200 244 305 370
#     4   9  18  37  61  88 118 155 204 255 293 356
#     4  10  20  35  62  87 120 162 204 241 305 369
#     4  10  22  39  59  85 123 155 199 255 305 354
#     4  10  20  39  61  90 119 160 203 248 303 367
#     4  10  19  36  66  93 117 151 211 258 293 357
#     4  12  20  37  60  90 120 155 196 254 304 350
#
# _framework density 25.392287
#
# number of rings (size 3 to 8) (size 9 to 14) (size 15 to 20)
#    0.000    1.714    2.857    3.429    0.000    1.143 
#    0.000    8.571    0.000    0.000    0.000    0.000 
#    0.000    0.000    0.000    0.000    0.000    0.000 
#
# Total GULP energy -156559.489527 kJ/mol
# GULP energy per Si atom -5591.410340 kJ/mol
# Density = 2.533449 g / cm^3
# Si number density = 25.392287 Si / 1000 Ang^3
#
#
#
# Elastic Constant Matrix: (Units=GPa)
#
#
# Indices 1 2 3 4 5 6 
#
# 1 211.9124 11.2916 10.7227 0.0000 30.2255 0.0000
# 2 11.2916 24.5692 2.1649 0.0000 6.6622 0.0000
# 3 10.7227 2.1649 37.1814 0.0000 13.8471 0.0000
# 4 0.0000 0.0000 0.0000 30.6247 0.0000 -7.0191
# 5 30.2255 6.6622 13.8471 0.0000 25.7331 0.0000
# 6 0.0000 0.0000 0.0000 -7.0191 0.0000 32.0862
#
#
#
# Elastic Compliance Matrix: (Units=1/GPa)
#
#
# Indices 1 2 3 4 5 6 
#
# 1 0.005717 -0.000804 0.001027 0.000000 -0.007059 0.000000
# 2 -0.000804 0.044018 0.001953 0.000000 -0.011503 0.000000
# 3 0.001027 0.001953 0.033921 0.000000 -0.019965 0.000000
# 4 0.000000 0.000000 0.000000 0.034377 0.000000 0.007520
# 5 -0.007059 -0.011503 -0.019965 0.000000 0.060873 0.000000
# 6 0.000000 0.000000 0.000000 0.007520 0.000000 0.032811
#
#
# Mechanical properties :
#
#
# Convention : Reuss Voigt Hill
#
# Bulk Modulus (GPa) = 11.36265 35.78016 23.57140
# Shear Modulus (GPa) = 21.12381 34.32106 27.72243
#
# Velocity S-wave (km/s) = 2.88739 3.68045 3.30777
# Velocity P-wave (km/s) = 3.94976 5.67296 4.88790
#
# Compressibility (1/GPa) = 0.08800767
#
# Stress axis : x y z
#
# Youngs Moduli (GPa) = 174.92730 22.71811 29.48063
#
# Poissons Ratio (x) = 0.01826 -0.03028
# Poissons Ratio (y) = 0.14057 -0.05757
# Poissons Ratio (z) = -0.17969 -0.04436
#
# Static dielectric constant tensor:
#      x y z
#    x 2.070450 0.000000 0.048050 
#    y 0.000000 2.065120 0.000000 
#    z 0.048050 0.000000 1.959430 
# 
# From -- ./inp_files/247564.got.cif
#   From: 2010.05.17/outbox.cif.g08.bks.cpg/sg15_124_cif.got.tgz:247564.got - 2010.06.03 18:47:42.
