data_PCOD9265360
_publ_section_title
;
Structure prediction by ZEFSAII (Michael W. Deem and Ramdas Pophale) SiO2 
 PCOD9265360
Probable space group: C 2/C
;
_chemical_formula_sum "Si O2"
_cell_formula_units_Z 56
_cell_length_a 11.664065
_cell_length_b 20.005898
_cell_length_c 12.889690
_cell_angle_alpha 90.000000
_cell_angle_beta 87.549612
_cell_angle_gamma 90.000000
_cell_volume 3005.060090
_symmetry_space_group_name_H-M "C 2/C"
_symmetry_group_IT_number 15
_symmetry_cell_setting 'monoclinic'
loop_
_space_group_symop_operation_xyz
x,y,z
-x,y,1/2-z
-x,-y,-z
x,-y,1/2+z
1/2+x,1/2+y,z
1/2-x,1/2+y,1/2-z
1/2-x,1/2-y,-z
1/2+x,1/2-y,1/2+z
loop_
_atom_site_type_symbol
_atom_site_label
_atom_site_fract_x
_atom_site_fract_y
_atom_site_fract_z
Si Si1 0.494912 0.872853 0.032207
Si Si2 0.388014 0.030375 0.681640
Si Si3 0.229275 0.273048 0.677497
Si Si4 0.304150 0.848119 0.310902
Si Si5 0.322143 0.882975 0.657580
Si Si6 0.092495 0.231622 0.497848
Si Si7 0.332716 0.315708 0.997110
O O1 0.433195 0.940871 0.069694
O O2 0.582390 0.853612 0.121882
O O3 0.409469 0.811086 0.026061
O O4 0.569466 0.875506 0.924723
O O5 0.500000 0.020549 0.750000
O O6 0.314277 0.090625 0.732305
O O7 0.321790 0.960913 0.683257
O O8 0.292918 0.222282 0.753095
O O9 0.172431 0.332692 0.745413
O O10 0.138996 0.229917 0.613332
O O11 0.321012 0.299229 0.589364
O O12 0.198869 0.852363 0.394688
O O13 0.211156 0.860067 0.596328
O O14 0.964160 0.205299 0.489976
O O15 0.250000 0.250000 0.000000
#
# Coordination Sequence:
#
# PCOD9265360 Si02
#       7
#     8   8   8   8   8   8   8
#     4  10  19  36  60  86 124 152 195 244 308 366
#     4  10  22  35  59  90 126 159 190 249 313 359
#     4  11  23  36  59  88 124 156 200 253 289 352
#     4  10  19  38  58  87 116 160 194 233 308 362
#     4  11  22  36  57  93 119 155 196 245 308 359
#     4  11  22  37  58  91 119 155 200 250 300 348
#     4  11  20  37  61  87 118 156 201 247 294 359
#
# _framework density 18.635235000000002
#
# number of rings (size 3 to 8) (size 9 to 14) (size 15 to 20)
#    0.000    1.429    5.714    0.429    2.000    3.429 
#    0.000    0.000    0.000    5.143    0.000    0.000 
#    0.000    0.000    0.000    0.000    0.000    0.000 
#
# Total GULP energy -156266.045968 kJ/mol
# GULP energy per Si atom -5580.930213 kJ/mol
# Density = 1.859282 g / cm^3
# Si number density = 18.635235 Si / 1000 Ang^3
#
#
#
# Elastic Constant Matrix: (Units=GPa)
#
#
# Indices 1 2 3 4 5 6 
#
# 1 87.4508 31.9451 35.3220 0.0000 -4.7104 0.0000
# 2 31.9451 111.5013 40.0910 0.0000 -11.1001 0.0000
# 3 35.3220 40.0910 100.6549 0.0000 -21.1326 0.0000
# 4 0.0000 0.0000 0.0000 26.6379 0.0000 -2.5605
# 5 -4.7104 -11.1001 -21.1326 0.0000 12.5129 0.0000
# 6 0.0000 0.0000 0.0000 -2.5605 0.0000 27.6332
#
#
#
# Elastic Compliance Matrix: (Units=1/GPa)
#
#
# Indices 1 2 3 4 5 6 
#
# 1 0.014200 -0.002817 -0.005056 0.000000 -0.005693 0.000000
# 2 -0.002817 0.011125 -0.002469 0.000000 0.004639 0.000000
# 3 -0.005056 -0.002469 0.018334 0.000000 0.026870 0.000000
# 4 0.000000 0.000000 0.000000 0.037878 0.000000 0.003510
# 5 -0.005693 0.004639 0.026870 0.000000 0.127270 0.000000
# 6 0.000000 0.000000 0.000000 0.003510 0.000000 0.036514
#
#
# Mechanical properties :
#
#
# Convention : Reuss Voigt Hill
#
# Bulk Modulus (GPa) = 43.52492 57.14703 50.33597
# Shear Modulus (GPa) = 18.27074 26.17341 22.22207
#
# Velocity S-wave (km/s) = 3.13460 3.75175 3.45697
# Velocity P-wave (km/s) = 6.04217 7.03564 6.55775
#
# Compressibility (1/GPa) = 0.02297534
#
# Stress axis : x y z
#
# Youngs Moduli (GPa) = 70.42461 89.88769 54.54372
#
# Poissons Ratio (x) = 0.25321 0.27578
# Poissons Ratio (y) = 0.19838 0.13464
# Poissons Ratio (z) = 0.35608 0.22189
#
# Static dielectric constant tensor:
#      x y z
#    x 1.646920 0.000000 -0.003310 
#    y 0.000000 1.646110 0.000000 
#    z -0.003310 0.000000 1.725020 
# 
# From -- ./inp_files/88978.got.cif
#   From: 2010.05.17/outbox.cif.g08.bks.cpg/sg15_45_cif.got.tgz:88978.got - 2010.06.03 18:47:42.
