data_PCOD9265442
_publ_section_title
;
Structure prediction by ZEFSAII (Michael W. Deem and Ramdas Pophale) SiO2 
 PCOD9265442
Probable space group: C 2/C
;
_chemical_formula_sum "Si O2"
_cell_formula_units_Z 64
_cell_length_a 13.793665
_cell_length_b 31.050784
_cell_length_c 9.618260
_cell_angle_alpha 90.000000
_cell_angle_beta 51.445931
_cell_angle_gamma 90.000000
_cell_volume 3221.564368
_symmetry_space_group_name_H-M "C 2/C"
_symmetry_group_IT_number 15
_symmetry_cell_setting 'monoclinic'
loop_
_space_group_symop_operation_xyz
x,y,z
-x,y,1/2-z
-x,-y,-z
x,-y,1/2+z
1/2+x,1/2+y,z
1/2-x,1/2+y,1/2-z
1/2-x,1/2-y,-z
1/2+x,1/2-y,1/2+z
loop_
_atom_site_type_symbol
_atom_site_label
_atom_site_fract_x
_atom_site_fract_y
_atom_site_fract_z
Si Si1 0.552239 0.416879 0.561324
Si Si2 0.945510 0.182017 0.448271
Si Si3 0.121362 0.489864 0.477990
Si Si4 0.630781 0.109470 0.052540
Si Si5 0.396445 0.718753 0.957830
Si Si6 0.773628 0.695704 0.644134
Si Si7 0.385577 0.419987 0.448358
Si Si8 0.729265 0.492978 0.403606
O O1 0.500000 0.434693 0.750000
O O2 0.590054 0.367541 0.545733
O O3 0.442731 0.416890 0.548721
O O4 0.664532 0.448151 0.427551
O O5 0.825918 0.199953 0.640984
O O6 0.000000 0.198509 0.250000
O O7 0.052180 0.186752 0.470667
O O8 0.122468 0.437962 0.491831
O O9 0.228235 0.509147 0.284365
O O10 0.151528 0.509134 0.602037
O O11 0.000000 0.500000 0.500000
O O12 0.500000 0.116720 0.250000
O O13 0.659364 0.149334 0.923751
O O14 0.755818 0.103800 0.035046
O O15 0.500000 0.728877 0.750000
O O16 0.289692 0.700290 0.953148
O O17 0.360814 0.762637 0.067848
O O18 0.500000 0.404496 0.250000
O O19 0.357223 0.470696 0.450628
#
# Coordination Sequence:
#
# PCOD9265442 Si02
#       8
#     8   8   8   8   8   8   8   8
#     4  11  21  34  53  81 114 145 188 241 291 343
#     4  10  21  35  54  84 120 153 186 236 299 357
#     4  11  22  38  56  79 116 159 197 237 292 350
#     4  11  23  38  60  88 118 154 200 251 299 351
#     4   9  19  36  60  87 112 144 190 242 295 349
#     4  10  19  36  61  85 111 148 194 242 291 351
#     4  11  21  36  57  84 115 151 197 250 301 346
#     4  11  21  35  56  81 110 150 199 246 290 342
#
# _framework density 19.866126000000001
#
# number of rings (size 3 to 8) (size 9 to 14) (size 15 to 20)
#    0.000    1.500    0.000    7.500    0.000    1.500 
#    0.000    0.000    0.000    3.000    0.000    0.000 
#    0.000    0.000    0.000    0.000    0.000    0.000 
#
# Total GULP energy -178238.463567 kJ/mol
# GULP energy per Si atom -5569.951986 kJ/mol
# Density = 1.982091 g / cm^3
# Si number density = 19.866126 Si / 1000 Ang^3
#
#
#
# Elastic Constant Matrix: (Units=GPa)
#
#
# Indices 1 2 3 4 5 6 
#
# 1 65.3416 18.0062 38.3922 0.0000 3.3335 0.0000
# 2 18.0062 84.3696 8.8324 0.0000 -8.2830 0.0000
# 3 38.3922 8.8324 109.6048 0.0000 7.6313 0.0000
# 4 0.0000 0.0000 0.0000 25.4250 0.0000 2.1421
# 5 3.3335 -8.2830 7.6313 0.0000 26.6412 0.0000
# 6 0.0000 0.0000 0.0000 2.1421 0.0000 19.6331
#
#
#
# Elastic Compliance Matrix: (Units=1/GPa)
#
#
# Indices 1 2 3 4 5 6 
#
# 1 0.020394 -0.003829 -0.006708 0.000000 -0.001821 0.000000
# 2 -0.003829 0.013122 -0.000034 0.000000 0.004569 0.000000
# 3 -0.006708 -0.000034 0.011651 0.000000 -0.002509 0.000000
# 4 0.000000 0.000000 0.000000 0.039696 0.000000 -0.004331
# 5 -0.001821 0.004569 -0.002509 0.000000 0.039903 0.000000
# 6 0.000000 0.000000 0.000000 -0.004331 0.000000 0.051407
#
#
# Mechanical properties :
#
#
# Convention : Reuss Voigt Hill
#
# Bulk Modulus (GPa) = 41.62569 43.30863 42.46716
# Shear Modulus (GPa) = 24.35189 27.27888 25.81538
#
# Velocity S-wave (km/s) = 3.50494 3.70960 3.60872
# Velocity P-wave (km/s) = 6.11376 6.34001 6.22791
#
# Compressibility (1/GPa) = 0.02402362
#
# Stress axis : x y z
#
# Youngs Moduli (GPa) = 49.03492 76.20840 85.83078
#
# Poissons Ratio (x) = 0.29180 0.57576
# Poissons Ratio (y) = 0.18775 0.00295
# Poissons Ratio (z) = 0.32893 0.00262
#
# Static dielectric constant tensor:
#      x y z
#    x 1.712930 0.000000 -0.034180 
#    y 0.000000 1.727640 0.000000 
#    z -0.034180 0.000000 1.766850 
# 
# From -- ./inp_files/44822.got.cif
#   From: 2010.05.17/outbox.cif.g08.bks.cpg/sg15_23_cif.got.tgz:44822.got - 2010.06.03 18:47:42.
