data_PCOD9265380
_publ_section_title
;
Structure prediction by ZEFSAII (Michael W. Deem and Ramdas Pophale) SiO2 
 PCOD9265380
Probable space group: C 2/C
;
_chemical_formula_sum "Si O2"
_cell_formula_units_Z 64
_cell_length_a 7.726268
_cell_length_b 14.859095
_cell_length_c 29.705473
_cell_angle_alpha 90.000000
_cell_angle_beta 128.833756
_cell_angle_gamma 90.000000
_cell_volume 2656.553626
_symmetry_space_group_name_H-M "C 2/C"
_symmetry_group_IT_number 15
_symmetry_cell_setting 'monoclinic'
loop_
_space_group_symop_operation_xyz
x,y,z
-x,y,1/2-z
-x,-y,-z
x,-y,1/2+z
1/2+x,1/2+y,z
1/2-x,1/2+y,1/2-z
1/2-x,1/2-y,-z
1/2+x,1/2-y,1/2+z
loop_
_atom_site_type_symbol
_atom_site_label
_atom_site_fract_x
_atom_site_fract_y
_atom_site_fract_z
Si Si1 0.648260 0.109282 0.845781
Si Si2 0.451989 0.710040 0.134426
Si Si3 0.824567 0.150344 0.023734
Si Si4 0.713694 0.196813 0.448283
Si Si5 0.197838 0.924174 0.229463
Si Si6 0.205129 0.377954 0.747850
Si Si7 0.729615 0.001706 0.448483
Si Si8 0.599205 0.273620 0.340767
O O1 0.702515 0.206484 0.876648
O O2 0.763770 0.074842 0.818775
O O3 0.399699 0.126670 0.786582
O O4 0.676554 0.035923 0.889841
O O5 0.340714 0.643910 0.080102
O O6 0.567782 0.660638 0.194567
O O7 0.667682 0.747664 0.143037
O O8 0.069439 0.157151 0.041959
O O9 0.750000 0.250000 0.000000
O O10 0.670970 0.076526 0.974908
O O11 0.750000 0.250000 0.500000
O O12 0.624416 0.269382 0.398186
O O13 0.608744 0.097081 0.437975
O O14 0.978106 0.865130 0.195301
O O15 0.224447 0.022502 0.254846
O O16 0.000000 0.392741 0.750000
O O17 0.090084 0.302645 0.698448
O O18 0.000000 0.000000 0.500000
#
# Coordination Sequence:
#
# PCOD9265380 Si02
#       8
#     8   8   8   8   8   8   8   8
#     4  11  21  38  62  90 119 151 208 249 298 350
#     4  10  21  37  61  83 122 156 194 248 302 361
#     4  10  20  37  60  87 110 154 202 242 292 356
#     4  10  23  38  59  88 120 155 199 250 299 355
#     4  11  23  35  66  91 119 156 201 254 295 360
#     4  10  19  36  60  88 114 155 198 240 291 364
#     4  10  22  37  63  87 118 160 204 248 295 359
#     4  10  22  38  62  87 124 158 198 241 315 362
#
# _framework density 24.091362
#
# number of rings (size 3 to 8) (size 9 to 14) (size 15 to 20)
#    0.000    1.750    3.750    0.750    8.750    0.000 
#    0.000    0.625   11.000    0.000    0.000    0.000 
#    0.000    0.000    0.000    0.000    0.000    0.000 
#
# Total GULP energy -178433.711849 kJ/mol
# GULP energy per Si atom -5576.053495 kJ/mol
# Density = 2.403653 g / cm^3
# Si number density = 24.091362 Si / 1000 Ang^3
#
#
#
# Elastic Constant Matrix: (Units=GPa)
#
#
# Indices 1 2 3 4 5 6 
#
# 1 49.2365 -0.3440 9.1723 0.0000 -2.5470 0.0000
# 2 -0.3440 61.8557 -1.1367 0.0000 -10.1670 0.0000
# 3 9.1723 -1.1367 114.0815 0.0000 -23.6455 0.0000
# 4 0.0000 0.0000 0.0000 41.9474 0.0000 -0.4609
# 5 -2.5470 -10.1670 -23.6455 0.0000 23.4939 0.0000
# 6 0.0000 0.0000 0.0000 -0.4609 0.0000 13.2054
#
#
#
# Elastic Compliance Matrix: (Units=1/GPa)
#
#
# Indices 1 2 3 4 5 6 
#
# 1 0.020631 0.000226 -0.001482 0.000000 0.000843 0.000000
# 2 0.000226 0.017852 0.002232 0.000000 0.009996 0.000000
# 3 -0.001482 0.002232 0.011466 0.000000 0.012345 0.000000
# 4 0.000000 0.000000 0.000000 0.023848 0.000000 0.000832
# 5 0.000843 0.009996 0.012345 0.000000 0.059406 0.000000
# 6 0.000000 0.000000 0.000000 0.000832 0.000000 0.075755
#
#
# Mechanical properties :
#
#
# Convention : Reuss Voigt Hill
#
# Bulk Modulus (GPa) = 19.26757 26.72855 22.99806
# Shear Modulus (GPa) = 22.29086 30.22816 26.25951
#
# Velocity S-wave (km/s) = 3.04511 3.54606 3.30509
# Velocity P-wave (km/s) = 4.51428 5.28061 4.91241
#
# Compressibility (1/GPa) = 0.05190068
#
# Stress axis : x y z
#
# Youngs Moduli (GPa) = 48.46991 56.01643 87.21656
#
# Poissons Ratio (x) = -0.01267 0.12923
# Poissons Ratio (y) = -0.01096 -0.19463
# Poissons Ratio (z) = 0.07182 -0.12500
#
# Static dielectric constant tensor:
#      x y z
#    x 2.022440 0.000000 0.023670 
#    y 0.000000 2.037150 0.000000 
#    z 0.023670 0.000000 1.968730 
# 
# From -- ./inp_files/308040.got.cif
#   From: 2010.05.17/outbox.cif.g08.bks.cpg/sg15_155_cif.got.tgz:308040.got - 2010.06.03 18:47:42.
