data_PCOD9265860
_publ_section_title
;
Structure prediction by ZEFSAII (Michael W. Deem and Ramdas Pophale) SiO2 
 PCOD9265860
Probable space group: C 2/C
;
_chemical_formula_sum "Si O2"
_cell_formula_units_Z 40
_cell_length_a 9.124032
_cell_length_b 17.623889
_cell_length_c 13.061945
_cell_angle_alpha 90.000000
_cell_angle_beta 68.366896
_cell_angle_gamma 90.000000
_cell_volume 1952.430243
_symmetry_space_group_name_H-M "C 2/C"
_symmetry_group_IT_number 15
_symmetry_cell_setting 'monoclinic'
loop_
_space_group_symop_operation_xyz
x,y,z
-x,y,1/2-z
-x,-y,-z
x,-y,1/2+z
1/2+x,1/2+y,z
1/2-x,1/2+y,1/2-z
1/2-x,1/2-y,-z
1/2+x,1/2-y,1/2+z
loop_
_atom_site_type_symbol
_atom_site_label
_atom_site_fract_x
_atom_site_fract_y
_atom_site_fract_z
Si Si1 0.522448 0.831627 0.869597
Si Si2 0.176834 0.081048 0.243754
Si Si3 0.463306 0.660646 0.640483
Si Si4 0.314293 0.059585 0.810454
Si Si5 0.275740 0.575037 0.038187
O O1 0.500000 0.836949 0.750000
O O2 0.694240 0.867130 0.845803
O O3 0.506063 0.744997 0.908784
O O4 0.382799 0.881784 0.952819
O O5 0.174727 0.107352 0.362853
O O6 0.000000 0.080695 0.250000
O O7 0.249740 0.996365 0.236942
O O8 0.500000 0.665986 0.750000
O O9 0.284627 0.635722 0.667666
O O10 0.577258 0.594761 0.569250
O O11 0.500000 0.067255 0.750000
O O12 0.731742 0.011650 0.575498
#
# Coordination Sequence:
#
# PCOD9265860 Si02
#       5
#     8   8   8   8   8
#     4   9  17  35  56  81 108 148 182 223 273 326
#     4   9  17  33  58  77 101 145 193 210 265 343
#     4  11  22  33  55  85 112 138 188 233 266 315
#     4  10  19  37  56  75 112 143 179 226 282 316
#     4   9  18  37  56  77 110 151 179 219 276 335
#
# _framework density 20.487287999999999
#
# number of rings (size 3 to 8) (size 9 to 14) (size 15 to 20)
#    1.200    1.200    2.000    1.800    0.000    0.800 
#    0.000    4.000    0.000    0.000    0.000    0.000 
#    0.000    0.000    0.000    0.000    0.000    0.000 
#
# Total GULP energy -111453.048361 kJ/mol
# GULP energy per Si atom -5572.652418 kJ/mol
# Density = 2.044066 g / cm^3
# Si number density = 20.487288 Si / 1000 Ang^3
#
#
#
# Elastic Constant Matrix: (Units=GPa)
#
#
# Indices 1 2 3 4 5 6 
#
# 1 141.9334 28.5570 18.9640 0.0000 -42.2734 0.0000
# 2 28.5570 57.1626 -10.6002 0.0000 -1.6593 0.0000
# 3 18.9640 -10.6002 23.4768 0.0000 -14.5735 0.0000
# 4 0.0000 0.0000 0.0000 9.6235 0.0000 3.1334
# 5 -42.2734 -1.6593 -14.5735 0.0000 21.9971 0.0000
# 6 0.0000 0.0000 0.0000 3.1334 0.0000 51.1574
#
#
#
# Elastic Compliance Matrix: (Units=1/GPa)
#
#
# Indices 1 2 3 4 5 6 
#
# 1 0.020781 -0.007810 0.006985 0.000000 0.043976 0.000000
# 2 -0.007810 0.024151 0.015333 0.000000 -0.003029 0.000000
# 3 0.006985 0.015333 0.089900 0.000000 0.074141 0.000000
# 4 0.000000 0.000000 0.000000 0.106026 0.000000 -0.006494
# 5 0.043976 -0.003029 0.074141 0.000000 0.178864 0.000000
# 6 0.000000 0.000000 0.000000 -0.006494 0.000000 0.019945
#
#
# Mechanical properties :
#
#
# Convention : Reuss Voigt Hill
#
# Bulk Modulus (GPa) = 6.10316 32.93495 19.51905
# Shear Modulus (GPa) = 10.74652 28.93240 19.83946
#
# Velocity S-wave (km/s) = 2.29278 3.76202 3.11525
# Velocity P-wave (km/s) = 3.16142 5.91448 4.74213
#
# Compressibility (1/GPa) = 0.16384952
#
# Stress axis : x y z
#
# Youngs Moduli (GPa) = 48.11999 41.40599 11.12353
#
# Poissons Ratio (x) = 0.32338 -0.07770
# Poissons Ratio (y) = 0.37582 -0.17056
# Poissons Ratio (z) = -0.33614 -0.63489
#
# Static dielectric constant tensor:
#      x y z
#    x 1.716990 0.000000 0.029410 
#    y 0.000000 1.719220 0.000000 
#    z 0.029410 0.000000 1.770950 
# 
# From -- ./inp_files/77814.got.cif
#   From: 2010.05.17/outbox.cif.g08.bks.cpg/sg15_39_cif.got.tgz:77814.got - 2010.06.03 18:47:42.
