data_PCOD9265366
_publ_section_title
;
Structure prediction by ZEFSAII (Michael W. Deem and Ramdas Pophale) SiO2 
 PCOD9265366
Probable space group: C 2/C
;
_chemical_formula_sum "Si O2"
_cell_formula_units_Z 64
_cell_length_a 12.567878
_cell_length_b 17.737845
_cell_length_c 26.262593
_cell_angle_alpha 90.000000
_cell_angle_beta 30.852427
_cell_angle_gamma 90.000000
_cell_volume 3002.428464
_symmetry_space_group_name_H-M "C 2/C"
_symmetry_group_IT_number 15
_symmetry_cell_setting 'monoclinic'
loop_
_space_group_symop_operation_xyz
x,y,z
-x,y,1/2-z
-x,-y,-z
x,-y,1/2+z
1/2+x,1/2+y,z
1/2-x,1/2+y,1/2-z
1/2-x,1/2-y,-z
1/2+x,1/2-y,1/2+z
loop_
_atom_site_type_symbol
_atom_site_label
_atom_site_fract_x
_atom_site_fract_y
_atom_site_fract_z
Si Si1 0.979799 0.279181 0.126936
Si Si2 0.405757 0.005303 0.470675
Si Si3 0.816766 0.011112 0.135586
Si Si4 0.710274 0.586214 0.453488
Si Si5 0.857077 0.903789 0.359071
Si Si6 0.882161 0.870612 0.933167
Si Si7 0.280131 0.236487 0.367121
Si Si8 0.730964 0.931469 0.265944
O O1 0.886879 0.256309 0.109118
O O2 0.829444 0.343609 0.209948
O O3 0.002262 0.197248 0.143798
O O4 0.201630 0.322676 0.036160
O O5 0.331230 0.059439 0.454078
O O6 0.358967 0.054826 0.540061
O O7 0.253145 0.933318 0.539458
O O8 0.616950 0.970339 0.360866
O O9 0.711174 0.041871 0.128683
O O10 0.954909 0.081425 0.100572
O O11 0.679628 0.976612 0.236488
O O12 0.975919 0.944537 0.055005
O O13 0.718972 0.672733 0.432563
O O14 0.818674 0.815519 0.379038
O O15 0.000000 0.912651 0.250000
O O16 0.021944 0.935118 0.331601
O O17 0.500000 0.215268 0.250000
#
# Coordination Sequence:
#
# PCOD9265366 Si02
#       8
#     8   8   8   8   8   8   8   8
#     4  10  19  36  60  87 116 162 205 247 302 376
#     4  10  23  39  63  94 118 164 209 258 310 361
#     4  10  20  38  63  91 123 159 201 263 307 366
#     4  10  21  37  60  91 125 157 204 252 310 370
#     4  11  22  42  59  88 125 164 209 254 307 367
#     4   9  18  36  62  85 115 156 210 243 301 362
#     4  11  22  35  59  91 125 169 205 246 317 369
#     4  11  21  40  60  90 123 159 207 250 317 365
#
# _framework density 21.316078000000001
#
# number of rings (size 3 to 8) (size 9 to 14) (size 15 to 20)
#    0.000    1.750    6.250    0.000    1.750    1.000 
#    0.000    0.000    0.000    0.000    0.000    0.000 
#    0.000    0.000    0.000    0.000    0.000    0.000 
#
# Total GULP energy -178194.381225 kJ/mol
# GULP energy per Si atom -5568.574413 kJ/mol
# Density = 2.126756 g / cm^3
# Si number density = 21.316078 Si / 1000 Ang^3
#
#
#
# Elastic Constant Matrix: (Units=GPa)
#
#
# Indices 1 2 3 4 5 6 
#
# 1 50.4429 29.8266 25.3093 0.0018 1.4778 -0.0025
# 2 29.8266 158.7754 74.8924 0.0035 7.1180 0.0070
# 3 25.3093 74.8924 81.6400 -0.0041 4.8133 0.0291
# 4 0.0018 0.0035 -0.0041 35.8438 0.0206 1.8119
# 5 1.4778 7.1180 4.8133 0.0206 39.4874 -0.0040
# 6 -0.0025 0.0070 0.0291 1.8119 -0.0040 13.2584
#
#
#
# Elastic Compliance Matrix: (Units=1/GPa)
#
#
# Indices 1 2 3 4 5 6 
#
# 1 0.023747 -0.001746 -0.005767 -0.000003 0.000129 0.000018
# 2 -0.001746 0.011254 -0.009736 -0.000002 -0.000776 0.000015
# 3 -0.005767 -0.009736 0.023018 0.000007 -0.000835 -0.000048
# 4 -0.000003 -0.000002 0.000007 0.028093 -0.000015 -0.003839
# 5 0.000129 -0.000776 -0.000835 -0.000015 0.025561 0.000012
# 6 0.000018 0.000015 -0.000048 -0.003839 0.000012 0.075949
#
#
# Mechanical properties :
#
#
# Convention : Reuss Voigt Hill
#
# Bulk Modulus (GPa) = 42.52047 61.21275 51.86661
# Shear Modulus (GPa) = 21.74283 28.43992 25.09138
#
# Velocity S-wave (km/s) = 3.19724 3.65663 3.43463
# Velocity P-wave (km/s) = 5.79834 6.82693 6.33355
#
# Compressibility (1/GPa) = 0.02351808
#
# Stress axis : x y z
#
# Youngs Moduli (GPa) = 42.11065 88.86084 43.44481
#
# Poissons Ratio (x) = 0.15518 0.25057
# Poissons Ratio (y) = 0.07354 0.42299
# Poissons Ratio (z) = 0.24287 0.86518
#
# Static dielectric constant tensor:
#      x y z
#    x 1.875170 0.000000 -0.011130 
#    y 0.000000 1.787910 0.000000 
#    z -0.011130 0.000000 1.816810 
# 
# From -- ./inp_files/314275.got.cif
#   From: 2010.05.17/outbox.cif.g08.bks.cpg/sg15_158_cif.got.tgz:314275.got - 2010.06.03 18:47:42.
