data_PCOD9265501
_publ_section_title
;
Structure prediction by ZEFSAII (Michael W. Deem and Ramdas Pophale) SiO2 
 PCOD9265501
Probable space group: C 2/C
;
_chemical_formula_sum "Si O2"
_cell_formula_units_Z 40
_cell_length_a 16.556732
_cell_length_b 8.881990
_cell_length_c 11.428311
_cell_angle_alpha 90.000000
_cell_angle_beta 83.200349
_cell_angle_gamma 90.000000
_cell_volume 1668.788997
_symmetry_space_group_name_H-M "C 2/C"
_symmetry_group_IT_number 15
_symmetry_cell_setting 'monoclinic'
loop_
_space_group_symop_operation_xyz
x,y,z
-x,y,1/2-z
-x,-y,-z
x,-y,1/2+z
1/2+x,1/2+y,z
1/2-x,1/2+y,1/2-z
1/2-x,1/2-y,-z
1/2+x,1/2-y,1/2+z
loop_
_atom_site_type_symbol
_atom_site_label
_atom_site_fract_x
_atom_site_fract_y
_atom_site_fract_z
Si Si1 0.245707 0.911701 0.556440
Si Si2 0.876025 0.655269 0.203680
Si Si3 0.528923 0.883041 0.394005
Si Si4 0.662430 0.816468 0.536395
Si Si5 0.569331 0.623065 0.017035
O O1 0.250000 0.750000 0.500000
O O2 0.285224 0.896065 0.678303
O O3 0.151563 0.954227 0.553541
O O4 0.312895 0.007945 0.475287
O O5 0.928620 0.501457 0.199841
O O6 0.874052 0.721779 0.332789
O O7 0.908715 0.777552 0.103797
O O8 0.601704 0.789012 0.441498
O O9 0.462082 0.753542 0.387269
O O10 0.500000 0.000000 0.500000
O O11 0.750000 0.750000 0.500000
O O12 0.500000 0.500000 0.000000
#
# Coordination Sequence:
#
# PCOD9265501 Si02
#       5
#     8   8   8   8   8
#     4   9  20  38  59  82 115 151 193 237 282 344
#     4   9  21  40  61  82 115 162 193 227 289 348
#     4   9  20  38  59  83 115 153 190 233 288 352
#     4  11  22  39  61  86 116 153 199 238 279 344
#     4  10  19  36  61  91 120 145 191 248 287 334
#
# _framework density 23.969477000000001
#
# number of rings (size 3 to 8) (size 9 to 14) (size 15 to 20)
#    0.000    2.400    0.000    2.400    0.000    9.600 
#    0.000    6.000    0.000   16.800    0.000    0.000 
#    0.000    0.000    0.000    0.000    0.000    0.000 
#
# Total GULP energy -111574.682670 kJ/mol
# GULP energy per Si atom -5578.734133 kJ/mol
# Density = 2.391492 g / cm^3
# Si number density = 23.969477 Si / 1000 Ang^3
#
#
#
# Elastic Constant Matrix: (Units=GPa)
#
#
# Indices 1 2 3 4 5 6 
#
# 1 160.0129 21.5958 10.4816 0.0000 17.6362 0.0000
# 2 21.5958 83.7328 8.6064 0.0000 -5.8733 0.0000
# 3 10.4816 8.6064 71.3880 0.0000 -4.4549 0.0000
# 4 0.0000 0.0000 0.0000 21.9486 0.0000 -10.1029
# 5 17.6362 -5.8733 -4.4549 0.0000 31.2891 0.0000
# 6 0.0000 0.0000 0.0000 -10.1029 0.0000 59.1463
#
#
#
# Elastic Compliance Matrix: (Units=1/GPa)
#
#
# Indices 1 2 3 4 5 6 
#
# 1 0.007095 -0.002037 -0.001079 0.000000 -0.004535 0.000000
# 2 -0.002037 0.012813 -0.001033 0.000000 0.003406 0.000000
# 3 -0.001079 -0.001033 0.014445 0.000000 0.002471 0.000000
# 4 0.000000 0.000000 0.000000 0.049449 0.000000 0.008446
# 5 -0.004535 0.003406 0.002471 0.000000 0.035508 0.000000
# 6 0.000000 0.000000 0.000000 0.008446 0.000000 0.018350
#
#
# Mechanical properties :
#
#
# Convention : Reuss Voigt Hill
#
# Bulk Modulus (GPa) = 38.38069 44.05569 41.21819
# Shear Modulus (GPa) = 32.33248 40.77345 36.55297
#
# Velocity S-wave (km/s) = 3.67672 4.12886 3.90934
# Velocity P-wave (km/s) = 5.83708 6.41481 6.13275
#
# Compressibility (1/GPa) = 0.02605477
#
# Stress axis : x y z
#
# Youngs Moduli (GPa) = 140.94498 78.04413 69.22739
#
# Poissons Ratio (x) = 0.15898 0.07471
# Poissons Ratio (y) = 0.28712 0.07152
# Poissons Ratio (z) = 0.15210 0.08063
#
# Static dielectric constant tensor:
#      x y z
#    x 2.034610 0.000000 0.051560 
#    y 0.000000 2.015870 0.000000 
#    z 0.051560 0.000000 2.061660 
# 
# From -- ./inp_files/102718.got.cif
#   From: 2010.05.17/outbox.cif.g08.bks.cpg/sg15_52_cif.got.tgz:102718.got - 2010.06.03 18:47:42.
