data_PCOD9265256
_publ_section_title
;
Structure prediction by ZEFSAII (Michael W. Deem and Ramdas Pophale) SiO2 
 PCOD9265256
Probable space group: C 2/C
;
_chemical_formula_sum "Si O2"
_cell_formula_units_Z 40
_cell_length_a 7.066731
_cell_length_b 12.238823
_cell_length_c 25.730875
_cell_angle_alpha 90.000000
_cell_angle_beta 46.782177
_cell_angle_gamma 90.000000
_cell_volume 1621.790320
_symmetry_space_group_name_H-M "C 2/C"
_symmetry_group_IT_number 15
_symmetry_cell_setting 'monoclinic'
loop_
_space_group_symop_operation_xyz
x,y,z
-x,y,1/2-z
-x,-y,-z
x,-y,1/2+z
1/2+x,1/2+y,z
1/2-x,1/2+y,1/2-z
1/2-x,1/2-y,-z
1/2+x,1/2-y,1/2+z
loop_
_atom_site_type_symbol
_atom_site_label
_atom_site_fract_x
_atom_site_fract_y
_atom_site_fract_z
Si Si1 0.779347 0.864726 0.964234
Si Si2 0.087467 0.211410 0.314158
Si Si3 0.429427 0.230615 0.156907
Si Si4 0.326263 0.417320 0.326904
Si Si5 0.887226 0.570813 0.454030
O O1 0.004929 0.861897 0.878394
O O2 0.507101 0.876566 0.983589
O O3 0.750000 0.750000 0.000000
O O4 0.807777 0.974455 0.993059
O O5 0.317297 0.177793 0.231541
O O6 0.178196 0.323408 0.323176
O O7 0.823194 0.234689 0.332297
O O8 0.521397 0.350456 0.157426
O O9 0.646215 0.163499 0.083730
O O10 0.500000 0.472802 0.250000
O O11 0.127012 0.501915 0.386268
#
# Coordination Sequence:
#
# PCOD9265256 Si02
#       5
#     8   8   8   8   8
#     4  10  19  36  59  85 121 156 192 241 296 348
#     4   9  18  37  62  79 124 154 182 257 289 327
#     4   9  20  37  60  89 116 151 202 244 286 349
#     4  10  20  36  62  89 115 152 199 244 290 346
#     4  10  21  36  62  84 116 162 192 240 299 346
#
# _framework density 24.664100999999999
#
# number of rings (size 3 to 8) (size 9 to 14) (size 15 to 20)
#    0.000    2.400    2.000    0.000    5.600    0.000 
#    0.000   14.000   13.200    0.000    0.000    0.000 
#    0.000    0.000    0.000    0.000    0.000    0.000 
#
# Total GULP energy -111777.831330 kJ/mol
# GULP energy per Si atom -5588.891567 kJ/mol
# Density = 2.460796 g / cm^3
# Si number density = 24.664101 Si / 1000 Ang^3
#
#
#
# Elastic Constant Matrix: (Units=GPa)
#
#
# Indices 1 2 3 4 5 6 
#
# 1 72.4755 25.2931 15.5949 -0.0005 26.5556 -0.0001
# 2 25.2931 91.8921 26.9385 -0.0002 12.5416 0.0001
# 3 15.5949 26.9385 118.2851 -0.0016 6.5337 -0.0001
# 4 -0.0005 -0.0002 -0.0016 49.2416 0.0009 -4.9887
# 5 26.5556 12.5416 6.5337 0.0009 29.0961 0.0001
# 6 -0.0001 0.0001 -0.0001 -4.9887 0.0001 38.7941
#
#
#
# Elastic Compliance Matrix: (Units=1/GPa)
#
#
# Indices 1 2 3 4 5 6 
#
# 1 0.021873 -0.003182 -0.001146 0.000001 -0.018334 0.000000
# 2 -0.003182 0.012732 -0.002367 0.000000 -0.002052 0.000000
# 3 -0.001146 -0.002367 0.009144 0.000000 0.000013 0.000000
# 4 0.000001 0.000000 0.000000 0.020576 -0.000001 0.002646
# 5 -0.018334 -0.002052 0.000013 -0.000001 0.051983 0.000000
# 6 0.000000 0.000000 0.000000 0.002646 0.000000 0.026117
#
#
# Mechanical properties :
#
#
# Convention : Reuss Voigt Hill
#
# Bulk Modulus (GPa) = 32.94035 46.47843 39.70939
# Shear Modulus (GPa) = 30.13233 37.74811 33.94022
#
# Velocity S-wave (km/s) = 3.49909 3.91639 3.71360
# Velocity P-wave (km/s) = 5.45063 6.27186 5.87561
#
# Compressibility (1/GPa) = 0.03035790
#
# Stress axis : x y z
#
# Youngs Moduli (GPa) = 45.71944 78.54145 109.36658
#
# Poissons Ratio (x) = 0.24993 0.12537
# Poissons Ratio (y) = 0.14548 0.25884
# Poissons Ratio (z) = 0.05241 0.18589
#
# Static dielectric constant tensor:
#      x y z
#    x 1.993560 0.000000 -0.003890 
#    y 0.000000 1.972560 0.000000 
#    z -0.003890 0.000000 2.068260 
# 
# From -- ./inp_files/229921.got.cif
#   From: 2010.05.17/outbox.cif.g08.bks.cpg/sg15_115_cif.got.tgz:229921.got - 2010.06.03 18:47:42.
