data_PCOD9265476
_publ_section_title
;
Structure prediction by ZEFSAII (Michael W. Deem and Ramdas Pophale) SiO2 
 PCOD9265476
Probable space group: C 2/C
;
_chemical_formula_sum "Si O2"
_cell_formula_units_Z 64
_cell_length_a 9.216298
_cell_length_b 14.313104
_cell_length_c 29.414001
_cell_angle_alpha 90.000000
_cell_angle_beta 46.426666
_cell_angle_gamma 90.000000
_cell_volume 2811.114113
_symmetry_space_group_name_H-M "C 2/C"
_symmetry_group_IT_number 15
_symmetry_cell_setting 'monoclinic'
loop_
_space_group_symop_operation_xyz
x,y,z
-x,y,1/2-z
-x,-y,-z
x,-y,1/2+z
1/2+x,1/2+y,z
1/2-x,1/2+y,1/2-z
1/2-x,1/2-y,-z
1/2+x,1/2-y,1/2+z
loop_
_atom_site_type_symbol
_atom_site_label
_atom_site_fract_x
_atom_site_fract_y
_atom_site_fract_z
Si Si1 0.056836 0.866819 0.588482
Si Si2 0.716645 0.770850 0.723767
Si Si3 0.323722 0.265373 0.070870
Si Si4 0.601568 0.238807 0.347519
Si Si5 0.323200 0.643535 0.045737
Si Si6 0.712908 0.455820 0.224771
Si Si7 0.364959 0.459482 0.156541
Si Si8 0.857468 0.536091 0.891063
O O1 0.894887 0.816596 0.656843
O O2 0.969010 0.854179 0.557572
O O3 0.050644 0.974329 0.604585
O O4 0.267296 0.816244 0.548868
O O5 0.500000 0.798663 0.750000
O O6 0.714797 0.793360 0.777788
O O7 0.726406 0.657676 0.718930
O O8 0.285155 0.225150 0.129456
O O9 0.189418 0.356145 0.089280
O O10 0.549722 0.304169 0.019949
O O11 0.383593 0.193237 0.397169
O O12 0.580016 0.351306 0.350365
O O13 0.267921 0.535004 0.050880
O O14 0.500000 0.484071 0.250000
O O15 0.724221 0.484865 0.275141
O O16 0.910272 0.489522 0.156397
O O17 0.216195 0.474011 0.145802
#
# Coordination Sequence:
#
# PCOD9265476 Si02
#       8
#     8   8   8   8   8   8   8   8
#     4  11  22  39  62  90 122 157 204 250 304 364
#     4  10  19  36  61  88 118 157 194 243 309 371
#     4  11  23  41  60  92 123 156 210 257 296 350
#     4  10  22  40  61  86 122 159 202 251 305 354
#     4  11  23  40  65  85 120 170 208 242 298 366
#     4  10  20  35  58  91 123 152 191 248 308 358
#     4   9  22  37  58  86 124 158 198 243 306 370
#     4  10  21  39  62  88 118 161 203 249 297 360
#
# _framework density 22.766774000000002
#
# number of rings (size 3 to 8) (size 9 to 14) (size 15 to 20)
#    0.000    1.750    2.500    1.500    1.750    1.500 
#    0.000    0.625    0.000    0.000    0.000    0.000 
#    0.000    0.000    0.000    0.000    0.000    0.000 
#
# Total GULP energy -178897.320979 kJ/mol
# GULP energy per Si atom -5590.541281 kJ/mol
# Density = 2.271496 g / cm^3
# Si number density = 22.766774 Si / 1000 Ang^3
#
#
#
# Elastic Constant Matrix: (Units=GPa)
#
#
# Indices 1 2 3 4 5 6 
#
# 1 38.2372 24.8621 10.2835 -0.0004 -7.3558 0.0001
# 2 24.8621 30.6588 -7.5044 -0.0002 -2.8810 0.0000
# 3 10.2835 -7.5044 70.8861 -0.0005 -5.0262 0.0001
# 4 -0.0004 -0.0002 -0.0005 28.7404 0.0002 -6.7821
# 5 -7.3558 -2.8810 -5.0262 0.0002 36.1902 -0.0001
# 6 0.0001 0.0000 0.0001 -6.7821 -0.0001 25.5672
#
#
#
# Elastic Compliance Matrix: (Units=1/GPa)
#
#
# Indices 1 2 3 4 5 6 
#
# 1 0.072374 -0.062035 -0.016537 0.000000 0.007475 0.000000
# 2 -0.062035 0.087027 0.017987 0.000000 -0.003183 0.000000
# 3 -0.016537 0.017987 0.018455 0.000000 0.000634 0.000000
# 4 0.000000 0.000000 0.000000 0.037118 0.000000 0.009846
# 5 0.007475 -0.003183 0.000634 0.000000 0.028986 0.000000
# 6 0.000000 0.000000 0.000000 0.009846 0.000000 0.041724
#
#
# Mechanical properties :
#
#
# Convention : Reuss Voigt Hill
#
# Bulk Modulus (GPa) = 17.64105 21.67383 19.65744
# Shear Modulus (GPa) = 11.74402 25.57562 18.65982
#
# Velocity S-wave (km/s) = 2.27368 3.35531 2.86598
# Velocity P-wave (km/s) = 3.82860 4.95494 4.42773
#
# Compressibility (1/GPa) = 0.05668598
#
# Stress axis : x y z
#
# Youngs Moduli (GPa) = 13.81719 11.49071 54.18510
#
# Poissons Ratio (x) = 0.71283 0.89604
# Poissons Ratio (y) = 0.85715 -0.97462
# Poissons Ratio (z) = 0.22849 -0.20668
#
# Static dielectric constant tensor:
#      x y z
#    x 1.821760 0.000000 0.018270 
#    y 0.000000 1.883790 0.000000 
#    z 0.018270 0.000000 1.863620 
# 
# From -- ./inp_files/308220.got.cif
#   From: 2010.05.17/outbox.cif.g08.bks.cpg/sg15_155_cif.got.tgz:308220.got - 2010.06.03 18:47:42.
