data_PCOD9265074
_publ_section_title
;
Structure prediction by ZEFSAII (Michael W. Deem and Ramdas Pophale) SiO2 
 PCOD9265074
Probable space group: C 2/C
;
_chemical_formula_sum "Si O2"
_cell_formula_units_Z 64
_cell_length_a 13.269843
_cell_length_b 19.566496
_cell_length_c 20.507982
_cell_angle_alpha 90.000000
_cell_angle_beta 41.704004
_cell_angle_gamma 90.000000
_cell_volume 3542.483941
_symmetry_space_group_name_H-M "C 2/C"
_symmetry_group_IT_number 15
_symmetry_cell_setting 'monoclinic'
loop_
_space_group_symop_operation_xyz
x,y,z
-x,y,1/2-z
-x,-y,-z
x,-y,1/2+z
1/2+x,1/2+y,z
1/2-x,1/2+y,1/2-z
1/2-x,1/2-y,-z
1/2+x,1/2-y,1/2+z
loop_
_atom_site_type_symbol
_atom_site_label
_atom_site_fract_x
_atom_site_fract_y
_atom_site_fract_z
Si Si1 0.569321 0.938824 0.511238
Si Si2 0.031418 0.685451 0.523981
Si Si3 0.599738 0.494587 0.139692
Si Si4 0.946804 0.477746 0.707595
Si Si5 0.436294 0.332686 0.968285
Si Si6 0.911098 0.975587 0.606591
Si Si7 0.910431 0.629044 0.857424
Si Si8 0.862378 0.156800 0.361681
O O1 0.558761 0.869881 0.474193
O O2 0.500000 0.000000 0.500000
O O3 0.743980 0.955130 0.441061
O O4 0.481373 0.939237 0.623036
O O5 0.993715 0.765081 0.534008
O O6 0.044240 0.661623 0.594136
O O7 0.202382 0.680676 0.414223
O O8 0.500000 0.474543 0.250000
O O9 0.495410 0.490429 0.126928
O O10 0.642931 0.574849 0.126734
O O11 0.767081 0.490277 0.802481
O O12 0.000000 0.443703 0.750000
O O13 0.041649 0.549128 0.658351
O O14 0.554009 0.394563 0.907778
O O15 0.395834 0.310340 0.914606
O O16 0.269276 0.360184 0.070494
O O17 0.000000 0.000000 0.500000
O O18 0.000000 0.654585 0.750000
O O19 0.000000 0.173491 0.250000
#
# Coordination Sequence:
#
# PCOD9265074 Si02
#       8
#     8   8   8   8   8   8   8   8
#     4  12  20  36  58  86 123 159 203 248 288 357
#     4  11  22  33  55  84 126 162 193 241 302 365
#     4  10  20  34  57  88 119 155 197 245 293 346
#     4  11  22  37  63  91 115 154 203 254 308 347
#     4  10  22  36  51  87 122 156 195 241 305 366
#     4  11  22  39  62  85 115 154 203 254 299 355
#     4  10  19  36  57  86 122 158 196 245 303 360
#     4   9  17  31  55  82 118 155 191 236 298 359
#
# _framework density 18.066419
#
# number of rings (size 3 to 8) (size 9 to 14) (size 15 to 20)
#    0.000    1.500    2.500    6.000    3.500    2.000 
#    0.000    0.000    0.000    3.750    0.000    0.000 
#    0.000    0.000    0.000    0.000    0.000    0.000 
#
# Total GULP energy -178450.883718 kJ/mol
# GULP energy per Si atom -5576.590116 kJ/mol
# Density = 1.802530 g / cm^3
# Si number density = 18.066419 Si / 1000 Ang^3
#
#
#
# Elastic Constant Matrix: (Units=GPa)
#
#
# Indices 1 2 3 4 5 6 
#
# 1 94.6009 27.9880 45.1875 -0.0003 5.7850 0.0000
# 2 27.9880 66.0995 24.1346 -0.0001 -5.9458 0.0001
# 3 45.1875 24.1346 106.6342 -0.0009 11.9822 0.0005
# 4 -0.0003 -0.0001 -0.0009 5.9784 0.0002 -0.4877
# 5 5.7850 -5.9458 11.9822 0.0002 29.8796 -0.0001
# 6 0.0000 0.0001 0.0005 -0.4877 -0.0001 17.9951
#
#
#
# Elastic Compliance Matrix: (Units=1/GPa)
#
#
# Indices 1 2 3 4 5 6 
#
# 1 0.014313 -0.004435 -0.004871 0.000000 -0.001701 0.000000
# 2 -0.004435 0.018613 -0.002980 -0.000001 0.005758 0.000000
# 3 -0.004871 -0.002980 0.012647 0.000002 -0.004722 0.000000
# 4 0.000000 -0.000001 0.000002 0.167641 -0.000002 0.004543
# 5 -0.001701 0.005758 -0.004722 -0.000002 0.036836 0.000000
# 6 0.000000 0.000000 0.000000 0.004543 0.000000 0.055694
#
#
# Mechanical properties :
#
#
# Convention : Reuss Voigt Hill
#
# Bulk Modulus (GPa) = 47.61636 51.32832 49.47234
# Shear Modulus (GPa) = 14.82292 22.10557 18.46424
#
# Velocity S-wave (km/s) = 2.86749 3.50175 3.20037
# Velocity P-wave (km/s) = 6.11366 6.69494 6.41089
#
# Compressibility (1/GPa) = 0.02100118
#
# Stress axis : x y z
#
# Youngs Moduli (GPa) = 69.86468 53.72669 79.07101
#
# Poissons Ratio (x) = 0.23829 0.38512
# Poissons Ratio (y) = 0.30987 0.23564
# Poissons Ratio (z) = 0.34028 0.16011
#
# Static dielectric constant tensor:
#      x y z
#    x 1.638730 0.000000 0.012020 
#    y 0.000000 1.704210 0.000000 
#    z 0.012020 0.000000 1.692950 
# 
# From -- ./inp_files/240408.got.cif
#   From: 2010.05.17/outbox.cif.g08.bks.cpg/sg15_121_cif.got.tgz:240408.got - 2010.06.03 18:47:42.
