data_PCOD9265207
_publ_section_title
;
Structure prediction by ZEFSAII (Michael W. Deem and Ramdas Pophale) SiO2 
 PCOD9265207
Probable space group: C 2/C
;
_chemical_formula_sum "Si O2"
_cell_formula_units_Z 40
_cell_length_a 24.947353
_cell_length_b 8.529404
_cell_length_c 11.086189
_cell_angle_alpha 90.000000
_cell_angle_beta 136.090748
_cell_angle_gamma 90.000000
_cell_volume 1635.999933
_symmetry_space_group_name_H-M "C 2/C"
_symmetry_group_IT_number 15
_symmetry_cell_setting 'monoclinic'
loop_
_space_group_symop_operation_xyz
x,y,z
-x,y,1/2-z
-x,-y,-z
x,-y,1/2+z
1/2+x,1/2+y,z
1/2-x,1/2+y,1/2-z
1/2-x,1/2-y,-z
1/2+x,1/2-y,1/2+z
loop_
_atom_site_type_symbol
_atom_site_label
_atom_site_fract_x
_atom_site_fract_y
_atom_site_fract_z
Si Si1 0.417144 0.932140 0.898213
Si Si2 0.094589 0.887264 0.412892
Si Si3 0.912482 0.060821 0.855916
Si Si4 0.230347 0.424281 0.431313
Si Si5 0.691520 0.930342 0.101931
O O1 0.410854 0.749061 0.859239
O O2 0.361643 0.037830 0.725365
O O3 0.379712 0.956341 0.970783
O O4 0.500000 0.000000 0.000000
O O5 0.117131 0.979890 0.326795
O O6 0.146995 0.732294 0.506746
O O7 0.000000 0.855712 0.250000
O O8 0.113079 0.980944 0.563050
O O9 0.000000 0.000000 0.000000
O O10 0.250000 0.250000 0.500000
O O11 0.243131 0.436254 0.307789
O O12 0.244464 0.532709 0.572146
#
# Coordination Sequence:
#
# PCOD9265207 Si02
#       5
#     8   8   8   8   8
#     4  10  21  40  74 106 145 188 251 315 388 450
#     4  10  19  36  58  98 149 183 232 299 380 448
#     4  10  20  35  56  99 147 181 227 298 379 447
#     4  10  24  46  74 104 143 195 255 315 379 458
#     4  10  22  42  74 101 142 192 251 307 379 456
#
# _framework density 24.449877999999998
#
# number of rings (size 3 to 8) (size 9 to 14) (size 15 to 20)
#    1.200    0.800    2.000    2.400    0.000    1.600 
#    7.200    5.000    0.000    0.000    0.000    0.000 
#    0.000    0.000    0.000    0.000    0.000    0.000 
#
# Total GULP energy -111436.227791 kJ/mol
# GULP energy per Si atom -5571.811390 kJ/mol
# Density = 2.439423 g / cm^3
# Si number density = 24.449878 Si / 1000 Ang^3
#
#
#
# Elastic Constant Matrix: (Units=GPa)
#
#
# Indices 1 2 3 4 5 6 
#
# 1 158.3188 40.4418 66.8259 0.0000 -42.7377 0.0000
# 2 40.4418 122.0137 41.9448 0.0000 -7.7078 0.0000
# 3 66.8259 41.9448 163.3844 0.0000 -47.7465 0.0000
# 4 0.0000 0.0000 0.0000 47.8959 0.0000 -1.9973
# 5 -42.7377 -7.7078 -47.7465 0.0000 48.6066 0.0000
# 6 0.0000 0.0000 0.0000 -1.9973 0.0000 35.7304
#
#
#
# Elastic Compliance Matrix: (Units=1/GPa)
#
#
# Indices 1 2 3 4 5 6 
#
# 1 0.009160 -0.002180 -0.001310 0.000000 0.006421 0.000000
# 2 -0.002180 0.009556 -0.002355 0.000000 -0.002715 0.000000
# 3 -0.001310 -0.002355 0.009559 0.000000 0.007865 0.000000
# 4 0.000000 0.000000 0.000000 0.020927 0.000000 0.001170
# 5 0.006421 -0.002715 0.007865 0.000000 0.033514 0.000000
# 6 0.000000 0.000000 0.000000 0.001170 0.000000 0.028053
#
#
# Mechanical properties :
#
#
# Convention : Reuss Voigt Hill
#
# Bulk Modulus (GPa) = 60.29634 82.46021 71.37828
# Shear Modulus (GPa) = 39.06601 46.08020 42.57310
#
# Velocity S-wave (km/s) = 4.00159 4.34600 4.17734
# Velocity P-wave (km/s) = 6.78712 7.68004 7.24735
#
# Compressibility (1/GPa) = 0.01658475
#
# Stress axis : x y z
#
# Youngs Moduli (GPa) = 109.17524 104.64123 104.60882
#
# Poissons Ratio (x) = 0.22811 0.13707
# Poissons Ratio (y) = 0.23799 0.24636
# Poissons Ratio (z) = 0.14306 0.24644
#
# Static dielectric constant tensor:
#      x y z
#    x 1.915830 0.000000 -0.098440 
#    y 0.000000 1.862370 0.000000 
#    z -0.098440 0.000000 1.957540 
# 
# From -- ./inp_files/125726.got.cif
#   From: 2010.05.17/outbox.cif.g08.bks.cpg/sg15_63_cif.got.tgz:125726.got - 2010.06.03 18:47:42.
