data_PCOD9265651
_publ_section_title
;
Structure prediction by ZEFSAII (Michael W. Deem and Ramdas Pophale) SiO2 
 PCOD9265651
Probable space group: C 2/C
;
_chemical_formula_sum "Si O2"
_cell_formula_units_Z 44
_cell_length_a 10.577704
_cell_length_b 16.000315
_cell_length_c 13.657044
_cell_angle_alpha 90.000000
_cell_angle_beta 60.061477
_cell_angle_gamma 90.000000
_cell_volume 2002.977117
_symmetry_space_group_name_H-M "C 2/C"
_symmetry_group_IT_number 15
_symmetry_cell_setting 'monoclinic'
loop_
_space_group_symop_operation_xyz
x,y,z
-x,y,1/2-z
-x,-y,-z
x,-y,1/2+z
1/2+x,1/2+y,z
1/2-x,1/2+y,1/2-z
1/2-x,1/2-y,-z
1/2+x,1/2-y,1/2+z
loop_
_atom_site_type_symbol
_atom_site_label
_atom_site_fract_x
_atom_site_fract_y
_atom_site_fract_z
Si Si1 0.265607 0.835089 0.291229
Si Si2 0.701378 0.484789 0.429689
Si Si3 0.553321 0.807997 0.079495
Si Si4 0.025938 0.115515 0.386111
Si Si5 0.189415 0.653420 0.324540
Si Si6 0.500000 0.955950 0.750000
O O1 0.176296 0.918007 0.350293
O O2 0.397772 0.849015 0.165167
O O3 0.183605 0.750813 0.293636
O O4 0.345186 0.812097 0.363808
O O5 0.628194 0.572369 0.429685
O O6 0.615031 0.444600 0.553711
O O7 0.876050 0.494189 0.358805
O O8 0.523323 0.709684 0.072054
O O9 0.629173 0.847792 0.957067
O O10 0.141392 0.125460 0.252765
O O11 0.090279 0.598299 0.292409
#
# Coordination Sequence:
#
# PCOD9265651 Si02
#       6
#     8   8   8   8   8   4
#     4  10  20  35  64  85 115 150 204 246 293 339
#     4  10  19  39  58  85 119 159 188 241 308 351
#     4  10  19  36  63  91 110 154 203 249 285 351
#     4   9  20  35  61  83 117 156 193 235 302 350
#     4  10  20  37  59  89 117 153 202 243 290 353
#     4  10  22  38  60  84 124 164 188 242 306 356
#
# _framework density 21.967300999999999
#
# number of rings (size 3 to 8) (size 9 to 14) (size 15 to 20)
#    0.000    2.182    1.818    1.636    0.000    0.000 
#    0.000   16.364    0.000    0.000    0.000    0.000 
#    0.000    0.000    0.000    0.000    0.000    0.000 
#
# Total GULP energy -122789.681545 kJ/mol
# GULP energy per Si atom -5581.349161 kJ/mol
# Density = 2.191730 g / cm^3
# Si number density = 21.967301 Si / 1000 Ang^3
#
#
#
# Elastic Constant Matrix: (Units=GPa)
#
#
# Indices 1 2 3 4 5 6 
#
# 1 54.8034 37.2408 47.6794 0.0000 -21.9171 0.0000
# 2 37.2408 93.7334 40.6487 0.0000 -6.1822 0.0000
# 3 47.6794 40.6487 218.8425 0.0000 -22.9618 0.0000
# 4 0.0000 0.0000 0.0000 39.5273 0.0000 -11.1408
# 5 -21.9171 -6.1822 -22.9618 0.0000 32.2699 0.0000
# 6 0.0000 0.0000 0.0000 -11.1408 0.0000 36.1401
#
#
#
# Elastic Compliance Matrix: (Units=1/GPa)
#
#
# Indices 1 2 3 4 5 6 
#
# 1 0.038204 -0.012119 -0.003884 0.000000 0.020863 0.000000
# 2 -0.012119 0.015464 -0.000848 0.000000 -0.005872 0.000000
# 3 -0.003884 -0.000848 0.005705 0.000000 0.001259 0.000000
# 4 0.000000 0.000000 0.000000 0.027706 0.000000 0.008541
# 5 0.020863 -0.005872 0.001259 0.000000 0.044929 0.000000
# 6 0.000000 0.000000 0.000000 0.008541 0.000000 0.030303
#
#
# Mechanical properties :
#
#
# Convention : Reuss Voigt Hill
#
# Bulk Modulus (GPa) = 38.95183 68.72412 53.83798
# Shear Modulus (GPa) = 24.44147 37.70816 31.07481
#
# Velocity S-wave (km/s) = 3.33923 4.14763 3.76519
# Velocity P-wave (km/s) = 5.71292 7.36816 6.59270
#
# Compressibility (1/GPa) = 0.02567273
#
# Stress axis : x y z
#
# Youngs Moduli (GPa) = 26.17509 64.66687 175.27533
#
# Poissons Ratio (x) = 0.78367 0.68071
# Poissons Ratio (y) = 0.31720 0.14865
# Poissons Ratio (z) = 0.10165 0.05485
#
# Static dielectric constant tensor:
#      x y z
#    x 1.805820 0.000000 -0.042100 
#    y 0.000000 1.842030 0.000000 
#    z -0.042100 0.000000 1.860030 
# 
# From -- ./inp_files/97428.got.cif
#   From: 2010.05.17/outbox.cif.g08.bks.cpg/sg15_49_cif.got.tgz:97428.got - 2010.06.03 18:47:42.
