data_PCOD9265422
_publ_section_title
;
Structure prediction by ZEFSAII (Michael W. Deem and Ramdas Pophale) SiO2 
 PCOD9265422
Probable space group: C 2/C
;
_chemical_formula_sum "Si O2"
_cell_formula_units_Z 56
_cell_length_a 30.167384
_cell_length_b 11.508103
_cell_length_c 28.493028
_cell_angle_alpha 90.000000
_cell_angle_beta 165.445516
_cell_angle_gamma 90.000000
_cell_volume 2485.841279
_symmetry_space_group_name_H-M "C 2/C"
_symmetry_group_IT_number 15
_symmetry_cell_setting 'monoclinic'
loop_
_space_group_symop_operation_xyz
x,y,z
-x,y,1/2-z
-x,-y,-z
x,-y,1/2+z
1/2+x,1/2+y,z
1/2-x,1/2+y,1/2-z
1/2-x,1/2-y,-z
1/2+x,1/2-y,1/2+z
loop_
_atom_site_type_symbol
_atom_site_label
_atom_site_fract_x
_atom_site_fract_y
_atom_site_fract_z
Si Si1 0.005696 0.766446 0.597496
Si Si2 0.813315 0.567006 0.446691
Si Si3 0.248889 0.387770 0.831145
Si Si4 0.307519 0.109255 0.770742
Si Si5 0.165952 0.140488 0.977134
Si Si6 0.845915 0.877185 0.283934
Si Si7 0.250319 0.402500 0.039946
O O1 0.147370 0.848195 0.767029
O O2 0.052144 0.712064 0.593513
O O3 0.969384 0.651648 0.590798
O O4 0.837129 0.846172 0.415244
O O5 0.771573 0.456953 0.370682
O O6 0.824440 0.512739 0.509475
O O7 0.133799 0.482343 0.685734
O O8 0.185459 0.257889 0.757782
O O9 0.251730 0.402443 0.890100
O O10 0.448418 0.400928 0.015782
O O11 0.217404 0.099226 0.728402
O O12 0.264331 0.096493 0.031284
O O13 0.960992 0.104072 0.765952
O O14 0.171834 0.281054 0.978790
#
# Coordination Sequence:
#
# PCOD9265422 Si02
#       7
#     8   8   8   8   8   8   8
#     4  10  24  41  63  81 124 168 212 241 303 355
#     4  11  22  42  60  90 119 166 203 258 297 369
#     4  12  23  39  61  91 126 159 205 252 310 364
#     4  11  24  41  59  87 121 167 208 255 296 365
#     4  10  19  36  60  95 121 161 185 251 315 359
#     4  12  25  37  61  91 125 158 206 255 311 357
#     4  10  20  36  63  90 130 149 197 245 313 366
#
# _framework density 22.527584000000001
#
# number of rings (size 3 to 8) (size 9 to 14) (size 15 to 20)
#    0.000    1.143    4.286    1.286    6.000    1.714 
#    0.000    0.000    0.000   15.429    0.000    0.000 
#    0.000    0.000    0.000    0.000    0.000    0.000 
#
# Total GULP energy -156686.465904 kJ/mol
# GULP energy per Si atom -5595.945211 kJ/mol
# Density = 2.247631 g / cm^3
# Si number density = 22.527584 Si / 1000 Ang^3
#
#
#
# Elastic Constant Matrix: (Units=GPa)
#
#
# Indices 1 2 3 4 5 6 
#
# 1 123.9588 46.1575 9.2190 0.0295 -2.1895 0.0019
# 2 46.1575 133.5530 12.3494 0.0939 0.3946 0.0602
# 3 9.2190 12.3494 30.6461 0.0310 6.4307 0.0237
# 4 0.0295 0.0939 0.0310 30.7495 0.0248 8.5150
# 5 -2.1895 0.3946 6.4307 0.0248 27.3643 0.0045
# 6 0.0019 0.0602 0.0237 8.5150 0.0045 18.9842
#
#
#
# Elastic Compliance Matrix: (Units=1/GPa)
#
#
# Indices 1 2 3 4 5 6 
#
# 1 0.009369 -0.003072 -0.001838 -0.000002 0.001226 0.000012
# 2 -0.003072 0.008796 -0.002674 -0.000017 0.000256 -0.000017
# 3 -0.001838 -0.002674 0.036062 -0.000011 -0.008583 -0.000029
# 4 -0.000002 -0.000017 -0.000011 0.037133 -0.000028 -0.016655
# 5 0.001226 0.000256 -0.008583 -0.000028 0.038655 0.000013
# 6 0.000012 -0.000017 -0.000029 -0.016655 0.000013 0.060146
#
#
# Mechanical properties :
#
#
# Convention : Reuss Voigt Hill
#
# Bulk Modulus (GPa) = 25.60178 47.06776 36.33477
# Shear Modulus (GPa) = 22.89909 30.11505 26.50707
#
# Velocity S-wave (km/s) = 3.19170 3.66020 3.43395
# Velocity P-wave (km/s) = 4.99719 6.22909 5.64684
#
# Compressibility (1/GPa) = 0.03905978
#
# Stress axis : x y z
#
# Youngs Moduli (GPa) = 106.73076 113.68989 27.72997
#
# Poissons Ratio (x) = 0.34924 0.05096
# Poissons Ratio (y) = 0.32786 0.07415
# Poissons Ratio (z) = 0.19616 0.30401
#
# Static dielectric constant tensor:
#      x y z
#    x 1.844560 -0.000040 0.046350 
#    y -0.000040 1.809210 -0.000090 
#    z 0.046350 -0.000090 1.899590 
# 
# From -- ./inp_files/303285.got.cif
#   From: 2010.05.17/outbox.cif.g08.bks.cpg/sg15_152_cif.got.tgz:303285.got - 2010.06.03 18:47:42.
