data_PCOD9265132
_publ_section_title
;
Structure prediction by ZEFSAII (Michael W. Deem and Ramdas Pophale) SiO2 
 PCOD9265132
Probable space group: C 2/C
;
_chemical_formula_sum "Si O2"
_cell_formula_units_Z 48
_cell_length_a 8.738350
_cell_length_b 14.693266
_cell_length_c 24.489746
_cell_angle_alpha 90.000000
_cell_angle_beta 43.275872
_cell_angle_gamma 90.000000
_cell_volume 2155.494919
_symmetry_space_group_name_H-M "C 2/C"
_symmetry_group_IT_number 15
_symmetry_cell_setting 'monoclinic'
loop_
_space_group_symop_operation_xyz
x,y,z
-x,y,1/2-z
-x,-y,-z
x,-y,1/2+z
1/2+x,1/2+y,z
1/2-x,1/2+y,1/2-z
1/2-x,1/2-y,-z
1/2+x,1/2-y,1/2+z
loop_
_atom_site_type_symbol
_atom_site_label
_atom_site_fract_x
_atom_site_fract_y
_atom_site_fract_z
Si Si1 0.165413 0.006235 0.625262
Si Si2 0.348798 0.889541 0.883735
Si Si3 0.899949 0.820597 0.045223
Si Si4 0.385305 0.063723 0.956201
Si Si5 0.234110 0.176108 0.171294
Si Si6 0.250075 0.536351 0.673568
O O1 0.249717 0.967697 0.544813
O O2 0.174861 0.922562 0.663636
O O3 0.356349 0.076209 0.594535
O O4 0.912683 0.037847 0.683002
O O5 0.582382 0.837026 0.828961
O O6 0.369236 0.977812 0.918730
O O7 0.281001 0.935711 0.844242
O O8 0.147859 0.827472 0.957335
O O9 0.726773 0.849814 0.043117
O O10 0.844661 0.729954 0.092306
O O11 0.868892 0.899935 0.098449
O O12 0.000000 0.219568 0.250000
O O13 0.000000 0.568438 0.750000
#
# Coordination Sequence:
#
# PCOD9265132 Si02
#       6
#     8   8   8   8   8   8
#     4  10  19  36  58  83 112 143 190 234 289 337
#     4  10  19  38  59  81 111 150 199 229 277 346
#     4  11  20  38  57  84 111 150 196 233 277 343
#     4   9  18  35  61  85 106 141 193 245 271 334
#     4  11  24  37  53  82 122 153 182 236 297 339
#     4  11  20  35  61  85 113 149 191 238 282 336
#
# _framework density 22.268668000000002
#
# number of rings (size 3 to 8) (size 9 to 14) (size 15 to 20)
#    0.000    1.667    3.333    3.000    0.000    0.667 
#    0.000    0.000    0.000    2.000    0.000    0.000 
#    0.000    0.000    0.000    0.000    0.000    0.000 
#
# Total GULP energy -134118.730048 kJ/mol
# GULP energy per Si atom -5588.280419 kJ/mol
# Density = 2.221798 g / cm^3
# Si number density = 22.268668 Si / 1000 Ang^3
#
#
#
# Elastic Constant Matrix: (Units=GPa)
#
#
# Indices 1 2 3 4 5 6 
#
# 1 129.8547 17.8343 20.7242 0.0003 -46.8660 0.0002
# 2 17.8343 34.0222 10.9237 0.0001 -14.2469 0.0000
# 3 20.7242 10.9237 70.4970 -0.0005 -34.6270 0.0000
# 4 0.0003 0.0001 -0.0005 -1.9165 -0.0002 -6.5002
# 5 -46.8660 -14.2469 -34.6270 -0.0002 44.1819 -0.0001
# 6 0.0002 0.0000 0.0000 -6.5002 -0.0001 2.7328
#
#
#
# Elastic Compliance Matrix: (Units=1/GPa)
#
#
# Indices 1 2 3 4 5 6 
#
# 1 0.013514 -0.001209 0.004982 0.000000 0.017850 0.000000
# 2 -0.001209 0.034091 -0.000256 0.000000 0.009510 0.000000
# 3 0.004982 -0.000256 0.024901 -0.000001 0.024718 -0.000002
# 4 0.000000 0.000000 -0.000001 -0.057544 -0.000002 -0.136875
# 5 0.017850 0.009510 0.024718 -0.000002 0.064007 -0.000003
# 6 0.000000 0.000000 -0.000002 -0.136875 -0.000003 0.040356
#
#
# Mechanical properties :
#
#
# Convention : Reuss Voigt Hill
#
# Bulk Modulus (GPa) = 12.57215 37.03758 24.80487
# Shear Modulus (GPa) = 36.02192 21.32574 28.67383
#
# Velocity S-wave (km/s) = 4.02631 3.09796 3.59225
# Velocity P-wave (km/s) = 5.22234 5.42814 5.32623
#
# Compressibility (1/GPa) = 0.07954088
#
# Stress axis : x y z
#
# Youngs Moduli (GPa) = 73.99696 29.33337 40.15859
#
# Poissons Ratio (x) = 0.03546 -0.20008
# Poissons Ratio (y) = 0.08946 0.01028
# Poissons Ratio (z) = -0.36866 0.00751
#
# Static dielectric constant tensor:
#      x y z
#    x 1.858590 0.000000 -0.016590 
#    y 0.000000 1.793480 0.000000 
#    z -0.016590 0.000000 1.837060 
# 
# From -- ./inp_files/190245.got.cif
#   From: 2010.05.17/outbox.cif.g08.bks.cpg/sg15_96_cif.got.tgz:190245.got - 2010.06.03 18:47:42.
