data_PCOD9265547
_publ_section_title
;
Structure prediction by ZEFSAII (Michael W. Deem and Ramdas Pophale) SiO2 
 PCOD9265547
Probable space group: C 2/C
;
_chemical_formula_sum "Si O2"
_cell_formula_units_Z 48
_cell_length_a 7.743940
_cell_length_b 15.270035
_cell_length_c 18.364252
_cell_angle_alpha 90.000000
_cell_angle_beta 96.256496
_cell_angle_gamma 90.000000
_cell_volume 2158.643174
_symmetry_space_group_name_H-M "C 2/C"
_symmetry_group_IT_number 15
_symmetry_cell_setting 'monoclinic'
loop_
_space_group_symop_operation_xyz
x,y,z
-x,y,1/2-z
-x,-y,-z
x,-y,1/2+z
1/2+x,1/2+y,z
1/2-x,1/2+y,1/2-z
1/2-x,1/2-y,-z
1/2+x,1/2-y,1/2+z
loop_
_atom_site_type_symbol
_atom_site_label
_atom_site_fract_x
_atom_site_fract_y
_atom_site_fract_z
Si Si1 0.311712 0.708598 0.213860
Si Si2 0.961301 0.234703 0.070918
Si Si3 0.154476 0.691277 0.350662
Si Si4 0.475580 0.410938 0.040297
Si Si5 0.428266 0.902182 0.503155
Si Si6 0.904656 0.140669 0.811850
O O1 0.500000 0.684131 0.250000
O O2 0.324865 0.704414 0.126664
O O3 0.187086 0.661936 0.267678
O O4 0.270551 0.812653 0.221317
O O5 0.154650 0.221675 0.113699
O O6 0.953913 0.169664 0.002972
O O7 0.959003 0.332453 0.038237
O O8 0.087319 0.628509 0.412442
O O9 0.024771 0.774358 0.338857
O O10 0.587828 0.418186 0.118194
O O11 0.500000 0.500000 0.000000
O O12 0.268161 0.397887 0.038418
O O13 0.500000 0.000000 0.500000
O O14 0.000000 0.094912 0.750000
#
# Coordination Sequence:
#
# PCOD9265547 Si02
#       6
#     8   8   8   8   8   8
#     4   9  20  33  62  91 117 161 211 251 313 375
#     4  10  19  39  63  86 122 164 205 254 308 372
#     4   9  17  39  60  84 121 164 201 251 310 363
#     4  11  23  39  59  93 126 162 206 258 314 369
#     4  11  22  37  64  93 127 163 209 260 309 374
#     4  10  19  36  62  85 119 162 202 253 317 367
#
# _framework density 22.236189
#
# number of rings (size 3 to 8) (size 9 to 14) (size 15 to 20)
#    0.000    2.000    3.333    1.000    2.333    2.000 
#    0.000    4.167    0.000    7.000    0.000    0.000 
#    0.000    0.000    0.000    0.000    0.000    0.000 
#
# Total GULP energy -133784.906636 kJ/mol
# GULP energy per Si atom -5574.371110 kJ/mol
# Density = 2.218558 g / cm^3
# Si number density = 22.236189 Si / 1000 Ang^3
#
#
#
# Elastic Constant Matrix: (Units=GPa)
#
#
# Indices 1 2 3 4 5 6 
#
# 1 82.8835 2.1475 15.0142 0.0000 -9.8180 0.0000
# 2 2.1475 82.8052 42.1950 0.0000 -12.5514 0.0000
# 3 15.0142 42.1950 144.3717 0.0000 -30.7412 0.0000
# 4 0.0000 0.0000 0.0000 32.1804 0.0000 -8.0429
# 5 -9.8180 -12.5514 -30.7412 0.0000 27.0086 0.0000
# 6 0.0000 0.0000 0.0000 -8.0429 0.0000 12.9796
#
#
#
# Elastic Compliance Matrix: (Units=1/GPa)
#
#
# Indices 1 2 3 4 5 6 
#
# 1 0.012656 0.000615 -0.000601 0.000000 0.004202 0.000000
# 2 0.000615 0.014346 -0.003682 0.000000 0.002700 0.000000
# 3 -0.000601 -0.003682 0.010103 0.000000 0.009569 0.000000
# 4 0.000000 0.000000 0.000000 0.036769 0.000000 0.022784
# 5 0.004202 0.002700 0.009569 0.000000 0.050699 0.000000
# 6 0.000000 0.000000 0.000000 0.022784 0.000000 0.091162
#
#
# Mechanical properties :
#
#
# Convention : Reuss Voigt Hill
#
# Bulk Modulus (GPa) = 33.59253 47.64153 40.61703
# Shear Modulus (GPa) = 21.45974 31.14729 26.30352
#
# Velocity S-wave (km/s) = 3.10995 3.74672 3.44308
# Velocity P-wave (km/s) = 5.29487 6.33947 5.84057
#
# Compressibility (1/GPa) = 0.02976852
#
# Stress axis : x y z
#
# Youngs Moduli (GPa) = 79.01481 69.70571 98.98203
#
# Poissons Ratio (x) = -0.04287 0.05950
# Poissons Ratio (y) = -0.04860 0.36445
# Poissons Ratio (z) = 0.04750 0.25666
#
# Static dielectric constant tensor:
#      x y z
#    x 2.047160 0.000000 0.061160 
#    y 0.000000 1.768430 0.000000 
#    z 0.061160 0.000000 1.933600 
# 
# From -- ./inp_files/189199.got.cif
#   From: 2010.05.17/outbox.cif.g08.bks.cpg/sg15_95_cif.got.tgz:189199.got - 2010.06.03 18:47:42.
