data_PCOD9265596
_publ_section_title
;
Structure prediction by ZEFSAII (Michael W. Deem and Ramdas Pophale) SiO2 
 PCOD9265596
Probable space group: C 2/C
;
_chemical_formula_sum "Si O2"
_cell_formula_units_Z 32
_cell_length_a 20.687725
_cell_length_b 5.232355
_cell_length_c 15.600716
_cell_angle_alpha 90.000000
_cell_angle_beta 128.957832
_cell_angle_gamma 90.000000
_cell_volume 1313.154108
_symmetry_space_group_name_H-M "C 2/C"
_symmetry_group_IT_number 15
_symmetry_cell_setting 'monoclinic'
loop_
_space_group_symop_operation_xyz
x,y,z
-x,y,1/2-z
-x,-y,-z
x,-y,1/2+z
1/2+x,1/2+y,z
1/2-x,1/2+y,1/2-z
1/2-x,1/2-y,-z
1/2+x,1/2-y,1/2+z
loop_
_atom_site_type_symbol
_atom_site_label
_atom_site_fract_x
_atom_site_fract_y
_atom_site_fract_z
Si Si1 0.525617 0.251407 0.572522
Si Si2 0.715001 0.769139 0.067438
Si Si3 0.692037 0.219515 0.810948
Si Si4 0.574110 0.033863 0.866021
O O1 0.500000 0.500000 0.500000
O O2 0.622117 0.228574 0.679631
O O3 0.472259 0.243306 0.615704
O O4 0.500000 0.000000 0.500000
O O5 0.742205 0.512530 0.138202
O O6 0.760247 0.014243 0.145211
O O7 0.750000 0.750000 0.000000
O O8 0.620305 0.840697 0.968621
O O9 0.640058 0.161745 0.855783
O O10 0.500000 0.904272 0.750000
#
# Coordination Sequence:
#
# PCOD9265596 Si02
#       4
#     8   8   8   8
#     4  11  24  41  60  88 126 165 202 249 305 368
#     4  10  19  36  62  92 118 150 199 257 304 354
#     4  10  21  39  63  90 119 156 202 253 303 361
#     4   9  20  38  63  90 118 157 204 249 302 363
#
# _framework density 24.368804999999998
#
# number of rings (size 3 to 8) (size 9 to 14) (size 15 to 20)
#    0.000    2.000    0.000    4.500    0.000    6.000 
#    0.000   25.000    0.000    0.000    0.000    0.000 
#    0.000    0.000    0.000    0.000    0.000    0.000 
#
# Total GULP energy -89612.191984 kJ/mol
# GULP energy per Si atom -5600.761999 kJ/mol
# Density = 2.431334 g / cm^3
# Si number density = 24.368805 Si / 1000 Ang^3
#
#
#
# Elastic Constant Matrix: (Units=GPa)
#
#
# Indices 1 2 3 4 5 6 
#
# 1 82.7057 9.7867 21.2779 0.0001 4.4628 0.0010
# 2 9.7867 183.2643 104.2748 0.0004 2.7367 0.0042
# 3 21.2779 104.2748 230.9749 -0.0002 13.6000 0.0015
# 4 0.0001 0.0004 -0.0002 25.6957 -0.0001 4.0911
# 5 4.4628 2.7367 13.6000 -0.0001 30.1050 0.0009
# 6 0.0010 0.0042 0.0015 4.0911 0.0009 17.2087
#
#
#
# Elastic Compliance Matrix: (Units=1/GPa)
#
#
# Indices 1 2 3 4 5 6 
#
# 1 0.012439 -0.000051 -0.001042 0.000000 -0.001368 -0.000001
# 2 -0.000051 0.007364 -0.003371 0.000000 0.000861 -0.000002
# 3 -0.001042 -0.003371 0.006082 0.000000 -0.002287 0.000000
# 4 0.000000 0.000000 0.000000 0.040448 0.000000 -0.009616
# 5 -0.001368 0.000861 -0.002287 0.000000 0.034375 -0.000002
# 6 -0.000001 -0.000002 0.000000 -0.009616 -0.000002 0.060396
#
#
# Mechanical properties :
#
#
# Convention : Reuss Voigt Hill
#
# Bulk Modulus (GPa) = 58.97056 85.29153 72.13104
# Shear Modulus (GPa) = 28.46014 38.70892 33.58453
#
# Velocity S-wave (km/s) = 3.42115 3.98987 3.71641
# Velocity P-wave (km/s) = 6.31327 7.50345 6.93394
#
# Compressibility (1/GPa) = 0.01695762
#
# Stress axis : x y z
#
# Youngs Moduli (GPa) = 80.39168 135.78993 164.42377
#
# Poissons Ratio (x) = 0.00688 0.17140
# Poissons Ratio (y) = 0.00408 0.55422
# Poissons Ratio (z) = 0.08380 0.45770
#
# Static dielectric constant tensor:
#      x y z
#    x 2.026680 0.000000 0.041900 
#    y 0.000000 1.853000 0.000000 
#    z 0.041900 0.000000 1.892490 
# 
# From -- ./inp_files/170372.got.cif
#   From: 2010.05.17/outbox.cif.g08.bks.cpg/sg15_86_cif.got.tgz:170372.got - 2010.06.03 18:47:42.
