data_PCOD9265885
_publ_section_title
;
Structure prediction by ZEFSAII (Michael W. Deem and Ramdas Pophale) SiO2 
 PCOD9265885
Probable space group: C 2/C
;
_chemical_formula_sum "Si O2"
_cell_formula_units_Z 40
_cell_length_a 9.466467
_cell_length_b 11.374751
_cell_length_c 31.915366
_cell_angle_alpha 90.000000
_cell_angle_beta 35.282756
_cell_angle_gamma 90.000000
_cell_volume 1985.024345
_symmetry_space_group_name_H-M "C 2/C"
_symmetry_group_IT_number 15
_symmetry_cell_setting 'monoclinic'
loop_
_space_group_symop_operation_xyz
x,y,z
-x,y,1/2-z
-x,-y,-z
x,-y,1/2+z
1/2+x,1/2+y,z
1/2-x,1/2+y,1/2-z
1/2-x,1/2-y,-z
1/2+x,1/2-y,1/2+z
loop_
_atom_site_type_symbol
_atom_site_label
_atom_site_fract_x
_atom_site_fract_y
_atom_site_fract_z
Si Si1 0.569860 0.039883 0.584524
Si Si2 0.852464 0.861944 0.947858
Si Si3 0.885364 0.218411 0.559864
Si Si4 0.833289 0.761551 0.330636
Si Si5 0.446729 0.223892 0.393517
O O1 0.724652 0.031942 0.503289
O O2 0.749608 0.105089 0.573768
O O3 0.339022 0.124426 0.633326
O O4 0.492913 0.913700 0.618854
O O5 0.760129 0.831475 0.923756
O O6 0.142272 0.847839 0.880199
O O7 0.750000 0.750000 0.000000
O O8 0.157839 0.230205 0.475088
O O9 0.906281 0.215755 0.604567
O O10 0.976183 0.770988 0.339667
O O11 0.000000 0.748225 0.250000
#
# Coordination Sequence:
#
# PCOD9265885 Si02
#       5
#     8   8   8   8   8
#     4  10  19  37  57  78 110 142 178 224 270 312
#     4   8  15  34  53  77 106 139 172 221 269 301
#     4   9  18  33  54  88 107 126 183 233 258 312
#     4  10  20  38  54  75 115 146 176 220 272 329
#     4  11  19  33  59  85 103 141 182 222 272 315
#
# _framework density 20.150884999999999
#
# number of rings (size 3 to 8) (size 9 to 14) (size 15 to 20)
#    0.000    2.800    6.000    0.600    0.000    0.800 
#    0.000   10.000    0.000    0.000    0.000    0.000 
#    0.000    0.000    0.000    0.000    0.000    0.000 
#
# Total GULP energy -111541.720170 kJ/mol
# GULP energy per Si atom -5577.086008 kJ/mol
# Density = 2.010502 g / cm^3
# Si number density = 20.150885 Si / 1000 Ang^3
#
#
#
# Elastic Constant Matrix: (Units=GPa)
#
#
# Indices 1 2 3 4 5 6 
#
# 1 104.8152 14.8507 40.3847 -0.0007 36.1272 0.0004
# 2 14.8507 40.0487 3.2396 -0.0004 0.5776 0.0003
# 3 40.3847 3.2396 97.1661 -0.0009 25.1754 0.0006
# 4 -0.0007 -0.0004 -0.0009 4.8966 0.0007 1.8581
# 5 36.1272 0.5776 25.1754 0.0007 28.1995 -0.0004
# 6 0.0004 0.0003 0.0006 1.8581 -0.0004 11.2206
#
#
#
# Elastic Compliance Matrix: (Units=1/GPa)
#
#
# Indices 1 2 3 4 5 6 
#
# 1 0.018915 -0.006543 -0.001821 0.000006 -0.022473 -0.000002
# 2 -0.006543 0.027302 -0.000283 0.000000 0.008076 0.000000
# 3 -0.001821 -0.000283 0.013597 0.000004 -0.009801 -0.000002
# 4 0.000006 0.000000 0.000004 0.217916 -0.000017 -0.036086
# 5 -0.022473 0.008076 -0.009801 -0.000017 0.072837 0.000006
# 6 -0.000002 0.000000 -0.000002 -0.036086 0.000006 0.095098
#
#
# Mechanical properties :
#
#
# Convention : Reuss Voigt Hill
#
# Bulk Modulus (GPa) = 23.51788 39.88668 31.70228
# Shear Modulus (GPa) = 10.47930 21.10034 15.78982
#
# Velocity S-wave (km/s) = 2.28292 3.23943 2.80229
# Velocity P-wave (km/s) = 4.31800 5.81626 5.12221
#
# Compressibility (1/GPa) = 0.04252085
#
# Stress axis : x y z
#
# Youngs Moduli (GPa) = 52.86811 36.62716 73.54483
#
# Poissons Ratio (x) = 0.23964 0.13391
# Poissons Ratio (y) = 0.34589 0.02084
# Poissons Ratio (z) = 0.09626 0.01038
#
# Static dielectric constant tensor:
#      x y z
#    x 1.772610 0.000000 0.023010 
#    y 0.000000 1.772950 0.000000 
#    z 0.023010 0.000000 1.712270 
# 
# From -- ./inp_files/188373.got.cif
#   From: 2010.05.17/outbox.cif.g08.bks.cpg/sg15_95_cif.got.tgz:188373.got - 2010.06.03 18:47:42.
