data_PCOD9265710
_publ_section_title
;
Structure prediction by ZEFSAII (Michael W. Deem and Ramdas Pophale) SiO2 
 PCOD9265710
Probable space group: C 2/C
;
_chemical_formula_sum "Si O2"
_cell_formula_units_Z 48
_cell_length_a 26.927823
_cell_length_b 6.889613
_cell_length_c 21.481346
_cell_angle_alpha 90.000000
_cell_angle_beta 149.525788
_cell_angle_gamma 90.000000
_cell_volume 2021.130817
_symmetry_space_group_name_H-M "C 2/C"
_symmetry_group_IT_number 15
_symmetry_cell_setting 'monoclinic'
loop_
_space_group_symop_operation_xyz
x,y,z
-x,y,1/2-z
-x,-y,-z
x,-y,1/2+z
1/2+x,1/2+y,z
1/2-x,1/2+y,1/2-z
1/2-x,1/2-y,-z
1/2+x,1/2-y,1/2+z
loop_
_atom_site_type_symbol
_atom_site_label
_atom_site_fract_x
_atom_site_fract_y
_atom_site_fract_z
Si Si1 0.038860 0.949249 0.974800
Si Si2 0.039085 0.717420 0.381353
Si Si3 0.298344 0.933547 0.370728
Si Si4 0.645348 0.346911 0.379876
Si Si5 0.352958 0.684764 0.218596
Si Si6 0.759644 0.512141 0.691504
O O1 0.023941 0.154405 0.925134
O O2 0.152592 0.897177 0.091817
O O3 0.965176 0.804402 0.860972
O O4 0.000000 0.000000 0.000000
O O5 0.111664 0.549371 0.483016
O O6 0.097283 0.858104 0.396071
O O7 0.931910 0.697551 0.236310
O O8 0.209247 0.067281 0.296388
O O9 0.259210 0.714661 0.336859
O O10 0.321120 0.959035 0.322013
O O11 0.750000 0.250000 0.500000
O O12 0.651391 0.549193 0.347780
O O13 0.304217 0.893471 0.177464
#
# Coordination Sequence:
#
# PCOD9265710 Si02
#       6
#     8   8   8   8   8   8
#     4  10  19  37  59  86 125 163 199 250 312 360
#     4   9  20  34  58  94 117 158 212 248 299 373
#     4  11  19  36  60  89 124 160 200 251 304 365
#     4  10  19  36  64  89 118 164 208 251 311 367
#     4  11  21  38  62  89 124 164 203 257 312 360
#     4  11  22  37  61  93 127 162 205 254 304 375
#
# _framework density 23.749082000000001
#
# number of rings (size 3 to 8) (size 9 to 14) (size 15 to 20)
#    0.000    1.667    5.000    1.000    0.000    0.000 
#    0.000    9.167    0.000    0.000    8.667    0.000 
#    0.000    0.000    0.000    0.000    0.000    0.000 
#
# Total GULP energy -133971.257144 kJ/mol
# GULP energy per Si atom -5582.135714 kJ/mol
# Density = 2.369503 g / cm^3
# Si number density = 23.749082 Si / 1000 Ang^3
#
#
#
# Elastic Constant Matrix: (Units=GPa)
#
#
# Indices 1 2 3 4 5 6 
#
# 1 107.7914 10.2785 3.3766 -0.0002 -9.1459 -0.0002
# 2 10.2785 60.4231 0.1070 0.0000 2.6926 -0.0002
# 3 3.3766 0.1070 88.0612 -0.0002 -0.6221 -0.0002
# 4 -0.0002 0.0000 -0.0002 18.8409 -0.0001 5.9324
# 5 -9.1459 2.6926 -0.6221 -0.0001 38.8207 -0.0001
# 6 -0.0002 -0.0002 -0.0002 5.9324 -0.0001 39.3494
#
#
#
# Elastic Compliance Matrix: (Units=1/GPa)
#
#
# Indices 1 2 3 4 5 6 
#
# 1 0.009658 -0.001749 -0.000351 0.000000 0.002391 0.000000
# 2 -0.001749 0.016918 0.000035 0.000000 -0.001585 0.000000
# 3 -0.000351 0.000035 0.011370 0.000000 0.000097 0.000000
# 4 0.000000 0.000000 0.000000 0.055721 0.000000 -0.008401
# 5 0.002391 -0.001585 0.000097 0.000000 0.026434 0.000000
# 6 0.000000 0.000000 0.000000 -0.008401 0.000000 0.026680
#
#
# Mechanical properties :
#
#
# Convention : Reuss Voigt Hill
#
# Bulk Modulus (GPa) = 29.57172 31.53331 30.55251
# Shear Modulus (GPa) = 30.82949 35.56977 33.19963
#
# Velocity S-wave (km/s) = 3.60687 3.87425 3.74295
# Velocity P-wave (km/s) = 5.46121 5.77232 5.61892
#
# Compressibility (1/GPa) = 0.03381609
#
# Stress axis : x y z
#
# Youngs Moduli (GPa) = 103.54308 59.10858 87.95185
#
# Poissons Ratio (x) = 0.10337 0.03090
# Poissons Ratio (y) = 0.18108 -0.00311
# Poissons Ratio (z) = 0.03637 -0.00209
#
# Static dielectric constant tensor:
#      x y z
#    x 1.890080 0.000000 -0.021260 
#    y 0.000000 1.937150 0.000000 
#    z -0.021260 0.000000 2.113610 
# 
# From -- ./inp_files/257246.got.cif
#   From: 2010.05.17/outbox.cif.g08.bks.cpg/sg15_129_cif.got.tgz:257246.got - 2010.06.03 18:47:42.
