data_PCOD9265146
_publ_section_title
;
Structure prediction by ZEFSAII (Michael W. Deem and Ramdas Pophale) SiO2 
 PCOD9265146
Probable space group: C 2/C
;
_chemical_formula_sum "Si O2"
_cell_formula_units_Z 56
_cell_length_a 30.152763
_cell_length_b 8.998933
_cell_length_c 21.945518
_cell_angle_alpha 90.000000
_cell_angle_beta 27.887011
_cell_angle_gamma 90.000000
_cell_volume 2785.214748
_symmetry_space_group_name_H-M "C 2/C"
_symmetry_group_IT_number 15
_symmetry_cell_setting 'monoclinic'
loop_
_space_group_symop_operation_xyz
x,y,z
-x,y,1/2-z
-x,-y,-z
x,-y,1/2+z
1/2+x,1/2+y,z
1/2-x,1/2+y,1/2-z
1/2-x,1/2-y,-z
1/2+x,1/2-y,1/2+z
loop_
_atom_site_type_symbol
_atom_site_label
_atom_site_fract_x
_atom_site_fract_y
_atom_site_fract_z
Si Si1 0.629263 0.034465 0.433474
Si Si2 0.322118 0.401623 0.236851
Si Si3 0.717075 0.942009 0.707715
Si Si4 0.083665 0.953412 0.248667
Si Si5 0.544414 0.820518 0.635160
Si Si6 0.907629 0.879318 0.012056
Si Si7 0.289515 0.635481 0.001827
O O1 0.636353 0.998364 0.352138
O O2 0.600248 0.202653 0.481094
O O3 0.737855 0.012844 0.323077
O O4 0.569345 0.925819 0.548862
O O5 0.282201 0.233752 0.275736
O O6 0.356122 0.426525 0.263716
O O7 0.405517 0.419630 0.086426
O O8 0.710891 0.934634 0.641892
O O9 0.813386 0.035170 0.602385
O O10 0.150902 0.984338 0.109287
O O11 0.030427 0.801344 0.295955
O O12 0.000478 0.067274 0.364637
O O13 0.500000 0.894360 0.750000
O O14 0.637311 0.729539 0.545047
O O15 0.250000 0.750000 0.000000
#
# Coordination Sequence:
#
# PCOD9265146 Si02
#       7
#     8   8   8   8   8   8   8
#     4  10  20  38  58  81 122 154 184 241 297 354
#     4  10  19  36  61  84 112 152 198 236 283 346
#     4  10  19  36  58  85 107 153 205 228 280 345
#     4  11  20  35  61  87 114 145 200 247 281 340
#     4  10  21  37  58  84 109 154 193 240 292 337
#     4  10  21  34  56  88 119 150 186 237 302 348
#     4  11  19  35  64  84 106 145 208 242 268 335
#
# _framework density 20.106169999999999
#
# number of rings (size 3 to 8) (size 9 to 14) (size 15 to 20)
#    0.000    1.714    4.286    0.429    0.000    0.000 
#    2.571    4.286    0.000    1.714    0.000    0.000 
#    0.000    0.000    0.000    0.000    0.000    0.000 
#
# Total GULP energy -156086.831321 kJ/mol
# GULP energy per Si atom -5574.529690 kJ/mol
# Density = 2.006041 g / cm^3
# Si number density = 20.106170 Si / 1000 Ang^3
#
#
#
# Elastic Constant Matrix: (Units=GPa)
#
#
# Indices 1 2 3 4 5 6 
#
# 1 56.4747 7.4200 24.4022 0.0007 28.7715 -0.0002
# 2 7.4200 42.2548 32.7615 0.0028 16.6889 -0.0007
# 3 24.4022 32.7615 129.3576 0.0026 50.5711 -0.0005
# 4 0.0007 0.0028 0.0026 26.3257 -0.0006 10.2804
# 5 28.7715 16.6889 50.5711 -0.0006 44.0613 0.0001
# 6 -0.0002 -0.0007 -0.0005 10.2804 0.0001 19.4896
#
#
#
# Elastic Compliance Matrix: (Units=1/GPa)
#
#
# Indices 1 2 3 4 5 6 
#
# 1 0.027364 0.001505 0.003021 -0.000002 -0.021905 0.000002
# 2 0.001505 0.030079 -0.005557 -0.000004 -0.005997 0.000003
# 3 0.003021 -0.005557 0.015448 -0.000002 -0.017598 0.000001
# 4 -0.000002 -0.000004 -0.000002 0.047840 0.000006 -0.025235
# 5 -0.021905 -0.005997 -0.017598 0.000006 0.059468 -0.000004
# 6 0.000002 0.000003 0.000001 -0.025235 -0.000004 0.064620
#
#
# Mechanical properties :
#
#
# Convention : Reuss Voigt Hill
#
# Bulk Modulus (GPa) = 14.11906 39.69495 26.90700
# Shear Modulus (GPa) = 18.48483 28.87555 23.68019
#
# Velocity S-wave (km/s) = 3.03539 3.79377 3.43557
# Velocity P-wave (km/s) = 4.39571 6.24306 5.39898
#
# Compressibility (1/GPa) = 0.07082624
#
# Stress axis : x y z
#
# Youngs Moduli (GPa) = 36.54452 33.24576 64.73430
#
# Poissons Ratio (x) = -0.05002 -0.19553
# Poissons Ratio (y) = -0.05498 0.35974
# Poissons Ratio (z) = -0.11038 0.18475
#
# Static dielectric constant tensor:
#      x y z
#    x 1.737900 0.000000 0.041350 
#    y 0.000000 1.683520 0.000000 
#    z 0.041350 0.000000 1.801800 
# 
# From -- ./inp_files/218315.got.cif
#   From: 2010.05.17/outbox.cif.g08.bks.cpg/sg15_110_cif.got.tgz:218315.got - 2010.06.03 18:47:42.
