data_PCOD9265574
_publ_section_title
;
Structure prediction by ZEFSAII (Michael W. Deem and Ramdas Pophale) SiO2 
 PCOD9265574
Probable space group: C 2/C
;
_chemical_formula_sum "Si O2"
_cell_formula_units_Z 48
_cell_length_a 9.221030
_cell_length_b 16.199609
_cell_length_c 13.214692
_cell_angle_alpha 90.000000
_cell_angle_beta 73.851448
_cell_angle_gamma 90.000000
_cell_volume 1896.086703
_symmetry_space_group_name_H-M "C 2/C"
_symmetry_group_IT_number 15
_symmetry_cell_setting 'monoclinic'
loop_
_space_group_symop_operation_xyz
x,y,z
-x,y,1/2-z
-x,-y,-z
x,-y,1/2+z
1/2+x,1/2+y,z
1/2-x,1/2+y,1/2-z
1/2-x,1/2-y,-z
1/2+x,1/2-y,1/2+z
loop_
_atom_site_type_symbol
_atom_site_label
_atom_site_fract_x
_atom_site_fract_y
_atom_site_fract_z
Si Si1 0.871774 0.903354 0.850028
Si Si2 0.890561 0.206325 0.527418
Si Si3 0.174879 0.362909 0.245334
Si Si4 0.883726 0.204324 0.862121
Si Si5 0.827410 0.560314 0.271812
Si Si6 0.345764 0.539881 0.991489
O O1 0.750131 0.876318 0.791151
O O2 0.000000 0.940367 0.750000
O O3 0.778557 0.967093 0.936993
O O4 0.947740 0.844019 0.917154
O O5 0.750000 0.250000 0.500000
O O6 0.794988 0.156439 0.632218
O O7 0.032934 0.249635 0.557672
O O8 0.226033 0.305975 0.330707
O O9 0.187226 0.462992 0.258122
O O10 0.000000 0.346182 0.250000
O O11 0.887614 0.113744 0.910719
O O12 0.000000 0.218227 0.750000
O O13 0.753596 0.566494 0.395999
O O14 0.000000 0.579890 0.250000
O O15 0.500000 0.500000 0.000000
#
# Coordination Sequence:
#
# PCOD9265574 Si02
#       6
#     8   8   8   8   8   8
#     4  12  22  36  64  93 125 164 214 269 314 384
#     4  11  24  41  59  87 123 167 214 258 312 382
#     4  10  21  38  61  89 119 158 205 255 320 385
#     4  10  19  36  62  89 115 156 206 259 308 378
#     4  11  23  35  55  97 135 160 198 271 343 379
#     4  12  18  33  61  94 125 158 211 262 330 386
#
# _framework density 25.315297999999999
#
# number of rings (size 3 to 8) (size 9 to 14) (size 15 to 20)
#    0.000    1.000    6.667    1.500    0.000    2.667 
#    0.000    3.333    0.000    0.000    0.000    0.000 
#    0.000    0.000    0.000    0.000    0.000    0.000 
#
# Total GULP energy -133688.975987 kJ/mol
# GULP energy per Si atom -5570.373999 kJ/mol
# Density = 2.525768 g / cm^3
# Si number density = 25.315298 Si / 1000 Ang^3
#
#
#
# Elastic Constant Matrix: (Units=GPa)
#
#
# Indices 1 2 3 4 5 6 
#
# 1 169.3985 21.4033 60.5849 0.0000 30.9504 0.0000
# 2 21.4033 31.5045 28.4640 0.0000 8.1551 0.0000
# 3 60.5849 28.4640 168.1131 0.0000 21.7303 0.0000
# 4 0.0000 0.0000 0.0000 25.3027 0.0000 5.4343
# 5 30.9504 8.1551 21.7303 0.0000 49.8946 0.0000
# 6 0.0000 0.0000 0.0000 5.4343 0.0000 28.4410
#
#
#
# Elastic Compliance Matrix: (Units=1/GPa)
#
#
# Indices 1 2 3 4 5 6 
#
# 1 0.007510 -0.002559 -0.001828 0.000000 -0.003444 0.000000
# 2 -0.002559 0.038953 -0.005357 0.000000 -0.002446 0.000000
# 3 -0.001828 -0.005357 0.007687 0.000000 -0.001338 0.000000
# 4 0.000000 0.000000 0.000000 0.041213 0.000000 -0.007875
# 5 -0.003444 -0.002446 -0.001338 0.000000 0.023161 0.000000
# 6 0.000000 0.000000 0.000000 -0.007875 0.000000 0.036665
#
#
# Mechanical properties :
#
#
# Convention : Reuss Voigt Hill
#
# Bulk Modulus (GPa) = 28.84966 65.54673 47.19820
# Shear Modulus (GPa) = 26.84847 37.96525 32.40686
#
# Velocity S-wave (km/s) = 3.26016 3.87679 3.58177
# Velocity P-wave (km/s) = 5.05890 6.78142 5.98248
#
# Compressibility (1/GPa) = 0.03466245
#
# Stress axis : x y z
#
# Youngs Moduli (GPa) = 133.16430 25.67191 130.08739
#
# Poissons Ratio (x) = 0.06569 0.23779
# Poissons Ratio (y) = 0.34074 0.69687
# Poissons Ratio (z) = 0.24341 0.13752
#
# Static dielectric constant tensor:
#      x y z
#    x 0.853420 0.000000 -0.948660 
#    y 0.000000 2.252010 0.000000 
#    z -0.948660 0.000000 1.150880 
# 
# From -- ./inp_files/79152.got.cif
#   From: 2010.05.17/outbox.cif.g08.bks.cpg/sg15_40_cif.got.tgz:79152.got - 2010.06.03 18:47:42.
