data_PCOD9265644
_publ_section_title
;
Structure prediction by ZEFSAII (Michael W. Deem and Ramdas Pophale) SiO2 
 PCOD9265644
Probable space group: C 2/C
;
_chemical_formula_sum "Si O2"
_cell_formula_units_Z 52
_cell_length_a 16.260171
_cell_length_b 17.389136
_cell_length_c 10.637609
_cell_angle_alpha 90.000000
_cell_angle_beta 44.717355
_cell_angle_gamma 90.000000
_cell_volume 2116.309212
_symmetry_space_group_name_H-M "C 2/C"
_symmetry_group_IT_number 15
_symmetry_cell_setting 'monoclinic'
loop_
_space_group_symop_operation_xyz
x,y,z
-x,y,1/2-z
-x,-y,-z
x,-y,1/2+z
1/2+x,1/2+y,z
1/2-x,1/2+y,1/2-z
1/2-x,1/2-y,-z
1/2+x,1/2-y,1/2+z
loop_
_atom_site_type_symbol
_atom_site_label
_atom_site_fract_x
_atom_site_fract_y
_atom_site_fract_z
Si Si1 0.170430 0.482394 0.277074
Si Si2 0.000000 0.755234 0.750000
Si Si3 0.904942 0.271514 0.957246
Si Si4 0.459889 0.125540 0.987331
Si Si5 0.050885 0.141542 0.417297
Si Si6 0.808136 0.125638 0.808655
Si Si7 0.103960 0.026330 0.566296
O O1 0.139855 0.569647 0.350067
O O2 0.224532 0.438353 0.337421
O O3 0.059267 0.437663 0.340980
O O4 0.276482 0.480535 0.065194
O O5 0.064956 0.692424 0.587783
O O6 0.069116 0.815109 0.764837
O O7 0.000000 0.251895 0.750000
O O8 0.878726 0.197890 0.068168
O O9 0.783251 0.309661 0.053427
O O10 0.977039 0.329951 0.967901
O O11 0.081216 0.058953 0.449780
O O12 0.910742 0.148199 0.599440
O O13 0.874610 0.093485 0.856596
O O14 0.000000 0.981031 0.750000
#
# Coordination Sequence:
#
# PCOD9265644 Si02
#       7
#     8   4   8   8   8   8   8
#     4  10  21  40  61  96 129 164 217 264 324 385
#     4  10  22  44  66  90 132 168 214 262 324 382
#     4  10  19  36  63  89 120 158 209 266 317 373
#     4   9  21  38  64  97 125 163 213 270 324 376
#     4  10  23  41  58  91 127 163 214 261 313 393
#     4  10  22  39  61  91 124 170 209 264 326 375
#     4  10  22  40  63  91 126 170 215 262 317 389
#
# _framework density 24.571079000000001
#
# number of rings (size 3 to 8) (size 9 to 14) (size 15 to 20)
#    0.000    2.154    0.000    2.308    2.154    7.385 
#    6.923    7.692    0.000    0.000    0.000    0.000 
#    0.000    0.000    0.000    0.000    0.000    0.000 
#
# Total GULP energy -144999.414991 kJ/mol
# GULP energy per Si atom -5576.900577 kJ/mol
# Density = 2.451515 g / cm^3
# Si number density = 24.571079 Si / 1000 Ang^3
#
#
#
# Elastic Constant Matrix: (Units=GPa)
#
#
# Indices 1 2 3 4 5 6 
#
# 1 47.7252 18.0252 16.9191 0.0000 5.3827 0.0000
# 2 18.0252 95.4856 1.3268 0.0000 -0.5688 0.0000
# 3 16.9191 1.3268 68.3985 0.0000 -14.0653 0.0000
# 4 0.0000 0.0000 0.0000 34.3314 0.0000 -1.6494
# 5 5.3827 -0.5688 -14.0653 0.0000 38.8938 0.0000
# 6 0.0000 0.0000 0.0000 -1.6494 0.0000 -20.6424
#
#
#
# Elastic Compliance Matrix: (Units=1/GPa)
#
#
# Indices 1 2 3 4 5 6 
#
# 1 0.026281 -0.004892 -0.007744 0.000000 -0.006509 0.000000
# 2 -0.004892 0.011387 0.001256 0.000000 0.001298 0.000000
# 3 -0.007744 0.001256 0.018080 0.000000 0.007629 0.000000
# 4 0.000000 0.000000 0.000000 0.029016 0.000000 -0.002319
# 5 -0.006509 0.001298 0.007629 0.000000 0.029390 0.000000
# 6 0.000000 0.000000 0.000000 -0.002319 0.000000 -0.048259
#
#
# Mechanical properties :
#
#
# Convention : Reuss Voigt Hill
#
# Bulk Modulus (GPa) = 30.31553 31.57237 30.94395
# Shear Modulus (GPa) = 50.17487 22.20577 36.19032
#
# Velocity S-wave (km/s) = 4.52378 3.00948 3.84198
# Velocity P-wave (km/s) = 6.29689 4.99533 5.68349
#
# Compressibility (1/GPa) = 0.03298639
#
# Stress axis : x y z
#
# Youngs Moduli (GPa) = 38.05078 87.82261 55.30904
#
# Poissons Ratio (x) = 0.42965 0.42834
# Poissons Ratio (y) = 0.18615 -0.06948
# Poissons Ratio (z) = 0.29468 -0.11032
#
# Static dielectric constant tensor:
#      x y z
#    x 1.939460 0.000000 0.044090 
#    y 0.000000 1.995790 0.000000 
#    z 0.044090 0.000000 2.029030 
# 
# From -- ./inp_files/107470.got.cif
#   From: 2010.05.17/outbox.cif.g08.bks.cpg/sg15_54_cif.got.tgz:107470.got - 2010.06.03 18:47:42.
