data_PCOD9265733
_publ_section_title
;
Structure prediction by ZEFSAII (Michael W. Deem and Ramdas Pophale) SiO2 
 PCOD9265733
Probable space group: C 2/C
;
_chemical_formula_sum "Si O2"
_cell_formula_units_Z 36
_cell_length_a 9.607935
_cell_length_b 18.632749
_cell_length_c 10.819829
_cell_angle_alpha 90.000000
_cell_angle_beta 51.214705
_cell_angle_gamma 90.000000
_cell_volume 1509.881328
_symmetry_space_group_name_H-M "C 2/C"
_symmetry_group_IT_number 15
_symmetry_cell_setting 'monoclinic'
loop_
_space_group_symop_operation_xyz
x,y,z
-x,y,1/2-z
-x,-y,-z
x,-y,1/2+z
1/2+x,1/2+y,z
1/2-x,1/2+y,1/2-z
1/2-x,1/2-y,-z
1/2+x,1/2-y,1/2+z
loop_
_atom_site_type_symbol
_atom_site_label
_atom_site_fract_x
_atom_site_fract_y
_atom_site_fract_z
Si Si1 0.819616 0.760823 0.655764
Si Si2 0.433245 0.612735 0.491473
Si Si3 0.377065 0.164863 0.015301
Si Si4 0.500000 0.503146 0.250000
Si Si5 0.273958 0.106770 0.639618
O O1 0.682355 0.792393 0.829883
O O2 0.743498 0.691878 0.623823
O O3 0.918645 0.830161 0.547669
O O4 0.983965 0.718041 0.628310
O O5 0.290974 0.644752 0.472001
O O6 0.528481 0.552323 0.355064
O O7 0.312773 0.595169 0.676620
O O8 0.511490 0.100308 0.976553
O O9 0.333784 0.451742 0.376626
#
# Coordination Sequence:
#
# PCOD9265733 Si02
#       5
#     8   8   8   4   8
#     4  10  19  36  64  99 116 149 208 263 302 345
#     4  12  21  38  66  93 121 158 210 259 303 353
#     4  10  20  35  66  97 119 149 212 265 298 348
#     4  12  26  42  58  88 138 168 196 240 320 370
#     4  10  24  39  61  89 130 163 200 252 309 366
#
# _framework density 23.842932000000001
#
# number of rings (size 3 to 8) (size 9 to 14) (size 15 to 20)
#    1.333    0.000    4.444    2.000    3.111    0.889 
#    0.000    4.444    0.000    0.000    0.000    0.000 
#    0.000    0.000    0.000    0.000    0.000    0.000 
#
# Total GULP energy -100273.995099 kJ/mol
# GULP energy per Si atom -5570.777505 kJ/mol
# Density = 2.378866 g / cm^3
# Si number density = 23.842932 Si / 1000 Ang^3
#
#
#
# Elastic Constant Matrix: (Units=GPa)
#
#
# Indices 1 2 3 4 5 6 
#
# 1 66.5546 45.6988 17.7639 0.0000 -8.7451 0.0000
# 2 45.6988 115.3727 18.7314 0.0000 -12.9421 0.0000
# 3 17.7639 18.7314 80.1701 0.0000 -22.6326 0.0000
# 4 0.0000 0.0000 0.0000 21.9364 0.0000 -20.6998
# 5 -8.7451 -12.9421 -22.6326 0.0000 21.6505 0.0000
# 6 0.0000 0.0000 0.0000 -20.6998 0.0000 42.0519
#
#
#
# Elastic Compliance Matrix: (Units=1/GPa)
#
#
# Indices 1 2 3 4 5 6 
#
# 1 0.021270 -0.007876 -0.002520 0.000000 0.001249 0.000000
# 2 -0.007876 0.012248 0.000074 0.000000 0.004218 0.000000
# 3 -0.002520 0.000074 0.018073 0.000000 0.017920 0.000000
# 4 0.000000 0.000000 0.000000 0.085129 0.000000 0.041904
# 5 0.001249 0.004218 0.017920 0.000000 0.067947 0.000000
# 6 0.000000 0.000000 0.000000 0.041904 0.000000 0.044407
#
#
# Mechanical properties :
#
#
# Convention : Reuss Voigt Hill
#
# Bulk Modulus (GPa) = 32.31242 47.38727 39.84984
# Shear Modulus (GPa) = 17.85503 29.12130 23.48817
#
# Velocity S-wave (km/s) = 2.73950 3.49862 3.14207
# Velocity P-wave (km/s) = 4.85676 6.01983 5.46930
#
# Compressibility (1/GPa) = 0.03094785
#
# Stress axis : x y z
#
# Youngs Moduli (GPa) = 47.01522 81.64471 55.32985
#
# Poissons Ratio (x) = 0.64300 0.13944
# Poissons Ratio (y) = 0.37027 -0.00410
# Poissons Ratio (z) = 0.11849 -0.00605
#
# Static dielectric constant tensor:
#      x y z
#    x 1.989630 0.000000 -0.012150 
#    y 0.000000 2.042560 0.000000 
#    z -0.012150 0.000000 1.880010 
# 
# From -- ./inp_files/146319.got.cif
#   From: 2010.05.17/outbox.cif.g08.bks.cpg/sg15_74_cif.got.tgz:146319.got - 2010.06.03 18:47:42.
