data_PCOD9265295
_publ_section_title
;
Structure prediction by ZEFSAII (Michael W. Deem and Ramdas Pophale) SiO2 
 PCOD9265295
Probable space group: C 2/C
;
_chemical_formula_sum "Si O2"
_cell_formula_units_Z 56
_cell_length_a 11.697468
_cell_length_b 22.843785
_cell_length_c 14.467317
_cell_angle_alpha 90.000000
_cell_angle_beta 41.413558
_cell_angle_gamma 90.000000
_cell_volume 2557.235836
_symmetry_space_group_name_H-M "C 2/C"
_symmetry_group_IT_number 15
_symmetry_cell_setting 'monoclinic'
loop_
_space_group_symop_operation_xyz
x,y,z
-x,y,1/2-z
-x,-y,-z
x,-y,1/2+z
1/2+x,1/2+y,z
1/2-x,1/2+y,1/2-z
1/2-x,1/2-y,-z
1/2+x,1/2-y,1/2+z
loop_
_atom_site_type_symbol
_atom_site_label
_atom_site_fract_x
_atom_site_fract_y
_atom_site_fract_z
Si Si1 0.773435 0.877068 0.678562
Si Si2 0.316899 0.956916 0.918145
Si Si3 0.920953 0.255704 0.703136
Si Si4 0.505015 0.913944 0.977454
Si Si5 0.550893 0.220301 0.936530
Si Si6 0.915961 0.182961 0.402128
Si Si7 0.637130 0.081957 0.587344
O O1 0.799442 0.912127 0.568786
O O2 0.638533 0.823278 0.745055
O O3 0.681475 0.917381 0.811489
O O4 0.942957 0.850119 0.619747
O O5 0.500000 0.955824 0.750000
O O6 0.356432 0.933953 0.997407
O O7 0.255127 0.023898 0.951546
O O8 0.742392 0.225776 0.780579
O O9 0.000000 0.232701 0.750000
O O10 0.049572 0.250792 0.539373
O O11 0.485128 0.846546 0.019965
O O12 0.532113 0.941952 0.061023
O O13 0.413088 0.253961 0.955869
O O14 0.755507 0.138317 0.496509
O O15 0.000000 0.190603 0.250000
O O16 0.500000 0.096512 0.750000
#
# Coordination Sequence:
#
# PCOD9265295 Si02
#       7
#     8   8   8   8   8   8   8
#     4   9  18  37  63  87 114 156 204 245 296 358
#     4   9  19  37  64  92 116 153 205 257 302 354
#     4  10  19  36  59  90 121 157 196 243 302 361
#     4  10  19  38  62  90 120 156 203 246 304 362
#     4  10  23  35  60  91 120 162 196 248 301 358
#     4  11  23  42  60  87 123 164 206 240 303 372
#     4  11  24  38  61  89 121 163 200 256 295 354
#
# _framework density 21.898644999999998
#
# number of rings (size 3 to 8) (size 9 to 14) (size 15 to 20)
#    0.000    2.000    1.429    3.000    2.000    2.857 
#    0.000    0.000    0.000    0.000    0.000    0.000 
#    0.000    0.000    0.000    0.000    0.000    0.000 
#
# Total GULP energy -156227.050673 kJ/mol
# GULP energy per Si atom -5579.537524 kJ/mol
# Density = 2.184880 g / cm^3
# Si number density = 21.898645 Si / 1000 Ang^3
#
#
#
# Elastic Constant Matrix: (Units=GPa)
#
#
# Indices 1 2 3 4 5 6 
#
# 1 71.7382 25.3452 17.1093 -0.0001 22.2521 0.0001
# 2 25.3452 111.7310 24.3114 -0.0001 17.6525 0.0000
# 3 17.1093 24.3114 67.5214 0.0000 19.3588 0.0001
# 4 -0.0001 -0.0001 0.0000 -2.9900 0.0000 6.9734
# 5 22.2521 17.6525 19.3588 0.0000 29.2257 -0.0001
# 6 0.0001 0.0000 0.0001 6.9734 -0.0001 19.8708
#
#
#
# Elastic Compliance Matrix: (Units=1/GPa)
#
#
# Indices 1 2 3 4 5 6 
#
# 1 0.018734 -0.002168 -0.000312 0.000000 -0.012748 0.000000
# 2 -0.002168 0.010439 -0.002314 0.000000 -0.003121 0.000000
# 3 -0.000312 -0.002314 0.018829 0.000000 -0.010837 0.000000
# 4 0.000000 0.000000 0.000000 -0.183918 0.000001 0.064544
# 5 -0.012748 -0.003121 -0.010837 0.000001 0.052987 0.000000
# 6 0.000000 0.000000 0.000000 0.064544 0.000000 0.027674
#
#
# Mechanical properties :
#
#
# Convention : Reuss Voigt Hill
#
# Bulk Modulus (GPa) = 26.03150 42.72471 34.37811
# Shear Modulus (GPa) = -152.14655 21.50295 -65.32180
#
# Velocity S-wave (km/s) = -8.34437 3.13698 -5.46753
# Velocity P-wave (km/s) = 8.99582 5.71606 4.91179
#
# Compressibility (1/GPa) = 0.03841499
#
# Stress axis : x y z
#
# Youngs Moduli (GPa) = 53.37870 95.79902 53.10830
#
# Poissons Ratio (x) = 0.20767 0.01655
# Poissons Ratio (y) = 0.11571 0.12290
# Poissons Ratio (z) = 0.01663 0.22170
#
# Static dielectric constant tensor:
#      x y z
#    x 1.846870 0.000000 0.015210 
#    y 0.000000 1.866350 0.000000 
#    z 0.015210 0.000000 1.820080 
# 
# From -- ./inp_files/92010.got.cif
#   From: 2010.05.17/outbox.cif.g08.bks.cpg/sg15_47_cif.got.tgz:92010.got - 2010.06.03 18:47:42.
