data_PCOD9265089
_publ_section_title
;
Structure prediction by ZEFSAII (Michael W. Deem and Ramdas Pophale) SiO2 
 PCOD9265089
Probable space group: C 2/C
;
_chemical_formula_sum "Si O2"
_cell_formula_units_Z 48
_cell_length_a 19.881546
_cell_length_b 13.006466
_cell_length_c 11.128540
_cell_angle_alpha 90.000000
_cell_angle_beta 57.378030
_cell_angle_gamma 90.000000
_cell_volume 2423.742502
_symmetry_space_group_name_H-M "C 2/C"
_symmetry_group_IT_number 15
_symmetry_cell_setting 'monoclinic'
loop_
_space_group_symop_operation_xyz
x,y,z
-x,y,1/2-z
-x,-y,-z
x,-y,1/2+z
1/2+x,1/2+y,z
1/2-x,1/2+y,1/2-z
1/2-x,1/2-y,-z
1/2+x,1/2-y,1/2+z
loop_
_atom_site_type_symbol
_atom_site_label
_atom_site_fract_x
_atom_site_fract_y
_atom_site_fract_z
Si Si1 0.271755 0.952771 0.786132
Si Si2 0.634719 0.233002 0.311587
Si Si3 0.136685 0.857090 0.084866
Si Si4 0.732713 0.335996 0.414728
Si Si5 0.359724 0.561973 0.299031
Si Si6 0.513787 0.624745 0.491588
O O1 0.351901 0.888319 0.685948
O O2 0.215425 0.950280 0.720411
O O3 0.287281 0.067736 0.821223
O O4 0.216501 0.893279 0.938395
O O5 0.643328 0.259081 0.162935
O O6 0.707884 0.280332 0.317232
O O7 0.558518 0.294477 0.436919
O O8 0.112893 0.946444 0.202134
O O9 0.066907 0.850416 0.056338
O O10 0.750000 0.250000 0.500000
O O11 0.661378 0.396405 0.549405
O O12 0.425617 0.635158 0.178507
O O13 0.500000 0.500000 0.500000
#
# Coordination Sequence:
#
# PCOD9265089 Si02
#       6
#     8   8   8   8   8   8
#     4  10  21  36  57  90 123 159 209 263 306 381
#     4  12  21  35  58  93 123 162 206 259 328 368
#     4  10  20  35  56  87 126 163 202 261 317 368
#     4  11  22  38  62  86 122 164 207 261 313 375
#     4  10  19  36  57  90 123 159 210 252 320 367
#     4  11  21  34  58  90 126 164 203 264 317 379
#
# _framework density 19.804082999999999
#
# number of rings (size 3 to 8) (size 9 to 14) (size 15 to 20)
#    0.000    1.333    5.000    3.000    0.000    2.000 
#    0.000    0.000    0.000    1.000    4.333    0.000 
#    0.000    0.000    0.000    0.000    0.000    0.000 
#
# Total GULP energy -133646.651523 kJ/mol
# GULP energy per Si atom -5568.610480 kJ/mol
# Density = 1.975901 g / cm^3
# Si number density = 19.804083 Si / 1000 Ang^3
#
#
#
# Elastic Constant Matrix: (Units=GPa)
#
#
# Indices 1 2 3 4 5 6 
#
# 1 50.0634 37.8909 11.1513 0.0000 1.2289 0.0000
# 2 37.8909 111.2314 14.7289 0.0000 -9.5687 0.0000
# 3 11.1513 14.7289 51.8129 0.0000 10.6932 0.0000
# 4 0.0000 0.0000 0.0000 33.6999 0.0000 1.5675
# 5 1.2289 -9.5687 10.6932 0.0000 23.9966 0.0000
# 6 0.0000 0.0000 0.0000 1.5675 0.0000 31.4462
#
#
#
# Elastic Compliance Matrix: (Units=1/GPa)
#
#
# Indices 1 2 3 4 5 6 
#
# 1 0.027814 -0.009509 -0.002430 0.000000 -0.004133 0.000000
# 2 -0.009509 0.013276 -0.003216 0.000000 0.007214 0.000000
# 3 -0.002430 -0.003216 0.023101 0.000000 -0.011452 0.000000
# 4 0.000000 0.000000 0.000000 0.029743 0.000000 -0.001483
# 5 -0.004133 0.007214 -0.011452 0.000000 0.049864 0.000000
# 6 0.000000 0.000000 0.000000 -0.001483 0.000000 0.031874
#
#
# Mechanical properties :
#
#
# Convention : Reuss Voigt Hill
#
# Bulk Modulus (GPa) = 29.51524 37.85000 33.68262
# Shear Modulus (GPa) = 23.01220 27.78430 25.39825
#
# Velocity S-wave (km/s) = 3.41250 3.74967 3.58505
# Velocity P-wave (km/s) = 5.51931 6.15633 5.84651
#
# Compressibility (1/GPa) = 0.03388080
#
# Stress axis : x y z
#
# Youngs Moduli (GPa) = 35.95291 75.32474 43.28798
#
# Poissons Ratio (x) = 0.71623 0.10520
# Poissons Ratio (y) = 0.34186 0.13923
# Poissons Ratio (z) = 0.08737 0.24227
#
# Static dielectric constant tensor:
#      x y z
#    x 1.719660 0.000000 -0.021890 
#    y 0.000000 2.713140 0.000000 
#    z -0.021890 0.000000 1.797970 
# 
# From -- ./inp_files/110688.got.cif
#   From: 2010.05.17/outbox.cif.g08.bks.cpg/sg15_56_cif.got.tgz:110688.got - 2010.06.03 18:47:42.
