data_PCOD9265019
_publ_section_title
;
Structure prediction by ZEFSAII (Michael W. Deem and Ramdas Pophale) SiO2 
 PCOD9265019
Probable space group: C 2/C
;
_chemical_formula_sum "Si O2"
_cell_formula_units_Z 60
_cell_length_a 21.925158
_cell_length_b 23.244867
_cell_length_c 12.699007
_cell_angle_alpha 90.000000
_cell_angle_beta 26.607720
_cell_angle_gamma 90.000000
_cell_volume 2898.683540
_symmetry_space_group_name_H-M "C 2/C"
_symmetry_group_IT_number 15
_symmetry_cell_setting 'monoclinic'
loop_
_space_group_symop_operation_xyz
x,y,z
-x,y,1/2-z
-x,-y,-z
x,-y,1/2+z
1/2+x,1/2+y,z
1/2-x,1/2+y,1/2-z
1/2-x,1/2-y,-z
1/2+x,1/2-y,1/2+z
loop_
_atom_site_type_symbol
_atom_site_label
_atom_site_fract_x
_atom_site_fract_y
_atom_site_fract_z
Si Si1 0.500000 0.108595 0.750000
Si Si2 0.819939 0.435737 0.804060
Si Si3 0.350298 0.355355 0.026405
Si Si4 0.868494 0.567053 0.751026
Si Si5 0.277699 0.839726 0.727105
Si Si6 0.203942 0.250674 0.191419
Si Si7 0.766961 0.845545 0.391636
Si Si8 0.591873 0.229657 0.288250
O O1 0.403178 0.072572 0.821852
O O2 0.580850 0.149507 0.548470
O O3 0.807579 0.503936 0.823738
O O4 0.743940 0.402359 0.826032
O O5 0.984052 0.426401 0.534677
O O6 0.764422 0.401940 0.990904
O O7 0.500000 0.368405 0.750000
O O8 0.239280 0.386684 0.123907
O O9 0.322965 0.287096 0.062159
O O10 0.313186 0.366613 0.205407
O O11 0.190494 0.810032 0.771668
O O12 0.307525 0.798522 0.779578
O O13 0.060128 0.280339 0.437322
O O14 0.250000 0.250000 0.000000
O O15 0.632294 0.805109 0.619936
O O16 0.877814 0.797922 0.259692
#
# Coordination Sequence:
#
# PCOD9265019 Si02
#       8
#     4   8   8   8   8   8   8   8
#     4  10  20  36  62  88 124 166 218 272 318 390
#     4   9  21  41  66  90 125 163 221 277 330 385
#     4  12  25  41  61  95 133 174 218 269 335 405
#     4  10  22  42  65  97 125 171 222 275 330 393
#     4  10  19  36  56  90 125 160 205 269 316 381
#     4  12  23  35  61  89 128 178 213 258 328 398
#     4  10  21  40  61  87 128 166 211 275 324 389
#     4  10  21  39  57  90 130 165 217 261 323 395
#
# _framework density 20.699051999999998
#
# number of rings (size 3 to 8) (size 9 to 14) (size 15 to 20)
#    0.000    1.600    1.333    4.800    0.933    5.333 
#    0.000    2.000    0.000    0.000    0.000    0.000 
#    0.000    0.000    0.000    0.000    0.000    0.000 
#
# Total GULP energy -167096.269713 kJ/mol
# GULP energy per Si atom -5569.875657 kJ/mol
# Density = 2.065194 g / cm^3
# Si number density = 20.699052 Si / 1000 Ang^3
#
#
#
# Elastic Constant Matrix: (Units=GPa)
#
#
# Indices 1 2 3 4 5 6 
#
# 1 77.4822 35.6395 48.3825 0.0007 23.6369 -0.0003
# 2 35.6395 103.8627 29.7104 0.0033 7.1846 -0.0018
# 3 48.3825 29.7104 124.6313 0.0060 23.0151 -0.0026
# 4 0.0007 0.0033 0.0060 26.8280 -0.0014 -1.1479
# 5 23.6369 7.1846 23.0151 -0.0014 33.6919 0.0006
# 6 -0.0003 -0.0018 -0.0026 -1.1479 0.0006 26.2129
#
#
#
# Elastic Compliance Matrix: (Units=1/GPa)
#
#
# Indices 1 2 3 4 5 6 
#
# 1 0.021852 -0.005257 -0.005271 0.000001 -0.010609 0.000000
# 2 -0.005257 0.011608 -0.001088 -0.000001 0.001956 0.000001
# 3 -0.005271 -0.001088 0.010990 -0.000002 -0.003577 0.000001
# 4 0.000001 -0.000001 -0.000002 0.037344 0.000003 0.001635
# 5 -0.010609 0.001956 -0.003577 0.000003 0.039150 -0.000001
# 6 0.000000 0.000001 0.000001 0.001635 -0.000001 0.038221
#
#
# Mechanical properties :
#
#
# Convention : Reuss Voigt Hill
#
# Bulk Modulus (GPa) = 47.12722 59.27123 53.19923
# Shear Modulus (GPa) = 26.38976 30.16281 28.27629
#
# Velocity S-wave (km/s) = 3.57448 3.82148 3.70004
# Velocity P-wave (km/s) = 6.31294 6.94036 6.63407
#
# Compressibility (1/GPa) = 0.02121916
#
# Stress axis : x y z
#
# Youngs Moduli (GPa) = 45.76311 86.14973 90.99440
#
# Poissons Ratio (x) = 0.45286 0.47961
# Poissons Ratio (y) = 0.24056 0.09896
# Poissons Ratio (z) = 0.24121 0.09369
#
# Static dielectric constant tensor:
#      x y z
#    x 1.858450 0.000000 0.020820 
#    y 0.000000 1.758720 0.000000 
#    z 0.020820 0.000000 1.810660 
# 
# From -- ./inp_files/114808.got.cif
#   From: 2010.05.17/outbox.cif.g08.bks.cpg/sg15_58_cif.got.tgz:114808.got - 2010.06.03 18:47:42.
