data_PCOD9265324
_publ_section_title
;
Structure prediction by ZEFSAII (Michael W. Deem and Ramdas Pophale) SiO2 
 PCOD9265324
Probable space group: C 2/C
;
_chemical_formula_sum "Si O2"
_cell_formula_units_Z 60
_cell_length_a 25.292168
_cell_length_b 7.399295
_cell_length_c 14.411576
_cell_angle_alpha 90.000000
_cell_angle_beta 73.198959
_cell_angle_gamma 90.000000
_cell_volume 2581.917722
_symmetry_space_group_name_H-M "C 2/C"
_symmetry_group_IT_number 15
_symmetry_cell_setting 'monoclinic'
loop_
_space_group_symop_operation_xyz
x,y,z
-x,y,1/2-z
-x,-y,-z
x,-y,1/2+z
1/2+x,1/2+y,z
1/2-x,1/2+y,1/2-z
1/2-x,1/2-y,-z
1/2+x,1/2-y,1/2+z
loop_
_atom_site_type_symbol
_atom_site_label
_atom_site_fract_x
_atom_site_fract_y
_atom_site_fract_z
Si Si1 0.978015 0.170424 0.950433
Si Si2 0.384171 0.457928 0.753422
Si Si3 0.298655 0.064159 0.103432
Si Si4 0.407994 0.754574 0.579344
Si Si5 0.710570 0.831399 0.231636
Si Si6 0.744744 0.065019 0.060324
Si Si7 0.500000 0.523103 0.250000
Si Si8 0.129835 0.960354 0.029860
O O1 0.027990 0.309529 0.941192
O O2 0.981789 0.105527 0.842720
O O3 0.911798 0.189807 0.993237
O O4 0.000000 0.000000 0.000000
O O5 0.392387 0.610322 0.669550
O O6 0.341561 0.300492 0.751004
O O7 0.445450 0.377258 0.742104
O O8 0.365121 0.546425 0.861283
O O9 0.362099 0.092755 0.098503
O O10 0.261581 0.222054 0.164365
O O11 0.279701 0.885522 0.167529
O O12 0.285722 0.058358 0.001752
O O13 0.399423 0.646249 0.487145
O O14 0.710750 0.015962 0.170232
O O15 0.750000 0.250000 0.000000
O O16 0.809531 0.026961 0.042802
#
# Coordination Sequence:
#
# PCOD9265324 Si02
#       8
#     8   8   8   8   8   8   4   8
#     4   8  16  31  56  87 105 147 193 242 275 334
#     4  10  20  36  62  86 117 156 199 240 289 344
#     4  12  24  39  59  87 122 154 195 241 298 353
#     4  10  20  36  61  89 117 148 196 244 292 347
#     4  12  24  39  59  87 118 158 190 240 298 352
#     4  12  26  40  60  86 116 156 201 242 291 350
#     4   8  16  32  56  86 110 150 200 238 276 344
#     4  10  19  36  60  83 116 150 199 242 278 338
#
# _framework density 23.23854
#
# number of rings (size 3 to 8) (size 9 to 14) (size 15 to 20)
#    0.000    1.600    2.667    2.800    3.733    0.000 
#    0.000    0.000    2.933    0.800    0.000    0.000 
#    0.000    0.000    0.000    0.000    0.000    0.000 
#
# Total GULP energy -167294.285791 kJ/mol
# GULP energy per Si atom -5576.476193 kJ/mol
# Density = 2.318565 g / cm^3
# Si number density = 23.238540 Si / 1000 Ang^3
#
#
#
# Elastic Constant Matrix: (Units=GPa)
#
#
# Indices 1 2 3 4 5 6 
#
# 1 146.0613 20.4613 12.9009 0.0000 -5.1607 0.0000
# 2 20.4613 45.4976 8.8177 0.0000 -1.4464 0.0000
# 3 12.9009 8.8177 99.2832 0.0000 17.6129 0.0000
# 4 0.0000 0.0000 0.0000 29.5040 0.0000 0.2555
# 5 -5.1607 -1.4464 17.6129 0.0000 33.2241 0.0000
# 6 0.0000 0.0000 0.0000 0.2555 0.0000 26.8429
#
#
#
# Elastic Compliance Matrix: (Units=1/GPa)
#
#
# Indices 1 2 3 4 5 6 
#
# 1 0.007420 -0.003102 -0.000959 0.000000 0.001526 0.000000
# 2 -0.003102 0.023813 -0.001998 0.000000 0.001614 0.000000
# 3 -0.000959 -0.001998 0.011497 0.000000 -0.006331 0.000000
# 4 0.000000 0.000000 0.000000 0.033897 0.000000 -0.000323
# 5 0.001526 0.001614 -0.006331 0.000000 0.033762 0.000000
# 6 0.000000 0.000000 0.000000 -0.000323 0.000000 0.037257
#
#
# Mechanical properties :
#
#
# Convention : Reuss Voigt Hill
#
# Bulk Modulus (GPa) = 32.66852 41.68909 37.17880
# Shear Modulus (GPa) = 29.41718 34.49168 31.95443
#
# Velocity S-wave (km/s) = 3.56178 3.85677 3.71221
# Velocity P-wave (km/s) = 5.56807 6.14910 5.86579
#
# Compressibility (1/GPa) = 0.03061051
#
# Stress axis : x y z
#
# Youngs Moduli (GPa) = 134.77651 41.99395 86.97580
#
# Poissons Ratio (x) = 0.13028 0.08344
# Poissons Ratio (y) = 0.41813 0.17379
# Poissons Ratio (z) = 0.12929 0.08391
#
# Static dielectric constant tensor:
#      x y z
#    x 2.009520 0.000000 -0.026180 
#    y 0.000000 1.996550 0.000000 
#    z -0.026180 0.000000 1.958280 
# 
# From -- ./inp_files/171872.got.cif
#   From: 2010.05.17/outbox.cif.g08.bks.cpg/sg15_86_cif.got.tgz:171872.got - 2010.06.03 18:47:42.
