data_PCOD9265519
_publ_section_title
;
Structure prediction by ZEFSAII (Michael W. Deem and Ramdas Pophale) SiO2 
 PCOD9265519
Probable space group: C 2/C
;
_chemical_formula_sum "Si O2"
_cell_formula_units_Z 60
_cell_length_a 8.663915
_cell_length_b 15.666092
_cell_length_c 29.125292
_cell_angle_alpha 90.000000
_cell_angle_beta 134.795132
_cell_angle_gamma 90.000000
_cell_volume 2805.288162
_symmetry_space_group_name_H-M "C 2/C"
_symmetry_group_IT_number 15
_symmetry_cell_setting 'monoclinic'
loop_
_space_group_symop_operation_xyz
x,y,z
-x,y,1/2-z
-x,-y,-z
x,-y,1/2+z
1/2+x,1/2+y,z
1/2-x,1/2+y,1/2-z
1/2-x,1/2-y,-z
1/2+x,1/2-y,1/2+z
loop_
_atom_site_type_symbol
_atom_site_label
_atom_site_fract_x
_atom_site_fract_y
_atom_site_fract_z
Si Si1 0.360386 0.913269 0.539730
Si Si2 0.312867 0.957124 0.342168
Si Si3 0.534181 0.791683 0.416308
Si Si4 0.711462 0.157643 0.385310
Si Si5 0.968203 0.994372 0.408680
Si Si6 0.656646 0.492725 0.210245
Si Si7 0.706899 0.859042 0.542869
Si Si8 0.000000 0.630881 0.250000
O O1 0.374418 0.840797 0.581450
O O2 0.483151 0.881686 0.520142
O O3 0.504025 0.989212 0.592290
O O4 0.116216 0.940520 0.474528
O O5 0.371242 0.857826 0.359548
O O6 0.304115 0.971579 0.285544
O O7 0.083116 0.985202 0.316872
O O8 0.399950 0.725306 0.418800
O O9 0.674941 0.844791 0.482000
O O10 0.680869 0.728612 0.416249
O O11 0.556507 0.176210 0.309599
O O12 0.802625 0.060086 0.398377
O O13 0.136403 0.060154 0.419350
O O14 0.864026 0.944155 0.343500
O O15 0.783279 0.576851 0.217772
#
# Coordination Sequence:
#
# PCOD9265519 Si02
#       8
#     8   8   8   8   8   8   8   4
#     4  12  20  37  65  96 111 156 214 260 280 357
#     4  11  21  37  65  90 116 153 213 248 292 361
#     4  10  22  40  57  89 127 164 190 243 322 363
#     4  10  23  37  59  87 126 164 196 247 316 366
#     4  10  19  36  61  94 118 156 202 256 300 352
#     4  10  21  36  60  92 118 154 202 258 296 356
#     4  10  20  36  62  88 125 158 198 247 304 365
#     4  10  20  40  58  88 124 156 198 254 308 362
#
# _framework density 21.388176999999999
#
# number of rings (size 3 to 8) (size 9 to 14) (size 15 to 20)
#    0.000    1.600    4.000    1.600    0.000    1.600 
#    0.000    1.333    0.000    0.000    0.000    0.000 
#    0.000    0.000    0.000    0.000    0.000    0.000 
#
# Total GULP energy -167001.919682 kJ/mol
# GULP energy per Si atom -5566.730656 kJ/mol
# Density = 2.133950 g / cm^3
# Si number density = 21.388177 Si / 1000 Ang^3
#
#
#
# Elastic Constant Matrix: (Units=GPa)
#
#
# Indices 1 2 3 4 5 6 
#
# 1 18.5161 -0.4311 -4.2660 0.0000 -3.2253 0.0000
# 2 -0.4311 41.2565 14.6581 0.0000 -2.9155 0.0000
# 3 -4.2660 14.6581 98.1452 0.0000 -11.7787 0.0000
# 4 0.0000 0.0000 0.0000 10.8537 0.0000 4.6335
# 5 -3.2253 -2.9155 -11.7787 0.0000 30.1031 0.0000
# 6 0.0000 0.0000 0.0000 4.6335 0.0000 7.0875
#
#
#
# Elastic Compliance Matrix: (Units=1/GPa)
#
#
# Indices 1 2 3 4 5 6 
#
# 1 0.056042 -0.000080 0.003324 0.000000 0.007297 0.000000
# 2 -0.000080 0.025628 -0.003708 0.000000 0.001023 0.000000
# 3 0.003324 -0.003708 0.011423 0.000000 0.004467 0.000000
# 4 0.000000 0.000000 0.000000 0.127804 0.000000 -0.083552
# 5 0.007297 0.001023 0.004467 0.000000 0.035848 0.000000
# 6 0.000000 0.000000 0.000000 -0.083552 0.000000 0.195716
#
#
# Mechanical properties :
#
#
# Convention : Reuss Voigt Hill
#
# Bulk Modulus (GPa) = 10.85015 19.75998 15.30507
# Shear Modulus (GPa) = 10.32822 19.47264 14.90043
#
# Velocity S-wave (km/s) = 2.19987 3.02062 2.64231
# Velocity P-wave (km/s) = 3.39655 4.62864 4.05961
#
# Compressibility (1/GPa) = 0.09216459
#
# Stress axis : x y z
#
# Youngs Moduli (GPa) = 17.84372 39.02055 87.54010
#
# Poissons Ratio (x) = 0.00310 -0.29095
# Poissons Ratio (y) = 0.00142 0.32462
# Poissons Ratio (z) = -0.05931 0.14470
#
# Static dielectric constant tensor:
#      x y z
#    x 1.785870 0.000000 0.010690 
#    y 0.000000 1.783900 0.000000 
#    z 0.010690 0.000000 1.905860 
# 
# From -- ./inp_files/289608.got.cif
#   From: 2010.05.17/outbox.cif.g08.bks.cpg/sg15_145_cif.got.tgz:289608.got - 2010.06.03 18:47:42.
