data_PCOD9265899
_publ_section_title
;
Structure prediction by ZEFSAII (Michael W. Deem and Ramdas Pophale) SiO2 
 PCOD9265899
Probable space group: C 2/C
;
_chemical_formula_sum "Si O2"
_cell_formula_units_Z 64
_cell_length_a 18.914879
_cell_length_b 17.514761
_cell_length_c 12.181426
_cell_angle_alpha 90.000000
_cell_angle_beta 50.661802
_cell_angle_gamma 90.000000
_cell_volume 3121.188967
_symmetry_space_group_name_H-M "C 2/C"
_symmetry_group_IT_number 15
_symmetry_cell_setting 'monoclinic'
loop_
_space_group_symop_operation_xyz
x,y,z
-x,y,1/2-z
-x,-y,-z
x,-y,1/2+z
1/2+x,1/2+y,z
1/2-x,1/2+y,1/2-z
1/2-x,1/2-y,-z
1/2+x,1/2-y,1/2+z
loop_
_atom_site_type_symbol
_atom_site_label
_atom_site_fract_x
_atom_site_fract_y
_atom_site_fract_z
Si Si1 0.470948 0.577212 0.470056
Si Si2 0.279441 0.877433 0.053141
Si Si3 0.932789 0.819185 0.215714
Si Si4 0.707431 0.236383 0.781608
Si Si5 0.700395 0.982335 0.800303
Si Si6 0.772172 0.098499 0.570382
Si Si7 0.656227 0.617903 0.232271
Si Si8 0.137770 0.659124 0.263329
O O1 0.500000 0.500000 0.500000
O O2 0.464675 0.640615 0.572345
O O3 0.373399 0.575582 0.509346
O O4 0.555143 0.590902 0.306281
O O5 0.170778 0.853627 0.161008
O O6 0.326399 0.811374 0.080993
O O7 0.299155 0.956692 0.098939
O O8 0.318128 0.871837 0.893180
O O9 0.931934 0.726900 0.200149
O O10 0.000000 0.838535 0.250000
O O11 0.745234 0.175779 0.658291
O O12 0.643121 0.296067 0.786144
O O13 0.788688 0.289890 0.744028
O O14 0.794818 0.935133 0.725174
O O15 0.624461 0.916344 0.852750
O O16 0.707175 0.033890 0.684562
O O17 0.776730 0.111632 0.437051
#
# Coordination Sequence:
#
# PCOD9265899 Si02
#       8
#     8   8   8   8   8   8   8   8
#     4  12  23  37  50  85 127 154 182 227 294 366
#     4  10  19  37  57  84 113 150 195 244 291 333
#     4  11  23  36  58  87 122 156 193 240 290 352
#     4   9  19  35  54  80 111 143 200 243 269 346
#     4  10  20  35  56  83 114 147 197 245 280 344
#     4  11  20  39  53  80 118 147 191 239 288 348
#     4  11  22  32  56  79 110 159 184 222 298 347
#     4  10  20  36  60  82 113 154 200 241 291 340
#
# _framework density 20.505006999999999
#
# number of rings (size 3 to 8) (size 9 to 14) (size 15 to 20)
#    0.000    1.500    5.000    3.000    5.250    2.000 
#    0.000    0.000    0.000    0.750    0.000    0.000 
#    0.000    0.000    0.000    0.000    0.000    0.000 
#
# Total GULP energy -178314.404863 kJ/mol
# GULP energy per Si atom -5572.325152 kJ/mol
# Density = 2.045834 g / cm^3
# Si number density = 20.505007 Si / 1000 Ang^3
#
#
#
# Elastic Constant Matrix: (Units=GPa)
#
#
# Indices 1 2 3 4 5 6 
#
# 1 32.8644 17.7280 6.3774 0.0000 14.8627 0.0000
# 2 17.7280 140.5848 27.9642 0.0000 13.9461 0.0000
# 3 6.3774 27.9642 57.0608 0.0000 14.7978 0.0000
# 4 0.0000 0.0000 0.0000 8.1936 0.0000 -4.1918
# 5 14.8627 13.9461 14.7978 0.0000 17.0829 0.0000
# 6 0.0000 0.0000 0.0000 -4.1918 0.0000 9.4242
#
#
#
# Elastic Compliance Matrix: (Units=1/GPa)
#
#
# Indices 1 2 3 4 5 6 
#
# 1 0.054141 -0.003475 0.009199 0.000000 -0.052235 0.000000
# 2 -0.003475 0.008320 -0.003497 0.000000 -0.000739 0.000000
# 3 0.009199 -0.003497 0.025209 0.000000 -0.026985 0.000000
# 4 0.000000 0.000000 0.000000 0.158001 0.000000 0.070278
# 5 -0.052235 -0.000739 -0.026985 0.000000 0.127964 0.000000
# 6 0.000000 0.000000 0.000000 0.070278 0.000000 0.137370
#
#
# Mechanical properties :
#
#
# Convention : Reuss Voigt Hill
#
# Bulk Modulus (GPa) = 10.85516 37.18324 24.01920
# Shear Modulus (GPa) = 9.30647 18.83616 14.07132
#
# Velocity S-wave (km/s) = 2.13272 3.03415 2.62246
# Velocity P-wave (km/s) = 3.37195 5.51796 4.57263
#
# Compressibility (1/GPa) = 0.09212210
#
# Stress axis : x y z
#
# Youngs Moduli (GPa) = 18.47040 120.18626 39.66796
#
# Poissons Ratio (x) = 0.41767 -0.36489
# Poissons Ratio (y) = 0.06419 0.13874
# Poissons Ratio (z) = -0.16990 0.42035
#
# Static dielectric constant tensor:
#      x y z
#    x 1.762530 0.000000 0.013060 
#    y 0.000000 1.789110 0.000000 
#    z 0.013060 0.000000 1.744230 
# 
# From -- ./inp_files/113650.got.cif
#   From: 2010.05.17/outbox.cif.g08.bks.cpg/sg15_57_cif.got.tgz:113650.got - 2010.06.03 18:47:42.
