data_PCOD9265998
_publ_section_title
;
Structure prediction by ZEFSAII (Michael W. Deem and Ramdas Pophale) SiO2 
 PCOD9265998
Probable space group: C 2/C
;
_chemical_formula_sum "Si O2"
_cell_formula_units_Z 56
_cell_length_a 18.229475
_cell_length_b 20.137411
_cell_length_c 16.633697
_cell_angle_alpha 90.000000
_cell_angle_beta 31.210040
_cell_angle_gamma 90.000000
_cell_volume 3164.059339
_symmetry_space_group_name_H-M "C 2/C"
_symmetry_group_IT_number 15
_symmetry_cell_setting 'monoclinic'
loop_
_space_group_symop_operation_xyz
x,y,z
-x,y,1/2-z
-x,-y,-z
x,-y,1/2+z
1/2+x,1/2+y,z
1/2-x,1/2+y,1/2-z
1/2-x,1/2-y,-z
1/2+x,1/2-y,1/2+z
loop_
_atom_site_type_symbol
_atom_site_label
_atom_site_fract_x
_atom_site_fract_y
_atom_site_fract_z
Si Si1 0.480894 0.728374 0.082565
Si Si2 0.264960 0.202458 0.064155
Si Si3 0.592129 0.399260 0.387899
Si Si4 0.310116 0.463755 0.636160
Si Si5 0.482264 0.056900 0.172462
Si Si6 0.100280 0.354882 0.433779
Si Si7 0.629579 0.926939 0.963218
O O1 0.377114 0.709565 0.251836
O O2 0.409029 0.779066 0.086846
O O3 0.612727 0.765717 0.997046
O O4 0.538636 0.663034 0.987668
O O5 0.250000 0.250000 0.000000
O O6 0.311158 0.124258 0.024302
O O7 0.449800 0.424254 0.477320
O O8 0.639562 0.461145 0.398130
O O9 0.737497 0.377563 0.209758
O O10 0.178996 0.459161 0.699576
O O11 0.246444 0.437828 0.782495
O O12 0.500000 0.061508 0.250000
O O13 0.579975 0.997319 0.045304
O O14 0.523455 0.124471 0.087690
O O15 0.010054 0.396110 0.450500
#
# Coordination Sequence:
#
# PCOD9265998 Si02
#       7
#     8   8   8   8   8   8   8
#     4  11  22  36  58  85 114 160 199 235 291 356
#     4  11  23  36  53  86 128 159 192 235 289 355
#     4  11  19  35  65  86 112 147 204 250 285 337
#     4  10  20  36  62  89 114 149 203 250 286 350
#     4  11  22  38  60  87 119 155 195 249 300 347
#     4  10  20  37  60  83 115 153 208 237 285 357
#     4  10  19  37  59  84 114 160 200 232 283 361
#
# _framework density 17.698784
#
# number of rings (size 3 to 8) (size 9 to 14) (size 15 to 20)
#    0.000    1.429    5.714    1.286    0.000    3.429 
#    0.000    0.714    0.000    3.429    0.000    0.000 
#    0.000    0.000    0.000    0.000    0.000    0.000 
#
# Total GULP energy -155993.505980 kJ/mol
# GULP energy per Si atom -5571.196642 kJ/mol
# Density = 1.765850 g / cm^3
# Si number density = 17.698784 Si / 1000 Ang^3
#
#
#
# Elastic Constant Matrix: (Units=GPa)
#
#
# Indices 1 2 3 4 5 6 
#
# 1 113.4437 26.4078 56.4351 -0.0038 -17.8455 0.0020
# 2 26.4078 79.8669 20.8283 -0.0032 -0.5855 0.0022
# 3 56.4351 20.8283 93.2251 -0.0040 -33.0420 0.0025
# 4 -0.0038 -0.0032 -0.0040 30.9090 0.0027 -5.1404
# 5 -17.8455 -0.5855 -33.0420 0.0027 44.0084 -0.0017
# 6 0.0020 0.0022 0.0025 -5.1404 -0.0017 16.0425
#
#
#
# Elastic Compliance Matrix: (Units=1/GPa)
#
#
# Indices 1 2 3 4 5 6 
#
# 1 0.013034 -0.002357 -0.007496 0.000000 -0.000374 0.000000
# 2 -0.002357 0.013980 -0.002683 0.000001 -0.002784 -0.000001
# 3 -0.007496 -0.002683 0.020131 0.000000 0.012039 -0.000001
# 4 0.000000 0.000001 0.000000 0.034174 -0.000001 0.010950
# 5 -0.000374 -0.002784 0.012039 -0.000001 0.031573 0.000001
# 6 0.000000 -0.000001 -0.000001 0.010950 0.000001 0.065843
#
#
# Mechanical properties :
#
#
# Convention : Reuss Voigt Hill
#
# Bulk Modulus (GPa) = 45.30790 54.87537 50.09164
# Shear Modulus (GPa) = 23.67802 30.38295 27.03048
#
# Velocity S-wave (km/s) = 3.66161 4.14776 3.91225
# Velocity P-wave (km/s) = 6.59784 7.34922 6.98364
#
# Compressibility (1/GPa) = 0.02207120
#
# Stress axis : x y z
#
# Youngs Moduli (GPa) = 76.72216 71.53266 49.67394
#
# Poissons Ratio (x) = 0.16864 0.37237
# Poissons Ratio (y) = 0.18087 0.13328
# Poissons Ratio (z) = 0.57513 0.19193
#
# Static dielectric constant tensor:
#      x y z
#    x 1.588540 0.000000 -0.019120 
#    y 0.000000 1.650260 0.000000 
#    z -0.019120 0.000000 1.605770 
# 
# From -- ./inp_files/50101.got.cif
#   From: 2010.05.17/outbox.cif.g08.bks.cpg/sg15_26_cif.got.tgz:50101.got - 2010.06.03 18:47:42.
