data_PCOD9265160
_publ_section_title
;
Structure prediction by ZEFSAII (Michael W. Deem and Ramdas Pophale) SiO2 
 PCOD9265160
Probable space group: C 2/C
;
_chemical_formula_sum "Si O2"
_cell_formula_units_Z 56
_cell_length_a 16.341651
_cell_length_b 11.834048
_cell_length_c 14.768121
_cell_angle_alpha 90.000000
_cell_angle_beta 73.995992
_cell_angle_gamma 90.000000
_cell_volume 2745.284919
_symmetry_space_group_name_H-M "C 2/C"
_symmetry_group_IT_number 15
_symmetry_cell_setting 'monoclinic'
loop_
_space_group_symop_operation_xyz
x,y,z
-x,y,1/2-z
-x,-y,-z
x,-y,1/2+z
1/2+x,1/2+y,z
1/2-x,1/2+y,1/2-z
1/2-x,1/2-y,-z
1/2+x,1/2-y,1/2+z
loop_
_atom_site_type_symbol
_atom_site_label
_atom_site_fract_x
_atom_site_fract_y
_atom_site_fract_z
Si Si1 0.672727 0.194795 0.875493
Si Si2 0.190902 0.085240 0.265682
Si Si3 0.629032 0.643610 0.722557
Si Si4 0.599245 0.275260 0.428614
Si Si5 0.417419 0.342973 0.457685
Si Si6 0.787372 0.028405 0.551403
Si Si7 0.165010 0.455175 0.922720
O O1 0.655215 0.292893 0.806704
O O2 0.773334 0.169007 0.836973
O O3 0.632268 0.070222 0.886399
O O4 0.643749 0.250045 0.978467
O O5 0.261644 0.093740 0.166565
O O6 0.125339 0.989028 0.251618
O O7 0.230082 0.028361 0.345343
O O8 0.611341 0.714606 0.817022
O O9 0.573988 0.670927 0.652075
O O10 0.508975 0.333475 0.476124
O O11 0.678135 0.344721 0.446194
O O12 0.599075 0.145285 0.456225
O O13 0.368133 0.459113 0.489051
O O14 0.711415 0.018260 0.503557
#
# Coordination Sequence:
#
# PCOD9265160 Si02
#       7
#     8   8   8   8   8   8   8
#     4  10  20  35  61  81 114 155 202 234 290 367
#     4   9  19  34  59  88 107 144 207 248 276 348
#     4  10  19  36  58  86 110 153 201 247 288 354
#     4  11  23  36  55  90 124 148 193 257 300 344
#     4  11  21  36  60  86 118 153 197 250 300 346
#     4  10  21  37  60  86 114 158 200 244 293 357
#     4  11  21  37  60  87 119 157 199 243 297 353
#
# _framework density 20.398610999999999
#
# number of rings (size 3 to 8) (size 9 to 14) (size 15 to 20)
#    0.000    1.714    4.286    1.714    2.000    0.571 
#    0.000    0.000    0.000    0.000    0.000    0.000 
#    0.000    0.000    0.000    0.000    0.000    0.000 
#
# Total GULP energy -156176.840961 kJ/mol
# GULP energy per Si atom -5577.744320 kJ/mol
# Density = 2.035218 g / cm^3
# Si number density = 20.398611 Si / 1000 Ang^3
#
#
#
# Elastic Constant Matrix: (Units=GPa)
#
#
# Indices 1 2 3 4 5 6 
#
# 1 35.4904 5.6881 -2.0232 0.0000 4.1737 0.0000
# 2 5.6881 113.7158 -0.4832 0.0000 6.7447 0.0000
# 3 -2.0232 -0.4832 67.2787 0.0000 7.7911 0.0000
# 4 0.0000 0.0000 0.0000 15.9672 0.0000 -8.0211
# 5 4.1737 6.7447 7.7911 0.0000 7.1394 0.0000
# 6 0.0000 0.0000 0.0000 -8.0211 0.0000 13.9989
#
#
#
# Elastic Compliance Matrix: (Units=1/GPa)
#
#
# Indices 1 2 3 4 5 6 
#
# 1 0.030953 -0.000253 0.003430 0.000000 -0.021600 0.000000
# 2 -0.000253 0.009410 0.001227 0.000000 -0.010081 0.000000
# 3 0.003430 0.001227 0.017561 0.000000 -0.022330 0.000000
# 4 0.000000 0.000000 0.000000 0.087941 0.000000 0.050389
# 5 -0.021600 -0.010081 -0.022330 0.000000 0.186587 0.000000
# 6 0.000000 0.000000 0.000000 0.050389 0.000000 0.100307
#
#
# Mechanical properties :
#
#
# Convention : Reuss Voigt Hill
#
# Bulk Modulus (GPa) = 14.98481 24.76092 19.87287
# Shear Modulus (GPa) = 11.20590 21.64129 16.42359
#
# Velocity S-wave (km/s) = 2.34636 3.26071 2.84056
# Velocity P-wave (km/s) = 3.83438 5.13237 4.53010
#
# Compressibility (1/GPa) = 0.06673426
#
# Stress axis : x y z
#
# Youngs Moduli (GPa) = 32.30721 106.27395 56.94318
#
# Poissons Ratio (x) = 0.02684 -0.19533
# Poissons Ratio (y) = 0.00816 -0.06989
# Poissons Ratio (z) = -0.11082 -0.13044
#
# Static dielectric constant tensor:
#      x y z
#    x 1.734120 0.000000 -0.012330 
#    y 0.000000 1.782070 0.000000 
#    z -0.012330 0.000000 1.735610 
# 
# From -- ./inp_files/160811.got.cif
#   From: 2010.05.17/outbox.cif.g08.bks.cpg/sg15_81_cif.got.tgz:160811.got - 2010.06.03 18:47:42.
