data_PCOD9265595
_publ_section_title
;
Structure prediction by ZEFSAII (Michael W. Deem and Ramdas Pophale) SiO2 
 PCOD9265595
Probable space group: C 2/C
;
_chemical_formula_sum "Si O2"
_cell_formula_units_Z 44
_cell_length_a 17.116388
_cell_length_b 13.889280
_cell_length_c 22.945502
_cell_angle_alpha 90.000000
_cell_angle_beta 158.260536
_cell_angle_gamma 90.000000
_cell_volume 2020.434268
_symmetry_space_group_name_H-M "C 2/C"
_symmetry_group_IT_number 15
_symmetry_cell_setting 'monoclinic'
loop_
_space_group_symop_operation_xyz
x,y,z
-x,y,1/2-z
-x,-y,-z
x,-y,1/2+z
1/2+x,1/2+y,z
1/2-x,1/2+y,1/2-z
1/2-x,1/2-y,-z
1/2+x,1/2-y,1/2+z
loop_
_atom_site_type_symbol
_atom_site_label
_atom_site_fract_x
_atom_site_fract_y
_atom_site_fract_z
Si Si1 0.970112 0.185306 0.598808
Si Si2 0.503224 0.352238 0.815015
Si Si3 0.851743 0.571784 0.828719
Si Si4 0.500000 0.766991 0.750000
Si Si5 0.105099 0.637800 0.108598
Si Si6 0.009680 0.366201 0.317156
O O1 0.722412 0.177067 0.411204
O O2 0.111273 0.093788 0.679521
O O3 0.003317 0.207384 0.690952
O O4 0.055689 0.276013 0.618741
O O5 0.500000 0.404167 0.750000
O O6 0.347769 0.379842 0.758922
O O7 0.425581 0.242449 0.751108
O O8 0.744614 0.356452 0.999166
O O9 0.954008 0.466680 0.907394
O O10 0.884615 0.593630 0.784364
O O11 0.981107 0.644211 0.961117
O O12 0.000000 0.421619 0.250000
#
# Coordination Sequence:
#
# PCOD9265595 Si02
#       6
#     8   8   8   4   8   8
#     4  11  22  46  68  94 136 174 220 283 316 399
#     4  10  19  36  62  91 125 165 204 255 319 390
#     4  11  23  42  66  98 130 171 222 263 329 393
#     4  10  24  42  70  96 126 186 224 260 340 370
#     4  11  23  41  68  97 127 176 217 266 328 391
#     4  10  21  36  62  93 127 160 201 263 327 377
#
# _framework density 21.777497
#
# number of rings (size 3 to 8) (size 9 to 14) (size 15 to 20)
#    0.000    1.455    5.455    0.000    0.000    1.455 
#    9.818    1.818    0.000    0.000    0.000    0.000 
#    0.000    0.000    0.000    0.000    0.000    0.000 
#
# Total GULP energy -122591.587310 kJ/mol
# GULP energy per Si atom -5572.344878 kJ/mol
# Density = 2.172793 g / cm^3
# Si number density = 21.777497 Si / 1000 Ang^3
#
#
#
# Elastic Constant Matrix: (Units=GPa)
#
#
# Indices 1 2 3 4 5 6 
#
# 1 138.0775 13.9601 29.6131 -0.0014 -14.5768 -0.0025
# 2 13.9601 43.5697 4.5520 0.0060 -7.6365 -0.0062
# 3 29.6131 4.5520 95.3134 0.0013 7.6673 -0.0017
# 4 -0.0014 0.0060 0.0013 14.0461 -0.0065 0.9704
# 5 -14.5768 -7.6365 7.6673 -0.0065 43.2719 -0.0063
# 6 -0.0025 -0.0062 -0.0017 0.9704 -0.0063 -8.0471
#
#
#
# Elastic Compliance Matrix: (Units=1/GPa)
#
#
# Indices 1 2 3 4 5 6 
#
# 1 0.008331 -0.001864 -0.002738 0.000003 0.002962 -0.000002
# 2 -0.001864 0.024311 -0.000889 -0.000007 0.003820 -0.000022
# 3 -0.002738 -0.000889 0.011637 -0.000002 -0.003141 0.000001
# 4 0.000003 -0.000007 -0.000002 0.070606 0.000012 0.008514
# 5 0.002962 0.003820 -0.003141 0.000012 0.025338 -0.000021
# 6 -0.000002 -0.000022 0.000001 0.008514 -0.000021 -0.123242
#
#
# Mechanical properties :
#
#
# Convention : Reuss Voigt Hill
#
# Bulk Modulus (GPa) = 30.03191 41.46788 35.74989
# Shear Modulus (GPa) = 127.99926 25.10989 76.55457
#
# Velocity S-wave (km/s) = 7.67486 3.39930 5.93543
# Velocity P-wave (km/s) = 9.61032 5.87281 7.96393
#
# Compressibility (1/GPa) = 0.03329791
#
# Stress axis : x y z
#
# Youngs Moduli (GPa) = 120.03918 41.13295 85.92999
#
# Poissons Ratio (x) = 0.07667 0.23524
# Poissons Ratio (y) = 0.22375 0.07641
# Poissons Ratio (z) = 0.32861 0.03658
#
# Static dielectric constant tensor:
#      x y z
#    x 1.885640 -0.000010 -0.011030 
#    y -0.000010 1.833930 -0.000020 
#    z -0.011030 -0.000020 1.826180 
# 
# From -- ./inp_files/47209.got.cif
#   From: 2010.05.17/outbox.cif.g08.bks.cpg/sg15_24_cif.got.tgz:47209.got - 2010.06.03 18:47:42.
