data_PCOD9265992
_publ_section_title
;
Structure prediction by ZEFSAII (Michael W. Deem and Ramdas Pophale) SiO2 
 PCOD9265992
Probable space group: C 2/C
;
_chemical_formula_sum "Si O2"
_cell_formula_units_Z 64
_cell_length_a 25.817550
_cell_length_b 11.643545
_cell_length_c 16.358574
_cell_angle_alpha 90.000000
_cell_angle_beta 145.679381
_cell_angle_gamma 90.000000
_cell_volume 2772.609550
_symmetry_space_group_name_H-M "C 2/C"
_symmetry_group_IT_number 15
_symmetry_cell_setting 'monoclinic'
loop_
_space_group_symop_operation_xyz
x,y,z
-x,y,1/2-z
-x,-y,-z
x,-y,1/2+z
1/2+x,1/2+y,z
1/2-x,1/2+y,1/2-z
1/2-x,1/2-y,-z
1/2+x,1/2-y,1/2+z
loop_
_atom_site_type_symbol
_atom_site_label
_atom_site_fract_x
_atom_site_fract_y
_atom_site_fract_z
Si Si1 0.387382 0.088266 0.295731
Si Si2 0.403252 0.052439 0.972802
Si Si3 0.667789 0.434453 0.760425
Si Si4 0.631624 0.955816 0.401065
Si Si5 0.130692 0.193218 0.061988
Si Si6 0.587483 0.654234 0.688472
Si Si7 0.609992 0.533060 0.887536
Si Si8 0.353326 0.706172 0.120460
O O1 0.498293 0.085034 0.436316
O O2 0.365959 0.223816 0.268323
O O3 0.359108 0.023836 0.342728
O O4 0.363810 0.025963 0.178646
O O5 0.352882 0.172115 0.925082
O O6 0.420464 0.999637 0.085294
O O7 0.688249 0.355155 0.711029
O O8 0.614632 0.549448 0.664522
O O9 0.610823 0.354811 0.749977
O O10 0.764035 0.459486 0.928978
O O11 0.599978 0.825133 0.342134
O O12 0.147749 0.117098 0.005174
O O13 0.022144 0.171455 0.943464
O O14 0.624538 0.599333 0.821340
O O15 0.500000 0.523134 0.750000
O O16 0.646441 0.402831 0.939483
O O17 0.250000 0.750000 0.000000
#
# Coordination Sequence:
#
# PCOD9265992 Si02
#       8
#     8   8   8   8   8   8   8   8
#     4  10  21  39  63  84 122 160 193 257 297 356
#     4  10  22  39  60  91 115 158 211 237 304 363
#     4  10  21  38  56  87 115 155 196 240 311 356
#     4  11  22  39  57  88 121 159 197 241 305 368
#     4  10  19  37  59  83 116 151 196 255 286 353
#     4   9  19  37  60  83 113 151 200 243 302 351
#     4   9  18  33  58  87 108 147 200 245 292 347
#     4   9  20  38  56  76 119 156 188 236 303 362
#
# _framework density 23.082947999999998
#
# number of rings (size 3 to 8) (size 9 to 14) (size 15 to 20)
#    0.000    2.250    0.000    2.250    0.000    4.500 
#   13.500    2.500    0.000    0.000    0.000    0.000 
#    0.000    0.000    0.000    0.000    0.000    0.000 
#
# Total GULP energy -178514.928355 kJ/mol
# GULP energy per Si atom -5578.591511 kJ/mol
# Density = 2.303041 g / cm^3
# Si number density = 23.082948 Si / 1000 Ang^3
#
#
#
# Elastic Constant Matrix: (Units=GPa)
#
#
# Indices 1 2 3 4 5 6 
#
# 1 46.7314 48.7483 4.9922 0.0000 -17.6396 0.0000
# 2 48.7483 223.2599 39.9495 0.0000 -30.9321 0.0000
# 3 4.9922 39.9495 60.0072 0.0000 -16.4370 0.0000
# 4 0.0000 0.0000 0.0000 21.4929 0.0000 -5.6497
# 5 -17.6396 -30.9321 -16.4370 0.0000 35.1652 0.0000
# 6 0.0000 0.0000 0.0000 -5.6497 0.0000 30.2373
#
#
#
# Elastic Compliance Matrix: (Units=1/GPa)
#
#
# Indices 1 2 3 4 5 6 
#
# 1 0.032176 -0.006101 0.004972 0.000000 0.013098 0.000000
# 2 -0.006101 0.006602 -0.003596 0.000000 0.001067 0.000000
# 3 0.004972 -0.003596 0.021173 0.000000 0.009228 0.000000
# 4 0.000000 0.000000 0.000000 0.048930 0.000000 0.009142
# 5 0.013098 0.001067 0.009228 0.000000 0.040259 0.000000
# 6 0.000000 0.000000 0.000000 0.009142 0.000000 0.034780
#
#
# Mechanical properties :
#
#
# Convention : Reuss Voigt Hill
#
# Bulk Modulus (GPa) = 19.80092 57.48649 38.64370
# Shear Modulus (GPa) = 23.78667 33.13298 28.45983
#
# Velocity S-wave (km/s) = 3.21360 3.79276 3.51513
# Velocity P-wave (km/s) = 4.72932 6.64368 5.76649
#
# Compressibility (1/GPa) = 0.05050271
#
# Stress axis : x y z
#
# Youngs Moduli (GPa) = 31.07944 151.46215 47.23100
#
# Poissons Ratio (x) = 0.92400 -0.23485
# Poissons Ratio (y) = 0.18960 0.16983
# Poissons Ratio (z) = -0.15454 0.54462
#
# Static dielectric constant tensor:
#      x y z
#    x 2.060410 0.000000 0.015400 
#    y 0.000000 1.885490 0.000000 
#    z 0.015400 0.000000 1.875980 
# 
# From -- ./inp_files/177866.got.cif
#   From: 2010.05.17/outbox.cif.g08.bks.cpg/sg15_89_cif.got.tgz:177866.got - 2010.06.03 18:47:42.
