data_PCOD9265364
_publ_section_title
;
Structure prediction by ZEFSAII (Michael W. Deem and Ramdas Pophale) SiO2 
 PCOD9265364
Probable space group: C 2/C
;
_chemical_formula_sum "Si O2"
_cell_formula_units_Z 52
_cell_length_a 14.377655
_cell_length_b 8.378965
_cell_length_c 27.745891
_cell_angle_alpha 90.000000
_cell_angle_beta 143.938127
_cell_angle_gamma 90.000000
_cell_volume 1967.617025
_symmetry_space_group_name_H-M "C 2/C"
_symmetry_group_IT_number 15
_symmetry_cell_setting 'monoclinic'
loop_
_space_group_symop_operation_xyz
x,y,z
-x,y,1/2-z
-x,-y,-z
x,-y,1/2+z
1/2+x,1/2+y,z
1/2-x,1/2+y,1/2-z
1/2-x,1/2-y,-z
1/2+x,1/2-y,1/2+z
loop_
_atom_site_type_symbol
_atom_site_label
_atom_site_fract_x
_atom_site_fract_y
_atom_site_fract_z
Si Si1 0.500000 0.598159 0.250000
Si Si2 0.107521 0.252325 0.176309
Si Si3 0.304459 0.221028 0.933492
Si Si4 0.953670 0.805529 0.295207
Si Si5 0.999092 0.478505 0.060731
Si Si6 0.761326 0.227803 0.844888
Si Si7 0.477311 0.549682 0.574405
O O1 0.427060 0.477683 0.258723
O O2 0.366974 0.711305 0.171334
O O3 0.282084 0.224861 0.224873
O O4 0.025411 0.415067 0.124853
O O5 0.161107 0.274718 0.253692
O O6 0.989160 0.118992 0.105684
O O7 0.121680 0.245805 0.842436
O O8 0.426442 0.164198 0.941856
O O9 0.350029 0.372195 0.985701
O O10 0.330715 0.057276 0.976944
O O11 0.998822 0.831871 0.370101
O O12 0.113947 0.628760 0.102413
O O13 0.862287 0.069426 0.890579
#
# Coordination Sequence:
#
# PCOD9265364 Si02
#       7
#     4   8   8   8   8   8   8
#     4  12  18  36  64  90 108 158 222 258 272 372
#     4  11  20  37  61  92 122 158 200 263 315 354
#     4  10  21  38  61  88 123 168 211 244 299 383
#     4  11  20  36  64  90 117 163 217 249 294 376
#     4  10  20  37  62  88 120 166 207 243 305 376
#     4  10  19  36  60  87 115 159 208 252 296 364
#     4  10  22  36  57  90 129 160 192 261 324 358
#
# _framework density 26.427907000000001
#
# number of rings (size 3 to 8) (size 9 to 14) (size 15 to 20)
#    0.000    1.538    4.615    1.385    0.000    0.615 
#    0.000    3.077    3.385    0.000    0.000    0.000 
#    0.000    0.000    0.000    0.000    0.000    0.000 
#
# Total GULP energy -144828.357641 kJ/mol
# GULP energy per Si atom -5570.321448 kJ/mol
# Density = 2.636776 g / cm^3
# Si number density = 26.427907 Si / 1000 Ang^3
#
#
#
# Elastic Constant Matrix: (Units=GPa)
#
#
# Indices 1 2 3 4 5 6 
#
# 1 46.4646 -9.1590 3.5174 0.0000 3.7595 0.0000
# 2 -9.1590 19.5660 26.0997 0.0000 2.7455 0.0000
# 3 3.5174 26.0997 117.6324 0.0000 -2.2421 0.0000
# 4 0.0000 0.0000 0.0000 44.8075 0.0000 1.1527
# 5 3.7595 2.7455 -2.2421 0.0000 44.9791 0.0000
# 6 0.0000 0.0000 0.0000 1.1527 0.0000 24.7137
#
#
#
# Elastic Compliance Matrix: (Units=1/GPa)
#
#
# Indices 1 2 3 4 5 6 
#
# 1 0.026091 0.019684 -0.005217 0.000000 -0.003642 0.000000
# 2 0.019684 0.088699 -0.020423 0.000000 -0.008077 0.000000
# 3 -0.005217 -0.020423 0.013233 0.000000 0.002342 0.000000
# 4 0.000000 0.000000 0.000000 0.022344 0.000000 -0.001042
# 5 -0.003642 -0.008077 0.002342 0.000000 0.023147 0.000000
# 6 0.000000 0.000000 0.000000 -0.001042 0.000000 0.040512
#
#
# Mechanical properties :
#
#
# Convention : Reuss Voigt Hill
#
# Bulk Modulus (GPa) = 8.61243 24.95323 16.78283
# Shear Modulus (GPa) = 18.89347 33.78039 26.33693
#
# Velocity S-wave (km/s) = 2.67667 3.57908 3.16025
# Velocity P-wave (km/s) = 3.58032 5.15192 4.43627
#
# Compressibility (1/GPa) = 0.11611128
#
# Stress axis : x y z
#
# Youngs Moduli (GPa) = 38.32685 11.27413 75.56900
#
# Poissons Ratio (x) = -0.22192 0.39423
# Poissons Ratio (y) = -0.75441 1.54331
# Poissons Ratio (z) = 0.19995 0.23025
#
# Static dielectric constant tensor:
#      x y z
#    x 2.329640 0.000000 0.006960 
#    y 0.000000 2.085030 0.000000 
#    z 0.006960 0.000000 2.105810 
# 
# From -- ./inp_files/313229.got.cif
#   From: 2010.05.17/outbox.cif.g08.bks.cpg/sg15_157_cif.got.tgz:313229.got - 2010.06.03 18:47:42.
