data_PCOD9265346
_publ_section_title
;
Structure prediction by ZEFSAII (Michael W. Deem and Ramdas Pophale) SiO2 
 PCOD9265346
Probable space group: C 2/C
;
_chemical_formula_sum "Si O2"
_cell_formula_units_Z 40
_cell_length_a 22.699302
_cell_length_b 11.842164
_cell_length_c 10.262904
_cell_angle_alpha 90.000000
_cell_angle_beta 142.725467
_cell_angle_gamma 90.000000
_cell_volume 1670.800660
_symmetry_space_group_name_H-M "C 2/C"
_symmetry_group_IT_number 15
_symmetry_cell_setting 'monoclinic'
loop_
_space_group_symop_operation_xyz
x,y,z
-x,y,1/2-z
-x,-y,-z
x,-y,1/2+z
1/2+x,1/2+y,z
1/2-x,1/2+y,1/2-z
1/2-x,1/2-y,-z
1/2+x,1/2-y,1/2+z
loop_
_atom_site_type_symbol
_atom_site_label
_atom_site_fract_x
_atom_site_fract_y
_atom_site_fract_z
Si Si1 0.500000 0.726918 0.750000
Si Si2 0.641195 0.695104 0.207137
Si Si3 0.822445 0.801631 0.429665
Si Si4 0.601049 0.053164 0.718659
Si Si5 0.805747 0.347177 0.520184
Si Si6 0.500000 0.818580 0.250000
O O1 0.444465 0.655910 0.539042
O O2 0.412126 0.800968 0.660362
O O3 0.746035 0.698254 0.322683
O O4 0.650091 0.657687 0.374186
O O5 0.622347 0.831166 0.183196
O O6 0.923914 0.762336 0.542377
O O7 0.762793 0.877361 0.223777
O O8 0.679217 0.955846 0.863313
O O9 0.500000 0.000000 0.500000
O O10 0.574466 0.099131 0.813151
O O11 0.750000 0.250000 0.500000
#
# Coordination Sequence:
#
# PCOD9265346 Si02
#       6
#     4   8   8   8   8   4
#     4  10  19  36  60  85 124 154 208 257 310 358
#     4   9  19  36  57  86 118 165 197 262 311 367
#     4   9  20  36  56  85 126 157 199 253 319 365
#     4  11  20  32  58  90 120 151 209 260 306 359
#     4  11  22  36  55  94 129 164 201 262 317 372
#     4  10  21  36  60  91 112 158 206 259 302 370
#
# _framework density 23.940618000000001
#
# number of rings (size 3 to 8) (size 9 to 14) (size 15 to 20)
#    0.000    2.000    2.000    1.800    5.600    0.000 
#    0.000    0.000    0.000    2.400    0.000    0.000 
#    0.000    0.000    0.000    0.000    0.000    0.000 
#
# Total GULP energy -111406.809537 kJ/mol
# GULP energy per Si atom -5570.340477 kJ/mol
# Density = 2.388613 g / cm^3
# Si number density = 23.940618 Si / 1000 Ang^3
#
#
#
# Elastic Constant Matrix: (Units=GPa)
#
#
# Indices 1 2 3 4 5 6 
#
# 1 59.0267 25.4892 17.7142 0.0000 9.3052 0.0000
# 2 25.4892 35.5157 30.0536 0.0000 17.4403 0.0000
# 3 17.7142 30.0536 206.2874 0.0000 -9.0375 0.0000
# 4 0.0000 0.0000 0.0000 32.4646 0.0000 5.6134
# 5 9.3052 17.4403 -9.0375 0.0000 48.2461 0.0000
# 6 0.0000 0.0000 0.0000 5.6134 0.0000 16.7736
#
#
#
# Elastic Compliance Matrix: (Units=1/GPa)
#
#
# Indices 1 2 3 4 5 6 
#
# 1 0.024831 -0.019790 0.000862 0.000000 0.002526 0.000000
# 2 -0.019790 0.057817 -0.007534 0.000000 -0.018494 0.000000
# 3 0.000862 -0.007534 0.006033 0.000000 0.003687 0.000000
# 4 0.000000 0.000000 0.000000 0.032695 0.000000 -0.010942
# 5 0.002526 -0.018494 0.003687 0.000000 0.027616 0.000000
# 6 0.000000 0.000000 0.000000 -0.010942 0.000000 0.063279
#
#
# Mechanical properties :
#
#
# Convention : Reuss Voigt Hill
#
# Bulk Modulus (GPa) = 27.96810 49.70487 38.83649
# Shear Modulus (GPa) = 18.04309 34.66837 26.35573
#
# Velocity S-wave (km/s) = 2.74827 3.80952 3.32155
# Velocity P-wave (km/s) = 4.66672 6.33693 5.56484
#
# Compressibility (1/GPa) = 0.03575503
#
# Stress axis : x y z
#
# Youngs Moduli (GPa) = 40.27286 17.29589 165.76084
#
# Poissons Ratio (x) = 0.34229 -0.14283
# Poissons Ratio (y) = 0.79701 1.24886
# Poissons Ratio (z) = -0.03470 0.13031
#
# Static dielectric constant tensor:
#      x y z
#    x 2.170630 0.000000 0.095820 
#    y 0.000000 2.157100 0.000000 
#    z 0.095820 0.000000 2.270520 
# 
# From -- ./inp_files/95381.got.cif
#   From: 2010.05.17/outbox.cif.g08.bks.cpg/sg15_48_cif.got.tgz:95381.got - 2010.06.03 18:47:42.
