data_PCOD9265319
_publ_section_title
;
Structure prediction by ZEFSAII (Michael W. Deem and Ramdas Pophale) SiO2 
 PCOD9265319
Probable space group: C 2/C
;
_chemical_formula_sum "Si O2"
_cell_formula_units_Z 52
_cell_length_a 22.536517
_cell_length_b 5.623025
_cell_length_c 22.795719
_cell_angle_alpha 90.000000
_cell_angle_beta 71.780324
_cell_angle_gamma 90.000000
_cell_volume 2743.922691
_symmetry_space_group_name_H-M "C 2/C"
_symmetry_group_IT_number 15
_symmetry_cell_setting 'monoclinic'
loop_
_space_group_symop_operation_xyz
x,y,z
-x,y,1/2-z
-x,-y,-z
x,-y,1/2+z
1/2+x,1/2+y,z
1/2-x,1/2+y,1/2-z
1/2-x,1/2-y,-z
1/2+x,1/2-y,1/2+z
loop_
_atom_site_type_symbol
_atom_site_label
_atom_site_fract_x
_atom_site_fract_y
_atom_site_fract_z
Si Si1 0.500000 0.675465 0.750000
Si Si2 0.954657 0.886915 0.657121
Si Si3 0.948657 0.514660 0.856645
Si Si4 0.935362 0.140263 0.949312
Si Si5 0.863473 0.881062 0.584496
Si Si6 0.302444 0.119648 0.062006
Si Si7 0.836622 0.190467 0.424930
O O1 0.458976 0.531651 0.715823
O O2 0.452159 0.821541 0.805077
O O3 0.890718 0.876151 0.641633
O O4 0.983990 0.636360 0.665732
O O5 0.007248 0.997468 0.596806
O O6 0.944137 0.403969 0.922866
O O7 0.889229 0.683805 0.869270
O O8 0.871812 0.039124 0.939934
O O9 0.922737 0.120487 0.021540
O O10 0.827625 0.633206 0.579369
O O11 0.828923 0.134582 0.583072
O O12 0.227418 0.128768 0.087090
O O13 0.320103 0.148403 0.987305
#
# Coordination Sequence:
#
# PCOD9265319 Si02
#       7
#     4   8   8   8   8   8   8
#     4  10  22  38  58  86 100 152 204 260 304 344
#     4  10  22  36  55  86 114 152 197 251 302 356
#     4  10  19  36  60  82 112 150 200 250 296 345
#     4   9  19  33  55  87 118 158 190 232 298 356
#     4  11  22  36  55  91 127 160 187 238 299 370
#     4  10  22  34  58  88 129 164 191 228 292 360
#     4   9  19  35  55  88 122 157 199 231 279 365
#
# _framework density 18.950972
#
# number of rings (size 3 to 8) (size 9 to 14) (size 15 to 20)
#    0.000    2.154    1.538    0.923    6.462    2.462 
#    0.000    0.000    0.000    0.000   16.000    0.000 
#    0.000    0.000    0.000    0.000    0.000    0.000 
#
# Total GULP energy -144811.122822 kJ/mol
# GULP energy per Si atom -5569.658570 kJ/mol
# Density = 1.890784 g / cm^3
# Si number density = 18.950972 Si / 1000 Ang^3
#
#
#
# Elastic Constant Matrix: (Units=GPa)
#
#
# Indices 1 2 3 4 5 6 
#
# 1 80.9560 30.0282 29.6585 -0.0031 28.8239 -0.0073
# 2 30.0282 83.6839 24.8062 -0.0034 22.0358 -0.0101
# 3 29.6585 24.8062 73.1512 -0.0007 29.3711 -0.0017
# 4 -0.0031 -0.0034 -0.0007 21.5740 -0.0003 -9.6489
# 5 28.8239 22.0358 29.3711 -0.0003 23.0728 0.0006
# 6 -0.0073 -0.0101 -0.0017 -9.6489 0.0006 -34.1259
#
#
#
# Elastic Compliance Matrix: (Units=1/GPa)
#
#
# Indices 1 2 3 4 5 6 
#
# 1 0.022984 -0.000686 0.004458 0.000000 -0.033732 -0.000006
# 2 -0.000686 0.016060 0.001322 0.000000 -0.016164 -0.000005
# 3 0.004458 0.001322 0.028959 0.000000 -0.043696 -0.000003
# 4 0.000000 0.000000 0.000000 0.041149 0.000000 -0.011635
# 5 -0.033732 -0.016164 -0.043696 0.000000 0.156543 0.000017
# 6 -0.000006 -0.000005 -0.000003 -0.011635 0.000017 -0.026014
#
#
# Mechanical properties :
#
#
# Convention : Reuss Voigt Hill
#
# Bulk Modulus (GPa) = 12.78917 45.19744 28.99331
# Shear Modulus (GPa) = 19.56508 12.32404 15.94456
#
# Velocity S-wave (km/s) = 3.21659 2.55289 2.90376
# Velocity P-wave (km/s) = 4.53415 5.70886 5.15507
#
# Compressibility (1/GPa) = 0.07819113
#
# Stress axis : x y z
#
# Youngs Moduli (GPa) = 43.50866 62.26460 34.53165
#
# Poissons Ratio (x) = 0.04273 -0.15394
# Poissons Ratio (y) = 0.02986 -0.04566
# Poissons Ratio (z) = -0.19396 -0.08232
#
# Static dielectric constant tensor:
#      x y z
#    x 1.646060 0.000000 -0.005420 
#    y 0.000000 1.748540 0.000000 
#    z -0.005420 0.000000 1.681170 
# 
# From -- ./inp_files/251032.got.cif
#   From: 2010.05.17/outbox.cif.g08.bks.cpg/sg15_126_cif.got.tgz:251032.got - 2010.06.03 18:47:42.
