data_PCOD9265065
_publ_section_title
;
Structure prediction by ZEFSAII (Michael W. Deem and Ramdas Pophale) SiO2 
 PCOD9265065
Probable space group: C 2/C
;
_chemical_formula_sum "Si O2"
_cell_formula_units_Z 48
_cell_length_a 10.459965
_cell_length_b 20.941770
_cell_length_c 13.696538
_cell_angle_alpha 90.000000
_cell_angle_beta 57.890994
_cell_angle_gamma 90.000000
_cell_volume 2541.309233
_symmetry_space_group_name_H-M "C 2/C"
_symmetry_group_IT_number 15
_symmetry_cell_setting 'monoclinic'
loop_
_space_group_symop_operation_xyz
x,y,z
-x,y,1/2-z
-x,-y,-z
x,-y,1/2+z
1/2+x,1/2+y,z
1/2-x,1/2+y,1/2-z
1/2-x,1/2-y,-z
1/2+x,1/2-y,1/2+z
loop_
_atom_site_type_symbol
_atom_site_label
_atom_site_fract_x
_atom_site_fract_y
_atom_site_fract_z
Si Si1 0.558544 0.404140 0.917030
Si Si2 0.655653 0.292467 0.463943
Si Si3 0.170692 0.679695 0.147849
Si Si4 0.437852 0.457617 0.168660
Si Si5 0.857073 0.620489 0.743753
Si Si6 0.378987 0.202789 0.549147
O O1 0.433907 0.350006 0.946153
O O2 0.721750 0.371816 0.845489
O O3 0.547141 0.466946 0.856617
O O4 0.526350 0.424344 0.042909
O O5 0.750000 0.250000 0.500000
O O6 0.766246 0.325289 0.341414
O O7 0.525003 0.247653 0.471512
O O8 0.246116 0.748830 0.134953
O O9 0.000000 0.676879 0.250000
O O10 0.171626 0.670795 0.030612
O O11 0.500000 0.439957 0.250000
O O12 0.265146 0.434344 0.227842
O O13 0.909991 0.652791 0.621796
O O14 0.000000 0.599651 0.750000
#
# Coordination Sequence:
#
# PCOD9265065 Si02
#       6
#     8   8   8   8   8   8
#     4   9  21  39  59  83 115 151 197 247 286 350
#     4  10  19  36  57  85 122 148 185 243 303 354
#     4  10  20  36  56  85 118 149 190 243 295 353
#     4  10  21  41  61  81 113 164 205 235 289 356
#     4  11  21  35  60  88 117 156 198 249 294 352
#     4  10  20  35  56  86 118 155 187 230 306 366
#
# _framework density 18.887902
#
# number of rings (size 3 to 8) (size 9 to 14) (size 15 to 20)
#    0.000    2.000    1.667    2.000    0.000    4.000 
#    9.000    0.000    0.000    6.000    0.000    0.000 
#    0.000    0.000    0.000    0.000    0.000    0.000 
#
# Total GULP energy -133988.611014 kJ/mol
# GULP energy per Si atom -5582.858792 kJ/mol
# Density = 1.884491 g / cm^3
# Si number density = 18.887902 Si / 1000 Ang^3
#
#
#
# Elastic Constant Matrix: (Units=GPa)
#
#
# Indices 1 2 3 4 5 6 
#
# 1 116.4051 34.4552 25.4914 0.0000 -2.6378 0.0000
# 2 34.4552 67.2361 14.7913 0.0000 4.0253 0.0000
# 3 25.4914 14.7913 35.0803 0.0000 -1.8983 0.0000
# 4 0.0000 0.0000 0.0000 11.2515 0.0000 1.2436
# 5 -2.6378 4.0253 -1.8983 0.0000 33.0857 0.0000
# 6 0.0000 0.0000 0.0000 1.2436 0.0000 19.6427
#
#
#
# Elastic Compliance Matrix: (Units=1/GPa)
#
#
# Indices 1 2 3 4 5 6 
#
# 1 0.011316 -0.004484 -0.006274 0.000000 0.001088 0.000000
# 2 -0.004484 0.018362 -0.004639 0.000000 -0.002858 0.000000
# 3 -0.006274 -0.004639 0.035133 0.000000 0.002080 0.000000
# 4 0.000000 0.000000 0.000000 0.089503 0.000000 -0.005666
# 5 0.001088 -0.002858 0.002080 0.000000 0.030778 0.000000
# 6 0.000000 0.000000 0.000000 -0.005666 0.000000 0.051268
#
#
# Mechanical properties :
#
#
# Convention : Reuss Voigt Hill
#
# Bulk Modulus (GPa) = 29.39501 40.91081 35.15291
# Shear Modulus (GPa) = 17.95368 22.39488 20.17428
#
# Velocity S-wave (km/s) = 3.08643 3.44710 3.27173
# Velocity P-wave (km/s) = 5.31959 6.12782 5.73795
#
# Compressibility (1/GPa) = 0.03401938
#
# Stress axis : x y z
#
# Youngs Moduli (GPa) = 88.36680 54.45921 28.46312
#
# Poissons Ratio (x) = 0.24420 0.17857
# Poissons Ratio (y) = 0.39625 0.13203
# Poissons Ratio (z) = 0.55438 0.25261
#
# Static dielectric constant tensor:
#      x y z
#    x 1.642820 0.000000 -0.004540 
#    y 0.000000 1.639660 0.000000 
#    z -0.004540 0.000000 1.653850 
# 
# From -- ./inp_files/79746.got.cif
#   From: 2010.05.17/outbox.cif.g08.bks.cpg/sg15_40_cif.got.tgz:79746.got - 2010.06.03 18:47:42.
