data_PCOD9265131
_publ_section_title
;
Structure prediction by ZEFSAII (Michael W. Deem and Ramdas Pophale) SiO2 
 PCOD9265131
Probable space group: C 2/C
;
_chemical_formula_sum "Si O2"
_cell_formula_units_Z 52
_cell_length_a 14.395235
_cell_length_b 14.618813
_cell_length_c 15.436599
_cell_angle_alpha 90.000000
_cell_angle_beta 113.797267
_cell_angle_gamma 90.000000
_cell_volume 2972.306416
_symmetry_space_group_name_H-M "C 2/C"
_symmetry_group_IT_number 15
_symmetry_cell_setting 'monoclinic'
loop_
_space_group_symop_operation_xyz
x,y,z
-x,y,1/2-z
-x,-y,-z
x,-y,1/2+z
1/2+x,1/2+y,z
1/2-x,1/2+y,1/2-z
1/2-x,1/2-y,-z
1/2+x,1/2-y,1/2+z
loop_
_atom_site_type_symbol
_atom_site_label
_atom_site_fract_x
_atom_site_fract_y
_atom_site_fract_z
Si Si1 0.164683 0.221901 0.582728
Si Si2 0.151674 0.890031 0.243069
Si Si3 0.000000 0.266000 0.750000
Si Si4 0.500000 0.462742 0.750000
Si Si5 0.640224 0.691703 0.377250
Si Si6 0.618341 0.057028 0.632782
Si Si7 0.992451 0.366374 0.925499
Si Si8 0.000000 0.650712 0.750000
O O1 0.167708 0.140336 0.650904
O O2 0.256809 0.291521 0.636829
O O3 0.171867 0.186184 0.488588
O O4 0.063002 0.279441 0.553733
O O5 0.261763 0.920791 0.319062
O O6 0.095886 0.801681 0.266366
O O7 0.071259 0.971669 0.220490
O O8 0.976232 0.329514 0.657760
O O9 0.425013 0.395941 0.670707
O O10 0.574695 0.782077 0.331329
O O11 0.574390 0.100786 0.527090
O O12 0.562797 0.095913 0.699490
O O13 0.585594 0.950775 0.615987
#
# Coordination Sequence:
#
# PCOD9265131 Si02
#       8
#     8   8   4   4   8   8   8   4
#     4  10  19  36  58  83 109 151 187 230 288 340
#     4  10  21  38  59  80 114 150 188 230 281 337
#     4   9  21  41  57  80 114 150 187 231 279 333
#     4  10  22  38  54  82 114 150 188 238 278 330
#     4  10  20  34  58  81 114 143 189 233 283 335
#     4  11  21  35  57  84 114 146 190 232 282 332
#     4  10  21  36  56  81 114 147 188 232 280 335
#     4  11  19  35  55  86 112 146 185 239 273 341
#
# _framework density 17.494831000000001
#
# number of rings (size 3 to 8) (size 9 to 14) (size 15 to 20)
#    0.000    1.846    3.077    1.385    0.000    1.231 
#    0.000    0.000    0.000    0.000    0.000    0.000 
#    0.000    0.000    0.000    0.000    0.000    0.000 
#
# Total GULP energy -144818.112948 kJ/mol
# GULP energy per Si atom -5569.927421 kJ/mol
# Density = 1.745501 g / cm^3
# Si number density = 17.494831 Si / 1000 Ang^3
#
#
#
# Elastic Constant Matrix: (Units=GPa)
#
#
# Indices 1 2 3 4 5 6 
#
# 1 77.9389 28.1926 47.2926 0.0000 -2.0236 0.0000
# 2 28.1926 86.4577 50.2195 0.0000 0.3243 0.0000
# 3 47.2926 50.2195 90.2933 0.0000 0.8087 0.0000
# 4 0.0000 0.0000 0.0000 24.2237 0.0000 0.3310
# 5 -2.0236 0.3243 0.8087 0.0000 26.2739 0.0000
# 6 0.0000 0.0000 0.0000 0.3310 0.0000 24.0420
#
#
#
# Elastic Compliance Matrix: (Units=1/GPa)
#
#
# Indices 1 2 3 4 5 6 
#
# 1 0.018911 -0.000607 -0.009583 0.000000 0.001759 0.000000
# 2 -0.000607 0.017106 -0.009196 0.000000 0.000025 0.000000
# 3 -0.009583 -0.009196 0.021221 0.000000 -0.001278 0.000000
# 4 0.000000 0.000000 0.000000 0.041290 0.000000 -0.000568
# 5 0.001759 0.000025 -0.001278 0.000000 0.038235 0.000000
# 6 0.000000 0.000000 0.000000 -0.000568 0.000000 0.041602
#
#
# Mechanical properties :
#
#
# Convention : Reuss Voigt Hill
#
# Bulk Modulus (GPa) = 54.15730 56.23328 55.19529
# Shear Modulus (GPa) = 22.39232 23.50694 22.94963
#
# Velocity S-wave (km/s) = 3.58151 3.66956 3.62580
# Velocity P-wave (km/s) = 6.93731 7.08285 7.01046
#
# Compressibility (1/GPa) = 0.01846473
#
# Stress axis : x y z
#
# Youngs Moduli (GPa) = 52.88041 58.45937 47.12395
#
# Poissons Ratio (x) = 0.03547 0.45159
# Poissons Ratio (y) = 0.03208 0.43337
# Poissons Ratio (z) = 0.50676 0.53762
#
# Static dielectric constant tensor:
#      x y z
#    x 1.627720 0.000000 -0.009050 
#    y 0.000000 1.589920 0.000000 
#    z -0.009050 0.000000 1.582970 
# 
# From -- ./inp_files/144196.got.cif
#   From: 2010.05.17/outbox.cif.g08.bks.cpg/sg15_73_cif.got.tgz:144196.got - 2010.06.03 18:47:42.
