data_PCOD9265235
_publ_section_title
;
Structure prediction by ZEFSAII (Michael W. Deem and Ramdas Pophale) SiO2 
 PCOD9265235
Probable space group: C 2/C
;
_chemical_formula_sum "Si O2"
_cell_formula_units_Z 48
_cell_length_a 34.205511
_cell_length_b 4.864724
_cell_length_c 13.944768
_cell_angle_alpha 90.000000
_cell_angle_beta 58.314823
_cell_angle_gamma 90.000000
_cell_volume 1974.549867
_symmetry_space_group_name_H-M "C 2/C"
_symmetry_group_IT_number 15
_symmetry_cell_setting 'monoclinic'
loop_
_space_group_symop_operation_xyz
x,y,z
-x,y,1/2-z
-x,-y,-z
x,-y,1/2+z
1/2+x,1/2+y,z
1/2-x,1/2+y,1/2-z
1/2-x,1/2-y,-z
1/2+x,1/2-y,1/2+z
loop_
_atom_site_type_symbol
_atom_site_label
_atom_site_fract_x
_atom_site_fract_y
_atom_site_fract_z
Si Si1 0.818714 0.509192 0.856645
Si Si2 0.989153 0.750168 0.083664
Si Si3 0.605143 0.269019 0.365667
Si Si4 0.161507 0.981673 0.045851
Si Si5 0.415428 0.769480 0.978440
Si Si6 0.739738 0.287994 0.323923
O O1 0.848570 0.347667 0.738963
O O2 0.809782 0.270322 0.945493
O O3 0.774055 0.638501 0.865762
O O4 0.844700 0.768066 0.871618
O O5 0.934493 0.740744 0.165244
O O6 0.029789 0.758634 0.108946
O O7 0.000000 0.500000 0.000000
O O8 0.000000 0.000000 0.000000
O O9 0.601227 0.576770 0.410889
O O10 0.593536 0.076869 0.472549
O O11 0.115489 0.837662 0.067810
O O12 0.189705 0.118145 0.922394
O O13 0.755517 0.475207 0.214201
#
# Coordination Sequence:
#
# PCOD9265235 Si02
#       6
#     8   8   8   8   8   8
#     4  12  24  39  58  87 123 155 189 244 305 355
#     4   8  16  30  55  82 107 140 190 240 276 322
#     4  10  19  36  59  84 111 151 198 239 282 344
#     4  12  24  39  58  87 123 155 189 244 305 355
#     4  10  19  36  59  84 111 151 198 239 282 344
#     4  12  24  42  64  86 112 156 206 246 286 352
#
# _framework density 24.309338
#
# number of rings (size 3 to 8) (size 9 to 14) (size 15 to 20)
#    0.000    1.333    0.000    7.000    0.000    0.000 
#    0.000    0.833    0.000    2.000    0.000    0.000 
#    0.000    0.000    0.000    0.000    0.000    0.000 
#
# Total GULP energy -134232.483658 kJ/mol
# GULP energy per Si atom -5593.020152 kJ/mol
# Density = 2.425401 g / cm^3
# Si number density = 24.309338 Si / 1000 Ang^3
#
#
#
# Elastic Constant Matrix: (Units=GPa)
#
#
# Indices 1 2 3 4 5 6 
#
# 1 123.7371 -1.0854 9.6822 0.0000 -3.7132 0.0000
# 2 -1.0854 105.6881 2.6504 0.0001 8.9150 0.0000
# 3 9.6822 2.6504 57.6989 0.0000 9.3062 0.0000
# 4 0.0000 0.0001 0.0000 33.8094 0.0000 9.3618
# 5 -3.7132 8.9150 9.3062 0.0000 17.4114 0.0000
# 6 0.0000 0.0000 0.0000 9.3618 0.0000 38.6515
#
#
#
# Elastic Compliance Matrix: (Units=1/GPa)
#
#
# Indices 1 2 3 4 5 6 
#
# 1 0.008309 -0.000106 -0.001843 0.000000 0.002811 0.000000
# 2 -0.000106 0.009899 0.000420 0.000000 -0.005315 0.000000
# 3 -0.001843 0.000420 0.019391 0.000000 -0.010972 0.000000
# 4 0.000000 0.000000 0.000000 0.031704 0.000000 -0.007679
# 5 0.002811 -0.005315 -0.010972 0.000000 0.066619 0.000000
# 6 0.000000 0.000000 0.000000 -0.007679 0.000000 0.027732
#
#
# Mechanical properties :
#
#
# Convention : Reuss Voigt Hill
#
# Bulk Modulus (GPa) = 28.94976 34.40206 31.67591
# Shear Modulus (GPa) = 28.05450 36.36627 32.21039
#
# Velocity S-wave (km/s) = 3.40084 3.87199 3.64403
# Velocity P-wave (km/s) = 5.23026 5.84570 5.54652
#
# Compressibility (1/GPa) = 0.03454260
#
# Stress axis : x y z
#
# Youngs Moduli (GPa) = 120.34731 101.02489 51.57026
#
# Poissons Ratio (x) = 0.01067 0.09504
# Poissons Ratio (y) = 0.01271 -0.02168
# Poissons Ratio (z) = 0.22179 -0.04246
#
# Static dielectric constant tensor:
#      x y z
#    x 2.025780 0.000000 0.016690 
#    y 0.000000 1.844910 0.000000 
#    z 0.016690 0.000000 1.907890 
# 
# From -- ./inp_files/179976.got.cif
#   From: 2010.05.17/outbox.cif.g08.bks.cpg/sg15_90_cif.got.tgz:179976.got - 2010.06.03 18:47:42.
