data_PCOD9265245
_publ_section_title
;
Structure prediction by ZEFSAII (Michael W. Deem and Ramdas Pophale) SiO2 
 PCOD9265245
Probable space group: C 2/C
;
_chemical_formula_sum "Si O2"
_cell_formula_units_Z 48
_cell_length_a 19.300034
_cell_length_b 7.067559
_cell_length_c 18.377951
_cell_angle_alpha 90.000000
_cell_angle_beta 119.572441
_cell_angle_gamma 90.000000
_cell_volume 2180.269911
_symmetry_space_group_name_H-M "C 2/C"
_symmetry_group_IT_number 15
_symmetry_cell_setting 'monoclinic'
loop_
_space_group_symop_operation_xyz
x,y,z
-x,y,1/2-z
-x,-y,-z
x,-y,1/2+z
1/2+x,1/2+y,z
1/2-x,1/2+y,1/2-z
1/2-x,1/2-y,-z
1/2+x,1/2-y,1/2+z
loop_
_atom_site_type_symbol
_atom_site_label
_atom_site_fract_x
_atom_site_fract_y
_atom_site_fract_z
Si Si1 0.358840 0.236465 0.833163
Si Si2 0.755792 0.834460 0.421240
Si Si3 0.925188 0.961937 0.164717
Si Si4 0.207523 0.022654 0.801684
Si Si5 0.418793 0.424425 0.993877
Si Si6 0.912659 0.600473 0.710523
O O1 0.271327 0.158346 0.800814
O O2 0.350020 0.442932 0.791408
O O3 0.398699 0.246884 0.932157
O O4 0.401274 0.122321 0.791447
O O5 0.750000 0.750000 0.500000
O O6 0.748995 0.659674 0.361041
O O7 0.674966 0.956897 0.364564
O O8 0.838488 0.944923 0.451667
O O9 0.845823 0.889809 0.162631
O O10 0.000000 0.902945 0.250000
O O11 0.920989 0.192322 0.173998
O O12 0.932630 0.898295 0.086313
O O13 0.500000 0.500000 0.000000
O O14 0.000000 0.509655 0.750000
#
# Coordination Sequence:
#
# PCOD9265245 Si02
#       6
#     8   8   8   8   8   8
#     4  10  21  34  59  87 115 161 195 257 300 361
#     4  10  19  36  59  85 114 160 201 250 298 366
#     4   9  18  33  54  81 114 153 194 250 291 352
#     4  10  20  38  57  84 125 153 205 243 309 360
#     4  12  21  35  62  91 116 156 214 249 302 367
#     4   9  17  33  56  80 115 153 203 240 299 359
#
# _framework density 22.015623000000001
#
# number of rings (size 3 to 8) (size 9 to 14) (size 15 to 20)
#    0.000    2.333    3.333    5.000    0.000    0.667 
#    0.000    0.833    0.000    4.000    0.000    1.167 
#    0.000    0.000    0.000    0.000    0.000    0.000 
#
# Total GULP energy -133797.420055 kJ/mol
# GULP energy per Si atom -5574.892502 kJ/mol
# Density = 2.196551 g / cm^3
# Si number density = 22.015623 Si / 1000 Ang^3
#
#
#
# Elastic Constant Matrix: (Units=GPa)
#
#
# Indices 1 2 3 4 5 6 
#
# 1 196.7669 10.4224 68.8881 0.0000 3.5612 0.0000
# 2 10.4224 30.8692 14.4018 -0.0001 4.0634 -0.0001
# 3 68.8881 14.4018 164.1088 0.0000 -16.9875 0.0000
# 4 0.0000 -0.0001 0.0000 58.4373 0.0000 60.6714
# 5 3.5612 4.0634 -16.9875 0.0000 52.9938 0.0000
# 6 0.0000 -0.0001 0.0000 60.6714 0.0000 87.2377
#
#
#
# Elastic Compliance Matrix: (Units=1/GPa)
#
#
# Indices 1 2 3 4 5 6 
#
# 1 0.006051 -0.000671 -0.002604 0.000000 -0.001190 0.000000
# 2 -0.000671 0.034553 -0.003124 0.000000 -0.003606 0.000000
# 3 -0.002604 -0.003124 0.007761 0.000000 0.002902 0.000000
# 4 0.000000 0.000000 0.000000 0.061569 0.000000 -0.042819
# 5 -0.001190 -0.003606 0.002902 0.000000 0.020157 0.000000
# 6 0.000000 0.000000 0.000000 -0.042819 0.000000 0.041243
#
#
# Mechanical properties :
#
#
# Convention : Reuss Voigt Hill
#
# Bulk Modulus (GPa) = 28.11601 64.35216 46.23408
# Shear Modulus (GPa) = 25.51172 59.60260 42.55716
#
# Velocity S-wave (km/s) = 3.40781 5.20880 4.40141
# Velocity P-wave (km/s) = 5.31816 8.09130 6.84661
#
# Compressibility (1/GPa) = 0.03556693
#
# Stress axis : x y z
#
# Youngs Moduli (GPa) = 165.26134 28.94071 128.84424
#
# Poissons Ratio (x) = 0.01943 0.33555
# Poissons Ratio (y) = 0.11095 0.40248
# Poissons Ratio (z) = 0.43039 0.09040
#
# Static dielectric constant tensor:
#      x y z
#    x 1.830310 0.000000 0.065780 
#    y 0.000000 1.899160 0.000000 
#    z 0.065780 0.000000 1.861330 
# 
# From -- ./inp_files/209272.got.cif
#   From: 2010.05.17/outbox.cif.g08.bks.cpg/sg15_105_cif.got.tgz:209272.got - 2010.06.03 18:47:42.
