data_PCOD9265202
_publ_section_title
;
Structure prediction by ZEFSAII (Michael W. Deem and Ramdas Pophale) SiO2 
 PCOD9265202
Probable space group: C 2/C
;
_chemical_formula_sum "Si O2"
_cell_formula_units_Z 48
_cell_length_a 23.858319
_cell_length_b 10.980354
_cell_length_c 25.217389
_cell_angle_alpha 90.000000
_cell_angle_beta 19.978452
_cell_angle_gamma 90.000000
_cell_volume 2257.142480
_symmetry_space_group_name_H-M "C 2/C"
_symmetry_group_IT_number 15
_symmetry_cell_setting 'monoclinic'
loop_
_space_group_symop_operation_xyz
x,y,z
-x,y,1/2-z
-x,-y,-z
x,-y,1/2+z
1/2+x,1/2+y,z
1/2-x,1/2+y,1/2-z
1/2-x,1/2-y,-z
1/2+x,1/2-y,1/2+z
loop_
_atom_site_type_symbol
_atom_site_label
_atom_site_fract_x
_atom_site_fract_y
_atom_site_fract_z
Si Si1 0.582041 0.379913 0.360818
Si Si2 0.821421 0.194299 0.006418
Si Si3 0.000000 0.918984 0.250000
Si Si4 0.310752 0.104707 0.130028
Si Si5 0.187309 0.485959 0.482543
Si Si6 0.617794 0.254157 0.878007
Si Si7 0.000000 0.435004 0.750000
O O1 0.441408 0.371316 0.441591
O O2 0.702507 0.494123 0.249322
O O3 0.487030 0.359443 0.500417
O O4 0.716337 0.270876 0.236183
O O5 0.825208 0.338517 0.016142
O O6 0.640344 0.137863 0.159141
O O7 0.900080 0.164472 0.879402
O O8 0.121967 0.001306 0.174531
O O9 0.188989 0.215104 0.256377
O O10 0.348349 0.066952 0.036398
O O11 0.489259 0.142718 0.993338
O O12 0.090354 0.508837 0.623076
#
# Coordination Sequence:
#
# PCOD9265202 Si02
#       7
#     8   8   4   8   8   8   4
#     4  11  22  40  66  96 125 171 201 252 318 376
#     4  11  20  35  59  98 137 163 195 250 312 393
#     4  10  19  36  58  95 138 155 196 254 312 385
#     4  11  23  45  65  89 122 174 207 265 312 368
#     4  11  20  36  62  93 128 168 201 244 329 370
#     4  10  25  44  63  91 132 156 222 262 299 365
#     4  10  23  36  58  99 138 161 196 266 306 387
#
# _framework density 21.265826000000001
#
# number of rings (size 3 to 8) (size 9 to 14) (size 15 to 20)
#    0.000    1.333    1.667    6.000    2.333    1.333 
#    6.000    0.000    0.000    3.000    0.000    0.000 
#    0.000    0.000    0.000    0.000    0.000    0.000 
#
# Total GULP energy -133675.021267 kJ/mol
# GULP energy per Si atom -5569.792553 kJ/mol
# Density = 2.121742 g / cm^3
# Si number density = 21.265826 Si / 1000 Ang^3
#
#
#
# Elastic Constant Matrix: (Units=GPa)
#
#
# Indices 1 2 3 4 5 6 
#
# 1 96.8840 25.5679 50.2513 0.0000 -4.7752 0.0003
# 2 25.5679 34.9551 25.7262 0.0019 -7.0245 0.0003
# 3 50.2513 25.7262 133.6071 0.0065 -11.6310 -0.0011
# 4 0.0000 0.0019 0.0065 23.1892 -0.0004 14.9469
# 5 -4.7752 -7.0245 -11.6310 -0.0004 47.3832 0.0004
# 6 0.0003 0.0003 -0.0011 14.9469 0.0004 25.4383
#
#
#
# Elastic Compliance Matrix: (Units=1/GPa)
#
#
# Indices 1 2 3 4 5 6 
#
# 1 0.014396 -0.007733 -0.003984 0.000003 -0.000674 -0.000002
# 2 -0.007733 0.038043 -0.004081 -0.000003 0.003859 0.000001
# 3 -0.003984 -0.004081 0.009893 -0.000004 0.001422 0.000003
# 4 0.000003 -0.000003 -0.000004 0.069411 0.000000 -0.040784
# 5 -0.000674 0.003859 0.001422 0.000000 0.021958 0.000000
# 6 -0.000002 0.000001 0.000003 -0.040784 0.000000 0.063274
#
#
# Mechanical properties :
#
#
# Convention : Reuss Voigt Hill
#
# Bulk Modulus (GPa) = 32.53526 52.05968 42.29747
# Shear Modulus (GPa) = 19.31875 30.12886 24.72380
#
# Velocity S-wave (km/s) = 3.01731 3.76809 3.41340
# Velocity P-wave (km/s) = 5.24131 6.59279 5.95551
#
# Compressibility (1/GPa) = 0.03073588
#
# Stress axis : x y z
#
# Youngs Moduli (GPa) = 69.46597 26.28586 101.08529
#
# Poissons Ratio (x) = 0.20326 0.40273
# Poissons Ratio (y) = 0.53717 0.41252
# Poissons Ratio (z) = 0.27675 0.10727
#
# Static dielectric constant tensor:
#      x y z
#    x 1.797770 0.000000 0.016540 
#    y 0.000000 1.825540 0.000000 
#    z 0.016540 0.000000 1.805380 
# 
# From -- ./inp_files/302211.got.cif
#   From: 2010.05.17/outbox.cif.g08.bks.cpg/sg15_152_cif.got.tgz:302211.got - 2010.06.03 18:47:42.
