data_PCOD9265788
_publ_section_title
;
Structure prediction by ZEFSAII (Michael W. Deem and Ramdas Pophale) SiO2 
 PCOD9265788
Probable space group: C 2/C
;
_chemical_formula_sum "Si O2"
_cell_formula_units_Z 52
_cell_length_a 14.748542
_cell_length_b 14.001242
_cell_length_c 12.315464
_cell_angle_alpha 90.000000
_cell_angle_beta 123.493318
_cell_angle_gamma 90.000000
_cell_volume 2120.833329
_symmetry_space_group_name_H-M "C 2/C"
_symmetry_group_IT_number 15
_symmetry_cell_setting 'monoclinic'
loop_
_space_group_symop_operation_xyz
x,y,z
-x,y,1/2-z
-x,-y,-z
x,-y,1/2+z
1/2+x,1/2+y,z
1/2-x,1/2+y,1/2-z
1/2-x,1/2-y,-z
1/2+x,1/2-y,1/2+z
loop_
_atom_site_type_symbol
_atom_site_label
_atom_site_fract_x
_atom_site_fract_y
_atom_site_fract_z
Si Si1 0.303859 0.820887 0.795914
Si Si2 0.124947 0.160087 0.368272
Si Si3 0.500000 0.834988 0.250000
Si Si4 0.406070 0.457841 0.094860
Si Si5 0.015919 0.226198 0.892083
Si Si6 0.781206 0.343296 0.414216
Si Si7 0.900595 0.518137 0.851642
O O1 0.216777 0.840719 0.834180
O O2 0.413952 0.762720 0.894033
O O3 0.253411 0.750520 0.674053
O O4 0.350344 0.919256 0.777757
O O5 0.099798 0.273338 0.370933
O O6 0.000000 0.144066 0.250000
O O7 0.139975 0.065192 0.453228
O O8 0.556154 0.904898 0.203101
O O9 0.500000 0.464297 0.250000
O O10 0.459607 0.381642 0.046992
O O11 0.307930 0.388619 0.067366
O O12 0.000000 0.221958 0.750000
O O13 0.107126 0.307255 0.961728
O O14 0.803740 0.429380 0.348658
O O15 0.000000 0.500000 0.000000
#
# Coordination Sequence:
#
# PCOD9265788 Si02
#       7
#     8   8   4   8   8   8   8
#     4  12  23  40  73 101 137 190 239 296 357 433
#     4   9  20  41  68  94 134 184 228 287 362 422
#     4  10  24  44  72  98 142 188 238 294 356 444
#     4  10  19  36  66  99 134 183 224 287 359 424
#     4  11  24  39  66 111 140 182 243 298 356 432
#     4  12  22  42  71 101 148 188 235 302 362 424
#     4  12  26  45  72 106 148 191 246 301 363 430
#
# _framework density 24.518664999999999
#
# number of rings (size 3 to 8) (size 9 to 14) (size 15 to 20)
#    0.462    0.615    7.692    0.462    1.077    0.000 
#    0.000    0.769    3.385   12.000    0.000    0.000 
#    0.000    0.000    0.000    0.000    0.000    0.000 
#
# Total GULP energy -144737.356173 kJ/mol
# GULP energy per Si atom -5566.821391 kJ/mol
# Density = 2.446286 g / cm^3
# Si number density = 24.518665 Si / 1000 Ang^3
#
#
#
# Elastic Constant Matrix: (Units=GPa)
#
#
# Indices 1 2 3 4 5 6 
#
# 1 133.3719 51.2317 16.2008 0.0000 14.6575 0.0000
# 2 51.2317 190.2120 21.3742 0.0000 -5.0310 0.0000
# 3 16.2008 21.3742 43.3115 0.0000 6.7231 0.0000
# 4 0.0000 0.0000 0.0000 23.5628 0.0000 21.2137
# 5 14.6575 -5.0310 6.7231 0.0000 20.6207 0.0000
# 6 0.0000 0.0000 0.0000 21.2137 0.0000 25.8478
#
#
#
# Elastic Compliance Matrix: (Units=1/GPa)
#
#
# Indices 1 2 3 4 5 6 
#
# 1 0.009392 -0.002582 -0.001164 0.000000 -0.006927 0.000000
# 2 -0.002582 0.006388 -0.002858 0.000000 0.004326 0.000000
# 3 -0.001164 -0.002858 0.026242 0.000000 -0.008426 0.000000
# 4 0.000000 0.000000 0.000000 0.162539 0.000000 -0.133398
# 5 -0.006927 0.004326 -0.008426 0.000000 0.057221 0.000000
# 6 0.000000 0.000000 0.000000 -0.133398 0.000000 0.148170
#
#
# Mechanical properties :
#
#
# Convention : Reuss Voigt Hill
#
# Bulk Modulus (GPa) = 34.70445 60.50097 47.60271
# Shear Modulus (GPa) = 11.55356 32.54550 22.04953
#
# Velocity S-wave (km/s) = 2.17310 3.64727 3.00208
# Velocity P-wave (km/s) = 4.52565 6.51658 5.61014
#
# Compressibility (1/GPa) = 0.02881475
#
# Stress axis : x y z
#
# Youngs Moduli (GPa) = 106.46998 156.53423 38.10630
#
# Poissons Ratio (x) = 0.40420 0.04434
# Poissons Ratio (y) = 0.27492 0.10892
# Poissons Ratio (z) = 0.12390 0.44742
#
# Static dielectric constant tensor:
#      x y z
#    x 1.964070 0.000000 -0.050900 
#    y 0.000000 2.055220 0.000000 
#    z -0.050900 0.000000 2.163530 
# 
# From -- ./inp_files/154088.got.cif
#   From: 2010.05.17/outbox.cif.g08.bks.cpg/sg15_78_cif.got.tgz:154088.got - 2010.06.03 18:47:42.
