data_PCOD9265888
_publ_section_title
;
Structure prediction by ZEFSAII (Michael W. Deem and Ramdas Pophale) SiO2 
 PCOD9265888
Probable space group: C 2/C
;
_chemical_formula_sum "Si O2"
_cell_formula_units_Z 52
_cell_length_a 22.207188
_cell_length_b 21.175654
_cell_length_c 8.452559
_cell_angle_alpha 90.000000
_cell_angle_beta 141.820896
_cell_angle_gamma 90.000000
_cell_volume 2456.929173
_symmetry_space_group_name_H-M "C 2/C"
_symmetry_group_IT_number 15
_symmetry_cell_setting 'monoclinic'
loop_
_space_group_symop_operation_xyz
x,y,z
-x,y,1/2-z
-x,-y,-z
x,-y,1/2+z
1/2+x,1/2+y,z
1/2-x,1/2+y,1/2-z
1/2-x,1/2-y,-z
1/2+x,1/2-y,1/2+z
loop_
_atom_site_type_symbol
_atom_site_label
_atom_site_fract_x
_atom_site_fract_y
_atom_site_fract_z
Si Si1 0.215767 0.569501 0.945469
Si Si2 0.490476 0.925578 0.959815
Si Si3 0.825345 0.815223 0.818110
Si Si4 0.709776 0.928336 0.074191
Si Si5 0.321274 0.311020 0.160906
Si Si6 0.500000 0.844929 0.250000
Si Si7 0.369968 0.735579 0.087546
O O1 0.251599 0.571901 0.837980
O O2 0.103564 0.592328 0.699947
O O3 0.273330 0.618174 0.173999
O O4 0.219608 0.498083 0.019179
O O5 0.407393 0.914860 0.658432
O O6 0.443915 0.891306 0.016559
O O7 0.500000 0.000000 0.000000
O O8 0.742264 0.760217 0.648527
O O9 0.886431 0.800304 0.786051
O O10 0.868889 0.816168 0.084919
O O11 0.760343 0.874045 0.075610
O O12 0.385009 0.299337 0.450337
O O13 0.250000 0.250000 0.000000
O O14 0.434572 0.797656 0.214156
#
# Coordination Sequence:
#
# PCOD9265888 Si02
#       7
#     8   8   8   8   8   4   8
#     4  11  21  35  54  82 120 157 200 233 284 348
#     4  10  23  31  52  76 118 163 192 230 276 340
#     4  10  19  37  57  80 112 150 192 242 287 340
#     4  11  22  34  53  84 118 158 200 234 285 346
#     4  10  20  35  56  79 110 149 192 243 287 338
#     4  12  22  40  56  84 114 158 202 242 290 350
#     4  10  21  37  59  80 109 150 195 242 294 338
#
# _framework density 21.164632000000001
#
# number of rings (size 3 to 8) (size 9 to 14) (size 15 to 20)
#    0.000    1.538    3.077    3.231    8.615    0.000 
#    0.000    0.769    0.000    0.000    0.000    1.077 
#    0.000    0.000    0.000    0.000    0.000    0.000 
#
# Total GULP energy -144899.250060 kJ/mol
# GULP energy per Si atom -5573.048079 kJ/mol
# Density = 2.111646 g / cm^3
# Si number density = 21.164632 Si / 1000 Ang^3
#
#
#
# Elastic Constant Matrix: (Units=GPa)
#
#
# Indices 1 2 3 4 5 6 
#
# 1 94.3899 52.0037 40.6565 0.0000 -44.3452 0.0000
# 2 52.0037 106.7418 45.2840 0.0000 -26.4182 0.0000
# 3 40.6565 45.2840 68.8183 0.0000 -36.1456 0.0000
# 4 0.0000 0.0000 0.0000 25.1044 0.0000 -14.8315
# 5 -44.3452 -26.4182 -36.1456 0.0000 37.5737 0.0000
# 6 0.0000 0.0000 0.0000 -14.8315 0.0000 7.7102
#
#
#
# Elastic Compliance Matrix: (Units=1/GPa)
#
#
# Indices 1 2 3 4 5 6 
#
# 1 0.028076 -0.008064 0.006358 0.000000 0.033582 0.000000
# 2 -0.008064 0.015376 -0.009448 0.000000 -0.007796 0.000000
# 3 0.006358 -0.009448 0.035260 0.000000 0.034781 0.000000
# 4 0.000000 0.000000 0.000000 -0.291905 0.000000 -0.561515
# 5 0.033582 -0.007796 0.034781 0.000000 0.094227 0.000000
# 6 0.000000 0.000000 0.000000 -0.561515 0.000000 -0.950446
#
#
# Mechanical properties :
#
#
# Convention : Reuss Voigt Hill
#
# Bulk Modulus (GPa) = 17.72937 60.64870 39.18904
# Shear Modulus (GPa) = -4.86238 22.87804 9.00783
#
# Velocity S-wave (km/s) = -1.51736 3.29136 2.06526
# Velocity P-wave (km/s) = 2.30764 6.56977 4.92378
#
# Compressibility (1/GPa) = 0.05640359
#
# Stress axis : x y z
#
# Youngs Moduli (GPa) = 35.61766 65.03588 28.36103
#
# Poissons Ratio (x) = 0.52447 -0.18033
# Poissons Ratio (y) = 0.28723 0.26796
# Poissons Ratio (z) = -0.22647 0.61447
#
# Static dielectric constant tensor:
#      x y z
#    x 1.869810 0.000000 -0.034720 
#    y 0.000000 1.729480 0.000000 
#    z -0.034720 0.000000 1.810330 
# 
# From -- ./inp_files/48582.got.cif
#   From: 2010.05.17/outbox.cif.g08.bks.cpg/sg15_25_cif.got.tgz:48582.got - 2010.06.03 18:47:42.
