data_PCOD9265731
_publ_section_title
;
Structure prediction by ZEFSAII (Michael W. Deem and Ramdas Pophale) SiO2 
 PCOD9265731
Probable space group: C 2/C
;
_chemical_formula_sum "Si O2"
_cell_formula_units_Z 52
_cell_length_a 15.789045
_cell_length_b 15.547527
_cell_length_c 15.658549
_cell_angle_alpha 90.000000
_cell_angle_beta 149.328773
_cell_angle_gamma 90.000000
_cell_volume 1960.800591
_symmetry_space_group_name_H-M "C 2/C"
_symmetry_group_IT_number 15
_symmetry_cell_setting 'monoclinic'
loop_
_space_group_symop_operation_xyz
x,y,z
-x,y,1/2-z
-x,-y,-z
x,-y,1/2+z
1/2+x,1/2+y,z
1/2-x,1/2+y,1/2-z
1/2-x,1/2-y,-z
1/2+x,1/2-y,1/2+z
loop_
_atom_site_type_symbol
_atom_site_label
_atom_site_fract_x
_atom_site_fract_y
_atom_site_fract_z
Si Si1 0.750088 0.322436 0.825055
Si Si2 0.692000 0.473825 0.658482
Si Si3 0.500000 0.334396 0.750000
Si Si4 0.397881 0.345075 0.053729
Si Si5 0.267510 0.416971 0.095229
Si Si6 0.413797 0.802964 0.442456
Si Si7 0.188550 0.429035 0.394858
O O1 0.725192 0.422702 0.775841
O O2 0.632358 0.295565 0.799608
O O3 0.717124 0.252199 0.723430
O O4 0.944135 0.316579 0.003098
O O5 0.500000 0.500000 0.500000
O O6 0.711827 0.394127 0.610380
O O7 0.790217 0.544671 0.687280
O O8 0.362423 0.380594 0.568576
O O9 0.297656 0.339087 0.054093
O O10 0.548865 0.412767 0.203429
O O11 0.458530 0.258876 0.061804
O O12 0.207251 0.492848 0.981474
O O13 0.146389 0.390543 0.066176
O O14 0.000000 0.395385 0.250000
#
# Coordination Sequence:
#
# PCOD9265731 Si02
#       7
#     8   8   4   8   8   8   8
#     4  11  25  42  69  91 131 178 221 279 329 391
#     4  10  19  39  65  94 133 169 211 275 338 395
#     4  12  26  50  66  94 136 182 226 282 336 374
#     4   9  19  33  61  96 132 179 197 263 341 394
#     4  10  19  36  64  97 136 165 209 271 331 411
#     4  11  21  42  60  98 130 169 226 262 329 402
#     4  11  23  43  69 103 132 171 224 271 341 405
#
# _framework density 26.519780999999998
#
# number of rings (size 3 to 8) (size 9 to 14) (size 15 to 20)
#    0.000    1.538    3.077    3.231    0.000    0.615 
#    8.308    1.538    0.000    0.000    0.000    0.000 
#    0.000    0.000    0.000    0.000    0.000    0.000 
#
# Total GULP energy -144870.046247 kJ/mol
# GULP energy per Si atom -5571.924856 kJ/mol
# Density = 2.645942 g / cm^3
# Si number density = 26.519781 Si / 1000 Ang^3
#
#
#
# Elastic Constant Matrix: (Units=GPa)
#
#
# Indices 1 2 3 4 5 6 
#
# 1 175.9085 6.0092 26.4821 -0.0005 29.0463 -0.0003
# 2 6.0092 28.2127 9.5112 -0.0002 -4.7367 -0.0001
# 3 26.4821 9.5112 71.4919 0.0012 28.8016 0.0002
# 4 -0.0005 -0.0002 0.0012 10.7565 0.0005 5.5376
# 5 29.0463 -4.7367 28.8016 0.0005 54.4935 0.0001
# 6 -0.0003 -0.0001 0.0002 5.5376 0.0001 28.5251
#
#
#
# Elastic Compliance Matrix: (Units=1/GPa)
#
#
# Indices 1 2 3 4 5 6 
#
# 1 0.006381 -0.001557 -0.000930 0.000001 -0.003045 0.000000
# 2 -0.001557 0.040006 -0.008234 0.000001 0.008659 0.000000
# 3 -0.000930 -0.008234 0.019714 -0.000002 -0.010640 0.000000
# 4 0.000001 0.000001 -0.000002 0.103290 0.000000 -0.020052
# 5 -0.003045 0.008659 -0.010640 0.000000 0.026350 0.000000
# 6 0.000000 0.000000 0.000000 -0.020052 0.000000 0.038949
#
#
# Mechanical properties :
#
#
# Convention : Reuss Voigt Hill
#
# Bulk Modulus (GPa) = 22.39178 39.95755 31.17467
# Shear Modulus (GPa) = 18.44890 34.32906 26.38898
#
# Velocity S-wave (km/s) = 2.64041 3.60178 3.15789
# Velocity P-wave (km/s) = 4.21396 5.69182 5.00771
#
# Compressibility (1/GPa) = 0.04465924
#
# Stress axis : x y z
#
# Youngs Moduli (GPa) = 156.72221 24.99596 50.72594
#
# Poissons Ratio (x) = 0.03892 0.04716
# Poissons Ratio (y) = 0.24400 0.41769
# Poissons Ratio (z) = 0.14570 0.20582
#
# Static dielectric constant tensor:
#      x y z
#    x 2.131540 0.000000 -0.049700 
#    y 0.000000 2.180220 0.000000 
#    z -0.049700 0.000000 2.115610 
# 
# From -- ./inp_files/206831.got.cif
#   From: 2010.05.17/outbox.cif.g08.bks.cpg/sg15_104_cif.got.tgz:206831.got - 2010.06.03 18:47:42.
