data_PCOD9265287
_publ_section_title
;
Structure prediction by ZEFSAII (Michael W. Deem and Ramdas Pophale) SiO2 
 PCOD9265287
Probable space group: C 2/C
;
_chemical_formula_sum "Si O2"
_cell_formula_units_Z 44
_cell_length_a 15.696350
_cell_length_b 12.111129
_cell_length_c 26.075589
_cell_angle_alpha 90.000000
_cell_angle_beta 154.056919
_cell_angle_gamma 90.000000
_cell_volume 2168.571251
_symmetry_space_group_name_H-M "C 2/C"
_symmetry_group_IT_number 15
_symmetry_cell_setting 'monoclinic'
loop_
_space_group_symop_operation_xyz
x,y,z
-x,y,1/2-z
-x,-y,-z
x,-y,1/2+z
1/2+x,1/2+y,z
1/2-x,1/2+y,1/2-z
1/2-x,1/2-y,-z
1/2+x,1/2-y,1/2+z
loop_
_atom_site_type_symbol
_atom_site_label
_atom_site_fract_x
_atom_site_fract_y
_atom_site_fract_z
Si Si1 0.522380 0.238241 0.111784
Si Si2 0.000000 0.038258 0.250000
Si Si3 0.858747 0.648482 0.124500
Si Si4 0.696733 0.096229 0.951613
Si Si5 0.443979 0.295060 0.808198
Si Si6 0.397619 0.011840 0.998903
O O1 0.456644 0.230259 0.135263
O O2 0.749151 0.259304 0.225255
O O3 0.497387 0.113305 0.079872
O O4 0.365949 0.309679 0.995080
O O5 0.093017 0.119040 0.257795
O O6 0.169952 0.965923 0.365736
O O7 0.837809 0.522016 0.092903
O O8 0.000000 0.650108 0.250000
O O9 0.580056 0.195336 0.862565
O O10 0.613459 0.086279 0.965304
O O11 0.921170 0.134743 0.079182
O O12 0.500000 0.000000 0.000000
#
# Coordination Sequence:
#
# PCOD9265287 Si02
#       6
#     8   4   8   8   8   8
#     4  10  22  40  61  90 122 159 210 247 307 369
#     4  10  20  34  62  86 116 152 194 250 294 354
#     4  10  23  42  59  90 126 164 200 257 309 370
#     4   9  22  39  59  86 121 157 201 254 298 364
#     4  10  20  40  61  86 118 157 201 253 299 360
#     4  10  19  36  59  89 116 152 200 246 301 355
#
# _framework density 20.289857000000001
#
# number of rings (size 3 to 8) (size 9 to 14) (size 15 to 20)
#    0.000    2.182    1.818    0.000    2.545    4.364 
#    6.545    1.818    0.000    0.000    0.000    0.000 
#    0.000    0.000    0.000    0.000    0.000    0.000 
#
# Total GULP energy -122547.678054 kJ/mol
# GULP energy per Si atom -5570.349002 kJ/mol
# Density = 2.024368 g / cm^3
# Si number density = 20.289857 Si / 1000 Ang^3
#
#
#
# Elastic Constant Matrix: (Units=GPa)
#
#
# Indices 1 2 3 4 5 6 
#
# 1 62.1830 2.7220 41.2707 0.0000 5.0265 0.0000
# 2 2.7220 39.3695 22.8408 0.0001 1.7427 0.0000
# 3 41.2707 22.8408 136.3640 0.0006 9.2011 -0.0001
# 4 0.0000 0.0001 0.0006 29.9143 0.0000 5.0396
# 5 5.0265 1.7427 9.2011 0.0000 29.1162 0.0000
# 6 0.0000 0.0000 -0.0001 5.0396 0.0000 11.4703
#
#
#
# Elastic Compliance Matrix: (Units=1/GPa)
#
#
# Indices 1 2 3 4 5 6 
#
# 1 0.020401 0.002415 -0.006469 0.000000 -0.001622 0.000000
# 2 0.002415 0.028421 -0.005465 0.000000 -0.000391 0.000000
# 3 -0.006469 -0.005465 0.010329 0.000000 -0.001820 0.000000
# 4 0.000000 0.000000 0.000000 0.036101 0.000000 -0.015862
# 5 -0.001622 -0.000391 -0.001820 0.000000 0.035224 0.000000
# 6 0.000000 0.000000 0.000000 -0.015862 0.000000 0.094151
#
#
# Mechanical properties :
#
#
# Convention : Reuss Voigt Hill
#
# Bulk Modulus (GPa) = 24.93016 41.28706 33.10861
# Shear Modulus (GPa) = 19.45246 25.50571 22.47909
#
# Velocity S-wave (km/s) = 3.09969 3.54936 3.33212
# Velocity P-wave (km/s) = 5.01243 6.09837 5.58187
#
# Compressibility (1/GPa) = 0.04011206
#
# Stress axis : x y z
#
# Youngs Moduli (GPa) = 49.01818 35.18492 96.81087
#
# Poissons Ratio (x) = -0.08496 0.62629
# Poissons Ratio (y) = -0.11836 0.52906
# Poissons Ratio (z) = 0.31711 0.19228
#
# Static dielectric constant tensor:
#      x y z
#    x 1.787350 0.000000 0.008570 
#    y 0.000000 1.704570 0.000000 
#    z 0.008570 0.000000 1.760540 
# 
# From -- ./inp_files/104371.got.cif
#   From: 2010.05.17/outbox.cif.g08.bks.cpg/sg15_53_cif.got.tgz:104371.got - 2010.06.03 18:47:42.
