data_PCOD9265848
_publ_section_title
;
Structure prediction by ZEFSAII (Michael W. Deem and Ramdas Pophale) SiO2 
 PCOD9265848
Probable space group: C 2/C
;
_chemical_formula_sum "Si O2"
_cell_formula_units_Z 40
_cell_length_a 9.847727
_cell_length_b 22.025733
_cell_length_c 11.595032
_cell_angle_alpha 90.000000
_cell_angle_beta 141.410566
_cell_angle_gamma 90.000000
_cell_volume 1568.695897
_symmetry_space_group_name_H-M "C 2/C"
_symmetry_group_IT_number 15
_symmetry_cell_setting 'monoclinic'
loop_
_space_group_symop_operation_xyz
x,y,z
-x,y,1/2-z
-x,-y,-z
x,-y,1/2+z
1/2+x,1/2+y,z
1/2-x,1/2+y,1/2-z
1/2-x,1/2-y,-z
1/2+x,1/2-y,1/2+z
loop_
_atom_site_type_symbol
_atom_site_label
_atom_site_fract_x
_atom_site_fract_y
_atom_site_fract_z
Si Si1 0.280892 0.912891 0.891990
Si Si2 0.469332 0.322471 0.932067
Si Si3 0.422449 0.188659 0.860652
Si Si4 0.144526 0.534796 0.457559
Si Si5 0.284115 0.666301 0.543317
O O1 0.103113 0.878613 0.695478
O O2 0.474038 0.940164 0.939422
O O3 0.389502 0.859615 0.040532
O O4 0.229876 0.973667 0.928084
O O5 0.474069 0.258419 0.868887
O O6 0.696808 0.330232 0.150801
O O7 0.288689 0.313622 0.914355
O O8 0.398565 0.183814 0.985107
O O9 0.293608 0.593348 0.537099
O O10 0.000000 0.522292 0.250000
O O11 0.500000 0.688936 0.750000
#
# Coordination Sequence:
#
# PCOD9265848 Si02
#       5
#     8   8   8   8   8
#     4  10  21  35  54  81 105 147 178 216 273 308
#     4  11  18  33  53  79 112 139 171 223 264 325
#     4  10  20  31  52  82 110 141 173 214 272 325
#     4  10  19  37  55  73 111 142 183 221 256 321
#     4   9  19  32  49  81 110 140 175 214 272 321
#
# _framework density 25.498888000000001
#
# number of rings (size 3 to 8) (size 9 to 14) (size 15 to 20)
#    0.000    2.000    4.000    0.600    0.000    0.000 
#    3.600    4.000    0.000    1.200    0.000    0.000 
#    0.000    0.000    0.000    0.000    0.000    0.000 
#
# Total GULP energy -111848.979632 kJ/mol
# GULP energy per Si atom -5592.448982 kJ/mol
# Density = 2.544085 g / cm^3
# Si number density = 25.498888 Si / 1000 Ang^3
#
#
#
# Elastic Constant Matrix: (Units=GPa)
#
#
# Indices 1 2 3 4 5 6 
#
# 1 67.9630 17.4892 16.4192 0.0000 -16.5751 0.0000
# 2 17.4892 241.0262 63.1606 0.0000 -6.2323 0.0000
# 3 16.4192 63.1606 161.3270 0.0000 4.0377 0.0000
# 4 0.0000 0.0000 0.0000 69.7282 0.0000 -1.5067
# 5 -16.5751 -6.2323 4.0377 0.0000 32.9107 0.0000
# 6 0.0000 0.0000 0.0000 -1.5067 0.0000 19.8288
#
#
#
# Elastic Compliance Matrix: (Units=1/GPa)
#
#
# Indices 1 2 3 4 5 6 
#
# 1 0.017462 -0.000571 -0.001776 0.000000 0.008904 0.000000
# 2 -0.000571 0.004682 -0.001795 0.000000 0.000819 0.000000
# 3 -0.001776 -0.001795 0.007135 0.000000 -0.002110 0.000000
# 4 0.000000 0.000000 0.000000 0.014365 0.000000 0.001092
# 5 0.008904 0.000819 -0.002110 0.000000 0.035284 0.000000
# 6 0.000000 0.000000 0.000000 0.001092 0.000000 0.050515
#
#
# Mechanical properties :
#
#
# Convention : Reuss Voigt Hill
#
# Bulk Modulus (GPa) = 47.63574 73.82824 60.73199
# Shear Modulus (GPa) = 34.54805 49.37668 41.96237
#
# Velocity S-wave (km/s) = 3.68487 4.40526 4.06107
# Velocity P-wave (km/s) = 6.06848 7.40887 6.77192
#
# Compressibility (1/GPa) = 0.02099264
#
# Stress axis : x y z
#
# Youngs Moduli (GPa) = 57.26838 213.58180 140.15209
#
# Poissons Ratio (x) = 0.12202 0.24896
# Poissons Ratio (y) = 0.03272 0.25163
# Poissons Ratio (z) = 0.10173 0.38347
#
# Static dielectric constant tensor:
#      x y z
#    x 2.220120 0.000000 -0.055660 
#    y 0.000000 1.999860 0.000000 
#    z -0.055660 0.000000 1.966960 
# 
# From -- ./inp_files/156054.got.cif
#   From: 2010.05.17/outbox.cif.g08.bks.cpg/sg15_79_cif.got.tgz:156054.got - 2010.06.03 18:47:42.
