data_PCOD9265007
_publ_section_title
;
Structure prediction by ZEFSAII (Michael W. Deem and Ramdas Pophale) SiO2 
 PCOD9265007
Probable space group: C 2/C
;
_chemical_formula_sum "Si O2"
_cell_formula_units_Z 56
_cell_length_a 16.094869
_cell_length_b 9.677302
_cell_length_c 22.801809
_cell_angle_alpha 90.000000
_cell_angle_beta 119.870450
_cell_angle_gamma 90.000000
_cell_volume 3079.690962
_symmetry_space_group_name_H-M "C 2/C"
_symmetry_group_IT_number 15
_symmetry_cell_setting 'monoclinic'
loop_
_space_group_symop_operation_xyz
x,y,z
-x,y,1/2-z
-x,-y,-z
x,-y,1/2+z
1/2+x,1/2+y,z
1/2-x,1/2+y,1/2-z
1/2-x,1/2-y,-z
1/2+x,1/2-y,1/2+z
loop_
_atom_site_type_symbol
_atom_site_label
_atom_site_fract_x
_atom_site_fract_y
_atom_site_fract_z
Si Si1 0.943623 0.137073 0.462492
Si Si2 0.395638 0.269483 0.194485
Si Si3 0.353790 0.681751 0.546688
Si Si4 0.608796 0.200385 0.806450
Si Si5 0.749178 0.457312 0.670261
Si Si6 0.624372 0.533604 0.235808
Si Si7 0.435064 0.388632 0.600509
O O1 0.920158 0.218665 0.513854
O O2 0.012294 0.191503 0.434715
O O3 0.841850 0.089052 0.400402
O O4 0.000000 0.000000 0.500000
O O5 0.500000 0.221629 0.250000
O O6 0.386816 0.264617 0.121496
O O7 0.381153 0.423507 0.214254
O O8 0.316622 0.175229 0.196928
O O9 0.250000 0.750000 0.500000
O O10 0.363687 0.512687 0.555366
O O11 0.500000 0.156434 0.750000
O O12 0.685354 0.078381 0.832791
O O13 0.636313 0.315611 0.767840
O O14 0.606478 0.280465 0.867667
O O15 0.706776 0.498571 0.718312
O O16 0.523702 0.535322 0.165198
#
# Coordination Sequence:
#
# PCOD9265007 Si02
#       7
#     8   8   8   8   8   8   8
#     4   9  20  36  56  81 107 150 193 228 266 346
#     4  12  21  36  61  87 113 148 193 239 287 336
#     4  11  19  35  59  86 111 145 197 238 278 333
#     4  10  19  36  56  84 120 150 184 233 291 345
#     4  11  22  34  56  91 118 142 185 245 295 325
#     4  10  19  36  58  84 111 154 195 227 273 348
#     4   9  18  36  60  81 107 153 194 225 275 346
#
# _framework density 18.183641999999999
#
# number of rings (size 3 to 8) (size 9 to 14) (size 15 to 20)
#    0.000    1.714    4.286    1.714    0.000    0.000 
#    0.000    2.857    0.000    0.857    0.000    0.000 
#    0.000    0.000    0.000    0.000    0.000    0.000 
#
# Total GULP energy -156052.261206 kJ/mol
# GULP energy per Si atom -5573.295043 kJ/mol
# Density = 1.814226 g / cm^3
# Si number density = 18.183642 Si / 1000 Ang^3
#
#
#
# Elastic Constant Matrix: (Units=GPa)
#
#
# Indices 1 2 3 4 5 6 
#
# 1 119.3071 24.8175 38.5488 0.0000 -18.6288 0.0000
# 2 24.8175 39.0976 2.1194 0.0000 1.3477 0.0000
# 3 38.5488 2.1194 85.6267 0.0000 -13.0822 0.0000
# 4 0.0000 0.0000 0.0000 -0.1716 0.0000 2.6961
# 5 -18.6288 1.3477 -13.0822 0.0000 37.4231 0.0000
# 6 0.0000 0.0000 0.0000 2.6961 0.0000 29.3018
#
#
#
# Elastic Compliance Matrix: (Units=1/GPa)
#
#
# Indices 1 2 3 4 5 6 
#
# 1 0.012193 -0.007655 -0.004575 0.000000 0.004746 0.000000
# 2 -0.007655 0.030470 0.002052 0.000000 -0.004191 0.000000
# 3 -0.004575 0.002052 0.014080 0.000000 0.002571 0.000000
# 4 0.000000 0.000000 0.000000 -2.383005 0.000000 0.219263
# 5 0.004746 -0.004191 0.002571 0.000000 0.030134 0.000000
# 6 0.000000 0.000000 0.000000 0.219263 0.000000 0.013953
#
#
# Mechanical properties :
#
#
# Convention : Reuss Voigt Hill
#
# Bulk Modulus (GPa) = 27.48261 41.66698 34.57480
# Shear Modulus (GPa) = -2.22253 25.21373 11.49560
#
# Velocity S-wave (km/s) = -1.10676 3.72777 2.51708
# Velocity P-wave (km/s) = 3.67607 6.44148 5.24434
#
# Compressibility (1/GPa) = 0.03638664
#
# Stress axis : x y z
#
# Youngs Moduli (GPa) = 82.01165 32.81961 71.02199
#
# Poissons Ratio (x) = 0.25125 0.32491
# Poissons Ratio (y) = 0.62784 -0.14574
# Poissons Ratio (z) = 0.37519 -0.06735
#
# Static dielectric constant tensor:
#      x y z
#    x 1.650240 0.000000 -0.034270 
#    y 0.000000 1.606660 0.000000 
#    z -0.034270 0.000000 1.642790 
# 
# From -- ./inp_files/273239.got.cif
#   From: 2010.05.17/outbox.cif.g08.bks.cpg/sg15_137_cif.got.tgz:273239.got - 2010.06.03 18:47:42.
