data_PCOD9265896
_publ_section_title
;
Structure prediction by ZEFSAII (Michael W. Deem and Ramdas Pophale) SiO2 
 PCOD9265896
Probable space group: C 2/C
;
_chemical_formula_sum "Si O2"
_cell_formula_units_Z 44
_cell_length_a 28.604605
_cell_length_b 10.740167
_cell_length_c 14.751220
_cell_angle_alpha 90.000000
_cell_angle_beta 33.498876
_cell_angle_gamma 90.000000
_cell_volume 2501.218051
_symmetry_space_group_name_H-M "C 2/C"
_symmetry_group_IT_number 15
_symmetry_cell_setting 'monoclinic'
loop_
_space_group_symop_operation_xyz
x,y,z
-x,y,1/2-z
-x,-y,-z
x,-y,1/2+z
1/2+x,1/2+y,z
1/2-x,1/2+y,1/2-z
1/2-x,1/2-y,-z
1/2+x,1/2-y,1/2+z
loop_
_atom_site_type_symbol
_atom_site_label
_atom_site_fract_x
_atom_site_fract_y
_atom_site_fract_z
Si Si1 0.500000 0.287993 0.750000
Si Si2 0.157953 0.613021 0.445498
Si Si3 0.784974 0.589600 0.521045
Si Si4 0.296690 0.664976 0.351277
Si Si5 0.149403 0.301000 0.765130
Si Si6 0.512044 0.366269 0.933672
O O1 0.581566 0.198507 0.605665
O O2 0.508254 0.366504 0.829526
O O3 0.160858 0.478690 0.488870
O O4 0.245491 0.675487 0.339776
O O5 0.153503 0.609401 0.345121
O O6 0.720496 0.479603 0.594571
O O7 0.840704 0.630258 0.345947
O O8 0.728009 0.704566 0.644795
O O9 0.250000 0.750000 0.500000
O O10 0.396044 0.686518 0.188046
O O11 0.063439 0.222871 0.912019
O O12 0.500000 0.500000 0.000000
#
# Coordination Sequence:
#
# PCOD9265896 Si02
#       6
#     4   8   8   8   8   8
#     4  10  20  36  60  78 118 150 194 232 286 348
#     4   9  20  36  55  83 112 157 188 229 293 348
#     4   9  20  38  55  87 118 148 194 241 286 345
#     4  10  19  37  57  82 121 146 192 238 284 343
#     4  10  20  37  63  82 118 156 190 243 293 338
#     4  11  19  37  58  88 111 151 195 236 286 342
#
# _framework density 17.591431
#
# number of rings (size 3 to 8) (size 9 to 14) (size 15 to 20)
#    1.091    1.091    3.636    0.000    0.000    1.455 
#    3.273   10.000    0.000    0.000    0.000    0.000 
#    0.000    0.000    0.000    0.000    0.000    0.000 
#
# Total GULP energy -122475.740647 kJ/mol
# GULP energy per Si atom -5567.079120 kJ/mol
# Density = 1.755139 g / cm^3
# Si number density = 17.591431 Si / 1000 Ang^3
#
#
#
# Elastic Constant Matrix: (Units=GPa)
#
#
# Indices 1 2 3 4 5 6 
#
# 1 91.8808 41.1419 71.1635 0.0000 -6.5434 0.0000
# 2 41.1419 62.3029 31.7958 0.0000 19.2695 0.0000
# 3 71.1635 31.7958 122.9199 0.0000 7.8423 0.0000
# 4 0.0000 0.0000 0.0000 22.6315 0.0000 6.1787
# 5 -6.5434 19.2695 7.8423 0.0000 27.0834 0.0000
# 6 0.0000 0.0000 0.0000 6.1787 0.0000 37.3643
#
#
#
# Elastic Compliance Matrix: (Units=1/GPa)
#
#
# Indices 1 2 3 4 5 6 
#
# 1 0.039702 -0.027694 -0.018024 0.000000 0.034515 0.000000
# 2 -0.027694 0.042630 0.007507 0.000000 -0.039196 0.000000
# 3 -0.018024 0.007507 0.017571 0.000000 -0.014784 0.000000
# 4 0.000000 0.000000 0.000000 0.046275 0.000000 -0.007652
# 5 0.034515 -0.039196 -0.014784 0.000000 0.077430 0.000000
# 6 0.000000 0.000000 0.000000 -0.007652 0.000000 0.028029
#
#
# Mechanical properties :
#
#
# Convention : Reuss Voigt Hill
#
# Bulk Modulus (GPa) = 42.58627 62.81179 52.69903
# Shear Modulus (GPa) = 14.88592 26.28266 20.58429
#
# Velocity S-wave (km/s) = 2.91211 3.86950 3.42443
# Velocity P-wave (km/s) = 5.96391 7.46642 6.75706
#
# Compressibility (1/GPa) = 0.02348175
#
# Stress axis : x y z
#
# Youngs Moduli (GPa) = 25.18750 23.45742 56.91066
#
# Poissons Ratio (x) = 0.64964 1.02574
# Poissons Ratio (y) = 0.69755 -0.42722
# Poissons Ratio (z) = 0.45397 -0.17609
#
# Static dielectric constant tensor:
#      x y z
#    x 1.605890 0.000000 -0.005920 
#    y 0.000000 1.593110 0.000000 
#    z -0.005920 0.000000 1.585540 
# 
# From -- ./inp_files/181501.got.cif
#   From: 2010.05.17/outbox.cif.g08.bks.cpg/sg15_91_cif.got.tgz:181501.got - 2010.06.03 18:47:42.
