data_PCOD9265853
_publ_section_title
;
Structure prediction by ZEFSAII (Michael W. Deem and Ramdas Pophale) SiO2 
 PCOD9265853
Probable space group: C 2/C
;
_chemical_formula_sum "Si O2"
_cell_formula_units_Z 48
_cell_length_a 24.608818
_cell_length_b 14.733079
_cell_length_c 12.343960
_cell_angle_alpha 90.000000
_cell_angle_beta 34.605528
_cell_angle_gamma 90.000000
_cell_volume 2541.723811
_symmetry_space_group_name_H-M "C 2/C"
_symmetry_group_IT_number 15
_symmetry_cell_setting 'monoclinic'
loop_
_space_group_symop_operation_xyz
x,y,z
-x,y,1/2-z
-x,-y,-z
x,-y,1/2+z
1/2+x,1/2+y,z
1/2-x,1/2+y,1/2-z
1/2-x,1/2-y,-z
1/2+x,1/2-y,1/2+z
loop_
_atom_site_type_symbol
_atom_site_label
_atom_site_fract_x
_atom_site_fract_y
_atom_site_fract_z
Si Si1 0.297917 0.378859 0.952997
Si Si2 0.284869 0.578935 0.047846
Si Si3 0.599067 0.574647 0.433044
Si Si4 0.394179 0.179214 0.063462
Si Si5 0.390948 0.802208 0.318825
Si Si6 0.096680 0.876091 0.353391
O O1 0.289871 0.469748 0.034725
O O2 0.194830 0.331540 0.118304
O O3 0.324915 0.405025 0.786009
O O4 0.379368 0.306673 0.851271
O O5 0.359094 0.605340 0.021179
O O6 0.181130 0.618646 0.247464
O O7 0.320663 0.611103 0.871825
O O8 0.585000 0.465456 0.447907
O O9 0.501405 0.623211 0.556191
O O10 0.382482 0.284857 0.115369
O O11 0.507777 0.165249 0.892742
O O12 0.378034 0.162802 0.962227
#
# Coordination Sequence:
#
# PCOD9265853 Si02
#       6
#     8   8   8   8   8   8
#     4  10  20  38  58  82 109 154 198 237 280 338
#     4  11  22  35  58  85 120 149 186 243 297 341
#     4  10  19  37  55  83 114 149 195 237 284 347
#     4  11  21  36  57  88 115 149 190 237 295 347
#     4  10  21  37  61  80 112 153 200 238 276 348
#     4  10  21  35  57  83 118 149 191 239 291 345
#
# _framework density 18.884820999999999
#
# number of rings (size 3 to 8) (size 9 to 14) (size 15 to 20)
#    0.000    1.667    3.333    2.000    0.000    0.667 
#    0.000    0.000    0.000    0.000    0.000    0.000 
#    0.000    0.000    0.000    0.000    0.000    0.000 
#
# Total GULP energy -133817.455535 kJ/mol
# GULP energy per Si atom -5575.727314 kJ/mol
# Density = 1.884184 g / cm^3
# Si number density = 18.884821 Si / 1000 Ang^3
#
#
#
# Elastic Constant Matrix: (Units=GPa)
#
#
# Indices 1 2 3 4 5 6 
#
# 1 46.5365 -3.6388 21.2926 0.0000 -10.8997 0.0000
# 2 -3.6388 37.2274 20.5907 0.0000 -8.8971 0.0000
# 3 21.2926 20.5907 94.7814 0.0000 -17.6622 0.0000
# 4 0.0000 0.0000 0.0000 28.9166 0.0000 -1.4235
# 5 -10.8997 -8.8971 -17.6622 0.0000 29.0561 0.0000
# 6 0.0000 0.0000 0.0000 -1.4235 0.0000 20.8195
#
#
#
# Elastic Compliance Matrix: (Units=1/GPa)
#
#
# Indices 1 2 3 4 5 6 
#
# 1 0.027048 0.008198 -0.006201 0.000000 0.008887 0.000000
# 2 0.008198 0.033970 -0.007567 0.000000 0.008877 0.000000
# 3 -0.006201 -0.007567 0.014348 0.000000 0.004078 0.000000
# 4 0.000000 0.000000 0.000000 0.034699 0.000000 0.002372
# 5 0.008887 0.008877 0.004078 0.000000 0.042947 0.000000
# 6 0.000000 0.000000 0.000000 0.002372 0.000000 0.048194
#
#
# Mechanical properties :
#
#
# Convention : Reuss Voigt Hill
#
# Bulk Modulus (GPa) = 15.57027 28.33715 21.95371
# Shear Modulus (GPa) = 21.38978 25.11180 23.25079
#
# Velocity S-wave (km/s) = 3.36913 3.65051 3.51264
# Velocity P-wave (km/s) = 4.83709 5.72766 5.30111
#
# Compressibility (1/GPa) = 0.06422496
#
# Stress axis : x y z
#
# Youngs Moduli (GPa) = 36.97068 29.43743 69.69821
#
# Poissons Ratio (x) = -0.24132 0.43222
# Poissons Ratio (y) = -0.30308 0.52742
# Poissons Ratio (z) = 0.22926 0.22276
#
# Static dielectric constant tensor:
#      x y z
#    x 1.666550 0.000000 -0.011320 
#    y 0.000000 1.683070 0.000000 
#    z -0.011320 0.000000 1.667540 
# 
# From -- ./inp_files/96218.got.cif
#   From: 2010.05.17/outbox.cif.g08.bks.cpg/sg15_49_cif.got.tgz:96218.got - 2010.06.03 18:47:42.
