data_PCOD9265909
_publ_section_title
;
Structure prediction by ZEFSAII (Michael W. Deem and Ramdas Pophale) SiO2 
 PCOD9265909
Probable space group: C 2/C
;
_chemical_formula_sum "Si O2"
_cell_formula_units_Z 64
_cell_length_a 18.028290
_cell_length_b 9.039119
_cell_length_c 30.062687
_cell_angle_alpha 90.000000
_cell_angle_beta 39.452555
_cell_angle_gamma 90.000000
_cell_volume 3113.022999
_symmetry_space_group_name_H-M "C 2/C"
_symmetry_group_IT_number 15
_symmetry_cell_setting 'monoclinic'
loop_
_space_group_symop_operation_xyz
x,y,z
-x,y,1/2-z
-x,-y,-z
x,-y,1/2+z
1/2+x,1/2+y,z
1/2-x,1/2+y,1/2-z
1/2-x,1/2-y,-z
1/2+x,1/2-y,1/2+z
loop_
_atom_site_type_symbol
_atom_site_label
_atom_site_fract_x
_atom_site_fract_y
_atom_site_fract_z
Si Si1 0.857061 0.281181 0.264738
Si Si2 0.364125 0.231121 0.191249
Si Si3 0.399318 0.389608 0.408951
Si Si4 0.632789 0.064519 0.182410
Si Si5 0.879616 0.981261 0.821675
Si Si6 0.028711 0.402202 0.371486
Si Si7 0.685474 0.048181 0.060795
Si Si8 0.217909 0.695680 0.847946
O O1 0.731055 0.246220 0.302971
O O2 0.858325 0.442301 0.284482
O O3 0.883523 0.172812 0.293267
O O4 0.943606 0.289516 0.182034
O O5 0.468203 0.350722 0.139629
O O6 0.298359 0.271137 0.267445
O O7 0.409513 0.061665 0.168243
O O8 0.383372 0.491369 0.372672
O O9 0.350042 0.222953 0.422150
O O10 0.319479 0.456812 0.484645
O O11 0.500000 0.125694 0.250000
O O12 0.648576 0.995568 0.126547
O O13 0.743112 0.172008 0.137903
O O14 0.000000 0.057705 0.750000
O O15 0.766832 0.057258 0.852423
O O16 0.090606 0.335065 0.386593
O O17 0.894387 0.452097 0.435715
#
# Coordination Sequence:
#
# PCOD9265909 Si02
#       8
#     8   8   8   8   8   8   8   8
#     4  11  23  35  59  92 121 154 194 260 309 355
#     4  10  19  37  57  87 124 153 196 249 310 360
#     4  10  21  39  61  87 118 164 202 247 300 365
#     4  12  20  38  61  89 116 155 206 254 298 361
#     4  12  22  36  58  93 120 151 206 253 301 356
#     4  10  20  37  57  88 121 154 198 252 308 356
#     4  10  21  38  63  86 119 160 206 247 301 362
#     4  11  20  34  60  88 114 154 199 255 300 349
#
# _framework density 20.558795
#
# number of rings (size 3 to 8) (size 9 to 14) (size 15 to 20)
#    0.000    1.250    6.250    1.500    0.000    0.000 
#    0.000    3.125    0.000    0.000    0.000    0.000 
#    0.000    0.000    0.000    0.000    0.000    0.000 
#
# Total GULP energy -178338.521124 kJ/mol
# GULP energy per Si atom -5573.078785 kJ/mol
# Density = 2.051200 g / cm^3
# Si number density = 20.558795 Si / 1000 Ang^3
#
#
#
# Elastic Constant Matrix: (Units=GPa)
#
#
# Indices 1 2 3 4 5 6 
#
# 1 95.8706 28.0050 26.6113 -0.0001 -5.2178 0.0006
# 2 28.0050 61.9980 -11.7003 -0.0002 -4.9959 0.0004
# 3 26.6113 -11.7003 53.9734 0.0000 0.5270 0.0001
# 4 -0.0001 -0.0002 0.0000 8.6917 0.0000 8.5541
# 5 -5.2178 -4.9959 0.5270 0.0000 16.3957 0.0000
# 6 0.0006 0.0004 0.0001 8.5541 0.0000 27.6341
#
#
#
# Elastic Compliance Matrix: (Units=1/GPa)
#
#
# Indices 1 2 3 4 5 6 
#
# 1 0.015846 -0.008780 -0.009742 0.000000 0.002680 0.000000
# 2 -0.008780 0.022104 0.009085 0.000001 0.003649 -0.000001
# 3 -0.009742 0.009085 0.025312 0.000000 -0.001146 0.000000
# 4 0.000000 0.000001 0.000000 0.165460 0.000000 -0.051218
# 5 0.002680 0.003649 -0.001146 0.000000 0.062994 0.000000
# 6 0.000000 -0.000001 0.000000 -0.051218 0.000000 0.052042
#
#
# Mechanical properties :
#
#
# Convention : Reuss Voigt Hill
#
# Bulk Modulus (GPa) = 22.52905 33.07488 27.80197
# Shear Modulus (GPa) = 13.24762 21.80602 17.52682
#
# Velocity S-wave (km/s) = 2.54121 3.26032 2.92297
# Velocity P-wave (km/s) = 4.42634 5.50416 4.99441
#
# Compressibility (1/GPa) = 0.04438713
#
# Stress axis : x y z
#
# Youngs Moduli (GPa) = 63.10920 45.24026 39.50762
#
# Poissons Ratio (x) = 0.39721 0.38489
# Poissons Ratio (y) = 0.55410 -0.35893
# Poissons Ratio (z) = 0.61482 -0.41101
#
# Static dielectric constant tensor:
#      x y z
#    x 1.829430 0.000000 -0.010080 
#    y 0.000000 1.815340 0.000000 
#    z -0.010080 0.000000 1.732640 
# 
# From -- ./inp_files/315690.got.cif
#   From: 2010.05.17/outbox.cif.g08.bks.cpg/sg15_158_cif.got.tgz:315690.got - 2010.06.03 18:47:42.
