data_PCOD9265116
_publ_section_title
;
Structure prediction by ZEFSAII (Michael W. Deem and Ramdas Pophale) SiO2 
 PCOD9265116
Probable space group: C 2/C
;
_chemical_formula_sum "Si O2"
_cell_formula_units_Z 32
_cell_length_a 14.611611
_cell_length_b 4.864977
_cell_length_c 16.483778
_cell_angle_alpha 90.000000
_cell_angle_beta 77.405522
_cell_angle_gamma 90.000000
_cell_volume 1143.556906
_symmetry_space_group_name_H-M "C 2/C"
_symmetry_group_IT_number 15
_symmetry_cell_setting 'monoclinic'
loop_
_space_group_symop_operation_xyz
x,y,z
-x,y,1/2-z
-x,-y,-z
x,-y,1/2+z
1/2+x,1/2+y,z
1/2-x,1/2+y,1/2-z
1/2-x,1/2-y,-z
1/2+x,1/2-y,1/2+z
loop_
_atom_site_type_symbol
_atom_site_label
_atom_site_fract_x
_atom_site_fract_y
_atom_site_fract_z
Si Si1 0.534446 0.781533 0.323745
Si Si2 0.594499 0.479269 0.035540
Si Si3 0.336302 0.021223 0.061434
Si Si4 0.702979 0.422719 0.223860
O O1 0.500000 0.940386 0.250000
O O2 0.609261 0.553479 0.278406
O O3 0.445118 0.618265 0.376274
O O4 0.583330 0.956509 0.385915
O O5 0.663504 0.671664 0.970450
O O6 0.718845 0.893922 0.742747
O O7 0.633626 0.173825 0.018564
O O8 0.500000 0.500000 0.000000
O O9 0.238407 0.958390 0.124766
#
# Coordination Sequence:
#
# PCOD9265116 Si02
#       4
#     8   8   8   8
#     4  10  21  37  59  90 116 142 188 246 283 317
#     4  10  19  36  58  81 109 151 190 223 273 344
#     4  10  20  38  59  79 109 155 191 219 273 350
#     4  10  20  37  58  82 112 152 190 226 278 345
#
# _framework density 27.982866999999999
#
# number of rings (size 3 to 8) (size 9 to 14) (size 15 to 20)
#    0.000    2.000    0.000    7.500    0.000    2.000 
#    0.000   33.750    0.000    0.000    0.000    7.000 
#    0.000    0.000    0.000    0.000    0.000    0.000 
#
# Total GULP energy -89614.881994 kJ/mol
# GULP energy per Si atom -5600.930125 kJ/mol
# Density = 2.791918 g / cm^3
# Si number density = 27.982867 Si / 1000 Ang^3
#
#
#
# Elastic Constant Matrix: (Units=GPa)
#
#
# Indices 1 2 3 4 5 6 
#
# 1 109.7909 -3.2769 15.4109 0.0000 -6.4471 0.0000
# 2 -3.2769 77.5922 15.3048 0.0000 -7.8979 0.0000
# 3 15.4109 15.3048 144.9078 0.0000 -14.9114 0.0000
# 4 0.0000 0.0000 0.0000 53.7357 0.0000 -9.3289
# 5 -6.4471 -7.8979 -14.9114 0.0000 57.2178 0.0000
# 6 0.0000 0.0000 0.0000 -9.3289 0.0000 16.1640
#
#
#
# Elastic Compliance Matrix: (Units=1/GPa)
#
#
# Indices 1 2 3 4 5 6 
#
# 1 0.009317 0.000676 -0.000971 0.000000 0.000890 0.000000
# 2 0.000676 0.013337 -0.001319 0.000000 0.001573 0.000000
# 3 -0.000971 -0.001319 0.007309 0.000000 0.001614 0.000000
# 4 0.000000 0.000000 0.000000 0.020682 0.000000 0.011936
# 5 0.000890 0.001573 0.001614 0.000000 0.018215 0.000000
# 6 0.000000 0.000000 0.000000 0.011936 0.000000 0.068755
#
#
# Mechanical properties :
#
#
# Convention : Reuss Voigt Hill
#
# Bulk Modulus (GPa) = 37.40305 43.01874 40.21089
# Shear Modulus (GPa) = 33.38815 45.74698 39.56756
#
# Velocity S-wave (km/s) = 3.45797 4.04768 3.76439
# Velocity P-wave (km/s) = 5.41653 6.10340 5.77020
#
# Compressibility (1/GPa) = 0.02673579
#
# Stress axis : x y z
#
# Youngs Moduli (GPa) = 107.33194 74.98133 136.80902
#
# Poissons Ratio (x) = -0.05065 0.13279
# Poissons Ratio (y) = -0.07251 0.18039
# Poissons Ratio (z) = 0.10418 0.09886
#
# Static dielectric constant tensor:
#      x y z
#    x 2.400790 0.000000 0.032950 
#    y 0.000000 2.030570 0.000000 
#    z 0.032950 0.000000 2.192450 
# 
# From -- ./inp_files/275443.got.cif
#   From: 2010.05.17/outbox.cif.g08.bks.cpg/sg15_138_cif.got.tgz:275443.got - 2010.06.03 18:47:42.
