data_PCOD9265784
_publ_section_title
;
Structure prediction by ZEFSAII (Michael W. Deem and Ramdas Pophale) SiO2 
 PCOD9265784
Probable space group: C 2/C
;
_chemical_formula_sum "Si O2"
_cell_formula_units_Z 60
_cell_length_a 10.588608
_cell_length_b 11.783727
_cell_length_c 29.626430
_cell_angle_alpha 90.000000
_cell_angle_beta 39.388374
_cell_angle_gamma 90.000000
_cell_volume 2345.756541
_symmetry_space_group_name_H-M "C 2/C"
_symmetry_group_IT_number 15
_symmetry_cell_setting 'monoclinic'
loop_
_space_group_symop_operation_xyz
x,y,z
-x,y,1/2-z
-x,-y,-z
x,-y,1/2+z
1/2+x,1/2+y,z
1/2-x,1/2+y,1/2-z
1/2-x,1/2-y,-z
1/2+x,1/2-y,1/2+z
loop_
_atom_site_type_symbol
_atom_site_label
_atom_site_fract_x
_atom_site_fract_y
_atom_site_fract_z
Si Si1 0.538592 0.473898 0.315794
Si Si2 0.599854 0.225320 0.173500
Si Si3 0.583733 0.549525 0.401530
Si Si4 0.356226 0.872869 0.569732
Si Si5 0.850605 0.625208 0.973915
Si Si6 0.000000 0.288773 0.250000
Si Si7 0.840512 0.602683 0.171695
Si Si8 0.828750 0.374187 0.383444
O O1 0.441328 0.351191 0.334106
O O2 0.634644 0.493250 0.338810
O O3 0.357383 0.564300 0.367458
O O4 0.691877 0.508173 0.233734
O O5 0.500000 0.219038 0.250000
O O6 0.821523 0.175371 0.119753
O O7 0.491234 0.140567 0.168800
O O8 0.347632 0.548594 0.470441
O O9 0.681554 0.475224 0.413220
O O10 0.455411 0.893680 0.493184
O O11 0.447590 0.905633 0.592915
O O12 0.303324 0.739817 0.581377
O O13 0.750000 0.750000 0.000000
O O14 0.943177 0.613626 0.898931
O O15 0.810339 0.208460 0.294701
O O16 0.977107 0.361473 0.301085
#
# Coordination Sequence:
#
# PCOD9265784 Si02
#       8
#     8   8   8   8   8   4   8   8
#     4  11  20  40  62  88 137 180 221 288 338 403
#     4  12  26  37  60 103 142 178 228 287 349 407
#     4  11  24  41  62  97 137 172 228 282 344 412
#     4   9  18  36  63  91 119 175 233 263 334 407
#     4   9  20  39  69  92 125 177 231 275 336 416
#     4  10  20  34  68  98 128 172 226 260 346 410
#     4  11  19  37  59  91 136 176 220 280 336 402
#     4  10  19  36  66  97 128 174 213 280 340 400
#
# _framework density 25.578102000000001
#
# number of rings (size 3 to 8) (size 9 to 14) (size 15 to 20)
#    0.000    1.600    4.000    2.800    0.933    1.067 
#    0.000    2.667    0.000   36.800    0.000    0.000 
#    0.000    0.000    0.000    0.000    0.000    0.000 
#
# Total GULP energy -167871.442778 kJ/mol
# GULP energy per Si atom -5595.714759 kJ/mol
# Density = 2.551988 g / cm^3
# Si number density = 25.578102 Si / 1000 Ang^3
#
#
#
# Elastic Constant Matrix: (Units=GPa)
#
#
# Indices 1 2 3 4 5 6 
#
# 1 114.8249 41.9192 55.1197 -0.0001 38.2069 0.0001
# 2 41.9192 119.9549 29.0432 0.0001 8.9366 0.0000
# 3 55.1197 29.0432 160.5915 0.0006 44.2912 0.0004
# 4 -0.0001 0.0001 0.0006 17.9082 0.0002 6.6399
# 5 38.2069 8.9366 44.2912 0.0002 63.4853 -0.0001
# 6 0.0001 0.0000 0.0004 6.6399 -0.0001 48.6085
#
#
#
# Elastic Compliance Matrix: (Units=1/GPa)
#
#
# Indices 1 2 3 4 5 6 
#
# 1 0.013002 -0.003575 -0.002225 0.000000 -0.005769 0.000000
# 2 -0.003575 0.009703 -0.000922 0.000000 0.001429 0.000000
# 3 -0.002225 -0.000922 0.008361 0.000000 -0.004364 0.000000
# 4 0.000000 0.000000 0.000000 0.058819 0.000000 -0.008035
# 5 -0.005769 0.001429 -0.004364 0.000000 0.022068 0.000000
# 6 0.000000 0.000000 0.000000 -0.008035 0.000000 0.021670
#
#
# Mechanical properties :
#
#
# Convention : Reuss Voigt Hill
#
# Bulk Modulus (GPa) = 56.74720 71.94839 64.34780
# Shear Modulus (GPa) = 32.69267 43.95303 38.32285
#
# Velocity S-wave (km/s) = 3.57900 4.14984 3.87495
# Velocity P-wave (km/s) = 6.27001 7.15203 6.72549
#
# Compressibility (1/GPa) = 0.01762201
#
# Stress axis : x y z
#
# Youngs Moduli (GPa) = 76.91272 103.06593 119.60268
#
# Poissons Ratio (x) = 0.36847 0.26610
# Poissons Ratio (y) = 0.27497 0.11024
# Poissons Ratio (z) = 0.17112 0.09500
#
# Static dielectric constant tensor:
#      x y z
#    x 2.040580 0.000000 0.023560 
#    y 0.000000 2.036520 0.000000 
#    z 0.023560 0.000000 2.091260 
# 
# From -- ./inp_files/310798.got.cif
#   From: 2010.05.17/outbox.cif.g08.bks.cpg/sg15_156_cif.got.tgz:310798.got - 2010.06.03 18:47:42.
