data_PCOD9265748
_publ_section_title
;
Structure prediction by ZEFSAII (Michael W. Deem and Ramdas Pophale) SiO2 
 PCOD9265748
Probable space group: C 2/C
;
_chemical_formula_sum "Si O2"
_cell_formula_units_Z 44
_cell_length_a 9.239613
_cell_length_b 28.185158
_cell_length_c 8.606587
_cell_angle_alpha 90.000000
_cell_angle_beta 73.264817
_cell_angle_gamma 90.000000
_cell_volume 2146.397494
_symmetry_space_group_name_H-M "C 2/C"
_symmetry_group_IT_number 15
_symmetry_cell_setting 'monoclinic'
loop_
_space_group_symop_operation_xyz
x,y,z
-x,y,1/2-z
-x,-y,-z
x,-y,1/2+z
1/2+x,1/2+y,z
1/2-x,1/2+y,1/2-z
1/2-x,1/2-y,-z
1/2+x,1/2-y,1/2+z
loop_
_atom_site_type_symbol
_atom_site_label
_atom_site_fract_x
_atom_site_fract_y
_atom_site_fract_z
Si Si1 0.500000 0.487190 0.750000
Si Si2 0.039699 0.844741 0.551105
Si Si3 0.023813 0.448226 0.562583
Si Si4 0.397265 0.139791 0.936262
Si Si5 0.931102 0.258179 0.445264
Si Si6 0.859225 0.064681 0.020312
O O1 0.576228 0.522473 0.604894
O O2 0.618688 0.455158 0.809937
O O3 0.217872 0.853679 0.467128
O O4 0.003440 0.790875 0.507222
O O5 0.000000 0.846626 0.750000
O O6 0.949018 0.886111 0.493588
O O7 0.193841 0.428695 0.502463
O O8 0.000000 0.454097 0.750000
O O9 0.000000 0.500000 0.500000
O O10 0.918471 0.408297 0.523444
O O11 0.500000 0.135055 0.750000
O O12 0.452183 0.188635 0.003764
O O13 0.750000 0.250000 0.500000
O O14 0.000000 0.260750 0.250000
#
# Coordination Sequence:
#
# PCOD9265748 Si02
#       6
#     4   8   8   8   8   8
#     4  10  24  38  60  80 118 152 202 244 294 342
#     4  10  19  36  65  89 116 158 210 248 295 358
#     4  12  26  40  60  88 126 160 198 244 310 363
#     4  10  22  39  62  89 124 159 202 248 304 360
#     4   8  16  33  58  88 114 154 202 245 294 359
#     4  11  23  39  60  85 117 156 202 246 297 354
#
# _framework density 20.499466000000002
#
# number of rings (size 3 to 8) (size 9 to 14) (size 15 to 20)
#    0.000    1.818    0.909    2.727    7.636    0.000 
#    0.000    0.909    2.000    0.000    0.000    0.000 
#    0.000    0.000    0.000    0.000    0.000    0.000 
#
# Total GULP energy -122605.589031 kJ/mol
# GULP energy per Si atom -5572.981320 kJ/mol
# Density = 2.045281 g / cm^3
# Si number density = 20.499466 Si / 1000 Ang^3
#
#
#
# Elastic Constant Matrix: (Units=GPa)
#
#
# Indices 1 2 3 4 5 6 
#
# 1 68.8727 36.8775 9.6854 0.0000 -13.9322 0.0000
# 2 36.8775 213.7737 21.1464 0.0000 15.5718 0.0000
# 3 9.6854 21.1464 63.7925 0.0000 -14.7737 0.0000
# 4 0.0000 0.0000 0.0000 34.1572 0.0000 -1.6848
# 5 -13.9322 15.5718 -14.7737 0.0000 28.4009 0.0000
# 6 0.0000 0.0000 0.0000 -1.6848 0.0000 14.5958
#
#
#
# Elastic Compliance Matrix: (Units=1/GPa)
#
#
# Indices 1 2 3 4 5 6 
#
# 1 0.019198 -0.004370 0.001444 0.000000 0.012565 0.000000
# 2 -0.004370 0.006258 -0.003072 0.000000 -0.007173 0.000000
# 3 0.001444 -0.003072 0.019362 0.000000 0.012464 0.000000
# 4 0.000000 0.000000 0.000000 0.029444 0.000000 0.003399
# 5 0.012565 -0.007173 0.012464 0.000000 0.051790 0.000000
# 6 0.000000 0.000000 0.000000 0.003399 0.000000 0.068905
#
#
# Mechanical properties :
#
#
# Convention : Reuss Voigt Hill
#
# Bulk Modulus (GPa) = 30.46848 53.53973 42.00410
# Shear Modulus (GPa) = 22.94692 34.01277 28.47985
#
# Velocity S-wave (km/s) = 3.34936 4.07775 3.73137
# Velocity P-wave (km/s) = 5.46378 6.95306 6.25292
#
# Compressibility (1/GPa) = 0.03282081
#
# Stress axis : x y z
#
# Youngs Moduli (GPa) = 52.08876 159.79383 51.64858
#
# Poissons Ratio (x) = 0.69827 -0.07456
# Poissons Ratio (y) = 0.22762 0.15867
# Poissons Ratio (z) = -0.07519 0.49092
#
# Static dielectric constant tensor:
#      x y z
#    x 1.664890 0.000000 0.025310 
#    y 0.000000 1.740530 0.000000 
#    z 0.025310 0.000000 1.690650 
# 
# From -- ./inp_files/25559.got.cif
#   From: 2010.05.17/outbox.cif.g08.bks.cpg/sg15_13_cif.got.tgz:25559.got - 2010.06.03 18:47:42.
