data_PCOD9265104
_publ_section_title
;
Structure prediction by ZEFSAII (Michael W. Deem and Ramdas Pophale) SiO2 
 PCOD9265104
Probable space group: C 2/C
;
_chemical_formula_sum "Si O2"
_cell_formula_units_Z 48
_cell_length_a 6.986899
_cell_length_b 15.088870
_cell_length_c 25.665055
_cell_angle_alpha 90.000000
_cell_angle_beta 48.657236
_cell_angle_gamma 90.000000
_cell_volume 2031.379445
_symmetry_space_group_name_H-M "C 2/C"
_symmetry_group_IT_number 15
_symmetry_cell_setting 'monoclinic'
loop_
_space_group_symop_operation_xyz
x,y,z
-x,y,1/2-z
-x,-y,-z
x,-y,1/2+z
1/2+x,1/2+y,z
1/2-x,1/2+y,1/2-z
1/2-x,1/2-y,-z
1/2+x,1/2-y,1/2+z
loop_
_atom_site_type_symbol
_atom_site_label
_atom_site_fract_x
_atom_site_fract_y
_atom_site_fract_z
Si Si1 0.476841 0.914835 0.848559
Si Si2 0.575715 0.221146 0.580430
Si Si3 0.481231 0.270692 0.190940
Si Si4 0.340547 0.458484 0.225794
Si Si5 0.781659 0.532539 0.963191
Si Si6 0.923151 0.093106 0.396594
O O1 0.611304 0.820462 0.818153
O O2 0.188762 0.898463 0.881580
O O3 0.595460 0.987201 0.788475
O O4 0.464211 0.955841 0.908489
O O5 0.750000 0.250000 0.500000
O O6 0.275466 0.211060 0.621275
O O7 0.663136 0.122552 0.578969
O O8 0.617799 0.304113 0.611769
O O9 0.500000 0.254128 0.250000
O O10 0.318250 0.358569 0.209014
O O11 0.500000 0.446534 0.250000
O O12 0.503546 0.521272 0.159089
O O13 0.500000 0.500000 0.000000
O O14 0.778578 0.558569 0.024351
#
# Coordination Sequence:
#
# PCOD9265104 Si02
#       6
#     8   8   8   8   8   8
#     4  10  19  36  58  79 106 146 189 229 269 334
#     4   9  17  34  58  81 107 148 189 218 267 344
#     4  10  20  35  56  79 108 150 191 225 275 344
#     4  11  22  36  54  82 114 145 183 233 284 328
#     4   9  17  31  56  86 109 136 183 233 272 319
#     4   9  19  36  59  81 107 147 189 224 270 333
#
# _framework density 23.629263999999999
#
# number of rings (size 3 to 8) (size 9 to 14) (size 15 to 20)
#    0.000    2.333    0.000    5.500    0.000    0.000 
#    0.000   13.333    0.000    1.000    0.000    0.000 
#    0.000    0.000    0.000    0.000    0.000    0.000 
#
# Total GULP energy -133970.293746 kJ/mol
# GULP energy per Si atom -5582.095573 kJ/mol
# Density = 2.357548 g / cm^3
# Si number density = 23.629264 Si / 1000 Ang^3
#
#
#
# Elastic Constant Matrix: (Units=GPa)
#
#
# Indices 1 2 3 4 5 6 
#
# 1 25.5747 4.7631 2.6276 0.0018 -2.9848 -0.0007
# 2 4.7631 244.1999 68.4372 0.0011 7.4738 -0.0018
# 3 2.6276 68.4372 116.9422 0.0003 3.2367 0.0001
# 4 0.0018 0.0011 0.0003 43.5048 -0.0013 -2.6380
# 5 -2.9848 7.4738 3.2367 -0.0013 36.3152 0.0003
# 6 -0.0007 -0.0018 0.0001 -2.6380 0.0003 25.4115
#
#
#
# Elastic Compliance Matrix: (Units=1/GPa)
#
#
# Indices 1 2 3 4 5 6 
#
# 1 0.039698 -0.000722 -0.000565 -0.000002 0.003462 0.000001
# 2 -0.000722 0.004932 -0.002848 0.000000 -0.000821 0.000000
# 3 -0.000565 -0.002848 0.010241 0.000000 -0.000373 0.000000
# 4 -0.000002 0.000000 0.000000 0.023132 0.000001 0.002401
# 5 0.003462 -0.000821 -0.000373 0.000001 0.028023 0.000000
# 6 0.000001 0.000000 0.000000 0.002401 0.000000 0.039601
#
#
# Mechanical properties :
#
#
# Convention : Reuss Voigt Hill
#
# Bulk Modulus (GPa) = 21.45868 59.81917 40.63893
# Shear Modulus (GPa) = 29.51070 41.77223 35.64147
#
# Velocity S-wave (km/s) = 3.53782 4.20910 3.88798
# Velocity P-wave (km/s) = 5.07832 6.99948 6.11482
#
# Compressibility (1/GPa) = 0.04660118
#
# Stress axis : x y z
#
# Youngs Moduli (GPa) = 25.19040 202.74861 97.64968
#
# Poissons Ratio (x) = 0.14634 0.05521
# Poissons Ratio (y) = 0.01818 0.27806
# Poissons Ratio (z) = 0.01424 0.57733
#
# Static dielectric constant tensor:
#      x y z
#    x 1.972980 0.000000 -0.015300 
#    y 0.000000 1.987720 0.000000 
#    z -0.015300 0.000000 1.913500 
# 
# From -- ./inp_files/287549.got.cif
#   From: 2010.05.17/outbox.cif.g08.bks.cpg/sg15_144_cif.got.tgz:287549.got - 2010.06.03 18:47:42.
