data_PCOD9265184
_publ_section_title
;
Structure prediction by ZEFSAII (Michael W. Deem and Ramdas Pophale) SiO2 
 PCOD9265184
Probable space group: C 2/C
;
_chemical_formula_sum "Si O2"
_cell_formula_units_Z 60
_cell_length_a 11.561755
_cell_length_b 15.865461
_cell_length_c 21.401460
_cell_angle_alpha 90.000000
_cell_angle_beta 134.413618
_cell_angle_gamma 90.000000
_cell_volume 2804.170262
_symmetry_space_group_name_H-M "C 2/C"
_symmetry_group_IT_number 15
_symmetry_cell_setting 'monoclinic'
loop_
_space_group_symop_operation_xyz
x,y,z
-x,y,1/2-z
-x,-y,-z
x,-y,1/2+z
1/2+x,1/2+y,z
1/2-x,1/2+y,1/2-z
1/2-x,1/2-y,-z
1/2+x,1/2-y,1/2+z
loop_
_atom_site_type_symbol
_atom_site_label
_atom_site_fract_x
_atom_site_fract_y
_atom_site_fract_z
Si Si1 0.741076 0.594144 0.086784
Si Si2 0.668142 0.855634 0.573676
Si Si3 0.000000 0.220116 0.250000
Si Si4 0.676041 0.532911 0.454426
Si Si5 0.746692 0.825543 0.282115
Si Si6 0.406046 0.320241 0.480664
Si Si7 0.573437 0.161641 0.172520
Si Si8 0.805052 0.987937 0.801171
O O1 0.723180 0.525144 0.135044
O O2 0.912862 0.639613 0.149427
O O3 0.718245 0.545922 0.013193
O O4 0.593979 0.657764 0.042003
O O5 0.849628 0.833331 0.667805
O O6 0.691012 0.942297 0.546273
O O7 0.618312 0.777085 0.511608
O O8 0.551941 0.849698 0.589623
O O9 0.073419 0.280802 0.224421
O O10 0.658994 0.614023 0.493474
O O11 0.495666 0.518186 0.359785
O O12 0.818021 0.831648 0.380155
O O13 0.859543 0.755961 0.291367
O O14 0.743010 0.920560 0.256517
O O15 0.708827 0.091565 0.238325
#
# Coordination Sequence:
#
# PCOD9265184 Si02
#       8
#     8   8   4   8   8   8   8   8
#     4  11  21  37  62  89 118 153 200 249 297 349
#     4  10  21  36  56  85 123 157 195 243 305 358
#     4   8  18  32  54  80 112 152 198 240 290 348
#     4  11  19  35  62  88 118 153 198 249 296 353
#     4  10  19  36  58  89 114 153 201 243 301 343
#     4   9  18  36  56  89 111 150 199 245 291 347
#     4  10  24  37  59  88 125 157 199 244 303 358
#     4  11  21  39  63  87 119 156 205 254 289 350
#
# _framework density 21.396702000000001
#
# number of rings (size 3 to 8) (size 9 to 14) (size 15 to 20)
#    0.000    2.133    2.667    3.200    1.867    2.667 
#    0.000    2.667    5.867    0.000    0.000    0.000 
#    0.000    0.000    0.000    0.000    0.000    0.000 
#
# Total GULP energy -167476.916547 kJ/mol
# GULP energy per Si atom -5582.563885 kJ/mol
# Density = 2.134800 g / cm^3
# Si number density = 21.396702 Si / 1000 Ang^3
#
#
#
# Elastic Constant Matrix: (Units=GPa)
#
#
# Indices 1 2 3 4 5 6 
#
# 1 59.2078 24.6260 5.4535 0.0000 16.8518 0.0000
# 2 24.6260 78.3832 12.1071 0.0000 9.3738 0.0000
# 3 5.4535 12.1071 25.9348 0.0000 8.6567 0.0000
# 4 0.0000 0.0000 0.0000 11.3139 0.0000 -13.4420
# 5 16.8518 9.3738 8.6567 0.0000 16.6659 0.0000
# 6 0.0000 0.0000 0.0000 -13.4420 0.0000 15.5194
#
#
#
# Elastic Compliance Matrix: (Units=1/GPa)
#
#
# Indices 1 2 3 4 5 6 
#
# 1 0.026373 -0.006069 0.006108 0.000000 -0.026426 0.000000
# 2 -0.006069 0.015547 -0.006183 0.000000 0.000604 0.000000
# 3 0.006108 -0.006183 0.049673 0.000000 -0.028500 0.000000
# 4 0.000000 0.000000 0.000000 -3.040887 0.000000 -2.633852
# 5 -0.026426 0.000604 -0.028500 0.000000 0.101188 0.000000
# 6 0.000000 0.000000 0.000000 -2.633852 0.000000 -2.216865
#
#
# Mechanical properties :
#
#
# Convention : Reuss Voigt Hill
#
# Bulk Modulus (GPa) = 12.60945 27.54433 20.07689
# Shear Modulus (GPa) = -0.99478 16.78912 7.89717
#
# Velocity S-wave (km/s) = -0.68259 2.80422 1.92324
# Velocity P-wave (km/s) = 2.29885 4.83590 3.78620
#
# Compressibility (1/GPa) = 0.07930560
#
# Stress axis : x y z
#
# Youngs Moduli (GPa) = 37.91804 64.31949 20.13155
#
# Poissons Ratio (x) = 0.39034 -0.12297
# Poissons Ratio (y) = 0.23012 0.12448
# Poissons Ratio (z) = -0.23161 0.39771
#
# Static dielectric constant tensor:
#      x y z
#    x 1.814420 0.000000 -0.052440 
#    y 0.000000 1.798370 0.000000 
#    z -0.052440 0.000000 1.814460 
# 
# From -- ./inp_files/270633.got.cif
#   From: 2010.05.17/outbox.cif.g08.bks.cpg/sg15_136_cif.got.tgz:270633.got - 2010.06.03 18:47:42.
