data_PCOD9265967
_publ_section_title
;
Structure prediction by ZEFSAII (Michael W. Deem and Ramdas Pophale) SiO2 
 PCOD9265967
Probable space group: C 2/C
;
_chemical_formula_sum "Si O2"
_cell_formula_units_Z 64
_cell_length_a 13.685910
_cell_length_b 17.883928
_cell_length_c 33.731483
_cell_angle_alpha 90.000000
_cell_angle_beta 155.044587
_cell_angle_gamma 90.000000
_cell_volume 3483.331321
_symmetry_space_group_name_H-M "C 2/C"
_symmetry_group_IT_number 15
_symmetry_cell_setting 'monoclinic'
loop_
_space_group_symop_operation_xyz
x,y,z
-x,y,1/2-z
-x,-y,-z
x,-y,1/2+z
1/2+x,1/2+y,z
1/2-x,1/2+y,1/2-z
1/2-x,1/2-y,-z
1/2+x,1/2-y,1/2+z
loop_
_atom_site_type_symbol
_atom_site_label
_atom_site_fract_x
_atom_site_fract_y
_atom_site_fract_z
Si Si1 0.230291 0.340753 0.752253
Si Si2 0.719552 0.981396 0.801584
Si Si3 0.695931 0.855962 0.959127
Si Si4 0.917202 0.775939 0.674055
Si Si5 0.060264 0.803465 0.227153
Si Si6 0.584133 0.882545 0.200305
Si Si7 0.387355 0.786039 0.491715
Si Si8 0.852933 0.015864 0.985654
O O1 0.194369 0.420853 0.757970
O O2 0.465375 0.329724 0.815071
O O3 0.187184 0.277261 0.769507
O O4 0.039377 0.328813 0.648077
O O5 0.500000 0.976561 0.750000
O O6 0.953464 0.961350 0.911062
O O7 0.710805 0.063184 0.778473
O O8 0.876686 0.794044 0.010470
O O9 0.665368 0.848239 0.994538
O O10 0.754151 0.937487 0.965137
O O11 0.996218 0.692650 0.689752
O O12 0.644981 0.789218 0.570722
O O13 0.000000 0.788429 0.750000
O O14 0.232292 0.858726 0.266278
O O15 0.000000 0.823760 0.250000
O O16 0.814876 0.793268 0.114663
O O17 0.357937 0.927196 0.100653
O O18 0.000000 0.000000 0.000000
#
# Coordination Sequence:
#
# PCOD9265967 Si02
#       8
#     8   8   8   8   8   8   8   8
#     4  10  21  39  61  89 120 160 201 252 311 364
#     4  12  23  39  61  91 127 160 199 253 310 367
#     4  10  19  37  58  88 122 152 204 249 308 369
#     4  11  22  37  63  93 122 156 207 261 306 364
#     4  10  23  42  62  85 124 167 205 254 307 371
#     4  11  24  40  62  95 124 161 209 256 314 371
#     4  10  21  36  64  90 115 162 208 259 305 365
#     4  12  23  37  60  91 126 164 198 252 314 375
#
# _framework density 18.373215999999999
#
# number of rings (size 3 to 8) (size 9 to 14) (size 15 to 20)
#    0.000    1.250    3.750    2.250    3.500    4.000 
#    0.000    4.375    0.000    3.000    0.000    0.000 
#    0.000    0.000    0.000    0.000    0.000    0.000 
#
# Total GULP energy -178609.245683 kJ/mol
# GULP energy per Si atom -5581.538928 kJ/mol
# Density = 1.833140 g / cm^3
# Si number density = 18.373216 Si / 1000 Ang^3
#
#
#
# Elastic Constant Matrix: (Units=GPa)
#
#
# Indices 1 2 3 4 5 6 
#
# 1 144.5929 39.2279 40.4998 -0.0001 17.1823 0.0000
# 2 39.2279 55.3429 -5.7337 0.0008 4.2617 -0.0001
# 3 40.4998 -5.7337 80.9655 0.0037 9.0190 -0.0001
# 4 -0.0001 0.0008 0.0037 25.3636 0.0000 -3.1055
# 5 17.1823 4.2617 9.0190 0.0000 37.7319 -0.0001
# 6 0.0000 -0.0001 -0.0001 -3.1055 -0.0001 17.3171
#
#
#
# Elastic Compliance Matrix: (Units=1/GPa)
#
#
# Indices 1 2 3 4 5 6 
#
# 1 0.011125 -0.008281 -0.005847 0.000001 -0.002733 0.000000
# 2 -0.008281 0.024586 0.005930 -0.000002 -0.000424 0.000000
# 3 -0.005847 0.005930 0.015897 -0.000003 -0.001807 0.000000
# 4 0.000001 -0.000002 -0.000003 0.040312 0.000000 0.007229
# 5 -0.002733 -0.000424 -0.001807 0.000000 0.028227 0.000000
# 6 0.000000 0.000000 0.000000 0.007229 0.000000 0.059043
#
#
# Mechanical properties :
#
#
# Convention : Reuss Voigt Hill
#
# Bulk Modulus (GPa) = 28.39843 47.65434 38.02638
# Shear Modulus (GPa) = 24.11711 29.87633 26.99672
#
# Velocity S-wave (km/s) = 3.62694 4.03684 3.83737
# Velocity P-wave (km/s) = 5.74714 6.90806 6.35417
#
# Compressibility (1/GPa) = 0.03521322
#
# Stress axis : x y z
#
# Youngs Moduli (GPa) = 89.88747 40.67389 62.90550
#
# Poissons Ratio (x) = 0.33681 0.36780
# Poissons Ratio (y) = 0.74435 -0.37306
# Poissons Ratio (z) = 0.52556 -0.24121
#
# Static dielectric constant tensor:
#      x y z
#    x 1.632120 0.000000 0.012600 
#    y 0.000000 1.622530 0.000000 
#    z 0.012600 0.000000 1.682030 
# 
# From -- ./inp_files/311677.got.cif
#   From: 2010.05.17/outbox.cif.g08.bks.cpg/sg15_156_cif.got.tgz:311677.got - 2010.06.03 18:47:42.
