data_PCOD9265649
_publ_section_title
;
Structure prediction by ZEFSAII (Michael W. Deem and Ramdas Pophale) SiO2 
 PCOD9265649
Probable space group: C 2/C
;
_chemical_formula_sum "Si O2"
_cell_formula_units_Z 60
_cell_length_a 11.562458
_cell_length_b 10.059979
_cell_length_c 20.451500
_cell_angle_alpha 90.000000
_cell_angle_beta 93.179000
_cell_angle_gamma 90.000000
_cell_volume 2375.218586
_symmetry_space_group_name_H-M "C 2/C"
_symmetry_group_IT_number 15
_symmetry_cell_setting 'monoclinic'
loop_
_space_group_symop_operation_xyz
x,y,z
-x,y,1/2-z
-x,-y,-z
x,-y,1/2+z
1/2+x,1/2+y,z
1/2-x,1/2+y,1/2-z
1/2-x,1/2-y,-z
1/2+x,1/2-y,1/2+z
loop_
_atom_site_type_symbol
_atom_site_label
_atom_site_fract_x
_atom_site_fract_y
_atom_site_fract_z
Si Si1 0.221494 0.047484 0.626203
Si Si2 0.242631 0.350395 0.595866
Si Si3 0.426877 0.129683 0.306653
Si Si4 0.871206 0.517456 0.018781
Si Si5 0.374686 0.741799 0.593267
Si Si6 0.524863 0.536538 0.392462
Si Si7 0.761011 0.807442 0.790637
Si Si8 0.000000 0.871701 0.750000
O O1 0.201301 0.202305 0.612314
O O2 0.339554 0.022909 0.591255
O O3 0.108999 0.971688 0.591810
O O4 0.238072 0.968417 0.694684
O O5 0.174805 0.433522 0.651068
O O6 0.201907 0.420327 0.528833
O O7 0.382050 0.347633 0.594340
O O8 0.500000 0.059985 0.250000
O O9 0.519597 0.193582 0.359875
O O10 0.345630 0.226950 0.259783
O O11 0.853871 0.674817 0.026984
O O12 0.000000 0.500000 0.000000
O O13 0.412916 0.593835 0.579298
O O14 0.266570 0.745491 0.639784
O O15 0.520889 0.536414 0.313382
O O16 0.885904 0.784741 0.762681
#
# Coordination Sequence:
#
# PCOD9265649 Si02
#       8
#     8   8   8   8   8   8   8   4
#     4  10  23  43  64  94 127 169 215 272 323 380
#     4  12  23  41  68  95 124 175 221 261 327 393
#     4  10  19  36  63  90 122 162 211 254 324 385
#     4  11  22  42  69  92 129 168 218 270 327 394
#     4  10  21  39  64  91 124 166 211 267 326 383
#     4  11  23  39  65  93 126 170 221 262 332 391
#     4   9  20  35  63  89 125 162 211 263 322 385
#     4  10  20  36  56  88 124 160 208 260 312 396
#
# _framework density 25.260832000000001
#
# number of rings (size 3 to 8) (size 9 to 14) (size 15 to 20)
#    0.000    1.600    4.000    0.400    2.800    1.067 
#    0.000    4.000    8.800    0.000    0.000    0.000 
#    0.000    0.000    0.000    0.000    0.000    0.000 
#
# Total GULP energy -167127.847376 kJ/mol
# GULP energy per Si atom -5570.928246 kJ/mol
# Density = 2.520334 g / cm^3
# Si number density = 25.260832 Si / 1000 Ang^3
#
#
#
# Elastic Constant Matrix: (Units=GPa)
#
#
# Indices 1 2 3 4 5 6 
#
# 1 157.2612 43.2910 23.3088 0.0000 -20.3937 0.0000
# 2 43.2910 44.0750 -10.5758 0.0000 8.4826 0.0000
# 3 23.3088 -10.5758 42.4336 0.0000 -11.7198 0.0000
# 4 0.0000 0.0000 0.0000 7.5474 0.0000 2.7930
# 5 -20.3937 8.4826 -11.7198 0.0000 40.0248 0.0000
# 6 0.0000 0.0000 0.0000 2.7930 0.0000 26.3893
#
#
#
# Elastic Compliance Matrix: (Units=1/GPa)
#
#
# Indices 1 2 3 4 5 6 
#
# 1 0.013411 -0.016916 -0.009471 0.000000 0.007645 0.000000
# 2 -0.016916 0.045969 0.017057 0.000000 -0.013367 0.000000
# 3 -0.009471 0.017057 0.033389 0.000000 0.001336 0.000000
# 4 0.000000 0.000000 0.000000 0.137896 0.000000 -0.014595
# 5 0.007645 -0.013367 0.001336 0.000000 0.032104 0.000000
# 6 0.000000 0.000000 0.000000 -0.014595 0.000000 0.039439
#
#
# Mechanical properties :
#
#
# Convention : Reuss Voigt Hill
#
# Bulk Modulus (GPa) = 13.49371 39.53531 26.51451
# Shear Modulus (GPa) = 14.46885 27.30870 20.88877
#
# Velocity S-wave (km/s) = 2.39587 3.29153 2.87875
# Velocity P-wave (km/s) = 3.60652 5.48911 4.64421
#
# Compressibility (1/GPa) = 0.07410859
#
# Stress axis : x y z
#
# Youngs Moduli (GPa) = 74.56752 21.75372 29.95022
#
# Poissons Ratio (x) = 0.36799 0.28366
# Poissons Ratio (y) = 1.26139 -0.51086
# Poissons Ratio (z) = 0.70623 -0.37105
#
# Static dielectric constant tensor:
#      x y z
#    x 2.083510 0.000000 0.018830 
#    y 0.000000 2.111370 0.000000 
#    z 0.018830 0.000000 2.031330 
# 
# From -- ./inp_files/237608.got.cif
#   From: 2010.05.17/outbox.cif.g08.bks.cpg/sg15_119_cif.got.tgz:237608.got - 2010.06.03 18:47:42.
