data_PCOD9265889
_publ_section_title
;
Structure prediction by ZEFSAII (Michael W. Deem and Ramdas Pophale) SiO2 
 PCOD9265889
Probable space group: C 2/C
;
_chemical_formula_sum "Si O2"
_cell_formula_units_Z 44
_cell_length_a 21.696866
_cell_length_b 18.040545
_cell_length_c 14.119095
_cell_angle_alpha 90.000000
_cell_angle_beta 161.872850
_cell_angle_gamma 90.000000
_cell_volume 1719.455526
_symmetry_space_group_name_H-M "C 2/C"
_symmetry_group_IT_number 15
_symmetry_cell_setting 'monoclinic'
loop_
_space_group_symop_operation_xyz
x,y,z
-x,y,1/2-z
-x,-y,-z
x,-y,1/2+z
1/2+x,1/2+y,z
1/2-x,1/2+y,1/2-z
1/2-x,1/2-y,-z
1/2+x,1/2-y,1/2+z
loop_
_atom_site_type_symbol
_atom_site_label
_atom_site_fract_x
_atom_site_fract_y
_atom_site_fract_z
Si Si1 0.108596 0.188181 0.637435
Si Si2 0.529180 0.165577 0.461231
Si Si3 0.211279 0.474461 0.849855
Si Si4 0.217345 0.864569 0.984839
Si Si5 0.890344 0.944396 0.910400
Si Si6 0.500000 0.888072 0.250000
O O1 0.081659 0.265498 0.652031
O O2 0.012201 0.130264 0.570362
O O3 0.333289 0.177576 0.929927
O O4 0.968868 0.171926 0.339814
O O5 0.366032 0.100318 0.212183
O O6 0.699577 0.149618 0.789958
O O7 0.290572 0.544799 0.025638
O O8 0.351208 0.460165 0.963368
O O9 0.000000 0.500000 0.500000
O O10 0.395538 0.840251 0.176697
O O11 0.668405 0.934882 0.546380
O O12 0.000000 0.000000 0.000000
#
# Coordination Sequence:
#
# PCOD9265889 Si02
#       6
#     8   8   8   8   8   4
#     4  11  24  35  59  92 125 168 211 260 327 389
#     4  11  21  37  57  85 129 167 204 258 322 384
#     4  10  19  37  57  80 124 169 209 253 310 385
#     4  10  21  35  56  83 127 165 209 255 318 381
#     4  11  21  37  58  85 124 161 221 265 321 384
#     4  10  20  34  56  84 118 158 208 262 316 358
#
# _framework density 25.589496
#
# number of rings (size 3 to 8) (size 9 to 14) (size 15 to 20)
#    0.000    1.455    3.636    4.364    2.545    1.455 
#    0.000    0.000    0.000    0.000    0.000    5.091 
#   16.364    0.000    0.000    0.000    0.000    0.000 
#
# Total GULP energy -122869.338426 kJ/mol
# GULP energy per Si atom -5584.969928 kJ/mol
# Density = 2.553125 g / cm^3
# Si number density = 25.589496 Si / 1000 Ang^3
#
#
#
# Elastic Constant Matrix: (Units=GPa)
#
#
# Indices 1 2 3 4 5 6 
#
# 1 123.0756 22.3253 69.1163 0.0000 33.7083 0.0000
# 2 22.3253 147.3165 25.6094 0.0000 18.1965 0.0000
# 3 69.1163 25.6094 121.4064 0.0000 4.4790 0.0000
# 4 0.0000 0.0000 0.0000 -12.4333 0.0000 13.3688
# 5 33.7083 18.1965 4.4790 0.0000 75.5203 0.0000
# 6 0.0000 0.0000 0.0000 13.3688 0.0000 35.4351
#
#
#
# Elastic Compliance Matrix: (Units=1/GPa)
#
#
# Indices 1 2 3 4 5 6 
#
# 1 0.014116 -0.000063 -0.007808 0.000000 -0.005822 0.000000
# 2 -0.000063 0.007249 -0.001433 0.000000 -0.001634 0.000000
# 3 -0.007808 -0.001433 0.012871 0.000000 0.003067 0.000000
# 4 0.000000 0.000000 0.000000 -0.057218 0.000000 0.021587
# 5 -0.005822 -0.001634 0.003067 0.000000 0.016052 0.000000
# 6 0.000000 0.000000 0.000000 0.021587 0.000000 0.020076
#
#
# Mechanical properties :
#
#
# Convention : Reuss Voigt Hill
#
# Bulk Modulus (GPa) = 63.98848 69.54451 66.76650
# Shear Modulus (GPa) = 135.27044 38.02093 86.64569
#
# Velocity S-wave (km/s) = 7.27849 3.85879 5.82524
# Velocity P-wave (km/s) = 9.78240 6.86219 8.44941
#
# Compressibility (1/GPa) = 0.01562781
#
# Stress axis : x y z
#
# Youngs Moduli (GPa) = 70.84157 137.95951 77.69347
#
# Poissons Ratio (x) = 0.00865 0.60664
# Poissons Ratio (y) = 0.00444 0.11134
# Poissons Ratio (z) = 0.55314 0.19770
#
# Static dielectric constant tensor:
#      x y z
#    x 1.998270 0.000000 -0.058140 
#    y 0.000000 0.060790 0.000000 
#    z -0.058140 0.000000 2.028790 
# 
# From -- ./inp_files/219757.got.cif
#   From: 2010.05.17/outbox.cif.g08.bks.cpg/sg15_110_cif.got.tgz:219757.got - 2010.06.03 18:47:42.
