data_PCOD9265966
_publ_section_title
;
Structure prediction by ZEFSAII (Michael W. Deem and Ramdas Pophale) SiO2 
 PCOD9265966
Probable space group: C 2/C
;
_chemical_formula_sum "Si O2"
_cell_formula_units_Z 52
_cell_length_a 27.092780
_cell_length_b 4.904659
_cell_length_c 21.581968
_cell_angle_alpha 90.000000
_cell_angle_beta 50.361893
_cell_angle_gamma 90.000000
_cell_volume 2208.484848
_symmetry_space_group_name_H-M "C 2/C"
_symmetry_group_IT_number 15
_symmetry_cell_setting 'monoclinic'
loop_
_space_group_symop_operation_xyz
x,y,z
-x,y,1/2-z
-x,-y,-z
x,-y,1/2+z
1/2+x,1/2+y,z
1/2-x,1/2+y,1/2-z
1/2-x,1/2-y,-z
1/2+x,1/2-y,1/2+z
loop_
_atom_site_type_symbol
_atom_site_label
_atom_site_fract_x
_atom_site_fract_y
_atom_site_fract_z
Si Si1 0.666161 0.496000 0.711479
Si Si2 0.807711 0.496382 0.889124
Si Si3 0.407795 0.515200 0.528586
Si Si4 0.332625 0.758040 0.998717
Si Si5 0.405508 0.856169 0.143215
Si Si6 0.303175 0.112150 0.144356
Si Si7 0.000000 0.500000 0.500000
O O1 0.664149 0.801625 0.687790
O O2 0.607057 0.367266 0.795767
O O3 0.728163 0.443579 0.705315
O O4 0.680621 0.304745 0.640419
O O5 0.731988 0.425822 0.953506
O O6 0.837427 0.416193 0.930767
O O7 0.393812 0.415277 0.471013
O O8 0.433433 0.275234 0.554247
O O9 0.335806 0.591244 0.611527
O O10 0.450569 0.775474 0.503170
O O11 0.322782 0.963092 0.064378
O O12 0.339533 0.990422 0.174248
O O13 0.461631 0.071656 0.100046
#
# Coordination Sequence:
#
# PCOD9265966 Si02
#       7
#     8   8   8   8   8   8   4
#     4  11  23  36  56  93 128 163 194 252 320 389
#     4  10  22  35  58  88 129 165 201 246 312 381
#     4  10  19  37  58  88 113 160 207 261 308 368
#     4   9  19  35  56  86 123 162 206 249 300 381
#     4  10  23  36  60  85 125 160 204 258 321 383
#     4   9  20  32  56  87 123 156 196 243 318 377
#     4  10  22  40  60  86 114 160 218 262 310 366
#
# _framework density 23.545552000000001
#
# number of rings (size 3 to 8) (size 9 to 14) (size 15 to 20)
#    0.000    2.154    1.538    0.462    8.615    1.846 
#    0.000    0.000    0.000    0.923    0.000    0.000 
#    0.000    0.000    0.000    0.000    0.000    0.000 
#
# Total GULP energy -144937.169778 kJ/mol
# GULP energy per Si atom -5574.506530 kJ/mol
# Density = 2.349196 g / cm^3
# Si number density = 23.545552 Si / 1000 Ang^3
#
#
#
# Elastic Constant Matrix: (Units=GPa)
#
#
# Indices 1 2 3 4 5 6 
#
# 1 88.8316 26.8899 25.2974 0.0582 11.7504 -0.2080
# 2 26.8899 89.2456 5.0259 0.2842 8.7402 0.3533
# 3 25.2974 5.0259 73.6911 0.0785 5.1318 0.1004
# 4 0.0582 0.2842 0.0785 37.2288 -0.0034 -4.2202
# 5 11.7504 8.7402 5.1318 -0.0034 27.0731 0.0664
# 6 -0.2080 0.3533 0.1004 -4.2202 0.0664 39.6887
#
#
#
# Elastic Compliance Matrix: (Units=1/GPa)
#
#
# Indices 1 2 3 4 5 6 
#
# 1 0.014127 -0.003608 -0.004315 0.000029 -0.004149 0.000127
# 2 -0.003608 0.012514 0.000565 -0.000107 -0.002581 -0.000139
# 3 -0.004315 0.000565 0.015095 -0.000037 -0.001171 -0.000068
# 4 0.000029 -0.000107 -0.000037 0.027190 0.000025 0.002892
# 5 -0.004149 -0.002581 -0.001171 0.000025 0.039793 -0.000060
# 6 0.000127 -0.000139 -0.000068 0.002892 -0.000060 0.025506
#
#
# Mechanical properties :
#
#
# Convention : Reuss Voigt Hill
#
# Bulk Modulus (GPa) = 37.00910 40.68829 38.84870
# Shear Modulus (GPa) = 31.65629 33.76847 32.71238
#
# Velocity S-wave (km/s) = 3.67068 3.79116 3.73141
# Velocity P-wave (km/s) = 5.80667 6.04004 5.92450
#
# Compressibility (1/GPa) = 0.02702038
#
# Stress axis : x y z
#
# Youngs Moduli (GPa) = 70.78484 79.91115 66.24906
#
# Poissons Ratio (x) = 0.28831 0.28586
# Poissons Ratio (y) = 0.25538 -0.03744
# Poissons Ratio (z) = 0.30543 -0.04516
#
# Static dielectric constant tensor:
#      x y z
#    x 1.968830 -0.000150 -0.091640 
#    y -0.000150 2.029820 -0.000160 
#    z -0.091640 -0.000160 2.002520 
# 
# From -- ./inp_files/254302.got.cif
#   From: 2010.05.17/outbox.cif.g08.bks.cpg/sg15_128_cif.got.tgz:254302.got - 2010.06.03 18:47:42.
