data_PCOD9265554
_publ_section_title
;
Structure prediction by ZEFSAII (Michael W. Deem and Ramdas Pophale) SiO2 
 PCOD9265554
Probable space group: C 2/C
;
_chemical_formula_sum "Si O2"
_cell_formula_units_Z 32
_cell_length_a 20.518987
_cell_length_b 12.295137
_cell_length_c 14.093208
_cell_angle_alpha 90.000000
_cell_angle_beta 29.203474
_cell_angle_gamma 90.000000
_cell_volume 1734.767077
_symmetry_space_group_name_H-M "C 2/C"
_symmetry_group_IT_number 15
_symmetry_cell_setting 'monoclinic'
loop_
_space_group_symop_operation_xyz
x,y,z
-x,y,1/2-z
-x,-y,-z
x,-y,1/2+z
1/2+x,1/2+y,z
1/2-x,1/2+y,1/2-z
1/2-x,1/2-y,-z
1/2+x,1/2-y,1/2+z
loop_
_atom_site_type_symbol
_atom_site_label
_atom_site_fract_x
_atom_site_fract_y
_atom_site_fract_z
Si Si1 0.688562 0.628317 0.573019
Si Si2 0.971566 0.753311 0.451049
Si Si3 0.388761 0.972480 0.960260
Si Si4 0.798355 0.358780 0.730306
O O1 0.750000 0.750000 0.500000
O O2 0.760817 0.554306 0.558699
O O3 0.733985 0.594234 0.410032
O O4 0.540128 0.654121 0.798316
O O5 0.947879 0.642526 0.421934
O O6 0.824019 0.794967 0.664090
O O7 0.079454 0.720586 0.394047
O O8 0.500000 0.022931 0.750000
O O9 0.353494 0.047559 0.093220
#
# Coordination Sequence:
#
# PCOD9265554 Si02
#       4
#     8   8   8   8
#     4  10  19  36  62  87 114 149 198 250 281 341
#     4  11  20  41  60  88 119 153 196 245 290 347
#     4  12  21  37  62  90 115 156 201 240 294 354
#     4  11  23  35  65  89 117 153 201 244 292 347
#
# _framework density 18.446279000000001
#
# number of rings (size 3 to 8) (size 9 to 14) (size 15 to 20)
#    0.000    1.000   10.000    1.500    0.000    1.000 
#    0.000    1.250    0.000    0.000    0.000    0.000 
#    0.000    0.000    0.000    0.000    0.000    0.000 
#
# Total GULP energy -89155.891286 kJ/mol
# GULP energy per Si atom -5572.243205 kJ/mol
# Density = 1.840429 g / cm^3
# Si number density = 18.446279 Si / 1000 Ang^3
#
#
#
# Elastic Constant Matrix: (Units=GPa)
#
#
# Indices 1 2 3 4 5 6 
#
# 1 93.7536 44.8687 66.8617 0.0000 -9.3697 0.0000
# 2 44.8687 47.8244 53.6037 0.0000 10.2681 0.0000
# 3 66.8617 53.6037 115.7355 0.0000 -0.6175 0.0000
# 4 0.0000 0.0000 0.0000 21.5405 0.0000 6.5618
# 5 -9.3697 10.2681 -0.6175 0.0000 42.1831 0.0000
# 6 0.0000 0.0000 0.0000 6.5618 0.0000 26.5503
#
#
#
# Elastic Compliance Matrix: (Units=1/GPa)
#
#
# Indices 1 2 3 4 5 6 
#
# 1 0.024766 -0.019656 -0.005149 0.000000 0.010210 0.000000
# 2 -0.019656 0.064724 -0.018731 0.000000 -0.020395 0.000000
# 3 -0.005149 -0.018731 0.020310 0.000000 0.003713 0.000000
# 4 0.000000 0.000000 0.000000 0.050204 0.000000 -0.012408
# 5 0.010210 -0.020395 0.003713 0.000000 0.030993 0.000000
# 6 0.000000 0.000000 0.000000 -0.012408 0.000000 0.040731
#
#
# Mechanical properties :
#
#
# Convention : Reuss Voigt Hill
#
# Bulk Modulus (GPa) = 43.99792 65.33131 54.66462
# Shear Modulus (GPa) = 15.31971 24.18673 19.75322
#
# Velocity S-wave (km/s) = 2.88497 3.62498 3.27594
# Velocity P-wave (km/s) = 5.91618 7.28111 6.63384
#
# Compressibility (1/GPa) = 0.02272835
#
# Stress axis : x y z
#
# Youngs Moduli (GPa) = 40.37806 15.45013 49.23596
#
# Poissons Ratio (x) = 0.30369 0.25353
# Poissons Ratio (y) = 0.79367 0.92223
# Poissons Ratio (z) = 0.20792 0.28940
#
# Static dielectric constant tensor:
#      x y z
#    x 1.731260 0.000000 -0.031860 
#    y 0.000000 1.602870 0.000000 
#    z -0.031860 0.000000 1.700750 
# 
# From -- ./inp_files/83843.got.cif
#   From: 2010.05.17/outbox.cif.g08.bks.cpg/sg15_42_cif.got.tgz:83843.got - 2010.06.03 18:47:42.
