data_PCOD9265308
_publ_section_title
;
Structure prediction by ZEFSAII (Michael W. Deem and Ramdas Pophale) SiO2 
 PCOD9265308
Probable space group: C 2/C
;
_chemical_formula_sum "Si O2"
_cell_formula_units_Z 52
_cell_length_a 26.362982
_cell_length_b 13.508416
_cell_length_c 21.218223
_cell_angle_alpha 90.000000
_cell_angle_beta 20.210990
_cell_angle_gamma 90.000000
_cell_volume 2610.529622
_symmetry_space_group_name_H-M "C 2/C"
_symmetry_group_IT_number 15
_symmetry_cell_setting 'monoclinic'
loop_
_space_group_symop_operation_xyz
x,y,z
-x,y,1/2-z
-x,-y,-z
x,-y,1/2+z
1/2+x,1/2+y,z
1/2-x,1/2+y,1/2-z
1/2-x,1/2-y,-z
1/2+x,1/2-y,1/2+z
loop_
_atom_site_type_symbol
_atom_site_label
_atom_site_fract_x
_atom_site_fract_y
_atom_site_fract_z
Si Si1 0.634802 0.810655 0.176457
Si Si2 0.072685 0.596606 0.383126
Si Si3 0.355029 0.913964 0.029394
Si Si4 0.898090 0.817823 0.123056
Si Si5 0.000000 0.482337 0.250000
Si Si6 0.324506 0.719213 0.574386
Si Si7 0.806420 0.086598 0.205022
O O1 0.586424 0.910259 0.197379
O O2 0.484591 0.748470 0.360799
O O3 0.717716 0.825880 0.146323
O O4 0.750000 0.750000 0.000000
O O5 0.034836 0.706562 0.453844
O O6 0.238750 0.586626 0.213770
O O7 0.000000 0.500000 0.500000
O O8 0.008484 0.598218 0.387832
O O9 0.246695 0.821161 0.164661
O O10 0.261407 0.996579 0.176499
O O11 0.390461 0.951380 0.918866
O O12 0.850618 0.843240 0.107052
O O13 0.022059 0.893967 0.999245
O O14 0.253826 0.819915 0.684100
#
# Coordination Sequence:
#
# PCOD9265308 Si02
#       7
#     8   8   8   8   4   8   8
#     4  12  21  38  60  91 134 178 213 257 322 401
#     4   9  20  36  63  91 120 159 207 266 328 378
#     4  11  23  40  60  88 122 176 217 264 314 387
#     4  11  22  37  64  98 128 160 211 276 333 373
#     4  12  26  42  62  86 136 180 226 258 324 398
#     4  11  21  35  64  97 127 170 217 265 338 383
#     4  10  19  36  59  93 132 157 201 267 328 387
#
# _framework density 19.919331
#
# number of rings (size 3 to 8) (size 9 to 14) (size 15 to 20)
#    0.000    1.231    4.615    2.308    2.154    1.231 
#    0.000    0.769    0.000    0.000    0.000    0.000 
#    0.000    0.000    0.000    0.000    0.000    0.000 
#
# Total GULP energy -145019.684616 kJ/mol
# GULP energy per Si atom -5577.680178 kJ/mol
# Density = 1.987399 g / cm^3
# Si number density = 19.919331 Si / 1000 Ang^3
#
#
#
# Elastic Constant Matrix: (Units=GPa)
#
#
# Indices 1 2 3 4 5 6 
#
# 1 135.5968 33.5927 51.5466 0.0000 -23.8705 0.0000
# 2 33.5927 66.5305 24.5579 -0.0002 -2.5725 0.0001
# 3 51.5466 24.5579 111.0402 -0.0005 2.5129 0.0003
# 4 0.0000 -0.0002 -0.0005 27.4259 0.0003 3.2251
# 5 -23.8705 -2.5725 2.5129 0.0003 34.1668 -0.0002
# 6 0.0000 0.0001 0.0003 3.2251 -0.0002 30.6015
#
#
#
# Elastic Compliance Matrix: (Units=1/GPa)
#
#
# Indices 1 2 3 4 5 6 
#
# 1 0.011523 -0.003770 -0.004699 0.000000 0.008112 0.000000
# 2 -0.003770 0.017678 -0.002134 0.000000 -0.001146 0.000000
# 3 -0.004699 -0.002134 0.011756 0.000000 -0.004308 0.000000
# 4 0.000000 0.000000 0.000000 0.036919 -0.000001 -0.003891
# 5 0.008112 -0.001146 -0.004308 -0.000001 0.035167 0.000000
# 6 0.000000 0.000000 0.000000 -0.003891 0.000000 0.033088
#
#
# Mechanical properties :
#
#
# Convention : Reuss Voigt Hill
#
# Bulk Modulus (GPa) = 50.62816 59.17355 54.90086
# Shear Modulus (GPa) = 28.74871 32.00351 30.37611
#
# Velocity S-wave (km/s) = 3.80314 4.01266 3.90931
# Velocity P-wave (km/s) = 6.69007 7.15819 6.92808
#
# Compressibility (1/GPa) = 0.01975185
#
# Stress axis : x y z
#
# Youngs Moduli (GPa) = 86.78091 56.56897 85.05949
#
# Poissons Ratio (x) = 0.21327 0.39970
# Poissons Ratio (y) = 0.32718 0.18148
# Poissons Ratio (z) = 0.40779 0.12069
#
# Static dielectric constant tensor:
#      x y z
#    x 1.724970 0.000000 -0.034560 
#    y 0.000000 1.794780 0.000000 
#    z -0.034560 0.000000 1.703610 
# 
# From -- ./inp_files/257798.got.cif
#   From: 2010.05.17/outbox.cif.g08.bks.cpg/sg15_129_cif.got.tgz:257798.got - 2010.06.03 18:47:42.
