data_PCOD9265864
_publ_section_title
;
Structure prediction by ZEFSAII (Michael W. Deem and Ramdas Pophale) SiO2 
 PCOD9265864
Probable space group: C 2/C
;
_chemical_formula_sum "Si O2"
_cell_formula_units_Z 44
_cell_length_a 15.788560
_cell_length_b 27.195908
_cell_length_c 8.148607
_cell_angle_alpha 90.000000
_cell_angle_beta 40.619856
_cell_angle_gamma 90.000000
_cell_volume 2277.903558
_symmetry_space_group_name_H-M "C 2/C"
_symmetry_group_IT_number 15
_symmetry_cell_setting 'monoclinic'
loop_
_space_group_symop_operation_xyz
x,y,z
-x,y,1/2-z
-x,-y,-z
x,-y,1/2+z
1/2+x,1/2+y,z
1/2-x,1/2+y,1/2-z
1/2-x,1/2-y,-z
1/2+x,1/2-y,1/2+z
loop_
_atom_site_type_symbol
_atom_site_label
_atom_site_fract_x
_atom_site_fract_y
_atom_site_fract_z
Si Si1 0.393058 0.568449 0.201440
Si Si2 0.000000 0.018884 0.750000
Si Si3 0.436239 0.341389 0.081695
Si Si4 0.141280 0.365479 0.087147
Si Si5 0.265215 0.786498 0.322910
Si Si6 0.689365 0.691966 0.405192
O O1 0.415119 0.518092 0.265260
O O2 0.258223 0.595531 0.437029
O O3 0.405136 0.553253 0.993800
O O4 0.518626 0.604356 0.038117
O O5 0.368160 0.312623 0.034678
O O6 0.340037 0.334056 0.379038
O O7 0.568881 0.319622 0.960718
O O8 0.142325 0.329672 0.245035
O O9 0.000000 0.385712 0.250000
O O10 0.186627 0.331600 0.866420
O O11 0.250000 0.750000 0.500000
O O12 0.303994 0.751167 0.114198
#
# Coordination Sequence:
#
# PCOD9265864 Si02
#       6
#     8   4   8   8   8   8
#     4  10  20  37  61  86 106 139 176 245 294 336
#     4  10  20  36  66  90 102 122 190 240 300 356
#     4  10  19  37  56  80 113 143 190 238 285 317
#     4  10  21  36  52  77 115 154 184 223 279 338
#     4  10  21  31  52  78 110 155 196 230 259 319
#     4   9  20  33  55  77 108 155 192 238 261 319
#
# _framework density 19.316006000000002
#
# number of rings (size 3 to 8) (size 9 to 14) (size 15 to 20)
#    0.000    2.182    0.000    3.818    5.091    5.091 
#    0.000    0.909    0.000    0.000    0.000    0.000 
#    0.000    0.000    0.000    0.000    0.000    0.000 
#
# Total GULP energy -122594.118700 kJ/mol
# GULP energy per Si atom -5572.459941 kJ/mol
# Density = 1.927204 g / cm^3
# Si number density = 19.316006 Si / 1000 Ang^3
#
#
#
# Elastic Constant Matrix: (Units=GPa)
#
#
# Indices 1 2 3 4 5 6 
#
# 1 74.0049 10.3001 15.1710 0.0000 1.6741 0.0000
# 2 10.3001 67.3114 14.2596 0.0000 4.2457 0.0000
# 3 15.1710 14.2596 63.7471 0.0000 4.3322 0.0000
# 4 0.0000 0.0000 0.0000 13.1889 0.0000 6.8560
# 5 1.6741 4.2457 4.3322 0.0000 26.7647 0.0000
# 6 0.0000 0.0000 0.0000 6.8560 0.0000 29.5680
#
#
#
# Elastic Compliance Matrix: (Units=1/GPa)
#
#
# Indices 1 2 3 4 5 6 
#
# 1 0.014358 -0.001538 -0.003062 0.000000 -0.000158 0.000000
# 2 -0.001538 0.015859 -0.003051 0.000000 -0.001926 0.000000
# 3 -0.003062 -0.003051 0.017242 0.000000 -0.002115 0.000000
# 4 0.000000 0.000000 0.000000 0.086213 0.000000 -0.019990
# 5 -0.000158 -0.001926 -0.002115 0.000000 0.038020 0.000000
# 6 0.000000 0.000000 0.000000 -0.019990 0.000000 0.038456
#
#
# Mechanical properties :
#
#
# Convention : Reuss Voigt Hill
#
# Bulk Modulus (GPa) = 31.09733 31.61386 31.35559
# Shear Modulus (GPa) = 21.17121 24.92648 23.04884
#
# Velocity S-wave (km/s) = 3.31425 3.59619 3.45809
# Velocity P-wave (km/s) = 5.54796 5.80049 5.67563
#
# Compressibility (1/GPa) = 0.03215710
#
# Stress axis : x y z
#
# Youngs Moduli (GPa) = 69.64728 63.05381 57.99825
#
# Poissons Ratio (x) = 0.09700 0.17760
# Poissons Ratio (y) = 0.10715 0.17693
# Poissons Ratio (z) = 0.21327 0.19235
#
# Static dielectric constant tensor:
#      x y z
#    x 1.710620 0.000000 0.059730 
#    y 0.000000 1.724400 0.000000 
#    z 0.059730 0.000000 1.718270 
# 
# From -- ./inp_files/43347.got.cif
#   From: 2010.05.17/outbox.cif.g08.bks.cpg/sg15_22_cif.got.tgz:43347.got - 2010.06.03 18:47:42.
