data_PCOD9265996
_publ_section_title
;
Structure prediction by ZEFSAII (Michael W. Deem and Ramdas Pophale) SiO2 
 PCOD9265996
Probable space group: C 2/C
;
_chemical_formula_sum "Si O2"
_cell_formula_units_Z 64
_cell_length_a 14.989007
_cell_length_b 11.919279
_cell_length_c 28.806911
_cell_angle_alpha 90.000000
_cell_angle_beta 37.645870
_cell_angle_gamma 90.000000
_cell_volume 3143.430201
_symmetry_space_group_name_H-M "C 2/C"
_symmetry_group_IT_number 15
_symmetry_cell_setting 'monoclinic'
loop_
_space_group_symop_operation_xyz
x,y,z
-x,y,1/2-z
-x,-y,-z
x,-y,1/2+z
1/2+x,1/2+y,z
1/2-x,1/2+y,1/2-z
1/2-x,1/2-y,-z
1/2+x,1/2-y,1/2+z
loop_
_atom_site_type_symbol
_atom_site_label
_atom_site_fract_x
_atom_site_fract_y
_atom_site_fract_z
Si Si1 0.006312 0.189300 0.114525
Si Si2 0.741487 0.546503 0.885853
Si Si3 0.911816 0.847807 0.390437
Si Si4 0.014385 0.562990 0.643089
Si Si5 0.783303 0.547958 0.027950
Si Si6 0.809584 0.174284 0.038139
Si Si7 0.193116 0.022081 0.795558
Si Si8 0.944924 0.262034 0.507921
O O1 0.001661 0.302429 0.145439
O O2 0.164435 0.132668 0.054646
O O3 0.890334 0.095330 0.175509
O O4 0.987816 0.226605 0.069194
O O5 0.901416 0.539735 0.843513
O O6 0.669697 0.436893 0.939582
O O7 0.722303 0.540740 0.838551
O O8 0.666922 0.662701 0.932543
O O9 0.859663 0.850949 0.465513
O O10 0.851423 0.730397 0.395317
O O11 0.081402 0.883296 0.321377
O O12 0.811618 0.947795 0.411551
O O13 0.110196 0.521066 0.559503
O O14 0.851130 0.518127 0.707615
O O15 0.868508 0.619516 0.031059
O O16 0.925592 0.264251 0.008826
#
# Coordination Sequence:
#
# PCOD9265996 Si02
#       8
#     8   8   8   8   8   8   8   8
#     4  10  19  37  59  84 111 155 192 243 287 338
#     4  12  19  36  58  91 116 145 193 246 285 346
#     4  10  22  38  55  83 118 158 186 239 294 345
#     4  11  21  35  57  89 116 149 194 244 292 353
#     4  10  19  37  62  82 113 153 206 235 280 344
#     4  11  21  34  59  85 120 146 189 242 294 340
#     4  11  23  36  58  86 118 152 191 239 302 342
#     4  11  18  33  63  86 109 150 198 247 278 333
#
# _framework density 20.359923999999999
#
# number of rings (size 3 to 8) (size 9 to 14) (size 15 to 20)
#    0.000    1.250    6.250    2.250    0.000    1.500 
#    0.000    0.000    0.000    0.000    0.000    0.000 
#    0.000    0.000    0.000    0.000    0.000    0.000 
#
# Total GULP energy -178630.204713 kJ/mol
# GULP energy per Si atom -5582.193897 kJ/mol
# Density = 2.031358 g / cm^3
# Si number density = 20.359924 Si / 1000 Ang^3
#
#
#
# Elastic Constant Matrix: (Units=GPa)
#
#
# Indices 1 2 3 4 5 6 
#
# 1 58.5105 17.5152 20.9202 0.0000 -24.5914 0.0000
# 2 17.5152 30.4810 3.4132 0.0000 0.7963 0.0000
# 3 20.9202 3.4132 58.5141 0.0001 -27.2825 0.0000
# 4 0.0000 0.0000 0.0001 8.1680 0.0000 -10.5673
# 5 -24.5914 0.7963 -27.2825 0.0000 32.1664 0.0000
# 6 0.0000 0.0000 0.0000 -10.5673 0.0000 36.6490
#
#
#
# Elastic Compliance Matrix: (Units=1/GPa)
#
#
# Indices 1 2 3 4 5 6 
#
# 1 0.034764 -0.021002 0.002366 0.000000 0.029104 0.000000
# 2 -0.021002 0.046033 -0.005283 0.000000 -0.021677 0.000000
# 3 0.002366 -0.005283 0.028876 0.000000 0.026431 0.000000
# 4 0.000000 0.000000 0.000000 0.195270 0.000000 0.056304
# 5 0.029104 -0.021677 0.026431 0.000000 0.076293 0.000000
# 6 0.000000 0.000000 0.000000 0.056304 0.000000 0.043520
#
#
# Mechanical properties :
#
#
# Convention : Reuss Voigt Hill
#
# Bulk Modulus (GPa) = 16.17213 25.68921 20.93067
# Shear Modulus (GPa) = 10.13774 22.44048 16.28911
#
# Velocity S-wave (km/s) = 2.23385 3.32352 2.83160
# Velocity P-wave (km/s) = 3.82280 5.23189 4.58184
#
# Compressibility (1/GPa) = 0.06183477
#
# Stress axis : x y z
#
# Youngs Moduli (GPa) = 28.76546 21.72335 34.63109
#
# Poissons Ratio (x) = 0.45622 -0.08193
# Poissons Ratio (y) = 0.60412 0.18297
# Poissons Ratio (z) = -0.06806 0.11477
#
# Static dielectric constant tensor:
#      x y z
#    x 1.741270 0.000000 -0.027390 
#    y 0.000000 1.780760 0.000000 
#    z -0.027390 0.000000 1.719830 
# 
# From -- ./inp_files/296109.got.cif
#   From: 2010.05.17/outbox.cif.g08.bks.cpg/sg15_149_cif.got.tgz:296109.got - 2010.06.03 18:47:42.
