data_PCOD9265662
_publ_section_title
;
Structure prediction by ZEFSAII (Michael W. Deem and Ramdas Pophale) SiO2 
 PCOD9265662
Probable space group: C 2/C
;
_chemical_formula_sum "Si O2"
_cell_formula_units_Z 56
_cell_length_a 16.598792
_cell_length_b 12.308328
_cell_length_c 14.132590
_cell_angle_alpha 90.000000
_cell_angle_beta 115.421558
_cell_angle_gamma 90.000000
_cell_volume 2607.766206
_symmetry_space_group_name_H-M "C 2/C"
_symmetry_group_IT_number 15
_symmetry_cell_setting 'monoclinic'
loop_
_space_group_symop_operation_xyz
x,y,z
-x,y,1/2-z
-x,-y,-z
x,-y,1/2+z
1/2+x,1/2+y,z
1/2-x,1/2+y,1/2-z
1/2-x,1/2-y,-z
1/2+x,1/2-y,1/2+z
loop_
_atom_site_type_symbol
_atom_site_label
_atom_site_fract_x
_atom_site_fract_y
_atom_site_fract_z
Si Si1 0.266578 0.066017 0.647577
Si Si2 0.208634 0.508482 0.628775
Si Si3 0.681007 0.701894 0.291556
Si Si4 0.000000 0.693890 0.750000
Si Si5 0.324761 0.362531 0.927602
Si Si6 0.500000 0.181298 0.250000
Si Si7 0.664870 0.707710 0.871713
Si Si8 0.431106 0.013786 0.593195
O O1 0.256344 0.193325 0.660515
O O2 0.301262 0.017969 0.764053
O O3 0.181867 0.992577 0.578909
O O4 0.342544 0.044815 0.609173
O O5 0.268327 0.401715 0.642137
O O6 0.269445 0.610492 0.626112
O O7 0.112189 0.500570 0.531367
O O8 0.587695 0.732973 0.291989
O O9 0.658809 0.681959 0.169141
O O10 0.995702 0.612716 0.656860
O O11 0.226715 0.314495 0.903896
O O12 0.375973 0.320344 0.045476
O O13 0.417377 0.258487 0.234615
O O14 0.528986 0.098415 0.347573
#
# Coordination Sequence:
#
# PCOD9265662 Si02
#       8
#     8   8   8   4   8   4   8   8
#     4  10  19  36  63  92 116 153 219 254 283 368
#     4  11  22  38  68  88 118 171 211 242 310 370
#     4  10  22  38  63  91 124 163 205 252 303 372
#     4   9  22  39  56  86 134 155 195 258 310 352
#     4  10  19  38  63  87 120 160 210 253 294 375
#     4  11  22  35  64  92 128 147 197 266 322 340
#     4  11  20  37  62  89 123 158 199 257 318 355
#     4  10  20  41  59  92 122 161 202 265 298 358
#
# _framework density 21.474319000000001
#
# number of rings (size 3 to 8) (size 9 to 14) (size 15 to 20)
#    0.000    1.714    4.286    0.857    0.000    2.857 
#    2.571    2.143    3.143    2.571    0.000    0.000 
#    0.000    0.000    0.000    0.000    0.000    0.000 
#
# Total GULP energy -156210.311029 kJ/mol
# GULP energy per Si atom -5578.939680 kJ/mol
# Density = 2.142544 g / cm^3
# Si number density = 21.474319 Si / 1000 Ang^3
#
#
#
# Elastic Constant Matrix: (Units=GPa)
#
#
# Indices 1 2 3 4 5 6 
#
# 1 22.5652 12.7854 1.5100 0.0000 6.6844 0.0000
# 2 12.7854 115.7567 2.7931 0.0000 12.3101 0.0000
# 3 1.5100 2.7931 75.2125 0.0000 4.1251 0.0000
# 4 0.0000 0.0000 0.0000 23.0930 0.0000 8.5355
# 5 6.6844 12.3101 4.1251 0.0000 29.7045 0.0000
# 6 0.0000 0.0000 0.0000 8.5355 0.0000 29.8664
#
#
#
# Elastic Compliance Matrix: (Units=1/GPa)
#
#
# Indices 1 2 3 4 5 6 
#
# 1 0.049624 -0.004488 -0.000322 0.000000 -0.009262 0.000000
# 2 -0.004488 0.009444 -0.000102 0.000000 -0.002890 0.000000
# 3 -0.000322 -0.000102 0.013402 0.000000 -0.001746 0.000000
# 4 0.000000 0.000000 0.000000 0.048418 0.000000 -0.013837
# 5 -0.009262 -0.002890 -0.001746 0.000000 0.037189 0.000000
# 6 0.000000 0.000000 0.000000 -0.013837 0.000000 0.037437
#
#
# Mechanical properties :
#
#
# Convention : Reuss Voigt Hill
#
# Bulk Modulus (GPa) = 15.96267 27.52350 21.74308
# Shear Modulus (GPa) = 22.10235 29.62917 25.86576
#
# Velocity S-wave (km/s) = 3.21167 3.71853 3.47435
# Velocity P-wave (km/s) = 4.60463 5.59297 5.12269
#
# Compressibility (1/GPa) = 0.06264617
#
# Stress axis : x y z
#
# Youngs Moduli (GPa) = 20.15144 105.88380 74.61738
#
# Poissons Ratio (x) = 0.47524 0.02400
# Poissons Ratio (y) = 0.09045 0.00762
# Poissons Ratio (z) = 0.00648 0.01081
#
# Static dielectric constant tensor:
#      x y z
#    x 1.790250 0.000000 -0.015090 
#    y 0.000000 1.801440 0.000000 
#    z -0.015090 0.000000 1.839950 
# 
# From -- ./inp_files/161445.got.cif
#   From: 2010.05.17/outbox.cif.g08.bks.cpg/sg15_81_cif.got.tgz:161445.got - 2010.06.03 18:47:42.
