data_PCOD9265826
_publ_section_title
;
Structure prediction by ZEFSAII (Michael W. Deem and Ramdas Pophale) SiO2 
 PCOD9265826
Probable space group: C 2/C
;
_chemical_formula_sum "Si O2"
_cell_formula_units_Z 52
_cell_length_a 24.650685
_cell_length_b 12.038912
_cell_length_c 9.718717
_cell_angle_alpha 90.000000
_cell_angle_beta 109.160270
_cell_angle_gamma 90.000000
_cell_volume 2724.426110
_symmetry_space_group_name_H-M "C 2/C"
_symmetry_group_IT_number 15
_symmetry_cell_setting 'monoclinic'
loop_
_space_group_symop_operation_xyz
x,y,z
-x,y,1/2-z
-x,-y,-z
x,-y,1/2+z
1/2+x,1/2+y,z
1/2-x,1/2+y,1/2-z
1/2-x,1/2-y,-z
1/2+x,1/2-y,1/2+z
loop_
_atom_site_type_symbol
_atom_site_label
_atom_site_fract_x
_atom_site_fract_y
_atom_site_fract_z
Si Si1 0.303119 0.128529 0.331553
Si Si2 0.595416 0.213180 0.631253
Si Si3 0.683179 0.944385 0.360936
Si Si4 0.167960 0.087799 0.244206
Si Si5 0.500000 0.834115 0.250000
Si Si6 0.462582 0.957404 0.597969
Si Si7 0.183785 0.879922 0.077509
O O1 0.320244 0.055021 0.477955
O O2 0.233583 0.127116 0.269661
O O3 0.323609 0.253126 0.379706
O O4 0.326225 0.063910 0.217625
O O5 0.641946 0.146698 0.760566
O O6 0.624475 0.330634 0.630326
O O7 0.534891 0.229111 0.662328
O O8 0.581890 0.130866 0.494363
O O9 0.748082 0.904838 0.381044
O O10 0.159544 0.098428 0.402825
O O11 0.162098 0.965713 0.174607
O O12 0.548633 0.921446 0.345481
O O13 0.500000 0.902299 0.750000
O O14 0.500000 0.000000 0.500000
#
# Coordination Sequence:
#
# PCOD9265826 Si02
#       7
#     8   8   8   8   4   8   8
#     4  10  19  37  51  88 122 150 181 238 268 345
#     4  11  18  34  58  83 108 150 187 229 284 339
#     4  10  20  31  58  85 118 151 188 220 288 335
#     4  10  20  35  61  77 114 159 195 218 285 330
#     4   8  20  34  52  82 114 136 184 246 290 324
#     4   8  17  32  50  79 115 138 176 237 295 327
#     4  10  19  39  51  84 125 153 185 234 262 339
#
# _framework density 19.086589
#
# number of rings (size 3 to 8) (size 9 to 14) (size 15 to 20)
#    0.462    1.846    3.077    0.923    2.154    0.000 
#    2.769    3.077    6.769    0.923    0.000    1.077 
#    0.000    0.000    0.000    0.000    0.000    0.000 
#
# Total GULP energy -144749.107961 kJ/mol
# GULP energy per Si atom -5567.273383 kJ/mol
# Density = 1.904315 g / cm^3
# Si number density = 19.086589 Si / 1000 Ang^3
#
#
#
# Elastic Constant Matrix: (Units=GPa)
#
#
# Indices 1 2 3 4 5 6 
#
# 1 30.8484 29.7126 21.4069 0.0000 3.1263 0.0000
# 2 29.7126 136.8312 57.2443 0.0000 -17.1278 0.0000
# 3 21.4069 57.2443 94.8835 0.0000 3.7844 0.0000
# 4 0.0000 0.0000 0.0000 29.5722 0.0000 3.6328
# 5 3.1263 -17.1278 3.7844 0.0000 16.9626 0.0000
# 6 0.0000 0.0000 0.0000 3.6328 0.0000 0.3580
#
#
#
# Elastic Compliance Matrix: (Units=1/GPa)
#
#
# Indices 1 2 3 4 5 6 
#
# 1 0.047642 -0.011583 -0.002970 0.000000 -0.019814 0.000000
# 2 -0.011583 0.015334 -0.007407 0.000000 0.019271 0.000000
# 3 -0.002970 -0.007407 0.016098 0.000000 -0.010523 0.000000
# 4 0.000000 0.000000 0.000000 -0.137060 0.000000 1.390967
# 5 -0.019814 0.019271 -0.010523 0.000000 0.084411 0.000000
# 6 0.000000 0.000000 0.000000 1.390967 0.000000-11.322780
#
#
# Mechanical properties :
#
#
# Convention : Reuss Voigt Hill
#
# Bulk Modulus (GPa) = 28.44602 53.25451 40.85027
# Shear Modulus (GPa) = -0.44481 19.65851 9.60685
#
# Velocity S-wave (km/s) = -0.48328 3.21279 2.24594
# Velocity P-wave (km/s) = 3.82421 6.45947 5.30798
#
# Compressibility (1/GPa) = 0.03515430
#
# Stress axis : x y z
#
# Youngs Moduli (GPa) = 20.98975 65.21280 62.12085
#
# Poissons Ratio (x) = 0.75536 0.18452
# Poissons Ratio (y) = 0.24312 0.46011
# Poissons Ratio (z) = 0.06235 0.48302
#
# Static dielectric constant tensor:
#      x y z
#    x 1.703880 0.000000 0.003140 
#    y 0.000000 1.660020 0.000000 
#    z 0.003140 0.000000 1.706480 
# 
# From -- ./inp_files/65084.got.cif
#   From: 2010.05.17/outbox.cif.g08.bks.cpg/sg15_33_cif.got.tgz:65084.got - 2010.06.03 18:47:42.
