data_PCOD9265829
_publ_section_title
;
Structure prediction by ZEFSAII (Michael W. Deem and Ramdas Pophale) SiO2 
 PCOD9265829
Probable space group: C 2/C
;
_chemical_formula_sum "Si O2"
_cell_formula_units_Z 64
_cell_length_a 16.807516
_cell_length_b 11.279831
_cell_length_c 23.459171
_cell_angle_alpha 90.000000
_cell_angle_beta 131.276276
_cell_angle_gamma 90.000000
_cell_volume 3342.484151
_symmetry_space_group_name_H-M "C 2/C"
_symmetry_group_IT_number 15
_symmetry_cell_setting 'monoclinic'
loop_
_space_group_symop_operation_xyz
x,y,z
-x,y,1/2-z
-x,-y,-z
x,-y,1/2+z
1/2+x,1/2+y,z
1/2-x,1/2+y,1/2-z
1/2-x,1/2-y,-z
1/2+x,1/2-y,1/2+z
loop_
_atom_site_type_symbol
_atom_site_label
_atom_site_fract_x
_atom_site_fract_y
_atom_site_fract_z
Si Si1 0.099593 0.280461 0.948155
Si Si2 0.185149 0.986287 0.703753
Si Si3 0.553229 0.841373 0.520191
Si Si4 0.389834 0.575641 0.951394
Si Si5 0.350365 0.050041 0.875666
Si Si6 0.720995 0.221874 0.313224
Si Si7 0.470381 0.370524 0.302314
Si Si8 0.232205 0.402172 0.928640
O O1 0.146645 0.393731 0.937605
O O2 0.011570 0.318312 0.951484
O O3 0.062834 0.183089 0.884180
O O4 0.189844 0.208235 0.023213
O O5 0.198053 0.852802 0.686983
O O6 0.161194 0.064731 0.636084
O O7 0.293592 0.016142 0.789191
O O8 0.086481 0.013510 0.698735
O O9 0.589965 0.710301 0.521548
O O10 0.469734 0.898292 0.436271
O O11 0.643178 0.936000 0.579936
O O12 0.307596 0.513571 0.955280
O O13 0.500000 0.500000 0.000000
O O14 0.276765 0.158309 0.861336
O O15 0.619343 0.269455 0.233006
O O16 0.683457 0.132871 0.344676
O O17 0.500000 0.382573 0.250000
#
# Coordination Sequence:
#
# PCOD9265829 Si02
#       8
#     8   8   8   8   8   8   8   8
#     4  11  19  33  53  85 111 149 181 241 298 333
#     4  10  21  33  57  80 115 149 194 239 295 351
#     4  11  20  36  57  81 119 145 197 232 293 355
#     4  11  19  36  56  85 114 152 190 240 286 346
#     4  10  22  34  55  84 110 152 188 248 279 345
#     4  10  19  37  52  82 110 147 189 233 287 344
#     4  11  20  32  53  84 117 144 193 250 296 347
#     4  10  20  31  55  81 114 139 180 239 286 340
#
# _framework density 19.147435999999999
#
# number of rings (size 3 to 8) (size 9 to 14) (size 15 to 20)
#    0.000    1.500    5.000    1.500    1.750    0.000 
#    0.000    0.000    0.000    6.000    0.000    0.000 
#    0.000    0.000    0.000    0.000    0.000    0.000 
#
# Total GULP energy -178264.240300 kJ/mol
# GULP energy per Si atom -5570.757509 kJ/mol
# Density = 1.910386 g / cm^3
# Si number density = 19.147436 Si / 1000 Ang^3
#
#
#
# Elastic Constant Matrix: (Units=GPa)
#
#
# Indices 1 2 3 4 5 6 
#
# 1 72.7275 19.6878 -10.2291 0.0000 -14.2036 0.0000
# 2 19.6878 100.3317 9.9081 0.0000 1.4875 0.0000
# 3 -10.2291 9.9081 96.1540 0.0000 5.0729 0.0000
# 4 0.0000 0.0000 0.0000 20.7789 0.0000 8.3422
# 5 -14.2036 1.4875 5.0729 0.0000 17.4478 0.0000
# 6 0.0000 0.0000 0.0000 8.3422 0.0000 29.0623
#
#
#
# Elastic Compliance Matrix: (Units=1/GPa)
#
#
# Indices 1 2 3 4 5 6 
#
# 1 0.017822 -0.003862 0.001535 0.000000 0.014391 0.000000
# 2 -0.003862 0.010912 -0.001341 0.000000 -0.003684 0.000000
# 3 0.001535 -0.001341 0.010795 0.000000 -0.001775 0.000000
# 4 0.000000 0.000000 0.000000 0.054394 0.000000 -0.015614
# 5 0.014391 -0.003684 -0.001775 0.000000 0.069859 0.000000
# 6 0.000000 0.000000 0.000000 -0.015614 0.000000 0.038891
#
#
# Mechanical properties :
#
#
# Convention : Reuss Voigt Hill
#
# Bulk Modulus (GPa) = 31.06343 34.21632 32.63988
# Shear Modulus (GPa) = 22.65108 30.11423 26.38265
#
# Velocity S-wave (km/s) = 3.44318 3.97010 3.71599
# Velocity P-wave (km/s) = 5.66267 6.23894 5.95777
#
# Compressibility (1/GPa) = 0.03219219
#
# Stress axis : x y z
#
# Youngs Moduli (GPa) = 56.11080 91.64372 92.63499
#
# Poissons Ratio (x) = 0.35393 -0.14216
# Poissons Ratio (y) = 0.21670 0.12421
# Poissons Ratio (z) = -0.08611 0.12288
#
# Static dielectric constant tensor:
#      x y z
#    x 1.678690 0.000000 -0.002530 
#    y 0.000000 1.682630 0.000000 
#    z -0.002530 0.000000 1.762570 
# 
# From -- ./inp_files/277111.got.cif
#   From: 2010.05.17/outbox.cif.g08.bks.cpg/sg15_139_cif.got.tgz:277111.got - 2010.06.03 18:47:42.
