data_PCOD9265045
_publ_section_title
;
Structure prediction by ZEFSAII (Michael W. Deem and Ramdas Pophale) SiO2 
 PCOD9265045
Probable space group: C 2/C
;
_chemical_formula_sum "Si O2"
_cell_formula_units_Z 56
_cell_length_a 21.802630
_cell_length_b 22.592822
_cell_length_c 13.954791
_cell_angle_alpha 90.000000
_cell_angle_beta 24.093661
_cell_angle_gamma 90.000000
_cell_volume 2806.125239
_symmetry_space_group_name_H-M "C 2/C"
_symmetry_group_IT_number 15
_symmetry_cell_setting 'monoclinic'
loop_
_space_group_symop_operation_xyz
x,y,z
-x,y,1/2-z
-x,-y,-z
x,-y,1/2+z
1/2+x,1/2+y,z
1/2-x,1/2+y,1/2-z
1/2-x,1/2-y,-z
1/2+x,1/2-y,1/2+z
loop_
_atom_site_type_symbol
_atom_site_label
_atom_site_fract_x
_atom_site_fract_y
_atom_site_fract_z
Si Si1 0.542680 0.691655 0.795700
Si Si2 0.727079 0.476199 0.779833
Si Si3 0.635724 0.178782 0.201152
Si Si4 0.000000 0.635969 0.750000
Si Si5 0.000000 0.967549 0.750000
Si Si6 0.770752 0.660510 0.225310
Si Si7 0.257693 0.045092 0.014738
Si Si8 0.015154 0.447151 0.843087
O O1 0.500000 0.669563 0.750000
O O2 0.557128 0.762614 0.774855
O O3 0.709538 0.667944 0.578751
O O4 0.400166 0.673586 0.061647
O O5 0.777981 0.409920 0.733197
O O6 0.697825 0.472893 0.706296
O O7 0.866473 0.521067 0.594105
O O8 0.587889 0.494390 0.044185
O O9 0.689564 0.192650 0.232510
O O10 0.538264 0.119894 0.342038
O O11 0.888508 0.592804 0.849277
O O12 0.106213 0.673280 0.529790
O O13 0.126687 0.933845 0.630942
O O14 0.338914 0.988460 0.850421
O O15 0.000000 0.446212 0.750000
#
# Coordination Sequence:
#
# PCOD9265045 Si02
#       8
#     8   8   8   4   4   8   8   8
#     4   9  20  37  55  87 115 143 193 245 303 342
#     4  10  22  37  55  88 119 159 197 236 296 363
#     4  10  20  33  60  86 113 146 193 249 294 348
#     4  10  20  42  60  79 121 160 196 232 294 346
#     4  12  24  30  58  81 125 154 198 244 288 346
#     4  10  20  36  60  80 111 155 196 240 282 360
#     4  10  20  39  53  83 120 157 197 239 287 359
#     4  10  19  36  57  82 120 156 191 233 294 352
#
# _framework density 19.956343
#
# number of rings (size 3 to 8) (size 9 to 14) (size 15 to 20)
#    0.000    2.000    3.571    1.714    7.000    1.143 
#    2.571    0.714    0.000    0.857    0.000    0.000 
#    0.000    0.000    0.000    0.000    0.000    0.000 
#
# Total GULP energy -156188.600280 kJ/mol
# GULP energy per Si atom -5578.164296 kJ/mol
# Density = 1.991092 g / cm^3
# Si number density = 19.956343 Si / 1000 Ang^3
#
#
#
# Elastic Constant Matrix: (Units=GPa)
#
#
# Indices 1 2 3 4 5 6 
#
# 1 71.6443 5.4960 28.5614 0.0018 -10.8880 -0.0033
# 2 5.4960 39.1137 20.7961 -0.0075 -10.8427 0.0024
# 3 28.5614 20.7961 153.5277 -0.0159 8.7224 0.0094
# 4 0.0018 -0.0075 -0.0159 26.0143 0.0026 1.0581
# 5 -10.8880 -10.8427 8.7224 0.0026 34.5555 -0.0009
# 6 -0.0033 0.0024 0.0094 1.0581 -0.0009 5.6272
#
#
#
# Elastic Compliance Matrix: (Units=1/GPa)
#
#
# Indices 1 2 3 4 5 6 
#
# 1 0.016262 0.001415 -0.003585 -0.000004 0.006473 0.000017
# 2 0.001415 0.031323 -0.005164 0.000005 0.011578 -0.000003
# 3 -0.003585 -0.005164 0.008153 0.000005 -0.004808 -0.000015
# 4 -0.000004 0.000005 0.000005 0.038737 -0.000004 -0.007283
# 5 0.006473 0.011578 -0.004808 -0.000004 0.035825 0.000013
# 6 0.000017 -0.000003 -0.000015 -0.007283 0.000013 0.179078
#
#
# Mechanical properties :
#
#
# Convention : Reuss Voigt Hill
#
# Bulk Modulus (GPa) = 24.34811 41.55476 32.95143
# Shear Modulus (GPa) = 14.80456 27.20154 21.00305
#
# Velocity S-wave (km/s) = 2.72664 3.69596 3.24767
# Velocity P-wave (km/s) = 4.70531 6.25152 5.53270
#
# Compressibility (1/GPa) = 0.04107095
#
# Stress axis : x y z
#
# Youngs Moduli (GPa) = 61.49278 31.92580 122.65440
#
# Poissons Ratio (x) = -0.04518 0.43969
# Poissons Ratio (y) = -0.08703 0.63337
# Poissons Ratio (z) = 0.22044 0.16486
#
# Static dielectric constant tensor:
#      x y z
#    x 1.780290 0.000000 -0.004180 
#    y 0.000000 1.673340 0.000000 
#    z -0.004180 0.000000 1.759690 
# 
# From -- ./inp_files/174755.got.cif
#   From: 2010.05.17/outbox.cif.g08.bks.cpg/sg15_88_cif.got.tgz:174755.got - 2010.06.03 18:47:42.
