data_PCOD9265629
_publ_section_title
;
Structure prediction by ZEFSAII (Michael W. Deem and Ramdas Pophale) SiO2 
 PCOD9265629
Probable space group: C 2/C
;
_chemical_formula_sum "Si O2"
_cell_formula_units_Z 56
_cell_length_a 9.167379
_cell_length_b 16.122507
_cell_length_c 23.327907
_cell_angle_alpha 90.000000
_cell_angle_beta 123.502538
_cell_angle_gamma 90.000000
_cell_volume 2875.063175
_symmetry_space_group_name_H-M "C 2/C"
_symmetry_group_IT_number 15
_symmetry_cell_setting 'monoclinic'
loop_
_space_group_symop_operation_xyz
x,y,z
-x,y,1/2-z
-x,-y,-z
x,-y,1/2+z
1/2+x,1/2+y,z
1/2-x,1/2+y,1/2-z
1/2-x,1/2-y,-z
1/2+x,1/2-y,1/2+z
loop_
_atom_site_type_symbol
_atom_site_label
_atom_site_fract_x
_atom_site_fract_y
_atom_site_fract_z
Si Si1 0.856296 0.931194 0.765457
Si Si2 0.482386 0.744896 0.182719
Si Si3 0.000691 0.460547 0.623027
Si Si4 0.035934 0.868698 0.022030
Si Si5 0.630543 0.529598 0.103317
Si Si6 0.919152 0.695629 0.435528
Si Si7 0.939693 0.638122 0.571306
O O1 0.667639 0.949553 0.699361
O O2 0.881461 0.972833 0.831849
O O3 0.000000 0.956990 0.750000
O O4 0.890083 0.833749 0.784508
O O5 0.500000 0.786320 0.250000
O O6 0.284579 0.708902 0.128430
O O7 0.527303 0.804368 0.139226
O O8 0.996246 0.378111 0.582891
O O9 0.828694 0.473809 0.624024
O O10 0.013961 0.544933 0.589057
O O11 0.991617 0.786291 0.047393
O O12 0.239031 0.863010 0.049131
O O13 0.018520 0.952230 0.055149
O O14 0.940216 0.886437 0.941498
O O15 0.933315 0.672612 0.505742
#
# Coordination Sequence:
#
# PCOD9265629 Si02
#       7
#     8   8   8   8   8   8   8
#     4  11  21  39  62  84 115 161 200 247 295 360
#     4  10  19  36  63  86 112 155 212 248 287 352
#     4  11  23  36  57  91 122 156 189 256 308 351
#     4   9  20  36  62  85 115 163 197 246 298 361
#     4  10  21  39  59  89 121 155 199 243 310 364
#     4  11  19  37  59  90 119 153 204 247 294 357
#     4  10  21  35  60  91 115 155 203 255 287 356
#
# _framework density 19.477830999999998
#
# number of rings (size 3 to 8) (size 9 to 14) (size 15 to 20)
#    0.000    1.714    2.857    4.286    0.000    4.000 
#    2.571    0.000    0.000    0.000    0.000    0.000 
#    0.000    0.000    0.000    0.000    0.000    0.000 
#
# Total GULP energy -156174.770900 kJ/mol
# GULP energy per Si atom -5577.670389 kJ/mol
# Density = 1.943350 g / cm^3
# Si number density = 19.477831 Si / 1000 Ang^3
#
#
#
# Elastic Constant Matrix: (Units=GPa)
#
#
# Indices 1 2 3 4 5 6 
#
# 1 29.8615 26.4786 26.2393 0.0000 -12.2274 0.0000
# 2 26.4786 100.4441 47.7199 0.0000 -11.4869 0.0000
# 3 26.2393 47.7199 142.3725 0.0000 -21.6267 0.0000
# 4 0.0000 0.0000 0.0000 -1.3284 0.0000 23.0756
# 5 -12.2274 -11.4869 -21.6267 0.0000 38.5912 0.0000
# 6 0.0000 0.0000 0.0000 23.0756 0.0000 7.5104
#
#
#
# Elastic Compliance Matrix: (Units=1/GPa)
#
#
# Indices 1 2 3 4 5 6 
#
# 1 0.050553 -0.010054 -0.004338 0.000000 0.010594 0.000000
# 2 -0.010054 0.013913 -0.002913 0.000000 -0.000677 0.000000
# 3 -0.004338 -0.002913 0.009246 0.000000 0.002940 0.000000
# 4 0.000000 0.000000 0.000000 -0.013845 0.000000 0.042539
# 5 0.010594 -0.000677 0.002940 0.000000 0.030715 0.000000
# 6 0.000000 0.000000 0.000000 0.042539 0.000000 0.002449
#
#
# Mechanical properties :
#
#
# Convention : Reuss Voigt Hill
#
# Bulk Modulus (GPa) = 25.57430 52.61708 39.09569
# Shear Modulus (GPa) = 35.54306 20.43732 27.99019
#
# Velocity S-wave (km/s) = 4.27640 3.24274 3.79493
# Velocity P-wave (km/s) = 6.12714 6.41038 6.27036
#
# Compressibility (1/GPa) = 0.03910175
#
# Stress axis : x y z
#
# Youngs Moduli (GPa) = 19.78141 71.87651 108.15144
#
# Poissons Ratio (x) = 0.72265 0.46913
# Poissons Ratio (y) = 0.19888 0.31505
# Poissons Ratio (z) = 0.08581 0.20938
#
# Static dielectric constant tensor:
#      x y z
#    x 1.669830 0.000000 -0.002200 
#    y 0.000000 1.737530 0.000000 
#    z -0.002200 0.000000 1.698810 
# 
# From -- ./inp_files/264832.got.cif
#   From: 2010.05.17/outbox.cif.g08.bks.cpg/sg15_133_cif.got.tgz:264832.got - 2010.06.03 18:47:42.
