data_PCOD9265904
_publ_section_title
;
Structure prediction by ZEFSAII (Michael W. Deem and Ramdas Pophale) SiO2 
 PCOD9265904
Probable space group: C 2/C
;
_chemical_formula_sum "Si O2"
_cell_formula_units_Z 48
_cell_length_a 18.997367
_cell_length_b 22.434528
_cell_length_c 5.205526
_cell_angle_alpha 90.000000
_cell_angle_beta 113.067335
_cell_angle_gamma 90.000000
_cell_volume 2041.192906
_symmetry_space_group_name_H-M "C 2/C"
_symmetry_group_IT_number 15
_symmetry_cell_setting 'monoclinic'
loop_
_space_group_symop_operation_xyz
x,y,z
-x,y,1/2-z
-x,-y,-z
x,-y,1/2+z
1/2+x,1/2+y,z
1/2-x,1/2+y,1/2-z
1/2-x,1/2-y,-z
1/2+x,1/2-y,1/2+z
loop_
_atom_site_type_symbol
_atom_site_label
_atom_site_fract_x
_atom_site_fract_y
_atom_site_fract_z
Si Si1 0.300411 0.970271 0.361424
Si Si2 0.799297 0.852292 0.693155
Si Si3 0.162055 0.644048 0.326433
Si Si4 0.500000 0.753349 0.250000
Si Si5 0.153681 0.216103 0.724861
Si Si6 0.500000 0.829484 0.750000
Si Si7 0.129230 0.021998 0.189501
O O1 0.305608 0.900124 0.412417
O O2 0.335962 0.002738 0.658504
O O3 0.211177 0.989320 0.247246
O O4 0.714377 0.873071 0.657823
O O5 0.798705 0.808334 0.449940
O O6 0.851411 0.909996 0.717392
O O7 0.833678 0.822317 0.001792
O O8 0.170785 0.715785 0.332553
O O9 0.071097 0.636136 0.225795
O O10 0.568461 0.717340 0.481099
O O11 0.470263 0.791572 0.456724
O O12 0.089859 0.986490 0.360381
#
# Coordination Sequence:
#
# PCOD9265904 Si02
#       7
#     8   8   8   4   8   4   8
#     4  10  21  36  60  80 118 175 202 256 297 348
#     4  12  23  37  64  98 127 154 217 260 308 359
#     4  11  23  42  62  90 137 158 219 251 308 373
#     4  10  22  48  60  83 136 159 212 228 328 410
#     4  11  25  39  64  98 119 169 191 270 320 369
#     4  10  24  40  64  85 120 193 192 252 310 364
#     4  10  19  37  57  84 124 167 197 247 311 358
#
# _framework density 23.51566
#
# number of rings (size 3 to 8) (size 9 to 14) (size 15 to 20)
#    0.000    1.333    3.333    4.000    2.333    6.667 
#    0.000    0.833    0.000    0.000    0.000   11.667 
#    0.000    0.000    0.000    0.000    0.000    0.000 
#
# Total GULP energy -133881.518371 kJ/mol
# GULP energy per Si atom -5578.396599 kJ/mol
# Density = 2.346214 g / cm^3
# Si number density = 23.515660 Si / 1000 Ang^3
#
#
#
# Elastic Constant Matrix: (Units=GPa)
#
#
# Indices 1 2 3 4 5 6 
#
# 1 63.0073 10.0134 15.9184 0.0000 3.5272 0.0000
# 2 10.0134 99.2009 56.5245 0.0000 -3.5289 0.0000
# 3 15.9184 56.5245 151.6224 0.0000 -44.1864 0.0000
# 4 0.0000 0.0000 0.0000 -27.9169 0.0000 39.2828
# 5 3.5272 -3.5289 -44.1864 0.0000 35.2456 0.0000
# 6 0.0000 0.0000 0.0000 39.2828 0.0000 -33.8067
#
#
#
# Elastic Compliance Matrix: (Units=1/GPa)
#
#
# Indices 1 2 3 4 5 6 
#
# 1 0.017138 0.000157 -0.003708 0.000000 -0.006347 0.000000
# 2 0.000157 0.014158 -0.007699 0.000000 -0.008250 0.000000
# 3 -0.003708 -0.007699 0.015344 0.000000 0.018837 0.000000
# 4 0.000000 0.000000 0.000000 0.056405 0.000000 0.065541
# 5 -0.006347 -0.008250 0.018837 0.000000 0.051797 0.000000
# 6 0.000000 0.000000 0.000000 0.065541 0.000000 0.046578
#
#
# Mechanical properties :
#
#
# Convention : Reuss Voigt Hill
#
# Bulk Modulus (GPa) = 41.42259 53.19370 47.30815
# Shear Modulus (GPa) = 21.55492 10.12935 15.84213
#
# Velocity S-wave (km/s) = 3.03086 2.07770 2.59836
# Velocity P-wave (km/s) = 5.46821 5.33155 5.40031
#
# Compressibility (1/GPa) = 0.02414141
#
# Stress axis : x y z
#
# Youngs Moduli (GPa) = 58.34895 70.63157 65.17156
#
# Poissons Ratio (x) = -0.01108 0.24163
# Poissons Ratio (y) = -0.00915 0.50174
# Poissons Ratio (z) = 0.21633 0.54377
#
# Static dielectric constant tensor:
#      x y z
#    x 1.931470 0.000000 0.028790 
#    y 0.000000 1.900270 0.000000 
#    z 0.028790 0.000000 2.020220 
# 
# From -- ./inp_files/10935.got.cif
#   From: 2010.05.17/outbox.cif.g08.bks.cpg/sg15_6_cif.got.tgz:10935.got - 2010.06.03 18:47:42.
