data_PCOD9265046
_publ_section_title
;
Structure prediction by ZEFSAII (Michael W. Deem and Ramdas Pophale) SiO2 
 PCOD9265046
Probable space group: C 2/C
;
_chemical_formula_sum "Si O2"
_cell_formula_units_Z 64
_cell_length_a 21.419435
_cell_length_b 28.917814
_cell_length_c 15.371340
_cell_angle_alpha 90.000000
_cell_angle_beta 161.108645
_cell_angle_gamma 90.000000
_cell_volume 3082.677292
_symmetry_space_group_name_H-M "C 2/C"
_symmetry_group_IT_number 15
_symmetry_cell_setting 'monoclinic'
loop_
_space_group_symop_operation_xyz
x,y,z
-x,y,1/2-z
-x,-y,-z
x,-y,1/2+z
1/2+x,1/2+y,z
1/2-x,1/2+y,1/2-z
1/2-x,1/2-y,-z
1/2+x,1/2-y,1/2+z
loop_
_atom_site_type_symbol
_atom_site_label
_atom_site_fract_x
_atom_site_fract_y
_atom_site_fract_z
Si Si1 0.289685 0.793899 0.929304
Si Si2 0.806897 0.485415 0.434782
Si Si3 0.380790 0.893026 0.427823
Si Si4 0.022864 0.545479 0.971363
Si Si5 0.422307 0.235465 0.424088
Si Si6 0.936230 0.699524 0.070759
Si Si7 0.133384 0.966383 0.851506
Si Si8 0.509933 0.362364 0.662616
O O1 0.334178 0.796862 0.884080
O O2 0.169319 0.835202 0.816526
O O3 0.136637 0.751749 0.735869
O O4 0.500000 0.787760 0.250000
O O5 0.803984 0.438677 0.375836
O O6 0.644912 0.496834 0.290458
O O7 0.814089 0.530425 0.381390
O O8 0.000000 0.483290 0.750000
O O9 0.518678 0.911835 0.532212
O O10 0.462730 0.855893 0.602382
O O11 0.208475 0.863411 0.158536
O O12 0.834205 0.546845 0.662251
O O13 0.000000 0.500000 0.000000
O O14 0.443757 0.215744 0.355570
O O15 0.277675 0.279090 0.225446
O O16 0.000000 0.716412 0.250000
O O17 0.056676 0.916833 0.722040
O O18 0.000000 0.986487 0.750000
O O19 0.500000 0.346252 0.750000
#
# Coordination Sequence:
#
# PCOD9265046 Si02
#       8
#     8   8   8   8   8   8   8   8
#     4  11  24  40  66  97 132 164 207 259 316 387
#     4   9  20  35  60  87 119 157 214 255 302 373
#     4  11  20  38  62  87 123 159 212 256 322 361
#     4   9  18  35  56  85 113 154 201 256 291 373
#     4  10  24  44  64  98 125 164 211 259 324 388
#     4  11  23  42  71  91 124 166 212 265 322 375
#     4  10  19  36  57  82 120 165 199 246 317 361
#     4  11  23  38  60  88 130 168 205 256 315 386
#
# _framework density 20.761174
#
# number of rings (size 3 to 8) (size 9 to 14) (size 15 to 20)
#    0.000    1.750    3.750    1.125    1.750    3.500 
#    0.000    0.000    5.500    0.000    0.000    0.000 
#    0.000    0.000    0.000    0.000    0.000    0.000 
#
# Total GULP energy -178276.111180 kJ/mol
# GULP energy per Si atom -5571.128474 kJ/mol
# Density = 2.071392 g / cm^3
# Si number density = 20.761174 Si / 1000 Ang^3
#
#
#
# Elastic Constant Matrix: (Units=GPa)
#
#
# Indices 1 2 3 4 5 6 
#
# 1 192.5832 65.8060 31.3016 0.0000 12.2128 -0.0002
# 2 65.8060 75.8560 19.0893 0.0000 4.6923 0.0001
# 3 31.3016 19.0893 51.6923 0.0001 -4.2111 0.0000
# 4 0.0000 0.0000 0.0001 23.1357 0.0001 -9.5489
# 5 12.2128 4.6923 -4.2111 0.0001 32.9290 -0.0001
# 6 -0.0002 0.0001 0.0000 -9.5489 -0.0001 43.7370
#
#
#
# Elastic Compliance Matrix: (Units=1/GPa)
#
#
# Indices 1 2 3 4 5 6 
#
# 1 0.007822 -0.005949 -0.002736 0.000000 -0.002403 0.000000
# 2 -0.005949 0.019315 -0.003613 0.000000 -0.001008 0.000000
# 3 -0.002736 -0.003613 0.022697 0.000000 0.004432 0.000000
# 4 0.000000 0.000000 0.000000 0.047504 0.000000 0.010371
# 5 -0.002403 -0.001008 0.004432 0.000000 0.031970 0.000000
# 6 0.000000 0.000000 0.000000 0.010371 0.000000 0.025128
#
#
# Mechanical properties :
#
#
# Convention : Reuss Voigt Hill
#
# Bulk Modulus (GPa) = 39.61971 61.39170 50.50571
# Shear Modulus (GPa) = 26.67458 33.55597 30.11527
#
# Velocity S-wave (km/s) = 3.58834 4.02467 3.81275
# Velocity P-wave (km/s) = 6.02439 7.15765 6.61533
#
# Compressibility (1/GPa) = 0.02523996
#
# Stress axis : x y z
#
# Youngs Moduli (GPa) = 127.83863 51.77292 44.05882
#
# Poissons Ratio (x) = 0.30799 0.12053
# Poissons Ratio (y) = 0.76050 0.15917
# Poissons Ratio (z) = 0.34972 0.18704
#
# Static dielectric constant tensor:
#      x y z
#    x 1.784550 0.000000 -0.011760 
#    y 0.000000 1.699460 0.000000 
#    z -0.011760 0.000000 1.790140 
# 
# From -- ./inp_files/170095.got.cif
#   From: 2010.05.17/outbox.cif.g08.bks.cpg/sg15_86_cif.got.tgz:170095.got - 2010.06.03 18:47:42.
