data_PCOD9265215
_publ_section_title
;
Structure prediction by ZEFSAII (Michael W. Deem and Ramdas Pophale) SiO2 
 PCOD9265215
Probable space group: C 2/C
;
_chemical_formula_sum "Si O2"
_cell_formula_units_Z 56
_cell_length_a 9.454219
_cell_length_b 29.356339
_cell_length_c 20.456827
_cell_angle_alpha 90.000000
_cell_angle_beta 29.968273
_cell_angle_gamma 90.000000
_cell_volume 2836.083595
_symmetry_space_group_name_H-M "C 2/C"
_symmetry_group_IT_number 15
_symmetry_cell_setting 'monoclinic'
loop_
_space_group_symop_operation_xyz
x,y,z
-x,y,1/2-z
-x,-y,-z
x,-y,1/2+z
1/2+x,1/2+y,z
1/2-x,1/2+y,1/2-z
1/2-x,1/2-y,-z
1/2+x,1/2-y,1/2+z
loop_
_atom_site_type_symbol
_atom_site_label
_atom_site_fract_x
_atom_site_fract_y
_atom_site_fract_z
Si Si1 0.018020 0.788853 0.596094
Si Si2 0.755392 0.503740 0.000938
Si Si3 0.182810 0.943657 0.899326
Si Si4 0.272258 0.346418 0.593253
Si Si5 0.805184 0.435551 0.103350
Si Si6 0.989055 0.711519 0.401964
Si Si7 0.758622 0.354378 0.599717
O O1 0.250000 0.750000 0.500000
O O2 0.128908 0.835802 0.584350
O O3 0.940153 0.803493 0.554066
O O4 0.744643 0.775421 0.749763
O O5 0.725827 0.475885 0.945166
O O6 0.031873 0.534177 0.906660
O O7 0.495717 0.538176 0.090949
O O8 0.745399 0.468835 0.065447
O O9 0.500000 0.937252 0.750000
O O10 0.071131 0.894403 0.966619
O O11 0.156060 0.333926 0.569434
O O12 0.000000 0.347655 0.750000
O O13 0.500000 0.419080 0.250000
O O14 0.013605 0.394140 0.000868
O O15 0.750000 0.750000 0.500000
O O16 0.119620 0.692188 0.416358
O O17 0.500000 0.370017 0.750000
#
# Coordination Sequence:
#
# PCOD9265215 Si02
#       7
#     8   8   8   8   8   8   8
#     4  10  20  35  55  80 108 140 180 224 274 331
#     4  10  22  36  56  84 114 148 190 238 286 344
#     4  10  19  36  59  81 109 147 188 233 286 339
#     4   9  18  32  53  77 101 134 176 218 264 324
#     4  11  23  38  57  85 119 154 192 235 288 346
#     4  10  20  35  55  80 108 140 180 224 274 331
#     4  10  22  38  57  81 111 148 190 234 280 337
#
# _framework density 19.745539000000001
#
# number of rings (size 3 to 8) (size 9 to 14) (size 15 to 20)
#    0.000    2.000    0.000    3.429    0.000    6.857 
#    0.000    0.000    0.000    3.429    0.000    0.000 
#    0.000    0.000    0.000    0.000    0.000    0.000 
#
# Total GULP energy -155961.631434 kJ/mol
# GULP energy per Si atom -5570.058265 kJ/mol
# Density = 1.970060 g / cm^3
# Si number density = 19.745539 Si / 1000 Ang^3
#
#
#
# Elastic Constant Matrix: (Units=GPa)
#
#
# Indices 1 2 3 4 5 6 
#
# 1 88.4836 12.0373 18.6488 -0.0002 -13.3309 0.0004
# 2 12.0373 86.6229 57.0262 0.0002 -12.9759 -0.0002
# 3 18.6488 57.0262 105.3022 0.0001 -22.7591 0.0012
# 4 -0.0002 0.0002 0.0001 28.5162 0.0002 -33.5802
# 5 -13.3309 -12.9759 -22.7591 0.0002 21.8304 -0.0006
# 6 0.0004 -0.0002 0.0012 -33.5802 -0.0006 109.0266
#
#
#
# Elastic Compliance Matrix: (Units=1/GPa)
#
#
# Indices 1 2 3 4 5 6 
#
# 1 0.012497 -0.000354 -0.000539 0.000000 0.006859 0.000000
# 2 -0.000354 0.017958 -0.009555 0.000000 0.000496 0.000000
# 3 -0.000539 -0.009555 0.017385 0.000000 0.012116 0.000000
# 4 0.000000 0.000000 0.000000 0.055025 0.000000 0.016948
# 5 0.006859 0.000496 0.012116 0.000000 0.062923 0.000000
# 6 0.000000 0.000000 0.000000 0.016948 0.000000 0.014392
#
#
# Mechanical properties :
#
#
# Convention : Reuss Voigt Hill
#
# Bulk Modulus (GPa) = 37.11514 50.64814 43.88164
# Shear Modulus (GPa) = 23.80294 44.72107 34.26201
#
# Velocity S-wave (km/s) = 3.47578 4.76423 4.17006
# Velocity P-wave (km/s) = 5.91148 7.48131 6.74224
#
# Compressibility (1/GPa) = 0.02694318
#
# Stress axis : x y z
#
# Youngs Moduli (GPa) = 80.02146 55.68422 57.51996
#
# Poissons Ratio (x) = 0.01974 0.03099
# Poissons Ratio (y) = 0.02836 0.54962
# Poissons Ratio (z) = 0.04311 0.53208
#
# Static dielectric constant tensor:
#      x y z
#    x 1.684390 0.000000 -0.005670 
#    y 0.000000 1.742910 0.000000 
#    z -0.005670 0.000000 1.672480 
# 
# From -- ./inp_files/234910.got.cif
#   From: 2010.05.17/outbox.cif.g08.bks.cpg/sg15_118_cif.got.tgz:234910.got - 2010.06.03 18:47:42.
