data_PCOD9265856
_publ_section_title
;
Structure prediction by ZEFSAII (Michael W. Deem and Ramdas Pophale) SiO2 
 PCOD9265856
Probable space group: C 2/C
;
_chemical_formula_sum "Si O2"
_cell_formula_units_Z 56
_cell_length_a 22.733154
_cell_length_b 19.549964
_cell_length_c 8.784501
_cell_angle_alpha 90.000000
_cell_angle_beta 51.484433
_cell_angle_gamma 90.000000
_cell_volume 3054.732872
_symmetry_space_group_name_H-M "C 2/C"
_symmetry_group_IT_number 15
_symmetry_cell_setting 'monoclinic'
loop_
_space_group_symop_operation_xyz
x,y,z
-x,y,1/2-z
-x,-y,-z
x,-y,1/2+z
1/2+x,1/2+y,z
1/2-x,1/2+y,1/2-z
1/2-x,1/2-y,-z
1/2+x,1/2-y,1/2+z
loop_
_atom_site_type_symbol
_atom_site_label
_atom_site_fract_x
_atom_site_fract_y
_atom_site_fract_z
Si Si1 0.292685 0.577541 0.241924
Si Si2 0.127190 0.792794 0.030911
Si Si3 0.500000 0.597787 0.250000
Si Si4 0.753592 0.199507 0.712954
Si Si5 0.165981 0.936908 0.469385
Si Si6 0.500000 0.180835 0.750000
Si Si7 0.992085 0.789754 0.017734
Si Si8 0.835285 0.331193 0.454493
O O1 0.319978 0.571403 0.372775
O O2 0.210713 0.610555 0.385063
O O3 0.340717 0.634444 0.075208
O O4 0.296657 0.504940 0.155039
O O5 0.080530 0.800244 0.260509
O O6 0.064215 0.773661 0.006148
O O7 0.195161 0.737470 0.920665
O O8 0.423776 0.557445 0.404479
O O9 0.511345 0.646313 0.378601
O O10 0.800339 0.130438 0.669285
O O11 0.813282 0.257640 0.564534
O O12 0.700441 0.178354 0.655558
O O13 0.522861 0.228027 0.571606
O O14 0.577875 0.148483 0.678681
#
# Coordination Sequence:
#
# PCOD9265856 Si02
#       8
#     8   8   4   8   8   4   8   8
#     4  10  23  40  56  80 111 157 182 227 272 339
#     4  10  19  37  55  84 112 149 182 231 273 329
#     4  11  22  36  54  86 110 155 180 226 266 341
#     4   9  17  36  58  80 108 153 183 227 275 335
#     4  11  23  39  58  79 117 150 189 221 278 332
#     4  11  18  34  56  92 106 141 182 246 278 333
#     4  10  20  31  57  86 118 137 184 230 279 322
#     4   9  18  34  61  81 109 141 191 227 283 324
#
# _framework density 18.332208000000001
#
# number of rings (size 3 to 8) (size 9 to 14) (size 15 to 20)
#    0.000    2.000    2.857    2.571    2.000    1.714 
#    2.571    2.143    0.000    5.143    0.000    0.000 
#    0.000    0.000    0.000    0.000    0.000    0.000 
#
# Total GULP energy -156133.198932 kJ/mol
# GULP energy per Si atom -5576.185676 kJ/mol
# Density = 1.829048 g / cm^3
# Si number density = 18.332208 Si / 1000 Ang^3
#
#
#
# Elastic Constant Matrix: (Units=GPa)
#
#
# Indices 1 2 3 4 5 6 
#
# 1 75.8230 18.1177 30.3789 0.0000 -24.1144 0.0000
# 2 18.1177 105.1063 40.9085 0.0000 -15.4258 0.0000
# 3 30.3789 40.9085 85.7361 0.0000 -12.0695 0.0000
# 4 0.0000 0.0000 0.0000 2.8286 0.0000 -5.5611
# 5 -24.1144 -15.4258 -12.0695 0.0000 33.7670 0.0000
# 6 0.0000 0.0000 0.0000 -5.5611 0.0000 1.8917
#
#
#
# Elastic Compliance Matrix: (Units=1/GPa)
#
#
# Indices 1 2 3 4 5 6 
#
# 1 0.018968 0.000541 -0.005304 0.000000 0.011897 0.000000
# 2 0.000541 0.012111 -0.005409 0.000000 0.003986 0.000000
# 3 -0.005304 -0.005409 0.016051 0.000000 -0.000522 0.000000
# 4 0.000000 0.000000 0.000000 -0.073969 0.000000 -0.217444
# 5 0.011897 0.003986 -0.000522 0.000000 0.039745 0.000000
# 6 0.000000 0.000000 0.000000 -0.217444 0.000000 -0.110600
#
#
# Mechanical properties :
#
#
# Convention : Reuss Voigt Hill
#
# Bulk Modulus (GPa) = 37.33480 49.49729 43.41605
# Shear Modulus (GPa) = -73.07762 19.51481 -26.78140
#
# Velocity S-wave (km/s) = -6.32056 3.26622 -3.82631
# Velocity P-wave (km/s) = 5.73202 6.42519 2.05268
#
# Compressibility (1/GPa) = 0.02678466
#
# Stress axis : x y z
#
# Youngs Moduli (GPa) = 52.71964 82.56767 62.30238
#
# Poissons Ratio (x) = -0.04466 0.33047
# Poissons Ratio (y) = -0.02852 0.33702
# Poissons Ratio (z) = 0.27964 0.44664
#
# Static dielectric constant tensor:
#      x y z
#    x 1.675550 0.000000 -0.003410 
#    y 0.000000 1.604570 0.000000 
#    z -0.003410 0.000000 1.664260 
# 
# From -- ./inp_files/49762.got.cif
#   From: 2010.05.17/outbox.cif.g08.bks.cpg/sg15_25_cif.got.tgz:49762.got - 2010.06.03 18:47:42.
