data_PCOD9265108
_publ_section_title
;
Structure prediction by ZEFSAII (Michael W. Deem and Ramdas Pophale) SiO2 
 PCOD9265108
Probable space group: C 2/C
;
_chemical_formula_sum "Si O2"
_cell_formula_units_Z 40
_cell_length_a 13.386243
_cell_length_b 5.319930
_cell_length_c 26.882784
_cell_angle_alpha 90.000000
_cell_angle_beta 65.659063
_cell_angle_gamma 90.000000
_cell_volume 1744.251931
_symmetry_space_group_name_H-M "C 2/C"
_symmetry_group_IT_number 15
_symmetry_cell_setting 'monoclinic'
loop_
_space_group_symop_operation_xyz
x,y,z
-x,y,1/2-z
-x,-y,-z
x,-y,1/2+z
1/2+x,1/2+y,z
1/2-x,1/2+y,1/2-z
1/2-x,1/2-y,-z
1/2+x,1/2-y,1/2+z
loop_
_atom_site_type_symbol
_atom_site_label
_atom_site_fract_x
_atom_site_fract_y
_atom_site_fract_z
Si Si1 0.959283 0.143820 0.409657
Si Si2 0.925882 0.352293 0.952801
Si Si3 0.748411 0.944454 0.432397
Si Si4 0.620904 0.514932 0.800747
Si Si5 0.238098 0.516854 0.817171
O O1 0.996055 0.418357 0.417515
O O2 0.002074 0.047554 0.347592
O O3 0.989359 0.913974 0.440261
O O4 0.827468 0.162113 0.437385
O O5 0.826227 0.286525 0.934588
O O6 0.866455 0.421847 0.016151
O O7 0.745104 0.979195 0.374661
O O8 0.647010 0.499822 0.736943
O O9 0.665290 0.781630 0.812334
O O10 0.689808 0.285714 0.810530
#
# Coordination Sequence:
#
# PCOD9265108 Si02
#       5
#     8   8   8   8   8
#     4  10  19  36  58  79 114 139 183 229 270 319
#     4   9  20  34  59  83 110 143 177 234 268 328
#     4   9  21  35  62  78 113 141 193 211 285 319
#     4  10  22  39  55  80 114 143 186 226 280 317
#     4  10  22  38  58  78 110 152 179 228 275 334
#
# _framework density 22.932466999999999
#
# number of rings (size 3 to 8) (size 9 to 14) (size 15 to 20)
#    1.200    1.200    0.000    1.800    2.800    0.800 
#    0.000    6.000    4.400    0.000    0.000    0.000 
#    0.000    0.000    0.000    0.000    0.000    0.000 
#
# Total GULP energy -111419.320440 kJ/mol
# GULP energy per Si atom -5570.966022 kJ/mol
# Density = 2.288027 g / cm^3
# Si number density = 22.932467 Si / 1000 Ang^3
#
#
#
# Elastic Constant Matrix: (Units=GPa)
#
#
# Indices 1 2 3 4 5 6 
#
# 1 34.8012 5.7137 27.5688 -0.0004 -7.3321 -0.0007
# 2 5.7137 150.8759 31.5791 -0.0015 3.9306 -0.0017
# 3 27.5688 31.5791 178.9880 -0.0004 -6.1162 -0.0002
# 4 -0.0004 -0.0015 -0.0004 22.9456 -0.0002 -8.9009
# 5 -7.3321 3.9306 -6.1162 -0.0002 39.1050 -0.0004
# 6 -0.0007 -0.0017 -0.0002 -8.9009 -0.0004 7.5792
#
#
#
# Elastic Compliance Matrix: (Units=1/GPa)
#
#
# Indices 1 2 3 4 5 6 
#
# 1 0.033915 -0.000392 -0.004962 0.000003 0.005622 0.000007
# 2 -0.000392 0.006917 -0.001193 0.000002 -0.000955 0.000003
# 3 -0.004962 -0.001193 0.006569 0.000000 0.000217 -0.000001
# 4 0.000003 0.000002 0.000000 0.080048 0.000002 0.094007
# 5 0.005622 -0.000955 0.000217 0.000002 0.026756 0.000004
# 6 0.000007 0.000003 -0.000001 0.094007 0.000004 0.242341
#
#
# Mechanical properties :
#
#
# Convention : Reuss Voigt Hill
#
# Bulk Modulus (GPa) = 29.14892 54.93202 42.04047
# Shear Modulus (GPa) = 11.87433 33.91287 22.89360
#
# Velocity S-wave (km/s) = 2.27798 3.84971 3.16302
# Velocity P-wave (km/s) = 4.43365 6.61560 5.63132
#
# Compressibility (1/GPa) = 0.03430659
#
# Stress axis : x y z
#
# Youngs Moduli (GPa) = 29.48580 144.56431 152.22678
#
# Poissons Ratio (x) = 0.05669 0.75541
# Poissons Ratio (y) = 0.01156 0.18156
# Poissons Ratio (z) = 0.14632 0.17242
#
# Static dielectric constant tensor:
#      x y z
#    x 1.915170 0.000000 -0.057380 
#    y 0.000000 1.892680 0.000000 
#    z -0.057380 0.000000 1.888540 
# 
# From -- ./inp_files/271836.got.cif
#   From: 2010.05.17/outbox.cif.g08.bks.cpg/sg15_136_cif.got.tgz:271836.got - 2010.06.03 18:47:42.
