data_PCOD9265670
_publ_section_title
;
Structure prediction by ZEFSAII (Michael W. Deem and Ramdas Pophale) SiO2 
 PCOD9265670
Probable space group: C 2/C
;
_chemical_formula_sum "Si O2"
_cell_formula_units_Z 40
_cell_length_a 17.348684
_cell_length_b 7.684496
_cell_length_c 26.601053
_cell_angle_alpha 90.000000
_cell_angle_beta 25.662011
_cell_angle_gamma 90.000000
_cell_volume 1535.784836
_symmetry_space_group_name_H-M "C 2/C"
_symmetry_group_IT_number 15
_symmetry_cell_setting 'monoclinic'
loop_
_space_group_symop_operation_xyz
x,y,z
-x,y,1/2-z
-x,-y,-z
x,-y,1/2+z
1/2+x,1/2+y,z
1/2-x,1/2+y,1/2-z
1/2-x,1/2-y,-z
1/2+x,1/2-y,1/2+z
loop_
_atom_site_type_symbol
_atom_site_label
_atom_site_fract_x
_atom_site_fract_y
_atom_site_fract_z
Si Si1 0.886642 0.622022 0.030274
Si Si2 0.504951 0.325873 0.187699
Si Si3 0.316960 0.632944 0.167802
Si Si4 0.309512 0.011310 0.964702
Si Si5 0.124942 0.732417 0.757335
O O1 0.699082 0.666784 0.165825
O O2 0.879190 0.524627 0.981259
O O3 0.000000 0.500000 0.000000
O O4 0.986851 0.806981 0.963907
O O5 0.500000 0.353438 0.250000
O O6 0.312844 0.276207 0.280332
O O7 0.622128 0.152920 0.107276
O O8 0.602624 0.472118 0.096706
O O9 0.237076 0.448940 0.198076
O O10 0.315522 0.663173 0.228112
O O11 0.416999 0.172755 0.877317
#
# Coordination Sequence:
#
# PCOD9265670 Si02
#       5
#     8   8   8   8   8
#     4  11  20  36  63  91 125 167 215 272 326 378
#     4  10  19  36  63  92 126 168 213 260 316 390
#     4  10  21  35  60  93 124 164 216 266 323 391
#     4   9  21  37  58  92 125 164 217 260 314 385
#     4  10  20  38  63  93 128 164 214 273 322 380
#
# _framework density 26.045314999999999
#
# number of rings (size 3 to 8) (size 9 to 14) (size 15 to 20)
#    0.000    2.000    0.000    5.400    0.000    1.600 
#    0.000    0.000    0.000   55.200    0.000    0.000 
#    0.000    0.000    0.000    0.000    0.000    0.000 
#
# Total GULP energy -111983.408305 kJ/mol
# GULP energy per Si atom -5599.170415 kJ/mol
# Density = 2.598603 g / cm^3
# Si number density = 26.045315 Si / 1000 Ang^3
#
#
#
# Elastic Constant Matrix: (Units=GPa)
#
#
# Indices 1 2 3 4 5 6 
#
# 1 99.4420 41.1162 49.7657 -0.0007 -0.1769 -0.0037
# 2 41.1162 155.8699 36.4632 0.0011 18.7751 -0.0048
# 3 49.7657 36.4632 194.5710 0.0015 15.1625 0.0003
# 4 -0.0007 0.0011 0.0015 39.6582 -0.0001 -4.3141
# 5 -0.1769 18.7751 15.1625 -0.0001 28.6232 -0.0005
# 6 -0.0037 -0.0048 0.0003 -4.3141 -0.0005 36.7873
#
#
#
# Elastic Compliance Matrix: (Units=1/GPa)
#
#
# Indices 1 2 3 4 5 6 
#
# 1 0.012858 -0.003141 -0.002990 0.000001 0.003724 0.000001
# 2 -0.003141 0.007921 -0.000287 0.000000 -0.005063 0.000001
# 3 -0.002990 -0.000287 0.006201 0.000000 -0.003115 0.000000
# 4 0.000001 0.000000 0.000000 0.025541 0.000000 0.002995
# 5 0.003724 -0.005063 -0.003115 0.000000 0.039931 0.000000
# 6 0.000001 0.000001 0.000000 0.002995 0.000000 0.027535
#
#
# Mechanical properties :
#
#
# Convention : Reuss Voigt Hill
#
# Bulk Modulus (GPa) = 70.69834 78.28591 74.49212
# Shear Modulus (GPa) = 36.35399 42.51625 39.43512
#
# Velocity S-wave (km/s) = 3.74009 4.04467 3.89536
# Velocity P-wave (km/s) = 6.77158 7.20662 6.99248
#
# Compressibility (1/GPa) = 0.01414460
#
# Stress axis : x y z
#
# Youngs Moduli (GPa) = 77.77389 126.24655 161.26963
#
# Poissons Ratio (x) = 0.39650 0.48224
# Poissons Ratio (y) = 0.24426 0.04621
# Poissons Ratio (z) = 0.23256 0.03618
#
# Static dielectric constant tensor:
#      x y z
#    x 1.950540 0.000000 -0.064270 
#    y 0.000000 2.083690 0.000000 
#    z -0.064270 0.000000 2.075580 
# 
# From -- ./inp_files/276709.got.cif
#   From: 2010.05.17/outbox.cif.g08.bks.cpg/sg15_139_cif.got.tgz:276709.got - 2010.06.03 18:47:42.
