data_PCOD9265549
_publ_section_title
;
Structure prediction by ZEFSAII (Michael W. Deem and Ramdas Pophale) SiO2 
 PCOD9265549
Probable space group: C 2/C
;
_chemical_formula_sum "Si O2"
_cell_formula_units_Z 40
_cell_length_a 12.613021
_cell_length_b 6.843599
_cell_length_c 29.254287
_cell_angle_alpha 90.000000
_cell_angle_beta 35.603543
_cell_angle_gamma 90.000000
_cell_volume 1470.095121
_symmetry_space_group_name_H-M "C 2/C"
_symmetry_group_IT_number 15
_symmetry_cell_setting 'monoclinic'
loop_
_space_group_symop_operation_xyz
x,y,z
-x,y,1/2-z
-x,-y,-z
x,-y,1/2+z
1/2+x,1/2+y,z
1/2-x,1/2+y,1/2-z
1/2-x,1/2-y,-z
1/2+x,1/2-y,1/2+z
loop_
_atom_site_type_symbol
_atom_site_label
_atom_site_fract_x
_atom_site_fract_y
_atom_site_fract_z
Si Si1 0.307913 0.416915 0.138407
Si Si2 0.347452 0.570086 0.942707
Si Si3 0.995594 0.629496 0.820537
Si Si4 0.102414 0.918144 0.169450
Si Si5 0.464955 0.968204 0.086502
O O1 0.496297 0.527959 0.082189
O O2 0.192376 0.459390 0.133582
O O3 0.384762 0.193045 0.112177
O O4 0.165874 0.439669 0.230063
O O5 0.439824 0.661344 0.865381
O O6 0.250000 0.750000 0.000000
O O7 0.169160 0.441032 0.995175
O O8 0.962830 0.857059 0.817410
O O9 0.031086 0.594796 0.861477
O O10 0.311388 0.877097 0.108164
O O11 0.000000 0.849009 0.250000
#
# Coordination Sequence:
#
# PCOD9265549 Si02
#       5
#     8   8   8   8   8
#     4   9  19  37  57  84 118 157 197 249 297 350
#     4  10  22  38  61  87 124 158 192 254 309 354
#     4  10  19  36  62  86 112 159 205 243 291 361
#     4  11  20  39  63  85 114 161 204 244 296 361
#     4  10  20  36  59  86 117 154 201 243 302 361
#
# _framework density 27.209123000000002
#
# number of rings (size 3 to 8) (size 9 to 14) (size 15 to 20)
#    0.000    2.000    4.000    1.800    0.000    1.600 
#    0.000    4.000   17.600    0.000    0.000    0.000 
#    0.000    0.000    0.000    0.000    0.000    0.000 
#
# Total GULP energy -111829.648455 kJ/mol
# GULP energy per Si atom -5591.482423 kJ/mol
# Density = 2.714719 g / cm^3
# Si number density = 27.209123 Si / 1000 Ang^3
#
#
#
# Elastic Constant Matrix: (Units=GPa)
#
#
# Indices 1 2 3 4 5 6 
#
# 1 150.6781 17.7357 23.6270 -0.0049 -27.1320 0.0092
# 2 17.7357 88.1391 2.3239 0.0749 -1.0403 0.0216
# 3 23.6270 2.3239 75.2293 0.0030 -12.1196 0.0151
# 4 -0.0049 0.0749 0.0030 19.2165 0.0080 12.0782
# 5 -27.1320 -1.0403 -12.1196 0.0080 70.7398 -0.0015
# 6 0.0092 0.0216 0.0151 12.0782 -0.0015 43.2708
#
#
#
# Elastic Compliance Matrix: (Units=1/GPa)
#
#
# Indices 1 2 3 4 5 6 
#
# 1 0.007567 -0.001442 -0.001921 0.000008 0.002552 -0.000002
# 2 -0.001442 0.011631 0.000033 -0.000051 -0.000376 0.000009
# 3 -0.001921 0.000033 0.014167 -0.000001 0.001691 -0.000004
# 4 0.000008 -0.000051 -0.000001 0.063111 -0.000005 -0.017616
# 5 0.002552 -0.000376 0.001691 -0.000005 0.015399 0.000001
# 6 -0.000002 0.000009 -0.000004 -0.017616 0.000001 0.028028
#
#
# Mechanical properties :
#
#
# Convention : Reuss Voigt Hill
#
# Bulk Modulus (GPa) = 37.44568 44.60218 41.02393
# Shear Modulus (GPa) = 32.16162 44.66941 38.41551
#
# Velocity S-wave (km/s) = 3.44178 4.05619 3.76155
# Velocity P-wave (km/s) = 5.43935 6.19394 5.82887
#
# Compressibility (1/GPa) = 0.02670535
#
# Stress axis : x y z
#
# Youngs Moduli (GPa) = 132.15052 85.98021 70.58459
#
# Poissons Ratio (x) = 0.12398 0.13559
# Poissons Ratio (y) = 0.19055 -0.00233
# Poissons Ratio (z) = 0.25385 -0.00283
#
# Static dielectric constant tensor:
#      x y z
#    x 2.159230 0.000040 -0.073250 
#    y 0.000040 2.451770 -0.000100 
#    z -0.073250 -0.000100 2.166870 
# 
# From -- ./inp_files/291925.got.cif
#   From: 2010.05.17/outbox.cif.g08.bks.cpg/sg15_146_cif.got.tgz:291925.got - 2010.06.03 18:47:42.
