data_PCOD9265918
_publ_section_title
;
Structure prediction by ZEFSAII (Michael W. Deem and Ramdas Pophale) SiO2 
 PCOD9265918
Probable space group: C 2/C
;
_chemical_formula_sum "Si O2"
_cell_formula_units_Z 44
_cell_length_a 17.503725
_cell_length_b 8.233059
_cell_length_c 26.238204
_cell_angle_alpha 90.000000
_cell_angle_beta 39.277450
_cell_angle_gamma 90.000000
_cell_volume 2393.766820
_symmetry_space_group_name_H-M "C 2/C"
_symmetry_group_IT_number 15
_symmetry_cell_setting 'monoclinic'
loop_
_space_group_symop_operation_xyz
x,y,z
-x,y,1/2-z
-x,-y,-z
x,-y,1/2+z
1/2+x,1/2+y,z
1/2-x,1/2+y,1/2-z
1/2-x,1/2-y,-z
1/2+x,1/2-y,1/2+z
loop_
_atom_site_type_symbol
_atom_site_label
_atom_site_fract_x
_atom_site_fract_y
_atom_site_fract_z
Si Si1 0.052781 0.622355 0.430981
Si Si2 0.574306 0.549921 0.319980
Si Si3 0.079715 0.059351 0.507510
Si Si4 0.231514 0.636416 0.642463
Si Si5 0.000000 0.155849 0.250000
Si Si6 0.680784 0.091320 0.780377
O O1 0.166438 0.729422 0.393582
O O2 0.099473 0.522759 0.357935
O O3 0.000000 0.500000 0.500000
O O4 0.946321 0.750215 0.474677
O O5 0.473076 0.516145 0.413914
O O6 0.526616 0.556566 0.287319
O O7 0.631184 0.725651 0.304528
O O8 0.682919 0.421878 0.269265
O O9 0.210120 0.990371 0.426560
O O10 0.000000 0.000000 0.500000
O O11 0.192258 0.546296 0.714838
O O12 0.116708 0.731519 0.680778
#
# Coordination Sequence:
#
# PCOD9265918 Si02
#       6
#     8   8   8   8   4   8
#     4  11  21  33  60  94 117 150 206 260 296 342
#     4  11  20  36  63  86 125 152 208 246 298 360
#     4  10  19  37  57  94 116 155 201 263 289 347
#     4  10  21  37  60  87 122 156 205 247 302 366
#     4  10  22  38  58  94 122 170 194 236 320 376
#     4  11  18  34  58  90 112 159 203 250 285 353
#
# _framework density 18.381072
#
# number of rings (size 3 to 8) (size 9 to 14) (size 15 to 20)
#    0.000    1.455    7.273    2.182    0.000    0.727 
#    0.000    0.000    0.000   32.727    0.000    0.000 
#    0.000    0.000    0.000    0.000    0.000    0.000 
#
# Total GULP energy -122719.302177 kJ/mol
# GULP energy per Si atom -5578.150099 kJ/mol
# Density = 1.833924 g / cm^3
# Si number density = 18.381072 Si / 1000 Ang^3
#
#
#
# Elastic Constant Matrix: (Units=GPa)
#
#
# Indices 1 2 3 4 5 6 
#
# 1 74.7755 26.3372 26.0928 0.0001 16.9289 0.0001
# 2 26.3372 76.6379 64.3949 0.0001 9.5981 0.0002
# 3 26.0928 64.3949 159.2791 0.0000 23.3418 0.0000
# 4 0.0001 0.0001 0.0000 35.2532 0.0000 2.6844
# 5 16.9289 9.5981 23.3418 0.0000 23.2317 0.0000
# 6 0.0001 0.0002 0.0000 2.6844 0.0000 22.0239
#
#
#
# Elastic Compliance Matrix: (Units=1/GPa)
#
#
# Indices 1 2 3 4 5 6 
#
# 1 0.017552 -0.005439 0.001019 0.000000 -0.011567 0.000000
# 2 -0.005439 0.021448 -0.008282 0.000000 0.003424 0.000000
# 3 0.001019 -0.008282 0.010633 0.000000 -0.008004 0.000000
# 4 0.000000 0.000000 0.000000 0.028632 0.000000 -0.003490
# 5 -0.011567 0.003424 -0.008004 0.000000 0.058100 0.000000
# 6 0.000000 0.000000 0.000000 -0.003490 0.000000 0.045831
#
#
# Mechanical properties :
#
#
# Convention : Reuss Voigt Hill
#
# Bulk Modulus (GPa) = 41.27492 60.48248 50.87870
# Shear Modulus (GPa) = 23.18291 29.02626 26.10459
#
# Velocity S-wave (km/s) = 3.55524 3.97815 3.77263
# Velocity P-wave (km/s) = 6.27351 7.35371 6.83498
#
# Compressibility (1/GPa) = 0.02422779
#
# Stress axis : x y z
#
# Youngs Moduli (GPa) = 56.97232 46.62532 94.05115
#
# Poissons Ratio (x) = 0.25361 -0.09582
# Poissons Ratio (y) = 0.30990 0.77890
# Poissons Ratio (z) = -0.05804 0.38614
#
# Static dielectric constant tensor:
#      x y z
#    x 1.518610 0.000000 0.005780 
#    y 0.000000 1.658080 0.000000 
#    z 0.005780 0.000000 1.650740 
# 
# From -- ./inp_files/202646.got.cif
#   From: 2010.05.17/outbox.cif.g08.bks.cpg/sg15_102_cif.got.tgz:202646.got - 2010.06.03 18:47:42.
