data_PCOD9265144
_publ_section_title
;
Structure prediction by ZEFSAII (Michael W. Deem and Ramdas Pophale) SiO2 
 PCOD9265144
Probable space group: C 2/C
;
_chemical_formula_sum "Si O2"
_cell_formula_units_Z 48
_cell_length_a 18.381548
_cell_length_b 8.684239
_cell_length_c 14.648596
_cell_angle_alpha 90.000000
_cell_angle_beta 128.343319
_cell_angle_gamma 90.000000
_cell_volume 1833.986991
_symmetry_space_group_name_H-M "C 2/C"
_symmetry_group_IT_number 15
_symmetry_cell_setting 'monoclinic'
loop_
_space_group_symop_operation_xyz
x,y,z
-x,y,1/2-z
-x,-y,-z
x,-y,1/2+z
1/2+x,1/2+y,z
1/2-x,1/2+y,1/2-z
1/2-x,1/2-y,-z
1/2+x,1/2-y,1/2+z
loop_
_atom_site_type_symbol
_atom_site_label
_atom_site_fract_x
_atom_site_fract_y
_atom_site_fract_z
Si Si1 0.370986 0.503374 0.710351
Si Si2 0.278879 0.079067 0.181468
Si Si3 0.097897 0.272524 0.874279
Si Si4 0.343910 0.948425 0.985003
Si Si5 0.852123 0.182119 0.865413
Si Si6 0.596579 0.843204 0.280776
O O1 0.393170 0.589134 0.632228
O O2 0.259804 0.485239 0.628734
O O3 0.406721 0.609382 0.822317
O O4 0.408568 0.332994 0.749144
O O5 0.192554 0.963831 0.118205
O O6 0.365402 0.960880 0.264770
O O7 0.314336 0.167083 0.118741
O O8 0.274767 0.214159 0.252180
O O9 0.105664 0.385799 0.966378
O O10 0.000000 0.304278 0.750000
O O11 0.335735 0.870511 0.079488
O O12 0.391759 0.812849 0.962967
O O13 0.500000 0.886488 0.250000
#
# Coordination Sequence:
#
# PCOD9265144 Si02
#       6
#     8   8   8   8   8   8
#     4  11  22  40  64  90 124 162 208 257 299 362
#     4  10  19  36  58  84 125 154 201 248 305 349
#     4  10  23  40  61  92 126 162 205 250 310 366
#     4  11  21  39  64  95 116 166 210 252 303 360
#     4  11  21  37  62  93 121 159 205 262 302 353
#     4  11  23  41  64  91 128 164 202 253 311 366
#
# _framework density 26.172485999999999
#
# number of rings (size 3 to 8) (size 9 to 14) (size 15 to 20)
#    0.000    1.333    3.333    3.500    2.333    0.000 
#    0.000    8.333    0.000    0.000    0.000    0.000 
#    0.000    0.000    0.000    0.000    0.000    0.000 
#
# Total GULP energy -133848.751446 kJ/mol
# GULP energy per Si atom -5577.031310 kJ/mol
# Density = 2.611292 g / cm^3
# Si number density = 26.172486 Si / 1000 Ang^3
#
#
#
# Elastic Constant Matrix: (Units=GPa)
#
#
# Indices 1 2 3 4 5 6 
#
# 1 64.9298 19.3466 14.0290 0.0000 -0.2187 0.0000
# 2 19.3466 148.2132 -1.0349 0.0000 -11.4170 0.0000
# 3 14.0290 -1.0349 41.2717 0.0000 -9.0294 0.0000
# 4 0.0000 0.0000 0.0000 35.6025 0.0000 -18.5279
# 5 -0.2187 -11.4170 -9.0294 0.0000 26.9176 0.0000
# 6 0.0000 0.0000 0.0000 -18.5279 0.0000 41.4066
#
#
#
# Elastic Compliance Matrix: (Units=1/GPa)
#
#
# Indices 1 2 3 4 5 6 
#
# 1 0.017625 -0.002596 -0.006762 0.000000 -0.003226 0.000000
# 2 -0.002596 0.007388 0.001887 0.000000 0.003745 0.000000
# 3 -0.006762 0.001887 0.028856 0.000000 0.010425 0.000000
# 4 0.000000 0.000000 0.000000 0.036614 0.000000 0.016383
# 5 -0.003226 0.003745 0.010425 0.000000 0.042210 0.000000
# 6 0.000000 0.000000 0.000000 0.016383 0.000000 0.031482
#
#
# Mechanical properties :
#
#
# Convention : Reuss Voigt Hill
#
# Bulk Modulus (GPa) = 25.68931 35.45512 30.57221
# Shear Modulus (GPa) = 26.02909 35.59026 30.80967
#
# Velocity S-wave (km/s) = 3.15702 3.69159 3.43472
# Velocity P-wave (km/s) = 4.80893 5.63441 5.23796
#
# Compressibility (1/GPa) = 0.03892670
#
# Stress axis : x y z
#
# Youngs Moduli (GPa) = 56.73747 135.36125 34.65434
#
# Poissons Ratio (x) = 0.35145 0.23433
# Poissons Ratio (y) = 0.14731 -0.06540
# Poissons Ratio (z) = 0.38366 -0.25546
#
# Static dielectric constant tensor:
#      x y z
#    x 2.135230 0.000000 -0.073610 
#    y 0.000000 2.076260 0.000000 
#    z -0.073610 0.000000 2.298280 
# 
# From -- ./inp_files/214076.got.cif
#   From: 2010.05.17/outbox.cif.g08.bks.cpg/sg15_108_cif.got.tgz:214076.got - 2010.06.03 18:47:42.
