data_PCOD9265525
_publ_section_title
;
Structure prediction by ZEFSAII (Michael W. Deem and Ramdas Pophale) SiO2 
 PCOD9265525
Probable space group: C 2/C
;
_chemical_formula_sum "Si O2"
_cell_formula_units_Z 56
_cell_length_a 16.916117
_cell_length_b 13.829558
_cell_length_c 12.092622
_cell_angle_alpha 90.000000
_cell_angle_beta 70.716725
_cell_angle_gamma 90.000000
_cell_volume 2670.264262
_symmetry_space_group_name_H-M "C 2/C"
_symmetry_group_IT_number 15
_symmetry_cell_setting 'monoclinic'
loop_
_space_group_symop_operation_xyz
x,y,z
-x,y,1/2-z
-x,-y,-z
x,-y,1/2+z
1/2+x,1/2+y,z
1/2-x,1/2+y,1/2-z
1/2-x,1/2-y,-z
1/2+x,1/2-y,1/2+z
loop_
_atom_site_type_symbol
_atom_site_label
_atom_site_fract_x
_atom_site_fract_y
_atom_site_fract_z
Si Si1 0.066974 0.460547 0.382835
Si Si2 0.691914 0.021468 0.010223
Si Si3 0.500000 0.199015 0.750000
Si Si4 0.230739 0.752691 0.820958
Si Si5 0.320779 0.804129 0.393802
Si Si6 0.879721 0.360028 0.766398
Si Si7 0.500000 0.692172 0.750000
Si Si8 0.655081 0.361405 0.051176
O O1 0.155320 0.459998 0.405874
O O2 0.074645 0.545818 0.293375
O O3 0.000000 0.500000 0.500000
O O4 0.035843 0.366635 0.333820
O O5 0.646656 0.109161 0.097936
O O6 0.670069 0.914449 0.064952
O O7 0.790672 0.040850 0.981954
O O8 0.585606 0.243895 0.658384
O O9 0.207841 0.696247 0.721304
O O10 0.291132 0.839294 0.750123
O O11 0.290704 0.695511 0.879442
O O12 0.161660 0.802165 0.932671
O O13 0.250000 0.750000 0.500000
O O14 0.938585 0.268543 0.718271
O O15 0.438974 0.633894 0.859493
#
# Coordination Sequence:
#
# PCOD9265525 Si02
#       8
#     8   8   4   8   8   8   4   8
#     4  12  20  34  60  97 122 155 200 271 310 383
#     4  11  22  39  63  89 127 166 215 253 323 382
#     4  12  25  40  61  96 126 168 220 255 326 385
#     4   9  20  39  61  85 128 162 206 258 319 377
#     4  12  25  44  59  95 134 177 210 264 323 396
#     4  10  20  36  58  93 120 154 204 257 320 371
#     4  10  19  36  61  96 130 150 210 271 318 377
#     4   9  20  39  63  93 119 167 207 267 316 378
#
# _framework density 20.971706999999999
#
# number of rings (size 3 to 8) (size 9 to 14) (size 15 to 20)
#    0.000    1.429    2.857    3.857    0.000    1.143 
#    2.571    0.714    0.000    3.429    0.000    0.000 
#    0.000    0.000    0.000    0.000    0.000    0.000 
#
# Total GULP energy -155918.220125 kJ/mol
# GULP energy per Si atom -5568.507862 kJ/mol
# Density = 2.092397 g / cm^3
# Si number density = 20.971707 Si / 1000 Ang^3
#
#
#
# Elastic Constant Matrix: (Units=GPa)
#
#
# Indices 1 2 3 4 5 6 
#
# 1 85.2561 22.6458 64.4540 0.0000 -23.0483 0.0000
# 2 22.6458 29.9780 18.2256 0.0000 -2.0077 0.0000
# 3 64.4540 18.2256 109.7433 0.0000 -15.3660 0.0000
# 4 0.0000 0.0000 0.0000 17.0978 0.0000 -7.3151
# 5 -23.0483 -2.0077 -15.3660 0.0000 58.7957 0.0000
# 6 0.0000 0.0000 0.0000 -7.3151 0.0000 25.2301
#
#
#
# Elastic Compliance Matrix: (Units=1/GPa)
#
#
# Indices 1 2 3 4 5 6 
#
# 1 0.025962 -0.011636 -0.012400 0.000000 0.006539 0.000000
# 2 -0.011636 0.042326 -0.000656 0.000000 -0.003287 0.000000
# 3 -0.012400 -0.000656 0.016421 0.000000 -0.000592 0.000000
# 4 0.000000 0.000000 0.000000 0.066769 0.000000 0.019359
# 5 0.006539 -0.003287 -0.000592 0.000000 0.019305 0.000000
# 6 0.000000 0.000000 0.000000 0.019359 0.000000 0.045248
#
#
# Mechanical properties :
#
#
# Convention : Reuss Voigt Hill
#
# Bulk Modulus (GPa) = 28.30739 48.40314 38.35527
# Shear Modulus (GPa) = 18.03816 28.20152 23.11984
#
# Velocity S-wave (km/s) = 2.93596 3.67105 3.32389
# Velocity P-wave (km/s) = 5.00203 6.41086 5.74976
#
# Compressibility (1/GPa) = 0.03532646
#
# Stress axis : x y z
#
# Youngs Moduli (GPa) = 38.51712 23.62610 60.89745
#
# Poissons Ratio (x) = 0.27490 0.75514
# Poissons Ratio (y) = 0.44817 0.03994
# Poissons Ratio (z) = 0.47762 0.01549
#
# Static dielectric constant tensor:
#      x y z
#    x 1.849040 0.000000 -0.086970 
#    y 0.000000 1.772170 0.000000 
#    z -0.086970 0.000000 1.718230 
# 
# From -- ./inp_files/105329.got.cif
#   From: 2010.05.17/outbox.cif.g08.bks.cpg/sg15_53_cif.got.tgz:105329.got - 2010.06.03 18:47:42.
