data_PCOD9265323
_publ_section_title
;
Structure prediction by ZEFSAII (Michael W. Deem and Ramdas Pophale) SiO2 
 PCOD9265323
Probable space group: C 2/C
;
_chemical_formula_sum "Si O2"
_cell_formula_units_Z 64
_cell_length_a 18.036566
_cell_length_b 21.528633
_cell_length_c 13.954412
_cell_angle_alpha 90.000000
_cell_angle_beta 33.289484
_cell_angle_gamma 90.000000
_cell_volume 2974.067866
_symmetry_space_group_name_H-M "C 2/C"
_symmetry_group_IT_number 15
_symmetry_cell_setting 'monoclinic'
loop_
_space_group_symop_operation_xyz
x,y,z
-x,y,1/2-z
-x,-y,-z
x,-y,1/2+z
1/2+x,1/2+y,z
1/2-x,1/2+y,1/2-z
1/2-x,1/2-y,-z
1/2+x,1/2-y,1/2+z
loop_
_atom_site_type_symbol
_atom_site_label
_atom_site_fract_x
_atom_site_fract_y
_atom_site_fract_z
Si Si1 0.993641 0.563529 0.371682
Si Si2 0.985075 0.295903 0.880685
Si Si3 0.672603 0.304135 0.280303
Si Si4 0.190003 0.312983 0.173651
Si Si5 0.188605 0.450979 0.176474
Si Si6 0.182019 0.056390 0.771239
Si Si7 0.886257 0.949474 0.791284
Si Si8 0.887102 0.185979 0.290818
O O1 0.033366 0.634158 0.355564
O O2 0.088639 0.507684 0.303241
O O3 0.000000 0.561683 0.250000
O O4 0.840436 0.554472 0.570612
O O5 0.072743 0.245414 0.842486
O O6 0.000000 0.287792 0.750000
O O7 0.825848 0.292745 0.077397
O O8 0.692344 0.305091 0.374197
O O9 0.632296 0.374786 0.298775
O O10 0.127470 0.381337 0.256180
O O11 0.105227 0.250066 0.274430
O O12 0.248538 0.314175 0.002798
O O13 0.309243 0.452868 0.124075
O O14 0.249933 0.454964 0.003467
O O15 0.109757 0.003129 0.790480
O O16 0.892315 0.881193 0.736631
O O17 0.000000 0.953556 0.750000
O O18 0.000000 0.186278 0.250000
#
# Coordination Sequence:
#
# PCOD9265323 Si02
#       8
#     8   8   8   8   8   8   8   8
#     4  10  19  36  60  83 115 146 182 238 288 330
#     4  10  22  39  59  84 115 150 190 238 289 338
#     4  10  22  39  60  85 117 148 190 241 283 342
#     4   9  20  36  55  87 112 151 187 230 284 338
#     4  10  20  37  58  84 114 146 188 231 284 338
#     4  10  21  38  58  85 114 147 188 235 284 335
#     4  10  21  38  57  80 115 152 187 233 280 332
#     4   9  19  36  56  79 119 150 186 232 279 339
#
# _framework density 21.519347
#
# number of rings (size 3 to 8) (size 9 to 14) (size 15 to 20)
#    0.000    2.250    1.250    0.750    1.750    2.500 
#    4.500    0.000    0.000    0.000    0.000    0.000 
#    0.000    0.000    0.000    0.000    0.000    0.000 
#
# Total GULP energy -178625.033254 kJ/mol
# GULP energy per Si atom -5582.032289 kJ/mol
# Density = 2.147037 g / cm^3
# Si number density = 21.519347 Si / 1000 Ang^3
#
#
#
# Elastic Constant Matrix: (Units=GPa)
#
#
# Indices 1 2 3 4 5 6 
#
# 1 54.2833 87.8205 8.5914 -0.0007 6.8581 0.0007
# 2 87.8205 252.9584 26.8197 -0.0004 -18.7848 0.0005
# 3 8.5914 26.8197 77.3733 -0.0031 11.8377 0.0030
# 4 -0.0007 -0.0004 -0.0031 -0.0245 0.0011 -7.8231
# 5 6.8581 -18.7848 11.8377 0.0011 28.5575 -0.0015
# 6 0.0007 0.0005 0.0030 -7.8231 -0.0015 52.1172
#
#
#
# Elastic Compliance Matrix: (Units=1/GPa)
#
#
# Indices 1 2 3 4 5 6 
#
# 1 0.061113 -0.024433 0.006820 -0.000064 -0.033575 -0.000012
# 2 -0.024433 0.014231 -0.004858 0.000032 0.017242 0.000006
# 3 0.006820 -0.004858 0.015578 -0.000045 -0.011291 -0.000008
# 4 -0.000064 0.000032 -0.000045 -0.834136 0.000081 -0.125209
# 5 -0.033575 0.017242 -0.011291 0.000081 0.059102 0.000015
# 6 -0.000012 0.000006 -0.000008 -0.125209 0.000015 0.000393
#
#
# Mechanical properties :
#
#
# Convention : Reuss Voigt Hill
#
# Bulk Modulus (GPa) = 21.74836 70.11980 45.93408
# Shear Modulus (GPa) = -8.01990 33.55559 12.76785
#
# Velocity S-wave (km/s) = -1.93259 3.95311 2.43846
# Velocity P-wave (km/s) = 2.26902 7.31378 5.41479
#
# Compressibility (1/GPa) = 0.04598048
#
# Stress axis : x y z
#
# Youngs Moduli (GPa) = 16.36323 70.26795 64.19147
#
# Poissons Ratio (x) = 1.71686 -0.43779
# Poissons Ratio (y) = 0.39980 0.31184
# Poissons Ratio (z) = -0.11160 0.34136
#
# Static dielectric constant tensor:
#      x y z
#    x 1.733350 0.000000 0.025420 
#    y 0.000000 1.798810 0.000000 
#    z 0.025420 0.000000 1.867420 
# 
# From -- ./inp_files/113661.got.cif
#   From: 2010.05.17/outbox.cif.g08.bks.cpg/sg15_57_cif.got.tgz:113661.got - 2010.06.03 18:47:42.
