data_PCOD9265515
_publ_section_title
;
Structure prediction by ZEFSAII (Michael W. Deem and Ramdas Pophale) SiO2 
 PCOD9265515
Probable space group: C 2/C
;
_chemical_formula_sum "Si O2"
_cell_formula_units_Z 56
_cell_length_a 15.604217
_cell_length_b 15.993554
_cell_length_c 19.476245
_cell_angle_alpha 90.000000
_cell_angle_beta 141.892889
_cell_angle_gamma 90.000000
_cell_volume 2999.655217
_symmetry_space_group_name_H-M "C 2/C"
_symmetry_group_IT_number 15
_symmetry_cell_setting 'monoclinic'
loop_
_space_group_symop_operation_xyz
x,y,z
-x,y,1/2-z
-x,-y,-z
x,-y,1/2+z
1/2+x,1/2+y,z
1/2-x,1/2+y,1/2-z
1/2-x,1/2-y,-z
1/2+x,1/2-y,1/2+z
loop_
_atom_site_type_symbol
_atom_site_label
_atom_site_fract_x
_atom_site_fract_y
_atom_site_fract_z
Si Si1 0.999969 0.858341 0.825923
Si Si2 0.721550 0.874456 0.263687
Si Si3 0.188380 0.703858 0.150497
Si Si4 0.095180 0.691122 0.934306
Si Si5 0.116143 0.966792 0.019870
Si Si6 0.378245 0.977516 0.116964
Si Si7 0.929954 0.471275 0.885080
O O1 0.097476 0.775617 0.891437
O O2 0.000000 0.895384 0.750000
O O3 0.847144 0.823797 0.743306
O O4 0.036699 0.922756 0.908079
O O5 0.812147 0.790635 0.306537
O O6 0.564501 0.841255 0.167269
O O7 0.788453 0.902643 0.377275
O O8 0.697193 0.962670 0.208461
O O9 0.115016 0.624431 0.137954
O O10 0.132101 0.710761 0.036581
O O11 0.168582 0.611628 0.945431
O O12 0.241515 0.020507 0.063838
O O13 0.000000 0.000000 0.000000
O O14 0.500000 0.965097 0.250000
O O15 0.456741 0.021935 0.103870
O O16 0.000000 0.500000 0.000000
#
# Coordination Sequence:
#
# PCOD9265515 Si02
#       7
#     8   8   8   8   8   8   8
#     4  11  24  33  56  94 133 166 197 264 338 399
#     4  10  21  38  61  93 125 168 213 261 329 379
#     4  11  21  38  60  94 129 169 211 258 322 395
#     4  10  19  36  61  92 127 163 206 256 327 406
#     4  12  24  41  59  89 134 171 212 270 328 383
#     4  11  21  37  64  92 123 170 214 263 315 390
#     4  11  21  39  66  94 124 172 221 265 310 394
#
# _framework density 18.668813
#
# number of rings (size 3 to 8) (size 9 to 14) (size 15 to 20)
#    0.000    1.143    7.143    2.143    2.000    1.143 
#    0.000    0.000    0.000    0.857    0.000    0.000 
#    0.000    0.000    0.000    0.000    0.000    0.000 
#
# Total GULP energy -155913.531903 kJ/mol
# GULP energy per Si atom -5568.340425 kJ/mol
# Density = 1.862632 g / cm^3
# Si number density = 18.668813 Si / 1000 Ang^3
#
#
#
# Elastic Constant Matrix: (Units=GPa)
#
#
# Indices 1 2 3 4 5 6 
#
# 1 102.1646 40.6797 30.6283 0.0000 -2.8963 0.0000
# 2 40.6797 83.7645 30.4707 0.0000 -10.6256 0.0000
# 3 30.6283 30.4707 108.5472 0.0000 -14.4464 0.0000
# 4 0.0000 0.0000 0.0000 27.8531 0.0001 -2.6363
# 5 -2.8963 -10.6256 -14.4464 0.0001 31.6037 0.0000
# 6 0.0000 0.0000 0.0000 -2.6363 0.0000 29.1361
#
#
#
# Elastic Compliance Matrix: (Units=1/GPa)
#
#
# Indices 1 2 3 4 5 6 
#
# 1 0.012612 -0.005530 -0.002236 0.000000 -0.001726 0.000000
# 2 -0.005530 0.015983 -0.002426 0.000000 0.003758 0.000000
# 3 -0.002236 -0.002426 0.011062 0.000000 0.004036 0.000000
# 4 0.000000 0.000000 0.000000 0.036213 0.000000 0.003277
# 5 -0.001726 0.003758 0.004036 0.000000 0.034592 0.000000
# 6 0.000000 0.000000 0.000000 0.003277 0.000000 0.034618
#
#
# Mechanical properties :
#
#
# Convention : Reuss Voigt Hill
#
# Bulk Modulus (GPa) = 51.88879 55.33710 53.61295
# Shear Modulus (GPa) = 29.08878 30.56510 29.82694
#
# Velocity S-wave (km/s) = 3.95162 4.05066 4.00145
# Velocity P-wave (km/s) = 6.97676 7.18212 7.08018
#
# Compressibility (1/GPa) = 0.01927198
#
# Stress axis : x y z
#
# Youngs Moduli (GPa) = 79.29258 62.56560 90.40291
#
# Poissons Ratio (x) = 0.34601 0.20212
# Poissons Ratio (y) = 0.43851 0.21933
# Poissons Ratio (z) = 0.17728 0.15179
#
# Static dielectric constant tensor:
#      x y z
#    x 1.694410 0.000000 0.025890 
#    y 0.000000 1.644880 0.000000 
#    z 0.025890 0.000000 1.694020 
# 
# From -- ./inp_files/206282.got.cif
#   From: 2010.05.17/outbox.cif.g08.bks.cpg/sg15_104_cif.got.tgz:206282.got - 2010.06.03 18:47:42.
