data_PCOD9265818
_publ_section_title
;
Structure prediction by ZEFSAII (Michael W. Deem and Ramdas Pophale) SiO2 
 PCOD9265818
Probable space group: C 2/C
;
_chemical_formula_sum "Si O2"
_cell_formula_units_Z 64
_cell_length_a 12.153772
_cell_length_b 13.040137
_cell_length_c 25.260039
_cell_angle_alpha 90.000000
_cell_angle_beta 132.580424
_cell_angle_gamma 90.000000
_cell_volume 2947.805018
_symmetry_space_group_name_H-M "C 2/C"
_symmetry_group_IT_number 15
_symmetry_cell_setting 'monoclinic'
loop_
_space_group_symop_operation_xyz
x,y,z
-x,y,1/2-z
-x,-y,-z
x,-y,1/2+z
1/2+x,1/2+y,z
1/2-x,1/2+y,1/2-z
1/2-x,1/2-y,-z
1/2+x,1/2-y,1/2+z
loop_
_atom_site_type_symbol
_atom_site_label
_atom_site_fract_x
_atom_site_fract_y
_atom_site_fract_z
Si Si1 0.573636 0.364859 0.579029
Si Si2 0.091803 0.743103 0.480983
Si Si3 0.368969 0.040497 0.165648
Si Si4 0.993352 0.755084 0.158054
Si Si5 0.726543 0.630890 0.451096
Si Si6 0.266718 0.920580 0.405190
Si Si7 0.608225 0.841740 0.391846
Si Si8 0.204918 0.678010 0.687679
O O1 0.566495 0.335887 0.514311
O O2 0.701709 0.446690 0.633539
O O3 0.416851 0.384848 0.556410
O O4 0.647377 0.265303 0.629357
O O5 0.250000 0.750000 0.500000
O O6 0.104807 0.638853 0.519291
O O7 0.978381 0.743960 0.395402
O O8 0.500000 0.017901 0.250000
O O9 0.420936 0.148429 0.155535
O O10 0.346324 0.948688 0.117632
O O11 0.143107 0.784795 0.237370
O O12 0.877785 0.847741 0.131612
O O13 0.745637 0.532446 0.421558
O O14 0.695388 0.736087 0.409008
O O15 0.864206 0.647563 0.535867
O O16 0.284365 0.919579 0.347523
O O17 0.435095 0.832014 0.319447
#
# Coordination Sequence:
#
# PCOD9265818 Si02
#       8
#     8   8   8   8   8   8   8   8
#     4  10  20  38  67  92 124 168 211 259 323 371
#     4   9  17  32  58 101 123 146 210 277 304 368
#     4  12  21  39  66  95 128 162 209 271 320 378
#     4  11  19  36  65 100 123 155 209 282 318 358
#     4  10  23  44  63  89 131 175 209 260 314 394
#     4  10  19  36  69  95 121 163 220 262 313 381
#     4  10  25  43  60  87 132 173 210 251 327 384
#     4  10  20  41  64  90 125 169 210 258 325 379
#
# _framework density 21.711068999999998
#
# number of rings (size 3 to 8) (size 9 to 14) (size 15 to 20)
#    0.000    1.750    5.000    1.125    1.750    2.000 
#    2.250    3.750    0.000    0.000    0.000    0.000 
#    0.000    0.000    0.000    0.000    0.000    0.000 
#
# Total GULP energy -178559.757047 kJ/mol
# GULP energy per Si atom -5579.992408 kJ/mol
# Density = 2.166165 g / cm^3
# Si number density = 21.711069 Si / 1000 Ang^3
#
#
#
# Elastic Constant Matrix: (Units=GPa)
#
#
# Indices 1 2 3 4 5 6 
#
# 1 32.8861 5.6417 22.3513 0.0000 10.3343 0.0000
# 2 5.6417 123.7215 31.0884 0.0000 3.5047 0.0000
# 3 22.3513 31.0884 117.5048 0.0000 5.2044 0.0000
# 4 0.0000 0.0000 0.0000 23.1946 0.0000 -5.5093
# 5 10.3343 3.5047 5.2044 0.0000 26.5610 0.0000
# 6 0.0000 0.0000 0.0000 -5.5093 0.0000 20.3609
#
#
#
# Elastic Compliance Matrix: (Units=1/GPa)
#
#
# Indices 1 2 3 4 5 6 
#
# 1 0.039511 0.000352 -0.006986 0.000000 -0.014051 0.000000
# 2 0.000352 0.008674 -0.002325 0.000000 -0.000826 0.000000
# 3 -0.006986 -0.002325 0.010411 0.000000 0.000985 0.000000
# 4 0.000000 0.000000 0.000000 0.046075 0.000000 0.012467
# 5 -0.014051 -0.000826 0.000985 0.000000 0.043032 0.000000
# 6 0.000000 0.000000 0.000000 0.012467 0.000000 0.052487
#
#
# Mechanical properties :
#
#
# Convention : Reuss Voigt Hill
#
# Bulk Modulus (GPa) = 24.58418 43.58614 34.08516
# Shear Modulus (GPa) = 21.58253 28.35870 24.97062
#
# Velocity S-wave (km/s) = 3.15632 3.61804 3.39504
# Velocity P-wave (km/s) = 4.96297 6.12966 5.57691
#
# Compressibility (1/GPa) = 0.04067656
#
# Stress axis : x y z
#
# Youngs Moduli (GPa) = 25.30919 115.28277 96.05407
#
# Poissons Ratio (x) = -0.04056 0.67108
# Poissons Ratio (y) = -0.00890 0.22336
# Poissons Ratio (z) = 0.17682 0.26807
#
# Static dielectric constant tensor:
#      x y z
#    x 1.956430 0.000000 0.004070 
#    y 0.000000 1.794270 0.000000 
#    z 0.004070 0.000000 1.800540 
# 
# From -- ./inp_files/296170.got.cif
#   From: 2010.05.17/outbox.cif.g08.bks.cpg/sg15_149_cif.got.tgz:296170.got - 2010.06.03 18:47:42.
