data_PCOD9265296
_publ_section_title
;
Structure prediction by ZEFSAII (Michael W. Deem and Ramdas Pophale) SiO2 
 PCOD9265296
Probable space group: C 2/C
;
_chemical_formula_sum "Si O2"
_cell_formula_units_Z 56
_cell_length_a 12.144865
_cell_length_b 14.867626
_cell_length_c 24.566942
_cell_angle_alpha 90.000000
_cell_angle_beta 142.030247
_cell_angle_gamma 90.000000
_cell_volume 2729.190110
_symmetry_space_group_name_H-M "C 2/C"
_symmetry_group_IT_number 15
_symmetry_cell_setting 'monoclinic'
loop_
_space_group_symop_operation_xyz
x,y,z
-x,y,1/2-z
-x,-y,-z
x,-y,1/2+z
1/2+x,1/2+y,z
1/2-x,1/2+y,1/2-z
1/2-x,1/2-y,-z
1/2+x,1/2-y,1/2+z
loop_
_atom_site_type_symbol
_atom_site_label
_atom_site_fract_x
_atom_site_fract_y
_atom_site_fract_z
Si Si1 0.499134 0.484716 0.588000
Si Si2 0.434959 0.397887 0.285318
Si Si3 0.288857 0.260911 0.079676
Si Si4 0.030539 0.400683 0.536952
Si Si5 0.043710 0.520914 0.641437
Si Si6 0.251089 0.153859 0.473242
Si Si7 0.772837 0.558030 0.109930
O O1 0.476700 0.544479 0.632400
O O2 0.438151 0.388029 0.584864
O O3 0.365778 0.524142 0.490753
O O4 0.689906 0.476874 0.633720
O O5 0.500000 0.421595 0.250000
O O6 0.514549 0.299628 0.329580
O O7 0.227666 0.423708 0.211238
O O8 0.270222 0.165846 0.102837
O O9 0.250000 0.250000 0.000000
O O10 0.140371 0.335851 0.038854
O O11 0.000000 0.500000 0.500000
O O12 0.059918 0.429905 0.610914
O O13 0.194245 0.353702 0.568832
O O14 0.898085 0.589180 0.558997
O O15 0.959512 0.486076 0.664931
O O16 0.250000 0.250000 0.500000
#
# Coordination Sequence:
#
# PCOD9265296 Si02
#       7
#     8   8   8   8   8   8   8
#     4  10  21  39  66  91 126 173 215 259 338 401
#     4  12  24  41  64  93 132 168 216 278 341 389
#     4  12  21  41  69  98 126 174 233 271 317 404
#     4  10  19  36  64  88 124 167 211 262 323 391
#     4  10  21  38  58  88 129 166 205 265 336 383
#     4  10  19  36  59  90 122 165 217 262 309 389
#     4  10  21  41  66  97 123 167 225 274 316 403
#
# _framework density 20.518909000000001
#
# number of rings (size 3 to 8) (size 9 to 14) (size 15 to 20)
#    0.000    1.429    2.857    5.143    0.000    0.571 
#    5.143    0.000    0.000    0.000    0.000    0.000 
#    0.000    0.000    0.000    0.000    0.000    0.000 
#
# Total GULP energy -156122.132290 kJ/mol
# GULP energy per Si atom -5575.790439 kJ/mol
# Density = 2.047221 g / cm^3
# Si number density = 20.518909 Si / 1000 Ang^3
#
#
#
# Elastic Constant Matrix: (Units=GPa)
#
#
# Indices 1 2 3 4 5 6 
#
# 1 162.4336 51.5935 36.5218 0.0000 12.2289 0.0000
# 2 51.5935 90.2738 -2.7376 0.0000 9.7705 0.0000
# 3 36.5218 -2.7376 56.4154 0.0000 14.8162 0.0000
# 4 0.0000 0.0000 0.0000 24.1808 0.0000 2.8728
# 5 12.2289 9.7705 14.8162 0.0000 28.1141 0.0000
# 6 0.0000 0.0000 0.0000 2.8728 0.0000 24.0574
#
#
#
# Elastic Compliance Matrix: (Units=1/GPa)
#
#
# Indices 1 2 3 4 5 6 
#
# 1 0.009377 -0.005721 -0.006731 0.000000 0.001456 0.000000
# 2 -0.005721 0.015173 0.006002 0.000000 -0.005948 0.000000
# 3 -0.006731 0.006002 0.025712 0.000000 -0.012708 0.000000
# 4 0.000000 0.000000 0.000000 0.041950 0.000000 -0.005009
# 5 0.001456 -0.005948 -0.012708 0.000000 0.043700 0.000000
# 6 0.000000 0.000000 0.000000 -0.005009 0.000000 0.042166
#
#
# Mechanical properties :
#
#
# Convention : Reuss Voigt Hill
#
# Bulk Modulus (GPa) = 26.76506 53.31982 40.04244
# Shear Modulus (GPa) = 24.57831 30.18678 27.38255
#
# Velocity S-wave (km/s) = 3.46473 3.83974 3.65705
# Velocity P-wave (km/s) = 5.39242 6.76020 6.11468
#
# Compressibility (1/GPa) = 0.03736214
#
# Stress axis : x y z
#
# Youngs Moduli (GPa) = 106.64147 65.90724 38.89276
#
# Poissons Ratio (x) = 0.37706 0.26178
# Poissons Ratio (y) = 0.61010 -0.23343
# Poissons Ratio (z) = 0.71777 -0.39557
#
# Static dielectric constant tensor:
#      x y z
#    x 1.783010 0.000000 -0.004310 
#    y 0.000000 1.880130 0.000000 
#    z -0.004310 0.000000 1.787720 
# 
# From -- ./inp_files/292887.got.cif
#   From: 2010.05.17/outbox.cif.g08.bks.cpg/sg15_147_cif.got.tgz:292887.got - 2010.06.03 18:47:42.
