data_PCOD9265054
_publ_section_title
;
Structure prediction by ZEFSAII (Michael W. Deem and Ramdas Pophale) SiO2 
 PCOD9265054
Probable space group: C 2/C
;
_chemical_formula_sum "Si O2"
_cell_formula_units_Z 44
_cell_length_a 13.905601
_cell_length_b 5.278180
_cell_length_c 25.797122
_cell_angle_alpha 90.000000
_cell_angle_beta 88.572446
_cell_angle_gamma 90.000000
_cell_volume 1892.824736
_symmetry_space_group_name_H-M "C 2/C"
_symmetry_group_IT_number 15
_symmetry_cell_setting 'monoclinic'
loop_
_space_group_symop_operation_xyz
x,y,z
-x,y,1/2-z
-x,-y,-z
x,-y,1/2+z
1/2+x,1/2+y,z
1/2-x,1/2+y,1/2-z
1/2-x,1/2-y,-z
1/2+x,1/2-y,1/2+z
loop_
_atom_site_type_symbol
_atom_site_label
_atom_site_fract_x
_atom_site_fract_y
_atom_site_fract_z
Si Si1 0.473523 0.215218 0.445114
Si Si2 0.387859 0.525694 0.846815
Si Si3 0.847452 0.980105 0.019982
Si Si4 0.500000 0.609352 0.750000
Si Si5 0.319696 0.834880 0.421564
Si Si6 0.806717 0.341539 0.763534
O O1 0.446608 0.391132 0.396423
O O2 0.584209 0.266080 0.455603
O O3 0.417235 0.299448 0.498413
O O4 0.424991 0.953514 0.429030
O O5 0.458961 0.452066 0.798913
O O6 0.317756 0.306484 0.867207
O O7 0.331093 0.763206 0.822722
O O8 0.762611 0.035248 0.061583
O O9 0.805641 0.876179 0.966375
O O10 0.409613 0.784099 0.735037
O O11 0.734638 0.117838 0.746079
#
# Coordination Sequence:
#
# PCOD9265054 Si02
#       6
#     8   8   8   4   8   8
#     4  10  19  36  57  83 120 157 200 255 317 377
#     4   9  22  39  56  90 117 161 213 263 318 387
#     4   9  20  35  55  86 118 158 197 253 314 381
#     4   8  22  44  58  92 128 164 216 278 322 388
#     4  10  19  36  57  84 119 154 207 251 311 386
#     4  10  23  44  68  91 127 172 216 272 335 384
#
# _framework density 23.245681000000001
#
# number of rings (size 3 to 8) (size 9 to 14) (size 15 to 20)
#    1.091    1.455    0.000    1.091    2.545    2.182 
#    6.545    0.000    0.000    0.000    0.000    0.000 
#    0.000    0.000    0.000    0.000    0.000    0.000 
#
# Total GULP energy -122574.110011 kJ/mol
# GULP energy per Si atom -5571.550455 kJ/mol
# Density = 2.319277 g / cm^3
# Si number density = 23.245681 Si / 1000 Ang^3
#
#
#
# Elastic Constant Matrix: (Units=GPa)
#
#
# Indices 1 2 3 4 5 6 
#
# 1 93.4034 0.2965 33.8785 0.0000 -0.2431 0.0000
# 2 0.2965 51.2298 19.1260 0.0000 -4.1775 0.0000
# 3 33.8785 19.1260 117.4012 0.0000 -18.7216 0.0000
# 4 0.0000 0.0000 0.0000 21.6268 0.0000 13.9061
# 5 -0.2431 -4.1775 -18.7216 0.0000 32.4817 0.0000
# 6 0.0000 0.0000 0.0000 13.9061 0.0000 21.8060
#
#
#
# Elastic Compliance Matrix: (Units=1/GPa)
#
#
# Indices 1 2 3 4 5 6 
#
# 1 0.012166 0.001272 -0.004049 0.000000 -0.002079 0.000000
# 2 0.001272 0.020936 -0.003686 0.000000 0.000578 0.000000
# 3 -0.004049 -0.003686 0.011239 0.000000 0.005974 0.000000
# 4 0.000000 0.000000 0.000000 0.078378 0.000000 -0.049983
# 5 -0.002079 0.000578 0.005974 0.000000 0.034288 0.000000
# 6 0.000000 0.000000 0.000000 -0.049983 0.000000 0.077734
#
#
# Mechanical properties :
#
#
# Convention : Reuss Voigt Hill
#
# Bulk Modulus (GPa) = 31.83261 40.95961 36.39611
# Shear Modulus (GPa) = 19.36943 29.09847 24.23395
#
# Velocity S-wave (km/s) = 2.88974 3.54189 3.23230
# Velocity P-wave (km/s) = 4.98576 5.86389 5.44256
#
# Compressibility (1/GPa) = 0.03141433
#
# Stress axis : x y z
#
# Youngs Moduli (GPa) = 82.19922 47.76556 88.97293
#
# Poissons Ratio (x) = -0.06075 0.36029
# Poissons Ratio (y) = -0.10454 0.32791
# Poissons Ratio (z) = 0.33286 0.17604
#
# Static dielectric constant tensor:
#      x y z
#    x 1.928080 0.000000 -0.004570 
#    y 0.000000 1.980430 0.000000 
#    z -0.004570 0.000000 1.883340 
# 
# From -- ./inp_files/294268.got.cif
#   From: 2010.05.17/outbox.cif.g08.bks.cpg/sg15_148_cif.got.tgz:294268.got - 2010.06.03 18:47:42.
