data_PCOD9265911
_publ_section_title
;
Structure prediction by ZEFSAII (Michael W. Deem and Ramdas Pophale) SiO2 
 PCOD9265911
Probable space group: C 2/C
;
_chemical_formula_sum "Si O2"
_cell_formula_units_Z 60
_cell_length_a 17.111262
_cell_length_b 28.727773
_cell_length_c 10.668662
_cell_angle_alpha 90.000000
_cell_angle_beta 28.349057
_cell_angle_gamma 90.000000
_cell_volume 2490.250275
_symmetry_space_group_name_H-M "C 2/C"
_symmetry_group_IT_number 15
_symmetry_cell_setting 'monoclinic'
loop_
_space_group_symop_operation_xyz
x,y,z
-x,y,1/2-z
-x,-y,-z
x,-y,1/2+z
1/2+x,1/2+y,z
1/2-x,1/2+y,1/2-z
1/2-x,1/2-y,-z
1/2+x,1/2-y,1/2+z
loop_
_atom_site_type_symbol
_atom_site_label
_atom_site_fract_x
_atom_site_fract_y
_atom_site_fract_z
Si Si1 0.280597 0.917543 0.401861
Si Si2 0.114338 0.563395 0.343172
Si Si3 0.000000 0.608243 0.250000
Si Si4 0.812342 0.275895 0.570698
Si Si5 0.152390 0.903684 0.303801
Si Si6 0.373610 0.356687 0.542015
Si Si7 0.844114 0.006598 0.882582
Si Si8 0.679438 0.318438 0.524650
O O1 0.185459 0.918015 0.400969
O O2 0.180594 0.953927 0.629596
O O3 0.291307 0.861953 0.401728
O O4 0.468646 0.933908 0.145885
O O5 0.027019 0.579311 0.337823
O O6 0.258076 0.599642 0.171143
O O7 0.196716 0.515226 0.190316
O O8 0.815165 0.627352 0.535058
O O9 0.682377 0.288036 0.645143
O O10 0.785978 0.220565 0.630386
O O11 0.751464 0.313435 0.758124
O O12 0.000000 0.281994 0.250000
O O13 0.992491 0.874136 0.488257
O O14 0.156082 0.951923 0.218021
O O15 0.500000 0.347364 0.250000
O O16 0.000000 0.011158 0.750000
O O17 0.500000 0.337211 0.750000
#
# Coordination Sequence:
#
# PCOD9265911 Si02
#       8
#     8   8   4   8   8   8   8   8
#     4  11  23  36  66  87 123 174 228 263 323 397
#     4  10  19  37  57  88 128 168 210 263 317 385
#     4   8  16  32  58  80 120 176 196 248 326 372
#     4  10  23  41  71  96 133 172 219 274 336 382
#     4  10  20  38  59  91 129 172 212 271 330 382
#     4  12  20  39  72  97 136 173 213 267 337 394
#     4  11  20  38  56  85 125 168 212 264 324 389
#     4  10  21  44  64  93 127 168 224 275 320 391
#
# _framework density 24.093962999999999
#
# number of rings (size 3 to 8) (size 9 to 14) (size 15 to 20)
#    0.000    1.600    4.000    2.400    0.000    0.533 
#    2.400    0.000   14.667    8.800    0.000    0.000 
#    0.000    0.000    0.000    0.000    0.000    0.000 
#
# Total GULP energy -167183.765846 kJ/mol
# GULP energy per Si atom -5572.792195 kJ/mol
# Density = 2.403912 g / cm^3
# Si number density = 24.093963 Si / 1000 Ang^3
#
#
#
# Elastic Constant Matrix: (Units=GPa)
#
#
# Indices 1 2 3 4 5 6 
#
# 1 67.0892 0.3020 18.1699 0.0003 -8.3312 -0.0011
# 2 0.3020 151.4622 59.7959 0.0002 3.4788 -0.0001
# 3 18.1699 59.7959 115.0055 0.0014 -23.3623 -0.0025
# 4 0.0003 0.0002 0.0014 18.5281 -0.0007 9.4430
# 5 -8.3312 3.4788 -23.3623 -0.0007 35.6469 0.0018
# 6 -0.0011 -0.0001 -0.0025 9.4430 0.0018 18.2451
#
#
#
# Elastic Compliance Matrix: (Units=1/GPa)
#
#
# Indices 1 2 3 4 5 6 
#
# 1 0.015845 0.000958 -0.002616 0.000000 0.001895 0.000000
# 2 0.000958 0.008949 -0.005694 0.000000 -0.004381 0.000000
# 3 -0.002616 -0.005694 0.013910 -0.000001 0.009061 0.000002
# 4 0.000000 0.000000 -0.000001 0.073310 0.000002 -0.037942
# 5 0.001895 -0.004381 0.009061 0.000002 0.034861 -0.000003
# 6 0.000000 0.000000 0.000002 -0.037942 -0.000003 0.074446
#
#
# Mechanical properties :
#
#
# Convention : Reuss Voigt Hill
#
# Bulk Modulus (GPa) = 41.66986 54.45471 48.06229
# Shear Modulus (GPa) = 20.48953 31.50330 25.99642
#
# Velocity S-wave (km/s) = 2.91933 3.61989 3.28832
# Velocity P-wave (km/s) = 5.35682 6.33415 5.86588
#
# Compressibility (1/GPa) = 0.02399816
#
# Stress axis : x y z
#
# Youngs Moduli (GPa) = 63.11074 111.74272 71.89118
#
# Poissons Ratio (x) = -0.10703 0.18810
# Poissons Ratio (y) = -0.06045 0.40938
# Poissons Ratio (z) = 0.16513 0.63631
#
# Static dielectric constant tensor:
#      x y z
#    x 1.930260 0.000000 0.071960 
#    y 0.000000 2.001390 0.000000 
#    z 0.071960 0.000000 2.177770 
# 
# From -- ./inp_files/108393.got.cif
#   From: 2010.05.17/outbox.cif.g08.bks.cpg/sg15_55_cif.got.tgz:108393.got - 2010.06.03 18:47:42.
