data_PCOD9265611
_publ_section_title
;
Structure prediction by ZEFSAII (Michael W. Deem and Ramdas Pophale) SiO2 
 PCOD9265611
Probable space group: C 2/C
;
_chemical_formula_sum "Si O2"
_cell_formula_units_Z 40
_cell_length_a 11.455537
_cell_length_b 28.867152
_cell_length_c 10.001396
_cell_angle_alpha 90.000000
_cell_angle_beta 147.422144
_cell_angle_gamma 90.000000
_cell_volume 1780.825982
_symmetry_space_group_name_H-M "C 2/C"
_symmetry_group_IT_number 15
_symmetry_cell_setting 'monoclinic'
loop_
_space_group_symop_operation_xyz
x,y,z
-x,y,1/2-z
-x,-y,-z
x,-y,1/2+z
1/2+x,1/2+y,z
1/2-x,1/2+y,1/2-z
1/2-x,1/2-y,-z
1/2+x,1/2-y,1/2+z
loop_
_atom_site_type_symbol
_atom_site_label
_atom_site_fract_x
_atom_site_fract_y
_atom_site_fract_z
Si Si1 0.006079 0.421952 0.600296
Si Si2 0.500000 0.203163 0.750000
Si Si3 0.074653 0.239450 0.049350
Si Si4 0.500000 0.430894 0.750000
Si Si5 0.725817 0.483178 0.162993
Si Si6 0.794267 0.854613 0.717780
O O1 0.139952 0.469783 0.713249
O O2 0.102560 0.377918 0.617270
O O3 0.000000 0.411174 0.750000
O O4 0.793590 0.440433 0.322014
O O5 0.435579 0.233771 0.816782
O O6 0.307023 0.170728 0.509925
O O7 0.331546 0.249578 0.249975
O O8 0.080394 0.184536 0.080070
O O9 0.302033 0.462831 0.512916
O O10 0.435511 0.397435 0.806827
O O11 0.500000 0.500000 0.000000
#
# Coordination Sequence:
#
# PCOD9265611 Si02
#       6
#     8   4   8   4   8   8
#     4  11  25  41  60  86 127 171 216 256 315 391
#     4  10  19  36  62  94 130 158 204 278 339 380
#     4  10  20  36  60  91 129 160 198 270 344 389
#     4  12  21  36  64  92 124 154 220 268 321 378
#     4  11  23  42  60  86 121 168 210 269 321 366
#     4  11  21  36  60  96 119 161 208 263 322 387
#
# _framework density 22.461487000000002
#
# number of rings (size 3 to 8) (size 9 to 14) (size 15 to 20)
#    0.000    1.200    2.000    6.600    2.800    1.600 
#    0.000    0.000    0.000    4.800    0.000    0.000 
#    0.000    0.000    0.000    0.000    0.000    0.000 
#
# Total GULP energy -111517.287129 kJ/mol
# GULP energy per Si atom -5575.864356 kJ/mol
# Density = 2.241036 g / cm^3
# Si number density = 22.461487 Si / 1000 Ang^3
#
#
#
# Elastic Constant Matrix: (Units=GPa)
#
#
# Indices 1 2 3 4 5 6 
#
# 1 38.8576 14.6687 19.4955 0.0000 4.1435 0.0000
# 2 14.6687 99.8710 23.2474 0.0000 -0.1758 0.0000
# 3 19.4955 23.2474 99.6558 0.0000 8.5352 0.0000
# 4 0.0000 0.0000 0.0000 33.3944 0.0000 18.9282
# 5 4.1435 -0.1758 8.5352 0.0000 26.1996 0.0000
# 6 0.0000 0.0000 0.0000 18.9282 0.0000 29.5206
#
#
#
# Elastic Compliance Matrix: (Units=1/GPa)
#
#
# Indices 1 2 3 4 5 6 
#
# 1 0.029699 -0.003255 -0.004780 0.000000 -0.003162 0.000000
# 2 -0.003255 0.010965 -0.002028 0.000000 0.001249 0.000000
# 3 -0.004780 -0.002028 0.011706 0.000000 -0.003071 0.000000
# 4 0.000000 0.000000 0.000000 0.047041 0.000000 -0.030162
# 5 -0.003162 0.001249 -0.003071 0.000000 0.039677 0.000000
# 6 0.000000 0.000000 0.000000 -0.030162 0.000000 0.053214
#
#
# Mechanical properties :
#
#
# Convention : Reuss Voigt Hill
#
# Bulk Modulus (GPa) = 31.01352 39.24529 35.12940
# Shear Modulus (GPa) = 22.40371 29.88778 26.14575
#
# Velocity S-wave (km/s) = 3.16163 3.65173 3.41548
# Velocity P-wave (km/s) = 5.21203 5.94057 5.58819
#
# Compressibility (1/GPa) = 0.03224400
#
# Stress axis : x y z
#
# Youngs Moduli (GPa) = 33.67117 91.19680 85.42797
#
# Poissons Ratio (x) = 0.29685 0.40833
# Poissons Ratio (y) = 0.10960 0.17326
# Poissons Ratio (z) = 0.16094 0.18496
#
# Static dielectric constant tensor:
#      x y z
#    x 1.810600 0.000000 0.051610 
#    y 0.000000 1.796680 0.000000 
#    z 0.051610 0.000000 1.941880 
# 
# From -- ./inp_files/92258.got.cif
#   From: 2010.05.17/outbox.cif.g08.bks.cpg/sg15_47_cif.got.tgz:92258.got - 2010.06.03 18:47:42.
