data_PCOD9265915
_publ_section_title
;
Structure prediction by ZEFSAII (Michael W. Deem and Ramdas Pophale) SiO2 
 PCOD9265915
Probable space group: C 2/C
;
_chemical_formula_sum "Si O2"
_cell_formula_units_Z 64
_cell_length_a 21.849754
_cell_length_b 7.884854
_cell_length_c 21.941217
_cell_angle_alpha 90.000000
_cell_angle_beta 128.527588
_cell_angle_gamma 90.000000
_cell_volume 2957.187570
_symmetry_space_group_name_H-M "C 2/C"
_symmetry_group_IT_number 15
_symmetry_cell_setting 'monoclinic'
loop_
_space_group_symop_operation_xyz
x,y,z
-x,y,1/2-z
-x,-y,-z
x,-y,1/2+z
1/2+x,1/2+y,z
1/2-x,1/2+y,1/2-z
1/2-x,1/2-y,-z
1/2+x,1/2-y,1/2+z
loop_
_atom_site_type_symbol
_atom_site_label
_atom_site_fract_x
_atom_site_fract_y
_atom_site_fract_z
Si Si1 0.921755 0.495715 0.888436
Si Si2 0.727857 0.179545 0.720793
Si Si3 0.916501 0.614363 0.523823
Si Si4 0.648284 0.484897 0.038750
Si Si5 0.297351 0.824051 0.647632
Si Si6 0.546837 0.732130 0.687633
Si Si7 0.623219 0.783293 0.925084
Si Si8 0.626441 0.499355 0.158693
O O1 0.836969 0.537554 0.809713
O O2 0.956578 0.328820 0.879522
O O3 0.988458 0.632911 0.911654
O O4 0.911355 0.469360 0.953514
O O5 0.748870 0.198851 0.662015
O O6 0.681664 0.346071 0.710981
O O7 0.809693 0.152962 0.804021
O O8 0.875210 0.797812 0.498782
O O9 0.882429 0.472825 0.549245
O O10 0.741380 0.510558 0.111158
O O11 0.601748 0.520223 0.073427
O O12 0.631408 0.636550 0.980830
O O13 0.383553 0.820471 0.731615
O O14 0.312297 0.770404 0.587655
O O15 0.460573 0.748500 0.659207
O O16 0.569077 0.545160 0.678057
#
# Coordination Sequence:
#
# PCOD9265915 Si02
#       8
#     8   8   8   8   8   8   8   8
#     4  10  19  37  57  92 125 145 204 257 318 367
#     4  10  20  35  61  84 119 154 196 263 303 367
#     4  10  22  36  60  93 121 162 194 257 312 368
#     4  11  22  38  64  91 129 159 207 258 312 377
#     4  10  22  41  60  89 123 171 211 244 305 374
#     4  10  21  40  66  87 118 165 204 262 311 361
#     4  11  24  41  64  88 127 170 208 250 306 378
#     4  10  20  34  56  93 115 153 204 251 326 357
#
# _framework density 21.642184
#
# number of rings (size 3 to 8) (size 9 to 14) (size 15 to 20)
#    0.000    1.750    1.250    4.500    1.750    1.000 
#    0.000    0.000    5.500    1.500    0.000    0.000 
#    0.000    0.000    0.000    0.000    0.000    0.000 
#
# Total GULP energy -178344.692404 kJ/mol
# GULP energy per Si atom -5573.271638 kJ/mol
# Density = 2.159293 g / cm^3
# Si number density = 21.642184 Si / 1000 Ang^3
#
#
#
# Elastic Constant Matrix: (Units=GPa)
#
#
# Indices 1 2 3 4 5 6 
#
# 1 103.9547 30.5170 22.8491 0.0000 -6.5467 0.0000
# 2 30.5170 84.4003 8.2306 0.0000 -4.4503 0.0000
# 3 22.8491 8.2306 70.0749 0.0000 0.7121 0.0000
# 4 0.0000 0.0000 0.0000 23.6819 0.0000 4.8036
# 5 -6.5467 -4.4503 0.7121 0.0000 31.7535 0.0000
# 6 0.0000 0.0000 0.0000 4.8036 0.0000 16.2627
#
#
#
# Elastic Compliance Matrix: (Units=1/GPa)
#
#
# Indices 1 2 3 4 5 6 
#
# 1 0.011582 -0.003759 -0.003355 0.000000 0.001936 0.000000
# 2 -0.003759 0.013299 -0.000348 0.000000 0.001097 0.000000
# 3 -0.003355 -0.000348 0.015416 0.000000 -0.001086 0.000000
# 4 0.000000 0.000000 0.000000 0.044918 0.000000 -0.013268
# 5 0.001936 0.001097 -0.001086 0.000000 0.032070 0.000000
# 6 0.000000 0.000000 0.000000 -0.013268 0.000000 0.065409
#
#
# Mechanical properties :
#
#
# Convention : Reuss Voigt Hill
#
# Bulk Modulus (GPa) = 39.40814 42.40259 40.90536
# Shear Modulus (GPa) = 24.26304 27.46183 25.86244
#
# Velocity S-wave (km/s) = 3.35191 3.56603 3.46063
# Velocity P-wave (km/s) = 5.76445 6.04901 5.90845
#
# Compressibility (1/GPa) = 0.02537547
#
# Stress axis : x y z
#
# Youngs Moduli (GPa) = 86.33879 75.19336 64.86680
#
# Poissons Ratio (x) = 0.28262 0.21762
# Poissons Ratio (y) = 0.32451 0.02255
# Poissons Ratio (z) = 0.28965 0.02614
#
# Static dielectric constant tensor:
#      x y z
#    x 1.799550 0.000000 0.040790 
#    y 0.000000 1.892380 0.000000 
#    z 0.040790 0.000000 1.870530 
# 
# From -- ./inp_files/251929.got.cif
#   From: 2010.05.17/outbox.cif.g08.bks.cpg/sg15_126_cif.got.tgz:251929.got - 2010.06.03 18:47:42.
