data_PCOD9265064
_publ_section_title
;
Structure prediction by ZEFSAII (Michael W. Deem and Ramdas Pophale) SiO2 
 PCOD9265064
Probable space group: C 2/C
;
_chemical_formula_sum "Si O2"
_cell_formula_units_Z 56
_cell_length_a 22.049232
_cell_length_b 24.064590
_cell_length_c 5.336319
_cell_angle_alpha 90.000000
_cell_angle_beta 90.857299
_cell_angle_gamma 90.000000
_cell_volume 2831.164474
_symmetry_space_group_name_H-M "C 2/C"
_symmetry_group_IT_number 15
_symmetry_cell_setting 'monoclinic'
loop_
_space_group_symop_operation_xyz
x,y,z
-x,y,1/2-z
-x,-y,-z
x,-y,1/2+z
1/2+x,1/2+y,z
1/2-x,1/2+y,1/2-z
1/2-x,1/2-y,-z
1/2+x,1/2-y,1/2+z
loop_
_atom_site_type_symbol
_atom_site_label
_atom_site_fract_x
_atom_site_fract_y
_atom_site_fract_z
Si Si1 0.632838 0.175214 0.204778
Si Si2 0.895277 0.016948 0.304938
Si Si3 0.183278 0.199671 0.721376
Si Si4 0.197782 0.354416 0.212595
Si Si5 0.739606 0.470672 0.200832
Si Si6 0.000000 0.210433 0.250000
Si Si7 0.372935 0.352416 0.777385
Si Si8 0.500000 0.213876 0.250000
O O1 0.656472 0.238830 0.202136
O O2 0.665198 0.147001 0.443810
O O3 0.561066 0.178193 0.240117
O O4 0.651840 0.148845 0.941769
O O5 0.876972 0.081176 0.292481
O O6 0.928780 0.002036 0.559890
O O7 0.833242 0.979608 0.306333
O O8 0.255659 0.197149 0.760028
O O9 0.165846 0.167396 0.464817
O O10 0.154575 0.170955 0.965821
O O11 0.239373 0.408794 0.242560
O O12 0.761806 0.508871 0.431882
O O13 0.939747 0.173197 0.245577
O O14 0.998574 0.248019 0.500230
#
# Coordination Sequence:
#
# PCOD9265064 Si02
#       8
#     8   8   8   8   8   4   8   4
#     4  12  24  41  61  94 124 167 205 257 310 374
#     4  10  20  35  55  83 116 157 209 254 305 355
#     4  12  22  39  60  92 133 164 196 260 315 381
#     4  12  24  38  62  96 130 159 206 257 320 377
#     4  10  19  36  57  85 120 161 197 243 307 378
#     4  12  22  42  62  91 118 173 230 252 290 358
#     4  12  22  38  64  90 122 175 219 253 303 363
#     4  12  24  46  66  83 130 169 218 252 298 362
#
# _framework density 19.779845000000002
#
# number of rings (size 3 to 8) (size 9 to 14) (size 15 to 20)
#    0.000    0.571    2.857    8.571    0.000    0.000 
#    0.000    0.714    0.000    0.000    0.000   10.000 
#    0.000    0.000    0.000    0.000    0.000    0.000 
#
# Total GULP energy -156655.640231 kJ/mol
# GULP energy per Si atom -5594.844294 kJ/mol
# Density = 1.973483 g / cm^3
# Si number density = 19.779845 Si / 1000 Ang^3
#
#
#
# Elastic Constant Matrix: (Units=GPa)
#
#
# Indices 1 2 3 4 5 6 
#
# 1 76.9132 -0.7433 -14.7592 0.0000 -14.5104 0.0000
# 2 -0.7433 42.1991 9.3500 0.0000 -6.0849 0.0000
# 3 -14.7592 9.3500 134.3890 0.0000 -10.6828 0.0000
# 4 0.0000 0.0000 0.0000 31.6955 0.0000 -9.1652
# 5 -14.5104 -6.0849 -10.6828 0.0000 25.1619 0.0000
# 6 0.0000 0.0000 0.0000 -9.1652 0.0000 -35.1517
#
#
#
# Elastic Compliance Matrix: (Units=1/GPa)
#
#
# Indices 1 2 3 4 5 6 
#
# 1 0.015402 0.001206 0.002418 0.000000 0.010200 0.000000
# 2 0.001206 0.024862 -0.001101 0.000000 0.006241 0.000000
# 3 0.002418 -0.001101 0.008148 0.000000 0.004588 0.000000
# 4 0.000000 0.000000 0.000000 0.029338 0.000000 -0.007649
# 5 0.010200 0.006241 0.004588 0.000000 0.049082 0.000000
# 6 0.000000 0.000000 0.000000 -0.007649 0.000000 -0.026454
#
#
# Mechanical properties :
#
#
# Convention : Reuss Voigt Hill
#
# Bulk Modulus (GPa) = 18.70587 26.79960 22.75273
# Shear Modulus (GPa) = 44.18856 21.65138 32.91997
#
# Velocity S-wave (km/s) = 4.73167 3.31209 4.08403
# Velocity P-wave (km/s) = 6.27130 5.31083 5.81094
#
# Compressibility (1/GPa) = 0.05345914
#
# Stress axis : x y z
#
# Youngs Moduli (GPa) = 64.92735 40.22157 122.72969
#
# Poissons Ratio (x) = -0.04852 -0.29681
# Poissons Ratio (y) = -0.07832 0.13515
# Poissons Ratio (z) = -0.15702 0.04429
#
# Static dielectric constant tensor:
#      x y z
#    x 1.681810 0.000000 -0.002980 
#    y 0.000000 1.680360 0.000000 
#    z -0.002980 0.000000 1.764370 
# 
# From -- ./inp_files/13734.got.cif
#   From: 2010.05.17/outbox.cif.g08.bks.cpg/sg15_7_cif.got.tgz:13734.got - 2010.06.03 18:47:42.
