data_PCOD9265042
_publ_section_title
;
Structure prediction by ZEFSAII (Michael W. Deem and Ramdas Pophale) SiO2 
 PCOD9265042
Probable space group: C 2/C
;
_chemical_formula_sum "Si O2"
_cell_formula_units_Z 56
_cell_length_a 24.696938
_cell_length_b 13.273102
_cell_length_c 24.233029
_cell_angle_alpha 90.000000
_cell_angle_beta 21.894090
_cell_angle_gamma 90.000000
_cell_volume 2962.145582
_symmetry_space_group_name_H-M "C 2/C"
_symmetry_group_IT_number 15
_symmetry_cell_setting 'monoclinic'
loop_
_space_group_symop_operation_xyz
x,y,z
-x,y,1/2-z
-x,-y,-z
x,-y,1/2+z
1/2+x,1/2+y,z
1/2-x,1/2+y,1/2-z
1/2-x,1/2-y,-z
1/2+x,1/2-y,1/2+z
loop_
_atom_site_type_symbol
_atom_site_label
_atom_site_fract_x
_atom_site_fract_y
_atom_site_fract_z
Si Si1 0.874183 0.555367 0.482090
Si Si2 0.672342 0.358665 0.082627
Si Si3 0.309883 0.907923 0.844263
Si Si4 0.695193 0.762284 0.380605
Si Si5 0.279017 0.986378 0.256411
Si Si6 0.928873 0.181224 0.570232
Si Si7 0.411780 0.114394 0.032409
O O1 0.737083 0.585002 0.574863
O O2 0.884544 0.638095 0.521527
O O3 0.869746 0.446877 0.516542
O O4 0.018584 0.575106 0.309330
O O5 0.500000 0.344811 0.250000
O O6 0.750000 0.250000 0.000000
O O7 0.718200 0.424867 0.985862
O O8 0.261109 0.797598 0.869753
O O9 0.281175 0.971288 0.816100
O O10 0.827844 0.792428 0.217494
O O11 0.587812 0.695283 0.445152
O O12 0.129265 0.927217 0.391428
O O13 0.318782 0.065462 0.170514
O O14 0.417387 0.910796 0.121135
O O15 0.900704 0.265386 0.549679
#
# Coordination Sequence:
#
# PCOD9265042 Si02
#       7
#     8   8   8   8   8   8   8
#     4  11  22  39  60  81 116 157 192 232 282 345
#     4  12  26  40  59  85 114 150 192 239 289 336
#     4  11  23  39  58  84 114 156 194 233 285 340
#     4  12  21  32  57  86 121 151 190 234 277 340
#     4  10  20  36  57  82 117 154 191 230 284 344
#     4  12  21  36  55  88 120 157 189 231 283 338
#     4  10  19  36  57  82 116 156 187 229 288 340
#
# _framework density 18.905214999999998
#
# number of rings (size 3 to 8) (size 9 to 14) (size 15 to 20)
#    0.000    0.857    7.143    2.143    2.000    0.571 
#    2.571    0.000    0.000    0.857    0.000    0.000 
#    0.000    0.000    0.000    0.000    0.000    0.000 
#
# Total GULP energy -156258.563861 kJ/mol
# GULP energy per Si atom -5580.662995 kJ/mol
# Density = 1.886219 g / cm^3
# Si number density = 18.905215 Si / 1000 Ang^3
#
#
#
# Elastic Constant Matrix: (Units=GPa)
#
#
# Indices 1 2 3 4 5 6 
#
# 1 87.8809 19.4729 35.5170 0.0005 -3.8354 -0.0003
# 2 19.4729 44.5082 28.7838 -0.0005 -0.8968 -0.0001
# 3 35.5170 28.7838 105.0108 -0.0020 -1.1736 0.0009
# 4 0.0005 -0.0005 -0.0020 24.6604 0.0010 -2.7149
# 5 -3.8354 -0.8968 -1.1736 0.0010 30.8142 -0.0003
# 6 -0.0003 -0.0001 0.0009 -2.7149 -0.0003 22.7928
#
#
#
# Elastic Compliance Matrix: (Units=1/GPa)
#
#
# Indices 1 2 3 4 5 6 
#
# 1 0.013712 -0.003623 -0.003628 -0.000001 0.001463 0.000000
# 2 -0.003623 0.028274 -0.006523 0.000000 0.000123 0.000000
# 3 -0.003628 -0.006523 0.012536 0.000001 -0.000164 0.000000
# 4 -0.000001 0.000000 0.000001 0.041090 -0.000001 0.004894
# 5 0.001463 0.000123 -0.000164 -0.000001 0.032632 0.000000
# 6 0.000000 0.000000 0.000000 0.004894 0.000000 0.044456
#
#
# Mechanical properties :
#
#
# Convention : Reuss Voigt Hill
#
# Bulk Modulus (GPa) = 37.07418 44.99414 41.03416
# Shear Modulus (GPa) = 23.89592 25.89525 24.89558
#
# Velocity S-wave (km/s) = 3.55911 3.70502 3.63280
# Velocity P-wave (km/s) = 6.04507 6.49264 6.27285
#
# Compressibility (1/GPa) = 0.02697295
#
# Stress axis : x y z
#
# Youngs Moduli (GPa) = 72.92829 35.36808 79.76925
#
# Poissons Ratio (x) = 0.12815 0.28942
# Poissons Ratio (y) = 0.26424 0.52035
# Poissons Ratio (z) = 0.26460 0.23071
#
# Static dielectric constant tensor:
#      x y z
#    x 1.692390 0.000000 -0.029710 
#    y 0.000000 1.713980 0.000000 
#    z -0.029710 0.000000 1.673530 
# 
# From -- ./inp_files/61626.got.cif
#   From: 2010.05.17/outbox.cif.g08.bks.cpg/sg15_31_cif.got.tgz:61626.got - 2010.06.03 18:47:42.
