data_PCOD9265699
_publ_section_title
;
Structure prediction by ZEFSAII (Michael W. Deem and Ramdas Pophale) SiO2 
 PCOD9265699
Probable space group: C 2/C
;
_chemical_formula_sum "Si O2"
_cell_formula_units_Z 52
_cell_length_a 14.789442
_cell_length_b 18.266229
_cell_length_c 19.954606
_cell_angle_alpha 90.000000
_cell_angle_beta 27.415784
_cell_angle_gamma 90.000000
_cell_volume 2482.109789
_symmetry_space_group_name_H-M "C 2/C"
_symmetry_group_IT_number 15
_symmetry_cell_setting 'monoclinic'
loop_
_space_group_symop_operation_xyz
x,y,z
-x,y,1/2-z
-x,-y,-z
x,-y,1/2+z
1/2+x,1/2+y,z
1/2-x,1/2+y,1/2-z
1/2-x,1/2-y,-z
1/2+x,1/2-y,1/2+z
loop_
_atom_site_type_symbol
_atom_site_label
_atom_site_fract_x
_atom_site_fract_y
_atom_site_fract_z
Si Si1 0.247246 0.703490 0.657230
Si Si2 0.070736 0.044797 0.811736
Si Si3 0.814842 0.549009 0.513595
Si Si4 0.500000 0.323772 0.750000
Si Si5 0.912472 0.666959 0.106126
Si Si6 0.546468 0.100345 0.878406
Si Si7 0.009756 0.113625 0.101715
O O1 0.167902 0.769173 0.663659
O O2 0.415837 0.746044 0.589364
O O3 0.062194 0.668796 0.818078
O O4 0.331928 0.641668 0.553751
O O5 0.194612 0.033323 0.661534
O O6 0.220906 0.092277 0.756476
O O7 0.851051 0.064639 0.932983
O O8 0.042236 0.970261 0.870281
O O9 0.940524 0.622774 0.442752
O O10 0.952000 0.476228 0.414748
O O11 0.436205 0.371623 0.855798
O O12 0.692060 0.656611 0.277221
O O13 0.941921 0.622675 0.016595
#
# Coordination Sequence:
#
# PCOD9265699 Si02
#       7
#     8   8   8   4   8   8   8
#     4  11  25  34  56  87 127 153 187 242 306 351
#     4  10  20  35  63  89 110 151 207 244 281 340
#     4  10  19  36  64  85 112 154 207 246 272 344
#     4  10  22  36  54  86 114 160 194 230 290 368
#     4  10  19  39  57  83 112 159 199 237 283 345
#     4  11  21  40  59  88 117 155 196 243 293 348
#     4  11  20  36  58  83 121 150 189 244 293 345
#
# _framework density 20.949919000000001
#
# number of rings (size 3 to 8) (size 9 to 14) (size 15 to 20)
#    0.000    1.538    3.077    4.154    4.308    0.615 
#    0.000    0.769    0.000    1.846    0.000    0.000 
#    0.000    0.000    0.000    0.000    0.000    0.000 
#
# Total GULP energy -144956.190263 kJ/mol
# GULP energy per Si atom -5575.238087 kJ/mol
# Density = 2.090224 g / cm^3
# Si number density = 20.949919 Si / 1000 Ang^3
#
#
#
# Elastic Constant Matrix: (Units=GPa)
#
#
# Indices 1 2 3 4 5 6 
#
# 1 43.0611 5.2457 13.3061 0.0143 -21.0960 0.0119
# 2 5.2457 53.5178 2.1954 -0.0067 -9.3337 0.0218
# 3 13.3061 2.1954 53.3909 0.0155 -7.0049 -0.0370
# 4 0.0143 -0.0067 0.0155 23.7004 -0.0452 -5.3650
# 5 -21.0960 -9.3337 -7.0049 -0.0452 25.3303 0.0316
# 6 0.0119 0.0218 -0.0370 -5.3650 0.0316 -2.1101
#
#
#
# Elastic Compliance Matrix: (Units=1/GPa)
#
#
# Indices 1 2 3 4 5 6 
#
# 1 0.041178 0.002032 -0.005964 0.000151 0.033393 0.000475
# 2 0.002032 0.020070 -0.000145 0.000065 0.009048 0.000191
# 3 -0.005964 -0.000145 0.020300 -0.000060 0.000593 -0.000229
# 4 0.000151 0.000065 -0.000060 0.026782 0.000266 -0.068085
# 5 0.033393 0.009048 0.000593 0.000266 0.070787 0.000657
# 6 0.000475 0.000191 -0.000229 -0.068085 0.000657 -0.300778
#
#
# Mechanical properties :
#
#
# Convention : Reuss Voigt Hill
#
# Bulk Modulus (GPa) = 13.62504 21.27382 17.44943
# Shear Modulus (GPa) = -56.15242 17.99896 -19.07673
#
# Velocity S-wave (km/s) = -5.18279 2.93429 -3.02087
# Velocity P-wave (km/s) = 5.41271 4.65368 1.95456
#
# Compressibility (1/GPa) = 0.07339425
#
# Stress axis : x y z
#
# Youngs Moduli (GPa) = 24.28494 49.82557 49.26132
#
# Poissons Ratio (x) = -0.10126 0.29382
# Poissons Ratio (y) = -0.04935 0.00712
# Poissons Ratio (z) = 0.14485 0.00720
#
# Static dielectric constant tensor:
#      x y z
#    x 1.838880 -0.000010 -0.054480 
#    y -0.000010 1.750970 0.000020 
#    z -0.054480 0.000020 1.744070 
# 
# From -- ./inp_files/245368.got.cif
#   From: 2010.05.17/outbox.cif.g08.bks.cpg/sg15_123_cif.got.tgz:245368.got - 2010.06.03 18:47:42.
