data_PCOD9265188
_publ_section_title
;
Structure prediction by ZEFSAII (Michael W. Deem and Ramdas Pophale) SiO2 
 PCOD9265188
Probable space group: C 2/C
;
_chemical_formula_sum "Si O2"
_cell_formula_units_Z 48
_cell_length_a 15.575077
_cell_length_b 12.150922
_cell_length_c 13.810957
_cell_angle_alpha 90.000000
_cell_angle_beta 72.181554
_cell_angle_gamma 90.000000
_cell_volume 2488.366037
_symmetry_space_group_name_H-M "C 2/C"
_symmetry_group_IT_number 15
_symmetry_cell_setting 'monoclinic'
loop_
_space_group_symop_operation_xyz
x,y,z
-x,y,1/2-z
-x,-y,-z
x,-y,1/2+z
1/2+x,1/2+y,z
1/2-x,1/2+y,1/2-z
1/2-x,1/2-y,-z
1/2+x,1/2-y,1/2+z
loop_
_atom_site_type_symbol
_atom_site_label
_atom_site_fract_x
_atom_site_fract_y
_atom_site_fract_z
Si Si1 0.400279 0.435934 0.401175
Si Si2 0.909150 0.817586 0.840904
Si Si3 0.821618 0.353617 0.479275
Si Si4 0.232851 0.949171 0.896236
Si Si5 0.719485 0.175813 0.304219
Si Si6 0.104347 0.106044 0.825963
O O1 0.396984 0.569819 0.406084
O O2 0.320577 0.392410 0.496782
O O3 0.389400 0.410339 0.291636
O O4 0.499907 0.393604 0.392988
O O5 0.908546 0.710203 0.909339
O O6 0.824599 0.805908 0.796101
O O7 0.000000 0.829917 0.750000
O O8 0.750000 0.250000 0.500000
O O9 0.793051 0.453257 0.420612
O O10 0.818594 0.393669 0.591220
O O11 0.285371 0.875544 0.800519
O O12 0.153939 0.005990 0.860803
O O13 0.660517 0.285524 0.329975
#
# Coordination Sequence:
#
# PCOD9265188 Si02
#       6
#     8   8   8   8   8   8
#     4  11  21  35  59  94 119 151 206 266 295 345
#     4  11  18  35  61  91 119 151 206 255 296 352
#     4  10  19  36  58  89 124 155 200 256 294 362
#     4  12  19  35  62  87 119 166 202 244 309 364
#     4  11  22  36  57  88 124 166 194 243 318 361
#     4  11  21  36  56  88 129 153 196 259 305 354
#
# _framework density 19.289767000000001
#
# number of rings (size 3 to 8) (size 9 to 14) (size 15 to 20)
#    0.000    1.000   10.000    0.500    0.000    2.000 
#    0.000    0.000    3.667    1.000    0.000    0.000 
#    0.000    0.000    0.000    0.000    0.000    0.000 
#
# Total GULP energy -133845.892072 kJ/mol
# GULP energy per Si atom -5576.912170 kJ/mol
# Density = 1.924586 g / cm^3
# Si number density = 19.289767 Si / 1000 Ang^3
#
#
#
# Elastic Constant Matrix: (Units=GPa)
#
#
# Indices 1 2 3 4 5 6 
#
# 1 52.0743 26.1006 5.2584 0.0000 2.4002 0.0000
# 2 26.1006 39.9547 22.6622 0.0000 -8.7010 0.0000
# 3 5.2584 22.6622 103.1290 0.0000 -6.9747 0.0000
# 4 0.0000 0.0000 0.0000 34.6022 0.0000 2.3396
# 5 2.4002 -8.7010 -6.9747 0.0000 17.5740 0.0000
# 6 0.0000 0.0000 0.0000 2.3396 0.0000 22.3753
#
#
#
# Elastic Compliance Matrix: (Units=1/GPa)
#
#
# Indices 1 2 3 4 5 6 
#
# 1 0.033273 -0.027164 0.003140 0.000000 -0.016747 0.000000
# 2 -0.027164 0.053456 -0.008550 0.000000 0.026783 0.000000
# 3 0.003140 -0.008550 0.011406 0.000000 -0.000135 0.000000
# 4 0.000000 0.000000 0.000000 0.029106 0.000000 -0.003043
# 5 -0.016747 0.026783 -0.000135 0.000000 0.072396 0.000000
# 6 0.000000 0.000000 0.000000 -0.003043 0.000000 0.045010
#
#
# Mechanical properties :
#
#
# Convention : Reuss Voigt Hill
#
# Bulk Modulus (GPa) = 30.31540 33.68895 32.00218
# Shear Modulus (GPa) = 15.58642 24.31941 19.95291
#
# Velocity S-wave (km/s) = 2.84564 3.55454 3.21966
# Velocity P-wave (km/s) = 5.15236 5.86080 5.51796
#
# Compressibility (1/GPa) = 0.03298653
#
# Stress axis : x y z
#
# Youngs Moduli (GPa) = 30.05407 18.70707 87.67133
#
# Poissons Ratio (x) = 0.50816 -0.27529
# Poissons Ratio (y) = 0.81639 0.74961
# Poissons Ratio (z) = -0.09437 0.15995
#
# Static dielectric constant tensor:
#      x y z
#    x 1.688810 0.000000 0.010250 
#    y 0.000000 1.680850 0.000000 
#    z 0.010250 0.000000 1.769210 
# 
# From -- ./inp_files/160302.got.cif
#   From: 2010.05.17/outbox.cif.g08.bks.cpg/sg15_81_cif.got.tgz:160302.got - 2010.06.03 18:47:42.
