data_PCOD9265244
_publ_section_title
;
Structure prediction by ZEFSAII (Michael W. Deem and Ramdas Pophale) SiO2 
 PCOD9265244
Probable space group: C 2/C
;
_chemical_formula_sum "Si O2"
_cell_formula_units_Z 52
_cell_length_a 10.845164
_cell_length_b 12.581137
_cell_length_c 17.994383
_cell_angle_alpha 90.000000
_cell_angle_beta 120.706139
_cell_angle_gamma 90.000000
_cell_volume 2111.004629
_symmetry_space_group_name_H-M "C 2/C"
_symmetry_group_IT_number 15
_symmetry_cell_setting 'monoclinic'
loop_
_space_group_symop_operation_xyz
x,y,z
-x,y,1/2-z
-x,-y,-z
x,-y,1/2+z
1/2+x,1/2+y,z
1/2-x,1/2+y,1/2-z
1/2-x,1/2-y,-z
1/2+x,1/2-y,1/2+z
loop_
_atom_site_type_symbol
_atom_site_label
_atom_site_fract_x
_atom_site_fract_y
_atom_site_fract_z
Si Si1 0.586429 0.689193 0.007110
Si Si2 0.078389 0.319300 0.662669
Si Si3 0.510126 0.047678 0.614939
Si Si4 0.281896 0.648638 0.957974
Si Si5 0.500000 0.366470 0.250000
Si Si6 0.255005 0.112484 0.917610
Si Si7 0.856842 0.271611 0.236270
O O1 0.497311 0.783365 0.937425
O O2 0.454987 0.630475 0.008989
O O3 0.677886 0.622408 0.974868
O O4 0.703232 0.761753 0.085647
O O5 0.020834 0.435599 0.660163
O O6 0.045906 0.215848 0.700985
O O7 0.248779 0.321490 0.723212
O O8 0.341478 0.069272 0.551497
O O9 0.607507 0.050619 0.571015
O O10 0.583484 0.140784 0.687772
O O11 0.229993 0.669643 0.857112
O O12 0.250000 0.750000 0.000000
O O13 0.368806 0.428167 0.175472
O O14 0.000000 0.219957 0.250000
#
# Coordination Sequence:
#
# PCOD9265244 Si02
#       7
#     8   8   8   8   4   8   8
#     4   9  20  38  60  84 120 161 196 249 298 365
#     4  10  21  36  58  89 119 152 203 247 297 357
#     4  11  21  36  65  89 115 156 204 246 299 356
#     4  10  19  36  59  85 114 157 196 241 297 352
#     4  10  20  36  60  82 118 162 194 246 296 360
#     4  10  19  37  61  86 116 163 203 235 307 352
#     4   9  20  38  55  85 119 155 193 248 300 352
#
# _framework density 24.632822000000001
#
# number of rings (size 3 to 8) (size 9 to 14) (size 15 to 20)
#    0.000    2.154    3.077    0.000    3.231    0.615 
#    1.385    0.000    0.000   10.154    0.000    0.000 
#    0.000    0.000    0.000    0.000    0.000    0.000 
#
# Total GULP energy -144821.091054 kJ/mol
# GULP energy per Si atom -5570.041964 kJ/mol
# Density = 2.457676 g / cm^3
# Si number density = 24.632822 Si / 1000 Ang^3
#
#
#
# Elastic Constant Matrix: (Units=GPa)
#
#
# Indices 1 2 3 4 5 6 
#
# 1 180.6471 21.9981 21.1109 0.0000 25.1828 0.0000
# 2 21.9981 47.1950 12.7173 0.0000 9.4833 0.0000
# 3 21.1109 12.7173 61.9651 0.0000 9.9779 0.0000
# 4 0.0000 0.0000 0.0000 2.8785 0.0000 32.8433
# 5 25.1828 9.4833 9.9779 0.0000 42.3249 0.0000
# 6 0.0000 0.0000 0.0000 32.8433 0.0000 19.9222
#
#
#
# Elastic Compliance Matrix: (Units=1/GPa)
#
#
# Indices 1 2 3 4 5 6 
#
# 1 0.006351 -0.002011 -0.001263 0.000000 -0.003030 0.000000
# 2 -0.002011 0.023770 -0.003668 0.000000 -0.003265 0.000000
# 3 -0.001263 -0.003668 0.017741 0.000000 -0.002609 0.000000
# 4 0.000000 0.000000 0.000000 -0.019506 0.000000 0.032157
# 5 -0.003030 -0.003265 -0.002609 0.000000 0.026776 0.000000
# 6 0.000000 0.000000 0.000000 0.032157 0.000000 -0.002818
#
#
# Mechanical properties :
#
#
# Convention : Reuss Voigt Hill
#
# Bulk Modulus (GPa) = 29.42973 44.60663 37.01818
# Shear Modulus (GPa) = 64.49670 28.62385 46.56027
#
# Velocity S-wave (km/s) = 5.12251 3.41254 4.35233
# Velocity P-wave (km/s) = 6.85274 5.80303 6.34962
#
# Compressibility (1/GPa) = 0.03397924
#
# Stress axis : x y z
#
# Youngs Moduli (GPa) = 157.46695 42.06932 56.36579
#
# Poissons Ratio (x) = 0.08460 0.07119
# Poissons Ratio (y) = 0.31664 0.20673
# Poissons Ratio (z) = 0.19887 0.15429
#
# Static dielectric constant tensor:
#      x y z
#    x 2.151300 0.000000 -0.046700 
#    y 0.000000 1.938010 0.000000 
#    z -0.046700 0.000000 2.037460 
# 
# From -- ./inp_files/238458.got.cif
#   From: 2010.05.17/outbox.cif.g08.bks.cpg/sg15_120_cif.got.tgz:238458.got - 2010.06.03 18:47:42.
