data_PCOD9265524
_publ_section_title
;
Structure prediction by ZEFSAII (Michael W. Deem and Ramdas Pophale) SiO2 
 PCOD9265524
Probable space group: C 2/C
;
_chemical_formula_sum "Si O2"
_cell_formula_units_Z 44
_cell_length_a 8.026502
_cell_length_b 13.162595
_cell_length_c 19.881741
_cell_angle_alpha 90.000000
_cell_angle_beta 94.776607
_cell_angle_gamma 90.000000
_cell_volume 2093.202732
_symmetry_space_group_name_H-M "C 2/C"
_symmetry_group_IT_number 15
_symmetry_cell_setting 'monoclinic'
loop_
_space_group_symop_operation_xyz
x,y,z
-x,y,1/2-z
-x,-y,-z
x,-y,1/2+z
1/2+x,1/2+y,z
1/2-x,1/2+y,1/2-z
1/2-x,1/2-y,-z
1/2+x,1/2-y,1/2+z
loop_
_atom_site_type_symbol
_atom_site_label
_atom_site_fract_x
_atom_site_fract_y
_atom_site_fract_z
Si Si1 0.335183 0.696058 0.786015
Si Si2 0.915723 0.311402 0.523196
Si Si3 0.750825 0.510819 0.955988
Si Si4 0.563408 0.096852 0.153046
Si Si5 0.500000 0.082365 0.750000
Si Si6 0.601757 0.625705 0.562027
O O1 0.500000 0.662765 0.750000
O O2 0.355448 0.818209 0.795559
O O3 0.337868 0.652870 0.861885
O O4 0.164368 0.652655 0.749334
O O5 0.750000 0.250000 0.500000
O O6 0.898102 0.408822 0.475535
O O7 0.925290 0.348165 0.601176
O O8 0.064173 0.230996 0.521549
O O9 0.799712 0.440135 0.896065
O O10 0.577800 0.569726 0.936576
O O11 0.717250 0.445882 0.021716
O O12 0.495843 0.997544 0.188072
#
# Coordination Sequence:
#
# PCOD9265524 Si02
#       6
#     8   8   8   8   4   8
#     4  11  24  46  65  94 136 178 232 287 330 403
#     4   9  19  35  60  90 125 164 207 271 338 394
#     4  10  19  36  61  96 125 170 215 272 348 401
#     4  11  23  41  64  95 136 173 232 284 333 420
#     4  12  26  46  70  94 132 194 232 276 352 402
#     4   9  20  37  60  91 130 169 216 278 337 401
#
# _framework density 21.020420999999999
#
# number of rings (size 3 to 8) (size 9 to 14) (size 15 to 20)
#    0.000    1.818    0.909    2.727    0.000    4.364 
#    4.909    3.636    0.000    0.000    0.000    0.000 
#    0.000    0.000    0.000    0.000    0.000    0.000 
#
# Total GULP energy -122803.695094 kJ/mol
# GULP energy per Si atom -5581.986141 kJ/mol
# Density = 2.097258 g / cm^3
# Si number density = 21.020421 Si / 1000 Ang^3
#
#
#
# Elastic Constant Matrix: (Units=GPa)
#
#
# Indices 1 2 3 4 5 6 
#
# 1 112.3682 48.3875 25.2536 0.0000 5.7386 0.0000
# 2 48.3875 112.8428 25.3147 0.0000 10.8181 0.0000
# 3 25.2536 25.3147 33.9222 0.0000 -1.7571 0.0000
# 4 0.0000 0.0000 0.0000 11.4247 0.0000 -9.0770
# 5 5.7386 10.8181 -1.7571 0.0000 29.9812 0.0000
# 6 0.0000 0.0000 0.0000 -9.0770 0.0000 19.2901
#
#
#
# Elastic Compliance Matrix: (Units=1/GPa)
#
#
# Indices 1 2 3 4 5 6 
#
# 1 0.011918 -0.003572 -0.006277 0.000000 -0.001360 0.000000
# 2 -0.003572 0.012303 -0.006737 0.000000 -0.004150 0.000000
# 3 -0.006277 -0.006737 0.039488 0.000000 0.005947 0.000000
# 4 0.000000 0.000000 0.000000 0.139792 0.000000 0.065780
# 5 -0.001360 -0.004150 0.005947 0.000000 0.035461 0.000000
# 6 0.000000 0.000000 0.000000 0.065780 0.000000 0.082793
#
#
# Mechanical properties :
#
#
# Convention : Reuss Voigt Hill
#
# Bulk Modulus (GPa) = 32.74779 50.78278 41.76529
# Shear Modulus (GPa) = 13.69469 22.81770 18.25620
#
# Velocity S-wave (km/s) = 2.55521 3.29827 2.95023
# Velocity P-wave (km/s) = 4.93136 6.22222 5.61401
#
# Compressibility (1/GPa) = 0.03053641
#
# Stress axis : x y z
#
# Youngs Moduli (GPa) = 83.91003 81.28304 25.32425
#
# Poissons Ratio (x) = 0.29032 0.15896
# Poissons Ratio (y) = 0.29970 0.17061
# Poissons Ratio (z) = 0.52671 0.54760
#
# Static dielectric constant tensor:
#      x y z
#    x 1.734070 0.000000 0.033570 
#    y 0.000000 1.802990 0.000000 
#    z 0.033570 0.000000 1.763050 
# 
# From -- ./inp_files/230249.got.cif
#   From: 2010.05.17/outbox.cif.g08.bks.cpg/sg15_116_cif.got.tgz:230249.got - 2010.06.03 18:47:42.
