data_PCOD9265348
_publ_section_title
;
Structure prediction by ZEFSAII (Michael W. Deem and Ramdas Pophale) SiO2 
 PCOD9265348
Probable space group: C 2/C
;
_chemical_formula_sum "Si O2"
_cell_formula_units_Z 48
_cell_length_a 12.237244
_cell_length_b 14.312348
_cell_length_c 13.519171
_cell_angle_alpha 90.000000
_cell_angle_beta 91.983280
_cell_angle_gamma 90.000000
_cell_volume 2366.379173
_symmetry_space_group_name_H-M "C 2/C"
_symmetry_group_IT_number 15
_symmetry_cell_setting 'monoclinic'
loop_
_space_group_symop_operation_xyz
x,y,z
-x,y,1/2-z
-x,-y,-z
x,-y,1/2+z
1/2+x,1/2+y,z
1/2-x,1/2+y,1/2-z
1/2-x,1/2-y,-z
1/2+x,1/2-y,1/2+z
loop_
_atom_site_type_symbol
_atom_site_label
_atom_site_fract_x
_atom_site_fract_y
_atom_site_fract_z
Si Si1 0.007034 0.260673 0.922525
Si Si2 0.768831 0.915381 0.670878
Si Si3 0.720141 0.712967 0.685904
Si Si4 0.098878 0.560190 0.329463
Si Si5 0.400353 0.593284 0.668361
Si Si6 0.635480 0.110402 0.967174
O O1 0.900878 0.248609 0.848308
O O2 0.086833 0.337480 0.877056
O O3 0.061856 0.158854 0.921577
O O4 0.956018 0.309976 0.017082
O O5 0.793042 0.806452 0.693639
O O6 0.707926 0.948714 0.768281
O O7 0.686416 0.915796 0.574797
O O8 0.862939 0.988270 0.646862
O O9 0.698847 0.649735 0.781033
O O10 0.769428 0.653038 0.598154
O O11 0.091744 0.480927 0.411657
O O12 0.000000 0.549109 0.250000
O O13 0.500000 0.589005 0.750000
#
# Coordination Sequence:
#
# PCOD9265348 Si02
#       6
#     8   8   8   8   8   8
#     4  10  19  36  60  86 112 157 203 233 281 362
#     4  11  21  37  63  88 118 155 197 248 291 344
#     4  10  19  38  60  86 116 157 201 236 285 360
#     4  12  20  36  62  90 118 148 199 253 291 342
#     4  10  20  38  63  85 118 161 197 238 294 351
#     4  11  23  36  62  91 119 152 203 243 292 351
#
# _framework density 20.284154999999998
#
# number of rings (size 3 to 8) (size 9 to 14) (size 15 to 20)
#    0.000    1.333    6.667    3.000    0.000    0.000 
#    0.000    9.167    3.667    0.000    0.000    0.000 
#    0.000    0.000    0.000    0.000    0.000    0.000 
#
# Total GULP energy -133824.110743 kJ/mol
# GULP energy per Si atom -5576.004614 kJ/mol
# Density = 2.023799 g / cm^3
# Si number density = 20.284155 Si / 1000 Ang^3
#
#
#
# Elastic Constant Matrix: (Units=GPa)
#
#
# Indices 1 2 3 4 5 6 
#
# 1 32.8974 32.8927 6.5003 0.0000 -15.7315 0.0000
# 2 32.8927 108.3639 -0.1264 0.0000 -6.1801 0.0000
# 3 6.5003 -0.1264 45.0688 0.0000 -18.1090 0.0000
# 4 0.0000 0.0000 0.0000 118.2144 0.0000 30.6565
# 5 -15.7315 -6.1801 -18.1090 0.0000 21.2285 0.0000
# 6 0.0000 0.0000 0.0000 30.6565 0.0000 68.0547
#
#
#
# Elastic Compliance Matrix: (Units=1/GPa)
#
#
# Indices 1 2 3 4 5 6 
#
# 1 0.078791 -0.020188 0.014727 0.000000 0.065074 0.000000
# 2 -0.020188 0.014644 -0.002047 0.000000 -0.012443 0.000000
# 3 0.014727 -0.002047 0.036827 0.000000 0.041733 0.000000
# 4 0.000000 0.000000 0.000000 0.009578 0.000000 -0.004315
# 5 0.065074 -0.012443 0.041733 0.000000 0.127308 0.000000
# 6 0.000000 0.000000 0.000000 -0.004315 0.000000 0.016638
#
#
# Mechanical properties :
#
#
# Convention : Reuss Voigt Hill
#
# Bulk Modulus (GPa) = 8.67709 29.42924 19.05316
# Shear Modulus (GPa) = 14.82721 51.30376 33.06549
#
# Velocity S-wave (km/s) = 2.70659 5.03462 4.04185
# Velocity P-wave (km/s) = 3.74894 6.95245 5.58530
#
# Compressibility (1/GPa) = 0.11524603
#
# Stress axis : x y z
#
# Youngs Moduli (GPa) = 12.69178 68.28788 27.15388
#
# Poissons Ratio (x) = 1.37858 -0.39989
# Poissons Ratio (y) = 0.25622 0.05559
# Poissons Ratio (z) = -0.18691 0.13979
#
# Static dielectric constant tensor:
#      x y z
#    x 1.736490 0.000000 -0.036770 
#    y 0.000000 1.771190 0.000000 
#    z -0.036770 0.000000 1.717210 
# 
# From -- ./inp_files/126827.got.cif
#   From: 2010.05.17/outbox.cif.g08.bks.cpg/sg15_64_cif.got.tgz:126827.got - 2010.06.03 18:47:42.
