data_PCOD9265158
_publ_section_title
;
Structure prediction by ZEFSAII (Michael W. Deem and Ramdas Pophale) SiO2 
 PCOD9265158
Probable space group: C 2/C
;
_chemical_formula_sum "Si O2"
_cell_formula_units_Z 56
_cell_length_a 19.568433
_cell_length_b 7.421062
_cell_length_c 22.141353
_cell_angle_alpha 90.000000
_cell_angle_beta 110.366142
_cell_angle_gamma 90.000000
_cell_volume 3014.337624
_symmetry_space_group_name_H-M "C 2/C"
_symmetry_group_IT_number 15
_symmetry_cell_setting 'monoclinic'
loop_
_space_group_symop_operation_xyz
x,y,z
-x,y,1/2-z
-x,-y,-z
x,-y,1/2+z
1/2+x,1/2+y,z
1/2-x,1/2+y,1/2-z
1/2-x,1/2-y,-z
1/2+x,1/2-y,1/2+z
loop_
_atom_site_type_symbol
_atom_site_label
_atom_site_fract_x
_atom_site_fract_y
_atom_site_fract_z
Si Si1 0.416497 0.029417 0.458779
Si Si2 0.182194 0.573541 0.676690
Si Si3 0.275733 0.604393 0.392906
Si Si4 0.157524 0.139891 0.414468
Si Si5 0.197018 0.520000 0.482874
Si Si6 0.418665 0.555334 0.992818
Si Si7 0.292982 0.247931 0.692436
O O1 0.365562 0.922312 0.490668
O O2 0.403297 0.241048 0.465680
O O3 0.500000 0.000000 0.500000
O O4 0.389481 0.975001 0.384130
O O5 0.223962 0.728153 0.651618
O O6 0.233184 0.396235 0.694379
O O7 0.168433 0.660909 0.737646
O O8 0.227231 0.640591 0.437814
O O9 0.357099 0.559750 0.440297
O O10 0.246416 0.421432 0.352492
O O11 0.164074 0.345219 0.439237
O O12 0.234488 0.050548 0.457159
O O13 0.097177 0.051462 0.439696
O O14 0.155724 0.154487 0.341657
O O15 0.500000 0.500000 0.000000
#
# Coordination Sequence:
#
# PCOD9265158 Si02
#       7
#     8   8   8   8   8   8   8
#     4  11  21  35  55  88 125 151 191 243 302 356
#     4  12  22  35  59  89 117 157 197 243 294 356
#     4  10  20  35  59  85 115 150 195 252 294 341
#     4   8  15  32  57  79 113 153 187 248 292 340
#     4   8  15  32  55  80 116 146 186 243 304 336
#     4  10  19  36  58  85 121 156 193 247 308 354
#     4  11  20  37  56  86 118 152 197 245 290 352
#
# _framework density 18.57788
#
# number of rings (size 3 to 8) (size 9 to 14) (size 15 to 20)
#    0.000    2.000    4.286    2.571    0.000    0.571 
#    2.571    0.000    0.000   13.714    0.000    8.000 
#    0.000    0.000    0.000    0.000    0.000    0.000 
#
# Total GULP energy -156170.829854 kJ/mol
# GULP energy per Si atom -5577.529638 kJ/mol
# Density = 1.853560 g / cm^3
# Si number density = 18.577880 Si / 1000 Ang^3
#
#
#
# Elastic Constant Matrix: (Units=GPa)
#
#
# Indices 1 2 3 4 5 6 
#
# 1 110.3481 0.5322 53.5851 0.0000 -8.7303 0.0000
# 2 0.5322 64.8544 17.2924 0.0000 0.5560 0.0000
# 3 53.5851 17.2924 141.4220 0.0000 -17.3074 0.0000
# 4 0.0000 0.0000 0.0000 34.5721 0.0000 -5.7397
# 5 -8.7303 0.5560 -17.3074 0.0000 23.2219 0.0000
# 6 0.0000 0.0000 0.0000 -5.7397 0.0000 22.8300
#
#
#
# Elastic Compliance Matrix: (Units=1/GPa)
#
#
# Indices 1 2 3 4 5 6 
#
# 1 0.011199 0.001031 -0.004244 0.000000 0.001022 0.000000
# 2 0.001031 0.016120 -0.002599 0.000000 -0.001935 0.000000
# 3 -0.004244 -0.002599 0.009693 0.000000 0.005691 0.000000
# 4 0.000000 0.000000 0.000000 0.030185 0.000000 0.007589
# 5 0.001022 -0.001935 0.005691 0.000000 0.047735 0.000000
# 6 0.000000 0.000000 0.000000 0.007589 0.000000 0.045710
#
#
# Mechanical properties :
#
#
# Convention : Reuss Voigt Hill
#
# Bulk Modulus (GPa) = 39.38712 51.04933 45.21823
# Shear Modulus (GPa) = 27.66563 32.47246 30.06904
#
# Velocity S-wave (km/s) = 3.86316 4.18534 4.02747
# Velocity P-wave (km/s) = 6.41450 7.13402 6.78381
#
# Compressibility (1/GPa) = 0.02538901
#
# Stress axis : x y z
#
# Youngs Moduli (GPa) = 89.29203 62.03418 103.16228
#
# Poissons Ratio (x) = -0.06396 0.43786
# Poissons Ratio (y) = -0.09206 0.26807
# Poissons Ratio (z) = 0.37899 0.16120
#
# Static dielectric constant tensor:
#      x y z
#    x 1.647050 0.000000 -0.044120 
#    y 0.000000 1.702250 0.000000 
#    z -0.044120 0.000000 1.667490 
# 
# From -- ./inp_files/247029.got.cif
#   From: 2010.05.17/outbox.cif.g08.bks.cpg/sg15_124_cif.got.tgz:247029.got - 2010.06.03 18:47:42.
