data_PCOD9265375
_publ_section_title
;
Structure prediction by ZEFSAII (Michael W. Deem and Ramdas Pophale) SiO2 
 PCOD9265375
Probable space group: C 2/C
;
_chemical_formula_sum "Si O2"
_cell_formula_units_Z 52
_cell_length_a 17.370064
_cell_length_b 17.283383
_cell_length_c 14.124333
_cell_angle_alpha 90.000000
_cell_angle_beta 40.097267
_cell_angle_gamma 90.000000
_cell_volume 2731.132374
_symmetry_space_group_name_H-M "C 2/C"
_symmetry_group_IT_number 15
_symmetry_cell_setting 'monoclinic'
loop_
_space_group_symop_operation_xyz
x,y,z
-x,y,1/2-z
-x,-y,-z
x,-y,1/2+z
1/2+x,1/2+y,z
1/2-x,1/2+y,1/2-z
1/2-x,1/2-y,-z
1/2+x,1/2-y,1/2+z
loop_
_atom_site_type_symbol
_atom_site_label
_atom_site_fract_x
_atom_site_fract_y
_atom_site_fract_z
Si Si1 0.171857 0.302344 0.930473
Si Si2 0.361834 0.362734 0.105341
Si Si3 0.712207 0.976231 0.110111
Si Si4 0.931327 0.126391 0.217345
Si Si5 0.616322 0.948837 0.873800
Si Si6 0.500000 0.141846 0.750000
Si Si7 0.182705 0.971863 0.186253
O O1 0.198910 0.219145 0.860744
O O2 0.298022 0.338268 0.847322
O O3 0.114680 0.360794 0.907884
O O4 0.072480 0.305780 0.106939
O O5 0.305478 0.425898 0.085266
O O6 0.349662 0.395036 0.223615
O O7 0.496839 0.347678 0.942923
O O8 0.656948 0.041298 0.228901
O O9 0.604744 0.916091 0.187626
O O10 0.769043 0.018930 0.966146
O O11 0.000000 0.142614 0.250000
O O12 0.923742 0.033621 0.212011
O O13 0.713725 0.989613 0.848449
O O14 0.500000 0.000000 0.000000
#
# Coordination Sequence:
#
# PCOD9265375 Si02
#       7
#     8   8   8   8   8   4   8
#     4  11  25  37  57  99 126 158 201 259 332 369
#     4  11  25  38  59  86 131 160 196 264 317 365
#     4  11  20  37  63  88 111 167 207 250 299 369
#     4  11  21  40  59  87 122 159 207 252 304 373
#     4  10  19  36  60  87 125 158 204 256 304 377
#     4  12  20  36  60  90 122 146 206 254 306 372
#     4  10  21  39  58  88 115 165 215 240 304 376
#
# _framework density 19.039722000000001
#
# number of rings (size 3 to 8) (size 9 to 14) (size 15 to 20)
#    0.000    1.231    6.154    0.462    3.231    1.231 
#    0.000    0.769    0.000    0.000    6.000    0.000 
#    0.000    0.000    0.000    0.000    0.000    0.000 
#
# Total GULP energy -144927.865216 kJ/mol
# GULP energy per Si atom -5574.148662 kJ/mol
# Density = 1.899639 g / cm^3
# Si number density = 19.039722 Si / 1000 Ang^3
#
#
#
# Elastic Constant Matrix: (Units=GPa)
#
#
# Indices 1 2 3 4 5 6 
#
# 1 61.9379 44.4482 42.8623 0.0000 8.7071 0.0000
# 2 44.4482 105.9708 52.3768 0.0000 19.9965 0.0000
# 3 42.8623 52.3768 103.6449 0.0000 11.4004 0.0000
# 4 0.0000 0.0000 0.0000 22.3376 0.0000 6.0347
# 5 8.7071 19.9965 11.4004 0.0000 35.5678 0.0000
# 6 0.0000 0.0000 0.0000 6.0347 0.0000 24.3799
#
#
#
# Elastic Compliance Matrix: (Units=1/GPa)
#
#
# Indices 1 2 3 4 5 6 
#
# 1 0.026539 -0.007620 -0.007133 0.000000 0.000073 0.000000
# 2 -0.007620 0.015775 -0.004198 0.000000 -0.005658 0.000000
# 3 -0.007133 -0.004198 0.014789 0.000000 -0.000634 0.000000
# 4 0.000000 0.000000 0.000000 0.047976 0.000000 -0.011875
# 5 0.000073 -0.005658 -0.000634 0.000000 0.031481 0.000000
# 6 0.000000 0.000000 0.000000 -0.011875 0.000000 0.043957
#
#
# Mechanical properties :
#
#
# Convention : Reuss Voigt Hill
#
# Bulk Modulus (GPa) = 52.07834 61.21426 56.64630
# Shear Modulus (GPa) = 22.23992 25.24815 23.74403
#
# Velocity S-wave (km/s) = 3.42143 3.64549 3.53523
# Velocity P-wave (km/s) = 6.55897 7.06683 6.81763
#
# Compressibility (1/GPa) = 0.01920184
#
# Stress axis : x y z
#
# Youngs Moduli (GPa) = 37.68027 63.38951 67.61598
#
# Poissons Ratio (x) = 0.48303 0.48227
# Poissons Ratio (y) = 0.28713 0.28389
# Poissons Ratio (z) = 0.26876 0.26614
#
# Static dielectric constant tensor:
#      x y z
#    x 1.693310 0.000000 -0.018210 
#    y 0.000000 1.701210 0.000000 
#    z -0.018210 0.000000 1.748730 
# 
# From -- ./inp_files/162472.got.cif
#   From: 2010.05.17/outbox.cif.g08.bks.cpg/sg15_82_cif.got.tgz:162472.got - 2010.06.03 18:47:42.
