data_PCOD9265876
_publ_section_title
;
Structure prediction by ZEFSAII (Michael W. Deem and Ramdas Pophale) SiO2 
 PCOD9265876
Probable space group: C 2/C
;
_chemical_formula_sum "Si O2"
_cell_formula_units_Z 64
_cell_length_a 25.042569
_cell_length_b 30.155185
_cell_length_c 9.745758
_cell_angle_alpha 90.000000
_cell_angle_beta 28.939640
_cell_angle_gamma 90.000000
_cell_volume 3561.240570
_symmetry_space_group_name_H-M "C 2/C"
_symmetry_group_IT_number 15
_symmetry_cell_setting 'monoclinic'
loop_
_space_group_symop_operation_xyz
x,y,z
-x,y,1/2-z
-x,-y,-z
x,-y,1/2+z
1/2+x,1/2+y,z
1/2-x,1/2+y,1/2-z
1/2-x,1/2-y,-z
1/2+x,1/2-y,1/2+z
loop_
_atom_site_type_symbol
_atom_site_label
_atom_site_fract_x
_atom_site_fract_y
_atom_site_fract_z
Si Si1 0.388899 0.298289 0.414415
Si Si2 0.908872 0.547469 0.842040
Si Si3 0.561781 0.181852 0.868069
Si Si4 0.167728 0.637946 0.093426
Si Si5 0.785750 0.368456 0.687382
Si Si6 0.770014 0.292280 0.267120
Si Si7 0.429923 0.054385 0.278689
Si Si8 0.019781 0.778577 0.865723
O O1 0.500000 0.290053 0.250000
O O2 0.328246 0.343687 0.590479
O O3 0.308701 0.256074 0.623396
O O4 0.430855 0.301519 0.163522
O O5 0.885403 0.495188 0.908373
O O6 0.000000 0.560422 0.750000
O O7 0.977490 0.552252 0.548108
O O8 0.807242 0.580734 0.094133
O O9 0.624883 0.158319 0.602494
O O10 0.643158 0.192597 0.811512
O O11 0.510467 0.227102 0.926395
O O12 0.459655 0.151995 0.140516
O O13 0.195243 0.638386 0.192719
O O14 0.167939 0.587511 0.040496
O O15 0.231449 0.672636 0.854296
O O16 0.648001 0.289919 0.605786
O O17 0.500000 0.070197 0.250000
O O18 0.000000 0.785568 0.750000
#
# Coordination Sequence:
#
# PCOD9265876 Si02
#       8
#     8   8   8   8   8   8   8   8
#     4  12  24  41  57  79 112 156 196 242 279 331
#     4  10  19  37  56  86 120 146 180 228 283 351
#     4  12  21  35  56  80 116 151 191 232 275 334
#     4  12  22  36  56  89 116 150 188 232 281 345
#     4  12  23  36  58  83 114 155 192 227 285 340
#     4  12  24  39  56  80 114 156 198 234 288 329
#     4  10  20  33  57  85 124 148 173 225 287 343
#     4  12  24  38  54  79 111 151 197 243 277 325
#
# _framework density 17.971266
#
# number of rings (size 3 to 8) (size 9 to 14) (size 15 to 20)
#    0.000    0.500    6.250    4.125    0.000    1.000 
#    0.000    0.000    0.000    0.000    0.000    4.375 
#    0.000    0.000    0.000    0.000    0.000    0.000 
#
# Total GULP energy -178722.487201 kJ/mol
# GULP energy per Si atom -5585.077725 kJ/mol
# Density = 1.793036 g / cm^3
# Si number density = 17.971266 Si / 1000 Ang^3
#
#
#
# Elastic Constant Matrix: (Units=GPa)
#
#
# Indices 1 2 3 4 5 6 
#
# 1 51.8549 -2.9421 -5.6266 -0.0002 16.7295 0.0001
# 2 -2.9421 79.5653 30.4785 -0.0001 -3.6229 0.0000
# 3 -5.6266 30.4785 57.0601 0.0000 4.0863 0.0000
# 4 -0.0002 -0.0001 0.0000 24.8537 -0.0001 1.1590
# 5 16.7295 -3.6229 4.0863 -0.0001 30.7426 0.0000
# 6 0.0001 0.0000 0.0000 1.1590 0.0000 21.3678
#
#
#
# Elastic Compliance Matrix: (Units=1/GPa)
#
#
# Indices 1 2 3 4 5 6 
#
# 1 0.024107 -0.001291 0.004056 0.000000 -0.013810 0.000000
# 2 -0.001291 0.016152 -0.009027 0.000000 0.003806 0.000000
# 3 0.004056 -0.009027 0.023202 0.000000 -0.006355 0.000000
# 4 0.000000 0.000000 0.000000 0.040337 0.000000 -0.002188
# 5 -0.013810 0.003806 -0.006355 0.000000 0.041336 0.000000
# 6 0.000000 0.000000 0.000000 -0.002188 0.000000 0.046918
#
#
# Mechanical properties :
#
#
# Convention : Reuss Voigt Hill
#
# Bulk Modulus (GPa) = 19.63266 25.81108 22.72187
# Shear Modulus (GPa) = 22.56761 26.49752 24.53257
#
# Velocity S-wave (km/s) = 3.54752 3.84401 3.69873
# Velocity P-wave (km/s) = 5.26574 5.83913 5.55983
#
# Compressibility (1/GPa) = 0.05093554
#
# Stress axis : x y z
#
# Youngs Moduli (GPa) = 41.48232 61.91226 43.09916
#
# Poissons Ratio (x) = 0.07993 -0.17479
# Poissons Ratio (y) = 0.05355 0.38907
# Poissons Ratio (z) = -0.16824 0.55890
#
# Static dielectric constant tensor:
#      x y z
#    x 1.618450 0.000000 -0.017400 
#    y 0.000000 1.665260 0.000000 
#    z -0.017400 0.000000 1.569660 
# 
# From -- ./inp_files/64203.got.cif
#   From: 2010.05.17/outbox.cif.g08.bks.cpg/sg15_33_cif.got.tgz:64203.got - 2010.06.03 18:47:42.
