data_PCOD9265783
_publ_section_title
;
Structure prediction by ZEFSAII (Michael W. Deem and Ramdas Pophale) SiO2 
 PCOD9265783
Probable space group: C 2/C
;
_chemical_formula_sum "Si O2"
_cell_formula_units_Z 64
_cell_length_a 14.622345
_cell_length_b 13.421092
_cell_length_c 24.569973
_cell_angle_alpha 90.000000
_cell_angle_beta 38.008067
_cell_angle_gamma 90.000000
_cell_volume 2969.133949
_symmetry_space_group_name_H-M "C 2/C"
_symmetry_group_IT_number 15
_symmetry_cell_setting 'monoclinic'
loop_
_space_group_symop_operation_xyz
x,y,z
-x,y,1/2-z
-x,-y,-z
x,-y,1/2+z
1/2+x,1/2+y,z
1/2-x,1/2+y,1/2-z
1/2-x,1/2-y,-z
1/2+x,1/2-y,1/2+z
loop_
_atom_site_type_symbol
_atom_site_label
_atom_site_fract_x
_atom_site_fract_y
_atom_site_fract_z
Si Si1 0.310293 0.456871 0.430946
Si Si2 0.517336 0.684544 0.481726
Si Si3 0.118793 0.171162 0.066092
Si Si4 0.594592 0.410931 0.359168
Si Si5 0.214624 0.587705 0.187886
Si Si6 0.917306 0.529920 0.363387
Si Si7 0.411279 0.100749 0.554145
Si Si8 0.399471 0.841103 0.185579
O O1 0.337372 0.576390 0.418972
O O2 0.469698 0.411895 0.371744
O O3 0.190748 0.443624 0.536247
O O4 0.237865 0.411395 0.411171
O O5 0.415141 0.644421 0.480806
O O6 0.490457 0.616575 0.545903
O O7 0.685414 0.677901 0.379870
O O8 0.496427 0.800333 0.505652
O O9 0.977563 0.234399 0.151841
O O10 0.250000 0.250000 0.000000
O O11 0.677410 0.517132 0.327544
O O12 0.733578 0.338384 0.285832
O O13 0.168492 0.532464 0.153486
O O14 0.059470 0.603884 0.291285
O O15 0.994440 0.422192 0.335025
O O16 0.390371 0.116571 0.628267
O O17 0.500000 0.000000 0.500000
#
# Coordination Sequence:
#
# PCOD9265783 Si02
#       8
#     8   8   8   8   8   8   8   8
#     4  12  21  40  69  93 127 177 217 269 332 401
#     4  11  22  41  66  96 126 177 217 271 337 398
#     4  11  21  39  68  93 126 175 227 265 328 398
#     4  11  23  40  66  98 132 162 223 287 331 388
#     4  10  20  37  63 101 129 160 216 282 330 375
#     4  10  19  36  66  96 129 163 212 271 332 378
#     4  11  24  45  64  89 135 181 220 263 333 405
#     4  10  23  43  63  97 132 175 220 279 327 392
#
# _framework density 21.555107
#
# number of rings (size 3 to 8) (size 9 to 14) (size 15 to 20)
#    0.000    1.250    5.000    1.875    0.000    1.000 
#    6.750    2.500    2.750    0.000    0.000    0.000 
#    0.000    0.000    0.000    0.000    0.000    0.000 
#
# Total GULP energy -178730.372863 kJ/mol
# GULP energy per Si atom -5585.324152 kJ/mol
# Density = 2.150605 g / cm^3
# Si number density = 21.555107 Si / 1000 Ang^3
#
#
#
# Elastic Constant Matrix: (Units=GPa)
#
#
# Indices 1 2 3 4 5 6 
#
# 1 101.7736 -5.9238 -3.2945 0.0000 -11.1283 0.0000
# 2 -5.9238 38.6799 18.4921 0.0000 -0.3269 0.0000
# 3 -3.2945 18.4921 90.0682 -0.0001 -26.4039 0.0000
# 4 0.0000 0.0000 -0.0001 29.6681 0.0000 -6.5758
# 5 -11.1283 -0.3269 -26.4039 0.0000 25.9266 0.0000
# 6 0.0000 0.0000 0.0000 -6.5758 0.0000 30.5110
#
#
#
# Elastic Compliance Matrix: (Units=1/GPa)
#
#
# Indices 1 2 3 4 5 6 
#
# 1 0.010694 0.000594 0.002305 0.000000 0.006945 0.000000
# 2 0.000594 0.029923 -0.008463 0.000000 -0.007986 0.000000
# 3 0.002305 -0.008463 0.018795 0.000000 0.020023 0.000000
# 4 0.000000 0.000000 0.000000 0.035397 0.000000 0.007629
# 5 0.006945 -0.007986 0.020023 0.000000 0.061843 0.000000
# 6 0.000000 0.000000 0.000000 0.007629 0.000000 0.034419
#
#
# Mechanical properties :
#
#
# Convention : Reuss Voigt Hill
#
# Bulk Modulus (GPa) = 20.71036 27.67435 24.19235
# Shear Modulus (GPa) = 22.90504 31.97101 27.43803
#
# Velocity S-wave (km/s) = 3.26333 3.85544 3.57168
# Velocity P-wave (km/s) = 4.88140 5.71717 5.31573
#
# Compressibility (1/GPa) = 0.04828501
#
# Stress axis : x y z
#
# Youngs Moduli (GPa) = 93.50685 33.41939 53.20698
#
# Poissons Ratio (x) = -0.01987 -0.12265
# Poissons Ratio (y) = -0.05559 0.45029
# Poissons Ratio (z) = -0.21555 0.28283
#
# Static dielectric constant tensor:
#      x y z
#    x 1.786300 0.000000 -0.024640 
#    y 0.000000 1.833060 0.000000 
#    z -0.024640 0.000000 1.817740 
# 
# From -- ./inp_files/296393.got.cif
#   From: 2010.05.17/outbox.cif.g08.bks.cpg/sg15_149_cif.got.tgz:296393.got - 2010.06.03 18:47:42.
