data_PCOD9265247
_publ_section_title
;
Structure prediction by ZEFSAII (Michael W. Deem and Ramdas Pophale) SiO2 
 PCOD9265247
Probable space group: C 2/C
;
_chemical_formula_sum "Si O2"
_cell_formula_units_Z 64
_cell_length_a 28.204866
_cell_length_b 17.291730
_cell_length_c 23.865255
_cell_angle_alpha 90.000000
_cell_angle_beta 163.757330
_cell_angle_gamma 90.000000
_cell_volume 3255.597027
_symmetry_space_group_name_H-M "C 2/C"
_symmetry_group_IT_number 15
_symmetry_cell_setting 'monoclinic'
loop_
_space_group_symop_operation_xyz
x,y,z
-x,y,1/2-z
-x,-y,-z
x,-y,1/2+z
1/2+x,1/2+y,z
1/2-x,1/2+y,1/2-z
1/2-x,1/2-y,-z
1/2+x,1/2-y,1/2+z
loop_
_atom_site_type_symbol
_atom_site_label
_atom_site_fract_x
_atom_site_fract_y
_atom_site_fract_z
Si Si1 0.998747 0.123991 0.581609
Si Si2 0.517089 0.672907 0.480962
Si Si3 0.138750 0.174875 0.858974
Si Si4 0.129332 0.670451 0.680817
Si Si5 0.315055 0.532036 0.202403
Si Si6 0.885207 0.567958 0.339563
Si Si7 0.824164 0.001381 0.585199
Si Si8 0.425311 0.959366 0.289637
O O1 0.008348 0.177127 0.538182
O O2 0.048219 0.168752 0.695030
O O3 0.814397 0.081493 0.375362
O O4 0.133129 0.055238 0.723712
O O5 0.702440 0.673924 0.665045
O O6 0.413614 0.746728 0.342101
O O7 0.431409 0.592955 0.366035
O O8 0.229841 0.091161 0.967074
O O9 0.000000 0.173935 0.750000
O O10 0.250000 0.250000 0.000000
O O11 0.138565 0.606365 0.740080
O O12 0.977699 0.643524 0.467631
O O13 0.345304 0.535784 0.170102
O O14 0.122833 0.549083 0.001137
O O15 0.897275 0.541732 0.289016
O O16 0.000000 0.500000 0.500000
O O17 0.000000 0.000225 0.750000
O O18 0.682788 0.958992 0.388955
#
# Coordination Sequence:
#
# PCOD9265247 Si02
#       8
#     8   8   8   8   8   8   8   8
#     4  11  23  39  61  89 120 161 205 248 306 369
#     4  12  23  40  60  86 122 155 195 250 305 366
#     4  10  23  40  59  86 122 160 201 247 297 356
#     4  11  24  39  58  87 119 157 196 247 308 363
#     4  11  22  38  61  90 118 154 199 250 302 362
#     4  10  19  36  59  85 116 154 197 247 301 360
#     4  10  21  40  62  86 116 158 204 250 301 363
#     4  11  21  38  61  87 118 155 200 247 300 365
#
# _framework density 19.658452
#
# number of rings (size 3 to 8) (size 9 to 14) (size 15 to 20)
#    0.000    1.250    0.000    9.000    0.000    5.000 
#    0.000    0.625    0.000    0.000    0.000    0.000 
#    0.000    0.000    0.000    0.000    0.000    0.000 
#
# Total GULP energy -178634.681644 kJ/mol
# GULP energy per Si atom -5582.333801 kJ/mol
# Density = 1.961371 g / cm^3
# Si number density = 19.658452 Si / 1000 Ang^3
#
#
#
# Elastic Constant Matrix: (Units=GPa)
#
#
# Indices 1 2 3 4 5 6 
#
# 1 101.0643 31.2223 27.1008 -0.0103 -2.2472 -0.0019
# 2 31.2223 68.1233 16.1939 0.0068 -9.5240 -0.0120
# 3 27.1008 16.1939 83.7601 -0.0129 6.8648 0.0061
# 4 -0.0103 0.0068 -0.0129 23.4707 -0.0036 7.9337
# 5 -2.2472 -9.5240 6.8648 -0.0036 38.9576 -0.0013
# 6 -0.0019 -0.0120 0.0061 7.9337 -0.0013 8.7292
#
#
#
# Elastic Compliance Matrix: (Units=1/GPa)
#
#
# Indices 1 2 3 4 5 6 
#
# 1 0.012209 -0.004874 -0.003012 0.000008 0.000043 -0.000010
# 2 -0.004874 0.018094 -0.002294 -0.000024 0.004547 0.000048
# 3 -0.003012 -0.002294 0.013614 0.000016 -0.003133 -0.000028
# 4 0.000008 -0.000024 0.000016 0.061501 -0.000004 -0.055897
# 5 0.000043 0.004547 -0.003133 -0.000004 0.027335 0.000017
# 6 -0.000010 0.000048 -0.000028 -0.055897 0.000017 0.165362
#
#
# Mechanical properties :
#
#
# Convention : Reuss Voigt Hill
#
# Bulk Modulus (GPa) = 42.44824 44.66463 43.55643
# Shear Modulus (GPa) = 15.32213 26.12688 20.72450
#
# Velocity S-wave (km/s) = 2.79483 3.64956 3.25041
# Velocity P-wave (km/s) = 5.66167 6.36621 6.02425
#
# Compressibility (1/GPa) = 0.02355810
#
# Stress axis : x y z
#
# Youngs Moduli (GPa) = 81.90794 55.26726 73.45619
#
# Poissons Ratio (x) = 0.26935 0.22121
# Poissons Ratio (y) = 0.39919 0.16851
# Poissons Ratio (z) = 0.24667 0.12678
#
# Static dielectric constant tensor:
#      x y z
#    x 1.663000 -0.000060 -0.036970 
#    y -0.000060 1.697920 -0.000030 
#    z -0.036970 -0.000030 1.694300 
# 
# From -- ./inp_files/256027.got.cif
#   From: 2010.05.17/outbox.cif.g08.bks.cpg/sg15_129_cif.got.tgz:256027.got - 2010.06.03 18:47:42.
