data_PCOD9265673
_publ_section_title
;
Structure prediction by ZEFSAII (Michael W. Deem and Ramdas Pophale) SiO2 
 PCOD9265673
Probable space group: C 2/C
;
_chemical_formula_sum "Si O2"
_cell_formula_units_Z 40
_cell_length_a 27.087737
_cell_length_b 8.675663
_cell_length_c 8.228747
_cell_angle_alpha 90.000000
_cell_angle_beta 83.121115
_cell_angle_gamma 90.000000
_cell_volume 1919.868811
_symmetry_space_group_name_H-M "C 2/C"
_symmetry_group_IT_number 15
_symmetry_cell_setting 'monoclinic'
loop_
_space_group_symop_operation_xyz
x,y,z
-x,y,1/2-z
-x,-y,-z
x,-y,1/2+z
1/2+x,1/2+y,z
1/2-x,1/2+y,1/2-z
1/2-x,1/2-y,-z
1/2+x,1/2-y,1/2+z
loop_
_atom_site_type_symbol
_atom_site_label
_atom_site_fract_x
_atom_site_fract_y
_atom_site_fract_z
Si Si1 0.140201 0.202938 0.510745
Si Si2 0.693483 0.824648 0.182507
Si Si3 0.380097 0.630782 0.481748
Si Si4 0.277487 0.176660 0.332638
Si Si5 0.058662 0.095855 0.732135
O O1 0.250000 0.250000 0.500000
O O2 0.159631 0.309488 0.359521
O O3 0.169106 0.242827 0.666551
O O4 0.082152 0.200990 0.579212
O O5 0.741609 0.717445 0.197774
O O6 0.713050 0.996420 0.155817
O O7 0.657390 0.763148 0.056363
O O8 0.348416 0.475818 0.536540
O O9 0.420059 0.656854 0.606647
O O10 0.413320 0.566637 0.316728
O O11 0.000000 0.083443 0.750000
#
# Coordination Sequence:
#
# PCOD9265673 Si02
#       5
#     8   8   8   8   8
#     4   9  20  39  57  92 129 164 223 260 318 384
#     4  11  21  40  63  92 131 175 213 272 319 394
#     4  10  19  36  63  93 130 165 221 265 321 374
#     4  10  23  40  63  93 131 172 218 259 331 391
#     4  10  20  36  65  96 131 166 224 273 317 379
#
# _framework density 20.834757
#
# number of rings (size 3 to 8) (size 9 to 14) (size 15 to 20)
#    1.200    0.800    2.000    1.800    0.000    3.200 
#    0.000    9.000    0.000    6.000    0.000    0.000 
#    0.000    0.000    0.000    0.000    0.000    0.000 
#
# Total GULP energy -111467.549103 kJ/mol
# GULP energy per Si atom -5573.377455 kJ/mol
# Density = 2.078734 g / cm^3
# Si number density = 20.834757 Si / 1000 Ang^3
#
#
#
# Elastic Constant Matrix: (Units=GPa)
#
#
# Indices 1 2 3 4 5 6 
#
# 1 129.9050 69.3614 31.9006 0.0000 1.2268 0.0000
# 2 69.3614 125.7545 33.5592 0.0000 7.2071 0.0000
# 3 31.9006 33.5592 76.1839 0.0000 11.5371 0.0000
# 4 0.0000 0.0000 0.0000 25.6395 0.0000 4.1535
# 5 1.2268 7.2071 11.5371 0.0000 42.2535 0.0000
# 6 0.0000 0.0000 0.0000 4.1535 0.0000 22.3449
#
#
#
# Elastic Compliance Matrix: (Units=1/GPa)
#
#
# Indices 1 2 3 4 5 6 
#
# 1 0.011307 -0.005660 -0.002438 0.000000 0.001303 0.000000
# 2 -0.005660 0.011854 -0.002681 0.000000 -0.001126 0.000000
# 3 -0.002438 -0.002681 0.015906 0.000000 -0.003815 0.000000
# 4 0.000000 0.000000 0.000000 0.040213 0.000000 -0.007475
# 5 0.001303 -0.001126 -0.003815 0.000000 0.024862 0.000000
# 6 0.000000 0.000000 0.000000 -0.007475 0.000000 0.046142
#
#
# Mechanical properties :
#
#
# Convention : Reuss Voigt Hill
#
# Bulk Modulus (GPa) = 57.12017 66.83179 61.97598
# Shear Modulus (GPa) = 28.14048 31.18240 29.66144
#
# Velocity S-wave (km/s) = 3.67911 3.87286 3.77722
# Velocity P-wave (km/s) = 6.74708 7.22118 6.98815
#
# Compressibility (1/GPa) = 0.01750695
#
# Stress axis : x y z
#
# Youngs Moduli (GPa) = 88.44333 84.35973 62.86956
#
# Poissons Ratio (x) = 0.47750 0.15330
# Poissons Ratio (y) = 0.50061 0.16856
# Poissons Ratio (z) = 0.21566 0.22618
#
# Static dielectric constant tensor:
#      x y z
#    x 1.757910 0.000000 -0.009800 
#    y 0.000000 1.745410 0.000000 
#    z -0.009800 0.000000 1.895410 
# 
# From -- ./inp_files/54120.got.cif
#   From: 2010.05.17/outbox.cif.g08.bks.cpg/sg15_28_cif.got.tgz:54120.got - 2010.06.03 18:47:42.
