data_PCOD9265663
_publ_section_title
;
Structure prediction by ZEFSAII (Michael W. Deem and Ramdas Pophale) SiO2 
 PCOD9265663
Probable space group: C 2/C
;
_chemical_formula_sum "Si O2"
_cell_formula_units_Z 40
_cell_length_a 22.221998
_cell_length_b 7.195028
_cell_length_c 23.470063
_cell_angle_alpha 90.000000
_cell_angle_beta 23.066343
_cell_angle_gamma 90.000000
_cell_volume 1470.248166
_symmetry_space_group_name_H-M "C 2/C"
_symmetry_group_IT_number 15
_symmetry_cell_setting 'monoclinic'
loop_
_space_group_symop_operation_xyz
x,y,z
-x,y,1/2-z
-x,-y,-z
x,-y,1/2+z
1/2+x,1/2+y,z
1/2-x,1/2+y,1/2-z
1/2-x,1/2-y,-z
1/2+x,1/2-y,1/2+z
loop_
_atom_site_type_symbol
_atom_site_label
_atom_site_fract_x
_atom_site_fract_y
_atom_site_fract_z
Si Si1 0.581542 0.834803 0.506829
Si Si2 0.898327 0.921895 0.014244
Si Si3 0.802199 0.112485 0.716120
Si Si4 0.365162 0.635033 0.413325
Si Si5 0.641743 0.883242 0.583881
O O1 0.656578 0.631696 0.445572
O O2 0.663975 0.920375 0.379990
O O3 0.404537 0.786493 0.649555
O O4 0.608056 0.912906 0.545955
O O5 0.791905 0.849758 0.157720
O O6 0.902978 0.843589 0.947105
O O7 0.073190 0.942989 0.885711
O O8 0.500000 0.617854 0.250000
O O9 0.322366 0.874223 0.436280
O O10 0.324282 0.372674 0.447103
O O11 0.500000 0.868629 0.750000
#
# Coordination Sequence:
#
# PCOD9265663 Si02
#       5
#     8   8   8   8   8
#     4  10  19  36  63  92 117 152 213 253 309 360
#     4   9  21  39  63  83 129 156 206 254 315 368
#     4   9  19  38  60  87 117 160 196 264 304 356
#     4  12  26  44  62  93 132 173 206 258 326 384
#     4  12  22  38  68  98 125 164 215 264 311 374
#
# _framework density 27.206292000000001
#
# number of rings (size 3 to 8) (size 9 to 14) (size 15 to 20)
#    1.200    0.400    2.000    3.600    0.000    1.600 
#    3.600    1.000    0.000    0.000    0.000    0.000 
#    0.000    0.000    0.000    0.000    0.000    0.000 
#
# Total GULP energy -111466.421499 kJ/mol
# GULP energy per Si atom -5573.321075 kJ/mol
# Density = 2.714437 g / cm^3
# Si number density = 27.206292 Si / 1000 Ang^3
#
#
#
# Elastic Constant Matrix: (Units=GPa)
#
#
# Indices 1 2 3 4 5 6 
#
# 1 141.6102 30.9086 111.7936 -0.0006 49.5986 0.0002
# 2 30.9086 150.5933 65.7942 0.0022 4.2715 -0.0035
# 3 111.7936 65.7942 270.5967 -0.0007 53.1770 0.0015
# 4 -0.0006 0.0022 -0.0007 64.2061 -0.0002 -2.4024
# 5 49.5986 4.2715 53.1770 -0.0002 38.4107 0.0005
# 6 0.0002 -0.0035 0.0015 -2.4024 0.0005 55.9575
#
#
#
# Elastic Compliance Matrix: (Units=1/GPa)
#
#
# Indices 1 2 3 4 5 6 
#
# 1 0.014930 -0.001390 -0.002846 0.000000 -0.015184 0.000000
# 2 -0.001390 0.007710 -0.002039 0.000000 0.003761 0.000001
# 3 -0.002846 -0.002039 0.006320 0.000000 -0.004847 0.000000
# 4 0.000000 0.000000 0.000000 0.015600 0.000000 0.000670
# 5 -0.015184 0.003761 -0.004847 0.000000 0.051933 0.000000
# 6 0.000000 0.000001 0.000000 0.000670 0.000000 0.017899
#
#
# Mechanical properties :
#
#
# Convention : Reuss Voigt Hill
#
# Bulk Modulus (GPa) = 60.94472 108.86587 84.90529
# Shear Modulus (GPa) = 37.76032 55.33512 46.54772
#
# Velocity S-wave (km/s) = 3.72953 4.51478 4.14081
# Velocity P-wave (km/s) = 6.40277 8.20241 7.35782
#
# Compressibility (1/GPa) = 0.01640831
#
# Stress axis : x y z
#
# Youngs Moduli (GPa) = 66.97858 129.70025 158.22923
#
# Poissons Ratio (x) = 0.18030 0.45037
# Poissons Ratio (y) = 0.09311 0.32271
# Poissons Ratio (z) = 0.19064 0.26452
#
# Static dielectric constant tensor:
#      x y z
#    x 2.046320 -0.000010 -0.070530 
#    y -0.000010 5.577880 0.000000 
#    z -0.070530 0.000000 1.908480 
# 
# From -- ./inp_files/254962.got.cif
#   From: 2010.05.17/outbox.cif.g08.bks.cpg/sg15_128_cif.got.tgz:254962.got - 2010.06.03 18:47:42.
