data_PCOD9265839
_publ_section_title
;
Structure prediction by ZEFSAII (Michael W. Deem and Ramdas Pophale) SiO2 
 PCOD9265839
Probable space group: C 2/C
;
_chemical_formula_sum "Si O2"
_cell_formula_units_Z 56
_cell_length_a 20.354103
_cell_length_b 17.048239
_cell_length_c 9.640672
_cell_angle_alpha 90.000000
_cell_angle_beta 131.847187
_cell_angle_gamma 90.000000
_cell_volume 2492.025065
_symmetry_space_group_name_H-M "C 2/C"
_symmetry_group_IT_number 15
_symmetry_cell_setting 'monoclinic'
loop_
_space_group_symop_operation_xyz
x,y,z
-x,y,1/2-z
-x,-y,-z
x,-y,1/2+z
1/2+x,1/2+y,z
1/2-x,1/2+y,1/2-z
1/2-x,1/2-y,-z
1/2+x,1/2-y,1/2+z
loop_
_atom_site_type_symbol
_atom_site_label
_atom_site_fract_x
_atom_site_fract_y
_atom_site_fract_z
Si Si1 0.626276 0.214258 0.039837
Si Si2 0.439724 0.008500 0.283172
Si Si3 0.261128 0.480750 0.007098
Si Si4 0.726483 0.829825 0.140142
Si Si5 0.345318 0.239765 0.713711
Si Si6 0.428164 0.194570 0.249577
Si Si7 0.205908 0.105066 0.229528
O O1 0.688659 0.285360 0.181870
O O2 0.558010 0.208237 0.069218
O O3 0.693012 0.138974 0.137581
O O4 0.596729 0.226958 0.840832
O O5 0.500000 0.968898 0.250000
O O6 0.337923 0.986830 0.160440
O O7 0.430048 0.100775 0.234953
O O8 0.500000 0.000000 0.500000
O O9 0.302879 0.443762 0.926169
O O10 0.252502 0.411221 0.108227
O O11 0.307643 0.550361 0.155683
O O12 0.662287 0.829802 0.184954
O O13 0.668887 0.784092 0.943004
O O14 0.250000 0.250000 0.500000
O O15 0.352360 0.317964 0.817755
O O16 0.500000 0.230917 0.250000
#
# Coordination Sequence:
#
# PCOD9265839 Si02
#       7
#     8   8   8   8   8   8   8
#     4  10  19  37  54  73 103 142 182 223 274 313
#     4  10  20  34  42  62  99 147 181 212 242 300
#     4  11  21  30  52  73 108 135 186 222 267 309
#     4   9  18  34  55  72 100 146 173 224 271 314
#     4   8  19  33  52  70 101 131 179 218 279 315
#     4  10  20  34  49  74  99 134 191 219 253 312
#     4  10  20  31  46  79 101 134 176 221 267 320
#
# _framework density 22.471685000000001
#
# number of rings (size 3 to 8) (size 9 to 14) (size 15 to 20)
#    0.000    2.571    2.857    1.286    8.000    0.000 
#    0.000    0.714    0.000    0.000    0.000    0.000 
#    0.000   10.286    0.000    0.000    0.000    0.000 
#
# Total GULP energy -156050.751461 kJ/mol
# GULP energy per Si atom -5573.241124 kJ/mol
# Density = 2.242054 g / cm^3
# Si number density = 22.471685 Si / 1000 Ang^3
#
#
#
# Elastic Constant Matrix: (Units=GPa)
#
#
# Indices 1 2 3 4 5 6 
#
# 1 76.8211 9.7760 11.7119 0.0000 -39.5271 0.0000
# 2 9.7760 75.5777 23.7379 0.0000 -15.9634 0.0000
# 3 11.7119 23.7379 88.7933 0.0000 -31.0676 0.0000
# 4 0.0000 0.0000 0.0000 36.7006 0.0000 -17.3307
# 5 -39.5271 -15.9634 -31.0676 0.0000 49.5766 0.0000
# 6 0.0000 0.0000 0.0000 -17.3307 0.0000 13.4172
#
#
#
# Elastic Compliance Matrix: (Units=1/GPa)
#
#
# Indices 1 2 3 4 5 6 
#
# 1 0.023340 0.000126 0.004371 0.000000 0.021389 0.000000
# 2 0.000126 0.014768 -0.002902 0.000000 0.003037 0.000000
# 3 0.004371 -0.002902 0.015823 0.000000 0.012467 0.000000
# 4 0.000000 0.000000 0.000000 0.069858 0.000000 0.090234
# 5 0.021389 0.003037 0.012467 0.000000 0.046014 0.000000
# 6 0.000000 0.000000 0.000000 0.090234 0.000000 0.191085
#
#
# Mechanical properties :
#
#
# Convention : Reuss Voigt Hill
#
# Bulk Modulus (GPa) = 17.50660 36.84930 27.17795
# Shear Modulus (GPa) = 13.27179 33.00330 23.13754
#
# Velocity S-wave (km/s) = 2.43286 3.83647 3.21227
# Velocity P-wave (km/s) = 3.96222 6.00486 5.08712
#
# Compressibility (1/GPa) = 0.05712130
#
# Stress axis : x y z
#
# Youngs Moduli (GPa) = 42.84487 67.71347 63.19809
#
# Poissons Ratio (x) = -0.00851 -0.27627
# Poissons Ratio (y) = -0.00538 0.18341
# Poissons Ratio (z) = -0.18729 0.19651
#
# Static dielectric constant tensor:
#      x y z
#    x 1.996650 0.000000 0.011500 
#    y 0.000000 1.919010 0.000000 
#    z 0.011500 0.000000 1.891900 
# 
# From -- ./inp_files/62552.got.cif
#   From: 2010.05.17/outbox.cif.g08.bks.cpg/sg15_32_cif.got.tgz:62552.got - 2010.06.03 18:47:42.
