data_PCOD9265162
_publ_section_title
;
Structure prediction by ZEFSAII (Michael W. Deem and Ramdas Pophale) SiO2 
 PCOD9265162
Probable space group: C 2/C
;
_chemical_formula_sum "Si O2"
_cell_formula_units_Z 52
_cell_length_a 23.803238
_cell_length_b 17.336548
_cell_length_c 8.177365
_cell_angle_alpha 90.000000
_cell_angle_beta 47.291344
_cell_angle_gamma 90.000000
_cell_volume 2479.638480
_symmetry_space_group_name_H-M "C 2/C"
_symmetry_group_IT_number 15
_symmetry_cell_setting 'monoclinic'
loop_
_space_group_symop_operation_xyz
x,y,z
-x,y,1/2-z
-x,-y,-z
x,-y,1/2+z
1/2+x,1/2+y,z
1/2-x,1/2+y,1/2-z
1/2-x,1/2-y,-z
1/2+x,1/2-y,1/2+z
loop_
_atom_site_type_symbol
_atom_site_label
_atom_site_fract_x
_atom_site_fract_y
_atom_site_fract_z
Si Si1 0.528327 0.248213 0.426082
Si Si2 0.244337 0.151557 0.675013
Si Si3 0.210972 0.386936 0.938398
Si Si4 0.382850 0.267557 0.907616
Si Si5 0.833174 0.192002 0.016309
Si Si6 0.839694 0.472536 0.135703
Si Si7 0.000000 0.394294 0.750000
O O1 0.446462 0.280072 0.644763
O O2 0.576568 0.245698 0.499688
O O3 0.578057 0.299927 0.203241
O O4 0.517508 0.164360 0.365545
O O5 0.210588 0.165978 0.562671
O O6 0.303608 0.220353 0.600886
O O7 0.287452 0.072174 0.607239
O O8 0.173694 0.162677 0.938658
O O9 0.298101 0.363773 0.722730
O O10 0.174312 0.437482 0.864322
O O11 0.167744 0.305847 0.039685
O O12 0.191680 0.435925 0.135861
O O13 0.926956 0.446660 0.936086
#
# Coordination Sequence:
#
# PCOD9265162 Si02
#       7
#     8   8   8   8   8   8   4
#     4  10  19  36  58  86 116 145 197 242 289 340
#     4   9  18  35  59  81 110 153 193 245 288 342
#     4  11  24  37  55  83 114 163 194 237 286 345
#     4   9  20  37  60  83 113 153 196 242 293 342
#     4   9  18  36  62  80 109 152 201 244 284 338
#     4  12  25  38  54  83 125 156 201 233 291 356
#     4  12  24  34  54  88 116 164 180 244 284 350
#
# _framework density 20.970799
#
# number of rings (size 3 to 8) (size 9 to 14) (size 15 to 20)
#    0.000    1.846    3.077    1.846    2.154    5.538 
#    0.000    0.000    0.000    0.923    0.000    2.154 
#    0.000    0.000    0.000    0.000    0.000    0.000 
#
# Total GULP energy -145239.421856 kJ/mol
# GULP energy per Si atom -5586.131610 kJ/mol
# Density = 2.092307 g / cm^3
# Si number density = 20.970799 Si / 1000 Ang^3
#
#
#
# Elastic Constant Matrix: (Units=GPa)
#
#
# Indices 1 2 3 4 5 6 
#
# 1 46.0529 17.6332 35.0467 0.0000 -9.0330 0.0000
# 2 17.6332 45.1578 32.4533 0.0000 -19.7236 0.0000
# 3 35.0467 32.4533 159.5300 0.0000 -27.6694 0.0000
# 4 0.0000 0.0000 0.0000 23.7876 0.0000 -1.7752
# 5 -9.0330 -19.7236 -27.6694 0.0000 38.2263 0.0000
# 6 0.0000 0.0000 0.0000 -1.7752 0.0000 24.6680
#
#
#
# Elastic Compliance Matrix: (Units=1/GPa)
#
#
# Indices 1 2 3 4 5 6 
#
# 1 0.028197 -0.008005 -0.004719 0.000000 -0.000883 0.000000
# 2 -0.008005 0.032935 -0.002656 0.000000 0.013180 0.000000
# 3 -0.004719 -0.002656 0.008479 0.000000 0.003652 0.000000
# 4 0.000000 0.000000 0.000000 0.042266 0.000000 0.003042
# 5 -0.000883 0.013180 0.003652 0.000000 0.035395 0.000000
# 6 0.000000 0.000000 0.000000 0.003042 0.000000 0.040757
#
#
# Mechanical properties :
#
#
# Convention : Reuss Voigt Hill
#
# Bulk Modulus (GPa) = 25.73842 46.77859 36.25851
# Shear Modulus (GPa) = 21.57598 28.37687 24.97642
#
# Velocity S-wave (km/s) = 3.21106 3.68252 3.45484
# Velocity P-wave (km/s) = 5.10372 6.35895 5.76560
#
# Compressibility (1/GPa) = 0.03885242
#
# Stress axis : x y z
#
# Youngs Moduli (GPa) = 35.46437 30.36260 117.94107
#
# Poissons Ratio (x) = 0.24304 0.55661
# Poissons Ratio (y) = 0.28387 0.31320
# Poissons Ratio (z) = 0.16737 0.08063
#
# Static dielectric constant tensor:
#      x y z
#    x 1.842450 0.000000 0.072230 
#    y 0.000000 1.691490 0.000000 
#    z 0.072230 0.000000 1.828010 
# 
# From -- ./inp_files/55317.got.cif
#   From: 2010.05.17/outbox.cif.g08.bks.cpg/sg15_28_cif.got.tgz:55317.got - 2010.06.03 18:47:42.
