data_PCOD9265010
_publ_section_title
;
Structure prediction by ZEFSAII (Michael W. Deem and Ramdas Pophale) SiO2 
 PCOD9265010
Probable space group: C 2/C
;
_chemical_formula_sum "Si O2"
_cell_formula_units_Z 52
_cell_length_a 5.100700
_cell_length_b 25.187348
_cell_length_c 18.241233
_cell_angle_alpha 90.000000
_cell_angle_beta 121.189328
_cell_angle_gamma 90.000000
_cell_volume 2004.778953
_symmetry_space_group_name_H-M "C 2/C"
_symmetry_group_IT_number 15
_symmetry_cell_setting 'monoclinic'
loop_
_space_group_symop_operation_xyz
x,y,z
-x,y,1/2-z
-x,-y,-z
x,-y,1/2+z
1/2+x,1/2+y,z
1/2-x,1/2+y,1/2-z
1/2-x,1/2-y,-z
1/2+x,1/2-y,1/2+z
loop_
_atom_site_type_symbol
_atom_site_label
_atom_site_fract_x
_atom_site_fract_y
_atom_site_fract_z
Si Si1 0.550235 0.542447 0.678728
Si Si2 0.500000 0.133761 0.750000
Si Si3 0.670994 0.110201 0.516139
Si Si4 0.640914 0.735835 0.188196
Si Si5 0.351859 0.612692 0.307843
Si Si6 0.283402 0.821544 0.068086
Si Si7 0.807876 0.965804 0.914617
O O1 0.500000 0.514819 0.750000
O O2 0.711710 0.597060 0.719585
O O3 0.262249 0.563819 0.589117
O O4 0.775295 0.511189 0.655829
O O5 0.540544 0.163588 0.830909
O O6 0.429264 0.147767 0.521030
O O7 0.614194 0.075683 0.434470
O O8 0.949924 0.151630 0.535015
O O9 0.500000 0.737342 0.250000
O O10 0.659039 0.673691 0.169203
O O11 0.409218 0.760869 0.093465
O O12 0.000000 0.754579 0.250000
O O13 0.500000 0.610641 0.250000
O O14 0.494569 0.573368 0.388118
O O15 0.000000 0.594485 0.250000
O O16 0.000000 0.000000 0.000000
#
# Coordination Sequence:
#
# PCOD9265010 Si02
#       7
#     8   4   8   8   8   8   8
#     4  10  19  36  56  86 115 158 210 259 307 358
#     4  10  20  30  56  92 116 148 202 262 306 362
#     4  10  23  38  55  90 127 164 198 257 314 375
#     4  10  20  35  63  97 124 158 203 261 318 363
#     4  10  23  44  68  97 128 164 214 261 306 371
#     4  11  20  36  60  88 127 155 202 254 318 366
#     4  10  23  44  63  88 129 173 210 258 315 376
#
# _framework density 25.938020000000002
#
# number of rings (size 3 to 8) (size 9 to 14) (size 15 to 20)
#    0.000    1.846    2.308    1.385    3.231    1.231 
#    2.769    5.385    0.000    0.000    0.000    0.000 
#    0.000    0.000    0.000    0.000    0.000    0.000 
#
# Total GULP energy -145020.674858 kJ/mol
# GULP energy per Si atom -5577.718264 kJ/mol
# Density = 2.587898 g / cm^3
# Si number density = 25.938020 Si / 1000 Ang^3
#
#
#
# Elastic Constant Matrix: (Units=GPa)
#
#
# Indices 1 2 3 4 5 6 
#
# 1 150.7991 17.8881 38.5492 0.0000 -18.2437 0.0000
# 2 17.8881 97.4498 22.8954 0.0000 4.5109 0.0000
# 3 38.5492 22.8954 115.2555 0.0000 -11.9397 0.0000
# 4 0.0000 0.0000 0.0000 -17.6971 0.0000 -27.6879
# 5 -18.2437 4.5109 -11.9397 0.0000 27.6657 0.0000
# 6 0.0000 0.0000 0.0000 -27.6879 0.0000 3.7737
#
#
#
# Elastic Compliance Matrix: (Units=1/GPa)
#
#
# Indices 1 2 3 4 5 6 
#
# 1 0.007807 -0.001195 -0.001906 0.000000 0.004521 0.000000
# 2 -0.001195 0.011159 -0.002185 0.000000 -0.003550 0.000000
# 3 -0.001906 -0.002185 0.010106 0.000000 0.003461 0.000000
# 4 0.000000 0.000000 0.000000 -0.004528 0.000000 -0.033223
# 5 0.004521 -0.003550 0.003461 0.000000 0.041199 0.000000
# 6 0.000000 0.000000 0.000000 -0.033223 0.000000 0.021235
#
#
# Mechanical properties :
#
#
# Convention : Reuss Voigt Hill
#
# Bulk Modulus (GPa) = 54.04857 58.01886 56.03372
# Shear Modulus (GPa) = 48.20880 21.69326 34.95103
#
# Velocity S-wave (km/s) = 4.31584 2.89511 3.67479
# Velocity P-wave (km/s) = 6.76152 5.79589 6.29724
#
# Compressibility (1/GPa) = 0.01850188
#
# Stress axis : x y z
#
# Youngs Moduli (GPa) = 128.08882 89.61670 98.94803
#
# Poissons Ratio (x) = 0.10706 0.18855
# Poissons Ratio (y) = 0.15302 0.21619
# Poissons Ratio (z) = 0.24408 0.19580
#
# Static dielectric constant tensor:
#      x y z
#    x 2.214880 0.000000 0.077670 
#    y 0.000000 2.239900 0.000000 
#    z 0.077670 0.000000 2.180940 
# 
# From -- ./inp_files/185935.got.cif
#   From: 2010.05.17/outbox.cif.g08.bks.cpg/sg15_93_cif.got.tgz:185935.got - 2010.06.03 18:47:42.
