data_PCOD9265035
_publ_section_title
;
Structure prediction by ZEFSAII (Michael W. Deem and Ramdas Pophale) SiO2 
 PCOD9265035
Probable space group: C 2/C
;
_chemical_formula_sum "Si O2"
_cell_formula_units_Z 52
_cell_length_a 21.538540
_cell_length_b 9.046805
_cell_length_c 30.312011
_cell_angle_alpha 90.000000
_cell_angle_beta 27.507762
_cell_angle_gamma 90.000000
_cell_volume 2728.002992
_symmetry_space_group_name_H-M "C 2/C"
_symmetry_group_IT_number 15
_symmetry_cell_setting 'monoclinic'
loop_
_space_group_symop_operation_xyz
x,y,z
-x,y,1/2-z
-x,-y,-z
x,-y,1/2+z
1/2+x,1/2+y,z
1/2-x,1/2+y,1/2-z
1/2-x,1/2-y,-z
1/2+x,1/2-y,1/2+z
loop_
_atom_site_type_symbol
_atom_site_label
_atom_site_fract_x
_atom_site_fract_y
_atom_site_fract_z
Si Si1 0.736354 0.740000 0.319528
Si Si2 0.282617 0.970698 0.418561
Si Si3 0.500000 0.249956 0.750000
Si Si4 0.055221 0.881893 0.000640
Si Si5 0.527445 0.758604 0.681374
Si Si6 0.935136 0.058251 0.377288
Si Si7 0.160470 0.024218 0.803493
O O1 0.623908 0.744422 0.428442
O O2 0.732754 0.884214 0.291468
O O3 0.714096 0.596249 0.303448
O O4 0.883418 0.725559 0.248570
O O5 0.371072 0.858215 0.333850
O O6 0.174492 0.049094 0.454870
O O7 0.381520 0.094766 0.376792
O O8 0.195101 0.895171 0.512393
O O9 0.520280 0.349324 0.693548
O O10 0.931390 0.857420 0.111586
O O11 0.000000 0.000000 0.000000
O O12 0.500000 0.728963 0.750000
O O13 0.592207 0.611834 0.619821
O O14 0.059803 0.054199 0.332604
#
# Coordination Sequence:
#
# PCOD9265035 Si02
#       7
#     8   8   4   8   8   8   8
#     4  10  19  36  57  81 112 145 183 231 275 329
#     4  11  21  37  58  84 110 150 196 227 279 343
#     4  12  22  36  58  84 120 146 182 238 290 336
#     4   9  18  35  56  76 107 148 182 221 274 332
#     4  11  19  37  61  83 109 151 193 232 275 332
#     4  10  23  38  56  85 118 149 185 237 285 329
#     4   9  21  36  57  82 110 147 188 226 276 333
#
# _framework density 19.061563
#
# number of rings (size 3 to 8) (size 9 to 14) (size 15 to 20)
#    0.000    1.846    3.077    0.923    0.000    3.692 
#    0.000    2.308    0.000    0.000    0.000    0.000 
#    0.000    0.000    0.000    0.000    0.000    0.000 
#
# Total GULP energy -144944.872836 kJ/mol
# GULP energy per Si atom -5574.802801 kJ/mol
# Density = 1.901818 g / cm^3
# Si number density = 19.061563 Si / 1000 Ang^3
#
#
#
# Elastic Constant Matrix: (Units=GPa)
#
#
# Indices 1 2 3 4 5 6 
#
# 1 68.5664 8.4856 3.8237 -0.0018 11.9632 0.0056
# 2 8.4856 33.7562 -0.1272 -0.0015 0.2362 0.0049
# 3 3.8237 -0.1272 63.0810 0.0018 22.8690 0.0001
# 4 -0.0018 -0.0015 0.0018 25.1448 0.0004 12.4520
# 5 11.9632 0.2362 22.8690 0.0004 27.1939 -0.0031
# 6 0.0056 0.0049 0.0001 12.4520 -0.0031 19.7010
#
#
#
# Elastic Compliance Matrix: (Units=1/GPa)
#
#
# Indices 1 2 3 4 5 6 
#
# 1 0.016568 -0.004092 0.002326 0.000005 -0.009209 -0.000008
# 2 -0.004092 0.030639 -0.000354 0.000007 0.001832 -0.000010
# 3 0.002326 -0.000354 0.023134 0.000001 -0.020475 -0.000005
# 4 0.000005 0.000007 0.000001 0.057888 -0.000008 -0.036588
# 5 -0.009209 0.001832 -0.020475 -0.000008 0.058027 0.000017
# 6 -0.000008 -0.000010 -0.000005 -0.036588 0.000017 0.073884
#
#
# Mechanical properties :
#
#
# Convention : Reuss Voigt Hill
#
# Bulk Modulus (GPa) = 15.12844 21.08530 18.10687
# Shear Modulus (GPa) = 17.45730 24.62271 21.04001
#
# Velocity S-wave (km/s) = 3.02956 3.59799 3.32594
# Velocity P-wave (km/s) = 4.49350 5.32413 4.92635
#
# Compressibility (1/GPa) = 0.06610065
#
# Stress axis : x y z
#
# Youngs Moduli (GPa) = 60.35793 32.63856 43.22681
#
# Poissons Ratio (x) = 0.13354 -0.10055
# Poissons Ratio (y) = 0.24696 0.01532
# Poissons Ratio (z) = -0.14040 0.01156
#
# Static dielectric constant tensor:
#      x y z
#    x 1.646600 0.000000 0.024870 
#    y 0.000000 1.671920 0.000000 
#    z 0.024870 0.000000 1.691180 
# 
# From -- ./inp_files/166215.got.cif
#   From: 2010.05.17/outbox.cif.g08.bks.cpg/sg15_84_cif.got.tgz:166215.got - 2010.06.03 18:47:42.
