data_PCOD9265963
_publ_section_title
;
Structure prediction by ZEFSAII (Michael W. Deem and Ramdas Pophale) SiO2 
 PCOD9265963
Probable space group: C 2/C
;
_chemical_formula_sum "Si O2"
_cell_formula_units_Z 48
_cell_length_a 9.419407
_cell_length_b 21.579138
_cell_length_c 12.576984
_cell_angle_alpha 90.000000
_cell_angle_beta 52.453056
_cell_angle_gamma 90.000000
_cell_volume 2026.877720
_symmetry_space_group_name_H-M "C 2/C"
_symmetry_group_IT_number 15
_symmetry_cell_setting 'monoclinic'
loop_
_space_group_symop_operation_xyz
x,y,z
-x,y,1/2-z
-x,-y,-z
x,-y,1/2+z
1/2+x,1/2+y,z
1/2-x,1/2+y,1/2-z
1/2-x,1/2-y,-z
1/2+x,1/2-y,1/2+z
loop_
_atom_site_type_symbol
_atom_site_label
_atom_site_fract_x
_atom_site_fract_y
_atom_site_fract_z
Si Si1 0.985699 0.208019 0.578231
Si Si2 0.821255 0.521970 0.367810
Si Si3 0.019755 0.984820 0.358776
Si Si4 0.416247 0.368639 0.897000
Si Si5 0.027785 0.598574 0.613479
Si Si6 0.281059 0.816397 0.117118
O O1 0.134793 0.181956 0.591435
O O2 0.062583 0.272587 0.499516
O O3 0.963235 0.165814 0.484473
O O4 0.810976 0.211276 0.733573
O O5 0.715876 0.482657 0.322959
O O6 0.643263 0.547334 0.503747
O O7 0.913053 0.472875 0.405356
O O8 0.000000 0.559101 0.250000
O O9 0.000000 0.961268 0.250000
O O10 0.976632 0.058976 0.376058
O O11 0.500000 0.342818 0.750000
O O12 0.202900 0.368085 0.988083
O O13 0.000000 0.617499 0.750000
O O14 0.865088 0.618801 0.614752
#
# Coordination Sequence:
#
# PCOD9265963 Si02
#       6
#     8   8   8   8   8   8
#     4  10  22  40  59  87 119 159 197 243 306 358
#     4   9  19  36  61  84 117 153 197 252 296 359
#     4   9  19  38  58  85 120 155 196 251 303 358
#     4  10  21  37  59  86 121 158 198 245 300 356
#     4  10  19  37  58  87 117 151 199 251 290 356
#     4  10  22  39  61  85 122 154 198 250 297 363
#
# _framework density 23.681743999999998
#
# number of rings (size 3 to 8) (size 9 to 14) (size 15 to 20)
#    0.000    2.333    1.667    0.000    2.333    2.000 
#    0.000   15.000    0.000    0.000    0.000    0.000 
#    0.000    0.000    0.000    0.000    0.000    0.000 
#
# Total GULP energy -133896.723358 kJ/mol
# GULP energy per Si atom -5579.030140 kJ/mol
# Density = 2.362784 g / cm^3
# Si number density = 23.681744 Si / 1000 Ang^3
#
#
#
# Elastic Constant Matrix: (Units=GPa)
#
#
# Indices 1 2 3 4 5 6 
#
# 1 83.9824 18.1663 32.4968 0.0000 -7.0110 0.0000
# 2 18.1663 46.5517 -5.0267 0.0000 12.8816 0.0000
# 3 32.4968 -5.0267 144.3340 0.0000 9.0614 0.0000
# 4 0.0000 0.0000 0.0000 9.7071 0.0000 0.5421
# 5 -7.0110 12.8816 9.0614 0.0000 38.1403 0.0000
# 6 0.0000 0.0000 0.0000 0.5421 0.0000 2.3821
#
#
#
# Elastic Compliance Matrix: (Units=1/GPa)
#
#
# Indices 1 2 3 4 5 6 
#
# 1 0.016030 -0.008632 -0.004343 0.000000 0.006894 0.000000
# 2 -0.008632 0.028606 0.003701 0.000000 -0.012127 0.000000
# 3 -0.004343 0.003701 0.008287 0.000000 -0.004017 0.000000
# 4 0.000000 0.000000 0.000000 0.104343 0.000000 -0.023744
# 5 0.006894 -0.012127 -0.004017 0.000000 0.032537 0.000000
# 6 0.000000 0.000000 0.000000 -0.023744 0.000000 0.425207
#
#
# Mechanical properties :
#
#
# Convention : Reuss Voigt Hill
#
# Bulk Modulus (GPa) = 29.09032 40.68232 34.88632
# Shear Modulus (GPa) = 7.75175 25.32801 16.53988
#
# Velocity S-wave (km/s) = 1.81119 3.27389 2.64564
# Velocity P-wave (km/s) = 4.08465 5.61313 4.90875
#
# Compressibility (1/GPa) = 0.03437569
#
# Stress axis : x y z
#
# Youngs Moduli (GPa) = 62.38132 34.95811 120.66749
#
# Poissons Ratio (x) = 0.30177 0.52402
# Poissons Ratio (y) = 0.53849 -0.44661
# Poissons Ratio (z) = 0.27090 -0.12939
#
# Static dielectric constant tensor:
#      x y z
#    x 1.875660 0.000000 -0.013410 
#    y 0.000000 1.896310 0.000000 
#    z -0.013410 0.000000 1.991080 
# 
# From -- ./inp_files/80529.got.cif
#   From: 2010.05.17/outbox.cif.g08.bks.cpg/sg15_41_cif.got.tgz:80529.got - 2010.06.03 18:47:42.
