data_PCOD9265567
_publ_section_title
;
Structure prediction by ZEFSAII (Michael W. Deem and Ramdas Pophale) SiO2 
 PCOD9265567
Probable space group: C 2/C
;
_chemical_formula_sum "Si O2"
_cell_formula_units_Z 48
_cell_length_a 12.928943
_cell_length_b 20.304807
_cell_length_c 7.446590
_cell_angle_alpha 90.000000
_cell_angle_beta 66.684429
_cell_angle_gamma 90.000000
_cell_volume 1795.239055
_symmetry_space_group_name_H-M "C 2/C"
_symmetry_group_IT_number 15
_symmetry_cell_setting 'monoclinic'
loop_
_space_group_symop_operation_xyz
x,y,z
-x,y,1/2-z
-x,-y,-z
x,-y,1/2+z
1/2+x,1/2+y,z
1/2-x,1/2+y,1/2-z
1/2-x,1/2-y,-z
1/2+x,1/2-y,1/2+z
loop_
_atom_site_type_symbol
_atom_site_label
_atom_site_fract_x
_atom_site_fract_y
_atom_site_fract_z
Si Si1 0.000000 0.691857 0.750000
Si Si2 0.410249 0.962802 0.692437
Si Si3 0.595931 0.592315 0.816993
Si Si4 0.000000 0.896866 0.750000
Si Si5 0.765621 0.852090 0.801226
Si Si6 0.905742 0.249589 0.670517
Si Si7 0.180672 0.597647 0.722635
O O1 0.928631 0.641700 0.673210
O O2 0.060069 0.735669 0.559664
O O3 0.500000 0.923718 0.750000
O O4 0.310441 0.913701 0.709958
O O5 0.500000 0.000000 0.500000
O O6 0.354973 0.026601 0.824578
O O7 0.500000 0.567919 0.750000
O O8 0.598903 0.671567 0.803775
O O9 0.727521 0.578406 0.691499
O O10 0.565736 0.568818 0.040169
O O11 0.100188 0.860707 0.794197
O O12 0.713364 0.788813 0.737440
O O13 0.738688 0.855944 0.032515
O O14 0.000000 0.271650 0.750000
#
# Coordination Sequence:
#
# PCOD9265567 Si02
#       7
#     4   8   8   4   8   8   8
#     4  10  19  36  62  88 120 158 195 254 314 358
#     4  12  21  38  64  90 119 152 200 260 305 357
#     4  10  23  41  61  87 126 164 205 249 299 369
#     4  10  23  42  60  88 128 166 205 242 302 382
#     4  10  22  40  61  92 125 159 204 252 306 368
#     4  10  21  38  61  93 122 158 206 255 303 360
#     4  10  21  40  58  89 124 158 198 252 311 363
#
# _framework density 26.737387999999999
#
# number of rings (size 3 to 8) (size 9 to 14) (size 15 to 20)
#    0.000    1.667    2.500    2.000    0.000   10.000 
#    1.500    5.000    0.000    0.000    0.000    0.000 
#    0.000    0.000    0.000    0.000    0.000    0.000 
#
# Total GULP energy -133889.459722 kJ/mol
# GULP energy per Si atom -5578.727488 kJ/mol
# Density = 2.667653 g / cm^3
# Si number density = 26.737388 Si / 1000 Ang^3
#
#
#
# Elastic Constant Matrix: (Units=GPa)
#
#
# Indices 1 2 3 4 5 6 
#
# 1 231.6506 44.9775 13.0688 0.0000 11.3934 0.0000
# 2 44.9775 113.2101 5.4204 0.0000 -6.2953 0.0000
# 3 13.0688 5.4204 55.0805 0.0000 7.3810 0.0000
# 4 0.0000 0.0000 0.0000 23.7884 0.0000 -1.1545
# 5 11.3934 -6.2953 7.3810 0.0000 33.1452 0.0000
# 6 0.0000 0.0000 0.0000 -1.1545 0.0000 66.3652
#
#
#
# Elastic Compliance Matrix: (Units=1/GPa)
#
#
# Indices 1 2 3 4 5 6 
#
# 1 0.004836 -0.001993 -0.000699 0.000000 -0.001885 0.000000
# 2 -0.001993 0.009818 -0.000861 0.000000 0.002741 0.000000
# 3 -0.000699 -0.000861 0.018961 0.000000 -0.004146 0.000000
# 4 0.000000 0.000000 0.000000 0.042073 0.000000 0.000732
# 5 -0.001885 0.002741 -0.004146 0.000000 0.032262 0.000000
# 6 0.000000 0.000000 0.000000 0.000732 0.000000 0.015081
#
#
# Mechanical properties :
#
#
# Convention : Reuss Voigt Hill
#
# Bulk Modulus (GPa) = 37.71966 58.54162 48.13064
# Shear Modulus (GPa) = 35.97826 47.09139 41.53483
#
# Velocity S-wave (km/s) = 3.67224 4.20129 3.94564
# Velocity P-wave (km/s) = 5.66733 6.74366 6.22879
#
# Compressibility (1/GPa) = 0.02651137
#
# Stress axis : x y z
#
# Youngs Moduli (GPa) = 206.78791 101.84905 52.73905
#
# Poissons Ratio (x) = 0.20295 0.03685
# Poissons Ratio (y) = 0.41205 0.04540
# Poissons Ratio (z) = 0.14448 0.08767
#
# Static dielectric constant tensor:
#      x y z
#    x 2.173090 0.000000 0.016780 
#    y 0.000000 2.074620 0.000000 
#    z 0.016780 0.000000 2.221620 
# 
# From -- ./inp_files/31975.got.cif
#   From: 2010.05.17/outbox.cif.g08.bks.cpg/sg15_16_cif.got.tgz:31975.got - 2010.06.03 18:47:42.
