data_PCOD9265600
_publ_section_title
;
Structure prediction by ZEFSAII (Michael W. Deem and Ramdas Pophale) SiO2 
 PCOD9265600
Probable space group: C 2/C
;
_chemical_formula_sum "Si O2"
_cell_formula_units_Z 40
_cell_length_a 24.326621
_cell_length_b 13.472671
_cell_length_c 14.710345
_cell_angle_alpha 90.000000
_cell_angle_beta 18.991715
_cell_angle_gamma 90.000000
_cell_volume 1568.981578
_symmetry_space_group_name_H-M "C 2/C"
_symmetry_group_IT_number 15
_symmetry_cell_setting 'monoclinic'
loop_
_space_group_symop_operation_xyz
x,y,z
-x,y,1/2-z
-x,-y,-z
x,-y,1/2+z
1/2+x,1/2+y,z
1/2-x,1/2+y,1/2-z
1/2-x,1/2-y,-z
1/2+x,1/2-y,1/2+z
loop_
_atom_site_type_symbol
_atom_site_label
_atom_site_fract_x
_atom_site_fract_y
_atom_site_fract_z
Si Si1 0.681291 0.093527 0.621520
Si Si2 0.000000 0.909893 0.250000
Si Si3 0.292546 0.373367 0.404992
Si Si4 0.979695 0.782550 0.940569
Si Si5 0.252118 0.437283 0.211915
Si Si6 0.500000 0.102047 0.250000
O O1 0.521430 0.167119 0.855522
O O2 0.662073 0.065461 0.756985
O O3 0.847172 0.161356 0.352564
O O4 0.744375 0.991570 0.475742
O O5 0.861401 0.861992 0.399802
O O6 0.897599 0.981436 0.478447
O O7 0.111696 0.336918 0.648151
O O8 0.422293 0.322219 0.130747
O O9 0.835321 0.830153 0.102639
O O10 0.123447 0.458811 0.492660
#
# Coordination Sequence:
#
# PCOD9265600 Si02
#       6
#     8   4   8   8   8   4
#     4  10  20  35  62  93 126 173 231 287 343 416
#     4  10  20  36  70  84 130 176 234 278 352 402
#     4  10  21  41  62 100 130 181 229 290 346 437
#     4  10  19  36  62  92 127 174 225 288 353 405
#     4  10  19  40  57  91 130 179 216 295 350 414
#     4  10  24  36  64  90 138 174 228 278 362 412
#
# _framework density 25.494246
#
# number of rings (size 3 to 8) (size 9 to 14) (size 15 to 20)
#    0.000    2.000    4.000    0.600    2.800    3.200 
#    7.200    7.000    0.000    0.000    0.000    0.000 
#    0.000    0.000    0.000    0.000    0.000    0.000 
#
# Total GULP energy -111473.806440 kJ/mol
# GULP energy per Si atom -5573.690322 kJ/mol
# Density = 2.543622 g / cm^3
# Si number density = 25.494246 Si / 1000 Ang^3
#
#
#
# Elastic Constant Matrix: (Units=GPa)
#
#
# Indices 1 2 3 4 5 6 
#
# 1 140.2679 10.7001 47.8840 0.0002 -8.3484 0.0000
# 2 10.7001 169.5783 46.2412 0.0001 3.3743 0.0002
# 3 47.8840 46.2412 142.3710 0.0008 21.1745 -0.0005
# 4 0.0002 0.0001 0.0008 7.3417 -0.0003 10.0761
# 5 -8.3484 3.3743 21.1745 -0.0003 43.8789 0.0002
# 6 0.0000 0.0002 -0.0005 10.0761 0.0002 -3.5580
#
#
#
# Elastic Compliance Matrix: (Units=1/GPa)
#
#
# Indices 1 2 3 4 5 6 
#
# 1 0.008472 0.000340 -0.003443 0.000000 0.003247 0.000000
# 2 0.000340 0.006496 -0.002326 0.000000 0.000688 0.000000
# 3 -0.003443 -0.002326 0.009705 0.000000 -0.005159 -0.000001
# 4 0.000000 0.000000 0.000000 0.027873 0.000000 0.078936
# 5 0.003247 0.000688 -0.005159 0.000000 0.025845 0.000001
# 6 0.000000 0.000000 -0.000001 0.078936 0.000001 -0.057514
#
#
# Mechanical properties :
#
#
# Convention : Reuss Voigt Hill
#
# Bulk Modulus (GPa) = 72.39095 73.54087 72.96591
# Shear Modulus (GPa) = 137.59056 32.69197 85.14127
#
# Velocity S-wave (km/s) = 7.35435 3.58484 5.78522
# Velocity P-wave (km/s) = 10.02855 6.78554 8.56199
#
# Compressibility (1/GPa) = 0.01381388
#
# Stress axis : x y z
#
# Youngs Moduli (GPa) = 118.03930 153.93494 103.04330
#
# Poissons Ratio (x) = -0.05227 0.35473
# Poissons Ratio (y) = -0.04008 0.23972
# Poissons Ratio (z) = 0.40635 0.35812
#
# Static dielectric constant tensor:
#      x y z
#    x 2.056110 0.000000 -0.040480 
#    y 0.000000 2.098890 0.000000 
#    z -0.040480 0.000000 1.997450 
# 
# From -- ./inp_files/178303.got.cif
#   From: 2010.05.17/outbox.cif.g08.bks.cpg/sg15_90_cif.got.tgz:178303.got - 2010.06.03 18:47:42.
