data_PCOD9265799
_publ_section_title
;
Structure prediction by ZEFSAII (Michael W. Deem and Ramdas Pophale) SiO2 
 PCOD9265799
Probable space group: C 2/C
;
_chemical_formula_sum "Si O2"
_cell_formula_units_Z 32
_cell_length_a 18.358481
_cell_length_b 5.486844
_cell_length_c 27.911819
_cell_angle_alpha 90.000000
_cell_angle_beta 152.359734
_cell_angle_gamma 90.000000
_cell_volume 1304.335745
_symmetry_space_group_name_H-M "C 2/C"
_symmetry_group_IT_number 15
_symmetry_cell_setting 'monoclinic'
loop_
_space_group_symop_operation_xyz
x,y,z
-x,y,1/2-z
-x,-y,-z
x,-y,1/2+z
1/2+x,1/2+y,z
1/2-x,1/2+y,1/2-z
1/2-x,1/2-y,-z
1/2+x,1/2-y,1/2+z
loop_
_atom_site_type_symbol
_atom_site_label
_atom_site_fract_x
_atom_site_fract_y
_atom_site_fract_z
Si Si1 0.686773 0.030326 0.620323
Si Si2 0.379609 0.536662 0.885103
Si Si3 0.861048 0.186746 0.138766
Si Si4 0.630104 0.446471 0.452561
O O1 0.704756 0.272984 0.662536
O O2 0.500000 0.000000 0.500000
O O3 0.727443 0.769652 0.667248
O O4 0.781741 0.023273 0.625653
O O5 0.482827 0.613698 0.899659
O O6 0.500000 0.500000 0.000000
O O7 0.000000 0.304673 0.250000
O O8 0.928136 0.079388 0.129028
O O9 0.729247 0.372721 0.044432
O O10 0.750000 0.250000 0.500000
#
# Coordination Sequence:
#
# PCOD9265799 Si02
#       4
#     8   8   8   8
#     4  10  19  39  65  92 132 179 227 275 345 409
#     4  10  19  36  67  92 126 183 225 272 337 421
#     4  11  25  42  65 102 138 179 235 296 347 416
#     4  11  23  41  69  98 136 185 229 285 362 418
#
# _framework density 24.533557999999999
#
# number of rings (size 3 to 8) (size 9 to 14) (size 15 to 20)
#    0.000    1.500    5.000    3.000    3.500    1.000 
#    0.000    2.500    0.000    0.000    0.000    0.000 
#    0.000    0.000    0.000    0.000    0.000    0.000 
#
# Total GULP energy -89379.470152 kJ/mol
# GULP energy per Si atom -5586.216884 kJ/mol
# Density = 2.447772 g / cm^3
# Si number density = 24.533558 Si / 1000 Ang^3
#
#
#
# Elastic Constant Matrix: (Units=GPa)
#
#
# Indices 1 2 3 4 5 6 
#
# 1 163.2056 36.7729 53.0751 -0.0007 12.8448 -0.0058
# 2 36.7729 164.5516 16.5443 0.0007 5.6850 0.0078
# 3 53.0751 16.5443 86.3668 -0.0003 -10.7295 0.0019
# 4 -0.0007 0.0007 -0.0003 -18.8098 -0.0008 7.0559
# 5 12.8448 5.6850 -10.7295 -0.0008 29.2669 0.0002
# 6 -0.0058 0.0078 0.0019 7.0559 0.0002 44.8018
#
#
#
# Elastic Compliance Matrix: (Units=1/GPa)
#
#
# Indices 1 2 3 4 5 6 
#
# 1 0.008754 -0.001167 -0.005873 0.000001 -0.005768 0.000002
# 2 -0.001167 0.006435 -0.000637 0.000000 -0.000971 -0.000001
# 3 -0.005873 -0.000637 0.016392 -0.000001 0.008710 -0.000001
# 4 0.000001 0.000000 -0.000001 -0.050198 -0.000002 0.007906
# 5 -0.005768 -0.000971 0.008710 -0.000002 0.040082 -0.000001
# 6 0.000002 -0.000001 -0.000001 0.007906 -0.000001 0.021075
#
#
# Mechanical properties :
#
#
# Convention : Reuss Voigt Hill
#
# Bulk Modulus (GPa) = 61.61726 69.65648 65.63687
# Shear Modulus (GPa) = 78.98714 31.56721 55.27718
#
# Velocity S-wave (km/s) = 5.68027 3.59094 4.75186
# Velocity P-wave (km/s) = 8.25776 6.75627 7.54446
#
# Compressibility (1/GPa) = 0.01622922
#
# Stress axis : x y z
#
# Youngs Moduli (GPa) = 114.23494 155.39116 61.00713
#
# Poissons Ratio (x) = 0.18127 0.35828
# Poissons Ratio (y) = 0.13326 0.03884
# Poissons Ratio (z) = 0.67087 0.09892
#
# Static dielectric constant tensor:
#      x y z
#    x 2.160380 0.000040 0.089300 
#    y 0.000040 2.050960 0.000020 
#    z 0.089300 0.000020 2.014670 
# 
# From -- ./inp_files/275773.got.cif
#   From: 2010.05.17/outbox.cif.g08.bks.cpg/sg15_138_cif.got.tgz:275773.got - 2010.06.03 18:47:42.
