data_PCOD9265246
_publ_section_title
;
Structure prediction by ZEFSAII (Michael W. Deem and Ramdas Pophale) SiO2 
 PCOD9265246
Probable space group: C 2/C
;
_chemical_formula_sum "Si O2"
_cell_formula_units_Z 64
_cell_length_a 11.824626
_cell_length_b 18.218436
_cell_length_c 27.670784
_cell_angle_alpha 90.000000
_cell_angle_beta 29.717310
_cell_angle_gamma 90.000000
_cell_volume 2954.999084
_symmetry_space_group_name_H-M "C 2/C"
_symmetry_group_IT_number 15
_symmetry_cell_setting 'monoclinic'
loop_
_space_group_symop_operation_xyz
x,y,z
-x,y,1/2-z
-x,-y,-z
x,-y,1/2+z
1/2+x,1/2+y,z
1/2-x,1/2+y,1/2-z
1/2-x,1/2-y,-z
1/2+x,1/2-y,1/2+z
loop_
_atom_site_type_symbol
_atom_site_label
_atom_site_fract_x
_atom_site_fract_y
_atom_site_fract_z
Si Si1 0.795401 0.009686 0.862448
Si Si2 0.557854 0.870738 0.844168
Si Si3 0.297245 0.222897 0.359379
Si Si4 0.425574 0.648641 0.351794
Si Si5 0.182903 0.492165 0.508329
Si Si6 0.136832 0.136558 0.021394
Si Si7 0.150835 0.312588 0.152335
Si Si8 0.059342 0.267418 0.532158
O O1 0.816893 0.921098 0.864864
O O2 0.000000 0.029587 0.750000
O O3 0.554265 0.025040 0.925848
O O4 0.796530 0.040798 0.917083
O O5 0.426946 0.827274 0.850892
O O6 0.579446 0.827027 0.886908
O O7 0.818856 0.880323 0.731821
O O8 0.406225 0.938715 0.917003
O O9 0.500000 0.250642 0.250000
O O10 0.168111 0.283886 0.439787
O O11 0.102094 0.174643 0.405329
O O12 0.301048 0.666938 0.448690
O O13 0.433611 0.728645 0.324699
O O14 0.352129 0.550347 0.470067
O O15 0.316450 0.151062 0.911841
O O16 0.402458 0.302645 0.080922
O O17 0.000000 0.348509 0.250000
O O18 0.250000 0.250000 0.500000
#
# Coordination Sequence:
#
# PCOD9265246 Si02
#       8
#     8   8   8   8   8   8   8   8
#     4  10  19  36  59  85 116 150 194 248 298 353
#     4  11  19  36  62  86 113 160 202 243 294 359
#     4  10  20  37  61  84 117 160 201 246 294 356
#     4  11  19  34  65  90 111 151 208 241 302 358
#     4  10  22  36  57  86 121 155 199 245 290 358
#     4  10  23  39  54  88 125 157 195 246 300 350
#     4  11  20  35  61  91 120 156 194 245 300 361
#     4   9  20  35  55  86 119 144 195 245 295 344
#
# _framework density 21.658214000000001
#
# number of rings (size 3 to 8) (size 9 to 14) (size 15 to 20)
#    0.000    1.750    3.750    1.500    0.000    0.500 
#    0.000    5.000    0.000    0.000    0.000    0.000 
#    0.000    0.000    0.000    0.000    0.000    0.000 
#
# Total GULP energy -178230.601636 kJ/mol
# GULP energy per Si atom -5569.706301 kJ/mol
# Density = 2.160892 g / cm^3
# Si number density = 21.658214 Si / 1000 Ang^3
#
#
#
# Elastic Constant Matrix: (Units=GPa)
#
#
# Indices 1 2 3 4 5 6 
#
# 1 64.1118 15.5702 31.5559 -0.0109 9.7781 0.0101
# 2 15.5702 21.3513 -0.1639 0.0098 5.9328 -0.0002
# 3 31.5559 -0.1639 151.3506 0.0373 34.2191 -0.0029
# 4 -0.0109 0.0098 0.0373 22.2250 0.0103 5.7085
# 5 9.7781 5.9328 34.2191 0.0103 43.2908 -0.0007
# 6 0.0101 -0.0002 -0.0029 5.7085 -0.0007 25.3391
#
#
#
# Elastic Compliance Matrix: (Units=1/GPa)
#
#
# Indices 1 2 3 4 5 6 
#
# 1 0.021720 -0.016182 -0.004795 0.000029 0.001102 -0.000016
# 2 -0.016182 0.061199 0.005491 -0.000045 -0.009073 0.000017
# 3 -0.004795 0.005491 0.009178 -0.000019 -0.006925 0.000007
# 4 0.000029 -0.000045 -0.000019 0.047758 0.000003 -0.010759
# 5 0.001102 -0.009073 -0.006925 0.000003 0.029568 -0.000001
# 6 -0.000016 0.000017 0.000007 -0.010759 -0.000001 0.041888
#
#
# Mechanical properties :
#
#
# Convention : Reuss Voigt Hill
#
# Bulk Modulus (GPa) = 16.35964 36.74869 26.55416
# Shear Modulus (GPa) = 19.03610 30.82774 24.93192
#
# Velocity S-wave (km/s) = 2.96790 3.77686 3.39655
# Velocity P-wave (km/s) = 4.39482 6.00199 5.26015
#
# Compressibility (1/GPa) = 0.06112605
#
# Stress axis : x y z
#
# Youngs Moduli (GPa) = 46.04083 16.34001 108.95032
#
# Poissons Ratio (x) = 0.26442 0.52244
# Poissons Ratio (y) = 0.74504 -0.59829
# Poissons Ratio (z) = 0.22078 -0.08973
#
# Static dielectric constant tensor:
#      x y z
#    x 1.767120 -0.000010 -0.017810 
#    y -0.000010 1.840880 -0.000050 
#    z -0.017810 -0.000050 1.822780 
# 
# From -- ./inp_files/293739.got.cif
#   From: 2010.05.17/outbox.cif.g08.bks.cpg/sg15_147_cif.got.tgz:293739.got - 2010.06.03 18:47:42.
