data_PCOD9265862
_publ_section_title
;
Structure prediction by ZEFSAII (Michael W. Deem and Ramdas Pophale) SiO2 
 PCOD9265862
Probable space group: C 2/C
;
_chemical_formula_sum "Si O2"
_cell_formula_units_Z 52
_cell_length_a 6.243598
_cell_length_b 27.067807
_cell_length_c 16.398369
_cell_angle_alpha 90.000000
_cell_angle_beta 83.824831
_cell_angle_gamma 90.000000
_cell_volume 2755.252482
_symmetry_space_group_name_H-M "C 2/C"
_symmetry_group_IT_number 15
_symmetry_cell_setting 'monoclinic'
loop_
_space_group_symop_operation_xyz
x,y,z
-x,y,1/2-z
-x,-y,-z
x,-y,1/2+z
1/2+x,1/2+y,z
1/2-x,1/2+y,1/2-z
1/2-x,1/2-y,-z
1/2+x,1/2-y,1/2+z
loop_
_atom_site_type_symbol
_atom_site_label
_atom_site_fract_x
_atom_site_fract_y
_atom_site_fract_z
Si Si1 0.500000 0.276527 0.250000
Si Si2 0.912775 0.923534 0.025029
Si Si3 0.804454 0.251686 0.372864
Si Si4 0.984427 0.808588 0.504477
Si Si5 0.676645 0.825464 0.386420
Si Si6 0.997842 0.426995 0.344501
Si Si7 0.713615 0.998121 0.436149
O O1 0.675520 0.245090 0.293863
O O2 0.372634 0.311207 0.318813
O O3 0.951127 0.865588 0.012238
O O4 0.737175 0.930128 0.104648
O O5 0.118833 0.957053 0.038064
O O6 0.819536 0.948760 0.946506
O O7 0.948479 0.208425 0.407553
O O8 0.623805 0.271302 0.443153
O O9 0.970753 0.296898 0.360684
O O10 0.744970 0.807495 0.474474
O O11 0.620333 0.882735 0.385937
O O12 0.000000 0.414247 0.250000
O O13 0.128427 0.477662 0.354088
O O14 0.500000 0.000000 0.500000
#
# Coordination Sequence:
#
# PCOD9265862 Si02
#       7
#     4   8   8   8   8   8   8
#     4  10  22  34  52  76 116 154 182 232 288 334
#     4  10  19  37  56  80 110 142 184 229 277 333
#     4  10  20  35  51  80 114 144 191 229 276 335
#     4  10  20  33  56  81 107 148 189 226 274 336
#     4  11  20  33  51  81 116 144 179 232 286 337
#     4  11  21  31  55  85 116 142 174 224 291 347
#     4   9  20  36  54  78 110 144 181 225 280 333
#
# _framework density 18.873042000000002
#
# number of rings (size 3 to 8) (size 9 to 14) (size 15 to 20)
#    0.000    1.846    3.077    1.846    2.154    0.615 
#    0.000    0.000    1.692    0.000    8.000    0.000 
#    0.000    0.000    0.000    0.000    0.000    0.000 
#
# Total GULP energy -144778.149436 kJ/mol
# GULP energy per Si atom -5568.390363 kJ/mol
# Density = 1.883009 g / cm^3
# Si number density = 18.873042 Si / 1000 Ang^3
#
#
#
# Elastic Constant Matrix: (Units=GPa)
#
#
# Indices 1 2 3 4 5 6 
#
# 1 84.0529 14.6787 44.0663 0.0000 19.9848 0.0000
# 2 14.6787 57.2428 35.9836 0.0000 11.9181 0.0000
# 3 44.0663 35.9836 51.6804 0.0000 22.7582 0.0000
# 4 0.0000 0.0000 0.0000 19.5697 0.0000 9.0496
# 5 19.9848 11.9181 22.7582 0.0000 35.6851 0.0000
# 6 0.0000 0.0000 0.0000 9.0496 0.0000 35.3323
#
#
#
# Elastic Compliance Matrix: (Units=1/GPa)
#
#
# Indices 1 2 3 4 5 6 
#
# 1 0.026010 0.013104 -0.031926 0.000000 0.001418 0.000000
# 2 0.013104 0.038261 -0.040262 0.000000 0.005560 0.000000
# 3 -0.031926 -0.040262 0.084558 0.000000 -0.022600 0.000000
# 4 0.000000 0.000000 0.000000 0.057965 0.000000 -0.014846
# 5 0.001418 0.005560 -0.022600 0.000000 0.039785 0.000000
# 6 0.000000 0.000000 0.000000 -0.014846 0.000000 0.032105
#
#
# Mechanical properties :
#
#
# Convention : Reuss Voigt Hill
#
# Bulk Modulus (GPa) = 32.61526 42.49260 37.55393
# Shear Modulus (GPa) = 12.28288 24.66725 18.47507
#
# Velocity S-wave (km/s) = 2.55388 3.61918 3.13215
# Velocity P-wave (km/s) = 5.10052 6.32681 5.74647
#
# Compressibility (1/GPa) = 0.03066050
#
# Stress axis : x y z
#
# Youngs Moduli (GPa) = 38.44748 26.13654 11.82624
#
# Poissons Ratio (x) = -0.34250 0.37757
# Poissons Ratio (y) = -0.50383 0.47615
# Poissons Ratio (z) = 1.22748 1.05230
#
# Static dielectric constant tensor:
#      x y z
#    x 1.716620 0.000000 0.047610 
#    y 0.000000 1.658700 0.000000 
#    z 0.047610 0.000000 1.689320 
# 
# From -- ./inp_files/185782.got.cif
#   From: 2010.05.17/outbox.cif.g08.bks.cpg/sg15_93_cif.got.tgz:185782.got - 2010.06.03 18:47:42.
