data_PCOD9265970
_publ_section_title
;
Structure prediction by ZEFSAII (Michael W. Deem and Ramdas Pophale) SiO2 
 PCOD9265970
Probable space group: C 2/C
;
_chemical_formula_sum "Si O2"
_cell_formula_units_Z 48
_cell_length_a 12.964782
_cell_length_b 7.932906
_cell_length_c 17.207373
_cell_angle_alpha 90.000000
_cell_angle_beta 94.792400
_cell_angle_gamma 90.000000
_cell_volume 1763.563591
_symmetry_space_group_name_H-M "C 2/C"
_symmetry_group_IT_number 15
_symmetry_cell_setting 'monoclinic'
loop_
_space_group_symop_operation_xyz
x,y,z
-x,y,1/2-z
-x,-y,-z
x,-y,1/2+z
1/2+x,1/2+y,z
1/2-x,1/2+y,1/2-z
1/2-x,1/2-y,-z
1/2+x,1/2-y,1/2+z
loop_
_atom_site_type_symbol
_atom_site_label
_atom_site_fract_x
_atom_site_fract_y
_atom_site_fract_z
Si Si1 0.000000 0.856445 0.750000
Si Si2 0.222681 0.297742 0.315266
Si Si3 0.859513 0.472546 0.380688
Si Si4 0.965179 0.952803 0.584055
Si Si5 0.500000 0.927165 0.750000
Si Si6 0.342357 0.131626 0.537032
Si Si7 0.321260 0.303206 0.165767
O O1 0.890436 0.767840 0.719776
O O2 0.024924 0.955148 0.670705
O O3 0.289292 0.138216 0.350838
O O4 0.204221 0.430087 0.384000
O O5 0.283071 0.377123 0.247402
O O6 0.880827 0.510400 0.472282
O O7 0.795416 0.297937 0.375685
O O8 0.948666 0.480167 0.321476
O O9 0.930429 0.761510 0.567199
O O10 0.873956 0.080305 0.603623
O O11 0.000000 0.000000 0.500000
O O12 0.590015 0.819740 0.797394
O O13 0.250000 0.250000 0.500000
#
# Coordination Sequence:
#
# PCOD9265970 Si02
#       7
#     4   8   8   8   4   8   8
#     4  10  19  39  56  86 124 154 197 259 302 368
#     4   9  20  34  58  84 119 157 201 251 305 375
#     4  10  19  37  58  88 124 158 203 259 311 365
#     4  11  21  34  60  90 113 155 209 254 309 370
#     4  10  23  35  58  92 126 154 211 269 284 386
#     4   9  16  34  53  80 117 153 192 253 305 360
#     4  11  20  36  59  88 115 162 203 243 320 361
#
# _framework density 27.217617000000001
#
# number of rings (size 3 to 8) (size 9 to 14) (size 15 to 20)
#    0.000    2.000    5.000    1.500    0.000    3.333 
#    0.000    0.833    0.000   11.000    0.000    0.000 
#    0.000    0.000    0.000    0.000    0.000    0.000 
#
# Total GULP energy -133701.651924 kJ/mol
# GULP energy per Si atom -5570.902163 kJ/mol
# Density = 2.715567 g / cm^3
# Si number density = 27.217617 Si / 1000 Ang^3
#
#
#
# Elastic Constant Matrix: (Units=GPa)
#
#
# Indices 1 2 3 4 5 6 
#
# 1 134.1611 34.9184 63.3396 0.0000 -21.0028 0.0000
# 2 34.9184 50.8835 38.1279 0.0000 -6.5507 0.0000
# 3 63.3396 38.1279 232.0411 0.0000 -47.2392 0.0000
# 4 0.0000 0.0000 0.0000 36.9040 0.0000 14.9334
# 5 -21.0028 -6.5507 -47.2392 0.0000 58.7306 0.0000
# 6 0.0000 0.0000 0.0000 14.9334 0.0000 47.5250
#
#
#
# Elastic Compliance Matrix: (Units=1/GPa)
#
#
# Indices 1 2 3 4 5 6 
#
# 1 0.009819 -0.005442 -0.001429 0.000000 0.001755 0.000000
# 2 -0.005442 0.025443 -0.003006 0.000000 -0.001526 0.000000
# 3 -0.001429 -0.003006 0.006004 0.000000 0.003983 0.000000
# 4 0.000000 0.000000 0.000000 0.031045 0.000000 -0.009755
# 5 0.001755 -0.001526 0.003983 0.000000 0.020688 0.000000
# 6 0.000000 0.000000 0.000000 -0.009755 0.000000 0.024107
#
#
# Mechanical properties :
#
#
# Convention : Reuss Voigt Hill
#
# Bulk Modulus (GPa) = 46.48185 76.65083 61.56634
# Shear Modulus (GPa) = 34.71462 47.34522 41.02992
#
# Velocity S-wave (km/s) = 3.57521 4.17526 3.88684
# Velocity P-wave (km/s) = 5.84447 7.17406 6.54312
#
# Compressibility (1/GPa) = 0.02151377
#
# Stress axis : x y z
#
# Youngs Moduli (GPa) = 101.83841 39.30335 166.54270
#
# Poissons Ratio (x) = 0.21388 0.23797
# Poissons Ratio (y) = 0.55419 0.50061
# Poissons Ratio (z) = 0.14551 0.11814
#
# Static dielectric constant tensor:
#      x y z
#    x 2.057720 0.000000 0.090690 
#    y 0.000000 2.184210 0.000000 
#    z 0.090690 0.000000 2.155300 
# 
# From -- ./inp_files/152072.got.cif
#   From: 2010.05.17/outbox.cif.g08.bks.cpg/sg15_77_cif.got.tgz:152072.got - 2010.06.03 18:47:42.
