data_PCOD9265022
_publ_section_title
;
Structure prediction by ZEFSAII (Michael W. Deem and Ramdas Pophale) SiO2 
 PCOD9265022
Probable space group: C 2/C
;
_chemical_formula_sum "Si O2"
_cell_formula_units_Z 56
_cell_length_a 27.541395
_cell_length_b 13.386159
_cell_length_c 17.593636
_cell_angle_alpha 90.000000
_cell_angle_beta 19.105875
_cell_angle_gamma 90.000000
_cell_volume 2123.064292
_symmetry_space_group_name_H-M "C 2/C"
_symmetry_group_IT_number 15
_symmetry_cell_setting 'monoclinic'
loop_
_space_group_symop_operation_xyz
x,y,z
-x,y,1/2-z
-x,-y,-z
x,-y,1/2+z
1/2+x,1/2+y,z
1/2-x,1/2+y,1/2-z
1/2-x,1/2-y,-z
1/2+x,1/2-y,1/2+z
loop_
_atom_site_type_symbol
_atom_site_label
_atom_site_fract_x
_atom_site_fract_y
_atom_site_fract_z
Si Si1 0.781068 0.837103 0.207267
Si Si2 0.910500 0.116596 0.257573
Si Si3 0.900314 0.332276 0.235004
Si Si4 0.253197 0.962340 0.094804
Si Si5 0.447799 0.182598 0.202351
Si Si6 0.811522 0.640767 0.250880
Si Si7 0.500000 0.113347 0.750000
Si Si8 0.500000 0.354076 0.250000
O O1 0.800190 0.892609 0.259478
O O2 0.611899 0.853078 0.433687
O O3 0.787408 0.720090 0.218764
O O4 0.926156 0.874502 0.948988
O O5 0.903104 0.214357 0.211667
O O6 0.765720 0.127894 0.524755
O O7 0.875044 0.016443 0.263066
O O8 0.940432 0.329535 0.265359
O O9 0.027787 0.401294 0.010262
O O10 0.363000 0.901301 0.876756
O O11 0.358940 0.044412 0.977783
O O12 0.351795 0.198425 0.269443
O O13 0.467882 0.278630 0.226850
O O14 0.653416 0.590553 0.502103
#
# Coordination Sequence:
#
# PCOD9265022 Si02
#       8
#     8   8   8   8   8   8   4   4
#     4  10  19  37  58  95 119 153 212 245 292 361
#     4   9  20  37  56  84 120 151 202 251 283 357
#     4   9  20  41  57  87 117 158 205 245 302 358
#     4  11  18  35  62  87 119 155 203 250 302 351
#     4  11  19  36  63  90 122 161 193 252 305 352
#     4  10  21  37  60  91 124 161 196 255 302 353
#     4  10  19  38  66  81 112 162 206 246 297 362
#     4  10  19  36  56  93 126 148 212 236 291 374
#
# _framework density 26.376968999999999
#
# number of rings (size 3 to 8) (size 9 to 14) (size 15 to 20)
#    0.000    2.000    4.286    0.857    0.000    0.000 
#   38.571    4.286    0.000    0.857    0.000    0.000 
#    0.000    0.000    0.000    0.000    0.000    0.000 
#
# Total GULP energy -156387.519069 kJ/mol
# GULP energy per Si atom -5585.268538 kJ/mol
# Density = 2.631693 g / cm^3
# Si number density = 26.376969 Si / 1000 Ang^3
#
#
#
# Elastic Constant Matrix: (Units=GPa)
#
#
# Indices 1 2 3 4 5 6 
#
# 1 73.3202 8.7692 20.8826 0.0000 -20.6392 0.0000
# 2 8.7692 68.7329 19.3795 -0.0001 -5.4679 0.0000
# 3 20.8826 19.3795 286.2376 -0.0002 -12.4298 0.0000
# 4 0.0000 -0.0001 -0.0002 17.0262 0.0001 -14.5150
# 5 -20.6392 -5.4679 -12.4298 0.0001 25.9023 0.0000
# 6 0.0000 0.0000 0.0000 -14.5150 0.0000 24.4711
#
#
#
# Elastic Compliance Matrix: (Units=1/GPa)
#
#
# Indices 1 2 3 4 5 6 
#
# 1 0.017783 -0.001003 -0.000637 0.000000 0.013653 0.000000
# 2 -0.001003 0.015077 -0.000862 0.000000 0.001970 0.000000
# 3 -0.000637 -0.000862 0.003644 0.000000 0.001060 0.000000
# 4 0.000000 0.000000 0.000000 0.118812 -0.000001 0.070473
# 5 0.013653 0.001970 0.001060 -0.000001 0.050409 0.000000
# 6 0.000000 0.000000 0.000000 0.070473 0.000000 0.082665
#
#
# Mechanical properties :
#
#
# Convention : Reuss Voigt Hill
#
# Bulk Modulus (GPa) = 31.74534 58.48369 45.11452
# Shear Modulus (GPa) = 16.45305 38.76388 27.60846
#
# Velocity S-wave (km/s) = 2.50024 3.83771 3.23877
# Velocity P-wave (km/s) = 4.51623 6.46976 5.57916
#
# Compressibility (1/GPa) = 0.03150068
#
# Stress axis : x y z
#
# Youngs Moduli (GPa) = 56.23269 66.32703 274.39192
#
# Poissons Ratio (x) = 0.06654 0.17468
# Poissons Ratio (y) = 0.05642 0.23654
# Poissons Ratio (z) = 0.03580 0.05718
#
# Static dielectric constant tensor:
#      x y z
#    x 2.058910 0.000000 0.049090 
#    y 0.000000 2.060010 0.000000 
#    z 0.049090 0.000000 2.155370 
# 
# From -- ./inp_files/222942.got.cif
#   From: 2010.05.17/outbox.cif.g08.bks.cpg/sg15_112_cif.got.tgz:222942.got - 2010.06.03 18:47:42.
