data_PCOD9265494
_publ_section_title
;
Structure prediction by ZEFSAII (Michael W. Deem and Ramdas Pophale) SiO2 
 PCOD9265494
Probable space group: C 2/C
;
_chemical_formula_sum "Si O2"
_cell_formula_units_Z 48
_cell_length_a 11.392592
_cell_length_b 21.629867
_cell_length_c 8.688972
_cell_angle_alpha 90.000000
_cell_angle_beta 92.348474
_cell_angle_gamma 90.000000
_cell_volume 2139.340275
_symmetry_space_group_name_H-M "C 2/C"
_symmetry_group_IT_number 15
_symmetry_cell_setting 'monoclinic'
loop_
_space_group_symop_operation_xyz
x,y,z
-x,y,1/2-z
-x,-y,-z
x,-y,1/2+z
1/2+x,1/2+y,z
1/2-x,1/2+y,1/2-z
1/2-x,1/2-y,-z
1/2+x,1/2-y,1/2+z
loop_
_atom_site_type_symbol
_atom_site_label
_atom_site_fract_x
_atom_site_fract_y
_atom_site_fract_z
Si Si1 0.933963 0.718278 0.001313
Si Si2 0.053648 0.421828 0.011982
Si Si3 0.247326 0.774109 0.739503
Si Si4 0.843691 0.531989 0.311497
Si Si5 0.596389 0.682119 0.620628
Si Si6 0.121309 0.896693 0.852289
O O1 0.942560 0.649284 0.943754
O O2 0.871065 0.710732 0.163509
O O3 0.049222 0.759592 0.017380
O O4 0.847668 0.758700 0.894141
O O5 0.121142 0.441967 0.855663
O O6 0.920021 0.434292 0.949672
O O7 0.111228 0.462682 0.150541
O O8 0.277989 0.708858 0.821717
O O9 0.199601 0.835735 0.815174
O O10 0.706805 0.545631 0.328888
O O11 0.500000 0.675833 0.750000
O O12 0.595003 0.618706 0.527700
O O13 0.000000 0.898538 0.750000
#
# Coordination Sequence:
#
# PCOD9265494 Si02
#       6
#     8   8   8   8   8   8
#     4  10  19  36  61  90 123 163 203 258 316 372
#     4  10  21  42  65  89 122 159 227 263 315 360
#     4  10  20  34  59  91 122 165 203 251 318 377
#     4  10  23  40  66  91 118 172 211 275 308 365
#     4  10  22  36  59  95 132 168 204 253 328 385
#     4  12  22  40  60  95 136 163 212 256 324 401
#
# _framework density 22.436823
#
# number of rings (size 3 to 8) (size 9 to 14) (size 15 to 20)
#    0.000    1.667    3.333    1.500    4.667    1.333 
#    0.000    5.833    0.000    3.000    0.000    0.000 
#    0.000    0.000    0.000    0.000    0.000    0.000 
#
# Total GULP energy -133874.209304 kJ/mol
# GULP energy per Si atom -5578.092054 kJ/mol
# Density = 2.238576 g / cm^3
# Si number density = 22.436823 Si / 1000 Ang^3
#
#
#
# Elastic Constant Matrix: (Units=GPa)
#
#
# Indices 1 2 3 4 5 6 
#
# 1 87.4687 -5.6277 20.3584 0.0000 4.1558 0.0000
# 2 -5.6277 44.5927 -4.2184 0.0000 -9.9170 0.0000
# 3 20.3584 -4.2184 45.2381 0.0000 1.1897 0.0000
# 4 0.0000 0.0000 0.0000 6.6798 0.0000 -13.8023
# 5 4.1558 -9.9170 1.1897 0.0000 14.5156 0.0000
# 6 0.0000 0.0000 0.0000 -13.8023 0.0000 3.4210
#
#
#
# Elastic Compliance Matrix: (Units=1/GPa)
#
#
# Indices 1 2 3 4 5 6 
#
# 1 0.012927 0.000440 -0.005699 0.000000 -0.002933 0.000000
# 2 0.000440 0.026639 0.001815 0.000000 0.017925 0.000000
# 3 -0.005699 0.001815 0.024817 0.000000 0.000837 0.000000
# 4 0.000000 0.000000 0.000000 -0.020406 0.000000 -0.082327
# 5 -0.002933 0.017925 0.000837 0.000000 0.081909 0.000000
# 6 0.000000 0.000000 0.000000 -0.082327 0.000000 -0.039843
#
#
# Mechanical properties :
#
#
# Convention : Reuss Voigt Hill
#
# Bulk Modulus (GPa) = 17.39332 22.03603 19.71467
# Shear Modulus (GPa) = 44.60435 16.04243 30.32339
#
# Velocity S-wave (km/s) = 4.46353 2.67686 3.68026
# Velocity P-wave (km/s) = 5.85945 4.40418 5.18314
#
# Compressibility (1/GPa) = 0.05749334
#
# Stress axis : x y z
#
# Youngs Moduli (GPa) = 77.35850 37.53938 40.29456
#
# Poissons Ratio (x) = -0.01652 0.22965
# Poissons Ratio (y) = -0.03403 -0.07312
# Poissons Ratio (z) = 0.44089 -0.06812
#
# Static dielectric constant tensor:
#      x y z
#    x 1.854490 0.000000 -0.075840 
#    y 0.000000 1.825590 0.000000 
#    z -0.075840 0.000000 1.905090 
# 
# From -- ./inp_files/32139.got.cif
#   From: 2010.05.17/outbox.cif.g08.bks.cpg/sg15_17_cif.got.tgz:32139.got - 2010.06.03 18:47:42.
