data_PCOD9265211
_publ_section_title
;
Structure prediction by ZEFSAII (Michael W. Deem and Ramdas Pophale) SiO2 
 PCOD9265211
Probable space group: C 2/C
;
_chemical_formula_sum "Si O2"
_cell_formula_units_Z 52
_cell_length_a 10.955587
_cell_length_b 8.150817
_cell_length_c 26.904175
_cell_angle_alpha 90.000000
_cell_angle_beta 67.875013
_cell_angle_gamma 90.000000
_cell_volume 2225.555163
_symmetry_space_group_name_H-M "C 2/C"
_symmetry_group_IT_number 15
_symmetry_cell_setting 'monoclinic'
loop_
_space_group_symop_operation_xyz
x,y,z
-x,y,1/2-z
-x,-y,-z
x,-y,1/2+z
1/2+x,1/2+y,z
1/2-x,1/2+y,1/2-z
1/2-x,1/2-y,-z
1/2+x,1/2-y,1/2+z
loop_
_atom_site_type_symbol
_atom_site_label
_atom_site_fract_x
_atom_site_fract_y
_atom_site_fract_z
Si Si1 0.138836 0.735105 0.473395
Si Si2 0.349527 0.353349 0.792198
Si Si3 0.654536 0.121217 0.957285
Si Si4 0.000000 0.425924 0.750000
Si Si5 0.975345 0.353003 0.348595
Si Si6 0.774520 0.446318 0.938599
Si Si7 0.253392 0.788671 0.207357
O O1 0.250000 0.750000 0.500000
O O2 0.157648 0.567388 0.438047
O O3 0.992143 0.700093 0.517017
O O4 0.160012 0.916520 0.446737
O O5 0.500000 0.376072 0.750000
O O6 0.365781 0.265951 0.842289
O O7 0.275421 0.240977 0.763216
O O8 0.283522 0.528467 0.801858
O O9 0.744123 0.266081 0.921339
O O10 0.703758 0.088811 0.006375
O O11 0.978922 0.536315 0.704882
O O12 0.128131 0.322991 0.716336
O O13 0.907240 0.469773 0.398275
O O14 0.106982 0.252309 0.340762
#
# Coordination Sequence:
#
# PCOD9265211 Si02
#       7
#     8   8   8   4   8   8   8
#     4   9  18  37  63  88 122 157 195 243 299 366
#     4  10  19  36  59  79 110 151 196 243 301 349
#     4   9  19  39  65  85 120 165 197 241 309 366
#     4  12  22  40  62  84 122 164 204 248 306 362
#     4  11  23  40  58  89 124 153 206 259 298 364
#     4  10  21  38  61  89 121 157 200 252 303 360
#     4  11  20  38  64  81 114 163 198 248 306 355
#
# _framework density 23.364955999999999
#
# number of rings (size 3 to 8) (size 9 to 14) (size 15 to 20)
#    0.000    1.846    4.615    0.462    0.000    1.231 
#   11.077    0.000    0.000    0.000    0.000    0.000 
#    0.000    0.000    0.000    0.000    0.000    0.000 
#
# Total GULP energy -145009.077897 kJ/mol
# GULP energy per Si atom -5577.272227 kJ/mol
# Density = 2.331178 g / cm^3
# Si number density = 23.364956 Si / 1000 Ang^3
#
#
#
# Elastic Constant Matrix: (Units=GPa)
#
#
# Indices 1 2 3 4 5 6 
#
# 1 91.2331 34.3196 -1.8766 0.0000 -3.1198 0.0000
# 2 34.3196 128.8457 13.2655 0.0000 -2.3626 0.0000
# 3 -1.8766 13.2655 41.5968 0.0000 -8.5791 0.0000
# 4 0.0000 0.0000 0.0000 18.5566 0.0000 4.6426
# 5 -3.1198 -2.3626 -8.5791 0.0000 32.1089 0.0000
# 6 0.0000 0.0000 0.0000 4.6426 0.0000 20.1238
#
#
#
# Elastic Compliance Matrix: (Units=1/GPa)
#
#
# Indices 1 2 3 4 5 6 
#
# 1 0.012356 -0.003467 0.001966 0.000000 0.001471 0.000000
# 2 -0.003467 0.008998 -0.003131 0.000000 -0.000511 0.000000
# 3 0.001966 -0.003131 0.026584 0.000000 0.007064 0.000000
# 4 0.000000 0.000000 0.000000 0.057190 0.000000 -0.013194
# 5 0.001471 -0.000511 0.007064 0.000000 0.033137 0.000000
# 6 0.000000 0.000000 0.000000 -0.013194 0.000000 0.052736
#
#
# Mechanical properties :
#
#
# Convention : Reuss Voigt Hill
#
# Bulk Modulus (GPa) = 25.85675 39.23252 32.54464
# Shear Modulus (GPa) = 23.45704 28.55565 26.00635
#
# Velocity S-wave (km/s) = 3.17194 3.49973 3.33986
# Velocity P-wave (km/s) = 4.95030 5.75834 5.36954
#
# Compressibility (1/GPa) = 0.03867462
#
# Stress axis : x y z
#
# Youngs Moduli (GPa) = 80.93430 111.14087 37.61599
#
# Poissons Ratio (x) = 0.38528 -0.07396
# Poissons Ratio (y) = 0.28056 0.11779
# Poissons Ratio (z) = -0.15914 0.34801
#
# Static dielectric constant tensor:
#      x y z
#    x 2.159600 0.000000 0.025390 
#    y 0.000000 1.944610 0.000000 
#    z 0.025390 0.000000 1.910280 
# 
# From -- ./inp_files/291096.got.cif
#   From: 2010.05.17/outbox.cif.g08.bks.cpg/sg15_146_cif.got.tgz:291096.got - 2010.06.03 18:47:42.
