data_PCOD9265517
_publ_section_title
;
Structure prediction by ZEFSAII (Michael W. Deem and Ramdas Pophale) SiO2 
 PCOD9265517
Probable space group: C 2/C
;
_chemical_formula_sum "Si O2"
_cell_formula_units_Z 56
_cell_length_a 27.490797
_cell_length_b 15.833564
_cell_length_c 9.480554
_cell_angle_alpha 90.000000
_cell_angle_beta 37.629419
_cell_angle_gamma 90.000000
_cell_volume 2519.546105
_symmetry_space_group_name_H-M "C 2/C"
_symmetry_group_IT_number 15
_symmetry_cell_setting 'monoclinic'
loop_
_space_group_symop_operation_xyz
x,y,z
-x,y,1/2-z
-x,-y,-z
x,-y,1/2+z
1/2+x,1/2+y,z
1/2-x,1/2+y,1/2-z
1/2-x,1/2-y,-z
1/2+x,1/2-y,1/2+z
loop_
_atom_site_type_symbol
_atom_site_label
_atom_site_fract_x
_atom_site_fract_y
_atom_site_fract_z
Si Si1 0.569012 0.067422 0.879535
Si Si2 0.324916 0.845895 0.150821
Si Si3 0.820733 0.575460 0.360808
Si Si4 0.538027 0.800949 0.021074
Si Si5 0.579731 0.302682 0.156012
Si Si6 0.910157 0.989211 0.454788
Si Si7 0.193398 0.956822 0.539646
O O1 0.598460 0.099144 0.967292
O O2 0.535981 0.149728 0.880419
O O3 0.644092 0.012701 0.658079
O O4 0.500000 0.000000 0.000000
O O5 0.251620 0.876065 0.414210
O O6 0.303721 0.871374 0.039483
O O7 0.351122 0.749325 0.081815
O O8 0.749215 0.540719 0.429323
O O9 0.890606 0.629192 0.121582
O O10 0.500000 0.765236 0.250000
O O11 0.569807 0.734356 0.835170
O O12 0.500000 0.284962 0.250000
O O13 0.589224 0.402193 0.134879
O O14 0.874312 0.964079 0.687401
O O15 0.000000 0.021908 0.250000
O O16 0.849385 0.047782 0.512190
#
# Coordination Sequence:
#
# PCOD9265517 Si02
#       7
#     8   8   8   8   8   8   8
#     4   9  18  26  50  86 129 174 202 231 288 371
#     4  10  19  36  61  92 132 168 206 257 311 381
#     4   9  20  32  56  91 131 162 204 255 308 368
#     4  10  20  32  55  91 137 172 203 239 304 380
#     4  10  21  42  61  93 132 172 208 248 310 384
#     4  11  25  45  72  89 117 160 217 275 319 370
#     4  11  22  43  66  95 121 159 217 268 319 369
#
# _framework density 22.226226
#
# number of rings (size 3 to 8) (size 9 to 14) (size 15 to 20)
#    0.000    2.000    2.857    0.429    6.000    0.571 
#    0.000    6.429    0.000    0.000    0.000    0.000 
#    0.000    0.000    0.000    0.000    0.000    0.000 
#
# Total GULP energy -156012.646243 kJ/mol
# GULP energy per Si atom -5571.880223 kJ/mol
# Density = 2.217564 g / cm^3
# Si number density = 22.226226 Si / 1000 Ang^3
#
#
#
# Elastic Constant Matrix: (Units=GPa)
#
#
# Indices 1 2 3 4 5 6 
#
# 1 78.3946 1.1524 16.7495 0.0000 -16.7214 0.0000
# 2 1.1524 30.6279 -4.2641 0.0000 -5.4360 0.0000
# 3 16.7495 -4.2641 89.3429 0.0000 -2.5330 0.0000
# 4 0.0000 0.0000 0.0000 17.0996 0.0000 1.4575
# 5 -16.7214 -5.4360 -2.5330 0.0000 34.0188 0.0000
# 6 0.0000 0.0000 0.0000 1.4575 0.0000 11.9791
#
#
#
# Elastic Compliance Matrix: (Units=1/GPa)
#
#
# Indices 1 2 3 4 5 6 
#
# 1 0.014823 0.000355 -0.002559 0.000000 0.007152 0.000000
# 2 0.000355 0.033890 0.001713 0.000000 0.005718 0.000000
# 3 -0.002559 0.001713 0.011751 0.000000 -0.000109 0.000000
# 4 0.000000 0.000000 0.000000 0.059094 0.000000 -0.007190
# 5 0.007152 0.005718 -0.000109 0.000000 0.033817 0.000000
# 6 0.000000 0.000000 0.000000 -0.007190 0.000000 0.084354
#
#
# Mechanical properties :
#
#
# Convention : Reuss Voigt Hill
#
# Bulk Modulus (GPa) = 16.81166 25.07122 20.94144
# Shear Modulus (GPa) = 19.33954 24.93466 22.13710
#
# Velocity S-wave (km/s) = 2.95298 3.35305 3.15935
# Velocity P-wave (km/s) = 4.38259 5.12787 4.76981
#
# Compressibility (1/GPa) = 0.05948253
#
# Stress axis : x y z
#
# Youngs Moduli (GPa) = 67.46213 29.50735 85.09711
#
# Poissons Ratio (x) = -0.01049 0.21778
# Poissons Ratio (y) = -0.02398 -0.14577
# Poissons Ratio (z) = 0.17265 -0.05054
#
# Static dielectric constant tensor:
#      x y z
#    x 1.850890 0.000000 -0.022020 
#    y 0.000000 1.825600 0.000000 
#    z -0.022020 0.000000 1.866200 
# 
# From -- ./inp_files/67146.got.cif
#   From: 2010.05.17/outbox.cif.g08.bks.cpg/sg15_34_cif.got.tgz:67146.got - 2010.06.03 18:47:42.
