data_PCOD9265227
_publ_section_title
;
Structure prediction by ZEFSAII (Michael W. Deem and Ramdas Pophale) SiO2 
 PCOD9265227
Probable space group: C 2/C
;
_chemical_formula_sum "Si O2"
_cell_formula_units_Z 64
_cell_length_a 8.126727
_cell_length_b 14.867234
_cell_length_c 25.448751
_cell_angle_alpha 90.000000
_cell_angle_beta 88.638393
_cell_angle_gamma 90.000000
_cell_volume 3073.899570
_symmetry_space_group_name_H-M "C 2/C"
_symmetry_group_IT_number 15
_symmetry_cell_setting 'monoclinic'
loop_
_space_group_symop_operation_xyz
x,y,z
-x,y,1/2-z
-x,-y,-z
x,-y,1/2+z
1/2+x,1/2+y,z
1/2-x,1/2+y,1/2-z
1/2-x,1/2-y,-z
1/2+x,1/2-y,1/2+z
loop_
_atom_site_type_symbol
_atom_site_label
_atom_site_fract_x
_atom_site_fract_y
_atom_site_fract_z
Si Si1 0.089064 0.517695 0.443415
Si Si2 0.319063 0.438984 0.778429
Si Si3 0.322507 0.170490 0.129265
Si Si4 0.675956 0.165192 0.187236
Si Si5 0.638675 0.640573 0.703648
Si Si6 0.119852 0.083101 0.514213
Si Si7 0.749089 0.046259 0.095656
Si Si8 0.577663 0.355638 0.398365
O O1 0.158108 0.614959 0.425295
O O2 0.243783 0.451893 0.445426
O O3 0.000000 0.500000 0.500000
O O4 0.939249 0.510318 0.403906
O O5 0.500000 0.434791 0.750000
O O6 0.303709 0.382082 0.832273
O O7 0.192593 0.395222 0.738457
O O8 0.278758 0.543979 0.788408
O O9 0.495214 0.170904 0.161393
O O10 0.297738 0.274876 0.115410
O O11 0.735101 0.265243 0.202032
O O12 0.780326 0.113622 0.142578
O O13 0.500000 0.650317 0.750000
O O14 0.549338 0.638628 0.648358
O O15 0.211038 0.099873 0.458468
O O16 0.015249 0.158129 0.545195
O O17 0.000000 0.000000 0.500000
O O18 0.848272 0.954662 0.098956
#
# Coordination Sequence:
#
# PCOD9265227 Si02
#       8
#     8   8   8   8   8   8   8   8
#     4   9  18  35  55  80 115 149 186 236 285 327
#     4  11  22  37  58  83 111 145 187 238 283 332
#     4  10  21  38  59  82 113 154 191 232 287 342
#     4  10  20  37  58  82 113 148 185 228 284 341
#     4  10  20  35  57  81 106 144 185 224 275 339
#     4   9  18  34  57  82 111 151 191 227 276 335
#     4   9  18  34  58  85 114 147 187 241 283 324
#     4  10  19  36  59  83 111 150 192 228 278 342
#
# _framework density 20.820459
#
# number of rings (size 3 to 8) (size 9 to 14) (size 15 to 20)
#    0.000    2.250    0.000    4.125    0.000    1.000 
#    0.000   23.125    0.000    0.750    0.000    0.000 
#    0.000    0.000    0.000    0.000    0.000    0.000 
#
# Total GULP energy -178171.679929 kJ/mol
# GULP energy per Si atom -5567.864998 kJ/mol
# Density = 2.077307 g / cm^3
# Si number density = 20.820459 Si / 1000 Ang^3
#
#
#
# Elastic Constant Matrix: (Units=GPa)
#
#
# Indices 1 2 3 4 5 6 
#
# 1 40.3942 20.3934 8.6817 0.0000 -8.3070 0.0000
# 2 20.3934 159.8187 67.9303 0.0000 -18.8325 0.0000
# 3 8.6817 67.9303 106.8351 0.0000 -17.8026 0.0000
# 4 0.0000 0.0000 0.0000 -7.6657 0.0000 -9.0899
# 5 -8.3070 -18.8325 -17.8026 0.0000 24.4097 0.0000
# 6 0.0000 0.0000 0.0000 -9.0899 0.0000 16.2067
#
#
#
# Elastic Compliance Matrix: (Units=1/GPa)
#
#
# Indices 1 2 3 4 5 6 
#
# 1 0.027678 -0.003028 0.000975 0.000000 0.007794 0.000000
# 2 -0.003028 0.009104 -0.005172 0.000000 0.002221 0.000000
# 3 0.000975 -0.005172 0.013615 0.000000 0.006271 0.000000
# 4 0.000000 0.000000 0.000000 -0.078346 0.000000 -0.043942
# 5 0.007794 0.002221 0.006271 0.000000 0.049907 0.000000
# 6 0.000000 0.000000 0.000000 -0.043942 0.000000 0.037057
#
#
# Mechanical properties :
#
#
# Convention : Reuss Voigt Hill
#
# Bulk Modulus (GPa) = 27.81966 55.67319 41.74642
# Shear Modulus (GPa) = 58.51608 20.59300 39.55454
#
# Velocity S-wave (km/s) = 5.30717 3.14837 4.36339
# Velocity P-wave (km/s) = 7.13761 6.32566 6.74387
#
# Compressibility (1/GPa) = 0.03594580
#
# Stress axis : x y z
#
# Youngs Moduli (GPa) = 36.12981 109.84637 73.44983
#
# Poissons Ratio (x) = 0.33258 -0.07160
# Poissons Ratio (y) = 0.10939 0.37991
# Poissons Ratio (z) = -0.03522 0.56816
#
# Static dielectric constant tensor:
#      x y z
#    x 1.807930 0.000000 -0.035920 
#    y 0.000000 1.777010 0.000000 
#    z -0.035920 0.000000 1.781820 
# 
# From -- ./inp_files/264719.got.cif
#   From: 2010.05.17/outbox.cif.g08.bks.cpg/sg15_133_cif.got.tgz:264719.got - 2010.06.03 18:47:42.
