data_PCOD9265463
_publ_section_title
;
Structure prediction by ZEFSAII (Michael W. Deem and Ramdas Pophale) SiO2 
 PCOD9265463
Probable space group: C 2/C
;
_chemical_formula_sum "Si O2"
_cell_formula_units_Z 56
_cell_length_a 24.232758
_cell_length_b 8.900349
_cell_length_c 14.220511
_cell_angle_alpha 90.000000
_cell_angle_beta 47.717021
_cell_angle_gamma 90.000000
_cell_volume 2269.120748
_symmetry_space_group_name_H-M "C 2/C"
_symmetry_group_IT_number 15
_symmetry_cell_setting 'monoclinic'
loop_
_space_group_symop_operation_xyz
x,y,z
-x,y,1/2-z
-x,-y,-z
x,-y,1/2+z
1/2+x,1/2+y,z
1/2-x,1/2+y,1/2-z
1/2-x,1/2-y,-z
1/2+x,1/2-y,1/2+z
loop_
_atom_site_type_symbol
_atom_site_label
_atom_site_fract_x
_atom_site_fract_y
_atom_site_fract_z
Si Si1 0.157229 0.470581 0.035277
Si Si2 0.660285 0.361188 0.497376
Si Si3 0.775616 0.149619 0.774964
Si Si4 0.007990 0.836324 0.880585
Si Si5 0.445360 0.338937 0.156086
Si Si6 0.252834 0.889564 0.927340
Si Si7 0.496660 0.993711 0.618656
O O1 0.173503 0.296599 0.028184
O O2 0.219446 0.538651 0.892623
O O3 0.172318 0.532432 0.122710
O O4 0.077811 0.502021 0.077202
O O5 0.716103 0.372481 0.344562
O O6 0.576167 0.354427 0.559510
O O7 0.683696 0.504697 0.528408
O O8 0.860242 0.156094 0.717223
O O9 0.747040 0.316776 0.832150
O O10 0.033870 0.665897 0.822661
O O11 0.001556 0.838428 0.001448
O O12 0.044102 0.995759 0.809387
O O13 0.463799 0.174295 0.179530
O O14 0.250000 0.750000 0.000000
O O15 0.500000 0.000000 0.500000
#
# Coordination Sequence:
#
# PCOD9265463 Si02
#       7
#     8   8   8   8   8   8   8
#     4  10  21  38  58  87 124 165 204 256 322 369
#     4  10  19  36  61  87 118 158 207 260 298 370
#     4  10  21  37  57  93 119 152 214 261 308 363
#     4   8  17  31  54  84 110 151 203 245 308 364
#     4   9  17  33  54  81 119 150 196 260 304 352
#     4  10  22  37  58  87 124 160 200 247 323 382
#     4   9  18  34  58  83 117 161 208 246 304 378
#
# _framework density 24.679162000000002
#
# number of rings (size 3 to 8) (size 9 to 14) (size 15 to 20)
#    0.000    2.571    0.000    2.143    4.000    0.000 
#    7.714    0.714    0.000    0.000    0.000    0.000 
#    0.000    0.000    0.000    0.000    0.000    0.000 
#
# Total GULP energy -156071.955027 kJ/mol
# GULP energy per Si atom -5573.998394 kJ/mol
# Density = 2.462299 g / cm^3
# Si number density = 24.679162 Si / 1000 Ang^3
#
#
#
# Elastic Constant Matrix: (Units=GPa)
#
#
# Indices 1 2 3 4 5 6 
#
# 1 34.6561 36.0066 -3.5651 0.0000 -4.2077 0.0000
# 2 36.0066 241.1018 27.2240 -0.0001 -22.5456 0.0001
# 3 -3.5651 27.2240 76.0470 0.0000 -6.1341 0.0000
# 4 0.0000 -0.0001 0.0000 13.2326 0.0000 -0.3316
# 5 -4.2077 -22.5456 -6.1341 0.0000 28.8996 0.0000
# 6 0.0000 0.0001 0.0000 -0.3316 0.0000 44.1340
#
#
#
# Elastic Compliance Matrix: (Units=1/GPa)
#
#
# Indices 1 2 3 4 5 6 
#
# 1 0.035180 -0.005528 0.003758 0.000000 0.001607 0.000000
# 2 -0.005528 0.005482 -0.001975 0.000000 0.003052 0.000000
# 3 0.003758 -0.001975 0.014196 0.000000 0.002019 0.000000
# 4 0.000000 0.000000 0.000000 0.075585 0.000000 0.000568
# 5 0.001607 0.003052 0.002019 0.000000 0.037646 0.000000
# 6 0.000000 0.000000 0.000000 0.000568 0.000000 0.022663
#
#
# Mechanical properties :
#
#
# Convention : Reuss Voigt Hill
#
# Bulk Modulus (GPa) = 21.11183 52.34841 36.73012
# Shear Modulus (GPa) = 23.36105 36.72918 30.04511
#
# Velocity S-wave (km/s) = 3.08001 3.86199 3.49295
# Velocity P-wave (km/s) = 4.60670 6.41438 5.58417
#
# Compressibility (1/GPa) = 0.04736680
#
# Stress axis : x y z
#
# Youngs Moduli (GPa) = 28.42529 182.42755 70.44262
#
# Poissons Ratio (x) = 1.00843 -0.26471
# Poissons Ratio (y) = 0.15713 0.13915
# Poissons Ratio (z) = -0.10682 0.36035
#
# Static dielectric constant tensor:
#      x y z
#    x 1.948850 0.000000 0.008700 
#    y 0.000000 2.042670 0.000000 
#    z 0.008700 0.000000 2.084760 
# 
# From -- ./inp_files/172273.got.cif
#   From: 2010.05.17/outbox.cif.g08.bks.cpg/sg15_87_cif.got.tgz:172273.got - 2010.06.03 18:47:42.
