data_PCOD9265873
_publ_section_title
;
Structure prediction by ZEFSAII (Michael W. Deem and Ramdas Pophale) SiO2 
 PCOD9265873
Probable space group: C 2/C
;
_chemical_formula_sum "Si O2"
_cell_formula_units_Z 44
_cell_length_a 13.540650
_cell_length_b 22.298972
_cell_length_c 13.036473
_cell_angle_alpha 90.000000
_cell_angle_beta 144.812751
_cell_angle_gamma 90.000000
_cell_volume 2268.275181
_symmetry_space_group_name_H-M "C 2/C"
_symmetry_group_IT_number 15
_symmetry_cell_setting 'monoclinic'
loop_
_space_group_symop_operation_xyz
x,y,z
-x,y,1/2-z
-x,-y,-z
x,-y,1/2+z
1/2+x,1/2+y,z
1/2-x,1/2+y,1/2-z
1/2-x,1/2-y,-z
1/2+x,1/2-y,1/2+z
loop_
_atom_site_type_symbol
_atom_site_label
_atom_site_fract_x
_atom_site_fract_y
_atom_site_fract_z
Si Si1 0.500000 0.046279 0.250000
Si Si2 0.558653 0.409112 0.574247
Si Si3 0.114335 0.203737 0.244955
Si Si4 0.548576 0.067850 0.064378
Si Si5 0.878079 0.006233 0.549549
Si Si6 0.498608 0.834295 0.130368
O O1 0.509481 0.081624 0.150477
O O2 0.677177 0.009393 0.404007
O O3 0.545391 0.340049 0.596618
O O4 0.746819 0.427657 0.776435
O O5 0.418166 0.449980 0.510599
O O6 0.568976 0.432827 0.466581
O O7 0.306146 0.185778 0.437768
O O8 0.000000 0.195294 0.250000
O O9 0.108536 0.273854 0.213378
O O10 0.455982 0.112943 0.908812
O O11 0.500000 0.000000 0.000000
O O12 0.000000 0.999973 0.750000
O O13 0.500000 0.853706 0.250000
#
# Coordination Sequence:
#
# PCOD9265873 Si02
#       6
#     4   8   8   8   8   8
#     4  10  22  38  56  86 126 148 198 248 288 362
#     4   9  20  36  57  80 121 152 189 247 297 348
#     4  10  19  37  57  83 117 150 189 246 295 348
#     4  10  21  37  58  87 118 158 195 247 298 352
#     4  10  19  37  56  84 118 156 193 242 298 351
#     4  10  21  38  58  87 116 152 196 243 299 352
#
# _framework density 19.398
#
# number of rings (size 3 to 8) (size 9 to 14) (size 15 to 20)
#    0.000    2.182    0.000    3.818    1.273    1.455 
#   26.182    0.000    2.000    3.273    0.000    0.000 
#    0.000    0.000    0.000    0.000    0.000    0.000 
#
# Total GULP energy -122835.494311 kJ/mol
# GULP energy per Si atom -5583.431560 kJ/mol
# Density = 1.935385 g / cm^3
# Si number density = 19.398000 Si / 1000 Ang^3
#
#
#
# Elastic Constant Matrix: (Units=GPa)
#
#
# Indices 1 2 3 4 5 6 
#
# 1 87.8294 50.6307 44.9260 0.0000 -1.6358 0.0000
# 2 50.6307 100.1693 22.8991 0.0000 -18.2776 0.0000
# 3 44.9260 22.8991 67.8636 0.0000 -2.5805 0.0000
# 4 0.0000 0.0000 0.0000 26.7642 0.0000 -2.6525
# 5 -1.6358 -18.2776 -2.5805 0.0000 34.6483 0.0000
# 6 0.0000 0.0000 0.0000 -2.6525 0.0000 15.1111
#
#
#
# Elastic Compliance Matrix: (Units=1/GPa)
#
#
# Indices 1 2 3 4 5 6 
#
# 1 0.023245 -0.009864 -0.012251 0.000000 -0.005019 0.000000
# 2 -0.009864 0.016137 0.001395 0.000000 0.008151 0.000000
# 3 -0.012251 0.001395 0.022444 0.000000 0.001829 0.000000
# 4 0.000000 0.000000 0.000000 0.038025 0.000000 0.006675
# 5 -0.005019 0.008151 0.001829 0.000000 0.033061 0.000000
# 6 0.000000 0.000000 0.000000 0.006675 0.000000 0.067348
#
#
# Mechanical properties :
#
#
# Convention : Reuss Voigt Hill
#
# Bulk Modulus (GPa) = 49.05167 54.75264 51.90216
# Shear Modulus (GPa) = 20.12104 24.46518 22.29311
#
# Velocity S-wave (km/s) = 3.22417 3.55522 3.39373
# Velocity P-wave (km/s) = 6.26117 6.71863 6.49393
#
# Compressibility (1/GPa) = 0.02038667
#
# Stress axis : x y z
#
# Youngs Moduli (GPa) = 43.01964 61.96749 44.55481
#
# Poissons Ratio (x) = 0.61128 0.54583
# Poissons Ratio (y) = 0.42437 -0.06216
# Poissons Ratio (z) = 0.52702 -0.08645
#
# Static dielectric constant tensor:
#      x y z
#    x 1.697960 0.000000 -0.004620 
#    y 0.000000 1.692950 0.000000 
#    z -0.004620 0.000000 1.707880 
# 
# From -- ./inp_files/91391.got.cif
#   From: 2010.05.17/outbox.cif.g08.bks.cpg/sg15_46_cif.got.tgz:91391.got - 2010.06.03 18:47:42.
