data_PCOD9265394
_publ_section_title
;
Structure prediction by ZEFSAII (Michael W. Deem and Ramdas Pophale) SiO2 
 PCOD9265394
Probable space group: C 2/C
;
_chemical_formula_sum "Si O2"
_cell_formula_units_Z 56
_cell_length_a 12.177948
_cell_length_b 7.799780
_cell_length_c 27.657340
_cell_angle_alpha 90.000000
_cell_angle_beta 67.160896
_cell_angle_gamma 90.000000
_cell_volume 2421.077086
_symmetry_space_group_name_H-M "C 2/C"
_symmetry_group_IT_number 15
_symmetry_cell_setting 'monoclinic'
loop_
_space_group_symop_operation_xyz
x,y,z
-x,y,1/2-z
-x,-y,-z
x,-y,1/2+z
1/2+x,1/2+y,z
1/2-x,1/2+y,1/2-z
1/2-x,1/2-y,-z
1/2+x,1/2-y,1/2+z
loop_
_atom_site_type_symbol
_atom_site_label
_atom_site_fract_x
_atom_site_fract_y
_atom_site_fract_z
Si Si1 0.346860 0.828169 0.654438
Si Si2 0.957041 0.621052 0.463085
Si Si3 0.899042 0.691814 0.918984
Si Si4 0.873517 0.187228 0.058300
Si Si5 0.530063 0.269280 0.192989
Si Si6 0.294965 0.026093 0.852077
Si Si7 0.808430 0.015612 0.890889
O O1 0.443470 0.837916 0.593906
O O2 0.421782 0.842847 0.690182
O O3 0.272629 0.652794 0.671617
O O4 0.251467 0.961985 0.649936
O O5 0.868596 0.486059 0.451992
O O6 0.920552 0.798154 0.495383
O O7 0.000000 0.500000 0.500000
O O8 0.897383 0.628874 0.863745
O O9 0.020714 0.757671 0.922824
O O10 0.814761 0.857295 0.927046
O O11 0.772440 0.334508 0.074564
O O12 0.807830 0.024574 0.091555
O O13 0.500000 0.343858 0.250000
O O14 0.564290 0.407799 0.146122
O O15 0.644132 0.144021 0.178001
#
# Coordination Sequence:
#
# PCOD9265394 Si02
#       7
#     8   8   8   8   8   8   8
#     4  11  21  42  59  88 128 151 203 251 296 368
#     4  10  19  36  60  88 128 168 194 249 288 350
#     4  10  19  37  56  84 121 158 196 240 292 346
#     4  10  20  37  53  88 126 158 202 237 285 351
#     4  11  24  43  63  88 116 150 205 259 312 365
#     4  10  22  38  62  87 117 164 192 246 308 351
#     4  10  21  38  63  83 117 164 194 245 308 355
#
# _framework density 23.130201
#
# number of rings (size 3 to 8) (size 9 to 14) (size 15 to 20)
#    0.000    1.714    4.286    0.857    0.000    2.857 
#    2.571    2.857    0.000    0.000    0.000    0.000 
#    0.000    0.000    0.000    0.000    0.000    0.000 
#
# Total GULP energy -155982.349724 kJ/mol
# GULP energy per Si atom -5570.798204 kJ/mol
# Density = 2.307756 g / cm^3
# Si number density = 23.130201 Si / 1000 Ang^3
#
#
#
# Elastic Constant Matrix: (Units=GPa)
#
#
# Indices 1 2 3 4 5 6 
#
# 1 77.4094 5.7245 19.8487 0.0000 14.2208 0.0000
# 2 5.7245 51.3516 -9.6363 0.0000 -2.2396 0.0000
# 3 19.8487 -9.6363 41.6780 0.0000 2.4007 0.0000
# 4 0.0000 0.0000 0.0000 12.1192 0.0000 1.7600
# 5 14.2208 -2.2396 2.4007 0.0000 11.0023 0.0000
# 6 0.0000 0.0000 0.0000 1.7600 0.0000 37.5491
#
#
#
# Elastic Compliance Matrix: (Units=1/GPa)
#
#
# Indices 1 2 3 4 5 6 
#
# 1 0.020368 -0.005144 -0.009431 0.000000 -0.025315 0.000000
# 2 -0.005144 0.021765 0.006931 0.000000 0.009567 0.000000
# 3 -0.009431 0.006931 0.029677 0.000000 0.007125 0.000000
# 4 0.000000 0.000000 0.000000 0.083079 0.000000 -0.003894
# 5 -0.025315 0.009567 0.007125 0.000000 0.124004 0.000000
# 6 0.000000 0.000000 0.000000 -0.003894 0.000000 0.026814
#
#
# Mechanical properties :
#
#
# Convention : Reuss Voigt Hill
#
# Bulk Modulus (GPa) = 17.69257 22.47921 20.08589
# Shear Modulus (GPa) = 14.71301 22.43425 18.57363
#
# Velocity S-wave (km/s) = 2.52483 3.11772 2.83681
# Velocity P-wave (km/s) = 4.02062 4.76444 4.40825
#
# Compressibility (1/GPa) = 0.05652089
#
# Stress axis : x y z
#
# Youngs Moduli (GPa) = 49.09770 45.94548 33.69610
#
# Poissons Ratio (x) = 0.23636 0.31779
# Poissons Ratio (y) = 0.25257 -0.23355
# Poissons Ratio (z) = 0.46304 -0.31845
#
# Static dielectric constant tensor:
#      x y z
#    x 1.926670 0.000000 -0.019500 
#    y 0.000000 1.922710 0.000000 
#    z -0.019500 0.000000 1.885190 
# 
# From -- ./inp_files/291490.got.cif
#   From: 2010.05.17/outbox.cif.g08.bks.cpg/sg15_146_cif.got.tgz:291490.got - 2010.06.03 18:47:42.
