data_PCOD9265212
_publ_section_title
;
Structure prediction by ZEFSAII (Michael W. Deem and Ramdas Pophale) SiO2 
 PCOD9265212
Probable space group: C 2/C
;
_chemical_formula_sum "Si O2"
_cell_formula_units_Z 56
_cell_length_a 7.361038
_cell_length_b 17.849621
_cell_length_c 21.695656
_cell_angle_alpha 90.000000
_cell_angle_beta 86.004902
_cell_angle_gamma 90.000000
_cell_volume 2843.702970
_symmetry_space_group_name_H-M "C 2/C"
_symmetry_group_IT_number 15
_symmetry_cell_setting 'monoclinic'
loop_
_space_group_symop_operation_xyz
x,y,z
-x,y,1/2-z
-x,-y,-z
x,-y,1/2+z
1/2+x,1/2+y,z
1/2-x,1/2+y,1/2-z
1/2-x,1/2-y,-z
1/2+x,1/2-y,1/2+z
loop_
_atom_site_type_symbol
_atom_site_label
_atom_site_fract_x
_atom_site_fract_y
_atom_site_fract_z
Si Si1 0.094434 0.817171 0.931099
Si Si2 0.101680 0.197242 0.573012
Si Si3 0.122033 0.893035 0.188773
Si Si4 0.191785 0.259586 0.252128
Si Si5 0.344819 0.400476 0.682642
Si Si6 0.304076 0.810494 0.621555
Si Si7 0.261359 0.044636 0.192315
O O1 0.204251 0.738842 0.919114
O O2 0.187925 0.882992 0.888005
O O3 0.886195 0.812783 0.911383
O O4 0.100515 0.832252 0.003455
O O5 0.052402 0.131606 0.622928
O O6 0.957611 0.265527 0.581674
O O7 0.183903 0.813311 0.212685
O O8 0.000000 0.920700 0.250000
O O9 0.273886 0.957357 0.176907
O O10 0.153468 0.183205 0.289266
O O11 0.269661 0.237049 0.184601
O O12 0.000000 0.300221 0.250000
O O13 0.215267 0.442472 0.734482
O O14 0.546575 0.435295 0.684004
O O15 0.356725 0.892871 0.647323
#
# Coordination Sequence:
#
# PCOD9265212 Si02
#       7
#     8   8   8   8   8   8   8
#     4  10  20  36  56  81 117 147 191 231 274 333
#     4  11  22  34  57  89 110 146 192 238 272 327
#     4  12  21  33  54  88 115 134 183 251 284 322
#     4  11  17  32  57  78 105 145 185 231 280 324
#     4   9  14  32  55  73  98 155 176 207 279 336
#     4  10  19  36  59  80 107 153 193 221 275 349
#     4   9  18  33  57  78 113 145 178 233 292 325
#
# _framework density 19.692634000000002
#
# number of rings (size 3 to 8) (size 9 to 14) (size 15 to 20)
#    0.000    1.714    8.571    0.429    0.000    0.000 
#    0.000    4.286    0.000    3.429    0.000    0.000 
#    0.000    0.000    0.000    0.000    0.000    0.000 
#
# Total GULP energy -155872.035964 kJ/mol
# GULP energy per Si atom -5566.858427 kJ/mol
# Density = 1.964781 g / cm^3
# Si number density = 19.692634 Si / 1000 Ang^3
#
#
#
# Elastic Constant Matrix: (Units=GPa)
#
#
# Indices 1 2 3 4 5 6 
#
# 1 35.2470 6.8347 18.2248 0.0000 -4.4194 0.0000
# 2 6.8347 74.2181 30.7298 0.0000 5.4136 0.0000
# 3 18.2248 30.7298 133.3201 0.0000 11.3445 0.0000
# 4 0.0000 0.0000 0.0000 11.4601 0.0000 0.7711
# 5 -4.4194 5.4136 11.3445 0.0000 19.7532 0.0000
# 6 0.0000 0.0000 0.0000 0.7711 0.0000 15.4635
#
#
#
# Elastic Compliance Matrix: (Units=1/GPa)
#
#
# Indices 1 2 3 4 5 6 
#
# 1 0.032603 -0.001722 -0.004963 0.000000 0.010617 0.000000
# 2 -0.001722 0.015079 -0.003003 0.000000 -0.002793 0.000000
# 3 -0.004963 -0.003003 0.009353 0.000000 -0.005659 0.000000
# 4 0.000000 0.000000 0.000000 0.087553 0.000000 -0.004366
# 5 0.010617 -0.002793 -0.005659 0.000000 0.057016 0.000000
# 6 0.000000 0.000000 0.000000 -0.004366 0.000000 0.064886
#
#
# Mechanical properties :
#
#
# Convention : Reuss Voigt Hill
#
# Bulk Modulus (GPa) = 26.55378 39.37374 32.96376
# Shear Modulus (GPa) = 16.75501 21.80175 19.27838
#
# Velocity S-wave (km/s) = 2.92006 3.33092 3.13223
# Velocity P-wave (km/s) = 4.98822 5.90178 5.46413
#
# Compressibility (1/GPa) = 0.03765943
#
# Stress axis : x y z
#
# Youngs Moduli (GPa) = 30.67247 66.31580 106.91913
#
# Poissons Ratio (x) = 0.11418 0.53067
# Poissons Ratio (y) = 0.05281 0.32104
# Poissons Ratio (z) = 0.15224 0.19913
#
# Static dielectric constant tensor:
#      x y z
#    x 1.774240 0.000000 -0.026770 
#    y 0.000000 1.698530 0.000000 
#    z -0.026770 0.000000 1.751660 
# 
# From -- ./inp_files/232127.got.cif
#   From: 2010.05.17/outbox.cif.g08.bks.cpg/sg15_117_cif.got.tgz:232127.got - 2010.06.03 18:47:42.
