data_PCOD9265230
_publ_section_title
;
Structure prediction by ZEFSAII (Michael W. Deem and Ramdas Pophale) SiO2 
 PCOD9265230
Probable space group: C 2/C
;
_chemical_formula_sum "Si O2"
_cell_formula_units_Z 36
_cell_length_a 8.002790
_cell_length_b 19.363260
_cell_length_c 12.179849
_cell_angle_alpha 90.000000
_cell_angle_beta 55.849834
_cell_angle_gamma 90.000000
_cell_volume 1561.946273
_symmetry_space_group_name_H-M "C 2/C"
_symmetry_group_IT_number 15
_symmetry_cell_setting 'monoclinic'
loop_
_space_group_symop_operation_xyz
x,y,z
-x,y,1/2-z
-x,-y,-z
x,-y,1/2+z
1/2+x,1/2+y,z
1/2-x,1/2+y,1/2-z
1/2-x,1/2-y,-z
1/2+x,1/2-y,1/2+z
loop_
_atom_site_type_symbol
_atom_site_label
_atom_site_fract_x
_atom_site_fract_y
_atom_site_fract_z
Si Si1 0.329749 0.514768 0.474031
Si Si2 0.500000 0.079279 0.750000
Si Si3 0.860457 0.138046 0.904292
Si Si4 0.042676 0.695195 0.888252
Si Si5 0.933351 0.839016 0.933809
O O1 0.500000 0.500000 0.500000
O O2 0.308438 0.444092 0.415634
O O3 0.411091 0.585116 0.389634
O O4 0.131027 0.534123 0.618142
O O5 0.622328 0.134383 0.779179
O O6 0.654474 0.180898 0.961473
O O7 0.000000 0.158398 0.750000
O O8 0.969977 0.151110 0.979984
O O9 0.063367 0.774267 0.841779
O O10 0.802677 0.682333 0.979752
#
# Coordination Sequence:
#
# PCOD9265230 Si02
#       5
#     8   4   8   8   8
#     4   9  19  37  59  84 122 154 198 250 300 355
#     4  10  20  36  62  84 118 164 190 248 304 354
#     4  11  21  36  63  89 120 162 201 246 306 363
#     4  10  19  36  59  83 115 156 202 241 302 359
#     4   9  20  36  57  82 118 154 196 253 293 352
#
# _framework density 23.048166999999999
#
# number of rings (size 3 to 8) (size 9 to 14) (size 15 to 20)
#    0.000    2.222    0.000    4.667    0.000    3.556 
#    2.000    0.000   46.444    0.000    0.000    0.000 
#    0.000    0.000    0.000    0.000    0.000    0.000 
#
# Total GULP energy -100220.148127 kJ/mol
# GULP energy per Si atom -5567.786007 kJ/mol
# Density = 2.299571 g / cm^3
# Si number density = 23.048167 Si / 1000 Ang^3
#
#
#
# Elastic Constant Matrix: (Units=GPa)
#
#
# Indices 1 2 3 4 5 6 
#
# 1 133.7091 31.2506 28.5020 0.0000 14.1126 0.0000
# 2 31.2506 134.2814 9.3356 0.0000 -1.1433 0.0000
# 3 28.5020 9.3356 78.6604 0.0000 9.3943 0.0000
# 4 0.0000 0.0000 0.0000 6.9898 0.0000 0.3547
# 5 14.1126 -1.1433 9.3943 0.0000 12.0303 0.0000
# 6 0.0000 0.0000 0.0000 0.3547 0.0000 22.6775
#
#
#
# Elastic Compliance Matrix: (Units=1/GPa)
#
#
# Indices 1 2 3 4 5 6 
#
# 1 0.009430 -0.002138 -0.002005 0.000000 -0.009700 0.000000
# 2 -0.002138 0.008020 -0.000626 0.000000 0.003759 0.000000
# 3 -0.002005 -0.000626 0.014602 0.000000 -0.009110 0.000000
# 4 0.000000 0.000000 0.000000 0.143179 0.000000 -0.002239
# 5 -0.009700 0.003759 -0.009110 0.000000 0.101973 0.000000
# 6 0.000000 0.000000 0.000000 -0.002239 0.000000 0.044132
#
#
# Mechanical properties :
#
#
# Convention : Reuss Voigt Hill
#
# Bulk Modulus (GPa) = 44.41642 53.86970 49.14306
# Shear Modulus (GPa) = 14.77641 26.84370 20.81005
#
# Velocity S-wave (km/s) = 2.53476 3.41644 3.00808
# Velocity P-wave (km/s) = 5.28012 6.24389 5.78212
#
# Compressibility (1/GPa) = 0.02251419
#
# Stress axis : x y z
#
# Youngs Moduli (GPa) = 106.04869 124.68695 68.48584
#
# Poissons Ratio (x) = 0.26655 0.13729
# Poissons Ratio (y) = 0.22670 0.04288
# Poissons Ratio (z) = 0.21259 0.07808
#
# Static dielectric constant tensor:
#      x y z
#    x 2.071850 0.000000 -0.104040 
#    y 0.000000 1.990190 0.000000 
#    z -0.104040 0.000000 2.000180 
# 
# From -- ./inp_files/76606.got.cif
#   From: 2010.05.17/outbox.cif.g08.bks.cpg/sg15_39_cif.got.tgz:76606.got - 2010.06.03 18:47:42.
