data_PCOD9265266
_publ_section_title
;
Structure prediction by ZEFSAII (Michael W. Deem and Ramdas Pophale) SiO2 
 PCOD9265266
Probable space group: C 2/C
;
_chemical_formula_sum "Si O2"
_cell_formula_units_Z 48
_cell_length_a 11.501555
_cell_length_b 18.194179
_cell_length_c 15.231169
_cell_angle_alpha 90.000000
_cell_angle_beta 139.920072
_cell_angle_gamma 90.000000
_cell_volume 2052.157798
_symmetry_space_group_name_H-M "C 2/C"
_symmetry_group_IT_number 15
_symmetry_cell_setting 'monoclinic'
loop_
_space_group_symop_operation_xyz
x,y,z
-x,y,1/2-z
-x,-y,-z
x,-y,1/2+z
1/2+x,1/2+y,z
1/2-x,1/2+y,1/2-z
1/2-x,1/2-y,-z
1/2+x,1/2-y,1/2+z
loop_
_atom_site_type_symbol
_atom_site_label
_atom_site_fract_x
_atom_site_fract_y
_atom_site_fract_z
Si Si1 0.287634 0.384156 0.122565
Si Si2 0.437794 0.837795 0.339455
Si Si3 0.302617 0.757702 0.896782
Si Si4 0.500000 0.057900 0.250000
Si Si5 0.724209 0.032283 0.994929
Si Si6 0.000000 0.121978 0.250000
Si Si7 0.473009 0.196518 0.138719
O O1 0.500000 0.390981 0.250000
O O2 0.196822 0.353931 0.157880
O O3 0.214205 0.466134 0.059744
O O4 0.224626 0.328847 0.007849
O O5 0.566417 0.769535 0.444623
O O6 0.318668 0.814580 0.186777
O O7 0.566269 0.907802 0.409615
O O8 0.426408 0.764516 0.881943
O O9 0.164675 0.826054 0.816377
O O10 0.327443 0.009964 0.124077
O O11 0.556949 0.114900 0.206335
O O12 0.913742 0.072018 0.123083
O O13 0.500000 0.231744 0.250000
#
# Coordination Sequence:
#
# PCOD9265266 Si02
#       7
#     8   8   8   4   8   4   8
#     4  10  19  36  59  87 111 145 194 235 286 340
#     4  10  23  37  58  82 116 154 189 234 282 338
#     4  10  22  40  55  83 115 154 193 227 285 334
#     4   8  18  35  58  81 110 148 182 232 292 332
#     4  10  19  37  58  84 112 148 189 239 286 333
#     4  10  22  37  60  81 116 152 192 240 274 336
#     4   8  18  37  58  80 116 151 178 237 287 334
#
# _framework density 23.390013
#
# number of rings (size 3 to 8) (size 9 to 14) (size 15 to 20)
#    0.500    2.000    0.833    0.500    0.000    8.000 
#    0.000    4.167    0.000    0.000    0.000    0.000 
#    0.000    0.000    0.000    0.000    0.000    0.000 
#
# Total GULP energy -133945.085314 kJ/mol
# GULP energy per Si atom -5581.045221 kJ/mol
# Density = 2.333678 g / cm^3
# Si number density = 23.390013 Si / 1000 Ang^3
#
#
#
# Elastic Constant Matrix: (Units=GPa)
#
#
# Indices 1 2 3 4 5 6 
#
# 1 44.2479 -0.3479 17.8109 0.0000 3.3557 0.0000
# 2 -0.3479 96.0138 44.7114 -0.0001 -1.8053 0.0000
# 3 17.8109 44.7114 134.4909 -0.0002 -3.4342 0.0000
# 4 0.0000 -0.0001 -0.0002 45.5734 -0.0001 -7.1959
# 5 3.3557 -1.8053 -3.4342 -0.0001 28.1101 0.0000
# 6 0.0000 0.0000 0.0000 -7.1959 0.0000 11.6059
#
#
#
# Elastic Compliance Matrix: (Units=1/GPa)
#
#
# Indices 1 2 3 4 5 6 
#
# 1 0.024450 0.001862 -0.003941 0.000000 -0.003281 0.000000
# 2 0.001862 0.012467 -0.004390 0.000000 0.000042 0.000000
# 3 -0.003941 -0.004390 0.009451 0.000000 0.001343 0.000000
# 4 0.000000 0.000000 0.000000 0.024324 0.000000 0.015081
# 5 -0.003281 0.000042 0.001343 0.000000 0.036133 0.000000
# 6 0.000000 0.000000 0.000000 0.015081 0.000000 0.095514
#
#
# Mechanical properties :
#
#
# Convention : Reuss Voigt Hill
#
# Bulk Modulus (GPa) = 29.91321 44.34461 37.12891
# Shear Modulus (GPa) = 22.08291 31.22977 26.65634
#
# Velocity S-wave (km/s) = 3.07598 3.65797 3.37953
# Velocity P-wave (km/s) = 5.04303 6.06967 5.58001
#
# Compressibility (1/GPa) = 0.03343005
#
# Stress axis : x y z
#
# Youngs Moduli (GPa) = 40.90050 80.21101 105.80744
#
# Poissons Ratio (x) = -0.14935 0.41695
# Poissons Ratio (y) = -0.07616 0.46452
# Poissons Ratio (z) = 0.16118 0.35214
#
# Static dielectric constant tensor:
#      x y z
#    x 1.848620 0.000000 -0.027300 
#    y 0.000000 1.949420 0.000000 
#    z -0.027300 0.000000 1.922060 
# 
# From -- ./inp_files/244959.got.cif
#   From: 2010.05.17/outbox.cif.g08.bks.cpg/sg15_123_cif.got.tgz:244959.got - 2010.06.03 18:47:42.
