data_PCOD9265177
_publ_section_title
;
Structure prediction by ZEFSAII (Michael W. Deem and Ramdas Pophale) SiO2 
 PCOD9265177
Probable space group: C 2/C
;
_chemical_formula_sum "Si O2"
_cell_formula_units_Z 56
_cell_length_a 18.879898
_cell_length_b 8.294444
_cell_length_c 18.104978
_cell_angle_alpha 90.000000
_cell_angle_beta 49.892231
_cell_angle_gamma 90.000000
_cell_volume 2168.463623
_symmetry_space_group_name_H-M "C 2/C"
_symmetry_group_IT_number 15
_symmetry_cell_setting 'monoclinic'
loop_
_space_group_symop_operation_xyz
x,y,z
-x,y,1/2-z
-x,-y,-z
x,-y,1/2+z
1/2+x,1/2+y,z
1/2-x,1/2+y,1/2-z
1/2-x,1/2-y,-z
1/2+x,1/2-y,1/2+z
loop_
_atom_site_type_symbol
_atom_site_label
_atom_site_fract_x
_atom_site_fract_y
_atom_site_fract_z
Si Si1 0.390928 0.785918 0.727073
Si Si2 0.605042 0.497174 0.455776
Si Si3 0.177803 0.454995 0.864868
Si Si4 0.500000 0.964362 0.250000
Si Si5 0.000000 0.044730 0.750000
Si Si6 0.351396 0.704995 0.203714
Si Si7 0.208377 0.283849 0.447783
Si Si8 0.067065 0.792216 0.607299
O O1 0.454755 0.641765 0.713286
O O2 0.292932 0.752773 0.833497
O O3 0.381652 0.830361 0.646817
O O4 0.440206 0.933882 0.733771
O O5 0.500000 0.500000 0.500000
O O6 0.657808 0.551208 0.346629
O O7 0.628790 0.651908 0.489701
O O8 0.619655 0.341247 0.497578
O O9 0.271866 0.352160 0.811792
O O10 0.168824 0.620515 0.819850
O O11 0.164811 0.543607 0.952885
O O12 0.425852 0.864798 0.348093
O O13 0.077028 0.935547 0.659441
O O14 0.456801 0.710199 0.160262
O O15 0.250000 0.250000 0.500000
#
# Coordination Sequence:
#
# PCOD9265177 Si02
#       8
#     8   8   8   4   4   8   8   8
#     4  11  21  40  61  92 125 166 207 268 314 378
#     4   9  19  35  56  85 122 156 199 251 312 366
#     4  11  20  38  63  91 120 162 213 259 312 375
#     4  10  22  36  62  90 130 158 212 266 318 368
#     4  10  22  34  60  88 122 160 224 252 314 388
#     4  10  20  35  62  86 116 157 210 256 310 376
#     4  11  23  41  66  92 130 166 211 265 323 383
#     4  10  19  36  58  88 118 171 201 255 312 382
#
# _framework density 25.824735
#
# number of rings (size 3 to 8) (size 9 to 14) (size 15 to 20)
#    0.000    1.714    4.286    1.714    0.000    1.143 
#    0.000    2.143    3.143    3.429    0.000    0.000 
#    0.000    0.000    0.000    0.000    0.000    0.000 
#
# Total GULP energy -156166.936111 kJ/mol
# GULP energy per Si atom -5577.390575 kJ/mol
# Density = 2.576596 g / cm^3
# Si number density = 25.824735 Si / 1000 Ang^3
#
#
#
# Elastic Constant Matrix: (Units=GPa)
#
#
# Indices 1 2 3 4 5 6 
#
# 1 141.8181 23.4965 14.1939 -0.0001 26.3903 0.0000
# 2 23.4965 77.1962 18.4519 -0.0003 7.2843 0.0001
# 3 14.1939 18.4519 83.0035 -0.0001 19.6682 0.0001
# 4 -0.0001 -0.0003 -0.0001 25.9218 0.0000 -12.9146
# 5 26.3903 7.2843 19.6682 0.0000 42.5222 0.0000
# 6 0.0000 0.0001 0.0001 -12.9146 0.0000 6.4166
#
#
#
# Elastic Compliance Matrix: (Units=1/GPa)
#
#
# Indices 1 2 3 4 5 6 
#
# 1 0.008288 -0.002112 0.000208 -0.000001 -0.004878 -0.000001
# 2 -0.002112 0.014261 -0.002854 -0.000004 0.000188 -0.000008
# 3 0.000208 -0.002854 0.014107 0.000008 -0.006166 0.000016
# 4 -0.000001 -0.000004 0.000008-14.045748 0.000003-28.269623
# 5 -0.004878 0.000188 -0.006166 0.000003 0.029364 0.000005
# 6 -0.000001 -0.000008 0.000016-28.269623 0.000005-56.741916
#
#
# Mechanical properties :
#
#
# Convention : Reuss Voigt Hill
#
# Bulk Modulus (GPa) = 36.84368 46.03360 41.43864
# Shear Modulus (GPa) = -0.07072 31.36382 15.64655
#
# Velocity S-wave (km/s) = -0.16566 3.48873 2.46412
# Velocity P-wave (km/s) = 3.77640 5.83887 4.91699
#
# Compressibility (1/GPa) = 0.02714170
#
# Stress axis : x y z
#
# Youngs Moduli (GPa) = 120.65384 70.12002 70.88460
#
# Poissons Ratio (x) = 0.14810 -0.01476
# Poissons Ratio (y) = 0.25484 0.20228
# Poissons Ratio (z) = -0.02512 0.20010
#
# Static dielectric constant tensor:
#      x y z
#    x 2.031850 0.000000 0.048570 
#    y 0.000000 2.185890 0.000000 
#    z 0.048570 0.000000 2.070080 
# 
# From -- ./inp_files/251853.got.cif
#   From: 2010.05.17/outbox.cif.g08.bks.cpg/sg15_126_cif.got.tgz:251853.got - 2010.06.03 18:47:42.
