data_PCOD9265643
_publ_section_title
;
Structure prediction by ZEFSAII (Michael W. Deem and Ramdas Pophale) SiO2 
 PCOD9265643
Probable space group: C 2/C
;
_chemical_formula_sum "Si O2"
_cell_formula_units_Z 44
_cell_length_a 11.500394
_cell_length_b 14.970233
_cell_length_c 19.186624
_cell_angle_alpha 90.000000
_cell_angle_beta 134.728117
_cell_angle_gamma 90.000000
_cell_volume 2346.799220
_symmetry_space_group_name_H-M "C 2/C"
_symmetry_group_IT_number 15
_symmetry_cell_setting 'monoclinic'
loop_
_space_group_symop_operation_xyz
x,y,z
-x,y,1/2-z
-x,-y,-z
x,-y,1/2+z
1/2+x,1/2+y,z
1/2-x,1/2+y,1/2-z
1/2-x,1/2-y,-z
1/2+x,1/2-y,1/2+z
loop_
_atom_site_type_symbol
_atom_site_label
_atom_site_fract_x
_atom_site_fract_y
_atom_site_fract_z
Si Si1 0.389118 0.330653 0.133816
Si Si2 0.790121 0.110212 0.195378
Si Si3 0.025293 0.707391 0.457735
Si Si4 0.794649 0.176936 0.959635
Si Si5 0.000000 0.722280 0.750000
Si Si6 0.560391 0.529359 0.384311
O O1 0.500000 0.330585 0.250000
O O2 0.438202 0.253189 0.100915
O O3 0.413763 0.424470 0.104476
O O4 0.195323 0.319868 0.065344
O O5 0.598492 0.126102 0.109535
O O6 0.880149 0.207435 0.239572
O O7 0.848936 0.067349 0.147084
O O8 0.869543 0.051615 0.289649
O O9 0.926062 0.776022 0.464757
O O10 0.622889 0.164891 0.847664
O O11 0.750000 0.250000 0.000000
O O12 0.867480 0.087399 0.022926
#
# Coordination Sequence:
#
# PCOD9265643 Si02
#       6
#     8   8   8   8   4   8
#     4  11  24  43  57  82 122 161 195 237 286 356
#     4   9  16  35  57  91 110 143 202 236 284 347
#     4  10  24  38  60  86 116 160 199 226 299 359
#     4  11  18  35  62  91 118 149 193 253 290 342
#     4   8  16  28  52  88 116 140 184 230 296 334
#     4  10  19  36  63  89 119 143 193 256 289 330
#
# _framework density 18.748940000000001
#
# number of rings (size 3 to 8) (size 9 to 14) (size 15 to 20)
#    0.000    2.182    7.273    0.000    2.545    1.455 
#    0.000    0.000    8.000    0.000    0.000    0.000 
#    0.000    0.000    0.000    0.000    0.000    0.000 
#
# Total GULP energy -122614.862546 kJ/mol
# GULP energy per Si atom -5573.402843 kJ/mol
# Density = 1.870627 g / cm^3
# Si number density = 18.748940 Si / 1000 Ang^3
#
#
#
# Elastic Constant Matrix: (Units=GPa)
#
#
# Indices 1 2 3 4 5 6 
#
# 1 39.9579 -7.2743 27.0481 0.0000 21.4579 0.0000
# 2 -7.2743 36.1351 24.6999 0.0000 7.5753 0.0000
# 3 27.0481 24.6999 146.7528 0.0000 26.6601 0.0000
# 4 0.0000 0.0000 0.0000 17.3243 0.0000 -4.2942
# 5 21.4579 7.5753 26.6601 0.0000 26.6839 0.0000
# 6 0.0000 0.0000 0.0000 -4.2942 0.0000 10.3253
#
#
#
# Elastic Compliance Matrix: (Units=1/GPa)
#
#
# Indices 1 2 3 4 5 6 
#
# 1 0.062196 0.027934 -0.006889 0.000000 -0.051063 0.000000
# 2 0.027934 0.044251 -0.007616 0.000000 -0.027417 0.000000
# 3 -0.006889 -0.007616 0.009733 0.000000 -0.002023 0.000000
# 4 0.000000 0.000000 0.000000 0.064357 0.000000 0.026766
# 5 -0.051063 -0.027417 -0.002023 0.000000 0.088343 0.000000
# 6 0.000000 0.000000 0.000000 0.026766 0.000000 0.107981
#
#
# Mechanical properties :
#
#
# Convention : Reuss Voigt Hill
#
# Bulk Modulus (GPa) = 6.99105 34.64368 20.81736
# Shear Modulus (GPa) = 12.57288 22.75817 17.66552
#
# Velocity S-wave (km/s) = 2.59239 3.48780 3.07288
# Velocity P-wave (km/s) = 3.56336 5.89385 4.87006
#
# Compressibility (1/GPa) = 0.14304001
#
# Stress axis : x y z
#
# Youngs Moduli (GPa) = 16.07809 22.59859 102.74214
#
# Poissons Ratio (x) = -0.63127 0.70775
# Poissons Ratio (y) = -0.44913 0.78245
# Poissons Ratio (z) = 0.11076 0.17210
#
# Static dielectric constant tensor:
#      x y z
#    x 1.664890 0.000000 0.008510 
#    y 0.000000 1.639470 0.000000 
#    z 0.008510 0.000000 1.683600 
# 
# From -- ./inp_files/238890.got.cif
#   From: 2010.05.17/outbox.cif.g08.bks.cpg/sg15_120_cif.got.tgz:238890.got - 2010.06.03 18:47:42.
