data_PCOD9265769
_publ_section_title
;
Structure prediction by ZEFSAII (Michael W. Deem and Ramdas Pophale) SiO2 
 PCOD9265769
Probable space group: C 2/C
;
_chemical_formula_sum "Si O2"
_cell_formula_units_Z 48
_cell_length_a 26.849870
_cell_length_b 17.921688
_cell_length_c 5.257400
_cell_angle_alpha 90.000000
_cell_angle_beta 74.123982
_cell_angle_gamma 90.000000
_cell_volume 2433.336281
_symmetry_space_group_name_H-M "C 2/C"
_symmetry_group_IT_number 15
_symmetry_cell_setting 'monoclinic'
loop_
_space_group_symop_operation_xyz
x,y,z
-x,y,1/2-z
-x,-y,-z
x,-y,1/2+z
1/2+x,1/2+y,z
1/2-x,1/2+y,1/2-z
1/2-x,1/2-y,-z
1/2+x,1/2-y,1/2+z
loop_
_atom_site_type_symbol
_atom_site_label
_atom_site_fract_x
_atom_site_fract_y
_atom_site_fract_z
Si Si1 0.293307 0.679601 0.202899
Si Si2 0.000000 0.551685 0.250000
Si Si3 0.574527 0.178930 0.283474
Si Si4 0.140982 0.046013 0.539510
Si Si5 0.820525 0.270834 0.651488
Si Si6 0.000000 0.238442 0.250000
Si Si7 0.942855 0.169104 0.953318
O O1 0.310622 0.597152 0.104782
O O2 0.231769 0.683243 0.335049
O O3 0.322196 0.712066 0.413964
O O4 0.307997 0.728960 0.934925
O O5 0.052080 0.603945 0.189139
O O6 0.000000 0.500000 0.500000
O O7 0.627436 0.180725 0.374332
O O8 0.525578 0.206205 0.516417
O O9 0.580379 0.250874 0.093464
O O10 0.092478 0.100714 0.563317
O O11 0.139998 0.018886 0.830460
O O12 0.045448 0.182603 0.268554
O O13 0.000000 0.161002 0.750000
#
# Coordination Sequence:
#
# PCOD9265769 Si02
#       7
#     8   4   8   8   8   4   8
#     4  10  21  41  60 101 119 158 215 276 310 374
#     4  12  27  42  60  95 134 160 204 258 345 398
#     4  11  21  40  65  94 122 173 209 270 311 383
#     4  12  26  40  60  89 136 175 200 262 329 373
#     4  10  21  37  73  90 120 153 225 273 303 364
#     4  10  19  36  66  89 124 156 222 266 301 358
#     4  10  22  37  62  90 120 169 226 257 299 375
#
# _framework density 19.726002999999999
#
# number of rings (size 3 to 8) (size 9 to 14) (size 15 to 20)
#    0.000    1.333    4.167    2.500    4.667    0.667 
#    0.000    1.667    0.000    0.000    0.000    0.000 
#    0.000    0.000    0.000    0.000    0.000    0.000 
#
# Total GULP energy -133745.445966 kJ/mol
# GULP energy per Si atom -5572.726915 kJ/mol
# Density = 1.968111 g / cm^3
# Si number density = 19.726003 Si / 1000 Ang^3
#
#
#
# Elastic Constant Matrix: (Units=GPa)
#
#
# Indices 1 2 3 4 5 6 
#
# 1 114.9678 33.5719 3.2206 0.0000 8.5353 0.0000
# 2 33.5719 58.3050 -3.5226 0.0000 -5.7680 0.0000
# 3 3.2206 -3.5226 53.2761 0.0000 4.3812 0.0000
# 4 0.0000 0.0000 0.0000 34.9029 0.0000 -2.4022
# 5 8.5353 -5.7680 4.3812 0.0000 20.4399 0.0000
# 6 0.0000 0.0000 0.0000 -2.4022 0.0000 34.4891
#
#
#
# Elastic Compliance Matrix: (Units=1/GPa)
#
#
# Indices 1 2 3 4 5 6 
#
# 1 0.011311 -0.007206 -0.000615 0.000000 -0.006625 0.000000
# 2 -0.007206 0.022265 0.001164 0.000000 0.009042 0.000000
# 3 -0.000615 0.001164 0.019174 0.000000 -0.003524 0.000000
# 4 0.000000 0.000000 0.000000 0.028789 0.000000 0.002005
# 5 -0.006625 0.009042 -0.003524 0.000000 0.054998 0.000000
# 6 0.000000 0.000000 0.000000 0.002005 0.000000 0.029134
#
#
# Mechanical properties :
#
#
# Convention : Reuss Voigt Hill
#
# Bulk Modulus (GPa) = 25.35707 32.56542 28.96124
# Shear Modulus (GPa) = 26.02398 30.85166 28.43782
#
# Velocity S-wave (km/s) = 3.63612 3.95905 3.80101
# Velocity P-wave (km/s) = 5.52368 6.11911 5.82900
#
# Compressibility (1/GPa) = 0.03943674
#
# Stress axis : x y z
#
# Youngs Moduli (GPa) = 88.40740 44.91349 52.15358
#
# Poissons Ratio (x) = 0.32363 0.03210
# Poissons Ratio (y) = 0.63703 -0.06071
# Poissons Ratio (z) = 0.05441 -0.05229
#
# Static dielectric constant tensor:
#      x y z
#    x 1.786360 0.000000 0.081530 
#    y 0.000000 1.707010 0.000000 
#    z 0.081530 0.000000 1.845560 
# 
# From -- ./inp_files/16991.got.cif
#   From: 2010.05.17/outbox.cif.g08.bks.cpg/sg15_9_cif.got.tgz:16991.got - 2010.06.03 18:47:42.
