data_PCOD9265526
_publ_section_title
;
Structure prediction by ZEFSAII (Michael W. Deem and Ramdas Pophale) SiO2 
 PCOD9265526
Probable space group: C 2/C
;
_chemical_formula_sum "Si O2"
_cell_formula_units_Z 52
_cell_length_a 20.070462
_cell_length_b 8.019468
_cell_length_c 13.737818
_cell_angle_alpha 90.000000
_cell_angle_beta 91.704539
_cell_angle_gamma 90.000000
_cell_volume 2210.184210
_symmetry_space_group_name_H-M "C 2/C"
_symmetry_group_IT_number 15
_symmetry_cell_setting 'monoclinic'
loop_
_space_group_symop_operation_xyz
x,y,z
-x,y,1/2-z
-x,-y,-z
x,-y,1/2+z
1/2+x,1/2+y,z
1/2-x,1/2+y,1/2-z
1/2-x,1/2-y,-z
1/2+x,1/2-y,1/2+z
loop_
_atom_site_type_symbol
_atom_site_label
_atom_site_fract_x
_atom_site_fract_y
_atom_site_fract_z
Si Si1 0.157038 0.573008 0.443086
Si Si2 0.681412 0.753490 0.657268
Si Si3 0.807075 0.963817 0.508068
Si Si4 0.105215 0.224197 0.105274
Si Si5 0.182854 0.605220 0.763495
Si Si6 0.123689 0.091722 0.820323
Si Si7 0.500000 0.402814 0.750000
O O1 0.234488 0.547208 0.481841
O O2 0.110149 0.614912 0.533323
O O3 0.142759 0.432387 0.361275
O O4 0.146500 0.739559 0.376985
O O5 0.685090 0.716259 0.543169
O O6 0.743898 0.651559 0.701276
O O7 0.623964 0.651411 0.708299
O O8 0.681466 0.939094 0.697053
O O9 0.865150 0.074538 0.458798
O O10 0.825408 0.964975 0.622734
O O11 0.158595 0.250574 0.192741
O O12 0.039919 0.199483 0.168061
O O13 0.051146 0.010681 0.818267
#
# Coordination Sequence:
#
# PCOD9265526 Si02
#       7
#     8   8   8   8   8   8   4
#     4   9  20  38  68  95 123 162 201 268 338 361
#     4  10  19  36  61  97 120 161 199 264 325 377
#     4  10  19  38  68  96 126 156 206 268 329 369
#     4  11  21  41  58  88 129 166 214 254 307 368
#     4  10  20  37  63  94 129 157 201 263 328 377
#     4  10  20  38  59  91 126 166 213 252 305 375
#     4  12  26  38  62  88 128 180 220 248 290 372
#
# _framework density 23.527452
#
# number of rings (size 3 to 8) (size 9 to 14) (size 15 to 20)
#    0.000    1.846    1.538    5.538    0.000    2.462 
#    2.769    6.154    0.000    0.000    0.000    0.000 
#    0.000    0.000    0.000    0.000    0.000    0.000 
#
# Total GULP energy -144845.335972 kJ/mol
# GULP energy per Si atom -5570.974460 kJ/mol
# Density = 2.347390 g / cm^3
# Si number density = 23.527452 Si / 1000 Ang^3
#
#
#
# Elastic Constant Matrix: (Units=GPa)
#
#
# Indices 1 2 3 4 5 6 
#
# 1 67.3034 4.6480 17.1563 0.0000 -23.9940 0.0000
# 2 4.6480 52.0031 29.8760 0.0000 -10.9259 0.0000
# 3 17.1563 29.8760 122.0044 0.0000 -16.0756 0.0000
# 4 0.0000 0.0000 0.0000 41.5806 0.0000 -21.2550
# 5 -23.9940 -10.9259 -16.0756 0.0000 49.6777 0.0000
# 6 0.0000 0.0000 0.0000 -21.2550 0.0000 20.1840
#
#
#
# Elastic Compliance Matrix: (Units=1/GPa)
#
#
# Indices 1 2 3 4 5 6 
#
# 1 0.018253 0.001148 -0.001727 0.000000 0.008510 0.000000
# 2 0.001148 0.022976 -0.005274 0.000000 0.003901 0.000000
# 3 -0.001727 -0.005274 0.009890 0.000000 0.001206 0.000000
# 4 0.000000 0.000000 0.000000 0.052089 0.000000 0.054853
# 5 0.008510 0.003901 0.001206 0.000000 0.025488 0.000000
# 6 0.000000 0.000000 0.000000 0.054853 0.000000 0.107308
#
#
# Mechanical properties :
#
#
# Convention : Reuss Voigt Hill
#
# Bulk Modulus (GPa) = 25.37119 38.29682 31.83401
# Shear Modulus (GPa) = 19.16833 34.93051 27.04942
#
# Velocity S-wave (km/s) = 2.85743 3.85732 3.39440
# Velocity P-wave (km/s) = 4.65764 6.01261 5.37797
#
# Compressibility (1/GPa) = 0.03941479
#
# Stress axis : x y z
#
# Youngs Moduli (GPa) = 54.78643 43.52273 101.11609
#
# Poissons Ratio (x) = -0.04999 0.17459
# Poissons Ratio (y) = -0.06292 0.53327
# Poissons Ratio (z) = 0.09460 0.22953
#
# Static dielectric constant tensor:
#      x y z
#    x 1.900500 0.000000 -0.099910 
#    y 0.000000 1.972050 0.000000 
#    z -0.099910 0.000000 2.061760 
# 
# From -- ./inp_files/166342.got.cif
#   From: 2010.05.17/outbox.cif.g08.bks.cpg/sg15_84_cif.got.tgz:166342.got - 2010.06.03 18:47:42.
