data_PCOD9265594
_publ_section_title
;
Structure prediction by ZEFSAII (Michael W. Deem and Ramdas Pophale) SiO2 
 PCOD9265594
Probable space group: C 2/C
;
_chemical_formula_sum "Si O2"
_cell_formula_units_Z 52
_cell_length_a 25.990973
_cell_length_b 9.635966
_cell_length_c 14.114043
_cell_angle_alpha 90.000000
_cell_angle_beta 41.302007
_cell_angle_gamma 90.000000
_cell_volume 2333.090483
_symmetry_space_group_name_H-M "C 2/C"
_symmetry_group_IT_number 15
_symmetry_cell_setting 'monoclinic'
loop_
_space_group_symop_operation_xyz
x,y,z
-x,y,1/2-z
-x,-y,-z
x,-y,1/2+z
1/2+x,1/2+y,z
1/2-x,1/2+y,1/2-z
1/2-x,1/2-y,-z
1/2+x,1/2-y,1/2+z
loop_
_atom_site_type_symbol
_atom_site_label
_atom_site_fract_x
_atom_site_fract_y
_atom_site_fract_z
Si Si1 0.393599 0.099600 0.571567
Si Si2 0.791339 0.189613 0.301705
Si Si3 0.859883 0.275323 0.396823
Si Si4 0.422396 0.514567 0.543505
Si Si5 0.436190 0.808268 0.604415
Si Si6 0.500000 0.426106 0.750000
Si Si7 0.411073 0.081096 0.335927
O O1 0.320087 0.161692 0.726211
O O2 0.470295 0.186025 0.501837
O O3 0.372719 0.115750 0.489469
O O4 0.415373 0.944377 0.572240
O O5 0.815497 0.187493 0.378199
O O6 0.698260 0.192079 0.435438
O O7 0.846058 0.076273 0.173835
O O8 0.934148 0.180038 0.307864
O O9 0.888575 0.428768 0.329327
O O10 0.500000 0.500000 0.500000
O O11 0.407103 0.676592 0.586214
O O12 0.456385 0.487692 0.391618
O O13 0.401148 0.819420 0.759456
O O14 0.500000 0.074887 0.250000
#
# Coordination Sequence:
#
# PCOD9265594 Si02
#       7
#     8   8   8   8   8   4   8
#     4  10  19  36  62  91 122 170 216 268 317 392
#     4  11  24  42  65  94 140 170 217 282 347 381
#     4  11  22  42  68  95 128 182 224 272 330 413
#     4  12  24  42  65 101 137 171 215 284 338 396
#     4  10  20  36  61  93 127 163 220 266 320 389
#     4  12  24  42  72  98 130 186 236 258 340 426
#     4  10  20  34  65  93 119 161 226 266 312 384
#
# _framework density 22.288034
#
# number of rings (size 3 to 8) (size 9 to 14) (size 15 to 20)
#    0.000    1.231    5.385    0.923    2.154    2.462 
#    0.000    0.769    0.000    0.000    0.000    0.000 
#    0.000    0.000    0.000    0.000    0.000    0.000 
#
# Total GULP energy -144981.134086 kJ/mol
# GULP energy per Si atom -5576.197465 kJ/mol
# Density = 2.223731 g / cm^3
# Si number density = 22.288034 Si / 1000 Ang^3
#
#
#
# Elastic Constant Matrix: (Units=GPa)
#
#
# Indices 1 2 3 4 5 6 
#
# 1 48.9568 2.2202 19.8820 0.0001 12.0192 0.0000
# 2 2.2202 52.4459 22.5858 0.0007 -4.4950 -0.0002
# 3 19.8820 22.5858 128.9165 0.0002 12.9268 -0.0001
# 4 0.0001 0.0007 0.0002 29.6137 0.0000 4.5501
# 5 12.0192 -4.4950 12.9268 0.0000 28.0324 0.0000
# 6 0.0000 -0.0002 -0.0001 4.5501 0.0000 5.9978
#
#
#
# Elastic Compliance Matrix: (Units=1/GPa)
#
#
# Indices 1 2 3 4 5 6 
#
# 1 0.023755 -0.000646 -0.002641 0.000000 -0.009071 0.000000
# 2 -0.000646 0.021394 -0.004215 -0.000001 0.005651 0.000001
# 3 -0.002641 -0.004215 0.009286 0.000000 -0.003826 0.000000
# 4 0.000000 -0.000001 0.000000 0.038224 0.000000 -0.028998
# 5 -0.009071 0.005651 -0.003826 0.000000 0.042233 0.000000
# 6 0.000000 0.000001 0.000000 -0.028998 0.000000 0.188727
#
#
# Mechanical properties :
#
#
# Convention : Reuss Voigt Hill
#
# Bulk Modulus (GPa) = 25.36027 35.52166 30.44096
# Shear Modulus (GPa) = 14.21395 25.10419 19.65907
#
# Velocity S-wave (km/s) = 2.52809 3.35976 2.97315
# Velocity P-wave (km/s) = 4.46372 5.56981 5.04716
#
# Compressibility (1/GPa) = 0.03943175
#
# Stress axis : x y z
#
# Youngs Moduli (GPa) = 42.09654 46.74147 107.68451
#
# Poissons Ratio (x) = 0.03018 0.28438
# Poissons Ratio (y) = 0.02718 0.45392
# Poissons Ratio (z) = 0.11117 0.19703
#
# Static dielectric constant tensor:
#      x y z
#    x 1.854540 0.000000 0.052580 
#    y 0.000000 1.800840 0.000000 
#    z 0.052580 0.000000 1.917220 
# 
# From -- ./inp_files/181062.got.cif
#   From: 2010.05.17/outbox.cif.g08.bks.cpg/sg15_91_cif.got.tgz:181062.got - 2010.06.03 18:47:42.
