data_PCOD9265509
_publ_section_title
;
Structure prediction by ZEFSAII (Michael W. Deem and Ramdas Pophale) SiO2 
 PCOD9265509
Probable space group: C 2/C
;
_chemical_formula_sum "Si O2"
_cell_formula_units_Z 56
_cell_length_a 15.621042
_cell_length_b 5.599300
_cell_length_c 28.240101
_cell_angle_alpha 90.000000
_cell_angle_beta 78.529362
_cell_angle_gamma 90.000000
_cell_volume 2420.738683
_symmetry_space_group_name_H-M "C 2/C"
_symmetry_group_IT_number 15
_symmetry_cell_setting 'monoclinic'
loop_
_space_group_symop_operation_xyz
x,y,z
-x,y,1/2-z
-x,-y,-z
x,-y,1/2+z
1/2+x,1/2+y,z
1/2-x,1/2+y,1/2-z
1/2-x,1/2-y,-z
1/2+x,1/2-y,1/2+z
loop_
_atom_site_type_symbol
_atom_site_label
_atom_site_fract_x
_atom_site_fract_y
_atom_site_fract_z
Si Si1 0.710055 0.735562 0.056204
Si Si2 0.509706 0.205182 0.379126
Si Si3 0.116217 0.815953 0.279128
Si Si4 0.226541 0.550813 0.197666
Si Si5 0.510037 0.300021 0.604205
Si Si6 0.930503 0.796014 0.792740
Si Si7 0.701616 0.237266 0.104035
O O1 0.603910 0.722302 0.068508
O O2 0.734893 0.480709 0.076791
O O3 0.734890 0.982459 0.080326
O O4 0.750000 0.750000 0.000000
O O5 0.544281 0.208881 0.321469
O O6 0.535876 0.449945 0.402461
O O7 0.404011 0.218970 0.389863
O O8 0.537174 0.952151 0.397847
O O9 0.185602 0.627867 0.251964
O O10 0.174010 0.987157 0.305511
O O11 0.087210 0.966645 0.236461
O O12 0.160459 0.340011 0.190076
O O13 0.220620 0.745279 0.157505
O O14 0.530049 0.320762 0.659094
O O15 0.000000 0.664304 0.750000
#
# Coordination Sequence:
#
# PCOD9265509 Si02
#       7
#     8   8   8   8   8   8   8
#     4  10  19  36  61  92 116 141 191 257 317 352
#     4  10  20  37  56  79 110 151 202 230 286 336
#     4  12  25  36  53  83 117 172 197 248 283 349
#     4  12  25  37  52  83 126 156 207 246 290 351
#     4  10  20  36  57  85 110 146 195 243 286 348
#     4  12  22  37  57  79 118 160 204 237 290 344
#     4  10  22  37  60  86 117 153 194 250 300 358
#
# _framework density 23.133434000000001
#
# number of rings (size 3 to 8) (size 9 to 14) (size 15 to 20)
#    0.000    1.143    5.714    3.000    0.000    0.000 
#    0.000    0.000    0.000    0.000    0.000   24.000 
#    0.000    0.000    0.000    0.000    0.000    0.000 
#
# Total GULP energy -156391.645867 kJ/mol
# GULP energy per Si atom -5585.415924 kJ/mol
# Density = 2.308078 g / cm^3
# Si number density = 23.133434 Si / 1000 Ang^3
#
#
#
# Elastic Constant Matrix: (Units=GPa)
#
#
# Indices 1 2 3 4 5 6 
#
# 1 42.0540 7.6833 12.1956 0.0000 -5.1954 0.0001
# 2 7.6833 174.8896 37.6428 0.0000 -11.1862 0.0001
# 3 12.1956 37.6428 112.4272 0.0001 -33.7130 0.0000
# 4 0.0000 0.0000 0.0001 29.8893 0.0000 -1.5393
# 5 -5.1954 -11.1862 -33.7130 0.0000 18.2071 0.0000
# 6 0.0001 0.0001 0.0000 -1.5393 0.0000 5.3756
#
#
#
# Elastic Compliance Matrix: (Units=1/GPa)
#
#
# Indices 1 2 3 4 5 6 
#
# 1 0.024778 -0.000553 -0.001089 0.000000 0.004714 0.000000
# 2 -0.000553 0.006174 -0.002062 0.000000 -0.000182 0.000000
# 3 -0.001089 -0.002062 0.020753 0.000000 0.036850 0.000000
# 4 0.000000 0.000000 0.000000 0.033958 0.000000 0.009723
# 5 0.004714 -0.000182 0.036850 0.000000 0.124389 0.000000
# 6 0.000000 0.000000 0.000000 0.009723 0.000000 0.188809
#
#
# Mechanical properties :
#
#
# Convention : Reuss Voigt Hill
#
# Bulk Modulus (GPa) = 22.57443 49.37936 35.97689
# Shear Modulus (GPa) = 11.87549 28.81767 20.34658
#
# Velocity S-wave (km/s) = 2.26818 3.53330 2.96891
# Velocity P-wave (km/s) = 4.07910 6.16745 5.22860
#
# Compressibility (1/GPa) = 0.04429791
#
# Stress axis : x y z
#
# Youngs Moduli (GPa) = 40.35807 161.96082 48.18545
#
# Poissons Ratio (x) = 0.08950 0.05248
# Poissons Ratio (y) = 0.02230 0.09936
# Poissons Ratio (z) = 0.04396 0.33397
#
# Static dielectric constant tensor:
#      x y z
#    x 1.887270 0.000000 -0.009100 
#    y 0.000000 2.063100 0.000000 
#    z -0.009100 0.000000 1.824700 
# 
# From -- ./inp_files/314835.got.cif
#   From: 2010.05.17/outbox.cif.g08.bks.cpg/sg15_158_cif.got.tgz:314835.got - 2010.06.03 18:47:42.
