data_PCOD9265284
_publ_section_title
;
Structure prediction by ZEFSAII (Michael W. Deem and Ramdas Pophale) SiO2 
 PCOD9265284
Probable space group: C 2/C
;
_chemical_formula_sum "Si O2"
_cell_formula_units_Z 64
_cell_length_a 16.372819
_cell_length_b 27.586776
_cell_length_c 6.940598
_cell_angle_alpha 90.000000
_cell_angle_beta 108.274925
_cell_angle_gamma 90.000000
_cell_volume 2976.768036
_symmetry_space_group_name_H-M "C 2/C"
_symmetry_group_IT_number 15
_symmetry_cell_setting 'monoclinic'
loop_
_space_group_symop_operation_xyz
x,y,z
-x,y,1/2-z
-x,-y,-z
x,-y,1/2+z
1/2+x,1/2+y,z
1/2-x,1/2+y,1/2-z
1/2-x,1/2-y,-z
1/2+x,1/2-y,1/2+z
loop_
_atom_site_type_symbol
_atom_site_label
_atom_site_fract_x
_atom_site_fract_y
_atom_site_fract_z
Si Si1 0.341244 0.788032 0.691516
Si Si2 0.906919 0.030492 0.209863
Si Si3 0.864889 0.318962 0.297017
Si Si4 0.654540 0.390733 0.584089
Si Si5 0.311983 0.560132 0.780366
Si Si6 0.194102 0.600623 0.994555
Si Si7 0.855000 0.781791 0.888302
Si Si8 0.967564 0.631352 0.434706
O O1 0.323330 0.817720 0.479282
O O2 0.248847 0.780517 0.715810
O O3 0.373960 0.738190 0.619512
O O4 0.411920 0.819342 0.853007
O O5 0.908473 0.067399 0.388303
O O6 0.000000 0.007491 0.250000
O O7 0.832115 0.991287 0.193802
O O8 0.882680 0.060828 0.002183
O O9 0.805391 0.345985 0.102827
O O10 0.887569 0.262431 0.278602
O O11 0.949602 0.351439 0.386634
O O12 0.619692 0.337327 0.605543
O O13 0.775034 0.433312 0.158977
O O14 0.739635 0.399364 0.778976
O O15 0.323536 0.599589 0.622202
O O16 0.098802 0.595356 0.011305
O O17 0.000000 0.613912 0.250000
#
# Coordination Sequence:
#
# PCOD9265284 Si02
#       8
#     8   8   8   8   8   8   8   8
#     4   8  16  32  56  79 125 178 217 262 320 368
#     4  11  24  46  72 100 130 168 214 266 338 403
#     4   9  19  34  57  87 130 175 226 262 315 370
#     4  11  23  40  65  97 135 171 218 270 327 389
#     4  11  24  41  69  97 128 168 214 269 332 393
#     4  11  23  37  61  99 126 167 233 269 316 397
#     4   9  17  34  57  87 131 178 217 267 320 377
#     4  10  19  36  59  88 129 180 225 274 320 380
#
# _framework density 21.499828000000001
#
# number of rings (size 3 to 8) (size 9 to 14) (size 15 to 20)
#    0.750    1.250    2.500    1.500    1.750    0.500 
#    0.000    3.750    0.000    0.000    0.000   24.500 
#    0.000    0.000    0.000    0.000    0.000    0.000 
#
# Total GULP energy -178184.610035 kJ/mol
# GULP energy per Si atom -5568.269064 kJ/mol
# Density = 2.145089 g / cm^3
# Si number density = 21.499828 Si / 1000 Ang^3
#
#
#
# Elastic Constant Matrix: (Units=GPa)
#
#
# Indices 1 2 3 4 5 6 
#
# 1 93.6894 32.5694 36.7998 0.0000 -15.2982 0.0000
# 2 32.5694 89.9857 15.2812 0.0000 -12.6666 0.0000
# 3 36.7998 15.2812 85.2929 0.0000 -14.0948 0.0000
# 4 0.0000 0.0000 0.0000 33.9386 0.0000 -4.2071
# 5 -15.2982 -12.6666 -14.0948 0.0000 25.7249 0.0000
# 6 0.0000 0.0000 0.0000 -4.2071 0.0000 27.9388
#
#
#
# Elastic Compliance Matrix: (Units=1/GPa)
#
#
# Indices 1 2 3 4 5 6 
#
# 1 0.014631 -0.003882 -0.004943 0.000000 0.004081 0.000000
# 2 -0.003882 0.013100 0.000013 0.000000 0.004149 0.000000
# 3 -0.004943 0.000013 0.014701 0.000000 0.005122 0.000000
# 4 0.000000 0.000000 0.000000 0.030025 0.000000 0.004521
# 5 0.004081 0.004149 0.005122 0.000000 0.046149 0.000000
# 6 0.000000 0.000000 0.000000 0.004521 0.000000 0.036473
#
#
# Mechanical properties :
#
#
# Convention : Reuss Voigt Hill
#
# Bulk Modulus (GPa) = 40.30704 48.69654 44.50179
# Shear Modulus (GPa) = 27.62880 29.80828 28.71854
#
# Velocity S-wave (km/s) = 3.58868 3.72754 3.65877
# Velocity P-wave (km/s) = 5.99665 6.42067 6.21228
#
# Compressibility (1/GPa) = 0.02480956
#
# Stress axis : x y z
#
# Youngs Moduli (GPa) = 68.34933 76.33863 68.02350
#
# Poissons Ratio (x) = 0.29632 0.33621
# Poissons Ratio (y) = 0.26531 -0.00091
# Poissons Ratio (z) = 0.33782 -0.00103
#
# Static dielectric constant tensor:
#      x y z
#    x 1.828930 0.000000 -0.058140 
#    y 0.000000 1.832300 0.000000 
#    z -0.058140 0.000000 1.850330 
# 
# From -- ./inp_files/51267.got.cif
#   From: 2010.05.17/outbox.cif.g08.bks.cpg/sg15_26_cif.got.tgz:51267.got - 2010.06.03 18:47:42.
