data_PCOD9265618
_publ_section_title
;
Structure prediction by ZEFSAII (Michael W. Deem and Ramdas Pophale) SiO2 
 PCOD9265618
Probable space group: C 2/C
;
_chemical_formula_sum "Si O2"
_cell_formula_units_Z 48
_cell_length_a 9.907207
_cell_length_b 25.162051
_cell_length_c 11.276262
_cell_angle_alpha 90.000000
_cell_angle_beta 118.669324
_cell_angle_gamma 90.000000
_cell_volume 2466.389267
_symmetry_space_group_name_H-M "C 2/C"
_symmetry_group_IT_number 15
_symmetry_cell_setting 'monoclinic'
loop_
_space_group_symop_operation_xyz
x,y,z
-x,y,1/2-z
-x,-y,-z
x,-y,1/2+z
1/2+x,1/2+y,z
1/2-x,1/2+y,1/2-z
1/2-x,1/2-y,-z
1/2+x,1/2-y,1/2+z
loop_
_atom_site_type_symbol
_atom_site_label
_atom_site_fract_x
_atom_site_fract_y
_atom_site_fract_z
Si Si1 0.790687 0.025434 0.754714
Si Si2 0.500000 0.026202 0.250000
Si Si3 0.864893 0.280572 0.458618
Si Si4 0.608928 0.288041 0.176888
Si Si5 0.303143 0.099735 0.001480
Si Si6 0.000000 0.932434 0.750000
Si Si7 0.978535 0.105083 0.985581
O O1 0.759537 0.067574 0.637849
O O2 0.908531 0.052399 0.895931
O O3 0.635066 0.009826 0.754902
O O4 0.863639 0.972282 0.730886
O O5 0.429243 0.063984 0.119310
O O6 0.750000 0.250000 0.500000
O O7 0.778849 0.274495 0.296271
O O8 0.864382 0.342751 0.489693
O O9 0.028885 0.254386 0.556023
O O10 0.500000 0.292431 0.250000
O O11 0.601745 0.344455 0.108676
O O12 0.158382 0.108087 0.027903
O O13 0.958282 0.898513 0.617327
#
# Coordination Sequence:
#
# PCOD9265618 Si02
#       7
#     8   4   8   8   8   4   8
#     4  12  23  44  64  91 129 171 218 257 320 379
#     4  12  28  38  60  98 138 166 204 270 324 380
#     4  10  20  33  63  99 126 155 209 271 326 374
#     4  10  19  36  62  96 125 161 207 272 322 376
#     4  12  22  39  63  98 128 168 210 267 322 380
#     4  12  24  36  66  94 120 176 220 258 302 396
#     4  12  21  40  66  90 127 169 221 255 316 389
#
# _framework density 19.461648
#
# number of rings (size 3 to 8) (size 9 to 14) (size 15 to 20)
#    0.000    0.667    8.333    2.000    3.500    0.000 
#    0.000    0.000    0.000    2.000    0.000    0.000 
#    0.000    0.000    0.000    0.000    0.000    0.000 
#
# Total GULP energy -134125.169001 kJ/mol
# GULP energy per Si atom -5588.548708 kJ/mol
# Density = 1.941735 g / cm^3
# Si number density = 19.461648 Si / 1000 Ang^3
#
#
#
# Elastic Constant Matrix: (Units=GPa)
#
#
# Indices 1 2 3 4 5 6 
#
# 1 59.2576 20.9417 13.6815 0.0000 5.5219 0.0000
# 2 20.9417 56.2607 64.1065 0.0000 1.5924 0.0000
# 3 13.6815 64.1065 140.2043 0.0000 7.0073 0.0000
# 4 0.0000 0.0000 0.0000 31.9630 0.0000 4.5548
# 5 5.5219 1.5924 7.0073 0.0000 10.5643 0.0000
# 6 0.0000 0.0000 0.0000 4.5548 0.0000 2.5424
#
#
#
# Elastic Compliance Matrix: (Units=1/GPa)
#
#
# Indices 1 2 3 4 5 6 
#
# 1 0.021418 -0.012396 0.004182 0.000000 -0.012101 0.000000
# 2 -0.012396 0.044635 -0.019844 0.000000 0.012914 0.000000
# 3 0.004182 -0.019844 0.016298 0.000000 -0.010005 0.000000
# 4 0.000000 0.000000 0.000000 0.042011 0.000000 -0.075264
# 5 -0.012101 0.012914 -0.010005 0.000000 0.105674 0.000000
# 6 0.000000 0.000000 0.000000 -0.075264 0.000000 0.528166
#
#
# Mechanical properties :
#
#
# Convention : Reuss Voigt Hill
#
# Bulk Modulus (GPa) = 38.11615 50.35354 44.23485
# Shear Modulus (GPa) = 6.07487 19.48012 12.77750
#
# Velocity S-wave (km/s) = 1.76868 3.16721 2.56510
# Velocity P-wave (km/s) = 4.87840 6.26932 5.61708
#
# Compressibility (1/GPa) = 0.02623560
#
# Stress axis : x y z
#
# Youngs Moduli (GPa) = 46.68959 22.40412 61.35732
#
# Poissons Ratio (x) = 0.27771 -0.25663
# Poissons Ratio (y) = 0.57875 1.21760
# Poissons Ratio (z) = -0.19528 0.44460
#
# Static dielectric constant tensor:
#      x y z
#    x 1.684430 0.000000 0.021020 
#    y 0.000000 1.661590 0.000000 
#    z 0.021020 0.000000 1.705300 
# 
# From -- ./inp_files/90483.got.cif
#   From: 2010.05.17/outbox.cif.g08.bks.cpg/sg15_46_cif.got.tgz:90483.got - 2010.06.03 18:47:42.
