data_PCOD9265112
_publ_section_title
;
Structure prediction by ZEFSAII (Michael W. Deem and Ramdas Pophale) SiO2 
 PCOD9265112
Probable space group: C 2/C
;
_chemical_formula_sum "Si O2"
_cell_formula_units_Z 48
_cell_length_a 11.363020
_cell_length_b 25.253696
_cell_length_c 10.838920
_cell_angle_alpha 90.000000
_cell_angle_beta 55.058005
_cell_angle_gamma 90.000000
_cell_volume 2549.627757
_symmetry_space_group_name_H-M "C 2/C"
_symmetry_group_IT_number 15
_symmetry_cell_setting 'monoclinic'
loop_
_space_group_symop_operation_xyz
x,y,z
-x,y,1/2-z
-x,-y,-z
x,-y,1/2+z
1/2+x,1/2+y,z
1/2-x,1/2+y,1/2-z
1/2-x,1/2-y,-z
1/2+x,1/2-y,1/2+z
loop_
_atom_site_type_symbol
_atom_site_label
_atom_site_fract_x
_atom_site_fract_y
_atom_site_fract_z
Si Si1 0.777280 0.808823 0.032786
Si Si2 0.603842 0.357293 0.290415
Si Si3 0.109220 0.530770 0.286548
Si Si4 0.076521 0.057019 0.445941
Si Si5 0.000000 0.880172 0.750000
Si Si6 0.626487 0.073904 0.911439
Si Si7 0.000000 0.628079 0.750000
O O1 0.837721 0.818121 0.136896
O O2 0.623991 0.836423 0.119593
O O3 0.750000 0.750000 0.000000
O O4 0.882967 0.842063 0.882085
O O5 0.500000 0.332059 0.250000
O O6 0.508581 0.402681 0.414714
O O7 0.736366 0.389052 0.147302
O O8 0.253516 0.550363 0.133842
O O9 0.157907 0.487982 0.361172
O O10 0.000000 0.507960 0.250000
O O11 0.007104 0.573802 0.414487
O O12 0.062588 0.082245 0.318533
O O13 0.000000 0.000000 0.500000
O O14 0.571009 0.094825 0.814470
#
# Coordination Sequence:
#
# PCOD9265112 Si02
#       7
#     8   8   8   8   4   8   4
#     4  10  21  39  65  86 110 149 198 259 307 356
#     4  10  21  38  57  86 118 150 195 245 304 359
#     4  11  21  32  49  75 115 158 202 224 271 333
#     4  11  22  34  55  83 122 167 195 241 290 357
#     4  10  23  38  58  90 118 150 208 243 296 368
#     4  10  20  33  51  76 110 155 187 238 272 339
#     4  10  19  36  58  80 110 136 198 235 300 338
#
# _framework density 18.826279
#
# number of rings (size 3 to 8) (size 9 to 14) (size 15 to 20)
#    0.000    1.667    2.500    2.500    1.167    2.667 
#    0.000    0.000    0.000   20.000    0.000    0.000 
#    0.000    0.000    0.000    0.000    0.000    0.000 
#
# Total GULP energy -133816.302083 kJ/mol
# GULP energy per Si atom -5575.679253 kJ/mol
# Density = 1.878343 g / cm^3
# Si number density = 18.826279 Si / 1000 Ang^3
#
#
#
# Elastic Constant Matrix: (Units=GPa)
#
#
# Indices 1 2 3 4 5 6 
#
# 1 79.3995 33.1970 14.1566 0.0000 -17.2108 0.0000
# 2 33.1970 86.0537 31.7534 0.0000 -4.7118 0.0000
# 3 14.1566 31.7534 91.7942 0.0000 -28.5812 0.0000
# 4 0.0000 0.0000 0.0000 19.9956 0.0000 7.9046
# 5 -17.2108 -4.7118 -28.5812 0.0000 37.0366 0.0000
# 6 0.0000 0.0000 0.0000 7.9046 0.0000 7.5178
#
#
#
# Elastic Compliance Matrix: (Units=1/GPa)
#
#
# Indices 1 2 3 4 5 6 
#
# 1 0.017032 -0.007044 0.002627 0.000000 0.009046 0.000000
# 2 -0.007044 0.016406 -0.006526 0.000000 -0.006223 0.000000
# 3 0.002627 -0.006526 0.016938 0.000000 0.013461 0.000000
# 4 0.000000 0.000000 0.000000 0.085584 0.000000 -0.089987
# 5 0.009046 -0.006223 0.013461 0.000000 0.040800 0.000000
# 6 0.000000 0.000000 0.000000 -0.089987 0.000000 0.227635
#
#
# Mechanical properties :
#
#
# Convention : Reuss Voigt Hill
#
# Bulk Modulus (GPa) = 35.10320 46.16240 40.63280
# Shear Modulus (GPa) = 11.47372 24.78602 18.12987
#
# Velocity S-wave (km/s) = 2.47139 3.63239 3.10660
# Velocity P-wave (km/s) = 5.17977 6.49351 5.87349
#
# Compressibility (1/GPa) = 0.02848743
#
# Stress axis : x y z
#
# Youngs Moduli (GPa) = 58.71213 60.95483 59.04003
#
# Poissons Ratio (x) = 0.42939 -0.15507
# Poissons Ratio (y) = 0.41359 0.38530
# Poissons Ratio (z) = -0.15421 0.39780
#
# Static dielectric constant tensor:
#      x y z
#    x 1.656780 0.000000 -0.027800 
#    y 0.000000 1.649800 0.000000 
#    z -0.027800 0.000000 1.603850 
# 
# From -- ./inp_files/33450.got.cif
#   From: 2010.05.17/outbox.cif.g08.bks.cpg/sg15_17_cif.got.tgz:33450.got - 2010.06.03 18:47:42.
