data_PCOD9265382
_publ_section_title
;
Structure prediction by ZEFSAII (Michael W. Deem and Ramdas Pophale) SiO2 
 PCOD9265382
Probable space group: C 2/C
;
_chemical_formula_sum "Si O2"
_cell_formula_units_Z 60
_cell_length_a 18.018531
_cell_length_b 14.894362
_cell_length_c 16.627866
_cell_angle_alpha 90.000000
_cell_angle_beta 35.183198
_cell_angle_gamma 90.000000
_cell_volume 2571.257233
_symmetry_space_group_name_H-M "C 2/C"
_symmetry_group_IT_number 15
_symmetry_cell_setting 'monoclinic'
loop_
_space_group_symop_operation_xyz
x,y,z
-x,y,1/2-z
-x,-y,-z
x,-y,1/2+z
1/2+x,1/2+y,z
1/2-x,1/2+y,1/2-z
1/2-x,1/2-y,-z
1/2+x,1/2-y,1/2+z
loop_
_atom_site_type_symbol
_atom_site_label
_atom_site_fract_x
_atom_site_fract_y
_atom_site_fract_z
Si Si1 0.027732 0.165972 0.411993
Si Si2 0.286718 0.982357 0.277479
Si Si3 0.845270 0.970694 0.814558
Si Si4 0.938873 0.584266 0.971511
Si Si5 0.288164 0.651687 0.517196
Si Si6 0.000000 0.679616 0.750000
Si Si7 0.789181 0.683779 0.234869
Si Si8 0.621466 0.635200 0.798717
O O1 0.164661 0.217100 0.293671
O O2 0.906593 0.194600 0.463653
O O3 0.992424 0.151448 0.536215
O O4 0.069095 0.074404 0.330948
O O5 0.436403 0.974551 0.123872
O O6 0.256292 0.932478 0.387301
O O7 0.213419 0.923041 0.276208
O O8 0.256617 0.088000 0.303558
O O9 0.890764 0.073972 0.769666
O O10 0.694765 0.966779 0.924275
O O11 0.846847 0.902722 0.888637
O O12 0.973834 0.626736 0.854695
O O13 0.904255 0.657243 0.071004
O O14 0.153914 0.710690 0.626490
O O15 0.825244 0.764715 0.261133
#
# Coordination Sequence:
#
# PCOD9265382 Si02
#       8
#     8   8   8   8   8   4   8   8
#     4  10  21  38  57  87 121 158 206 252 309 362
#     4  10  20  38  59  87 115 161 204 254 311 351
#     4  10  19  36  60  88 116 162 201 245 312 366
#     4   9  18  34  60  81 114 153 204 244 300 367
#     4   9  19  34  63  86 117 163 202 252 308 374
#     4   8  16  34  58  90 108 154 208 244 308 366
#     4  11  23  35  59  91 120 157 212 253 305 371
#     4  11  23  35  59  89 121 157 199 261 302 363
#
# _framework density 23.334887999999999
#
# number of rings (size 3 to 8) (size 9 to 14) (size 15 to 20)
#    0.000    2.133    2.667    1.200    3.733    0.000 
#    0.000    0.667    5.867   14.400   10.400    0.000 
#    0.000    0.000    0.000    0.000    0.000    0.000 
#
# Total GULP energy -167120.628694 kJ/mol
# GULP energy per Si atom -5570.687623 kJ/mol
# Density = 2.328178 g / cm^3
# Si number density = 23.334888 Si / 1000 Ang^3
#
#
#
# Elastic Constant Matrix: (Units=GPa)
#
#
# Indices 1 2 3 4 5 6 
#
# 1 49.6388 30.0165 23.6647 -0.0001 -16.3204 0.0000
# 2 30.0165 126.1941 21.5983 -0.0001 4.5332 0.0000
# 3 23.6647 21.5983 89.4986 -0.0001 -32.6511 0.0000
# 4 -0.0001 -0.0001 -0.0001 -8.9043 0.0001 -16.0585
# 5 -16.3204 4.5332 -32.6511 0.0001 42.8438 0.0000
# 6 0.0000 0.0000 0.0000 -16.0585 0.0000 14.4798
#
#
#
# Elastic Compliance Matrix: (Units=1/GPa)
#
#
# Indices 1 2 3 4 5 6 
#
# 1 0.028568 -0.006746 -0.002348 0.000000 0.009807 0.000000
# 2 -0.006746 0.010213 -0.002788 0.000000 -0.005775 0.000000
# 3 -0.002348 -0.002788 0.016965 0.000000 0.012330 0.000000
# 4 0.000000 0.000000 0.000000 -0.037434 0.000000 -0.041515
# 5 0.009807 -0.005775 0.012330 0.000000 0.037084 0.000000
# 6 0.000000 0.000000 0.000000 -0.041515 0.000000 0.023020
#
#
# Mechanical properties :
#
#
# Convention : Reuss Voigt Hill
#
# Bulk Modulus (GPa) = 31.26640 46.21005 38.73822
# Shear Modulus (GPa) = 44.30999 22.35399 33.33199
#
# Velocity S-wave (km/s) = 4.36233 3.09846 3.78354
# Velocity P-wave (km/s) = 6.22907 5.71372 5.97695
#
# Compressibility (1/GPa) = 0.03198322
#
# Stress axis : x y z
#
# Youngs Moduli (GPa) = 35.00369 97.91029 58.94423
#
# Poissons Ratio (x) = 0.66047 0.13842
# Poissons Ratio (y) = 0.23612 0.16433
# Poissons Ratio (z) = 0.08220 0.27297
#
# Static dielectric constant tensor:
#      x y z
#    x 1.966990 0.000000 -0.016080 
#    y 0.000000 1.940240 0.000000 
#    z -0.016080 0.000000 1.989450 
# 
# From -- ./inp_files/253035.got.cif
#   From: 2010.05.17/outbox.cif.g08.bks.cpg/sg15_127_cif.got.tgz:253035.got - 2010.06.03 18:47:42.
