data_PCOD9265890
_publ_section_title
;
Structure prediction by ZEFSAII (Michael W. Deem and Ramdas Pophale) SiO2 
 PCOD9265890
Probable space group: C 2/C
;
_chemical_formula_sum "Si O2"
_cell_formula_units_Z 44
_cell_length_a 7.482688
_cell_length_b 17.521793
_cell_length_c 23.712625
_cell_angle_alpha 90.000000
_cell_angle_beta 123.156331
_cell_angle_gamma 90.000000
_cell_volume 2602.767586
_symmetry_space_group_name_H-M "C 2/C"
_symmetry_group_IT_number 15
_symmetry_cell_setting 'monoclinic'
loop_
_space_group_symop_operation_xyz
x,y,z
-x,y,1/2-z
-x,-y,-z
x,-y,1/2+z
1/2+x,1/2+y,z
1/2-x,1/2+y,1/2-z
1/2-x,1/2-y,-z
1/2+x,1/2-y,1/2+z
loop_
_atom_site_type_symbol
_atom_site_label
_atom_site_fract_x
_atom_site_fract_y
_atom_site_fract_z
Si Si1 0.000000 0.370142 0.250000
Si Si2 0.457149 0.440168 0.309765
Si Si3 0.989822 0.307972 0.927053
Si Si4 0.578713 0.610431 0.327529
Si Si5 0.262041 0.184006 0.918552
Si Si6 0.064192 0.267233 0.372178
O O1 0.211994 0.420266 0.279655
O O2 0.976828 0.316830 0.190821
O O3 0.500000 0.432555 0.250000
O O4 0.517319 0.526476 0.336721
O O5 0.603758 0.379912 0.367819
O O6 0.832891 0.372220 0.875026
O O7 0.818614 0.245928 0.922114
O O8 0.130821 0.262287 0.906473
O O9 0.135375 0.336017 0.003329
O O10 0.500000 0.618291 0.250000
O O11 0.482159 0.680881 0.346240
O O12 0.447756 0.197179 0.905180
#
# Coordination Sequence:
#
# PCOD9265890 Si02
#       6
#     4   8   8   8   8   8
#     4  12  20  38  58  82 112 146 190 242 268 334
#     4  11  22  37  55  83 112 150 185 232 287 327
#     4   9  21  37  57  83 114 143 191 229 272 333
#     4   9  20  39  53  79 120 141 179 234 280 324
#     4  11  20  35  63  82 107 152 189 225 278 333
#     4  10  19  37  57  81 113 142 184 231 273 329
#
# _framework density 16.905080999999999
#
# number of rings (size 3 to 8) (size 9 to 14) (size 15 to 20)
#    1.091    0.727    4.545    0.545    0.000    0.727 
#    6.545    0.000    0.000    3.273    0.000    0.000 
#    0.000    0.000    0.000    0.000    0.000    0.000 
#
# Total GULP energy -122507.098946 kJ/mol
# GULP energy per Si atom -5568.504498 kJ/mol
# Density = 1.686660 g / cm^3
# Si number density = 16.905081 Si / 1000 Ang^3
#
#
#
# Elastic Constant Matrix: (Units=GPa)
#
#
# Indices 1 2 3 4 5 6 
#
# 1 77.0188 10.6202 13.1420 0.0000 4.4475 0.0000
# 2 10.6202 68.0029 36.2447 0.0000 1.2107 0.0000
# 3 13.1420 36.2447 70.8879 0.0000 12.8146 0.0000
# 4 0.0000 0.0000 0.0000 -5.8038 0.0000 -0.9195
# 5 4.4475 1.2107 12.8146 0.0000 27.3523 0.0000
# 6 0.0000 0.0000 0.0000 -0.9195 0.0000 12.8973
#
#
#
# Elastic Compliance Matrix: (Units=1/GPa)
#
#
# Indices 1 2 3 4 5 6 
#
# 1 0.013510 -0.001214 -0.001635 0.000000 -0.001377 0.000000
# 2 -0.001214 0.020799 -0.011230 0.000000 0.004538 0.000000
# 3 -0.001635 -0.011230 0.021866 0.000000 -0.009481 0.000000
# 4 0.000000 0.000000 0.000000 -0.170377 0.000000 -0.012147
# 5 -0.001377 0.004538 -0.009481 0.000000 0.041025 0.000000
# 6 0.000000 0.000000 0.000000 -0.012147 0.000000 0.076670
#
#
# Mechanical properties :
#
#
# Convention : Reuss Voigt Hill
#
# Bulk Modulus (GPa) = 35.69248 37.32481 36.50864
# Shear Modulus (GPa) = 121.98315 17.28268 69.63291
#
# Velocity S-wave (km/s) = 8.50378 3.20087 6.42495
# Velocity P-wave (km/s) = 10.84336 5.98228 8.75689
#
# Compressibility (1/GPa) = 0.02801711
#
# Stress axis : x y z
#
# Youngs Moduli (GPa) = 74.02076 48.07809 45.73369
#
# Poissons Ratio (x) = 0.05836 0.07477
# Poissons Ratio (y) = 0.08985 0.51359
# Poissons Ratio (z) = 0.12102 0.53992
#
# Static dielectric constant tensor:
#      x y z
#    x 1.562710 0.000000 0.011960 
#    y 0.000000 1.559190 0.000000 
#    z 0.011960 0.000000 1.562360 
# 
# From -- ./inp_files/260791.got.cif
#   From: 2010.05.17/outbox.cif.g08.bks.cpg/sg15_131_cif.got.tgz:260791.got - 2010.06.03 18:47:42.
