data_PCOD9265011
_publ_section_title
;
Structure prediction by ZEFSAII (Michael W. Deem and Ramdas Pophale) SiO2 
 PCOD9265011
Probable space group: C 2/C
;
_chemical_formula_sum "Si O2"
_cell_formula_units_Z 64
_cell_length_a 17.820281
_cell_length_b 25.700182
_cell_length_c 6.013378
_cell_angle_alpha 90.000000
_cell_angle_beta 92.300853
_cell_angle_gamma 90.000000
_cell_volume 2751.813397
_symmetry_space_group_name_H-M "C 2/C"
_symmetry_group_IT_number 15
_symmetry_cell_setting 'monoclinic'
loop_
_space_group_symop_operation_xyz
x,y,z
-x,y,1/2-z
-x,-y,-z
x,-y,1/2+z
1/2+x,1/2+y,z
1/2-x,1/2+y,1/2-z
1/2-x,1/2-y,-z
1/2+x,1/2-y,1/2+z
loop_
_atom_site_type_symbol
_atom_site_label
_atom_site_fract_x
_atom_site_fract_y
_atom_site_fract_z
Si Si1 0.082460 0.926272 0.819179
Si Si2 0.819918 0.379287 0.772410
Si Si3 0.078694 0.711303 0.221119
Si Si4 0.425816 0.311645 0.586418
Si Si5 0.374428 0.018853 0.131007
Si Si6 0.225764 0.956161 0.065835
Si Si7 0.680015 0.381275 0.443531
Si Si8 0.830568 0.225355 0.466740
O O1 0.077689 0.873718 0.972790
O O2 0.116446 0.903104 0.597186
O O3 0.000000 0.947592 0.750000
O O4 0.147748 0.963788 0.921978
O O5 0.860604 0.328529 0.867989
O O6 0.877231 0.419308 0.661830
O O7 0.755680 0.367408 0.587481
O O8 0.777117 0.412748 0.951605
O O9 0.111210 0.730155 0.460224
O O10 0.000000 0.683955 0.250000
O O11 0.065426 0.763378 0.078239
O O12 0.500000 0.310286 0.750000
O O13 0.353098 0.296845 0.728785
O O14 0.401855 0.996730 0.380973
O O15 0.285135 0.002063 0.118175
O O16 0.200171 0.926543 0.281075
O O17 0.657623 0.323631 0.363969
O O18 0.750000 0.250000 0.500000
#
# Coordination Sequence:
#
# PCOD9265011 Si02
#       8
#     8   8   8   8   8   8   8   8
#     4   9  20  36  56  87 127 163 212 262 316 397
#     4  10  22  37  58  92 118 156 212 269 318 387
#     4  12  24  39  60  87 130 175 215 256 328 382
#     4  10  21  39  56  83 129 177 215 252 319 390
#     4  10  20  39  67  95 125 163 211 279 346 399
#     4  10  20  36  62  88 119 158 210 272 340 392
#     4  10  19  36  56  86 117 159 209 259 316 383
#     4  11  22  35  58  87 123 164 212 267 307 381
#
# _framework density 23.257390000000001
#
# number of rings (size 3 to 8) (size 9 to 14) (size 15 to 20)
#    0.000    1.750    3.750    0.750    1.750    1.000 
#    0.000    0.000    0.000    9.750    0.000    0.000 
#    0.000    0.000    0.000    0.000    0.000    0.000 
#
# Total GULP energy -178439.246309 kJ/mol
# GULP energy per Si atom -5576.226447 kJ/mol
# Density = 2.320446 g / cm^3
# Si number density = 23.257390 Si / 1000 Ang^3
#
#
#
# Elastic Constant Matrix: (Units=GPa)
#
#
# Indices 1 2 3 4 5 6 
#
# 1 62.6424 11.2302 10.9660 0.0000 6.1923 0.0000
# 2 11.2302 81.3738 12.2891 0.0000 7.5765 0.0000
# 3 10.9660 12.2891 52.8530 0.0000 -2.6202 0.0000
# 4 0.0000 0.0000 0.0000 25.2170 0.0000 5.9645
# 5 6.1923 7.5765 -2.6202 0.0000 19.8978 0.0000
# 6 0.0000 0.0000 0.0000 5.9645 0.0000 24.9858
#
#
#
# Elastic Compliance Matrix: (Units=1/GPa)
#
#
# Indices 1 2 3 4 5 6 
#
# 1 0.017358 -0.001361 -0.003550 0.000000 -0.005351 0.000000
# 2 -0.001361 0.013418 -0.003090 0.000000 -0.005092 0.000000
# 3 -0.003550 -0.003090 0.020623 0.000000 0.004997 0.000000
# 4 0.000000 0.000000 0.000000 0.042029 0.000000 -0.010033
# 5 -0.005351 -0.005092 0.004997 0.000000 0.054519 0.000000
# 6 0.000000 0.000000 0.000000 -0.010033 0.000000 0.042418
#
#
# Mechanical properties :
#
#
# Convention : Reuss Voigt Hill
#
# Bulk Modulus (GPa) = 28.25147 29.53774 28.89461
# Shear Modulus (GPa) = 22.91836 24.84572 23.88204
#
# Velocity S-wave (km/s) = 3.14255 3.27202 3.20794
# Velocity P-wave (km/s) = 5.03400 5.19642 5.11586
#
# Compressibility (1/GPa) = 0.03539638
#
# Stress axis : x y z
#
# Youngs Moduli (GPa) = 57.60994 74.52911 48.48917
#
# Poissons Ratio (x) = 0.10145 0.17215
# Poissons Ratio (y) = 0.07842 0.14982
# Poissons Ratio (z) = 0.20453 0.23028
#
# Static dielectric constant tensor:
#      x y z
#    x 1.882460 0.000000 0.031480 
#    y 0.000000 1.906150 0.000000 
#    z 0.031480 0.000000 1.996240 
# 
# From -- ./inp_files/12185.got.cif
#   From: 2010.05.17/outbox.cif.g08.bks.cpg/sg15_7_cif.got.tgz:12185.got - 2010.06.03 18:47:42.
