data_PCOD9265001
_publ_section_title
;
Structure prediction by ZEFSAII (Michael W. Deem and Ramdas Pophale) SiO2 
 PCOD9265001
Probable space group: C 2/C
;
_chemical_formula_sum "Si O2"
_cell_formula_units_Z 56
_cell_length_a 9.025958
_cell_length_b 29.136081
_cell_length_c 13.626319
_cell_angle_alpha 90.000000
_cell_angle_beta 54.918559
_cell_angle_gamma 90.000000
_cell_volume 2932.477000
_symmetry_space_group_name_H-M "C 2/C"
_symmetry_group_IT_number 15
_symmetry_cell_setting 'monoclinic'
loop_
_space_group_symop_operation_xyz
x,y,z
-x,y,1/2-z
-x,-y,-z
x,-y,1/2+z
1/2+x,1/2+y,z
1/2-x,1/2+y,1/2-z
1/2-x,1/2-y,-z
1/2+x,1/2-y,1/2+z
loop_
_atom_site_type_symbol
_atom_site_label
_atom_site_fract_x
_atom_site_fract_y
_atom_site_fract_z
Si Si1 0.020768 0.468529 0.584571
Si Si2 0.300914 0.515071 0.147453
Si Si3 0.190566 0.364060 0.217542
Si Si4 0.313330 0.879035 0.053538
Si Si5 0.678548 0.245161 0.741668
Si Si6 0.417649 0.772384 0.995255
Si Si7 0.493636 0.579029 0.545701
O O1 0.190896 0.484995 0.585920
O O2 0.045536 0.416507 0.539538
O O3 0.000000 0.500000 0.500000
O O4 0.845330 0.475623 0.715940
O O5 0.407993 0.467929 0.123083
O O6 0.424833 0.559550 0.085540
O O7 0.219837 0.381907 0.317108
O O8 0.196247 0.309375 0.215646
O O9 0.337536 0.384767 0.089969
O O10 0.000000 0.380392 0.250000
O O11 0.134986 0.894865 0.062054
O O12 0.379097 0.827173 0.010422
O O13 0.500000 0.262268 0.750000
O O14 0.878811 0.263857 0.629144
O O15 0.617477 0.246929 0.880146
O O16 0.250000 0.750000 0.000000
#
# Coordination Sequence:
#
# PCOD9265001 Si02
#       7
#     8   8   8   8   8   8   8
#     4  10  20  37  60  85 120 159 199 252 306 361
#     4   9  21  36  55  85 119 155 201 245 304 371
#     4  10  21  35  62  87 116 158 208 250 302 371
#     4  10  22  38  60  89 122 157 209 253 310 371
#     4  10  22  42  64  93 129 170 211 262 327 391
#     4  11  22  41  65  98 128 168 219 268 323 392
#     4  10  19  36  56  82 118 153 198 255 296 358
#
# _framework density 19.096484
#
# number of rings (size 3 to 8) (size 9 to 14) (size 15 to 20)
#    0.000    2.000    0.000    3.000    4.000    3.429 
#   12.857    2.143    0.000    0.000    0.000    0.000 
#    0.000    0.000    0.000    0.000    0.000    0.000 
#
# Total GULP energy -155963.387361 kJ/mol
# GULP energy per Si atom -5570.120977 kJ/mol
# Density = 1.905302 g / cm^3
# Si number density = 19.096484 Si / 1000 Ang^3
#
#
#
# Elastic Constant Matrix: (Units=GPa)
#
#
# Indices 1 2 3 4 5 6 
#
# 1 87.6016 50.8646 60.0240 0.0000 -16.6657 0.0000
# 2 50.8646 59.6764 51.1751 0.0000 6.5845 0.0000
# 3 60.0240 51.1751 89.9997 0.0000 -15.6789 0.0000
# 4 0.0000 0.0000 0.0000 32.0372 0.0000 -9.6681
# 5 -16.6657 6.5845 -15.6789 0.0000 31.3147 0.0000
# 6 0.0000 0.0000 0.0000 -9.6681 0.0000 33.7015
#
#
#
# Elastic Compliance Matrix: (Units=1/GPa)
#
#
# Indices 1 2 3 4 5 6 
#
# 1 0.035717 -0.032380 -0.000999 0.000000 0.025317 0.000000
# 2 -0.032380 0.074455 -0.029000 0.000000 -0.047408 0.000000
# 3 -0.000999 -0.029000 0.032031 0.000000 0.021604 0.000000
# 4 0.000000 0.000000 0.000000 0.034172 0.000000 0.009803
# 5 0.025317 -0.047408 0.021604 0.000000 0.066193 0.000000
# 6 0.000000 0.000000 0.000000 0.009803 0.000000 0.032485
#
#
# Mechanical properties :
#
#
# Convention : Reuss Voigt Hill
#
# Bulk Modulus (GPa) = 57.32117 62.37833 59.84975
# Shear Modulus (GPa) = 12.32666 24.42496 18.37581
#
# Velocity S-wave (km/s) = 2.54341 3.58023 3.10540
# Velocity P-wave (km/s) = 6.22150 7.05879 6.65333
#
# Compressibility (1/GPa) = 0.01744556
#
# Stress axis : x y z
#
# Youngs Moduli (GPa) = 27.99788 13.43088 31.22008
#
# Poissons Ratio (x) = 0.43489 0.03118
# Poissons Ratio (y) = 0.90657 0.90538
# Poissons Ratio (z) = 0.02796 0.38950
#
# Static dielectric constant tensor:
#      x y z
#    x 1.726300 0.000000 -0.021290 
#    y 0.000000 1.645770 0.000000 
#    z -0.021290 0.000000 1.675250 
# 
# From -- ./inp_files/82450.got.cif
#   From: 2010.05.17/outbox.cif.g08.bks.cpg/sg15_42_cif.got.tgz:82450.got - 2010.06.03 18:47:42.
