data_PCOD9265009
_publ_section_title
;
Structure prediction by ZEFSAII (Michael W. Deem and Ramdas Pophale) SiO2 
 PCOD9265009
Probable space group: C 2/C
;
_chemical_formula_sum "Si O2"
_cell_formula_units_Z 48
_cell_length_a 20.151579
_cell_length_b 7.667990
_cell_length_c 16.062408
_cell_angle_alpha 90.000000
_cell_angle_beta 67.219325
_cell_angle_gamma 90.000000
_cell_volume 2288.385958
_symmetry_space_group_name_H-M "C 2/C"
_symmetry_group_IT_number 15
_symmetry_cell_setting 'monoclinic'
loop_
_space_group_symop_operation_xyz
x,y,z
-x,y,1/2-z
-x,-y,-z
x,-y,1/2+z
1/2+x,1/2+y,z
1/2-x,1/2+y,1/2-z
1/2-x,1/2-y,-z
1/2+x,1/2-y,1/2+z
loop_
_atom_site_type_symbol
_atom_site_label
_atom_site_fract_x
_atom_site_fract_y
_atom_site_fract_z
Si Si1 0.167334 0.806074 0.549743
Si Si2 0.205731 0.180821 0.598691
Si Si3 0.430411 0.228587 0.241004
Si Si4 0.924234 0.333604 0.261065
Si Si5 0.798622 0.397349 0.210656
Si Si6 0.340080 0.707578 0.636749
O O1 0.250000 0.750000 0.500000
O O2 0.122033 0.680512 0.631602
O O3 0.138220 0.812068 0.469496
O O4 0.173324 0.991765 0.592340
O O5 0.250000 0.250000 0.500000
O O6 0.136317 0.284380 0.663172
O O7 0.261457 0.180344 0.647537
O O8 0.500000 0.308666 0.250000
O O9 0.402003 0.331258 0.174236
O O10 0.447261 0.025445 0.216078
O O11 0.864686 0.289077 0.218723
O O12 0.000000 0.244634 0.250000
O O13 0.733163 0.398749 0.309100
O O14 0.820862 0.591483 0.170678
#
# Coordination Sequence:
#
# PCOD9265009 Si02
#       6
#     8   8   8   8   8   8
#     4  12  21  38  60  90 116 145 203 248 283 345
#     4  11  23  36  60  85 113 152 195 246 291 346
#     4   9  21  42  59  82 121 158 190 232 297 355
#     4  10  21  39  61  86 119 156 191 241 297 347
#     4  10  19  36  56  85 112 153 192 236 293 343
#     4  10  21  35  62  86 114 154 195 242 288 342
#
# _framework density 20.975484000000002
#
# number of rings (size 3 to 8) (size 9 to 14) (size 15 to 20)
#    0.000    1.667    3.333    1.000    4.667    0.667 
#    3.000    3.333    0.000    0.000    0.000    0.000 
#    0.000    0.000    0.000    0.000    0.000    0.000 
#
# Total GULP energy -133760.721559 kJ/mol
# GULP energy per Si atom -5573.363398 kJ/mol
# Density = 2.092774 g / cm^3
# Si number density = 20.975484 Si / 1000 Ang^3
#
#
#
# Elastic Constant Matrix: (Units=GPa)
#
#
# Indices 1 2 3 4 5 6 
#
# 1 189.9028 11.3745 54.2870 0.0000 28.3108 0.0000
# 2 11.3745 48.2398 2.2889 0.0000 11.8189 0.0002
# 3 54.2870 2.2889 107.7942 0.0000 27.3537 0.0000
# 4 0.0000 0.0000 0.0000 14.7168 0.0000 -4.2915
# 5 28.3108 11.8189 27.3537 0.0000 23.0881 0.0000
# 6 0.0000 0.0002 0.0000 -4.2915 0.0000 8.8071
#
#
#
# Elastic Compliance Matrix: (Units=1/GPa)
#
#
# Indices 1 2 3 4 5 6 
#
# 1 0.006690 -0.000017 -0.001844 0.000000 -0.006010 0.000000
# 2 -0.000017 0.024771 0.003854 0.000000 -0.017225 -0.000001
# 3 -0.001844 0.003854 0.014371 0.000000 -0.016738 0.000000
# 4 0.000000 0.000000 0.000000 0.079203 0.000000 0.038593
# 5 -0.006010 -0.017225 -0.016738 0.000000 0.079330 0.000001
# 6 0.000000 -0.000001 0.000000 0.038593 0.000001 0.132350
#
#
# Mechanical properties :
#
#
# Convention : Reuss Voigt Hill
#
# Bulk Modulus (GPa) = 20.07340 53.53750 36.80545
# Shear Modulus (GPa) = 14.31289 27.85484 21.08387
#
# Velocity S-wave (km/s) = 2.61504 3.64809 3.17388
# Velocity P-wave (km/s) = 4.32535 6.58210 5.56923
#
# Compressibility (1/GPa) = 0.04981718
#
# Stress axis : x y z
#
# Youngs Moduli (GPa) = 149.47868 40.36958 69.58419
#
# Poissons Ratio (x) = 0.00071 0.12829
# Poissons Ratio (y) = 0.00261 -0.26816
# Poissons Ratio (z) = 0.27560 -0.15557
#
# Static dielectric constant tensor:
#      x y z
#    x 1.824550 0.000000 0.041640 
#    y 0.000000 1.940780 0.000000 
#    z 0.041640 0.000000 1.808620 
# 
# From -- ./inp_files/166147.got.cif
#   From: 2010.05.17/outbox.cif.g08.bks.cpg/sg15_84_cif.got.tgz:166147.got - 2010.06.03 18:47:42.
