data_PCOD9265192
_publ_section_title
;
Structure prediction by ZEFSAII (Michael W. Deem and Ramdas Pophale) SiO2 
 PCOD9265192
Probable space group: C 2/C
;
_chemical_formula_sum "Si O2"
_cell_formula_units_Z 56
_cell_length_a 9.955691
_cell_length_b 21.722031
_cell_length_c 17.801830
_cell_angle_alpha 90.000000
_cell_angle_beta 52.003568
_cell_angle_gamma 90.000000
_cell_volume 3033.819650
_symmetry_space_group_name_H-M "C 2/C"
_symmetry_group_IT_number 15
_symmetry_cell_setting 'monoclinic'
loop_
_space_group_symop_operation_xyz
x,y,z
-x,y,1/2-z
-x,-y,-z
x,-y,1/2+z
1/2+x,1/2+y,z
1/2-x,1/2+y,1/2-z
1/2-x,1/2-y,-z
1/2+x,1/2-y,1/2+z
loop_
_atom_site_type_symbol
_atom_site_label
_atom_site_fract_x
_atom_site_fract_y
_atom_site_fract_z
Si Si1 0.699131 0.000009 0.915591
Si Si2 0.636076 0.777227 0.315836
Si Si3 0.665445 0.596628 0.744545
Si Si4 0.945042 0.053326 0.958820
Si Si5 0.442087 0.665951 0.059298
Si Si6 0.632297 0.630115 0.138010
Si Si7 0.743966 0.241858 0.611462
O O1 0.770427 0.931851 0.879387
O O2 0.743165 0.039571 0.827029
O O3 0.804106 0.027237 0.950121
O O4 0.500000 0.000000 0.000000
O O5 0.712205 0.844352 0.304429
O O6 0.662732 0.723205 0.368444
O O7 0.433914 0.778863 0.365949
O O8 0.723289 0.758604 0.207687
O O9 0.500000 0.609959 0.750000
O O10 0.599176 0.577171 0.850585
O O11 0.874363 0.114036 0.026234
O O12 0.000000 0.000000 0.000000
O O13 0.518468 0.627739 0.102819
O O14 0.601168 0.699777 0.965463
O O15 0.500000 0.644997 0.250000
O O16 0.760685 0.686902 0.083338
#
# Coordination Sequence:
#
# PCOD9265192 Si02
#       7
#     8   8   8   8   8   8   8
#     4  11  26  41  61  90 123 163 206 253 309 371
#     4  10  19  36  58  91 123 152 202 253 305 363
#     4  10  23  42  61  85 124 166 202 245 317 377
#     4  11  22  42  67  90 120 165 212 251 307 364
#     4  11  21  35  65  91 124 155 204 259 303 359
#     4  11  19  37  62  88 123 160 202 254 307 363
#     4  10  20  34  61  96 117 154 203 255 307 357
#
# _framework density 18.458580000000001
#
# number of rings (size 3 to 8) (size 9 to 14) (size 15 to 20)
#    0.000    1.429    5.714    3.000    4.000    0.000 
#    0.000    4.286    0.000    0.000    0.000    0.000 
#    0.000    0.000    0.000    0.000    0.000    0.000 
#
# Total GULP energy -156129.199002 kJ/mol
# GULP energy per Si atom -5576.042821 kJ/mol
# Density = 1.841657 g / cm^3
# Si number density = 18.458580 Si / 1000 Ang^3
#
#
#
# Elastic Constant Matrix: (Units=GPa)
#
#
# Indices 1 2 3 4 5 6 
#
# 1 27.0238 38.2371 23.2292 0.0000 2.3709 0.0000
# 2 38.2371 135.0647 45.3876 0.0000 -2.8365 0.0000
# 3 23.2292 45.3876 103.8399 0.0000 14.0390 0.0000
# 4 0.0000 0.0000 0.0000 23.8880 0.0000 3.6755
# 5 2.3709 -2.8365 14.0390 0.0000 21.0340 0.0000
# 6 0.0000 0.0000 0.0000 3.6755 0.0000 34.2142
#
#
#
# Elastic Compliance Matrix: (Units=1/GPa)
#
#
# Indices 1 2 3 4 5 6 
#
# 1 0.067233 -0.016789 -0.007003 0.000000 -0.005168 0.000000
# 2 -0.016789 0.013200 -0.002759 0.000000 0.005514 0.000000
# 3 -0.007003 -0.002759 0.013571 0.000000 -0.008641 0.000000
# 4 0.000000 0.000000 0.000000 0.042566 0.000000 -0.004573
# 5 -0.005168 0.005514 -0.008641 0.000000 0.054636 0.000000
# 6 0.000000 0.000000 0.000000 -0.004573 0.000000 0.029719
#
#
# Mechanical properties :
#
#
# Convention : Reuss Voigt Hill
#
# Bulk Modulus (GPa) = 24.44918 53.29292 38.87105
# Shear Modulus (GPa) = 17.38158 26.43220 21.90689
#
# Velocity S-wave (km/s) = 3.07197 3.78825 3.44875
# Velocity P-wave (km/s) = 5.08496 6.93316 6.07970
#
# Compressibility (1/GPa) = 0.04090117
#
# Stress axis : x y z
#
# Youngs Moduli (GPa) = 14.87364 75.75790 73.68584
#
# Poissons Ratio (x) = 1.27190 0.51603
# Poissons Ratio (y) = 0.24971 0.20333
# Poissons Ratio (z) = 0.10416 0.20904
#
# Static dielectric constant tensor:
#      x y z
#    x 1.625160 0.000000 0.026750 
#    y 0.000000 1.658790 0.000000 
#    z 0.026750 0.000000 1.669460 
# 
# From -- ./inp_files/192014.got.cif
#   From: 2010.05.17/outbox.cif.g08.bks.cpg/sg15_97_cif.got.tgz:192014.got - 2010.06.03 18:47:42.
