data_PCOD9265732
_publ_section_title
;
Structure prediction by ZEFSAII (Michael W. Deem and Ramdas Pophale) SiO2 
 PCOD9265732
Probable space group: C 2/C
;
_chemical_formula_sum "Si O2"
_cell_formula_units_Z 56
_cell_length_a 8.113156
_cell_length_b 27.045290
_cell_length_c 11.273210
_cell_angle_alpha 90.000000
_cell_angle_beta 74.705116
_cell_angle_gamma 90.000000
_cell_volume 2385.985274
_symmetry_space_group_name_H-M "C 2/C"
_symmetry_group_IT_number 15
_symmetry_cell_setting 'monoclinic'
loop_
_space_group_symop_operation_xyz
x,y,z
-x,y,1/2-z
-x,-y,-z
x,-y,1/2+z
1/2+x,1/2+y,z
1/2-x,1/2+y,1/2-z
1/2-x,1/2-y,-z
1/2+x,1/2-y,1/2+z
loop_
_atom_site_type_symbol
_atom_site_label
_atom_site_fract_x
_atom_site_fract_y
_atom_site_fract_z
Si Si1 0.915935 0.370197 0.152102
Si Si2 0.173924 0.533105 0.962898
Si Si3 0.687065 0.128952 0.268595
Si Si4 0.702821 0.981004 0.728226
Si Si5 0.303607 0.716953 0.821545
Si Si6 0.611885 0.309705 0.934543
Si Si7 0.270519 0.191052 0.005231
O O1 0.000000 0.396945 0.250000
O O2 0.875254 0.409589 0.056485
O O3 0.760971 0.334466 0.222169
O O4 0.061655 0.331128 0.085905
O O5 0.267001 0.517693 0.820446
O O6 0.259553 0.523939 0.077428
O O7 0.000000 0.500000 0.000000
O O8 0.500000 0.134660 0.250000
O O9 0.717751 0.072098 0.289987
O O10 0.817160 0.142989 0.142375
O O11 0.713810 0.167330 0.368253
O O12 0.500000 0.989752 0.750000
O O13 0.500000 0.730567 0.750000
O O14 0.170161 0.762825 0.840156
O O15 0.298981 0.701902 0.959695
O O16 0.418038 0.322014 0.000998
O O17 0.250000 0.250000 0.000000
#
# Coordination Sequence:
#
# PCOD9265732 Si02
#       7
#     8   8   8   8   8   8   8
#     4  12  24  39  64  96 135 175 227 282 341 405
#     4  10  19  36  64  98 133 172 222 284 345 411
#     4  11  23  40  66  94 132 178 227 274 340 413
#     4   9  18  35  62  97 131 168 223 280 342 411
#     4  11  24  41  62  89 128 173 224 276 339 400
#     4  11  24  40  62  88 127 177 221 277 330 400
#     4  12  25  40  61  93 131 175 229 280 333 401
#
# _framework density 23.470386000000001
#
# number of rings (size 3 to 8) (size 9 to 14) (size 15 to 20)
#    0.000    1.143    1.429    7.286    6.000    0.000 
#    0.000    0.000    0.000    3.429    0.000   35.000 
#    0.000    0.000    0.000    0.000    0.000    0.000 
#
# Total GULP energy -156051.429633 kJ/mol
# GULP energy per Si atom -5573.265344 kJ/mol
# Density = 2.341697 g / cm^3
# Si number density = 23.470386 Si / 1000 Ang^3
#
#
#
# Elastic Constant Matrix: (Units=GPa)
#
#
# Indices 1 2 3 4 5 6 
#
# 1 48.7351 30.5068 13.4316 0.0000 -13.0041 0.0000
# 2 30.5068 131.6631 37.2414 0.0000 0.2713 0.0000
# 3 13.4316 37.2414 114.3940 0.0000 14.4320 0.0000
# 4 0.0000 0.0000 0.0000 35.7167 0.0000 4.7840
# 5 -13.0041 0.2713 14.4320 0.0000 42.1042 0.0000
# 6 0.0000 0.0000 0.0000 4.7840 0.0000 12.3133
#
#
#
# Elastic Compliance Matrix: (Units=1/GPa)
#
#
# Indices 1 2 3 4 5 6 
#
# 1 0.027214 -0.005605 -0.002546 0.000000 0.009314 0.000000
# 2 -0.005605 0.009554 -0.002327 0.000000 -0.000995 0.000000
# 3 -0.002546 -0.002327 0.010343 0.000000 -0.004316 0.000000
# 4 0.000000 0.000000 0.000000 0.029535 0.000000 -0.011475
# 5 0.009314 -0.000995 -0.004316 0.000000 0.028113 0.000000
# 6 0.000000 0.000000 0.000000 -0.011475 0.000000 0.085671
#
#
# Mechanical properties :
#
#
# Convention : Reuss Voigt Hill
#
# Bulk Modulus (GPa) = 38.23141 50.79463 44.51302
# Shear Modulus (GPa) = 22.71658 32.26768 27.49213
#
# Velocity S-wave (km/s) = 3.11446 3.71189 3.42622
# Velocity P-wave (km/s) = 5.40904 6.32928 5.88717
#
# Compressibility (1/GPa) = 0.02615650
#
# Stress axis : x y z
#
# Youngs Moduli (GPa) = 36.74526 104.66870 96.68694
#
# Poissons Ratio (x) = 0.58664 0.24614
# Poissons Ratio (y) = 0.20595 0.22496
# Poissons Ratio (z) = 0.09355 0.24353
#
# Static dielectric constant tensor:
#      x y z
#    x 4.144940 0.000000 -0.273540 
#    y 0.000000 2.217000 0.000000 
#    z -0.273540 0.000000 2.018330 
# 
# From -- ./inp_files/81265.got.cif
#   From: 2010.05.17/outbox.cif.g08.bks.cpg/sg15_41_cif.got.tgz:81265.got - 2010.06.03 18:47:42.
