data_PCOD9265234
_publ_section_title
;
Structure prediction by ZEFSAII (Michael W. Deem and Ramdas Pophale) SiO2 
 PCOD9265234
Probable space group: C 2/C
;
_chemical_formula_sum "Si O2"
_cell_formula_units_Z 48
_cell_length_a 15.536309
_cell_length_b 9.240098
_cell_length_c 14.817001
_cell_angle_alpha 90.000000
_cell_angle_beta 74.794195
_cell_angle_gamma 90.000000
_cell_volume 2052.615089
_symmetry_space_group_name_H-M "C 2/C"
_symmetry_group_IT_number 15
_symmetry_cell_setting 'monoclinic'
loop_
_space_group_symop_operation_xyz
x,y,z
-x,y,1/2-z
-x,-y,-z
x,-y,1/2+z
1/2+x,1/2+y,z
1/2-x,1/2+y,1/2-z
1/2-x,1/2-y,-z
1/2+x,1/2-y,1/2+z
loop_
_atom_site_type_symbol
_atom_site_label
_atom_site_fract_x
_atom_site_fract_y
_atom_site_fract_z
Si Si1 0.039422 0.995917 0.589331
Si Si2 0.290823 0.339326 0.386228
Si Si3 0.037213 0.662124 0.637413
Si Si4 0.131632 0.158206 0.836101
Si Si5 0.206897 0.489254 0.635747
Si Si6 0.870292 0.515867 0.135767
O O1 0.051230 0.829271 0.611314
O O2 0.957179 0.070799 0.663123
O O3 0.000000 0.000000 0.500000
O O4 0.127840 0.087315 0.583507
O O5 0.319460 0.327429 0.272783
O O6 0.277600 0.169508 0.410261
O O7 0.205209 0.442989 0.404774
O O8 0.958949 0.580720 0.605092
O O9 0.000000 0.656541 0.750000
O O10 0.129925 0.576991 0.606054
O O11 0.111089 0.314602 0.884546
O O12 0.199520 0.072206 0.881888
O O13 0.168067 0.484100 0.749921
#
# Coordination Sequence:
#
# PCOD9265234 Si02
#       6
#     8   8   8   8   8   8
#     4  12  25  38  52  78 112 152 193 228 268 320
#     4  10  19  36  59  84 111 142 179 226 276 328
#     4  10  19  36  59  84 111 142 179 226 276 328
#     4  10  19  36  59  84 111 142 179 226 276 328
#     4   9  18  33  61  92 112 135 178 227 277 330
#     4   9  18  33  61  92 112 135 178 227 277 330
#
# _framework density 23.384803000000002
#
# number of rings (size 3 to 8) (size 9 to 14) (size 15 to 20)
#    0.000    2.000    0.000    4.500    0.000    8.000 
#    0.000   10.000    0.000    0.000    0.000    0.000 
#    0.000    0.000    0.000    0.000    0.000    0.000 
#
# Total GULP energy -134315.785221 kJ/mol
# GULP energy per Si atom -5596.491051 kJ/mol
# Density = 2.333158 g / cm^3
# Si number density = 23.384803 Si / 1000 Ang^3
#
#
#
# Elastic Constant Matrix: (Units=GPa)
#
#
# Indices 1 2 3 4 5 6 
#
# 1 208.5087 116.1860 14.6194 0.0000 32.4078 0.0000
# 2 116.1860 222.5690 15.4666 0.0000 11.4789 0.0000
# 3 14.6194 15.4666 36.6692 0.0000 0.1637 0.0000
# 4 0.0000 0.0000 0.0000 28.9963 0.0000 3.5849
# 5 32.4078 11.4789 0.1637 0.0000 26.3061 0.0000
# 6 0.0000 0.0000 0.0000 3.5849 0.0000 45.2066
#
#
#
# Elastic Compliance Matrix: (Units=1/GPa)
#
#
# Indices 1 2 3 4 5 6 
#
# 1 0.008385 -0.003813 -0.001696 0.000000 -0.008655 0.000000
# 2 -0.003813 0.006471 -0.001218 0.000000 0.001881 0.000000
# 3 -0.001696 -0.001218 0.028450 0.000000 0.002444 0.000000
# 4 0.000000 0.000000 0.000000 0.034829 0.000000 -0.002762
# 5 -0.008655 0.001881 0.002444 0.000000 0.047841 0.000000
# 6 0.000000 0.000000 0.000000 -0.002762 0.000000 0.022340
#
#
# Mechanical properties :
#
#
# Convention : Reuss Voigt Hill
#
# Bulk Modulus (GPa) = 33.49811 84.47678 58.98745
# Shear Modulus (GPa) = 29.11745 41.53344 35.32544
#
# Velocity S-wave (km/s) = 3.53249 4.21894 3.89088
# Velocity P-wave (km/s) = 5.56721 7.74181 6.74275
#
# Compressibility (1/GPa) = 0.02985243
#
# Stress axis : x y z
#
# Youngs Moduli (GPa) = 119.26507 154.53730 35.14972
#
# Poissons Ratio (x) = 0.58921 0.05962
# Poissons Ratio (y) = 0.45473 0.04280
# Poissons Ratio (z) = 0.20228 0.18818
#
# Static dielectric constant tensor:
#      x y z
#    x 1.834240 0.000000 -0.104090 
#    y 0.000000 1.866400 0.000000 
#    z -0.104090 0.000000 2.085500 
# 
# From -- ./inp_files/202974.got.cif
#   From: 2010.05.17/outbox.cif.g08.bks.cpg/sg15_102_cif.got.tgz:202974.got - 2010.06.03 18:47:42.
