data_PCOD9265398
_publ_section_title
;
Structure prediction by ZEFSAII (Michael W. Deem and Ramdas Pophale) SiO2 
 PCOD9265398
Probable space group: C 2/C
;
_chemical_formula_sum "Si O2"
_cell_formula_units_Z 48
_cell_length_a 13.674479
_cell_length_b 30.504365
_cell_length_c 9.796856
_cell_angle_alpha 90.000000
_cell_angle_beta 29.903003
_cell_angle_gamma 90.000000
_cell_volume 2037.293342
_symmetry_space_group_name_H-M "C 2/C"
_symmetry_group_IT_number 15
_symmetry_cell_setting 'monoclinic'
loop_
_space_group_symop_operation_xyz
x,y,z
-x,y,1/2-z
-x,-y,-z
x,-y,1/2+z
1/2+x,1/2+y,z
1/2-x,1/2+y,1/2-z
1/2-x,1/2-y,-z
1/2+x,1/2-y,1/2+z
loop_
_atom_site_type_symbol
_atom_site_label
_atom_site_fract_x
_atom_site_fract_y
_atom_site_fract_z
Si Si1 0.145421 0.487675 0.446841
Si Si2 0.328605 0.724977 0.038006
Si Si3 0.428416 0.103963 0.489087
Si Si4 0.816670 0.823933 0.805254
Si Si5 0.270884 0.805708 0.293446
Si Si6 0.691973 0.919020 0.918765
O O1 0.217900 0.438332 0.332304
O O2 0.273822 0.531159 0.319586
O O3 0.000000 0.500000 0.500000
O O4 0.000000 0.482110 0.750000
O O5 0.231783 0.691561 0.262062
O O6 0.367840 0.766196 0.092289
O O7 0.500000 0.698987 0.750000
O O8 0.250000 0.750000 0.000000
O O9 0.336831 0.147425 0.659802
O O10 0.609602 0.090883 0.367415
O O11 0.500000 0.112889 0.250000
O O12 0.815208 0.876739 0.814546
O O13 0.037144 0.805467 0.546596
O O14 0.706275 0.805008 0.070862
O O15 0.500000 0.919657 0.250000
#
# Coordination Sequence:
#
# PCOD9265398 Si02
#       6
#     8   8   8   8   8   8
#     4   8  16  31  54  86 120 150 195 245 284 335
#     4  12  26  45  65  88 119 154 195 247 299 355
#     4  10  20  35  61  91 119 158 202 245 286 345
#     4  11  25  41  61  89 121 158 193 246 296 357
#     4  11  24  43  60  87 124 157 196 239 300 358
#     4  10  19  36  60  89 119 157 201 241 292 350
#
# _framework density 23.560670999999999
#
# number of rings (size 3 to 8) (size 9 to 14) (size 15 to 20)
#    0.000    1.667    3.333    1.000    4.667    0.000 
#    3.000    0.833    0.000    0.000    4.333    0.000 
#    0.000    0.000    0.000    0.000    0.000    0.000 
#
# Total GULP energy -133853.888415 kJ/mol
# GULP energy per Si atom -5577.245351 kJ/mol
# Density = 2.350705 g / cm^3
# Si number density = 23.560671 Si / 1000 Ang^3
#
#
#
# Elastic Constant Matrix: (Units=GPa)
#
#
# Indices 1 2 3 4 5 6 
#
# 1 69.8128 10.8402 43.8982 0.0000 31.1508 0.0000
# 2 10.8402 193.1486 46.7304 0.0000 10.7951 0.0000
# 3 43.8982 46.7304 114.3012 0.0000 44.8863 0.0000
# 4 0.0000 0.0000 0.0000 -38.9470 0.0000 5.3603
# 5 31.1508 10.7951 44.8863 0.0000 42.6739 0.0000
# 6 0.0000 0.0000 0.0000 5.3603 0.0000 27.0303
#
#
#
# Elastic Compliance Matrix: (Units=1/GPa)
#
#
# Indices 1 2 3 4 5 6 
#
# 1 0.022135 0.000375 -0.003871 0.000000 -0.012181 0.000000
# 2 0.000375 0.005828 -0.003136 0.000000 0.001550 0.000000
# 3 -0.003871 -0.003136 0.017202 0.000000 -0.014475 0.000000
# 4 0.000000 0.000000 0.000000 -0.024994 0.000000 0.004956
# 5 -0.012181 0.001550 -0.014475 0.000000 0.047159 0.000000
# 6 0.000000 0.000000 0.000000 0.004956 0.000000 0.036013
#
#
# Mechanical properties :
#
#
# Convention : Reuss Voigt Hill
#
# Bulk Modulus (GPa) = 31.34559 64.46670 47.90614
# Shear Modulus (GPa) = 39.29604 24.53768 31.91686
#
# Velocity S-wave (km/s) = 4.08838 3.23068 3.68457
# Velocity P-wave (km/s) = 5.96821 6.42945 6.20312
#
# Compressibility (1/GPa) = 0.03190241
#
# Stress axis : x y z
#
# Youngs Moduli (GPa) = 45.17696 171.57683 58.13428
#
# Poissons Ratio (x) = -0.06435 0.22503
# Poissons Ratio (y) = -0.01694 0.18228
# Poissons Ratio (z) = 0.17487 0.53798
#
# Static dielectric constant tensor:
#      x y z
#    x 1.980250 0.000000 -0.063010 
#    y 0.000000 2.000930 0.000000 
#    z -0.063010 0.000000 1.892030 
# 
# From -- ./inp_files/43815.got.cif
#   From: 2010.05.17/outbox.cif.g08.bks.cpg/sg15_22_cif.got.tgz:43815.got - 2010.06.03 18:47:42.
