data_PCOD9265771
_publ_section_title
;
Structure prediction by ZEFSAII (Michael W. Deem and Ramdas Pophale) SiO2 
 PCOD9265771
Probable space group: C 2/C
;
_chemical_formula_sum "Si O2"
_cell_formula_units_Z 64
_cell_length_a 15.631376
_cell_length_b 21.436282
_cell_length_c 16.725292
_cell_angle_alpha 90.000000
_cell_angle_beta 34.263009
_cell_angle_gamma 90.000000
_cell_volume 3155.172145
_symmetry_space_group_name_H-M "C 2/C"
_symmetry_group_IT_number 15
_symmetry_cell_setting 'monoclinic'
loop_
_space_group_symop_operation_xyz
x,y,z
-x,y,1/2-z
-x,-y,-z
x,-y,1/2+z
1/2+x,1/2+y,z
1/2-x,1/2+y,1/2-z
1/2-x,1/2-y,-z
1/2+x,1/2-y,1/2+z
loop_
_atom_site_type_symbol
_atom_site_label
_atom_site_fract_x
_atom_site_fract_y
_atom_site_fract_z
Si Si1 0.831954 0.008882 0.210267
Si Si2 0.407563 0.085226 0.195048
Si Si3 0.637471 0.784939 0.700967
Si Si4 0.537318 0.141475 0.932439
Si Si5 0.095101 0.077015 0.102105
Si Si6 0.870859 0.475322 0.484770
Si Si7 0.473279 0.735571 0.977012
Si Si8 0.142405 0.118902 0.897068
O O1 0.880000 0.950375 0.120494
O O2 0.751138 0.060618 0.218029
O O3 0.700225 0.995965 0.378404
O O4 0.970952 0.034200 0.154112
O O5 0.374182 0.139787 0.283578
O O6 0.502653 0.023353 0.144529
O O7 0.504894 0.117238 0.047977
O O8 0.500000 0.764006 0.750000
O O9 0.810864 0.763259 0.556682
O O10 0.598168 0.756528 0.817215
O O11 0.438594 0.092687 0.956055
O O12 0.509399 0.215363 0.963798
O O13 0.704416 0.137677 0.766937
O O14 0.000000 0.106398 0.250000
O O15 0.233434 0.037179 0.030713
O O16 0.156894 0.118779 0.981864
O O17 0.509417 0.666211 0.977301
#
# Coordination Sequence:
#
# PCOD9265771 Si02
#       8
#     8   8   8   8   8   8   8   8
#     4  10  19  38  61  94 121 165 203 246 314 386
#     4  10  19  36  66  90 126 161 211 251 317 379
#     4  11  24  40  61  92 130 165 206 263 318 365
#     4  10  20  40  64  90 116 171 217 252 299 376
#     4  10  24  38  58  94 133 154 196 273 332 363
#     4  10  19  39  64  89 131 160 197 262 321 372
#     4  11  24  43  65  91 124 172 221 257 299 376
#     4  12  21  39  68  87 122 167 220 248 305 388
#
# _framework density 20.284153
#
# number of rings (size 3 to 8) (size 9 to 14) (size 15 to 20)
#    0.000    1.500    3.750    2.250    0.000    3.500 
#    0.000    2.500    0.000    0.000    0.000    0.000 
#    0.000    0.000    0.000    0.000    0.000    0.000 
#
# Total GULP energy -178390.662950 kJ/mol
# GULP energy per Si atom -5574.708217 kJ/mol
# Density = 2.023799 g / cm^3
# Si number density = 20.284153 Si / 1000 Ang^3
#
#
#
# Elastic Constant Matrix: (Units=GPa)
#
#
# Indices 1 2 3 4 5 6 
#
# 1 61.1983 16.0222 13.1782 0.0168 -12.8585 -0.0057
# 2 16.0222 81.6784 29.5862 0.0039 -3.5682 0.0001
# 3 13.1782 29.5862 65.7611 0.0382 -7.1731 -0.0130
# 4 0.0168 0.0039 0.0382 18.7321 -0.0125 -3.4892
# 5 -12.8585 -3.5682 -7.1731 -0.0125 30.3843 0.0034
# 6 -0.0057 0.0001 -0.0130 -3.4892 0.0034 8.6174
#
#
#
# Elastic Compliance Matrix: (Units=1/GPa)
#
#
# Indices 1 2 3 4 5 6 
#
# 1 0.018976 -0.002765 -0.001763 -0.000007 0.007289 0.000004
# 2 -0.002765 0.015031 -0.006306 0.000010 -0.000894 -0.000007
# 3 -0.001763 -0.006306 0.018717 -0.000031 0.002932 0.000014
# 4 -0.000007 0.000010 -0.000031 0.057739 0.000012 0.023379
# 5 0.007289 -0.000894 0.002932 0.000012 0.036584 0.000000
# 6 0.000004 -0.000007 0.000014 0.023379 0.000000 0.125511
#
#
# Mechanical properties :
#
#
# Convention : Reuss Voigt Hill
#
# Bulk Modulus (GPa) = 32.20155 36.24565 34.22360
# Shear Modulus (GPa) = 16.41624 21.53685 18.97655
#
# Velocity S-wave (km/s) = 2.84793 3.26200 3.06197
# Velocity P-wave (km/s) = 5.16952 5.66527 5.42306
#
# Compressibility (1/GPa) = 0.03105441
#
# Stress axis : x y z
#
# Youngs Moduli (GPa) = 52.69938 66.53096 53.42806
#
# Poissons Ratio (x) = 0.18396 0.09422
# Poissons Ratio (y) = 0.14572 0.33690
# Poissons Ratio (z) = 0.09293 0.41953
#
# Static dielectric constant tensor:
#      x y z
#    x 1.703460 0.000000 0.010820 
#    y 0.000000 1.745480 0.000000 
#    z 0.010820 0.000000 1.755440 
# 
# From -- ./inp_files/211952.got.cif
#   From: 2010.05.17/outbox.cif.g08.bks.cpg/sg15_106_cif.got.tgz:211952.got - 2010.06.03 18:47:42.
