data_PCOD9265481
_publ_section_title
;
Structure prediction by ZEFSAII (Michael W. Deem and Ramdas Pophale) SiO2 
 PCOD9265481
Probable space group: C 2/C
;
_chemical_formula_sum "Si O2"
_cell_formula_units_Z 56
_cell_length_a 9.159472
_cell_length_b 15.649408
_cell_length_c 23.628794
_cell_angle_alpha 90.000000
_cell_angle_beta 131.630352
_cell_angle_gamma 90.000000
_cell_volume 2531.569712
_symmetry_space_group_name_H-M "C 2/C"
_symmetry_group_IT_number 15
_symmetry_cell_setting 'monoclinic'
loop_
_space_group_symop_operation_xyz
x,y,z
-x,y,1/2-z
-x,-y,-z
x,-y,1/2+z
1/2+x,1/2+y,z
1/2-x,1/2+y,1/2-z
1/2-x,1/2-y,-z
1/2+x,1/2-y,1/2+z
loop_
_atom_site_type_symbol
_atom_site_label
_atom_site_fract_x
_atom_site_fract_y
_atom_site_fract_z
Si Si1 0.549678 0.850130 0.416286
Si Si2 0.854901 0.227561 0.672834
Si Si3 0.086075 0.688724 0.429945
Si Si4 0.830394 0.572332 0.663069
Si Si5 0.847506 0.111026 0.355156
Si Si6 0.718276 0.331237 0.914170
Si Si7 0.556049 0.405801 0.495522
O O1 0.335684 0.829295 0.383989
O O2 0.567858 0.920196 0.372062
O O3 0.635438 0.762991 0.409291
O O4 0.675023 0.869131 0.503466
O O5 0.939752 0.268066 0.637799
O O6 0.789541 0.309663 0.693443
O O7 0.000000 0.176362 0.750000
O O8 0.250000 0.750000 0.500000
O O9 0.219498 0.603128 0.464913
O O10 0.882573 0.677195 0.408938
O O11 0.766997 0.477326 0.666783
O O12 0.615283 0.616573 0.593829
O O13 0.000000 0.605029 0.750000
O O14 0.935751 0.139571 0.440461
O O15 0.026225 0.110528 0.357551
O O16 0.500000 0.500000 0.500000
#
# Coordination Sequence:
#
# PCOD9265481 Si02
#       7
#     8   8   8   8   8   8   8
#     4  10  20  35  57  88 122 159 193 255 309 362
#     4  10  21  37  58  88 126 159 201 254 316 361
#     4  11  20  34  62  94 115 152 207 259 291 360
#     4  11  21  35  60  88 120 161 203 247 316 374
#     4   9  19  38  63  81 113 171 209 240 297 380
#     4  10  19  36  61  89 115 152 213 254 292 353
#     4   9  19  36  57  80 113 156 198 236 293 363
#
# _framework density 22.120663
#
# number of rings (size 3 to 8) (size 9 to 14) (size 15 to 20)
#    0.000    2.000    2.857    1.286    0.000    2.286 
#    0.000    5.000    0.000    0.000    3.714    0.000 
#    0.000    0.000    0.000    0.000    0.000    0.000 
#
# Total GULP energy -155869.074329 kJ/mol
# GULP energy per Si atom -5566.752655 kJ/mol
# Density = 2.207032 g / cm^3
# Si number density = 22.120663 Si / 1000 Ang^3
#
#
#
# Elastic Constant Matrix: (Units=GPa)
#
#
# Indices 1 2 3 4 5 6 
#
# 1 167.3366 14.0280 33.1566 0.0000 5.4164 0.0000
# 2 14.0280 46.3405 -9.0436 0.0000 -0.6548 0.0000
# 3 33.1566 -9.0436 109.3916 0.0000 9.1284 0.0000
# 4 0.0000 0.0000 0.0000 11.2062 0.0000 0.9390
# 5 5.4164 -0.6548 9.1284 0.0000 23.2710 0.0000
# 6 0.0000 0.0000 0.0000 0.9390 0.0000 33.3004
#
#
#
# Elastic Compliance Matrix: (Units=1/GPa)
#
#
# Indices 1 2 3 4 5 6 
#
# 1 0.006631 -0.002437 -0.002147 0.000000 -0.000770 0.000000
# 2 -0.002437 0.022829 0.002611 0.000000 0.000186 0.000000
# 3 -0.002147 0.002611 0.010297 0.000000 -0.003466 0.000000
# 4 0.000000 0.000000 0.000000 0.089448 0.000000 -0.002522
# 5 -0.000770 0.000186 -0.003466 0.000000 0.044516 0.000000
# 6 0.000000 0.000000 0.000000 -0.002522 0.000000 0.030101
#
#
# Mechanical properties :
#
#
# Convention : Reuss Voigt Hill
#
# Bulk Modulus (GPa) = 27.92513 44.37231 36.14872
# Shear Modulus (GPa) = 22.75777 32.55070 27.65423
#
# Velocity S-wave (km/s) = 3.21097 3.84018 3.53959
# Velocity P-wave (km/s) = 5.13795 6.30598 5.75169
#
# Compressibility (1/GPa) = 0.03581004
#
# Stress axis : x y z
#
# Youngs Moduli (GPa) = 150.81585 43.80351 97.11310
#
# Poissons Ratio (x) = 0.10675 0.20850
# Poissons Ratio (y) = 0.36755 -0.25352
# Poissons Ratio (z) = 0.32380 -0.11435
#
# Static dielectric constant tensor:
#      x y z
#    x 1.898420 0.000000 0.049940 
#    y 0.000000 1.964730 0.000000 
#    z 0.049940 0.000000 1.954840 
# 
# From -- ./inp_files/265583.got.cif
#   From: 2010.05.17/outbox.cif.g08.bks.cpg/sg15_133_cif.got.tgz:265583.got - 2010.06.03 18:47:42.
