data_PCOD9265766
_publ_section_title
;
Structure prediction by ZEFSAII (Michael W. Deem and Ramdas Pophale) SiO2 
 PCOD9265766
Probable space group: C 2/C
;
_chemical_formula_sum "Si O2"
_cell_formula_units_Z 64
_cell_length_a 7.675833
_cell_length_b 21.846606
_cell_length_c 20.059079
_cell_angle_alpha 90.000000
_cell_angle_beta 70.204327
_cell_angle_gamma 90.000000
_cell_volume 3164.950201
_symmetry_space_group_name_H-M "C 2/C"
_symmetry_group_IT_number 15
_symmetry_cell_setting 'monoclinic'
loop_
_space_group_symop_operation_xyz
x,y,z
-x,y,1/2-z
-x,-y,-z
x,-y,1/2+z
1/2+x,1/2+y,z
1/2-x,1/2+y,1/2-z
1/2-x,1/2-y,-z
1/2+x,1/2-y,1/2+z
loop_
_atom_site_type_symbol
_atom_site_label
_atom_site_fract_x
_atom_site_fract_y
_atom_site_fract_z
Si Si1 0.979663 0.415787 0.174841
Si Si2 0.575023 0.131984 0.526816
Si Si3 0.653352 0.388898 0.916844
Si Si4 0.369970 0.658212 0.826942
Si Si5 0.636977 0.751366 0.445653
Si Si6 0.335845 0.425958 0.440250
Si Si7 0.969878 0.561629 0.176506
Si Si8 0.833451 0.063888 0.388376
O O1 0.775677 0.390740 0.183923
O O2 0.002112 0.488638 0.163604
O O3 0.000000 0.400720 0.250000
O O4 0.104085 0.384622 0.100980
O O5 0.539564 0.204242 0.523539
O O6 0.374132 0.101518 0.534570
O O7 0.723206 0.103067 0.458419
O O8 0.602763 0.318149 0.930831
O O9 0.545471 0.416315 0.867873
O O10 0.871380 0.400152 0.881070
O O11 0.598095 0.423254 0.992401
O O12 0.500000 0.677009 0.750000
O O13 0.261232 0.714860 0.873443
O O14 0.454024 0.619678 0.877863
O O15 0.750000 0.750000 0.500000
O O16 0.326444 0.493248 0.411419
O O17 0.772474 0.573419 0.167365
O O18 0.000000 0.575278 0.250000
#
# Coordination Sequence:
#
# PCOD9265766 Si02
#       8
#     8   8   8   8   8   8   8   8
#     4   9  19  37  59  87 125 161 194 257 323 368
#     4  10  19  36  66  83 123 165 205 259 313 352
#     4  12  24  37  66  92 124 166 212 250 312 378
#     4  10  21  36  66  91 118 163 209 258 310 362
#     4  10  19  41  61  84 124 168 209 257 301 369
#     4  10  19  38  60  93 128 158 194 265 315 368
#     4  11  23  41  60  87 127 170 199 256 328 367
#     4  12  22  38  63  96 124 159 212 259 307 385
#
# _framework density 20.221487
#
# number of rings (size 3 to 8) (size 9 to 14) (size 15 to 20)
#    0.000    1.750    6.250    1.500    0.000    4.500 
#    0.000    0.000   13.750    0.000    0.000    0.000 
#    0.000    0.000    0.000    0.000    0.000    0.000 
#
# Total GULP energy -178527.276877 kJ/mol
# GULP energy per Si atom -5578.977402 kJ/mol
# Density = 2.017546 g / cm^3
# Si number density = 20.221487 Si / 1000 Ang^3
#
#
#
# Elastic Constant Matrix: (Units=GPa)
#
#
# Indices 1 2 3 4 5 6 
#
# 1 50.8685 11.8594 3.4617 0.0000 25.5136 0.0000
# 2 11.8594 82.9201 5.2600 0.0000 9.4431 0.0000
# 3 3.4617 5.2600 84.2319 0.0000 23.2631 0.0000
# 4 0.0000 0.0000 0.0000 19.6227 0.0000 6.0144
# 5 25.5136 9.4431 23.2631 0.0000 36.2259 0.0000
# 6 0.0000 0.0000 0.0000 6.0144 0.0000 15.5387
#
#
#
# Elastic Compliance Matrix: (Units=1/GPa)
#
#
# Indices 1 2 3 4 5 6 
#
# 1 0.033144 -0.002084 0.006157 0.000000 -0.026753 0.000000
# 2 -0.002084 0.012561 -0.000243 0.000000 -0.001651 0.000000
# 3 0.006157 -0.000243 0.015577 0.000000 -0.014276 0.000000
# 4 0.000000 0.000000 0.000000 0.057821 0.000000 -0.022380
# 5 -0.026753 -0.001651 -0.014276 0.000000 0.056044 0.000000
# 6 0.000000 0.000000 0.000000 -0.022380 0.000000 0.073018
#
#
# Mechanical properties :
#
#
# Convention : Reuss Voigt Hill
#
# Bulk Modulus (GPa) = 14.50515 28.79810 21.65162
# Shear Modulus (GPa) = 18.97634 27.44008 23.20821
#
# Velocity S-wave (km/s) = 3.06670 3.68771 3.39145
# Velocity P-wave (km/s) = 4.44164 5.69250 5.10552
#
# Compressibility (1/GPa) = 0.06894104
#
# Stress axis : x y z
#
# Youngs Moduli (GPa) = 30.17160 79.60993 64.19813
#
# Poissons Ratio (x) = 0.16592 -0.39525
# Poissons Ratio (y) = 0.06288 0.01559
# Poissons Ratio (z) = -0.18576 0.01934
#
# Static dielectric constant tensor:
#      x y z
#    x 1.764610 0.000000 0.010450 
#    y 0.000000 1.697000 0.000000 
#    z 0.010450 0.000000 1.768110 
# 
# From -- ./inp_files/233485.got.cif
#   From: 2010.05.17/outbox.cif.g08.bks.cpg/sg15_117_cif.got.tgz:233485.got - 2010.06.03 18:47:42.
