data_PCOD9265336
_publ_section_title
;
Structure prediction by ZEFSAII (Michael W. Deem and Ramdas Pophale) SiO2 
 PCOD9265336
Probable space group: C 2/C
;
_chemical_formula_sum "Si O2"
_cell_formula_units_Z 48
_cell_length_a 8.262592
_cell_length_b 26.997327
_cell_length_c 15.692063
_cell_angle_alpha 90.000000
_cell_angle_beta 145.332665
_cell_angle_gamma 90.000000
_cell_volume 1991.062480
_symmetry_space_group_name_H-M "C 2/C"
_symmetry_group_IT_number 15
_symmetry_cell_setting 'monoclinic'
loop_
_space_group_symop_operation_xyz
x,y,z
-x,y,1/2-z
-x,-y,-z
x,-y,1/2+z
1/2+x,1/2+y,z
1/2-x,1/2+y,1/2-z
1/2-x,1/2-y,-z
1/2+x,1/2-y,1/2+z
loop_
_atom_site_type_symbol
_atom_site_label
_atom_site_fract_x
_atom_site_fract_y
_atom_site_fract_z
Si Si1 0.749681 0.303794 0.201576
Si Si2 0.027826 0.447742 0.562424
Si Si3 0.796183 0.108285 0.322390
Si Si4 0.673178 0.718088 0.135705
Si Si5 0.735190 0.097196 0.693179
Si Si6 0.034425 0.050262 0.564305
O O1 0.877844 0.261914 0.319509
O O2 0.674012 0.350509 0.227905
O O3 0.000000 0.322187 0.250000
O O4 0.508596 0.284591 0.031072
O O5 0.018485 0.406307 0.483552
O O6 0.751290 0.444706 0.503323
O O7 0.000000 0.500000 0.500000
O O8 0.271030 0.430913 0.734346
O O9 0.500000 0.107534 0.250000
O O10 0.848828 0.165511 0.325048
O O11 0.033630 0.092088 0.492352
O O12 0.000000 0.724745 0.250000
O O13 0.000000 0.080500 0.750000
O O14 0.711247 0.057940 0.759459
O O15 0.000000 0.000000 0.500000
#
# Coordination Sequence:
#
# PCOD9265336 Si02
#       6
#     8   8   8   8   8   8
#     4  12  26  44  66 100 136 164 209 275 336 377
#     4  10  21  36  57  92 123 162 214 268 314 369
#     4   9  19  37  61  87 119 159 214 258 305 374
#     4  11  24  44  72  96 124 174 222 258 320 398
#     4  10  22  39  62  89 125 170 221 258 311 392
#     4  10  19  36  60  84 122 163 209 262 313 378
#
# _framework density 24.107731000000001
#
# number of rings (size 3 to 8) (size 9 to 14) (size 15 to 20)
#    0.000    1.667    1.667    2.500    4.667    1.333 
#    0.000    0.000    0.000    0.000    0.000    0.000 
#    0.000    0.000    0.000    0.000    0.000    0.000 
#
# Total GULP energy -133989.642877 kJ/mol
# GULP energy per Si atom -5582.901787 kJ/mol
# Density = 2.405286 g / cm^3
# Si number density = 24.107731 Si / 1000 Ang^3
#
#
#
# Elastic Constant Matrix: (Units=GPa)
#
#
# Indices 1 2 3 4 5 6 
#
# 1 53.2830 8.6930 31.4993 0.0000 -21.2011 0.0000
# 2 8.6930 115.0409 43.2126 0.0000 -42.1525 0.0000
# 3 31.4993 43.2126 164.9101 0.0000 -44.6976 0.0000
# 4 0.0000 0.0000 0.0000 40.2268 0.0000 -17.6384
# 5 -21.2011 -42.1525 -44.6976 0.0000 39.8723 0.0000
# 6 0.0000 0.0000 0.0000 -17.6384 0.0000 28.1744
#
#
#
# Elastic Compliance Matrix: (Units=1/GPa)
#
#
# Indices 1 2 3 4 5 6 
#
# 1 0.025695 0.004913 -0.001558 0.000000 0.017111 0.000000
# 2 0.004913 0.015157 0.000203 0.000000 0.018863 0.000000
# 3 -0.001558 0.000203 0.008823 0.000000 0.009276 0.000000
# 4 0.000000 0.000000 0.000000 0.034265 0.000000 0.021451
# 5 0.017111 0.018863 0.009276 0.000000 0.064519 0.000000
# 6 0.000000 0.000000 0.000000 0.021451 0.000000 0.048923
#
#
# Mechanical properties :
#
#
# Convention : Reuss Voigt Hill
#
# Bulk Modulus (GPa) = 17.60856 55.56045 36.58450
# Shear Modulus (GPa) = 23.90104 38.30997 31.10550
#
# Velocity S-wave (km/s) = 3.15211 3.99070 3.59593
# Velocity P-wave (km/s) = 4.53516 6.65815 5.69643
#
# Compressibility (1/GPa) = 0.05679056
#
# Stress axis : x y z
#
# Youngs Moduli (GPa) = 38.91768 65.97639 113.34520
#
# Poissons Ratio (x) = -0.32414 0.17656
# Poissons Ratio (y) = -0.19120 -0.02297
# Poissons Ratio (z) = 0.06062 -0.01337
#
# Static dielectric constant tensor:
#      x y z
#    x 1.919140 0.000000 0.024930 
#    y 0.000000 1.985220 0.000000 
#    z 0.024930 0.000000 1.980490 
# 
# From -- ./inp_files/80502.got.cif
#   From: 2010.05.17/outbox.cif.g08.bks.cpg/sg15_41_cif.got.tgz:80502.got - 2010.06.03 18:47:42.
