data_PCOD9265512
_publ_section_title
;
Structure prediction by ZEFSAII (Michael W. Deem and Ramdas Pophale) SiO2 
 PCOD9265512
Probable space group: C 2/C
;
_chemical_formula_sum "Si O2"
_cell_formula_units_Z 64
_cell_length_a 11.296696
_cell_length_b 22.756729
_cell_length_c 24.602675
_cell_angle_alpha 90.000000
_cell_angle_beta 150.008786
_cell_angle_gamma 90.000000
_cell_volume 3161.536821
_symmetry_space_group_name_H-M "C 2/C"
_symmetry_group_IT_number 15
_symmetry_cell_setting 'monoclinic'
loop_
_space_group_symop_operation_xyz
x,y,z
-x,y,1/2-z
-x,-y,-z
x,-y,1/2+z
1/2+x,1/2+y,z
1/2-x,1/2+y,1/2-z
1/2-x,1/2-y,-z
1/2+x,1/2-y,1/2+z
loop_
_atom_site_type_symbol
_atom_site_label
_atom_site_fract_x
_atom_site_fract_y
_atom_site_fract_z
Si Si1 0.048234 0.823309 0.014906
Si Si2 0.088306 0.415628 0.603172
Si Si3 0.316565 0.229978 0.218002
Si Si4 0.320544 0.504149 0.511024
Si Si5 0.104365 0.236956 0.387663
Si Si6 0.745468 0.059074 0.875744
Si Si7 0.427656 0.595681 0.138578
Si Si8 0.835085 0.312890 0.554653
O O1 0.861555 0.805173 0.893179
O O2 0.901302 0.835544 0.010880
O O3 0.243344 0.771331 0.096633
O O4 0.178785 0.884234 0.059170
O O5 0.313037 0.417999 0.733470
O O6 0.216405 0.420799 0.596309
O O7 0.882155 0.461358 0.536434
O O8 0.957032 0.352822 0.558114
O O9 0.500000 0.262179 0.250000
O O10 0.478791 0.190839 0.321571
O O11 0.152278 0.262297 0.197076
O O12 0.560776 0.539337 0.591856
O O13 0.220296 0.491519 0.410850
O O14 0.388923 0.445349 0.571158
O O15 0.250000 0.250000 0.500000
O O16 0.084572 0.166963 0.371564
O O17 0.500000 0.071828 0.750000
O O18 0.750000 0.250000 0.500000
#
# Coordination Sequence:
#
# PCOD9265512 Si02
#       8
#     8   8   8   8   8   8   8   8
#     4  10  21  39  61  90 127 167 211 269 330 393
#     4  11  23  41  65  95 127 169 223 267 329 392
#     4   9  19  35  58  86 120 168 211 254 319 391
#     4  11  23  44  65  91 131 171 213 276 332 394
#     4  10  19  36  61  92 120 165 211 263 322 385
#     4  11  24  41  63  98 126 165 221 273 334 387
#     4  11  23  41  67  95 127 172 224 268 320 402
#     4  11  21  37  59  92 129 165 210 268 327 390
#
# _framework density 20.243319
#
# number of rings (size 3 to 8) (size 9 to 14) (size 15 to 20)
#    0.000    1.500    2.500    3.375    0.000    1.000 
#    2.250    0.000    0.000    0.000    0.000    0.000 
#    0.000    0.000    0.000    0.000    0.000    0.000 
#
# Total GULP energy -178179.974994 kJ/mol
# GULP energy per Si atom -5568.124219 kJ/mol
# Density = 2.019724 g / cm^3
# Si number density = 20.243319 Si / 1000 Ang^3
#
#
#
# Elastic Constant Matrix: (Units=GPa)
#
#
# Indices 1 2 3 4 5 6 
#
# 1 101.3224 38.5551 46.5981 0.0001 24.2806 -0.0006
# 2 38.5551 79.3043 42.5262 0.0002 9.4338 -0.0006
# 3 46.5981 42.5262 76.4097 -0.0008 15.9277 0.0003
# 4 0.0001 0.0002 -0.0008 17.4351 -0.0001 0.4917
# 5 24.2806 9.4338 15.9277 -0.0001 31.3918 -0.0003
# 6 -0.0006 -0.0006 0.0003 0.4917 -0.0003 33.8892
#
#
#
# Elastic Compliance Matrix: (Units=1/GPa)
#
#
# Indices 1 2 3 4 5 6 
#
# 1 0.015971 -0.003539 -0.006058 0.000000 -0.008216 0.000000
# 2 -0.003539 0.018762 -0.008587 -0.000001 0.001456 0.000000
# 3 -0.006058 -0.008587 0.022417 0.000001 -0.004108 -0.000001
# 4 0.000000 -0.000001 0.000001 0.057379 0.000000 -0.000832
# 5 -0.008216 0.001456 -0.004108 0.000000 0.039857 0.000000
# 6 0.000000 0.000000 -0.000001 -0.000832 0.000000 0.029520
#
#
# Mechanical properties :
#
#
# Convention : Reuss Voigt Hill
#
# Bulk Modulus (GPa) = 48.11772 56.93280 52.52526
# Shear Modulus (GPa) = 22.00697 25.16701 23.58699
#
# Velocity S-wave (km/s) = 3.30073 3.52977 3.41717
# Velocity P-wave (km/s) = 6.19255 6.69310 6.44769
#
# Compressibility (1/GPa) = 0.02078237
#
# Stress axis : x y z
#
# Youngs Moduli (GPa) = 62.61439 53.29984 44.60865
#
# Poissons Ratio (x) = 0.18862 0.27022
# Poissons Ratio (y) = 0.22158 0.38307
# Poissons Ratio (z) = 0.37929 0.45770
#
# Static dielectric constant tensor:
#      x y z
#    x 1.802630 0.000000 0.014550 
#    y 0.000000 1.743910 0.000010 
#    z 0.014550 0.000010 1.895680 
# 
# From -- ./inp_files/293788.got.cif
#   From: 2010.05.17/outbox.cif.g08.bks.cpg/sg15_147_cif.got.tgz:293788.got - 2010.06.03 18:47:42.
