data_PCOD9265698
_publ_section_title
;
Structure prediction by ZEFSAII (Michael W. Deem and Ramdas Pophale) SiO2 
 PCOD9265698
Probable space group: C 2/C
;
_chemical_formula_sum "Si O2"
_cell_formula_units_Z 32
_cell_length_a 26.184554
_cell_length_b 10.944761
_cell_length_c 16.541236
_cell_angle_alpha 90.000000
_cell_angle_beta 162.959234
_cell_angle_gamma 90.000000
_cell_volume 1389.198078
_symmetry_space_group_name_H-M "C 2/C"
_symmetry_group_IT_number 15
_symmetry_cell_setting 'monoclinic'
loop_
_space_group_symop_operation_xyz
x,y,z
-x,y,1/2-z
-x,-y,-z
x,-y,1/2+z
1/2+x,1/2+y,z
1/2-x,1/2+y,1/2-z
1/2-x,1/2-y,-z
1/2+x,1/2-y,1/2+z
loop_
_atom_site_type_symbol
_atom_site_label
_atom_site_fract_x
_atom_site_fract_y
_atom_site_fract_z
Si Si1 0.000000 0.048043 0.750000
Si Si2 0.800164 0.741062 0.204665
Si Si3 0.000000 0.440481 0.750000
Si Si4 0.933945 0.821976 0.569075
Si Si5 0.458069 0.918093 0.513549
O O1 0.836719 0.132680 0.483771
O O2 0.034323 0.952597 0.728656
O O3 0.933166 0.762568 0.480393
O O4 0.910543 0.697160 0.294985
O O5 0.675826 0.857947 0.009462
O O6 0.981352 0.492773 0.631855
O O7 0.733510 0.861115 0.279493
O O8 0.000000 0.753155 0.750000
O O9 0.500000 0.000000 0.500000
#
# Coordination Sequence:
#
# PCOD9265698 Si02
#       5
#     4   8   4   8   8
#     4   9  18  38  57  84 128 157 190 264 291 358
#     4  10  19  36  64  84 118 167 196 247 311 350
#     4   9  22  36  59  90 116 151 208 248 291 372
#     4   9  20  37  56  89 124 152 204 250 293 365
#     4  11  19  37  63  86 118 160 200 247 306 359
#
# _framework density 23.034870000000002
#
# number of rings (size 3 to 8) (size 9 to 14) (size 15 to 20)
#    0.750    1.500    2.500    0.750    0.000    1.000 
#    2.250    0.000    5.500   19.500    0.000    0.000 
#    0.000    0.000    0.000    0.000    0.000    0.000 
#
# Total GULP energy -89142.208415 kJ/mol
# GULP energy per Si atom -5571.388026 kJ/mol
# Density = 2.298244 g / cm^3
# Si number density = 23.034870 Si / 1000 Ang^3
#
#
#
# Elastic Constant Matrix: (Units=GPa)
#
#
# Indices 1 2 3 4 5 6 
#
# 1 128.8273 7.6388 29.4545 0.0000 -42.3777 0.0000
# 2 7.6388 29.0835 -0.9917 0.0000 -11.6163 0.0000
# 3 29.4545 -0.9917 70.2588 0.0000 -38.5281 0.0000
# 4 0.0000 0.0000 0.0000 17.4965 0.0000 -5.9293
# 5 -42.3777 -11.6163 -38.5281 0.0000 44.7279 0.0000
# 6 0.0000 0.0000 0.0000 -5.9293 0.0000 33.7343
#
#
#
# Elastic Compliance Matrix: (Units=1/GPa)
#
#
# Indices 1 2 3 4 5 6 
#
# 1 0.011624 0.002782 0.003036 0.000000 0.014351 0.000000
# 2 0.002782 0.044518 0.013736 0.000000 0.026030 0.000000
# 3 0.003036 0.013736 0.031627 0.000000 0.033687 0.000000
# 4 0.000000 0.000000 0.000000 0.060774 0.000000 0.010682
# 5 0.014351 0.026030 0.033687 0.000000 0.071732 0.000000
# 6 0.000000 0.000000 0.000000 0.010682 0.000000 0.031521
#
#
# Mechanical properties :
#
#
# Convention : Reuss Voigt Hill
#
# Bulk Modulus (GPa) = 7.88162 33.37476 20.62819
# Shear Modulus (GPa) = 19.60934 31.99629 25.80281
#
# Velocity S-wave (km/s) = 2.92085 3.73102 3.35051
# Velocity P-wave (km/s) = 3.84762 5.75160 4.89312
#
# Compressibility (1/GPa) = 0.12687749
#
# Stress axis : x y z
#
# Youngs Moduli (GPa) = 86.02941 22.46283 31.61814
#
# Poissons Ratio (x) = -0.06250 -0.09598
# Poissons Ratio (y) = -0.23936 -0.43431
# Poissons Ratio (z) = -0.26116 -0.30855
#
# Static dielectric constant tensor:
#      x y z
#    x 1.885350 0.000000 -0.076530 
#    y 0.000000 1.958350 0.000000 
#    z -0.076530 0.000000 1.933540 
# 
# From -- ./inp_files/83981.got.cif
#   From: 2010.05.17/outbox.cif.g08.bks.cpg/sg15_42_cif.got.tgz:83981.got - 2010.06.03 18:47:42.
