data_PCOD9265187
_publ_section_title
;
Structure prediction by ZEFSAII (Michael W. Deem and Ramdas Pophale) SiO2 
 PCOD9265187
Probable space group: C 2/C
;
_chemical_formula_sum "Si O2"
_cell_formula_units_Z 44
_cell_length_a 12.161714
_cell_length_b 12.573067
_cell_length_c 11.659492
_cell_angle_alpha 90.000000
_cell_angle_beta 108.049564
_cell_angle_gamma 90.000000
_cell_volume 1695.117166
_symmetry_space_group_name_H-M "C 2/C"
_symmetry_group_IT_number 15
_symmetry_cell_setting 'monoclinic'
loop_
_space_group_symop_operation_xyz
x,y,z
-x,y,1/2-z
-x,-y,-z
x,-y,1/2+z
1/2+x,1/2+y,z
1/2-x,1/2+y,1/2-z
1/2-x,1/2-y,-z
1/2+x,1/2-y,1/2+z
loop_
_atom_site_type_symbol
_atom_site_label
_atom_site_fract_x
_atom_site_fract_y
_atom_site_fract_z
Si Si1 0.163208 0.815758 0.390988
Si Si2 0.550364 0.389466 0.548108
Si Si3 0.263769 0.733330 0.828891
Si Si4 0.713074 0.004556 0.847222
Si Si5 0.694819 0.971568 0.588063
Si Si6 0.500000 0.271723 0.750000
O O1 0.250000 0.750000 0.500000
O O2 0.051367 0.817561 0.434823
O O3 0.168799 0.764272 0.269469
O O4 0.200219 0.940325 0.383543
O O5 0.500000 0.500000 0.500000
O O6 0.683935 0.416410 0.626649
O O7 0.483997 0.340060 0.631455
O O8 0.283970 0.615538 0.884019
O O9 0.286128 0.843857 0.901378
O O10 0.123942 0.720161 0.766370
O O11 0.649804 0.996493 0.703232
O O12 0.641854 0.000145 0.944619
#
# Coordination Sequence:
#
# PCOD9265187 Si02
#       6
#     8   8   8   8   8   4
#     4  10  19  38  57  88 125 171 201 254 328 389
#     4  11  23  37  63  96 126 159 219 280 323 376
#     4  11  21  35  60  92 126 167 213 261 328 385
#     4  10  21  37  59  89 128 166 204 263 331 388
#     4  10  19  36  58  89 117 162 216 255 307 387
#     4  12  20  36  60  94 124 160 222 274 316 386
#
# _framework density 25.956907000000001
#
# number of rings (size 3 to 8) (size 9 to 14) (size 15 to 20)
#    0.000    1.455    3.636    3.818    2.545    0.000 
#    0.000    0.000    0.000    9.818   18.909    0.000 
#    0.000    0.000    0.000    0.000    0.000    0.000 
#
# Total GULP energy -122564.993019 kJ/mol
# GULP energy per Si atom -5571.136046 kJ/mol
# Density = 2.589783 g / cm^3
# Si number density = 25.956907 Si / 1000 Ang^3
#
#
#
# Elastic Constant Matrix: (Units=GPa)
#
#
# Indices 1 2 3 4 5 6 
#
# 1 58.7871 13.9691 53.9261 0.0000 -4.0876 0.0000
# 2 13.9691 133.4631 10.4820 0.0000 -8.7463 0.0000
# 3 53.9261 10.4820 212.0034 0.0000 -57.0723 0.0000
# 4 0.0000 0.0000 0.0000 32.0619 0.0000 -1.3722
# 5 -4.0876 -8.7463 -57.0723 0.0000 40.9755 0.0000
# 6 0.0000 0.0000 0.0000 -1.3722 0.0000 30.7943
#
#
#
# Elastic Compliance Matrix: (Units=1/GPa)
#
#
# Indices 1 2 3 4 5 6 
#
# 1 0.025385 -0.002646 -0.009274 0.000000 -0.010950 0.000000
# 2 -0.002646 0.007876 0.001064 0.000000 0.002900 0.000000
# 3 -0.009274 0.001064 0.010936 0.000000 0.014534 0.000000
# 4 0.000000 0.000000 0.000000 0.031249 0.000000 0.001392
# 5 -0.010950 0.002900 0.014534 0.000000 0.044175 0.000000
# 6 0.000000 0.000000 0.000000 0.001392 0.000000 0.032536
#
#
# Mechanical properties :
#
#
# Convention : Reuss Voigt Hill
#
# Bulk Modulus (GPa) = 44.47344 62.33422 53.40383
# Shear Modulus (GPa) = 27.56898 42.49143 35.03020
#
# Velocity S-wave (km/s) = 3.26253 4.05037 3.67761
# Velocity P-wave (km/s) = 5.60026 6.77796 6.21706
#
# Compressibility (1/GPa) = 0.02248533
#
# Stress axis : x y z
#
# Youngs Moduli (GPa) = 39.39331 126.96629 91.44269
#
# Poissons Ratio (x) = 0.33597 0.84803
# Poissons Ratio (y) = 0.10424 -0.09732
# Poissons Ratio (z) = 0.36533 -0.13512
#
# Static dielectric constant tensor:
#      x y z
#    x 2.052750 0.000000 0.055650 
#    y 0.000000 2.063070 0.000000 
#    z 0.055650 0.000000 2.117620 
# 
# From -- ./inp_files/95688.got.cif
#   From: 2010.05.17/outbox.cif.g08.bks.cpg/sg15_48_cif.got.tgz:95688.got - 2010.06.03 18:47:42.
