data_PCOD9265937
_publ_section_title
;
Structure prediction by ZEFSAII (Michael W. Deem and Ramdas Pophale) SiO2 
 PCOD9265937
Probable space group: C 2/C
;
_chemical_formula_sum "Si O2"
_cell_formula_units_Z 40
_cell_length_a 19.246493
_cell_length_b 12.764787
_cell_length_c 17.307361
_cell_angle_alpha 90.000000
_cell_angle_beta 22.419679
_cell_angle_gamma 90.000000
_cell_volume 1621.671719
_symmetry_space_group_name_H-M "C 2/C"
_symmetry_group_IT_number 15
_symmetry_cell_setting 'monoclinic'
loop_
_space_group_symop_operation_xyz
x,y,z
-x,y,1/2-z
-x,-y,-z
x,-y,1/2+z
1/2+x,1/2+y,z
1/2-x,1/2+y,1/2-z
1/2-x,1/2-y,-z
1/2+x,1/2-y,1/2+z
loop_
_atom_site_type_symbol
_atom_site_label
_atom_site_fract_x
_atom_site_fract_y
_atom_site_fract_z
Si Si1 0.246029 0.644530 0.143633
Si Si2 0.717916 0.578498 0.109123
Si Si3 0.978546 0.615066 0.982172
Si Si4 0.384940 0.649513 0.789604
Si Si5 0.783100 0.906960 0.064110
O O1 0.125030 0.670604 0.341810
O O2 0.206870 0.738999 0.125492
O O3 0.214287 0.527964 0.143557
O O4 0.462436 0.641501 0.934419
O O5 0.741648 0.451645 0.084461
O O6 0.501979 0.596983 0.346610
O O7 0.846311 0.617321 0.044403
O O8 0.760026 0.621837 0.980253
O O9 0.172011 0.648778 0.746819
O O10 0.000000 0.500000 0.000000
O O11 0.500000 0.636792 0.750000
#
# Coordination Sequence:
#
# PCOD9265937 Si02
#       5
#     8   8   8   8   8
#     4  10  22  34  49  84 117 152 185 223 289 346
#     4  10  19  37  58  83 112 146 198 238 280 337
#     4  10  22  34  52  82 119 153 189 231 283 344
#     4  11  21  35  56  82 119 155 188 227 285 352
#     4   9  19  36  57  83 106 148 194 236 283 322
#
# _framework density 24.665904000000001
#
# number of rings (size 3 to 8) (size 9 to 14) (size 15 to 20)
#    0.000    2.000    4.000    1.200    5.600    7.200 
#    0.000    0.000    0.000    0.000    0.000    5.600 
#    0.000    0.000    0.000    0.000    0.000    0.000 
#
# Total GULP energy -111708.590496 kJ/mol
# GULP energy per Si atom -5585.429525 kJ/mol
# Density = 2.460976 g / cm^3
# Si number density = 24.665904 Si / 1000 Ang^3
#
#
#
# Elastic Constant Matrix: (Units=GPa)
#
#
# Indices 1 2 3 4 5 6 
#
# 1 76.1902 1.9682 31.3433 -0.0030 11.5724 0.0002
# 2 1.9682 58.8113 -0.0074 -0.0032 -1.4419 0.0024
# 3 31.3433 -0.0074 172.2124 -0.0030 42.8438 0.0040
# 4 -0.0030 -0.0032 -0.0030 5.9008 0.0034 0.3106
# 5 11.5724 -1.4419 42.8438 0.0034 32.8903 -0.0029
# 6 0.0002 0.0024 0.0040 0.3106 -0.0029 20.3965
#
#
#
# Elastic Compliance Matrix: (Units=1/GPa)
#
#
# Indices 1 2 3 4 5 6 
#
# 1 0.014335 -0.000540 -0.001995 0.000007 -0.002469 0.000000
# 2 -0.000540 0.017051 -0.000198 0.000008 0.001196 -0.000002
# 3 -0.001995 -0.000198 0.008873 0.000010 -0.010865 -0.000003
# 4 0.000007 0.000008 0.000010 0.169604 -0.000033 -0.002582
# 5 -0.002469 0.001196 -0.010865 -0.000033 0.045478 0.000009
# 6 0.000000 -0.000002 -0.000003 -0.002582 0.000009 0.049067
#
#
# Mechanical properties :
#
#
# Convention : Reuss Voigt Hill
#
# Bulk Modulus (GPa) = 28.74317 41.53578 35.13948
# Shear Modulus (GPa) = 15.55344 30.09819 22.82582
#
# Velocity S-wave (km/s) = 2.51383 3.49698 3.04534
# Velocity P-wave (km/s) = 4.48376 5.76030 5.16164
#
# Compressibility (1/GPa) = 0.03479087
#
# Stress axis : x y z
#
# Youngs Moduli (GPa) = 69.76125 58.64782 112.70365
#
# Poissons Ratio (x) = 0.03170 0.22482
# Poissons Ratio (y) = 0.03771 0.02237
# Poissons Ratio (z) = 0.13916 0.01164
#
# Static dielectric constant tensor:
#      x y z
#    x 1.863410 0.000000 0.017700 
#    y 0.000000 2.018270 0.000010 
#    z 0.017700 0.000010 2.056460 
# 
# From -- ./inp_files/162430.got.cif
#   From: 2010.05.17/outbox.cif.g08.bks.cpg/sg15_82_cif.got.tgz:162430.got - 2010.06.03 18:47:42.
