data_PCOD9265919
_publ_section_title
;
Structure prediction by ZEFSAII (Michael W. Deem and Ramdas Pophale) SiO2 
 PCOD9265919
Probable space group: C 2/C
;
_chemical_formula_sum "Si O2"
_cell_formula_units_Z 48
_cell_length_a 23.889041
_cell_length_b 8.821742
_cell_length_c 9.058025
_cell_angle_alpha 90.000000
_cell_angle_beta 112.391719
_cell_angle_gamma 90.000000
_cell_volume 1764.984879
_symmetry_space_group_name_H-M "C 2/C"
_symmetry_group_IT_number 15
_symmetry_cell_setting 'monoclinic'
loop_
_space_group_symop_operation_xyz
x,y,z
-x,y,1/2-z
-x,-y,-z
x,-y,1/2+z
1/2+x,1/2+y,z
1/2-x,1/2+y,1/2-z
1/2-x,1/2-y,-z
1/2+x,1/2-y,1/2+z
loop_
_atom_site_type_symbol
_atom_site_label
_atom_site_fract_x
_atom_site_fract_y
_atom_site_fract_z
Si Si1 0.840295 0.307383 0.358722
Si Si2 0.302639 0.694762 0.747197
Si Si3 0.000000 0.951827 0.250000
Si Si4 0.545880 0.201026 0.084118
Si Si5 0.000000 0.433954 0.250000
Si Si6 0.354116 0.058697 0.172368
Si Si7 0.862382 0.996940 0.044720
O O1 0.769312 0.329684 0.290918
O O2 0.862821 0.389240 0.233863
O O3 0.867906 0.414276 0.516914
O O4 0.862735 0.142366 0.425870
O O5 0.291410 0.865084 0.655860
O O6 0.325328 0.571224 0.645530
O O7 0.331316 0.638255 0.934738
O O8 0.011496 0.841096 0.120260
O O9 0.066451 0.024113 0.341351
O O10 0.616071 0.198504 0.198501
O O11 0.532123 0.053162 0.172121
O O12 0.532307 0.169419 0.902902
#
# Coordination Sequence:
#
# PCOD9265919 Si02
#       7
#     8   8   4   8   4   8   8
#     4  11  22  41  69  97 128 168 224 283 332 385
#     4  11  23  45  64  93 132 177 223 271 333 392
#     4  11  22  44  63  92 136 177 225 264 332 403
#     4  10  19  37  57  94 129 173 211 269 328 397
#     4   9  20  30  61  86 134 161 211 268 328 385
#     4  11  22  39  64  97 127 166 219 273 333 387
#     4  11  25  44  67  95 134 180 217 277 330 399
#
# _framework density 27.195702000000001
#
# number of rings (size 3 to 8) (size 9 to 14) (size 15 to 20)
#    0.000    1.333    3.333    5.000    4.667    2.000 
#    3.000    3.333    0.000    0.000    0.000    0.000 
#    0.000    0.000    0.000    0.000    0.000    0.000 
#
# Total GULP energy -133935.311106 kJ/mol
# GULP energy per Si atom -5580.637963 kJ/mol
# Density = 2.713380 g / cm^3
# Si number density = 27.195702 Si / 1000 Ang^3
#
#
#
# Elastic Constant Matrix: (Units=GPa)
#
#
# Indices 1 2 3 4 5 6 
#
# 1 55.4420 29.5035 24.3485 0.0000 11.2865 0.0000
# 2 29.5035 61.1288 41.6501 0.0000 -16.9527 0.0000
# 3 24.3485 41.6501 172.8288 0.0000 12.2176 0.0000
# 4 0.0000 0.0000 0.0000 38.1576 0.0000 -25.7325
# 5 11.2865 -16.9527 12.2176 0.0000 45.8183 0.0000
# 6 0.0000 0.0000 0.0000 -25.7325 0.0000 33.6231
#
#
#
# Elastic Compliance Matrix: (Units=1/GPa)
#
#
# Indices 1 2 3 4 5 6 
#
# 1 0.031637 -0.020852 0.001696 0.000000 -0.015961 0.000000
# 2 -0.020852 0.037392 -0.007557 0.000000 0.020986 0.000000
# 3 0.001696 -0.007557 0.007741 0.000000 -0.005278 0.000000
# 4 0.000000 0.000000 0.000000 0.054160 0.000000 0.041450
# 5 -0.015961 0.020986 -0.005278 0.000000 0.034929 0.000000
# 6 0.000000 0.000000 0.000000 0.041450 0.000000 0.061464
#
#
# Mechanical properties :
#
#
# Convention : Reuss Voigt Hill
#
# Bulk Modulus (GPa) = 42.83438 53.37818 48.10628
# Shear Modulus (GPa) = 17.32921 36.44630 26.88776
#
# Velocity S-wave (km/s) = 2.52703 3.66478 3.14773
# Velocity P-wave (km/s) = 4.92941 6.13005 5.56222
#
# Compressibility (1/GPa) = 0.02334573
#
# Stress axis : x y z
#
# Youngs Moduli (GPa) = 31.60830 26.74375 129.17535
#
# Poissons Ratio (x) = 0.55765 -0.21911
# Poissons Ratio (y) = 0.65908 0.97619
# Poissons Ratio (z) = -0.05361 0.20210
#
# Static dielectric constant tensor:
#      x y z
#    x 5.833330 0.000000 2.789730 
#    y 0.000000 2.294150 0.000000 
#    z 2.789730 0.000000 4.189190 
# 
# From -- ./inp_files/65268.got.cif
#   From: 2010.05.17/outbox.cif.g08.bks.cpg/sg15_33_cif.got.tgz:65268.got - 2010.06.03 18:47:42.
