data_PCOD9265226
_publ_section_title
;
Structure prediction by ZEFSAII (Michael W. Deem and Ramdas Pophale) SiO2 
 PCOD9265226
Probable space group: C 2/C
;
_chemical_formula_sum "Si O2"
_cell_formula_units_Z 32
_cell_length_a 17.959421
_cell_length_b 5.089741
_cell_length_c 13.550407
_cell_angle_alpha 90.000000
_cell_angle_beta 74.917757
_cell_angle_gamma 90.000000
_cell_volume 1195.959892
_symmetry_space_group_name_H-M "C 2/C"
_symmetry_group_IT_number 15
_symmetry_cell_setting 'monoclinic'
loop_
_space_group_symop_operation_xyz
x,y,z
-x,y,1/2-z
-x,-y,-z
x,-y,1/2+z
1/2+x,1/2+y,z
1/2-x,1/2+y,1/2-z
1/2-x,1/2-y,-z
1/2+x,1/2-y,1/2+z
loop_
_atom_site_type_symbol
_atom_site_label
_atom_site_fract_x
_atom_site_fract_y
_atom_site_fract_z
Si Si1 0.171969 0.360909 0.981516
Si Si2 0.414758 0.614967 0.675724
Si Si3 0.263006 0.674510 0.806339
Si Si4 0.512445 0.906454 0.108602
O O1 0.132601 0.178449 0.909901
O O2 0.203911 0.621292 0.914782
O O3 0.250000 0.250000 0.000000
O O4 0.104663 0.406972 0.083671
O O5 0.351132 0.576370 0.782978
O O6 0.472323 0.372806 0.641477
O O7 0.462134 0.876036 0.679492
O O8 0.232792 0.471414 0.732592
O O9 0.500000 0.000000 0.000000
#
# Coordination Sequence:
#
# PCOD9265226 Si02
#       4
#     8   8   8   8
#     4  10  21  37  61  92 119 146 194 253 291 327
#     4  10  20  38  60  80 111 157 194 224 280 358
#     4  10  20  37  59  85 115 156 196 233 286 355
#     4  10  19  36  59  83 110 153 193 228 280 352
#
# _framework density 26.75675
#
# number of rings (size 3 to 8) (size 9 to 14) (size 15 to 20)
#    0.000    2.000    0.000    7.500    0.000    2.000 
#    0.000   32.500    0.000   18.000    0.000    0.000 
#    0.000    0.000    0.000    0.000    0.000    0.000 
#
# Total GULP energy -89527.598485 kJ/mol
# GULP energy per Si atom -5595.474905 kJ/mol
# Density = 2.669585 g / cm^3
# Si number density = 26.756750 Si / 1000 Ang^3
#
#
#
# Elastic Constant Matrix: (Units=GPa)
#
#
# Indices 1 2 3 4 5 6 
#
# 1 202.4578 59.9974 71.8835 0.0000 -43.2130 0.0000
# 2 59.9974 120.6274 33.7608 0.0000 -18.3971 0.0000
# 3 71.8835 33.7608 79.2660 0.0000 -45.7506 0.0000
# 4 0.0000 0.0000 0.0000 131.9465 0.0000 89.6064
# 5 -43.2130 -18.3971 -45.7506 0.0000 81.6909 0.0000
# 6 0.0000 0.0000 0.0000 89.6064 0.0000 167.8593
#
#
#
# Elastic Compliance Matrix: (Units=1/GPa)
#
#
# Indices 1 2 3 4 5 6 
#
# 1 0.007748 -0.002145 -0.005949 0.000000 0.000284 0.000000
# 2 -0.002145 0.010008 -0.002469 0.000000 -0.000264 0.000000
# 3 -0.005949 -0.002469 0.025009 0.000000 0.010303 0.000000
# 4 0.000000 0.000000 0.000000 0.011889 0.000000 -0.006346
# 5 0.000284 -0.000264 0.010303 0.000000 0.018102 0.000000
# 6 0.000000 0.000000 0.000000 -0.006346 0.000000 0.009345
#
#
# Mechanical properties :
#
#
# Convention : Reuss Voigt Hill
#
# Bulk Modulus (GPa) = 46.21517 81.51496 63.86506
# Shear Modulus (GPa) = 45.27341 92.07997 68.67669
#
# Velocity S-wave (km/s) = 4.11790 5.87269 5.07176
# Velocity P-wave (km/s) = 6.31817 8.74734 7.63005
#
# Compressibility (1/GPa) = 0.02163792
#
# Stress axis : x y z
#
# Youngs Moduli (GPa) = 129.07032 99.92097 39.98572
#
# Poissons Ratio (x) = 0.21437 0.23786
# Poissons Ratio (y) = 0.27691 0.09874
# Poissons Ratio (z) = 0.76778 0.24674
#
# Static dielectric constant tensor:
#      x y z
#    x 2.107040 0.000000 0.028560 
#    y 0.000000 2.057260 0.000000 
#    z 0.028560 0.000000 2.252710 
# 
# From -- ./inp_files/158236.got.cif
#   From: 2010.05.17/outbox.cif.g08.bks.cpg/sg15_80_cif.got.tgz:158236.got - 2010.06.03 18:47:42.
