data_PCOD9265586
_publ_section_title
;
Structure prediction by ZEFSAII (Michael W. Deem and Ramdas Pophale) SiO2 
 PCOD9265586
Probable space group: C 2/C
;
_chemical_formula_sum "Si O2"
_cell_formula_units_Z 64
_cell_length_a 18.341893
_cell_length_b 8.134797
_cell_length_c 21.321262
_cell_angle_alpha 90.000000
_cell_angle_beta 85.377538
_cell_angle_gamma 90.000000
_cell_volume 3170.946223
_symmetry_space_group_name_H-M "C 2/C"
_symmetry_group_IT_number 15
_symmetry_cell_setting 'monoclinic'
loop_
_space_group_symop_operation_xyz
x,y,z
-x,y,1/2-z
-x,-y,-z
x,-y,1/2+z
1/2+x,1/2+y,z
1/2-x,1/2+y,1/2-z
1/2-x,1/2-y,-z
1/2+x,1/2-y,1/2+z
loop_
_atom_site_type_symbol
_atom_site_label
_atom_site_fract_x
_atom_site_fract_y
_atom_site_fract_z
Si Si1 0.852756 0.652835 0.777892
Si Si2 0.328352 0.192292 0.583185
Si Si3 0.271000 0.591970 0.195267
Si Si4 0.941276 0.492765 0.169278
Si Si5 0.039478 0.088081 0.440656
Si Si6 0.379411 0.321610 0.140313
Si Si7 0.923844 0.350659 0.400794
Si Si8 0.313945 0.864431 0.522753
O O1 0.806755 0.483384 0.782198
O O2 0.806972 0.793954 0.745842
O O3 0.925026 0.612171 0.732574
O O4 0.871061 0.699509 0.847628
O O5 0.275529 0.300843 0.630845
O O6 0.385761 0.315407 0.545554
O O7 0.383233 0.092242 0.625552
O O8 0.291299 0.049333 0.545020
O O9 0.319477 0.429305 0.180035
O O10 0.916868 0.680141 0.177952
O O11 0.021290 0.486247 0.132527
O O12 0.980899 0.210454 0.415334
O O13 0.063037 0.953962 0.388484
O O14 0.000000 0.000000 0.500000
O O15 0.345462 0.233383 0.080872
O O16 0.876450 0.389413 0.465485
O O17 0.250000 0.750000 0.500000
#
# Coordination Sequence:
#
# PCOD9265586 Si02
#       8
#     8   8   8   8   8   8   8   8
#     4  11  22  41  63  86 123 160 209 250 310 368
#     4   8  20  37  61  88 119 158 205 248 305 370
#     4  10  21  40  65  88 117 167 204 252 304 377
#     4   9  20  37  61  87 115 159 200 255 301 366
#     4  10  19  36  62  90 120 160 201 250 313 375
#     4  10  20  38  61  88 120 157 210 243 312 377
#     4  11  23  38  60  91 122 158 204 259 313 365
#     4  11  22  38  61  89 127 165 203 256 315 374
#
# _framework density 20.183250000000001
#
# number of rings (size 3 to 8) (size 9 to 14) (size 15 to 20)
#    0.000    2.000    1.250    2.625    1.750    3.500 
#    0.000   10.625    2.750    0.000    0.000    0.000 
#    0.000    0.000    0.000    0.000    0.000    0.000 
#
# Total GULP energy -178517.699654 kJ/mol
# GULP energy per Si atom -5578.678114 kJ/mol
# Density = 2.013731 g / cm^3
# Si number density = 20.183250 Si / 1000 Ang^3
#
#
#
# Elastic Constant Matrix: (Units=GPa)
#
#
# Indices 1 2 3 4 5 6 
#
# 1 73.1082 31.8565 30.9762 0.0000 -14.1664 0.0000
# 2 31.8565 105.6174 38.1147 0.0000 -8.7868 0.0000
# 3 30.9762 38.1147 60.3335 0.0000 0.6271 0.0000
# 4 0.0000 0.0000 0.0000 24.9269 0.0000 -3.4363
# 5 -14.1664 -8.7868 0.6271 0.0000 27.9387 0.0000
# 6 0.0000 0.0000 0.0000 -3.4363 0.0000 16.3303
#
#
#
# Elastic Compliance Matrix: (Units=1/GPa)
#
#
# Indices 1 2 3 4 5 6 
#
# 1 0.020421 -0.001957 -0.009352 0.000000 0.009949 0.000000
# 2 -0.001957 0.012923 -0.007193 0.000000 0.003233 0.000000
# 3 -0.009352 -0.007193 0.025999 0.000000 -0.007588 0.000000
# 4 0.000000 0.000000 0.000000 0.041316 0.000000 0.008694
# 5 0.009949 0.003233 -0.007588 0.000000 0.042025 0.000000
# 6 0.000000 0.000000 0.000000 0.008694 0.000000 0.063065
#
#
# Mechanical properties :
#
#
# Convention : Reuss Voigt Hill
#
# Bulk Modulus (GPa) = 44.76275 48.99489 46.87882
# Shear Modulus (GPa) = 19.98413 23.04664 21.51539
#
# Velocity S-wave (km/s) = 3.15005 3.38282 3.26851
# Velocity P-wave (km/s) = 5.95456 6.29172 6.12546
#
# Compressibility (1/GPa) = 0.02234000
#
# Stress axis : x y z
#
# Youngs Moduli (GPa) = 48.96835 77.38072 38.46351
#
# Poissons Ratio (x) = 0.15143 0.35970
# Poissons Ratio (y) = 0.09583 0.27666
# Poissons Ratio (z) = 0.45794 0.55658
#
# Static dielectric constant tensor:
#      x y z
#    x 1.754180 0.000000 -0.025470 
#    y 0.000000 1.713560 0.000000 
#    z -0.025470 0.000000 1.760100 
# 
# From -- ./inp_files/247456.got.cif
#   From: 2010.05.17/outbox.cif.g08.bks.cpg/sg15_124_cif.got.tgz:247456.got - 2010.06.03 18:47:42.
