data_PCOD9265534
_publ_section_title
;
Structure prediction by ZEFSAII (Michael W. Deem and Ramdas Pophale) SiO2 
 PCOD9265534
Probable space group: C 2/C
;
_chemical_formula_sum "Si O2"
_cell_formula_units_Z 48
_cell_length_a 8.874870
_cell_length_b 16.767317
_cell_length_c 31.828163
_cell_angle_alpha 90.000000
_cell_angle_beta 153.352884
_cell_angle_gamma 90.000000
_cell_volume 2124.193153
_symmetry_space_group_name_H-M "C 2/C"
_symmetry_group_IT_number 15
_symmetry_cell_setting 'monoclinic'
loop_
_space_group_symop_operation_xyz
x,y,z
-x,y,1/2-z
-x,-y,-z
x,-y,1/2+z
1/2+x,1/2+y,z
1/2-x,1/2+y,1/2-z
1/2-x,1/2-y,-z
1/2+x,1/2-y,1/2+z
loop_
_atom_site_type_symbol
_atom_site_label
_atom_site_fract_x
_atom_site_fract_y
_atom_site_fract_z
Si Si1 0.795707 0.921187 0.041795
Si Si2 0.911389 0.604497 0.094649
Si Si3 0.771934 0.308095 0.068242
Si Si4 0.708618 0.062935 0.343567
Si Si5 0.081835 0.646592 0.978466
Si Si6 0.739640 0.271045 0.151281
O O1 0.606968 0.916171 0.039131
O O2 0.922903 0.829749 0.069255
O O3 0.566606 0.942599 0.944072
O O4 0.119039 0.977170 0.120515
O O5 0.978445 0.568979 0.157709
O O6 0.121535 0.684803 0.138123
O O7 0.511990 0.624696 0.996043
O O8 0.026553 0.342027 0.096876
O O9 0.897638 0.275374 0.144119
O O10 0.581898 0.233596 0.999447
O O11 0.500000 0.082446 0.250000
O O12 0.027834 0.121620 0.424825
O O13 0.000000 0.303466 0.250000
#
# Coordination Sequence:
#
# PCOD9265534 Si02
#       6
#     8   8   8   8   8   8
#     4  11  20  41  61  84 115 168 207 243 301 384
#     4  10  20  38  60  83 113 162 208 244 298 372
#     4   9  18  36  58  87 112 148 202 248 297 363
#     4  11  25  37  56  90 127 157 198 259 311 355
#     4  10  19  36  62  82 116 158 199 244 298 373
#     4  11  21  35  61  90 122 153 203 266 307 349
#
# _framework density 22.596814999999999
#
# number of rings (size 3 to 8) (size 9 to 14) (size 15 to 20)
#    0.000    1.667    3.333    2.500    2.333    0.000 
#    0.000    0.833    0.000    2.000    0.000    0.000 
#    0.000    0.000    0.000    0.000    0.000    0.000 
#
# Total GULP energy -133802.960147 kJ/mol
# GULP energy per Si atom -5575.123339 kJ/mol
# Density = 2.254538 g / cm^3
# Si number density = 22.596815 Si / 1000 Ang^3
#
#
#
# Elastic Constant Matrix: (Units=GPa)
#
#
# Indices 1 2 3 4 5 6 
#
# 1 201.7463 44.8072 61.5228 -0.0006 -67.9356 0.0006
# 2 44.8072 59.5250 0.9536 -0.0005 -8.8708 -0.0002
# 3 61.5228 0.9536 66.1058 -0.0053 -37.3720 -0.0033
# 4 -0.0006 -0.0005 -0.0053 22.2393 -0.0004 -5.3947
# 5 -67.9356 -8.8708 -37.3720 -0.0004 35.1319 0.0006
# 6 0.0006 -0.0002 -0.0033 -5.3947 0.0006 31.7060
#
#
#
# Elastic Compliance Matrix: (Units=1/GPa)
#
#
# Indices 1 2 3 4 5 6 
#
# 1 0.018094 -0.008025 0.004795 0.000002 0.038064 0.000000
# 2 -0.008025 0.021889 0.003774 0.000001 -0.005975 0.000001
# 3 0.004795 0.003774 0.041119 0.000012 0.053966 0.000005
# 4 0.000002 0.000001 0.000012 0.046901 0.000018 0.007980
# 5 0.038064 -0.005975 0.053966 0.000018 0.157967 0.000005
# 6 0.000000 0.000001 0.000005 0.007980 0.000005 0.032898
#
#
# Mechanical properties :
#
#
# Convention : Reuss Voigt Hill
#
# Bulk Modulus (GPa) = 12.16670 60.21602 36.19136
# Shear Modulus (GPa) = 14.48533 32.48834 23.48684
#
# Velocity S-wave (km/s) = 2.53461 3.79587 3.22745
# Velocity P-wave (km/s) = 3.73653 6.77623 5.47170
#
# Compressibility (1/GPa) = 0.08219157
#
# Stress axis : x y z
#
# Youngs Moduli (GPa) = 55.26604 45.68451 24.31947
#
# Poissons Ratio (x) = 0.36661 -0.11660
# Poissons Ratio (y) = 0.44349 -0.09179
# Poissons Ratio (z) = -0.26498 -0.17243
#
# Static dielectric constant tensor:
#      x y z
#    x 2.008080 0.000000 -0.057710 
#    y 0.000000 1.894460 0.000000 
#    z -0.057710 0.000000 1.849120 
# 
# From -- ./inp_files/190622.got.cif
#   From: 2010.05.17/outbox.cif.g08.bks.cpg/sg15_96_cif.got.tgz:190622.got - 2010.06.03 18:47:42.
