data_PCOD9265331
_publ_section_title
;
Structure prediction by ZEFSAII (Michael W. Deem and Ramdas Pophale) SiO2 
 PCOD9265331
Probable space group: C 2/C
;
_chemical_formula_sum "Si O2"
_cell_formula_units_Z 60
_cell_length_a 15.869012
_cell_length_b 15.201034
_cell_length_c 12.641933
_cell_angle_alpha 90.000000
_cell_angle_beta 109.023053
_cell_angle_gamma 90.000000
_cell_volume 2883.011415
_symmetry_space_group_name_H-M "C 2/C"
_symmetry_group_IT_number 15
_symmetry_cell_setting 'monoclinic'
loop_
_space_group_symop_operation_xyz
x,y,z
-x,y,1/2-z
-x,-y,-z
x,-y,1/2+z
1/2+x,1/2+y,z
1/2-x,1/2+y,1/2-z
1/2-x,1/2-y,-z
1/2+x,1/2-y,1/2+z
loop_
_atom_site_type_symbol
_atom_site_label
_atom_site_fract_x
_atom_site_fract_y
_atom_site_fract_z
Si Si1 0.974185 0.157448 0.486859
Si Si2 0.764998 0.369708 0.097575
Si Si3 0.805615 0.564869 0.151573
Si Si4 0.867622 0.935240 0.784821
Si Si5 0.500000 0.109840 0.250000
Si Si6 0.878154 0.130557 0.775377
Si Si7 0.121521 0.271965 0.912051
Si Si8 0.620059 0.290864 0.882474
O O1 0.932009 0.072325 0.413465
O O2 0.891491 0.218804 0.486806
O O3 0.033585 0.140242 0.615513
O O4 0.038858 0.205185 0.430566
O O5 0.785761 0.472044 0.089540
O O6 0.705670 0.361167 0.179372
O O7 0.850497 0.306707 0.137827
O O8 0.703237 0.334653 0.978259
O O9 0.732818 0.576157 0.213248
O O10 0.807009 0.650194 0.074977
O O11 0.907778 0.561030 0.235773
O O12 0.894216 0.855295 0.721243
O O13 0.877596 0.030030 0.734788
O O14 0.470793 0.173464 0.142540
O O15 0.871423 0.203336 0.681863
#
# Coordination Sequence:
#
# PCOD9265331 Si02
#       8
#     8   8   8   8   4   8   8   8
#     4  11  21  36  53  85 118 155 185 231 281 338
#     4   9  20  38  63  80 109 155 191 232 277 345
#     4   9  19  39  60  86 106 146 193 237 288 332
#     4  11  23  35  56  85 118 148 189 234 279 339
#     4   8  18  36  62  82 112 144 180 246 282 338
#     4  10  19  36  60  84 111 150 193 227 286 337
#     4  10  19  37  62  83 113 150 190 235 286 338
#     4  10  22  39  56  81 120 155 188 225 283 339
#
# _framework density 20.811572999999999
#
# number of rings (size 3 to 8) (size 9 to 14) (size 15 to 20)
#    0.800    1.333    1.333    1.600    0.000    6.933 
#    2.400    3.333    0.000    0.000    0.000    0.000 
#    0.000    0.000    0.000    0.000    0.000    0.000 
#
# Total GULP energy -167283.276974 kJ/mol
# GULP energy per Si atom -5576.109232 kJ/mol
# Density = 2.076421 g / cm^3
# Si number density = 20.811573 Si / 1000 Ang^3
#
#
#
# Elastic Constant Matrix: (Units=GPa)
#
#
# Indices 1 2 3 4 5 6 
#
# 1 103.6946 43.2519 15.5925 0.0000 5.3167 0.0000
# 2 43.2519 141.3861 31.1885 0.0000 -13.7641 0.0000
# 3 15.5925 31.1885 37.9177 0.0000 -1.4547 0.0000
# 4 0.0000 0.0000 0.0000 17.9741 0.0000 9.0671
# 5 5.3167 -13.7641 -1.4547 0.0000 13.4607 0.0000
# 6 0.0000 0.0000 0.0000 9.0671 0.0000 9.4399
#
#
#
# Elastic Compliance Matrix: (Units=1/GPa)
#
#
# Indices 1 2 3 4 5 6 
#
# 1 0.012162 -0.004209 -0.001897 0.000000 -0.009312 0.000000
# 2 -0.004209 0.011076 -0.006910 0.000000 0.012242 0.000000
# 3 -0.001897 -0.006910 0.032730 0.000000 -0.002780 0.000000
# 4 0.000000 0.000000 0.000000 0.107931 0.000000 -0.103667
# 5 -0.009312 0.012242 -0.002780 0.000000 0.090186 0.000000
# 6 0.000000 0.000000 0.000000 -0.103667 0.000000 0.205505
#
#
# Mechanical properties :
#
#
# Convention : Reuss Voigt Hill
#
# Bulk Modulus (GPa) = 33.40344 51.45157 42.42750
# Shear Modulus (GPa) = 10.08877 21.03931 15.56404
#
# Velocity S-wave (km/s) = 2.20413 3.18298 2.73766
# Velocity P-wave (km/s) = 4.75004 6.18747 5.51578
#
# Compressibility (1/GPa) = 0.02993704
#
# Stress axis : x y z
#
# Youngs Moduli (GPa) = 82.22463 90.28203 30.55278
#
# Poissons Ratio (x) = 0.37996 0.05795
# Poissons Ratio (y) = 0.34605 0.21113
# Poissons Ratio (z) = 0.15596 0.62388
#
# Static dielectric constant tensor:
#      x y z
#    x 1.781590 0.000000 0.044750 
#    y 0.000000 1.740360 0.000000 
#    z 0.044750 0.000000 1.760170 
# 
# From -- ./inp_files/105748.got.cif
#   From: 2010.05.17/outbox.cif.g08.bks.cpg/sg15_53_cif.got.tgz:105748.got - 2010.06.03 18:47:42.
