data_PCOD9265213
_publ_section_title
;
Structure prediction by ZEFSAII (Michael W. Deem and Ramdas Pophale) SiO2 
 PCOD9265213
Probable space group: C 2/C
;
_chemical_formula_sum "Si O2"
_cell_formula_units_Z 48
_cell_length_a 12.279949
_cell_length_b 16.205887
_cell_length_c 28.729656
_cell_angle_alpha 90.000000
_cell_angle_beta 152.251217
_cell_angle_gamma 90.000000
_cell_volume 2662.004450
_symmetry_space_group_name_H-M "C 2/C"
_symmetry_group_IT_number 15
_symmetry_cell_setting 'monoclinic'
loop_
_space_group_symop_operation_xyz
x,y,z
-x,y,1/2-z
-x,-y,-z
x,-y,1/2+z
1/2+x,1/2+y,z
1/2-x,1/2+y,1/2-z
1/2-x,1/2-y,-z
1/2+x,1/2-y,1/2+z
loop_
_atom_site_type_symbol
_atom_site_label
_atom_site_fract_x
_atom_site_fract_y
_atom_site_fract_z
Si Si1 0.316146 0.269395 0.638804
Si Si2 0.295061 0.920732 0.135284
Si Si3 0.298538 0.475387 0.987421
Si Si4 0.166358 0.327360 0.998298
Si Si5 0.253231 0.083303 0.446321
Si Si6 0.300816 0.577438 0.635993
O O1 0.500000 0.277287 0.750000
O O2 0.302215 0.173535 0.620288
O O3 0.357856 0.330833 0.611780
O O4 0.074219 0.301052 0.569209
O O5 0.500000 0.931201 0.250000
O O6 0.317519 0.984994 0.101764
O O7 0.044677 0.936053 0.064952
O O8 0.149564 0.405727 0.957598
O O9 0.337857 0.547635 0.039726
O O10 0.250000 0.250000 0.000000
O O11 0.326188 0.359590 0.101787
O O12 0.537120 0.089534 0.555978
O O13 0.197643 0.014114 0.386005
O O14 0.500000 0.586813 0.750000
#
# Coordination Sequence:
#
# PCOD9265213 Si02
#       6
#     8   8   8   8   8   8
#     4  10  20  36  58  82 111 142 181 228 274 324
#     4  10  22  38  55  77 110 148 182 222 270 331
#     4  10  21  37  57  77 109 146 181 225 272 327
#     4  10  19  36  59  80 108 147 184 223 274 330
#     4   9  19  33  56  83 112 142 177 232 278 320
#     4   9  18  33  54  86 114 140 181 232 276 322
#
# _framework density 18.031524999999998
#
# number of rings (size 3 to 8) (size 9 to 14) (size 15 to 20)
#    0.000    2.333    1.667    1.500    0.000    4.667 
#    0.000    0.833    0.000    0.000    0.000    0.000 
#    0.000    0.000    0.000    0.000    0.000    0.000 
#
# Total GULP energy -133837.561310 kJ/mol
# GULP energy per Si atom -5576.565055 kJ/mol
# Density = 1.799048 g / cm^3
# Si number density = 18.031525 Si / 1000 Ang^3
#
#
#
# Elastic Constant Matrix: (Units=GPa)
#
#
# Indices 1 2 3 4 5 6 
#
# 1 18.9072 20.9434 6.3553 -0.0007 -19.4541 0.0001
# 2 20.9434 109.6444 55.8956 -0.0010 -20.0325 -0.0002
# 3 6.3553 55.8956 100.1354 -0.0018 -20.7605 0.0000
# 4 -0.0007 -0.0010 -0.0018 17.1813 -0.0006 -4.7573
# 5 -19.4541 -20.0325 -20.7605 -0.0006 13.1754 0.0002
# 6 0.0001 -0.0002 0.0000 -4.7573 0.0002 34.5678
#
#
#
# Elastic Compliance Matrix: (Units=1/GPa)
#
#
# Indices 1 2 3 4 5 6 
#
# 1 -0.053837 0.000102 -0.019439 -0.000008 -0.109967 0.000000
# 2 0.000102 0.014203 -0.005089 0.000001 0.013727 0.000000
# 3 -0.019439 -0.005089 0.009663 -0.000001 -0.021214 0.000000
# 4 -0.000008 0.000001 -0.000001 0.060509 -0.000009 0.008327
# 5 -0.109967 0.013727 -0.021214 -0.000009 -0.099029 0.000000
# 6 0.000000 0.000000 0.000000 0.008327 0.000000 0.030075
#
#
# Mechanical properties :
#
#
# Convention : Reuss Voigt Hill
#
# Bulk Modulus (GPa) = -12.68669 43.89728 15.60529
# Shear Modulus (GPa) = -315.67687 22.68443 -146.49622
#
# Velocity S-wave (km/s) = -13.24573 3.55074 -9.02335
# Velocity P-wave (km/s) = 15.52365 6.41934 9.99439
#
# Compressibility (1/GPa) = -0.07882277
#
# Stress axis : x y z
#
# Youngs Moduli (GPa) = -18.57469 70.40711 103.49234
#
# Poissons Ratio (x) = -0.00715 2.01176
# Poissons Ratio (y) = 0.00189 0.52665
# Poissons Ratio (z) = -0.36107 0.35828
#
# Static dielectric constant tensor:
#      x y z
#    x 1.619300 0.000000 -0.004140 
#    y 0.000000 1.638800 0.000000 
#    z -0.004140 0.000000 1.589930 
# 
# From -- ./inp_files/87225.got.cif
#   From: 2010.05.17/outbox.cif.g08.bks.cpg/sg15_44_cif.got.tgz:87225.got - 2010.06.03 18:47:42.
