data_PCOD9265654
_publ_section_title
;
Structure prediction by ZEFSAII (Michael W. Deem and Ramdas Pophale) SiO2 
 PCOD9265654
Probable space group: C 2/C
;
_chemical_formula_sum "Si O2"
_cell_formula_units_Z 60
_cell_length_a 6.829164
_cell_length_b 27.707462
_cell_length_c 17.091671
_cell_angle_alpha 90.000000
_cell_angle_beta 64.728043
_cell_angle_gamma 90.000000
_cell_volume 2924.538303
_symmetry_space_group_name_H-M "C 2/C"
_symmetry_group_IT_number 15
_symmetry_cell_setting 'monoclinic'
loop_
_space_group_symop_operation_xyz
x,y,z
-x,y,1/2-z
-x,-y,-z
x,-y,1/2+z
1/2+x,1/2+y,z
1/2-x,1/2+y,1/2-z
1/2-x,1/2-y,-z
1/2+x,1/2-y,1/2+z
loop_
_atom_site_type_symbol
_atom_site_label
_atom_site_fract_x
_atom_site_fract_y
_atom_site_fract_z
Si Si1 0.926406 0.090282 0.511906
Si Si2 0.416357 0.752506 0.350241
Si Si3 0.207010 0.456601 0.907931
Si Si4 0.502012 0.847858 0.420603
Si Si5 0.668996 0.666534 0.367743
Si Si6 0.767216 0.562581 0.571815
Si Si7 0.448330 0.217121 0.436412
Si Si8 0.000000 0.889497 0.750000
O O1 0.098504 0.125387 0.440475
O O2 0.039874 0.068005 0.567380
O O3 0.843583 0.050354 0.464829
O O4 0.718975 0.124030 0.560508
O O5 0.500000 0.741480 0.250000
O O6 0.516288 0.802706 0.360982
O O7 0.496794 0.710322 0.394069
O O8 0.158212 0.750464 0.393531
O O9 0.214653 0.512688 0.884186
O O10 0.326877 0.421974 0.826572
O O11 0.962748 0.441762 0.973790
O O12 0.684065 0.888945 0.388590
O O13 0.503336 0.823976 0.506998
O O14 0.883745 0.691221 0.365891
O O15 0.638548 0.641887 0.288371
O O16 0.250000 0.250000 0.500000
#
# Coordination Sequence:
#
# PCOD9265654 Si02
#       8
#     8   8   8   8   8   8   8   4
#     4  10  19  36  63  91 117 156 210 262 308 364
#     4  12  26  42  56  91 140 168 206 268 327 380
#     4   9  21  39  61  90 126 154 205 265 319 386
#     4  11  22  38  63  91 124 167 221 263 301 382
#     4  11  21  38  61  92 128 163 203 259 322 389
#     4  10  20  38  65  91 115 161 220 260 306 376
#     4  12  23  40  67  91 124 174 224 256 309 383
#     4  10  22  42  60  94 136 162 190 270 348 380
#
# _framework density 20.516058999999998
#
# number of rings (size 3 to 8) (size 9 to 14) (size 15 to 20)
#    0.000    1.333    4.667    1.600    0.000    0.533 
#    2.400    3.333    0.000    0.000    0.000    0.000 
#    0.000    0.000    0.000    0.000    0.000    0.000 
#
# Total GULP energy -167522.207852 kJ/mol
# GULP energy per Si atom -5584.073595 kJ/mol
# Density = 2.046936 g / cm^3
# Si number density = 20.516059 Si / 1000 Ang^3
#
#
#
# Elastic Constant Matrix: (Units=GPa)
#
#
# Indices 1 2 3 4 5 6 
#
# 1 84.6898 15.0593 14.4726 0.0000 3.1842 0.0000
# 2 15.0593 105.7701 9.0688 0.0000 1.0723 0.0000
# 3 14.4726 9.0688 37.0284 0.0000 3.1578 0.0000
# 4 0.0000 0.0000 0.0000 12.3351 0.0000 9.2651
# 5 3.1842 1.0723 3.1578 0.0000 22.4139 0.0000
# 6 0.0000 0.0000 0.0000 9.2651 0.0000 28.6832
#
#
#
# Elastic Compliance Matrix: (Units=1/GPa)
#
#
# Indices 1 2 3 4 5 6 
#
# 1 0.012889 -0.001430 -0.004592 0.000000 -0.001116 0.000000
# 2 -0.001430 0.009816 -0.001845 0.000000 -0.000007 0.000000
# 3 -0.004592 -0.001845 0.029545 0.000000 -0.003422 0.000000
# 4 0.000000 0.000000 0.000000 0.107040 0.000000 -0.034575
# 5 -0.001116 -0.000007 -0.003422 0.000000 0.045256 0.000000
# 6 0.000000 0.000000 0.000000 -0.034575 0.000000 0.046032
#
#
# Mechanical properties :
#
#
# Convention : Reuss Voigt Hill
#
# Bulk Modulus (GPa) = 27.38524 33.85441 30.61983
# Shear Modulus (GPa) = 17.95440 25.27895 21.61667
#
# Velocity S-wave (km/s) = 2.96148 3.51401 3.24951
# Velocity P-wave (km/s) = 5.00710 5.74470 5.38854
#
# Compressibility (1/GPa) = 0.03651602
#
# Stress axis : x y z
#
# Youngs Moduli (GPa) = 77.58677 101.87140 33.84696
#
# Poissons Ratio (x) = 0.14568 0.15543
# Poissons Ratio (y) = 0.11095 0.06244
# Poissons Ratio (z) = 0.35630 0.18792
#
# Static dielectric constant tensor:
#      x y z
#    x 1.740740 0.000000 -0.002420 
#    y 0.000000 1.740700 0.000000 
#    z -0.002420 0.000000 1.726710 
# 
# From -- ./inp_files/186719.got.cif
#   From: 2010.05.17/outbox.cif.g08.bks.cpg/sg15_94_cif.got.tgz:186719.got - 2010.06.03 18:47:42.
