data_PCOD9265655
_publ_section_title
;
Structure prediction by ZEFSAII (Michael W. Deem and Ramdas Pophale) SiO2 
 PCOD9265655
Probable space group: C 2/C
;
_chemical_formula_sum "Si O2"
_cell_formula_units_Z 56
_cell_length_a 6.990303
_cell_length_b 18.817906
_cell_length_c 22.839993
_cell_angle_alpha 90.000000
_cell_angle_beta 130.883488
_cell_angle_gamma 90.000000
_cell_volume 2271.481779
_symmetry_space_group_name_H-M "C 2/C"
_symmetry_group_IT_number 15
_symmetry_cell_setting 'monoclinic'
loop_
_space_group_symop_operation_xyz
x,y,z
-x,y,1/2-z
-x,-y,-z
x,-y,1/2+z
1/2+x,1/2+y,z
1/2-x,1/2+y,1/2-z
1/2-x,1/2-y,-z
1/2+x,1/2-y,1/2+z
loop_
_atom_site_type_symbol
_atom_site_label
_atom_site_fract_x
_atom_site_fract_y
_atom_site_fract_z
Si Si1 0.638832 0.899635 0.689050
Si Si2 0.065857 0.901318 0.331941
Si Si3 0.348841 0.572871 0.473814
Si Si4 0.012261 0.618607 0.000618
Si Si5 0.975621 0.946000 0.647464
Si Si6 0.489012 0.248165 0.317912
Si Si7 0.995017 0.772364 0.512587
O O1 0.347113 0.920209 0.620024
O O2 0.793553 0.938196 0.668632
O O3 0.675098 0.815035 0.689193
O O4 0.764532 0.914661 0.776451
O O5 0.363781 0.888786 0.409020
O O6 0.929002 0.828582 0.323556
O O7 0.000000 0.910685 0.250000
O O8 0.982054 0.970420 0.350376
O O9 0.500000 0.500000 0.500000
O O10 0.156244 0.571045 0.490034
O O11 0.503209 0.647593 0.511533
O O12 0.979737 0.699275 0.019813
O O13 0.302924 0.593153 0.064240
O O14 0.500000 0.245337 0.250000
O O15 0.767684 0.231549 0.396975
O O16 0.750000 0.750000 0.500000
#
# Coordination Sequence:
#
# PCOD9265655 Si02
#       7
#     8   8   8   8   8   8   8
#     4   9  19  37  57  86 122 164 196 252 315 367
#     4  10  19  37  59  90 124 159 205 261 307 367
#     4  10  22  42  63  92 132 168 211 264 320 377
#     4  10  22  38  66  94 125 171 210 261 324 384
#     4  10  19  36  63  91 117 158 210 258 306 375
#     4   9  20  36  57  81 124 165 194 246 313 370
#     4  10  22  39  61  96 125 163 214 259 308 382
#
# _framework density 24.653511999999999
#
# number of rings (size 3 to 8) (size 9 to 14) (size 15 to 20)
#    0.000    2.286    1.429    0.857    2.000    6.857 
#    2.571    0.000    0.000    0.000    0.000    0.000 
#    0.000    0.000    0.000    0.000    0.000    0.286 
#
# Total GULP energy -156293.214784 kJ/mol
# GULP energy per Si atom -5581.900528 kJ/mol
# Density = 2.459740 g / cm^3
# Si number density = 24.653512 Si / 1000 Ang^3
#
#
#
# Elastic Constant Matrix: (Units=GPa)
#
#
# Indices 1 2 3 4 5 6 
#
# 1 55.5875 12.0745 14.9831 0.0000 4.9989 0.0000
# 2 12.0745 206.0254 59.8232 0.0000 22.0797 0.0000
# 3 14.9831 59.8232 176.9097 0.0000 2.2487 0.0000
# 4 0.0000 0.0000 0.0000 31.6562 0.0000 0.8336
# 5 4.9989 22.0797 2.2487 0.0000 38.4061 0.0000
# 6 0.0000 0.0000 0.0000 0.8336 0.0000 15.2825
#
#
#
# Elastic Compliance Matrix: (Units=1/GPa)
#
#
# Indices 1 2 3 4 5 6 
#
# 1 0.018654 -0.000465 -0.001396 0.000000 -0.002079 0.000000
# 2 -0.000465 0.005760 -0.001869 0.000000 -0.003142 0.000000
# 3 -0.001396 -0.001869 0.006392 0.000000 0.000882 0.000000
# 4 0.000000 0.000000 0.000000 0.031635 0.000000 -0.001726
# 5 -0.002079 -0.003142 0.000882 0.000000 0.028063 0.000000
# 6 0.000000 0.000000 0.000000 -0.001726 0.000000 0.065529
#
#
# Mechanical properties :
#
#
# Convention : Reuss Voigt Hill
#
# Bulk Modulus (GPa) = 42.83356 68.03156 55.43256
# Shear Modulus (GPa) = 29.19308 40.51174 34.85241
#
# Velocity S-wave (km/s) = 3.44486 4.05809 3.76399
# Velocity P-wave (km/s) = 5.76495 7.04361 6.43611
#
# Compressibility (1/GPa) = 0.02334618
#
# Stress axis : x y z
#
# Youngs Moduli (GPa) = 53.60790 173.60255 156.45760
#
# Poissons Ratio (x) = 0.08073 0.21844
# Poissons Ratio (y) = 0.02493 0.29235
# Poissons Ratio (z) = 0.07485 0.32439
#
# Static dielectric constant tensor:
#      x y z
#    x 0.307310 0.000000 1.135130 
#    y 0.000000 2.033370 0.000000 
#    z 1.135130 0.000000 1.211940 
# 
# From -- ./inp_files/289775.got.cif
#   From: 2010.05.17/outbox.cif.g08.bks.cpg/sg15_145_cif.got.tgz:289775.got - 2010.06.03 18:47:42.
