data_PCOD9265782
_publ_section_title
;
Structure prediction by ZEFSAII (Michael W. Deem and Ramdas Pophale) SiO2 
 PCOD9265782
Probable space group: C 2/C
;
_chemical_formula_sum "Si O2"
_cell_formula_units_Z 60
_cell_length_a 22.738482
_cell_length_b 8.913008
_cell_length_c 21.525391
_cell_angle_alpha 90.000000
_cell_angle_beta 141.240841
_cell_angle_gamma 90.000000
_cell_volume 2731.143615
_symmetry_space_group_name_H-M "C 2/C"
_symmetry_group_IT_number 15
_symmetry_cell_setting 'monoclinic'
loop_
_space_group_symop_operation_xyz
x,y,z
-x,y,1/2-z
-x,-y,-z
x,-y,1/2+z
1/2+x,1/2+y,z
1/2-x,1/2+y,1/2-z
1/2-x,1/2-y,-z
1/2+x,1/2-y,1/2+z
loop_
_atom_site_type_symbol
_atom_site_label
_atom_site_fract_x
_atom_site_fract_y
_atom_site_fract_z
Si Si1 0.500000 0.417898 0.250000
Si Si2 0.098771 0.432207 0.602638
Si Si3 0.720468 0.309197 0.568761
Si Si4 0.996739 0.624897 0.820680
Si Si5 0.011998 0.287038 0.882022
Si Si6 0.164283 0.282854 0.533108
Si Si7 0.293165 0.508982 0.568977
Si Si8 0.297376 0.942169 0.206352
O O1 0.510521 0.313978 0.197025
O O2 0.595275 0.511605 0.334915
O O3 0.145745 0.383409 0.577975
O O4 0.170233 0.545516 0.695853
O O5 0.000000 0.500000 0.500000
O O6 0.063234 0.308240 0.624303
O O7 0.610462 0.277699 0.488605
O O8 0.730805 0.424660 0.518839
O O9 0.765628 0.150767 0.588727
O O10 0.777524 0.387551 0.669857
O O11 0.026981 0.455991 0.867249
O O12 0.000000 0.637230 0.750000
O O13 0.888590 0.633624 0.750955
O O14 0.066676 0.733919 0.915554
O O15 0.234820 0.366407 0.543849
O O16 0.208819 0.140351 0.603719
#
# Coordination Sequence:
#
# PCOD9265782 Si02
#       8
#     4   8   8   8   8   8   8   8
#     4  10  20  34  60 102 130 156 230 286 338 376
#     4  11  22  43  68  90 127 181 234 274 334 414
#     4  10  20  38  64  99 130 169 231 281 341 397
#     4  11  21  41  70  93 135 181 224 273 342 412
#     4  10  19  36  66  96 125 170 225 286 324 394
#     4  12  25  45  67  98 139 182 232 276 346 419
#     4  10  20  37  64  93 133 173 216 283 336 403
#     4  11  26  42  65 101 132 177 225 279 342 408
#
# _framework density 21.968820000000001
#
# number of rings (size 3 to 8) (size 9 to 14) (size 15 to 20)
#    0.000    1.333    4.667    2.400    1.867    5.333 
#    6.000    0.667    0.000    0.000    0.000    0.000 
#    0.000    0.000    0.000    0.000    0.000    0.000 
#
# Total GULP energy -167506.183248 kJ/mol
# GULP energy per Si atom -5583.539442 kJ/mol
# Density = 2.191882 g / cm^3
# Si number density = 21.968820 Si / 1000 Ang^3
#
#
#
# Elastic Constant Matrix: (Units=GPa)
#
#
# Indices 1 2 3 4 5 6 
#
# 1 71.4157 7.0266 12.0999 0.0000 -11.2670 0.0000
# 2 7.0266 26.3720 12.1008 0.0000 -10.7342 0.0000
# 3 12.0999 12.1008 115.6997 0.0000 -5.8754 0.0000
# 4 0.0000 0.0000 0.0000 47.4511 0.0000 -0.6583
# 5 -11.2670 -10.7342 -5.8754 0.0000 30.8667 0.0000
# 6 0.0000 0.0000 0.0000 -0.6583 0.0000 17.6307
#
#
#
# Elastic Compliance Matrix: (Units=1/GPa)
#
#
# Indices 1 2 3 4 5 6 
#
# 1 0.015104 -0.001551 -0.001176 0.000000 0.004750 0.000000
# 2 -0.001551 0.046123 -0.003914 0.000000 0.014729 0.000000
# 3 -0.001176 -0.003914 0.009173 0.000000 -0.000044 0.000000
# 4 0.000000 0.000000 0.000000 0.021085 0.000000 0.000787
# 5 0.004750 0.014729 -0.000044 0.000000 0.039245 0.000000
# 6 0.000000 0.000000 0.000000 0.000787 0.000000 0.056749
#
#
# Mechanical properties :
#
#
# Convention : Reuss Voigt Hill
#
# Bulk Modulus (GPa) = 17.50768 30.66023 24.08396
# Shear Modulus (GPa) = 22.74794 31.34039 27.04416
#
# Velocity S-wave (km/s) = 3.22135 3.78111 3.51240
# Velocity P-wave (km/s) = 4.67149 5.74882 5.23793
#
# Compressibility (1/GPa) = 0.05711778
#
# Stress axis : x y z
#
# Youngs Moduli (GPa) = 66.20854 21.68108 109.01387
#
# Poissons Ratio (x) = 0.03363 0.12821
# Poissons Ratio (y) = 0.10271 0.42665
# Poissons Ratio (z) = 0.07787 0.08485
#
# Static dielectric constant tensor:
#      x y z
#    x 1.792040 0.000000 -0.001270 
#    y 0.000000 1.814590 0.000000 
#    z -0.001270 0.000000 1.819710 
# 
# From -- ./inp_files/255179.got.cif
#   From: 2010.05.17/outbox.cif.g08.bks.cpg/sg15_128_cif.got.tgz:255179.got - 2010.06.03 18:47:42.
