data_PCOD9265170
_publ_section_title
;
Structure prediction by ZEFSAII (Michael W. Deem and Ramdas Pophale) SiO2 
 PCOD9265170
Probable space group: C 2/C
;
_chemical_formula_sum "Si O2"
_cell_formula_units_Z 56
_cell_length_a 20.488048
_cell_length_b 11.250641
_cell_length_c 9.806583
_cell_angle_alpha 90.000000
_cell_angle_beta 81.436059
_cell_angle_gamma 90.000000
_cell_volume 2235.250011
_symmetry_space_group_name_H-M "C 2/C"
_symmetry_group_IT_number 15
_symmetry_cell_setting 'monoclinic'
loop_
_space_group_symop_operation_xyz
x,y,z
-x,y,1/2-z
-x,-y,-z
x,-y,1/2+z
1/2+x,1/2+y,z
1/2-x,1/2+y,1/2-z
1/2-x,1/2-y,-z
1/2+x,1/2-y,1/2+z
loop_
_atom_site_type_symbol
_atom_site_label
_atom_site_fract_x
_atom_site_fract_y
_atom_site_fract_z
Si Si1 0.270198 0.620848 0.945966
Si Si2 0.644596 0.992092 0.103730
Si Si3 0.397266 0.371645 0.978412
Si Si4 0.367959 0.849852 0.656006
Si Si5 0.892314 0.127929 0.045203
Si Si6 0.566799 0.797992 0.264720
Si Si7 0.280707 0.592006 0.308089
O O1 0.218710 0.537680 0.049532
O O2 0.349881 0.635834 0.922536
O O3 0.250000 0.750000 0.000000
O O4 0.261949 0.547989 0.808985
O O5 0.613665 0.097686 0.203230
O O6 0.629941 0.875459 0.201024
O O7 0.616842 0.949705 0.965860
O O8 0.397119 0.272830 0.094954
O O9 0.422762 0.497328 0.026177
O O10 0.435074 0.314543 0.838412
O O11 0.323861 0.389361 0.933423
O O12 0.287696 0.838272 0.674691
O O13 0.930314 0.242396 0.085855
O O14 0.831112 0.120977 0.172285
O O15 0.500000 0.867569 0.250000
#
# Coordination Sequence:
#
# PCOD9265170 Si02
#       7
#     8   8   8   8   8   8   8
#     4  10  21  32  53  91 127 155 193 254 315 383
#     4  10  22  38  60  91 125 169 212 257 322 382
#     4   9  20  36  55  85 117 161 210 264 319 372
#     4  10  19  36  58  87 128 164 204 254 319 393
#     4  10  20  34  59  87 117 159 204 258 319 375
#     4  10  23  43  62  82 122 175 223 264 309 374
#     4   9  18  31  49  85 121 162 189 238 318 391
#
# _framework density 25.053127
#
# number of rings (size 3 to 8) (size 9 to 14) (size 15 to 20)
#    0.000    2.286    1.429    0.429    6.000    4.000 
#    0.000    2.857    0.000    0.857    0.000    0.000 
#    0.000    0.000    0.000    0.000    0.000    0.000 
#
# Total GULP energy -155911.140180 kJ/mol
# GULP energy per Si atom -5568.255006 kJ/mol
# Density = 2.499610 g / cm^3
# Si number density = 25.053127 Si / 1000 Ang^3
#
#
#
# Elastic Constant Matrix: (Units=GPa)
#
#
# Indices 1 2 3 4 5 6 
#
# 1 69.0890 24.5157 -2.2083 0.0000 -4.1625 0.0000
# 2 24.5157 96.0687 10.7783 0.0000 -3.6379 0.0000
# 3 -2.2083 10.7783 63.2707 0.0000 4.1641 0.0000
# 4 0.0000 0.0000 0.0000 39.9637 0.0000 5.8289
# 5 -4.1625 -3.6379 4.1641 0.0000 15.7584 0.0000
# 6 0.0000 0.0000 0.0000 5.8289 0.0000 8.2589
#
#
#
# Elastic Compliance Matrix: (Units=1/GPa)
#
#
# Indices 1 2 3 4 5 6 
#
# 1 0.016156 -0.004128 0.001067 0.000000 0.003032 0.000000
# 2 -0.004128 0.011806 -0.002303 0.000000 0.002244 0.000000
# 3 0.001067 -0.002303 0.016539 0.000000 -0.004620 0.000000
# 4 0.000000 0.000000 0.000000 0.027894 0.000000 -0.019687
# 5 0.003032 0.002244 -0.004620 0.000000 0.065998 0.000000
# 6 0.000000 0.000000 0.000000 -0.019687 0.000000 0.134976
#
#
# Mechanical properties :
#
#
# Convention : Reuss Voigt Hill
#
# Bulk Modulus (GPa) = 29.60857 32.73330 31.17094
# Shear Modulus (GPa) = 16.92892 25.81906 21.37399
#
# Velocity S-wave (km/s) = 2.60228 3.21374 2.92404
# Velocity P-wave (km/s) = 4.56871 5.18312 4.88558
#
# Compressibility (1/GPa) = 0.03377400
#
# Stress axis : x y z
#
# Youngs Moduli (GPa) = 61.89815 84.70355 60.46414
#
# Poissons Ratio (x) = 0.34963 -0.06454
# Poissons Ratio (y) = 0.25549 0.13924
# Poissons Ratio (z) = -0.06607 0.19506
#
# Static dielectric constant tensor:
#      x y z
#    x 2.170620 0.000000 0.132380 
#    y 0.000000 2.088210 0.000000 
#    z 0.132380 0.000000 2.110220 
# 
# From -- ./inp_files/111572.got.cif
#   From: 2010.05.17/outbox.cif.g08.bks.cpg/sg15_56_cif.got.tgz:111572.got - 2010.06.03 18:47:42.
