data_PCOD9265806
_publ_section_title
;
Structure prediction by ZEFSAII (Michael W. Deem and Ramdas Pophale) SiO2 
 PCOD9265806
Probable space group: C 2/C
;
_chemical_formula_sum "Si O2"
_cell_formula_units_Z 52
_cell_length_a 21.200907
_cell_length_b 10.117791
_cell_length_c 16.574940
_cell_angle_alpha 90.000000
_cell_angle_beta 137.292829
_cell_angle_gamma 90.000000
_cell_volume 2411.476120
_symmetry_space_group_name_H-M "C 2/C"
_symmetry_group_IT_number 15
_symmetry_cell_setting 'monoclinic'
loop_
_space_group_symop_operation_xyz
x,y,z
-x,y,1/2-z
-x,-y,-z
x,-y,1/2+z
1/2+x,1/2+y,z
1/2-x,1/2+y,1/2-z
1/2-x,1/2-y,-z
1/2+x,1/2-y,1/2+z
loop_
_atom_site_type_symbol
_atom_site_label
_atom_site_fract_x
_atom_site_fract_y
_atom_site_fract_z
Si Si1 0.223432 0.009126 0.629755
Si Si2 0.952519 0.057285 0.118421
Si Si3 0.890171 0.666971 0.573978
Si Si4 0.689734 0.733492 0.330288
Si Si5 0.681205 0.229543 0.358674
Si Si6 0.500000 0.929571 0.750000
Si Si7 0.114440 0.970405 0.190938
O O1 0.272041 0.869801 0.662444
O O2 0.157474 0.035781 0.643445
O O3 0.157195 0.025258 0.488606
O O4 0.296721 0.127883 0.701353
O O5 0.952014 0.213679 0.097849
O O6 0.000000 0.035547 0.250000
O O7 0.004424 0.961611 0.104097
O O8 0.792426 0.667088 0.435695
O O9 0.857130 0.721962 0.630174
O O10 0.946937 0.532003 0.639090
O O11 0.632255 0.619420 0.235936
O O12 0.750000 0.250000 0.500000
O O13 0.583522 0.160931 0.293748
O O14 0.661916 0.366247 0.295228
#
# Coordination Sequence:
#
# PCOD9265806 Si02
#       7
#     8   8   8   8   8   4   8
#     4  11  25  44  64  94 140 173 216 278 350 405
#     4  11  21  38  69  96 120 166 235 273 320 397
#     4  10  19  36  67  99 114 166 225 282 313 383
#     4  10  20  39  68  90 127 168 225 267 325 399
#     4  12  28  43  69 102 138 181 226 285 350 405
#     4  12  22  40  66 100 136 166 230 282 342 394
#     4  12  24  42  65  97 133 179 219 274 344 406
#
# _framework density 21.563555999999998
#
# number of rings (size 3 to 8) (size 9 to 14) (size 15 to 20)
#    0.000    0.923    3.846    3.231    5.385    0.000 
#    0.000    0.000    0.000    3.692    0.000    0.000 
#    0.000    0.000    0.000    0.000    0.000    0.000 
#
# Total GULP energy -145101.975834 kJ/mol
# GULP energy per Si atom -5580.845224 kJ/mol
# Density = 2.151448 g / cm^3
# Si number density = 21.563556 Si / 1000 Ang^3
#
#
#
# Elastic Constant Matrix: (Units=GPa)
#
#
# Indices 1 2 3 4 5 6 
#
# 1 83.5176 40.2644 20.3402 0.0000 2.9031 0.0000
# 2 40.2644 102.6642 21.1443 0.0000 5.6090 0.0000
# 3 20.3402 21.1443 53.0413 0.0000 14.9750 0.0000
# 4 0.0000 0.0000 0.0000 23.2867 0.0000 17.3929
# 5 2.9031 5.6090 14.9750 0.0000 26.8385 0.0000
# 6 0.0000 0.0000 0.0000 17.3929 0.0000 39.6395
#
#
#
# Elastic Compliance Matrix: (Units=1/GPa)
#
#
# Indices 1 2 3 4 5 6 
#
# 1 0.015523 -0.005290 -0.004371 0.000000 0.001865 0.000000
# 2 -0.005290 0.012415 -0.002789 0.000000 -0.000466 0.000000
# 3 -0.004371 -0.002789 0.025334 0.000000 -0.013080 0.000000
# 4 0.000000 0.000000 0.000000 0.063877 0.000000 -0.028028
# 5 0.001865 -0.000466 -0.013080 0.000000 0.044454 0.000000
# 6 0.000000 0.000000 0.000000 -0.028028 0.000000 0.037525
#
#
# Mechanical properties :
#
#
# Convention : Reuss Voigt Hill
#
# Bulk Modulus (GPa) = 35.24442 44.74679 39.99560
# Shear Modulus (GPa) = 21.41459 28.45120 24.93289
#
# Velocity S-wave (km/s) = 3.15475 3.63631 3.40406
# Velocity P-wave (km/s) = 5.44517 6.19891 5.83423
#
# Compressibility (1/GPa) = 0.02837329
#
# Stress axis : x y z
#
# Youngs Moduli (GPa) = 64.41855 80.54734 39.47287
#
# Poissons Ratio (x) = 0.42609 0.17252
# Poissons Ratio (y) = 0.34077 0.11009
# Poissons Ratio (z) = 0.28155 0.22464
#
# Static dielectric constant tensor:
#      x y z
#    x 1.984290 0.000000 0.074190 
#    y 0.000000 1.782220 0.000000 
#    z 0.074190 0.000000 1.858920 
# 
# From -- ./inp_files/214346.got.cif
#   From: 2010.05.17/outbox.cif.g08.bks.cpg/sg15_108_cif.got.tgz:214346.got - 2010.06.03 18:47:42.
