data_PCOD9265936
_publ_section_title
;
Structure prediction by ZEFSAII (Michael W. Deem and Ramdas Pophale) SiO2 
 PCOD9265936
Probable space group: C 2/C
;
_chemical_formula_sum "Si O2"
_cell_formula_units_Z 52
_cell_length_a 13.141012
_cell_length_b 19.091273
_cell_length_c 13.756114
_cell_angle_alpha 90.000000
_cell_angle_beta 146.649095
_cell_angle_gamma 90.000000
_cell_volume 1897.303020
_symmetry_space_group_name_H-M "C 2/C"
_symmetry_group_IT_number 15
_symmetry_cell_setting 'monoclinic'
loop_
_space_group_symop_operation_xyz
x,y,z
-x,y,1/2-z
-x,-y,-z
x,-y,1/2+z
1/2+x,1/2+y,z
1/2-x,1/2+y,1/2-z
1/2-x,1/2-y,-z
1/2+x,1/2-y,1/2+z
loop_
_atom_site_type_symbol
_atom_site_label
_atom_site_fract_x
_atom_site_fract_y
_atom_site_fract_z
Si Si1 0.096158 0.678256 0.475203
Si Si2 0.000000 0.062033 0.250000
Si Si3 0.500000 0.192556 0.750000
Si Si4 0.843477 0.553504 0.263872
Si Si5 0.299481 0.755985 0.852084
Si Si6 0.892885 0.437890 0.037308
Si Si7 0.500000 0.300045 0.250000
Si Si8 0.030085 0.131325 0.062166
O O1 0.313692 0.662309 0.637454
O O2 0.058953 0.748019 0.383364
O O3 0.982968 0.613563 0.341576
O O4 0.998181 0.701513 0.499301
O O5 0.199549 0.025595 0.413384
O O6 0.001258 0.105835 0.149749
O O7 0.656007 0.242469 0.826558
O O8 0.594104 0.138002 0.901452
O O9 0.873122 0.558330 0.404787
O O10 0.628062 0.571430 0.076679
O O11 0.920107 0.479705 0.289861
O O12 0.189729 0.809697 0.696535
O O13 0.358801 0.674668 0.885141
#
# Coordination Sequence:
#
# PCOD9265936 Si02
#       8
#     8   4   4   8   8   8   4   8
#     4  10  21  39  61  88 121 157 205 264 312 371
#     4  10  19  37  58  82 129 163 212 250 304 382
#     4  12  25  37  64 100 131 165 210 258 322 392
#     4   9  21  40  64  80 124 171 210 256 311 364
#     4  11  23  37  62  97 134 163 200 261 330 388
#     4  10  22  40  60  88 123 171 215 252 306 380
#     4  10  22  38  62  90 112 158 210 256 320 366
#     4  10  21  36  59  90 126 168 199 257 321 376
#
# _framework density 27.407323999999999
#
# number of rings (size 3 to 8) (size 9 to 14) (size 15 to 20)
#    0.000    1.846    1.538    2.308    8.615    2.462 
#    0.000    0.769    0.000    0.000    0.000    0.000 
#    0.000    0.000    0.000    0.000    0.000    0.000 
#
# Total GULP energy -144975.943471 kJ/mol
# GULP energy per Si atom -5575.997826 kJ/mol
# Density = 2.734494 g / cm^3
# Si number density = 27.407324 Si / 1000 Ang^3
#
#
#
# Elastic Constant Matrix: (Units=GPa)
#
#
# Indices 1 2 3 4 5 6 
#
# 1 148.2431 40.6667 74.3053 0.0000 35.0750 0.0000
# 2 40.6667 84.6188 17.4958 0.0000 31.2164 0.0000
# 3 74.3053 17.4958 73.0208 0.0000 35.3445 0.0000
# 4 0.0000 0.0000 0.0000 43.2123 0.0000 22.3272
# 5 35.0750 31.2164 35.3445 0.0000 56.7652 0.0000
# 6 0.0000 0.0000 0.0000 22.3272 0.0000 26.6933
#
#
#
# Elastic Compliance Matrix: (Units=1/GPa)
#
#
# Indices 1 2 3 4 5 6 
#
# 1 0.015503 -0.005378 -0.016149 0.000000 0.003433 0.000000
# 2 -0.005378 0.016707 0.006167 0.000000 -0.009704 0.000000
# 3 -0.016149 0.006167 0.036446 0.000000 -0.016106 0.000000
# 4 0.000000 0.000000 0.000000 0.040755 0.000000 -0.034089
# 5 0.003433 -0.009704 -0.016106 0.000000 0.030860 0.000000
# 6 0.000000 0.000000 0.000000 -0.034089 0.000000 0.065976
#
#
# Mechanical properties :
#
#
# Convention : Reuss Voigt Hill
#
# Bulk Modulus (GPa) = 26.36032 63.42426 44.89229
# Shear Modulus (GPa) = 20.03095 36.89513 28.46304
#
# Velocity S-wave (km/s) = 2.70638 3.67301 3.22610
# Velocity P-wave (km/s) = 4.40509 6.41713 5.50384
#
# Compressibility (1/GPa) = 0.03793581
#
# Stress axis : x y z
#
# Youngs Moduli (GPa) = 64.50189 59.85389 27.43759
#
# Poissons Ratio (x) = 0.32191 0.44310
# Poissons Ratio (y) = 0.34691 -0.16921
# Poissons Ratio (z) = 1.04167 -0.36912
#
# Static dielectric constant tensor:
#      x y z
#    x 2.259970 0.000000 -0.050070 
#    y 0.000000 2.104050 0.000000 
#    z -0.050070 0.000000 2.332060 
# 
# From -- ./inp_files/40794.got.cif
#   From: 2010.05.17/outbox.cif.g08.bks.cpg/sg15_21_cif.got.tgz:40794.got - 2010.06.03 18:47:42.
