data_PCOD9265222
_publ_section_title
;
Structure prediction by ZEFSAII (Michael W. Deem and Ramdas Pophale) SiO2 
 PCOD9265222
Probable space group: C 2/C
;
_chemical_formula_sum "Si O2"
_cell_formula_units_Z 48
_cell_length_a 8.512506
_cell_length_b 33.376880
_cell_length_c 17.916159
_cell_angle_alpha 90.000000
_cell_angle_beta 28.645881
_cell_angle_gamma 90.000000
_cell_volume 2440.289599
_symmetry_space_group_name_H-M "C 2/C"
_symmetry_group_IT_number 15
_symmetry_cell_setting 'monoclinic'
loop_
_space_group_symop_operation_xyz
x,y,z
-x,y,1/2-z
-x,-y,-z
x,-y,1/2+z
1/2+x,1/2+y,z
1/2-x,1/2+y,1/2-z
1/2-x,1/2-y,-z
1/2+x,1/2-y,1/2+z
loop_
_atom_site_type_symbol
_atom_site_label
_atom_site_fract_x
_atom_site_fract_y
_atom_site_fract_z
Si Si1 0.104861 0.375049 0.425815
Si Si2 0.198556 0.540320 0.935782
Si Si3 0.774670 0.879786 0.071896
Si Si4 0.108104 0.711857 0.921979
Si Si5 0.215761 0.793292 0.428691
Si Si6 0.185466 0.041367 0.435023
O O1 0.500000 0.374635 0.250000
O O2 0.019235 0.416844 0.500231
O O3 0.026086 0.331324 0.493776
O O4 0.922089 0.378156 0.423304
O O5 0.500000 0.540229 0.750000
O O6 0.276590 0.541566 0.991058
O O7 0.000000 0.500000 0.000000
O O8 0.500000 0.881775 0.250000
O O9 0.957038 0.836765 0.001882
O O10 0.992196 0.918889 0.990667
O O11 0.500000 0.712866 0.750000
O O12 0.906776 0.710405 0.927938
O O13 0.998509 0.754376 0.000475
O O14 0.500000 0.794760 0.250000
O O15 0.500000 0.040015 0.250000
O O16 0.000000 0.000000 0.500000
#
# Coordination Sequence:
#
# PCOD9265222 Si02
#       6
#     8   8   8   8   8   8
#     4   9  18  34  57  82 109 148 194 239 289 345
#     4  11  22  39  61  85 114 149 193 236 284 344
#     4  10  19  36  59  82 115 154 194 239 293 352
#     4   9  18  34  54  78 109 146 191 236 282 339
#     4   9  19  34  53  80 112 149 189 234 287 341
#     4  12  25  41  61  89 122 155 194 240 295 349
#
# _framework density 19.669796999999999
#
# number of rings (size 3 to 8) (size 9 to 14) (size 15 to 20)
#    0.000    2.000    0.000    4.500    0.000    2.667 
#    0.000    5.833    0.000    0.000    0.000    0.000 
#    0.000    0.000    0.000    0.000    0.000    0.000 
#
# Total GULP energy -133621.479053 kJ/mol
# GULP energy per Si atom -5567.561627 kJ/mol
# Density = 1.962503 g / cm^3
# Si number density = 19.669797 Si / 1000 Ang^3
#
#
#
# Elastic Constant Matrix: (Units=GPa)
#
#
# Indices 1 2 3 4 5 6 
#
# 1 75.9259 66.4799 25.1158 0.0000 7.9994 0.0000
# 2 66.4799 268.9852 61.9366 0.0000 -15.4639 0.0000
# 3 25.1158 61.9366 72.5549 0.0000 3.4491 0.0000
# 4 0.0000 0.0000 0.0000 17.4551 0.0000 1.9714
# 5 7.9994 -15.4639 3.4491 0.0000 23.3920 0.0000
# 6 0.0000 0.0000 0.0000 1.9714 0.0000 21.5942
#
#
#
# Elastic Compliance Matrix: (Units=1/GPa)
#
#
# Indices 1 2 3 4 5 6 
#
# 1 0.019005 -0.004756 -0.002075 0.000000 -0.009338 0.000000
# 2 -0.004756 0.006152 -0.003904 0.000000 0.006269 0.000000
# 3 -0.002075 -0.003904 0.018049 0.000000 -0.004532 0.000000
# 4 0.000000 0.000000 0.000000 0.057887 0.000000 -0.005285
# 5 -0.009338 0.006269 -0.004532 0.000000 0.050756 0.000000
# 6 0.000000 0.000000 0.000000 -0.005285 0.000000 0.046791
#
#
# Mechanical properties :
#
#
# Convention : Reuss Voigt Hill
#
# Bulk Modulus (GPa) = 46.00447 80.50340 63.25394
# Shear Modulus (GPa) = 21.99199 30.08383 26.03791
#
# Velocity S-wave (km/s) = 3.34737 3.91505 3.64229
# Velocity P-wave (km/s) = 6.19508 7.83920 7.06513
#
# Compressibility (1/GPa) = 0.02173702
#
# Stress axis : x y z
#
# Youngs Moduli (GPa) = 52.61659 162.53640 55.40553
#
# Poissons Ratio (x) = 0.77306 0.11496
# Poissons Ratio (y) = 0.25026 0.21628
# Poissons Ratio (z) = 0.10917 0.63449
#
# Static dielectric constant tensor:
#      x y z
#    x 1.983490 0.000000 0.064630 
#    y 0.000000 1.799760 0.000000 
#    z 0.064630 0.000000 1.691250 
# 
# From -- ./inp_files/194183.got.cif
#   From: 2010.05.17/outbox.cif.g08.bks.cpg/sg15_98_cif.got.tgz:194183.got - 2010.06.03 18:47:42.
