data_PCOD9265565
_publ_section_title
;
Structure prediction by ZEFSAII (Michael W. Deem and Ramdas Pophale) SiO2 
 PCOD9265565
Probable space group: C 2/C
;
_chemical_formula_sum "Si O2"
_cell_formula_units_Z 56
_cell_length_a 11.668677
_cell_length_b 15.470068
_cell_length_c 18.829565
_cell_angle_alpha 90.000000
_cell_angle_beta 120.763040
_cell_angle_gamma 90.000000
_cell_volume 2920.746720
_symmetry_space_group_name_H-M "C 2/C"
_symmetry_group_IT_number 15
_symmetry_cell_setting 'monoclinic'
loop_
_space_group_symop_operation_xyz
x,y,z
-x,y,1/2-z
-x,-y,-z
x,-y,1/2+z
1/2+x,1/2+y,z
1/2-x,1/2+y,1/2-z
1/2-x,1/2-y,-z
1/2+x,1/2-y,1/2+z
loop_
_atom_site_type_symbol
_atom_site_label
_atom_site_fract_x
_atom_site_fract_y
_atom_site_fract_z
Si Si1 0.120381 0.998801 0.438129
Si Si2 0.653970 0.307623 0.419331
Si Si3 0.351493 0.181392 0.212685
Si Si4 0.373418 0.243059 0.377659
Si Si5 0.634969 0.874206 0.332934
Si Si6 0.810530 0.657303 0.494777
Si Si7 0.825508 0.025055 0.377193
O O1 0.179331 0.910185 0.424682
O O2 0.141687 0.989612 0.529634
O O3 0.196919 0.086440 0.441385
O O4 0.961141 0.007729 0.377020
O O5 0.750000 0.250000 0.500000
O O6 0.651271 0.264190 0.340589
O O7 0.507479 0.297436 0.407941
O O8 0.500000 0.141939 0.250000
O O9 0.341297 0.200360 0.292362
O O10 0.231951 0.119928 0.151795
O O11 0.248975 0.303213 0.356706
O O12 0.392002 0.177645 0.449277
O O13 0.500000 0.853580 0.250000
O O14 0.613858 0.878338 0.411519
O O15 0.703678 0.960290 0.323941
O O16 0.750000 0.750000 0.500000
#
# Coordination Sequence:
#
# PCOD9265565 Si02
#       7
#     8   8   8   8   8   8   8
#     4  10  20  37  65  94 115 162 212 255 310 374
#     4  11  21  39  64  85 122 164 210 257 311 370
#     4  10  22  37  58  83 123 165 205 252 317 369
#     4  10  22  41  56  90 124 163 208 260 306 374
#     4  10  20  36  62  89 123 159 202 252 315 369
#     4   9  21  39  62  91 126 157 205 257 306 371
#     4  10  19  36  62  88 118 159 206 249 310 380
#
# _framework density 19.173179000000001
#
# number of rings (size 3 to 8) (size 9 to 14) (size 15 to 20)
#    0.000    2.000    2.857    0.429    2.000    3.429 
#    2.571    0.714    0.000    0.000    0.000    0.000 
#    0.000    0.000    0.000    0.000    0.000    0.000 
#
# Total GULP energy -156085.206126 kJ/mol
# GULP energy per Si atom -5574.471647 kJ/mol
# Density = 1.912954 g / cm^3
# Si number density = 19.173179 Si / 1000 Ang^3
#
#
#
# Elastic Constant Matrix: (Units=GPa)
#
#
# Indices 1 2 3 4 5 6 
#
# 1 55.6868 34.9853 34.5476 0.0000 -7.0655 0.0000
# 2 34.9853 104.1713 9.7439 0.0000 3.1324 0.0000
# 3 34.5476 9.7439 49.8288 0.0000 -8.3852 0.0000
# 4 0.0000 0.0000 0.0000 11.4710 0.0000 9.2807
# 5 -7.0655 3.1324 -8.3852 0.0000 34.5471 0.0000
# 6 0.0000 0.0000 0.0000 9.2807 0.0000 15.9751
#
#
#
# Elastic Compliance Matrix: (Units=1/GPa)
#
#
# Indices 1 2 3 4 5 6 
#
# 1 0.042121 -0.011781 -0.026347 0.000000 0.003288 0.000000
# 2 -0.011781 0.013139 0.005205 0.000000 -0.002337 0.000000
# 3 -0.026347 0.005205 0.037879 0.000000 0.003334 0.000000
# 4 0.000000 0.000000 0.000000 0.164490 0.000000 -0.095560
# 5 0.003288 -0.002337 0.003334 0.000000 0.030639 0.000000
# 6 0.000000 0.000000 0.000000 -0.095560 0.000000 0.118113
#
#
# Mechanical properties :
#
#
# Convention : Reuss Voigt Hill
#
# Bulk Modulus (GPa) = 36.63704 40.91562 38.77633
# Shear Modulus (GPa) = 10.38800 21.09265 15.74032
#
# Velocity S-wave (km/s) = 2.33018 3.32039 2.86834
# Velocity P-wave (km/s) = 5.13708 6.00719 5.58910
#
# Compressibility (1/GPa) = 0.02729478
#
# Stress axis : x y z
#
# Youngs Moduli (GPa) = 23.74100 76.10673 26.40008
#
# Poissons Ratio (x) = 0.89658 0.69556
# Poissons Ratio (y) = 0.27968 -0.13741
# Poissons Ratio (z) = 0.62550 -0.39614
#
# Static dielectric constant tensor:
#      x y z
#    x 1.647870 0.000000 0.005550 
#    y 0.000000 1.790940 0.000000 
#    z 0.005550 0.000000 1.671490 
# 
# From -- ./inp_files/198239.got.cif
#   From: 2010.05.17/outbox.cif.g08.bks.cpg/sg15_100_cif.got.tgz:198239.got - 2010.06.03 18:47:42.
