data_PCOD9265545
_publ_section_title
;
Structure prediction by ZEFSAII (Michael W. Deem and Ramdas Pophale) SiO2 
 PCOD9265545
Probable space group: C 2/C
;
_chemical_formula_sum "Si O2"
_cell_formula_units_Z 56
_cell_length_a 15.858565
_cell_length_b 13.775299
_cell_length_c 16.990920
_cell_angle_alpha 90.000000
_cell_angle_beta 130.758389
_cell_angle_gamma 90.000000
_cell_volume 2811.557113
_symmetry_space_group_name_H-M "C 2/C"
_symmetry_group_IT_number 15
_symmetry_cell_setting 'monoclinic'
loop_
_space_group_symop_operation_xyz
x,y,z
-x,y,1/2-z
-x,-y,-z
x,-y,1/2+z
1/2+x,1/2+y,z
1/2-x,1/2+y,1/2-z
1/2-x,1/2-y,-z
1/2+x,1/2-y,1/2+z
loop_
_atom_site_type_symbol
_atom_site_label
_atom_site_fract_x
_atom_site_fract_y
_atom_site_fract_z
Si Si1 0.846638 0.326279 0.077042
Si Si2 0.123138 0.309227 0.828032
Si Si3 0.633263 0.948401 0.683574
Si Si4 0.777480 0.353765 0.204265
Si Si5 0.577195 0.777739 0.537079
Si Si6 0.879167 0.471181 0.538123
Si Si7 0.169912 0.307877 0.093143
O O1 0.858263 0.333982 0.178424
O O2 0.817076 0.435835 0.033268
O O3 0.750000 0.250000 0.000000
O O4 0.934994 0.293537 0.064418
O O5 0.133064 0.372794 0.755496
O O6 0.126414 0.384718 0.901708
O O7 0.228392 0.238998 0.891478
O O8 0.000000 0.261809 0.750000
O O9 0.635221 0.875301 0.609343
O O10 0.509465 0.995413 0.607002
O O11 0.715116 0.034311 0.762571
O O12 0.656941 0.312989 0.104275
O O13 0.807997 0.295344 0.301304
O O14 0.454544 0.769651 0.499642
O O15 0.834968 0.421979 0.431993
#
# Coordination Sequence:
#
# PCOD9265545 Si02
#       7
#     8   8   8   8   8   8   8
#     4  10  21  36  57  86 121 155 197 243 281 346
#     4  10  20  37  63  90 113 149 195 249 303 354
#     4  10  19  36  62  85 115 150 202 247 287 351
#     4  11  21  36  60  86 120 160 191 244 295 339
#     4  10  22  38  57  90 122 152 199 243 290 354
#     4  10  20  36  60  91 111 149 202 247 296 344
#     4  11  22  37  62  91 119 151 194 250 303 349
#
# _framework density 19.917788999999999
#
# number of rings (size 3 to 8) (size 9 to 14) (size 15 to 20)
#    0.000    1.714    2.857    2.143    0.000    4.000 
#    0.000    0.714    0.000    0.000    7.429    0.000 
#    0.000    0.000    0.000    0.000    0.000    0.000 
#
# Total GULP energy -155994.204905 kJ/mol
# GULP energy per Si atom -5571.221604 kJ/mol
# Density = 1.987245 g / cm^3
# Si number density = 19.917789 Si / 1000 Ang^3
#
#
#
# Elastic Constant Matrix: (Units=GPa)
#
#
# Indices 1 2 3 4 5 6 
#
# 1 104.2109 49.1297 38.6118 0.0000 5.1867 0.0000
# 2 49.1297 90.5034 33.3472 0.0000 24.8820 0.0000
# 3 38.6118 33.3472 90.8448 0.0000 -15.2618 0.0000
# 4 0.0000 0.0000 0.0000 26.4979 0.0000 2.5865
# 5 5.1867 24.8820 -15.2618 0.0000 43.9518 0.0000
# 6 0.0000 0.0000 0.0000 2.5865 0.0000 33.2197
#
#
#
# Elastic Compliance Matrix: (Units=1/GPa)
#
#
# Indices 1 2 3 4 5 6 
#
# 1 0.013878 -0.006554 -0.003339 0.000000 0.000913 0.000000
# 2 -0.006554 0.021014 -0.007218 0.000000 -0.013629 0.000000
# 3 -0.003339 -0.007218 0.016810 0.000000 0.010317 0.000000
# 4 0.000000 0.000000 0.000000 0.038028 0.000000 -0.002961
# 5 0.000913 -0.013629 0.010317 0.000000 0.033943 0.000000
# 6 0.000000 0.000000 0.000000 -0.002961 0.000000 0.030333
#
#
# Mechanical properties :
#
#
# Convention : Reuss Voigt Hill
#
# Bulk Modulus (GPa) = 57.21082 58.63740 57.92411
# Shear Modulus (GPa) = 25.76620 31.69858 28.73239
#
# Velocity S-wave (km/s) = 3.60061 3.99365 3.80221
# Velocity P-wave (km/s) = 6.78761 7.12526 6.95848
#
# Compressibility (1/GPa) = 0.01747921
#
# Stress axis : x y z
#
# Youngs Moduli (GPa) = 72.05857 47.58795 59.48967
#
# Poissons Ratio (x) = 0.31190 0.19864
# Poissons Ratio (y) = 0.47229 0.42937
# Poissons Ratio (z) = 0.24061 0.34347
#
# Static dielectric constant tensor:
#      x y z
#    x 1.766190 0.000000 -0.060760 
#    y 0.000000 1.703690 0.000000 
#    z -0.060760 0.000000 1.761980 
# 
# From -- ./inp_files/210695.got.cif
#   From: 2010.05.17/outbox.cif.g08.bks.cpg/sg15_106_cif.got.tgz:210695.got - 2010.06.03 18:47:42.
