data_PCOD9265113
_publ_section_title
;
Structure prediction by ZEFSAII (Michael W. Deem and Ramdas Pophale) SiO2 
 PCOD9265113
Probable space group: C 2/C
;
_chemical_formula_sum "Si O2"
_cell_formula_units_Z 48
_cell_length_a 17.819654
_cell_length_b 29.945656
_cell_length_c 9.407885
_cell_angle_alpha 90.000000
_cell_angle_beta 31.713385
_cell_angle_gamma 90.000000
_cell_volume 2638.995313
_symmetry_space_group_name_H-M "C 2/C"
_symmetry_group_IT_number 15
_symmetry_cell_setting 'monoclinic'
loop_
_space_group_symop_operation_xyz
x,y,z
-x,y,1/2-z
-x,-y,-z
x,-y,1/2+z
1/2+x,1/2+y,z
1/2-x,1/2+y,1/2-z
1/2-x,1/2-y,-z
1/2+x,1/2-y,1/2+z
loop_
_atom_site_type_symbol
_atom_site_label
_atom_site_fract_x
_atom_site_fract_y
_atom_site_fract_z
Si Si1 0.152024 0.277251 0.051910
Si Si2 0.321379 0.959803 0.904309
Si Si3 0.337426 0.617375 0.004206
Si Si4 0.146598 0.379183 0.089643
Si Si5 0.661352 0.046978 0.797720
Si Si6 0.663352 0.719220 0.528649
O O1 0.122544 0.326810 0.161557
O O2 0.000000 0.257126 0.250000
O O3 0.250000 0.250000 0.000000
O O4 0.243870 0.280558 0.762497
O O5 0.491531 0.956704 0.602323
O O6 0.283601 0.006400 0.888896
O O7 0.252732 0.917735 0.938441
O O8 0.279697 0.957317 0.137405
O O9 0.500000 0.602314 0.750000
O O10 0.339336 0.666520 0.928278
O O11 0.268269 0.619235 0.272948
O O12 0.181173 0.408282 0.172463
O O13 0.000000 0.396119 0.250000
O O14 0.500000 0.732713 0.750000
O O15 0.750000 0.750000 0.500000
#
# Coordination Sequence:
#
# PCOD9265113 Si02
#       6
#     8   8   8   8   8   8
#     4  10  21  36  57  82 112 149 191 238 287 340
#     4  10  20  35  56  87 113 145 186 236 286 334
#     4  10  21  38  57  81 117 153 186 232 293 344
#     4  10  19  36  58  80 110 149 191 231 280 336
#     4  10  20  34  59  85 112 142 191 240 278 330
#     4  10  21  38  58  83 116 155 193 238 292 345
#
# _framework density 18.188739999999999
#
# number of rings (size 3 to 8) (size 9 to 14) (size 15 to 20)
#    0.000    2.000    1.667    2.000    2.333    1.333 
#    3.000    4.167    0.000    0.000    0.000    0.000 
#    0.000    0.000    0.000    0.000    0.000    0.000 
#
# Total GULP energy -133742.160745 kJ/mol
# GULP energy per Si atom -5572.590031 kJ/mol
# Density = 1.814734 g / cm^3
# Si number density = 18.188740 Si / 1000 Ang^3
#
#
#
# Elastic Constant Matrix: (Units=GPa)
#
#
# Indices 1 2 3 4 5 6 
#
# 1 110.4555 66.8818 26.8573 0.0000 13.7092 0.0000
# 2 66.8818 84.1733 5.0170 0.0000 14.4962 0.0000
# 3 26.8573 5.0170 68.2604 0.0000 -1.9349 0.0001
# 4 0.0000 0.0000 0.0000 54.0586 0.0000 26.6330
# 5 13.7092 14.4962 -1.9349 0.0000 35.1732 -0.0001
# 6 0.0000 0.0000 0.0001 26.6330 -0.0001 49.7217
#
#
#
# Elastic Compliance Matrix: (Units=1/GPa)
#
#
# Indices 1 2 3 4 5 6 
#
# 1 0.020278 -0.015365 -0.006904 0.000000 -0.001951 0.000000
# 2 -0.015365 0.024511 0.004134 0.000000 -0.003886 0.000000
# 3 -0.006904 0.004134 0.017117 0.000000 0.001929 0.000000
# 4 0.000000 0.000000 0.000000 0.025130 0.000000 -0.013461
# 5 -0.001951 -0.003886 0.001929 0.000000 0.030899 0.000000
# 6 0.000000 0.000000 0.000000 -0.013461 0.000000 0.027322
#
#
# Mechanical properties :
#
#
# Convention : Reuss Voigt Hill
#
# Bulk Modulus (GPa) = 39.00840 51.15571 45.08205
# Shear Modulus (GPa) = 26.30558 38.73290 32.51924
#
# Velocity S-wave (km/s) = 3.80709 4.61966 4.23292
# Velocity P-wave (km/s) = 6.38892 7.52602 6.98066
#
# Compressibility (1/GPa) = 0.02563551
#
# Stress axis : x y z
#
# Youngs Moduli (GPa) = 49.31501 40.79723 58.42075
#
# Poissons Ratio (x) = 0.62684 0.40336
# Poissons Ratio (y) = 0.75771 -0.24149
# Poissons Ratio (z) = 0.34049 -0.16864
#
# Static dielectric constant tensor:
#      x y z
#    x 1.565600 0.000000 0.004470 
#    y 0.000000 1.634420 0.000000 
#    z 0.004470 0.000000 1.610460 
# 
# From -- ./inp_files/43794.got.cif
#   From: 2010.05.17/outbox.cif.g08.bks.cpg/sg15_22_cif.got.tgz:43794.got - 2010.06.03 18:47:42.
