data_PCOD9265084
_publ_section_title
;
Structure prediction by ZEFSAII (Michael W. Deem and Ramdas Pophale) SiO2 
 PCOD9265084
Probable space group: C 2/C
;
_chemical_formula_sum "Si O2"
_cell_formula_units_Z 52
_cell_length_a 5.478203
_cell_length_b 22.278978
_cell_length_c 17.998085
_cell_angle_alpha 90.000000
_cell_angle_beta 65.998867
_cell_angle_gamma 90.000000
_cell_volume 2006.716508
_symmetry_space_group_name_H-M "C 2/C"
_symmetry_group_IT_number 15
_symmetry_cell_setting 'monoclinic'
loop_
_space_group_symop_operation_xyz
x,y,z
-x,y,1/2-z
-x,-y,-z
x,-y,1/2+z
1/2+x,1/2+y,z
1/2-x,1/2+y,1/2-z
1/2-x,1/2-y,-z
1/2+x,1/2-y,1/2+z
loop_
_atom_site_type_symbol
_atom_site_label
_atom_site_fract_x
_atom_site_fract_y
_atom_site_fract_z
Si Si1 0.547458 0.833245 0.472812
Si Si2 0.101370 0.469489 0.411165
Si Si3 0.723316 0.239466 0.825024
Si Si4 0.840602 0.948663 0.136596
Si Si5 0.528820 0.629613 0.472526
Si Si6 0.000000 0.352361 0.250000
Si Si7 0.814053 0.119160 0.202852
O O1 0.589931 0.897242 0.425378
O O2 0.710901 0.781129 0.411440
O O3 0.226771 0.826867 0.509565
O O4 0.690120 0.842808 0.534480
O O5 0.410434 0.482430 0.359812
O O6 0.000000 0.500000 0.500000
O O7 0.916268 0.483122 0.363629
O O8 0.511145 0.193512 0.816496
O O9 0.669000 0.308079 0.812605
O O10 0.000000 0.224390 0.750000
O O11 0.743858 0.897025 0.204612
O O12 0.949111 0.916773 0.047395
O O13 0.574560 0.596866 0.389500
O O14 0.500000 0.105194 0.250000
O O15 0.000000 0.105056 0.250000
#
# Coordination Sequence:
#
# PCOD9265084 Si02
#       7
#     8   8   8   8   8   4   8
#     4  10  21  36  57  88 109 158 190 232 306 346
#     4  10  19  36  57  88 111 144 197 225 284 358
#     4  11  22  35  56  82 127 159 197 245 304 352
#     4  10  22  35  60  92 115 165 182 236 304 347
#     4  10  20  39  55  83 119 146 210 237 288 359
#     4  12  20  38  58  86 134 152 196 238 298 380
#     4  11  24  38  57  84 111 162 211 258 300 333
#
# _framework density 25.912976
#
# number of rings (size 3 to 8) (size 9 to 14) (size 15 to 20)
#    0.000    1.538    3.846    3.231    0.000    1.231 
#    0.000    0.000    0.000    0.000   80.000    0.000 
#    0.000    0.000    0.000    0.000    0.000    0.000 
#
# Total GULP energy -145452.095137 kJ/mol
# GULP energy per Si atom -5594.311351 kJ/mol
# Density = 2.585400 g / cm^3
# Si number density = 25.912976 Si / 1000 Ang^3
#
#
#
# Elastic Constant Matrix: (Units=GPa)
#
#
# Indices 1 2 3 4 5 6 
#
# 1 181.3857 8.3688 3.4442 0.0000 6.9215 0.0000
# 2 8.3688 99.6719 5.3927 0.0000 -2.5158 0.0000
# 3 3.4442 5.3927 84.1764 0.0000 -3.6805 0.0000
# 4 0.0000 0.0000 0.0000 35.2540 0.0000 5.0096
# 5 6.9215 -2.5158 -3.6805 0.0000 43.8305 0.0000
# 6 0.0000 0.0000 0.0000 5.0096 0.0000 2.7922
#
#
#
# Elastic Compliance Matrix: (Units=1/GPa)
#
#
# Indices 1 2 3 4 5 6 
#
# 1 0.005575 -0.000479 -0.000238 0.000000 -0.000928 0.000000
# 2 -0.000479 0.010121 -0.000602 0.000000 0.000606 0.000000
# 3 -0.000238 -0.000602 0.011972 0.000000 0.001008 0.000000
# 4 0.000000 0.000000 0.000000 0.038072 0.000000 -0.068308
# 5 -0.000928 0.000606 0.001008 0.000000 0.023081 0.000000
# 6 0.000000 0.000000 0.000000 -0.068308 0.000000 0.480702
#
#
# Mechanical properties :
#
#
# Convention : Reuss Voigt Hill
#
# Bulk Modulus (GPa) = 39.95147 44.40505 42.17826
# Shear Modulus (GPa) = 8.61318 39.57722 24.09520
#
# Velocity S-wave (km/s) = 1.82513 3.91232 3.05265
# Velocity P-wave (km/s) = 4.46010 6.13040 5.36070
#
# Compressibility (1/GPa) = 0.02503037
#
# Stress axis : x y z
#
# Youngs Moduli (GPa) = 179.36826 98.80459 83.52669
#
# Poissons Ratio (x) = 0.04729 0.01988
# Poissons Ratio (y) = 0.08585 0.05031
# Poissons Ratio (z) = 0.04269 0.05951
#
# Static dielectric constant tensor:
#      x y z
#    x 2.210290 0.000000 0.023500 
#    y 0.000000 2.056250 0.000000 
#    z 0.023500 0.000000 2.061510 
# 
# From -- ./inp_files/130697.got.cif
#   From: 2010.05.17/outbox.cif.g08.bks.cpg/sg15_66_cif.got.tgz:130697.got - 2010.06.03 18:47:42.
