data_PCOD9265086
_publ_section_title
;
Structure prediction by ZEFSAII (Michael W. Deem and Ramdas Pophale) SiO2 
 PCOD9265086
Probable space group: C 2/C
;
_chemical_formula_sum "Si O2"
_cell_formula_units_Z 56
_cell_length_a 14.250256
_cell_length_b 18.867860
_cell_length_c 12.139697
_cell_angle_alpha 90.000000
_cell_angle_beta 61.261297
_cell_angle_gamma 90.000000
_cell_volume 2861.965447
_symmetry_space_group_name_H-M "C 2/C"
_symmetry_group_IT_number 15
_symmetry_cell_setting 'monoclinic'
loop_
_space_group_symop_operation_xyz
x,y,z
-x,y,1/2-z
-x,-y,-z
x,-y,1/2+z
1/2+x,1/2+y,z
1/2-x,1/2+y,1/2-z
1/2-x,1/2-y,-z
1/2+x,1/2-y,1/2+z
loop_
_atom_site_type_symbol
_atom_site_label
_atom_site_fract_x
_atom_site_fract_y
_atom_site_fract_z
Si Si1 0.872717 0.118915 0.303238
Si Si2 0.834536 0.694800 0.403016
Si Si3 0.208145 0.090812 0.902689
Si Si4 0.713585 0.440793 0.872651
Si Si5 0.006318 0.900429 0.115200
Si Si6 0.031543 0.261964 0.882064
Si Si7 0.253554 0.746925 0.627394
O O1 0.821516 0.101942 0.451643
O O2 0.826103 0.071788 0.230175
O O3 0.835938 0.197699 0.284142
O O4 0.000000 0.113698 0.250000
O O5 0.750000 0.750000 0.500000
O O6 0.783089 0.624321 0.381409
O O7 0.932585 0.684145 0.433216
O O8 0.603306 0.766490 0.731297
O O9 0.101203 0.080530 0.889465
O O10 0.257983 0.164903 0.831889
O O11 0.269405 0.017020 0.853514
O O12 0.607355 0.440592 0.008561
O O13 0.017789 0.816515 0.082641
O O14 0.000000 0.910933 0.250000
O O15 0.125349 0.271901 0.915929
O O16 0.250000 0.750000 0.500000
#
# Coordination Sequence:
#
# PCOD9265086 Si02
#       7
#     8   8   8   8   8   8   8
#     4  11  22  39  61  88 114 155 208 242 293 369
#     4  11  20  35  57  87 120 153 198 245 292 357
#     4  10  24  37  56  85 124 158 184 250 311 356
#     4  12  23  36  59  90 122 153 196 246 308 368
#     4  11  20  34  57  86 122 153 192 245 311 360
#     4  10  19  36  57  88 116 152 198 250 287 342
#     4   9  20  40  62  80 114 156 195 237 294 357
#
# _framework density 19.566973000000001
#
# number of rings (size 3 to 8) (size 9 to 14) (size 15 to 20)
#    0.000    1.429    5.714    0.429    2.000    0.000 
#    0.000    0.000    3.143    3.429    0.000    0.000 
#    0.000    0.000    0.000    0.000    0.000    0.000 
#
# Total GULP energy -156063.927092 kJ/mol
# GULP energy per Si atom -5573.711682 kJ/mol
# Density = 1.952244 g / cm^3
# Si number density = 19.566973 Si / 1000 Ang^3
#
#
#
# Elastic Constant Matrix: (Units=GPa)
#
#
# Indices 1 2 3 4 5 6 
#
# 1 117.9057 39.7972 27.4589 0.0000 25.9348 0.0000
# 2 39.7972 118.2371 4.4323 0.0000 2.1012 0.0000
# 3 27.4589 4.4323 51.9619 0.0000 17.5640 0.0000
# 4 0.0000 0.0000 0.0000 19.9970 0.0000 4.5219
# 5 25.9348 2.1012 17.5640 0.0000 27.9846 0.0000
# 6 0.0000 0.0000 0.0000 4.5219 0.0000 21.5945
#
#
#
# Elastic Compliance Matrix: (Units=1/GPa)
#
#
# Indices 1 2 3 4 5 6 
#
# 1 0.012626 -0.003964 -0.003147 0.000000 -0.009429 0.000000
# 2 -0.003964 0.009731 0.000343 0.000000 0.002728 0.000000
# 3 -0.003147 0.000343 0.025261 0.000000 -0.012963 0.000000
# 4 0.000000 0.000000 0.000000 0.052493 0.000000 -0.010992
# 5 -0.009429 0.002728 -0.012963 0.000000 0.052403 0.000000
# 6 0.000000 0.000000 0.000000 -0.010992 0.000000 0.048610
#
#
# Mechanical properties :
#
#
# Convention : Reuss Voigt Hill
#
# Bulk Modulus (GPa) = 29.34268 47.94239 38.64253
# Shear Modulus (GPa) = 22.12183 28.34298 25.23241
#
# Velocity S-wave (km/s) = 3.36604 3.81006 3.59491
# Velocity P-wave (km/s) = 5.48959 6.62648 6.08465
#
# Compressibility (1/GPa) = 0.03408005
#
# Stress axis : x y z
#
# Youngs Moduli (GPa) = 79.19961 102.76853 39.58737
#
# Poissons Ratio (x) = 0.40741 0.12459
# Poissons Ratio (y) = 0.31397 -0.01357
# Poissons Ratio (z) = 0.24925 -0.03522
#
# Static dielectric constant tensor:
#      x y z
#    x 1.679860 0.000000 0.014580 
#    y 0.000000 1.808730 0.000000 
#    z 0.014580 0.000000 1.671340 
# 
# From -- ./inp_files/106336.got.cif
#   From: 2010.05.17/outbox.cif.g08.bks.cpg/sg15_54_cif.got.tgz:106336.got - 2010.06.03 18:47:42.
