data_PCOD9265656
_publ_section_title
;
Structure prediction by ZEFSAII (Michael W. Deem and Ramdas Pophale) SiO2 
 PCOD9265656
Probable space group: C 2/C
;
_chemical_formula_sum "Si O2"
_cell_formula_units_Z 60
_cell_length_a 12.396118
_cell_length_b 14.277007
_cell_length_c 19.057000
_cell_angle_alpha 90.000000
_cell_angle_beta 110.275236
_cell_angle_gamma 90.000000
_cell_volume 3163.721233
_symmetry_space_group_name_H-M "C 2/C"
_symmetry_group_IT_number 15
_symmetry_cell_setting 'monoclinic'
loop_
_space_group_symop_operation_xyz
x,y,z
-x,y,1/2-z
-x,-y,-z
x,-y,1/2+z
1/2+x,1/2+y,z
1/2-x,1/2+y,1/2-z
1/2-x,1/2-y,-z
1/2+x,1/2-y,1/2+z
loop_
_atom_site_type_symbol
_atom_site_label
_atom_site_fract_x
_atom_site_fract_y
_atom_site_fract_z
Si Si1 0.853419 0.540069 0.078163
Si Si2 0.876215 0.308808 0.948606
Si Si3 0.500000 0.804732 0.250000
Si Si4 0.327487 0.199607 0.824534
Si Si5 0.375730 0.018907 0.348820
Si Si6 0.685057 0.153491 0.905247
Si Si7 0.133491 0.340557 0.781069
Si Si8 0.361973 0.202978 0.991339
O O1 0.772296 0.451782 0.071430
O O2 0.838119 0.615054 0.136796
O O3 0.986191 0.506988 0.112231
O O4 0.841428 0.592994 0.002053
O O5 0.844960 0.408233 0.904813
O O6 0.782554 0.229353 0.909965
O O7 0.871908 0.318712 0.032526
O O8 0.006093 0.282051 0.953222
O O9 0.580826 0.759050 0.209909
O O10 0.405184 0.854343 0.179198
O O11 0.207770 0.249386 0.782300
O O12 0.362568 0.227322 0.910521
O O13 0.327166 0.085911 0.826637
O O14 0.350083 0.078888 0.273213
O O15 0.000000 0.316070 0.750000
O O16 0.250000 0.250000 0.000000
#
# Coordination Sequence:
#
# PCOD9265656 Si02
#       8
#     8   8   4   8   8   8   8   8
#     4  10  19  36  63  91 117 158 211 254 301 363
#     4  10  22  39  60  92 126 160 207 255 310 361
#     4  12  22  36  60  96 118 156 206 256 308 358
#     4  12  22  38  65  90 124 158 213 257 310 362
#     4  10  20  36  62  89 118 163 211 256 298 368
#     4  11  21  37  62  91 126 160 202 261 305 364
#     4  10  22  38  61  91 124 161 203 258 311 366
#     4  11  21  39  63  90 123 162 206 258 307 369
#
# _framework density 18.965008000000001
#
# number of rings (size 3 to 8) (size 9 to 14) (size 15 to 20)
#    0.000    1.333    4.000    2.400    1.867    2.133 
#    0.000    0.667    5.867    0.000    0.000    0.000 
#    0.000    0.000    0.000    0.000    0.000    0.000 
#
# Total GULP energy -167101.052739 kJ/mol
# GULP energy per Si atom -5570.035091 kJ/mol
# Density = 1.892184 g / cm^3
# Si number density = 18.965008 Si / 1000 Ang^3
#
#
#
# Elastic Constant Matrix: (Units=GPa)
#
#
# Indices 1 2 3 4 5 6 
#
# 1 113.2397 65.2506 26.2137 0.0000 -5.3966 0.0000
# 2 65.2506 112.6039 10.0560 0.0000 19.6996 0.0000
# 3 26.2137 10.0560 55.0326 0.0000 -6.9027 0.0000
# 4 0.0000 0.0000 0.0000 11.3361 0.0000 -0.6629
# 5 -5.3966 19.6996 -6.9027 0.0000 26.5309 0.0000
# 6 0.0000 0.0000 0.0000 -0.6629 0.0000 31.1161
#
#
#
# Elastic Compliance Matrix: (Units=1/GPa)
#
#
# Indices 1 2 3 4 5 6 
#
# 1 0.016866 -0.011199 -0.004666 0.000000 0.010532 0.000000
# 2 -0.011199 0.018115 0.000053 0.000000 -0.015715 0.000000
# 3 -0.004666 0.000053 0.020943 0.000000 0.004460 0.000000
# 4 0.000000 0.000000 0.000000 0.088323 0.000000 0.001882
# 5 0.010532 -0.015715 0.004460 0.000000 0.052663 0.000000
# 6 0.000000 0.000000 0.000000 0.001882 0.000000 0.032178
#
#
# Mechanical properties :
#
#
# Convention : Reuss Voigt Hill
#
# Bulk Modulus (GPa) = 41.15248 53.76854 47.46051
# Shear Modulus (GPa) = 18.60025 25.75369 22.17697
#
# Velocity S-wave (km/s) = 3.13512 3.68905 3.42330
# Velocity P-wave (km/s) = 5.90352 6.82337 6.38005
#
# Compressibility (1/GPa) = 0.02429987
#
# Stress axis : x y z
#
# Youngs Moduli (GPa) = 59.28997 55.20331 47.74758
#
# Poissons Ratio (x) = 0.61824 0.22281
# Poissons Ratio (y) = 0.66401 -0.00255
# Poissons Ratio (z) = 0.27667 -0.00295
#
# Static dielectric constant tensor:
#      x y z
#    x 1.694680 0.000000 -0.037390 
#    y 0.000000 1.672830 0.000000 
#    z -0.037390 0.000000 1.708860 
# 
# From -- ./inp_files/238801.got.cif
#   From: 2010.05.17/outbox.cif.g08.bks.cpg/sg15_120_cif.got.tgz:238801.got - 2010.06.03 18:47:42.
