data_PCOD9265571
_publ_section_title
;
Structure prediction by ZEFSAII (Michael W. Deem and Ramdas Pophale) SiO2 
 PCOD9265571
Probable space group: C 2/C
;
_chemical_formula_sum "Si O2"
_cell_formula_units_Z 32
_cell_length_a 21.676927
_cell_length_b 4.972544
_cell_length_c 18.178837
_cell_angle_alpha 90.000000
_cell_angle_beta 121.629375
_cell_angle_gamma 90.000000
_cell_volume 1668.421460
_symmetry_space_group_name_H-M "C 2/C"
_symmetry_group_IT_number 15
_symmetry_cell_setting 'monoclinic'
loop_
_space_group_symop_operation_xyz
x,y,z
-x,y,1/2-z
-x,-y,-z
x,-y,1/2+z
1/2+x,1/2+y,z
1/2-x,1/2+y,1/2-z
1/2-x,1/2-y,-z
1/2+x,1/2-y,1/2+z
loop_
_atom_site_type_symbol
_atom_site_label
_atom_site_fract_x
_atom_site_fract_y
_atom_site_fract_z
Si Si1 0.283217 0.070673 0.730471
Si Si2 0.920097 0.251309 0.392043
Si Si3 0.585522 0.754347 0.513071
Si Si4 0.723159 0.504003 0.530382
O O1 0.233443 0.311792 0.730071
O O2 0.364890 0.176492 0.792883
O O3 0.260650 0.999469 0.633904
O O4 0.894694 0.450989 0.442918
O O5 0.004970 0.296312 0.430589
O O6 0.917388 0.945130 0.418265
O O7 0.639809 0.592796 0.494221
O O8 0.750000 0.750000 0.500000
O O9 0.750000 0.250000 0.500000
#
# Coordination Sequence:
#
# PCOD9265571 Si02
#       4
#     8   8   8   8
#     4  12  21  38  63  91 119 159 219 259 297 368
#     4  10  19  36  62  89 114 152 213 264 290 353
#     4  10  20  36  60  88 119 157 201 255 313 357
#     4  12  24  38  58  92 131 165 196 254 326 380
#
# _framework density 19.179805999999999
#
# number of rings (size 3 to 8) (size 9 to 14) (size 15 to 20)
#    0.000    1.000    5.000    3.000    0.000    0.000 
#    0.000    1.250    0.000    3.000    0.000    0.000 
#    0.000    0.000    0.000    0.000    0.000    0.000 
#
# Total GULP energy -89178.481261 kJ/mol
# GULP energy per Si atom -5573.655079 kJ/mol
# Density = 1.913615 g / cm^3
# Si number density = 19.179806 Si / 1000 Ang^3
#
#
#
# Elastic Constant Matrix: (Units=GPa)
#
#
# Indices 1 2 3 4 5 6 
#
# 1 105.0214 26.3640 63.0729 0.0001 9.8133 -0.0006
# 2 26.3640 126.2167 37.3032 0.0009 -1.2205 -0.0029
# 3 63.0729 37.3032 129.3563 0.0002 17.0106 -0.0003
# 4 0.0001 0.0009 0.0002 33.7286 0.0000 -9.1245
# 5 9.8133 -1.2205 17.0106 0.0000 28.2408 0.0001
# 6 -0.0006 -0.0029 -0.0003 -9.1245 0.0001 39.7601
#
#
#
# Elastic Compliance Matrix: (Units=1/GPa)
#
#
# Indices 1 2 3 4 5 6 
#
# 1 0.013598 -0.001018 -0.006201 0.000000 -0.001034 0.000000
# 2 -0.001018 0.008847 -0.002337 0.000000 0.002144 0.000001
# 3 -0.006201 -0.002337 0.012118 0.000000 -0.005245 0.000000
# 4 0.000000 0.000000 0.000000 0.031611 0.000000 0.007254
# 5 -0.001034 0.002144 -0.005245 0.000000 0.039021 0.000000
# 6 0.000000 0.000001 0.000000 0.007254 0.000000 0.026816
#
#
# Mechanical properties :
#
#
# Convention : Reuss Voigt Hill
#
# Bulk Modulus (GPa) = 64.71734 68.23052 66.47393
# Shear Modulus (GPa) = 31.99554 35.93617 33.96585
#
# Velocity S-wave (km/s) = 4.08878 4.33326 4.21279
# Velocity P-wave (km/s) = 7.49043 7.79022 7.64179
#
# Compressibility (1/GPa) = 0.01545181
#
# Stress axis : x y z
#
# Youngs Moduli (GPa) = 73.54021 113.03459 82.52382
#
# Poissons Ratio (x) = 0.11503 0.51171
# Poissons Ratio (y) = 0.07484 0.19285
# Poissons Ratio (z) = 0.45601 0.26415
#
# Static dielectric constant tensor:
#      x y z
#    x 1.594050 -0.000020 0.017750 
#    y -0.000020 1.660310 0.000000 
#    z 0.017750 0.000000 1.654120 
# 
# From -- ./inp_files/165184.got.cif
#   From: 2010.05.17/outbox.cif.g08.bks.cpg/sg15_83_cif.got.tgz:165184.got - 2010.06.03 18:47:42.
