data_PCOD9265251
_publ_section_title
;
Structure prediction by ZEFSAII (Michael W. Deem and Ramdas Pophale) SiO2 
 PCOD9265251
Probable space group: C 2/C
;
_chemical_formula_sum "Si O2"
_cell_formula_units_Z 40
_cell_length_a 20.475638
_cell_length_b 10.183176
_cell_length_c 12.586120
_cell_angle_alpha 90.000000
_cell_angle_beta 141.466510
_cell_angle_gamma 90.000000
_cell_volume 1634.861888
_symmetry_space_group_name_H-M "C 2/C"
_symmetry_group_IT_number 15
_symmetry_cell_setting 'monoclinic'
loop_
_space_group_symop_operation_xyz
x,y,z
-x,y,1/2-z
-x,-y,-z
x,-y,1/2+z
1/2+x,1/2+y,z
1/2-x,1/2+y,1/2-z
1/2-x,1/2-y,-z
1/2+x,1/2-y,1/2+z
loop_
_atom_site_type_symbol
_atom_site_label
_atom_site_fract_x
_atom_site_fract_y
_atom_site_fract_z
Si Si1 0.248598 0.667295 0.737784
Si Si2 0.564566 0.894412 0.162902
Si Si3 0.124888 0.341633 0.721494
Si Si4 0.642180 0.314396 0.907048
Si Si5 0.406453 0.547868 0.803006
O O1 0.141199 0.648250 0.662612
O O2 0.262883 0.796223 0.681587
O O3 0.294569 0.550475 0.723854
O O4 0.336472 0.677780 0.941694
O O5 0.564280 0.783009 0.249581
O O6 0.614287 0.027582 0.276963
O O7 0.448245 0.894532 0.967351
O O8 0.079222 0.203350 0.704425
O O9 0.611361 0.455319 0.819823
O O10 0.750000 0.250000 0.000000
O O11 0.500000 0.500000 0.000000
#
# Coordination Sequence:
#
# PCOD9265251 Si02
#       5
#     8   8   8   8   8
#     4   9  22  35  62  84 122 161 197 247 314 356
#     4  10  19  36  59  85 118 153 208 244 305 359
#     4   9  21  35  59  86 117 159 199 250 297 369
#     4  10  20  37  62  90 118 159 207 250 297 375
#     4  10  20  36  61  88 121 161 203 248 303 368
#
# _framework density 24.466901
#
# number of rings (size 3 to 8) (size 9 to 14) (size 15 to 20)
#    1.200    1.200    2.000    0.000    5.600    3.200 
#    0.000    4.000    4.400    2.400    0.000    0.000 
#    0.000    0.000    0.000    0.000    0.000    0.000 
#
# Total GULP energy -111383.711525 kJ/mol
# GULP energy per Si atom -5569.185576 kJ/mol
# Density = 2.441121 g / cm^3
# Si number density = 24.466901 Si / 1000 Ang^3
#
#
#
# Elastic Constant Matrix: (Units=GPa)
#
#
# Indices 1 2 3 4 5 6 
#
# 1 72.6827 16.1084 -8.1599 0.0000 20.9029 0.0000
# 2 16.1084 178.4700 -9.5503 0.0000 -9.4958 0.0000
# 3 -8.1599 -9.5503 43.8613 0.0000 5.2348 0.0000
# 4 0.0000 0.0000 0.0000 17.2655 0.0000 23.2164
# 5 20.9029 -9.4958 5.2348 0.0000 31.3137 0.0000
# 6 0.0000 0.0000 0.0000 23.2164 0.0000 0.6224
#
#
#
# Elastic Compliance Matrix: (Units=1/GPa)
#
#
# Indices 1 2 3 4 5 6 
#
# 1 0.018795 -0.002190 0.004690 0.000000 -0.013994 0.000000
# 2 -0.002190 0.005999 0.000517 0.000000 0.003194 0.000000
# 3 0.004690 0.000517 0.024631 0.000000 -0.007091 0.000000
# 4 0.000000 0.000000 0.000000 -0.001178 0.000000 0.043949
# 5 -0.013994 0.003194 -0.007091 0.000000 0.043431 0.000000
# 6 0.000000 0.000000 0.000000 0.043949 0.000000 -0.032684
#
#
# Mechanical properties :
#
#
# Convention : Reuss Voigt Hill
#
# Bulk Modulus (GPa) = 18.03138 32.42337 25.22737
# Shear Modulus (GPa) = 69.98469 29.61471 49.79970
#
# Velocity S-wave (km/s) = 5.35406 3.48285 4.51642
# Velocity P-wave (km/s) = 6.75329 5.42719 6.12623
#
# Compressibility (1/GPa) = 0.05545889
#
# Stress axis : x y z
#
# Youngs Moduli (GPa) = 53.20562 166.70819 40.59979
#
# Poissons Ratio (x) = 0.36510 -0.19041
# Poissons Ratio (y) = 0.11652 -0.02101
# Poissons Ratio (z) = -0.24953 -0.08626
#
# Static dielectric constant tensor:
#      x y z
#    x 1.950040 0.000000 0.033570 
#    y 0.000000 2.113090 0.000000 
#    z 0.033570 0.000000 2.143000 
# 
# From -- ./inp_files/172814.got.cif
#   From: 2010.05.17/outbox.cif.g08.bks.cpg/sg15_87_cif.got.tgz:172814.got - 2010.06.03 18:47:42.
