data_PCOD9265314
_publ_section_title
;
Structure prediction by ZEFSAII (Michael W. Deem and Ramdas Pophale) SiO2 
 PCOD9265314
Probable space group: C 2/C
;
_chemical_formula_sum "Si O2"
_cell_formula_units_Z 44
_cell_length_a 9.968224
_cell_length_b 22.547952
_cell_length_c 10.830437
_cell_angle_alpha 90.000000
_cell_angle_beta 64.362173
_cell_angle_gamma 90.000000
_cell_volume 2194.619705
_symmetry_space_group_name_H-M "C 2/C"
_symmetry_group_IT_number 15
_symmetry_cell_setting 'monoclinic'
loop_
_space_group_symop_operation_xyz
x,y,z
-x,y,1/2-z
-x,-y,-z
x,-y,1/2+z
1/2+x,1/2+y,z
1/2-x,1/2+y,1/2-z
1/2-x,1/2-y,-z
1/2+x,1/2-y,1/2+z
loop_
_atom_site_type_symbol
_atom_site_label
_atom_site_fract_x
_atom_site_fract_y
_atom_site_fract_z
Si Si1 0.724575 0.903689 0.786138
Si Si2 0.287381 0.769741 0.781816
Si Si3 0.784494 0.037448 0.509230
Si Si4 0.539164 0.715384 0.557908
Si Si5 0.000000 0.489094 0.750000
Si Si6 0.065623 0.078810 0.528916
O O1 0.683693 0.836066 0.776039
O O2 0.779918 0.916123 0.900812
O O3 0.586901 0.946506 0.810384
O O4 0.851793 0.919865 0.636670
O O5 0.364259 0.727661 0.649089
O O6 0.376630 0.754543 0.872286
O O7 0.115423 0.768191 0.896424
O O8 0.898018 0.059016 0.569221
O O9 0.622913 0.026756 0.629908
O O10 0.848144 0.973762 0.435262
O O11 0.572670 0.646131 0.572481
#
# Coordination Sequence:
#
# PCOD9265314 Si02
#       6
#     8   8   8   8   4   8
#     4  10  19  36  60  78 116 158 187 233 289 352
#     4   9  18  33  56  82 110 143 194 229 286 331
#     4  10  20  37  55  85 115 157 188 235 293 341
#     4   9  17  35  54  84 110 145 185 243 276 337
#     4  10  20  34  52  86 118 146 194 236 284 342
#     4   9  20  37  57  82 118 147 197 235 281 351
#
# _framework density 20.049032
#
# number of rings (size 3 to 8) (size 9 to 14) (size 15 to 20)
#    0.000    2.545    0.000    2.182    0.000    1.455 
#   22.909    0.909    0.000    0.000    0.000    0.000 
#    0.000    0.000    0.000    0.000    0.000    0.000 
#
# Total GULP energy -122605.924389 kJ/mol
# GULP energy per Si atom -5572.996563 kJ/mol
# Density = 2.000340 g / cm^3
# Si number density = 20.049032 Si / 1000 Ang^3
#
#
#
# Elastic Constant Matrix: (Units=GPa)
#
#
# Indices 1 2 3 4 5 6 
#
# 1 48.0171 23.0176 33.9730 0.0000 -17.8927 0.0000
# 2 23.0176 120.3226 41.5270 0.0000 -3.0564 0.0000
# 3 33.9730 41.5270 79.5410 0.0000 -25.7931 0.0000
# 4 0.0000 0.0000 0.0000 28.1036 0.0000 -2.7033
# 5 -17.8927 -3.0564 -25.7931 0.0000 32.2994 0.0000
# 6 0.0000 0.0000 0.0000 -2.7033 0.0000 17.3436
#
#
#
# Elastic Compliance Matrix: (Units=1/GPa)
#
#
# Indices 1 2 3 4 5 6 
#
# 1 0.032463 -0.002853 -0.008949 0.000000 0.010567 0.000000
# 2 -0.002853 0.010876 -0.006259 0.000000 -0.005550 0.000000
# 3 -0.008949 -0.006259 0.024105 0.000000 0.013699 0.000000
# 4 0.000000 0.000000 0.000000 0.036124 0.000000 0.005631
# 5 0.010567 -0.005550 0.013699 0.000000 0.047228 0.000000
# 6 0.000000 0.000000 0.000000 0.005631 0.000000 0.058536
#
#
# Mechanical properties :
#
#
# Convention : Reuss Voigt Hill
#
# Bulk Modulus (GPa) = 31.92812 49.43511 40.68161
# Shear Modulus (GPa) = 19.53925 25.50685 22.52305
#
# Velocity S-wave (km/s) = 3.12520 3.57069 3.35535
# Velocity P-wave (km/s) = 5.38350 6.45836 5.94527
#
# Compressibility (1/GPa) = 0.03132035
#
# Stress axis : x y z
#
# Youngs Moduli (GPa) = 30.80452 91.94498 41.48575
#
# Poissons Ratio (x) = 0.26232 0.37127
# Poissons Ratio (y) = 0.08789 0.25967
# Poissons Ratio (z) = 0.27568 0.57551
#
# Static dielectric constant tensor:
#      x y z
#    x 1.741550 0.000000 -0.036630 
#    y 0.000000 1.720280 0.000000 
#    z -0.036630 0.000000 1.755330 
# 
# From -- ./inp_files/88301.got.cif
#   From: 2010.05.17/outbox.cif.g08.bks.cpg/sg15_45_cif.got.tgz:88301.got - 2010.06.03 18:47:42.
