data_PCOD9265609
_publ_section_title
;
Structure prediction by ZEFSAII (Michael W. Deem and Ramdas Pophale) SiO2 
 PCOD9265609
Probable space group: C 2/C
;
_chemical_formula_sum "Si O2"
_cell_formula_units_Z 32
_cell_length_a 22.579176
_cell_length_b 5.180622
_cell_length_c 16.267175
_cell_angle_alpha 90.000000
_cell_angle_beta 137.145001
_cell_angle_gamma 90.000000
_cell_volume 1294.207284
_symmetry_space_group_name_H-M "C 2/C"
_symmetry_group_IT_number 15
_symmetry_cell_setting 'monoclinic'
loop_
_space_group_symop_operation_xyz
x,y,z
-x,y,1/2-z
-x,-y,-z
x,-y,1/2+z
1/2+x,1/2+y,z
1/2-x,1/2+y,1/2-z
1/2-x,1/2-y,-z
1/2+x,1/2-y,1/2+z
loop_
_atom_site_type_symbol
_atom_site_label
_atom_site_fract_x
_atom_site_fract_y
_atom_site_fract_z
Si Si1 0.538759 0.300772 0.380933
Si Si2 0.561936 0.198170 0.694138
Si Si3 0.757599 0.156215 0.208426
Si Si4 0.337822 0.301656 0.540292
O O1 0.500000 0.286033 0.250000
O O2 0.495020 0.548332 0.379229
O O3 0.636676 0.407238 0.461969
O O4 0.498385 0.049623 0.382750
O O5 0.652000 0.228028 0.736093
O O6 0.408244 0.207619 0.678673
O O7 0.728825 0.368393 0.245636
O O8 0.681967 0.151312 0.063196
O O9 0.250000 0.250000 0.500000
#
# Coordination Sequence:
#
# PCOD9265609 Si02
#       4
#     8   8   8   8
#     4  10  19  36  62  94 122 153 203 263 312 364
#     4  10  21  39  63  91 122 159 206 260 313 369
#     4  11  24  42  61  89 128 170 212 259 312 375
#     4   9  21  41  67  94 124 166 214 260 312 374
#
# _framework density 24.725559000000001
#
# number of rings (size 3 to 8) (size 9 to 14) (size 15 to 20)
#    0.000    2.000    0.000    3.750    0.000    6.000 
#    0.000   28.750    0.000    0.000    0.000    0.000 
#    0.000    0.000    0.000    0.000    0.000    0.000 
#
# Total GULP energy -89280.268155 kJ/mol
# GULP energy per Si atom -5580.016760 kJ/mol
# Density = 2.466928 g / cm^3
# Si number density = 24.725559 Si / 1000 Ang^3
#
#
#
# Elastic Constant Matrix: (Units=GPa)
#
#
# Indices 1 2 3 4 5 6 
#
# 1 94.3775 37.6510 30.5246 0.0007 44.1320 0.0009
# 2 37.6510 187.0108 16.5269 0.0056 26.4771 0.0092
# 3 30.5246 16.5269 49.9123 0.0023 14.1631 0.0039
# 4 0.0007 0.0056 0.0023 17.0076 0.0012 3.6560
# 5 44.1320 26.4771 14.1631 0.0012 48.6633 0.0020
# 6 0.0009 0.0092 0.0039 3.6560 0.0020 22.8980
#
#
#
# Elastic Compliance Matrix: (Units=1/GPa)
#
#
# Indices 1 2 3 4 5 6 
#
# 1 0.021315 -0.001276 -0.007984 0.000001 -0.016312 0.000002
# 2 -0.001276 0.005928 -0.000649 -0.000001 -0.001879 -0.000002
# 3 -0.007984 -0.000649 0.025047 -0.000002 0.000304 -0.000003
# 4 0.000001 -0.000001 -0.000002 0.060887 -0.000001 -0.009722
# 5 -0.016312 -0.001879 0.000304 -0.000001 0.036276 -0.000002
# 6 0.000002 -0.000002 -0.000003 -0.009722 -0.000002 0.045224
#
#
# Mechanical properties :
#
#
# Convention : Reuss Voigt Hill
#
# Bulk Modulus (GPa) = 30.79762 55.63393 43.21577
# Shear Modulus (GPa) = 22.19079 34.15366 28.17223
#
# Velocity S-wave (km/s) = 2.99905 3.72063 3.37916
# Velocity P-wave (km/s) = 4.94725 6.40366 5.72198
#
# Compressibility (1/GPa) = 0.03247004
#
# Stress axis : x y z
#
# Youngs Moduli (GPa) = 46.91561 168.70234 39.92564
#
# Poissons Ratio (x) = 0.21531 0.31877
# Poissons Ratio (y) = 0.05988 0.02592
# Poissons Ratio (z) = 0.37458 0.10950
#
# Static dielectric constant tensor:
#      x y z
#    x 2.037140 0.000000 0.029140 
#    y 0.000000 1.970800 0.000000 
#    z 0.029140 0.000000 1.985120 
# 
# From -- ./inp_files/165188.got.cif
#   From: 2010.05.17/outbox.cif.g08.bks.cpg/sg15_83_cif.got.tgz:165188.got - 2010.06.03 18:47:42.
