data_PCOD9265946
_publ_section_title
;
Structure prediction by ZEFSAII (Michael W. Deem and Ramdas Pophale) SiO2 
 PCOD9265946
Probable space group: C 2/C
;
_chemical_formula_sum "Si O2"
_cell_formula_units_Z 64
_cell_length_a 10.460595
_cell_length_b 8.864277
_cell_length_c 28.419516
_cell_angle_alpha 90.000000
_cell_angle_beta 73.025815
_cell_angle_gamma 90.000000
_cell_volume 2520.417436
_symmetry_space_group_name_H-M "C 2/C"
_symmetry_group_IT_number 15
_symmetry_cell_setting 'monoclinic'
loop_
_space_group_symop_operation_xyz
x,y,z
-x,y,1/2-z
-x,-y,-z
x,-y,1/2+z
1/2+x,1/2+y,z
1/2-x,1/2+y,1/2-z
1/2-x,1/2-y,-z
1/2+x,1/2-y,1/2+z
loop_
_atom_site_type_symbol
_atom_site_label
_atom_site_fract_x
_atom_site_fract_y
_atom_site_fract_z
Si Si1 0.891073 0.057566 0.049881
Si Si2 0.023985 0.359439 0.464241
Si Si3 0.572225 0.608989 0.119616
Si Si4 0.817271 0.347684 0.252585
Si Si5 0.940713 0.401433 0.615275
Si Si6 0.191749 0.250496 0.951938
Si Si7 0.173116 0.966207 0.701230
Si Si8 0.918468 0.436922 0.332001
O O1 0.866123 0.231430 0.038324
O O2 0.955642 0.075299 0.095084
O O3 0.780388 0.927487 0.058704
O O4 0.000000 0.000000 0.000000
O O5 0.881000 0.277418 0.489879
O O6 0.000000 0.500000 0.500000
O O7 0.052018 0.438068 0.412324
O O8 0.708763 0.614888 0.073955
O O9 0.576504 0.511273 0.166752
O O10 0.582387 0.778558 0.139823
O O11 0.850484 0.174253 0.260903
O O12 0.697691 0.386592 0.230060
O O13 0.804828 0.430243 0.304534
O O14 0.943921 0.418945 0.212143
O O15 0.924953 0.276260 0.576618
O O16 0.807316 0.407237 0.660431
O O17 0.064893 0.415043 0.637711
#
# Coordination Sequence:
#
# PCOD9265946 Si02
#       8
#     8   8   8   8   8   8   8   8
#     4  10  20  35  56  85 115 148 195 243 286 341
#     4   9  17  32  57  79 111 155 185 224 294 335
#     4  10  19  37  58  84 113 151 192 231 294 351
#     4   9  18  35  55  80 108 139 184 233 290 339
#     4   9  16  34  55  80 110 154 182 228 287 345
#     4   9  20  34  57  82 116 148 191 240 285 339
#     4   9  19  35  57  80 110 144 184 232 284 348
#     4   9  17  33  58  76 105 149 187 222 287 358
#
# _framework density 25.392619
#
# number of rings (size 3 to 8) (size 9 to 14) (size 15 to 20)
#    0.000    2.750    1.250    0.000    0.000    2.000 
#    9.000    0.000    5.500   15.000    0.000    0.000 
#    0.000    0.000    0.000    0.000    0.000    0.000 
#
# Total GULP energy -178171.676661 kJ/mol
# GULP energy per Si atom -5567.864896 kJ/mol
# Density = 2.533482 g / cm^3
# Si number density = 25.392619 Si / 1000 Ang^3
#
#
#
# Elastic Constant Matrix: (Units=GPa)
#
#
# Indices 1 2 3 4 5 6 
#
# 1 34.2037 6.9096 23.6668 0.0000 5.6118 0.0000
# 2 6.9096 92.9655 21.3051 0.0000 5.6716 0.0000
# 3 23.6668 21.3051 90.0280 0.0000 19.1709 0.0000
# 4 0.0000 0.0000 0.0000 38.5634 0.0000 7.4561
# 5 5.6118 5.6716 19.1709 0.0000 36.6578 0.0000
# 6 0.0000 0.0000 0.0000 7.4561 0.0000 28.2966
#
#
#
# Elastic Compliance Matrix: (Units=1/GPa)
#
#
# Indices 1 2 3 4 5 6 
#
# 1 0.035774 -0.000525 -0.009150 0.000000 -0.000610 0.000000
# 2 -0.000525 0.011386 -0.002474 0.000000 -0.000387 0.000000
# 3 -0.009150 -0.002474 0.015438 0.000000 -0.006290 0.000000
# 4 0.000000 0.000000 0.000000 0.027323 0.000000 -0.007200
# 5 -0.000610 -0.000387 -0.006290 0.000000 0.030722 0.000000
# 6 0.000000 0.000000 0.000000 -0.007200 0.000000 0.037237
#
#
# Mechanical properties :
#
#
# Convention : Reuss Voigt Hill
#
# Bulk Modulus (GPa) = 26.10954 35.66224 30.88589
# Shear Modulus (GPa) = 25.64814 31.72462 28.68638
#
# Velocity S-wave (km/s) = 3.18160 3.53847 3.36477
# Velocity P-wave (km/s) = 4.87867 5.54700 5.22353
#
# Compressibility (1/GPa) = 0.03830018
#
# Stress axis : x y z
#
# Youngs Moduli (GPa) = 27.95320 87.82476 64.77506
#
# Poissons Ratio (x) = 0.04608 0.59271
# Poissons Ratio (y) = 0.01467 0.16026
# Poissons Ratio (z) = 0.25578 0.21729
#
# Static dielectric constant tensor:
#      x y z
#    x 2.725210 0.000000 -0.011810 
#    y 0.000000 2.010520 0.000000 
#    z -0.011810 0.000000 2.111220 
# 
# From -- ./inp_files/312674.got.cif
#   From: 2010.05.17/outbox.cif.g08.bks.cpg/sg15_157_cif.got.tgz:312674.got - 2010.06.03 18:47:42.
