data_PCOD9265598
_publ_section_title
;
Structure prediction by ZEFSAII (Michael W. Deem and Ramdas Pophale) SiO2 
 PCOD9265598
Probable space group: C 2/C
;
_chemical_formula_sum "Si O2"
_cell_formula_units_Z 52
_cell_length_a 21.378181
_cell_length_b 19.437316
_cell_length_c 11.807782
_cell_angle_alpha 90.000000
_cell_angle_beta 34.537091
_cell_angle_gamma 90.000000
_cell_volume 2781.712123
_symmetry_space_group_name_H-M "C 2/C"
_symmetry_group_IT_number 15
_symmetry_cell_setting 'monoclinic'
loop_
_space_group_symop_operation_xyz
x,y,z
-x,y,1/2-z
-x,-y,-z
x,-y,1/2+z
1/2+x,1/2+y,z
1/2-x,1/2+y,1/2-z
1/2-x,1/2-y,-z
1/2+x,1/2-y,1/2+z
loop_
_atom_site_type_symbol
_atom_site_label
_atom_site_fract_x
_atom_site_fract_y
_atom_site_fract_z
Si Si1 0.000000 0.832497 0.250000
Si Si2 0.524437 0.742376 0.489765
Si Si3 0.192769 0.081515 0.351533
Si Si4 0.170000 0.933413 0.451487
Si Si5 0.411766 0.171760 0.977383
Si Si6 0.258417 0.717455 0.613180
Si Si7 0.464264 0.595837 0.126998
O O1 0.970410 0.787365 0.183597
O O2 0.891488 0.878141 0.439477
O O3 0.471690 0.807438 0.505120
O O4 0.648734 0.759172 0.340117
O O5 0.536391 0.678554 0.384347
O O6 0.304187 0.123213 0.153411
O O7 0.109917 0.072519 0.367798
O O8 0.225324 0.006953 0.351174
O O9 0.237021 0.864210 0.378968
O O10 0.094526 0.935245 0.675901
O O11 0.092096 0.921580 0.457554
O O12 0.363271 0.244724 0.007866
O O13 0.500000 0.147953 0.750000
O O14 0.250000 0.750000 0.500000
#
# Coordination Sequence:
#
# PCOD9265598 Si02
#       7
#     4   8   8   8   8   8   8
#     4  10  22  42  60  88 136 160 198 266 322 376
#     4  11  22  38  64  93 121 163 211 264 313 369
#     4  11  24  41  59  94 132 165 200 262 324 381
#     4  11  21  35  62  94 122 161 208 259 326 368
#     4  12  22  39  68  92 121 169 214 260 314 369
#     4  12  20  38  65  94 123 154 219 273 300 366
#     4  10  19  36  62  92 121 154 210 268 310 362
#
# _framework density 18.693522999999999
#
# number of rings (size 3 to 8) (size 9 to 14) (size 15 to 20)
#    0.000    0.923    7.692    1.385    0.000    1.846 
#    0.000    0.769    1.692    0.000    0.000    0.000 
#    0.000    0.000    0.000    0.000    0.000    0.000 
#
# Total GULP energy -144750.719251 kJ/mol
# GULP energy per Si atom -5567.335356 kJ/mol
# Density = 1.865098 g / cm^3
# Si number density = 18.693523 Si / 1000 Ang^3
#
#
#
# Elastic Constant Matrix: (Units=GPa)
#
#
# Indices 1 2 3 4 5 6 
#
# 1 66.3885 38.2385 34.9191 0.0000 2.1165 0.0000
# 2 38.2385 117.9135 49.0385 0.0000 10.7669 0.0000
# 3 34.9191 49.0385 101.1529 0.0000 5.2565 0.0000
# 4 0.0000 0.0000 0.0000 5.1510 0.0000 4.2940
# 5 2.1165 10.7669 5.2565 0.0000 16.9684 0.0000
# 6 0.0000 0.0000 0.0000 4.2940 0.0000 13.3509
#
#
#
# Elastic Compliance Matrix: (Units=1/GPa)
#
#
# Indices 1 2 3 4 5 6 
#
# 1 0.020260 -0.004759 -0.004790 0.000000 0.001976 0.000000
# 2 -0.004759 0.012217 -0.003972 0.000000 -0.005928 0.000000
# 3 -0.004790 -0.003972 0.013521 0.000000 -0.001071 0.000000
# 4 0.000000 0.000000 0.000000 0.265253 0.000000 -0.085312
# 5 0.001976 -0.005928 -0.001071 0.000000 0.062780 0.000000
# 6 0.000000 0.000000 0.000000 -0.085312 0.000000 0.102340
#
#
# Mechanical properties :
#
#
# Convention : Reuss Voigt Hill
#
# Bulk Modulus (GPa) = 52.75050 58.87192 55.81121
# Shear Modulus (GPa) = 9.80911 17.97797 13.89354
#
# Velocity S-wave (km/s) = 2.29319 3.10453 2.72918
# Velocity P-wave (km/s) = 5.94066 6.66426 6.31284
#
# Compressibility (1/GPa) = 0.01895717
#
# Stress axis : x y z
#
# Youngs Moduli (GPa) = 49.35827 81.85153 73.96039
#
# Poissons Ratio (x) = 0.38951 0.35425
# Poissons Ratio (y) = 0.23488 0.29378
# Poissons Ratio (z) = 0.23641 0.32512
#
# Static dielectric constant tensor:
#      x y z
#    x 1.709300 0.000000 -0.008400 
#    y 0.000000 1.701010 0.000000 
#    z -0.008400 0.000000 1.661300 
# 
# From -- ./inp_files/114365.got.cif
#   From: 2010.05.17/outbox.cif.g08.bks.cpg/sg15_58_cif.got.tgz:114365.got - 2010.06.03 18:47:42.
