data_PCOD9265604
_publ_section_title
;
Structure prediction by ZEFSAII (Michael W. Deem and Ramdas Pophale) SiO2 
 PCOD9265604
Probable space group: C 2/C
;
_chemical_formula_sum "Si O2"
_cell_formula_units_Z 56
_cell_length_a 10.853355
_cell_length_b 10.713203
_cell_length_c 24.830970
_cell_angle_alpha 90.000000
_cell_angle_beta 113.243682
_cell_angle_gamma 90.000000
_cell_volume 2652.860612
_symmetry_space_group_name_H-M "C 2/C"
_symmetry_group_IT_number 15
_symmetry_cell_setting 'monoclinic'
loop_
_space_group_symop_operation_xyz
x,y,z
-x,y,1/2-z
-x,-y,-z
x,-y,1/2+z
1/2+x,1/2+y,z
1/2-x,1/2+y,1/2-z
1/2-x,1/2-y,-z
1/2+x,1/2-y,1/2+z
loop_
_atom_site_type_symbol
_atom_site_label
_atom_site_fract_x
_atom_site_fract_y
_atom_site_fract_z
Si Si1 0.619113 0.424569 0.959743
Si Si2 0.753116 0.805925 0.424080
Si Si3 0.157200 0.841705 0.625158
Si Si4 0.001815 0.690476 0.690431
Si Si5 0.454372 0.913242 0.686736
Si Si6 0.983841 0.625883 0.424790
Si Si7 0.319061 0.104660 0.944428
O O1 0.666385 0.289884 0.945459
O O2 0.460500 0.419709 0.924674
O O3 0.683221 0.532237 0.934797
O O4 0.694454 0.419688 0.030364
O O5 0.648405 0.825204 0.358568
O O6 0.881800 0.731868 0.426114
O O7 0.292208 0.916065 0.661666
O O8 0.195438 0.728726 0.592011
O O9 0.091172 0.774366 0.666212
O O10 0.038316 0.543953 0.701252
O O11 0.000000 0.744782 0.750000
O O12 0.500000 0.846196 0.750000
O O13 0.485967 0.861105 0.632805
O O14 0.109720 0.632973 0.486454
O O15 0.914148 0.492334 0.427604
#
# Coordination Sequence:
#
# PCOD9265604 Si02
#       7
#     8   8   8   8   8   8   8
#     4   9  18  34  59  95 119 155 199 247 307 365
#     4   9  17  33  62  89 122 156 201 248 302 361
#     4  11  22  42  61  89 125 157 202 256 304 362
#     4  10  22  41  62  85 119 166 206 248 301 357
#     4  11  25  42  61  88 124 163 209 250 297 371
#     4  10  19  36  62  93 122 161 203 245 312 363
#     4  10  19  36  67  88 126 161 192 258 311 358
#
# _framework density 21.109287999999999
#
# number of rings (size 3 to 8) (size 9 to 14) (size 15 to 20)
#    0.000    2.000    2.857    0.857    6.000    0.571 
#    2.571    1.429    0.000    0.000    0.000    0.000 
#    0.000    0.000    0.000    0.000    0.000    0.000 
#
# Total GULP energy -156202.962723 kJ/mol
# GULP energy per Si atom -5578.677240 kJ/mol
# Density = 2.106124 g / cm^3
# Si number density = 21.109288 Si / 1000 Ang^3
#
#
#
# Elastic Constant Matrix: (Units=GPa)
#
#
# Indices 1 2 3 4 5 6 
#
# 1 77.6014 9.7389 41.8546 0.0000 15.9607 0.0000
# 2 9.7389 22.4760 8.8046 0.0000 1.1832 0.0000
# 3 41.8546 8.8046 140.0064 0.0000 -4.9414 0.0000
# 4 0.0000 0.0000 0.0000 -1.2255 0.0000 0.7538
# 5 15.9607 1.1832 -4.9414 0.0000 25.7264 0.0000
# 6 0.0000 0.0000 0.0000 0.7538 0.0000 -8.2529
#
#
#
# Elastic Compliance Matrix: (Units=1/GPa)
#
#
# Indices 1 2 3 4 5 6 
#
# 1 0.019421 -0.005414 -0.005922 0.000000 -0.012937 0.000000
# 2 -0.005414 0.047307 -0.001324 0.000000 0.000929 0.000000
# 3 -0.005922 -0.001324 0.009190 0.000000 0.005500 0.000000
# 4 0.000000 0.000000 0.000000 -0.864585 0.000000 -0.078965
# 5 -0.012937 0.000929 0.005500 0.000000 0.047910 0.000000
# 6 0.000000 0.000000 0.000000 -0.078965 0.000000 -0.128381
#
#
# Mechanical properties :
#
#
# Convention : Reuss Voigt Hill
#
# Bulk Modulus (GPa) = 19.76329 40.09779 29.93054
# Shear Modulus (GPa) = -6.04630 15.22865 4.59117
#
# Velocity S-wave (km/s) = -1.69426 2.68884 1.47637
# Velocity P-wave (km/s) = 2.35698 5.35503 4.13713
#
# Compressibility (1/GPa) = 0.05059887
#
# Stress axis : x y z
#
# Youngs Moduli (GPa) = 51.49157 21.13834 108.81120
#
# Poissons Ratio (x) = 0.11445 0.64437
# Poissons Ratio (y) = 0.27878 0.14403
# Poissons Ratio (z) = 0.30493 0.02798
#
# Static dielectric constant tensor:
#      x y z
#    x 1.793000 0.000000 -0.049470 
#    y 0.000000 1.800930 0.000000 
#    z -0.049470 0.000000 1.872030 
# 
# From -- ./inp_files/269001.got.cif
#   From: 2010.05.17/outbox.cif.g08.bks.cpg/sg15_135_cif.got.tgz:269001.got - 2010.06.03 18:47:42.
