data_PCOD9265078
_publ_section_title
;
Structure prediction by ZEFSAII (Michael W. Deem and Ramdas Pophale) SiO2 
 PCOD9265078
Probable space group: C 2/C
;
_chemical_formula_sum "Si O2"
_cell_formula_units_Z 56
_cell_length_a 18.204756
_cell_length_b 11.937585
_cell_length_c 16.246689
_cell_angle_alpha 90.000000
_cell_angle_beta 38.924534
_cell_angle_gamma 90.000000
_cell_volume 2218.353072
_symmetry_space_group_name_H-M "C 2/C"
_symmetry_group_IT_number 15
_symmetry_cell_setting 'monoclinic'
loop_
_space_group_symop_operation_xyz
x,y,z
-x,y,1/2-z
-x,-y,-z
x,-y,1/2+z
1/2+x,1/2+y,z
1/2-x,1/2+y,1/2-z
1/2-x,1/2-y,-z
1/2+x,1/2-y,1/2+z
loop_
_atom_site_type_symbol
_atom_site_label
_atom_site_fract_x
_atom_site_fract_y
_atom_site_fract_z
Si Si1 0.623449 0.991417 0.291175
Si Si2 0.872839 0.375065 0.363573
Si Si3 0.033202 0.868536 0.098342
Si Si4 0.784722 0.287680 0.600265
Si Si5 0.492639 0.189590 0.498014
Si Si6 0.174224 0.007178 0.263063
Si Si7 0.681840 0.343824 0.112503
O O1 0.616639 0.987246 0.198963
O O2 0.575941 0.874131 0.370327
O O3 0.752380 0.998837 0.217476
O O4 0.543980 0.089327 0.397179
O O5 0.841023 0.374133 0.485700
O O6 0.772838 0.309339 0.401823
O O7 0.000000 0.317599 0.250000
O O8 0.078849 0.780091 0.992215
O O9 0.958547 0.966971 0.122821
O O10 0.930625 0.799754 0.237497
O O11 0.122265 0.912841 0.089138
O O12 0.889398 0.252985 0.568920
O O13 0.687199 0.363817 0.727364
O O14 0.232106 0.925117 0.140749
O O15 0.750000 0.250000 0.000000
#
# Coordination Sequence:
#
# PCOD9265078 Si02
#       7
#     8   8   8   8   8   8   8
#     4  10  20  34  58  82 115 146 193 237 285 336
#     4  11  22  39  57  85 109 151 196 240 284 333
#     4   9  19  33  55  83 116 146 182 226 284 348
#     4  10  22  38  61  79 114 151 196 238 281 342
#     4  10  19  36  57  87 111 152 185 235 296 335
#     4   9  19  36  56  80 111 150 181 233 287 338
#     4   9  18  33  53  84 113 147 183 223 287 340
#
# _framework density 25.243953999999999
#
# number of rings (size 3 to 8) (size 9 to 14) (size 15 to 20)
#    0.857    1.429    1.429    1.714    0.000    2.286 
#    2.571    0.000    0.000    0.857    0.000    0.000 
#    0.000    0.000    0.000    0.000    0.000    0.000 
#
# Total GULP energy -156195.837007 kJ/mol
# GULP energy per Si atom -5578.422750 kJ/mol
# Density = 2.518650 g / cm^3
# Si number density = 25.243954 Si / 1000 Ang^3
#
#
#
# Elastic Constant Matrix: (Units=GPa)
#
#
# Indices 1 2 3 4 5 6 
#
# 1 114.9844 8.3726 -6.1187 0.0000 13.7662 0.0000
# 2 8.3726 24.1578 3.5534 0.0000 4.9902 0.0000
# 3 -6.1187 3.5534 56.4162 0.0000 18.6677 0.0000
# 4 0.0000 0.0000 0.0000 31.3323 0.0000 6.3173
# 5 13.7662 4.9902 18.6677 0.0000 30.8808 0.0000
# 6 0.0000 0.0000 0.0000 6.3173 0.0000 17.7352
#
#
#
# Elastic Compliance Matrix: (Units=1/GPa)
#
#
# Indices 1 2 3 4 5 6 
#
# 1 0.009755 -0.002641 0.003153 0.000000 -0.005827 0.000000
# 2 -0.002641 0.043551 -0.001363 0.000000 -0.005037 0.000000
# 3 0.003153 -0.001363 0.023182 0.000000 -0.015199 0.000000
# 4 0.000000 0.000000 0.000000 0.034385 0.000000 -0.012248
# 5 -0.005827 -0.005037 -0.015199 0.000000 0.044982 0.000000
# 6 0.000000 0.000000 0.000000 -0.012248 0.000000 0.060748
#
#
# Mechanical properties :
#
#
# Convention : Reuss Voigt Hill
#
# Bulk Modulus (GPa) = 13.37158 23.01924 18.19541
# Shear Modulus (GPa) = 20.55634 28.63972 24.59803
#
# Velocity S-wave (km/s) = 2.85670 3.37191 3.12494
# Velocity P-wave (km/s) = 4.02361 4.92933 4.49932
#
# Compressibility (1/GPa) = 0.07478549
#
# Stress axis : x y z
#
# Youngs Moduli (GPa) = 102.51630 22.96176 43.13610
#
# Poissons Ratio (x) = 0.06064 -0.13599
# Poissons Ratio (y) = 0.27071 0.05879
# Poissons Ratio (z) = -0.32319 0.03129
#
# Static dielectric constant tensor:
#      x y z
#    x 1.974810 0.000000 -0.001350 
#    y 0.000000 1.992490 0.000000 
#    z -0.001350 0.000000 2.072670 
# 
# From -- ./inp_files/211197.got.cif
#   From: 2010.05.17/outbox.cif.g08.bks.cpg/sg15_106_cif.got.tgz:211197.got - 2010.06.03 18:47:42.
