data_PCOD9265458
_publ_section_title
;
Structure prediction by ZEFSAII (Michael W. Deem and Ramdas Pophale) SiO2 
 PCOD9265458
Probable space group: C 2/C
;
_chemical_formula_sum "Si O2"
_cell_formula_units_Z 60
_cell_length_a 24.003454
_cell_length_b 16.473358
_cell_length_c 11.107852
_cell_angle_alpha 90.000000
_cell_angle_beta 40.519328
_cell_angle_gamma 90.000000
_cell_volume 2853.657531
_symmetry_space_group_name_H-M "C 2/C"
_symmetry_group_IT_number 15
_symmetry_cell_setting 'monoclinic'
loop_
_space_group_symop_operation_xyz
x,y,z
-x,y,1/2-z
-x,-y,-z
x,-y,1/2+z
1/2+x,1/2+y,z
1/2-x,1/2+y,1/2-z
1/2-x,1/2-y,-z
1/2+x,1/2-y,1/2+z
loop_
_atom_site_type_symbol
_atom_site_label
_atom_site_fract_x
_atom_site_fract_y
_atom_site_fract_z
Si Si1 0.391919 0.159702 0.577533
Si Si2 0.012656 0.936489 0.086580
Si Si3 0.352047 0.323240 0.338419
Si Si4 0.452525 0.914940 0.569025
Si Si5 0.680335 0.864145 0.552424
Si Si6 0.820124 0.842991 0.659915
Si Si7 0.500000 0.175842 0.750000
Si Si8 0.177405 0.311633 0.067912
O O1 0.491598 0.145403 0.437111
O O2 0.362641 0.116711 0.504606
O O3 0.362812 0.253410 0.608761
O O4 0.347386 0.134320 0.776187
O O5 0.945289 0.862400 0.176569
O O6 0.000000 0.961297 0.250000
O O7 0.108955 0.905286 0.913490
O O8 0.000000 0.000000 0.000000
O O9 0.346023 0.226233 0.355670
O O10 0.282004 0.357692 0.361531
O O11 0.313021 0.351691 0.529629
O O12 0.359001 0.921001 0.780811
O O13 0.461140 0.878247 0.421771
O O14 0.500000 0.000000 0.500000
O O15 0.730244 0.851756 0.873719
O O16 0.415271 0.219828 0.831105
O O17 0.250000 0.250000 0.000000
#
# Coordination Sequence:
#
# PCOD9265458 Si02
#       8
#     8   8   8   8   8   8   4   8
#     4   9  19  35  57  86 115 150 199 251 289 354
#     4  10  21  40  60  86 120 158 206 252 312 376
#     4   9  19  36  62  89 109 151 202 256 305 358
#     4  11  23  36  55  82 121 160 201 242 307 372
#     4  10  19  36  61  87 115 146 205 255 301 354
#     4   9  17  36  64  82 114 157 197 248 307 356
#     4  10  22  38  56  86 124 166 200 246 312 376
#     4   9  18  36  60  90 121 155 202 249 313 369
#
# _framework density 21.025648
#
# number of rings (size 3 to 8) (size 9 to 14) (size 15 to 20)
#    0.000    2.400    0.000    2.000    1.867    3.200 
#    7.200    1.333    7.333    0.000    0.000    0.000 
#    0.000    0.000    0.000    0.000    0.000    0.000 
#
# Total GULP energy -167053.662578 kJ/mol
# GULP energy per Si atom -5568.455419 kJ/mol
# Density = 2.097779 g / cm^3
# Si number density = 21.025648 Si / 1000 Ang^3
#
#
#
# Elastic Constant Matrix: (Units=GPa)
#
#
# Indices 1 2 3 4 5 6 
#
# 1 101.1794 10.8760 23.7305 0.0000 -16.9494 0.0000
# 2 10.8760 30.7306 2.5649 0.0000 -7.9921 0.0000
# 3 23.7305 2.5649 86.3611 0.0000 -24.9463 0.0000
# 4 0.0000 0.0000 0.0000 17.5141 0.0000 -2.6026
# 5 -16.9494 -7.9921 -24.9463 0.0000 29.8038 0.0000
# 6 0.0000 0.0000 0.0000 -2.6026 0.0000 20.5242
#
#
#
# Elastic Compliance Matrix: (Units=1/GPa)
#
#
# Indices 1 2 3 4 5 6 
#
# 1 0.011305 -0.002767 -0.001822 0.000000 0.004162 0.000000
# 2 -0.002767 0.035978 0.002669 0.000000 0.010309 0.000000
# 3 -0.001822 0.002669 0.015705 0.000000 0.012825 0.000000
# 4 0.000000 0.000000 0.000000 0.058193 0.000000 0.007379
# 5 0.004162 0.010309 0.012825 0.000000 0.049419 0.000000
# 6 0.000000 0.000000 0.000000 0.007379 0.000000 0.049659
#
#
# Mechanical properties :
#
#
# Convention : Reuss Voigt Hill
#
# Bulk Modulus (GPa) = 16.90593 32.51265 24.70929
# Shear Modulus (GPa) = 20.50729 25.64173 23.07451
#
# Velocity S-wave (km/s) = 3.12644 3.49599 3.31637
# Velocity P-wave (km/s) = 4.59249 5.63851 5.14217
#
# Compressibility (1/GPa) = 0.05915085
#
# Stress axis : x y z
#
# Youngs Moduli (GPa) = 88.45301 27.79462 63.67232
#
# Poissons Ratio (x) = 0.07690 0.11601
# Poissons Ratio (y) = 0.24471 -0.16997
# Poissons Ratio (z) = 0.16116 -0.07420
#
# Static dielectric constant tensor:
#      x y z
#    x 1.889630 0.000000 -0.019380 
#    y 0.000000 1.768890 0.000000 
#    z -0.019380 0.000000 1.787200 
# 
# From -- ./inp_files/119449.got.cif
#   From: 2010.05.17/outbox.cif.g08.bks.cpg/sg15_60_cif.got.tgz:119449.got - 2010.06.03 18:47:42.
