data_PCOD9265053
_publ_section_title
;
Structure prediction by ZEFSAII (Michael W. Deem and Ramdas Pophale) SiO2 
 PCOD9265053
Probable space group: C 2/C
;
_chemical_formula_sum "Si O2"
_cell_formula_units_Z 56
_cell_length_a 24.618029
_cell_length_b 15.560847
_cell_length_c 9.587218
_cell_angle_alpha 90.000000
_cell_angle_beta 139.695044
_cell_angle_gamma 90.000000
_cell_volume 2375.672416
_symmetry_space_group_name_H-M "C 2/C"
_symmetry_group_IT_number 15
_symmetry_cell_setting 'monoclinic'
loop_
_space_group_symop_operation_xyz
x,y,z
-x,y,1/2-z
-x,-y,-z
x,-y,1/2+z
1/2+x,1/2+y,z
1/2-x,1/2+y,1/2-z
1/2-x,1/2-y,-z
1/2+x,1/2-y,1/2+z
loop_
_atom_site_type_symbol
_atom_site_label
_atom_site_fract_x
_atom_site_fract_y
_atom_site_fract_z
Si Si1 0.112019 0.887370 0.339377
Si Si2 0.649015 0.494670 0.666293
Si Si3 0.201946 0.622245 0.620979
Si Si4 0.459615 0.071111 0.823381
Si Si5 0.067621 0.696465 0.177009
Si Si6 0.786016 0.377584 0.033640
Si Si7 0.217291 0.297780 0.757455
O O1 0.101178 0.941290 0.176607
O O2 0.068785 0.793507 0.240346
O O3 0.211976 0.866095 0.557790
O O4 0.096229 0.947490 0.442730
O O5 0.729017 0.547472 0.761141
O O6 0.694825 0.420692 0.845968
O O7 0.109773 0.630630 0.370894
O O8 0.192783 0.639024 0.766248
O O9 0.246726 0.704721 0.639759
O O10 0.500000 0.069395 0.750000
O O11 0.360135 0.060002 0.624541
O O12 0.481641 0.160780 0.945452
O O13 0.500000 0.000000 0.000000
O O14 0.130845 0.691495 0.168310
O O15 0.790525 0.304702 0.924903
#
# Coordination Sequence:
#
# PCOD9265053 Si02
#       7
#     8   8   8   8   8   8   8
#     4  10  20  34  58  87 122 159 194 257 313 364
#     4  11  19  32  57  89 121 152 193 256 316 353
#     4  11  20  34  58  86 122 150 197 261 308 364
#     4  12  28  42  60  84 122 173 210 245 291 373
#     4  11  21  40  57  81 126 172 208 240 306 377
#     4  11  24  35  55  86 123 153 199 246 305 365
#     4  10  19  36  57  83 119 161 197 248 313 366
#
# _framework density 23.572272999999999
#
# number of rings (size 3 to 8) (size 9 to 14) (size 15 to 20)
#    0.000    1.143    5.714    2.143    4.000    0.000 
#    0.000    0.000    0.000    0.000    0.000    4.000 
#    8.571    0.143    0.000    0.000    0.000    0.000 
#
# Total GULP energy -156437.096728 kJ/mol
# GULP energy per Si atom -5587.039169 kJ/mol
# Density = 2.351862 g / cm^3
# Si number density = 23.572273 Si / 1000 Ang^3
#
#
#
# Elastic Constant Matrix: (Units=GPa)
#
#
# Indices 1 2 3 4 5 6 
#
# 1 56.0996 8.9025 39.3731 0.0000 -24.7020 0.0000
# 2 8.9025 99.0381 37.7095 0.0000 -6.4851 0.0000
# 3 39.3731 37.7095 85.5157 0.0000 -26.5417 0.0000
# 4 0.0000 0.0000 0.0000 48.3762 0.0000 -11.6718
# 5 -24.7020 -6.4851 -26.5417 0.0000 43.7724 0.0000
# 6 0.0000 0.0000 0.0000 -11.6718 0.0000 9.6286
#
#
#
# Elastic Compliance Matrix: (Units=1/GPa)
#
#
# Indices 1 2 3 4 5 6 
#
# 1 0.030258 0.002456 -0.011827 0.000000 0.010267 0.000000
# 2 0.002456 0.012448 -0.006919 0.000000 -0.000966 0.000000
# 3 -0.011827 -0.006919 0.021927 0.000000 0.005596 0.000000
# 4 0.000000 0.000000 0.000000 0.029216 0.000000 0.035416
# 5 0.010267 -0.000966 0.005596 0.000000 0.031890 0.000000
# 6 0.000000 0.000000 0.000000 0.035416 0.000000 0.146787
#
#
# Mechanical properties :
#
#
# Convention : Reuss Voigt Hill
#
# Bulk Modulus (GPa) = 31.20040 45.84708 38.52374
# Shear Modulus (GPa) = 15.83321 30.66668 23.24995
#
# Velocity S-wave (km/s) = 2.59451 3.61080 3.14399
# Velocity P-wave (km/s) = 4.71594 6.07253 5.43671
#
# Compressibility (1/GPa) = 0.03205087
#
# Stress axis : x y z
#
# Youngs Moduli (GPa) = 33.04945 80.33561 45.60493
#
# Poissons Ratio (x) = -0.19729 0.53939
# Poissons Ratio (y) = -0.08116 0.31556
# Poissons Ratio (z) = 0.39089 0.55588
#
# Static dielectric constant tensor:
#      x y z
#    x 1.937300 0.000000 0.036620 
#    y 0.000000 1.934550 0.000000 
#    z 0.036620 0.000000 1.923520 
# 
# From -- ./inp_files/67171.got.cif
#   From: 2010.05.17/outbox.cif.g08.bks.cpg/sg15_34_cif.got.tgz:67171.got - 2010.06.03 18:47:42.
