data_PCOD9265570
_publ_section_title
;
Structure prediction by ZEFSAII (Michael W. Deem and Ramdas Pophale) SiO2 
 PCOD9265570
Probable space group: C 2/C
;
_chemical_formula_sum "Si O2"
_cell_formula_units_Z 32
_cell_length_a 19.320553
_cell_length_b 4.984300
_cell_length_c 18.251276
_cell_angle_alpha 90.000000
_cell_angle_beta 71.822321
_cell_angle_gamma 90.000000
_cell_volume 1669.872753
_symmetry_space_group_name_H-M "C 2/C"
_symmetry_group_IT_number 15
_symmetry_cell_setting 'monoclinic'
loop_
_space_group_symop_operation_xyz
x,y,z
-x,y,1/2-z
-x,-y,-z
x,-y,1/2+z
1/2+x,1/2+y,z
1/2-x,1/2+y,1/2-z
1/2-x,1/2-y,-z
1/2+x,1/2-y,1/2+z
loop_
_atom_site_type_symbol
_atom_site_label
_atom_site_fract_x
_atom_site_fract_y
_atom_site_fract_z
Si Si1 0.087860 0.746675 0.925201
Si Si2 0.228810 0.067097 0.302514
Si Si3 0.081389 0.751552 0.526096
Si Si4 0.213114 0.496643 0.053538
O O1 0.148008 0.823665 0.846447
O O2 0.094689 0.444083 0.952019
O O3 0.100376 0.951806 0.989817
O O4 0.004172 0.769931 0.927957
O O5 0.270549 0.293541 0.242887
O O6 0.266540 0.020592 0.368522
O O7 0.128864 0.595896 0.571052
O O8 0.250000 0.750000 0.000000
O O9 0.250000 0.250000 0.000000
#
# Coordination Sequence:
#
# PCOD9265570 Si02
#       4
#     8   8   8   8
#     4  10  20  36  60  88 119 157 201 257 314 359
#     4  12  24  38  58  92 131 165 198 256 332 385
#     4  10  19  36  62  89 114 152 213 263 293 357
#     4  12  21  38  63  91 119 159 219 259 298 371
#
# _framework density 19.163136000000002
#
# number of rings (size 3 to 8) (size 9 to 14) (size 15 to 20)
#    0.000    1.000    5.000    3.000    0.000    0.000 
#    0.000    1.250    0.000    3.000    0.000    0.000 
#    0.000    0.000    0.000    0.000    0.000    0.000 
#
# Total GULP energy -89211.443375 kJ/mol
# GULP energy per Si atom -5575.715211 kJ/mol
# Density = 1.911952 g / cm^3
# Si number density = 19.163136 Si / 1000 Ang^3
#
#
#
# Elastic Constant Matrix: (Units=GPa)
#
#
# Indices 1 2 3 4 5 6 
#
# 1 132.9197 31.2996 49.4261 0.0001 9.5695 0.0001
# 2 31.2996 121.9814 31.0223 0.0005 9.4262 0.0010
# 3 49.4261 31.0223 103.4535 0.0001 18.7927 0.0001
# 4 0.0001 0.0005 0.0001 27.9108 -0.0001 -0.5072
# 5 9.5695 9.4262 18.7927 -0.0001 13.3923 -0.0001
# 6 0.0001 0.0010 0.0001 -0.5072 -0.0001 29.9974
#
#
#
# Elastic Compliance Matrix: (Units=1/GPa)
#
#
# Indices 1 2 3 4 5 6 
#
# 1 0.009355 -0.001367 -0.004053 0.000000 -0.000035 0.000000
# 2 -0.001367 0.009189 -0.001483 0.000000 -0.003410 0.000000
# 3 -0.004053 -0.001483 0.015208 0.000000 -0.017401 0.000000
# 4 0.000000 0.000000 0.000000 0.035839 0.000000 0.000606
# 5 -0.000035 -0.003410 -0.017401 0.000000 0.101513 0.000000
# 6 0.000000 0.000000 0.000000 0.000606 0.000000 0.033346
#
#
# Mechanical properties :
#
#
# Convention : Reuss Voigt Hill
#
# Bulk Modulus (GPa) = 50.13475 64.65007 57.39241
# Shear Modulus (GPa) = 22.23149 30.70055 26.46602
#
# Velocity S-wave (km/s) = 3.40974 4.00692 3.72033
# Velocity P-wave (km/s) = 6.45916 7.43082 6.96196
#
# Compressibility (1/GPa) = 0.01994625
#
# Stress axis : x y z
#
# Youngs Moduli (GPa) = 106.89584 108.82099 65.75358
#
# Poissons Ratio (x) = 0.14875 0.26651
# Poissons Ratio (y) = 0.14612 0.09752
# Poissons Ratio (z) = 0.43327 0.16139
#
# Static dielectric constant tensor:
#      x y z
#    x 1.810660 0.000000 0.006540 
#    y 0.000000 1.664850 0.000000 
#    z 0.006540 0.000000 1.619510 
# 
# From -- ./inp_files/164966.got.cif
#   From: 2010.05.17/outbox.cif.g08.bks.cpg/sg15_83_cif.got.tgz:164966.got - 2010.06.03 18:47:42.
