data_PCOD9265425
_publ_section_title
;
Structure prediction by ZEFSAII (Michael W. Deem and Ramdas Pophale) SiO2 
 PCOD9265425
Probable space group: C 2/C
;
_chemical_formula_sum "Si O2"
_cell_formula_units_Z 60
_cell_length_a 22.715101
_cell_length_b 17.297924
_cell_length_c 8.002515
_cell_angle_alpha 90.000000
_cell_angle_beta 116.673045
_cell_angle_gamma 90.000000
_cell_volume 2809.764317
_symmetry_space_group_name_H-M "C 2/C"
_symmetry_group_IT_number 15
_symmetry_cell_setting 'monoclinic'
loop_
_space_group_symop_operation_xyz
x,y,z
-x,y,1/2-z
-x,-y,-z
x,-y,1/2+z
1/2+x,1/2+y,z
1/2-x,1/2+y,1/2-z
1/2-x,1/2-y,-z
1/2+x,1/2-y,1/2+z
loop_
_atom_site_type_symbol
_atom_site_label
_atom_site_fract_x
_atom_site_fract_y
_atom_site_fract_z
Si Si1 0.766766 0.832219 0.598763
Si Si2 0.041888 0.733533 0.641081
Si Si3 0.383261 0.937863 0.768304
Si Si4 0.272314 0.414574 0.932604
Si Si5 0.000000 0.344771 0.750000
Si Si6 0.092572 0.893528 0.802442
Si Si7 0.369855 0.896762 0.132915
Si Si8 0.138986 0.036649 0.664538
O O1 0.750000 0.750000 0.500000
O O2 0.775400 0.841346 0.810292
O O3 0.833526 0.860668 0.605310
O O4 0.708767 0.891792 0.479816
O O5 0.012972 0.707243 0.429083
O O6 0.051744 0.824950 0.669880
O O7 0.107170 0.682763 0.754703
O O8 0.000000 0.710246 0.750000
O O9 0.305333 0.925794 0.627020
O O10 0.435634 0.895801 0.715113
O O11 0.393992 0.029767 0.767564
O O12 0.392846 0.908331 0.970270
O O13 0.307423 0.485569 0.874409
O O14 0.317514 0.411596 0.154551
O O15 0.096201 0.972757 0.706776
O O16 0.086985 0.915747 0.988174
#
# Coordination Sequence:
#
# PCOD9265425 Si02
#       8
#     8   8   8   8   4   8   8   8
#     4  10  19  36  60  97 130 170 201 261 330 389
#     4  12  26  48  63  91 130 176 212 278 316 382
#     4  11  22  38  61  95 125 179 218 268 295 384
#     4   9  18  34  62  94 131 158 209 256 323 384
#     4  12  28  44  66  90 130 176 232 254 320 366
#     4  10  21  41  69  93 132 160 211 269 330 387
#     4  11  22  39  65  90 133 166 223 264 327 373
#     4   9  18  39  67  98 120 161 205 267 329 391
#
# _framework density 21.354106000000002
#
# number of rings (size 3 to 8) (size 9 to 14) (size 15 to 20)
#    0.000    1.600    2.667    4.000    0.933    2.133 
#    7.200    1.333    0.000    0.000    0.000    0.000 
#    0.000    0.000    0.000    0.000    0.000    0.000 
#
# Total GULP energy -167405.026008 kJ/mol
# GULP energy per Si atom -5580.167534 kJ/mol
# Density = 2.130550 g / cm^3
# Si number density = 21.354106 Si / 1000 Ang^3
#
#
#
# Elastic Constant Matrix: (Units=GPa)
#
#
# Indices 1 2 3 4 5 6 
#
# 1 56.5561 27.2389 27.4470 0.0000 -4.3838 0.0000
# 2 27.2389 107.8413 59.5538 0.0000 -4.6388 0.0000
# 3 27.4470 59.5538 96.4724 0.0000 -15.3895 0.0000
# 4 0.0000 0.0000 0.0000 33.6790 0.0000 6.0699
# 5 -4.3838 -4.6388 -15.3895 0.0000 19.6046 0.0000
# 6 0.0000 0.0000 0.0000 6.0699 0.0000 15.3908
#
#
#
# Elastic Compliance Matrix: (Units=1/GPa)
#
#
# Indices 1 2 3 4 5 6 
#
# 1 0.021175 -0.003128 -0.003951 0.000000 0.000893 0.000000
# 2 -0.003128 0.014809 -0.008922 0.000000 -0.004199 0.000000
# 3 -0.003951 -0.008922 0.018884 0.000000 0.011830 0.000000
# 4 0.000000 0.000000 0.000000 0.031964 0.000000 -0.012606
# 5 0.000893 -0.004199 0.011830 0.000000 0.059501 0.000000
# 6 0.000000 0.000000 0.000000 -0.012606 0.000000 0.069946
#
#
# Mechanical properties :
#
#
# Convention : Reuss Voigt Hill
#
# Bulk Modulus (GPa) = 43.73146 54.37213 49.05180
# Shear Modulus (GPa) = 19.53865 23.51021 21.52443
#
# Velocity S-wave (km/s) = 3.02815 3.32169 3.17831
# Velocity P-wave (km/s) = 5.72275 6.34262 6.04064
#
# Compressibility (1/GPa) = 0.02286683
#
# Stress axis : x y z
#
# Youngs Moduli (GPa) = 47.22605 67.52483 52.95391
#
# Poissons Ratio (x) = 0.21123 0.20921
# Poissons Ratio (y) = 0.14773 0.47245
# Poissons Ratio (z) = 0.18658 0.60245
#
# Static dielectric constant tensor:
#      x y z
#    x 1.815820 0.000000 -0.009600 
#    y 0.000000 1.798340 0.000000 
#    z -0.009600 0.000000 1.811400 
# 
# From -- ./inp_files/57045.got.cif
#   From: 2010.05.17/outbox.cif.g08.bks.cpg/sg15_29_cif.got.tgz:57045.got - 2010.06.03 18:47:42.
