data_PCOD9265231
_publ_section_title
;
Structure prediction by ZEFSAII (Michael W. Deem and Ramdas Pophale) SiO2 
 PCOD9265231
Probable space group: C 2/C
;
_chemical_formula_sum "Si O2"
_cell_formula_units_Z 32
_cell_length_a 25.124459
_cell_length_b 8.776487
_cell_length_c 19.925551
_cell_angle_alpha 90.000000
_cell_angle_beta 155.481572
_cell_angle_gamma 90.000000
_cell_volume 1823.312480
_symmetry_space_group_name_H-M "C 2/C"
_symmetry_group_IT_number 15
_symmetry_cell_setting 'monoclinic'
loop_
_space_group_symop_operation_xyz
x,y,z
-x,y,1/2-z
-x,-y,-z
x,-y,1/2+z
1/2+x,1/2+y,z
1/2-x,1/2+y,1/2-z
1/2-x,1/2-y,-z
1/2+x,1/2-y,1/2+z
loop_
_atom_site_type_symbol
_atom_site_label
_atom_site_fract_x
_atom_site_fract_y
_atom_site_fract_z
Si Si1 0.341437 0.041378 0.751836
Si Si2 0.053739 0.039705 0.455660
Si Si3 0.102423 0.735515 0.808287
Si Si4 0.011230 0.247847 0.534977
O O1 0.188846 0.048037 0.573209
O O2 0.402480 0.101836 0.752903
O O3 0.388909 0.873726 0.825487
O O4 0.392361 0.155987 0.868238
O O5 0.062576 0.146189 0.532086
O O6 0.943611 0.111746 0.283113
O O7 0.026298 0.870344 0.450282
O O8 0.000000 0.708676 0.750000
O O9 0.250000 0.750000 0.000000
#
# Coordination Sequence:
#
# PCOD9265231 Si02
#       4
#     8   8   8   8
#     4  10  19  36  59  83 116 145 188 237 277 340
#     4  10  19  36  59  83 116 146 185 239 280 336
#     4  11  22  40  60  80 111 156 195 230 281 338
#     4   9  20  34  56  91 110 146 182 232 294 332
#
# _framework density 17.550476
#
# number of rings (size 3 to 8) (size 9 to 14) (size 15 to 20)
#    0.000    2.000    2.500    1.500    0.000    0.000 
#    9.000    2.500    0.000    0.000    0.000    0.000 
#    0.000    0.000    0.000    0.000    0.000    0.000 
#
# Total GULP energy -89234.286828 kJ/mol
# GULP energy per Si atom -5577.142927 kJ/mol
# Density = 1.751053 g / cm^3
# Si number density = 17.550476 Si / 1000 Ang^3
#
#
#
# Elastic Constant Matrix: (Units=GPa)
#
#
# Indices 1 2 3 4 5 6 
#
# 1 100.5025 40.7127 41.9595 0.0000 8.4152 0.0000
# 2 40.7127 122.2902 44.0720 0.0000 -0.8547 0.0000
# 3 41.9595 44.0720 118.5711 0.0000 4.3291 0.0000
# 4 0.0000 0.0000 0.0000 11.0928 0.0000 0.4570
# 5 8.4152 -0.8547 4.3291 0.0000 24.9927 0.0000
# 6 0.0000 0.0000 0.0000 0.4570 0.0000 17.2364
#
#
#
# Elastic Compliance Matrix: (Units=1/GPa)
#
#
# Indices 1 2 3 4 5 6 
#
# 1 0.012912 -0.003153 -0.003255 0.000000 -0.003892 0.000000
# 2 -0.003153 0.010234 -0.002757 0.000000 0.001889 0.000000
# 3 -0.003255 -0.002757 0.010641 0.000000 -0.000841 0.000000
# 4 0.000000 0.000000 0.000000 0.090247 0.000000 -0.002393
# 5 -0.003892 0.001889 -0.000841 0.000000 0.041532 0.000000
# 6 0.000000 0.000000 0.000000 -0.002393 0.000000 0.058080
#
#
# Mechanical properties :
#
#
# Convention : Reuss Voigt Hill
#
# Bulk Modulus (GPa) = 64.69668 66.09469 65.39568
# Shear Modulus (GPa) = 20.23237 24.97236 22.60237
#
# Velocity S-wave (km/s) = 3.39899 3.77621 3.59255
# Velocity P-wave (km/s) = 7.23515 7.53356 7.38586
#
# Compressibility (1/GPa) = 0.01545674
#
# Stress axis : x y z
#
# Youngs Moduli (GPa) = 77.44689 97.71652 93.97376
#
# Poissons Ratio (x) = 0.30807 0.30592
# Poissons Ratio (y) = 0.24416 0.25909
# Poissons Ratio (z) = 0.25212 0.26941
#
# Static dielectric constant tensor:
#      x y z
#    x 1.600750 0.000000 -0.008360 
#    y 0.000000 1.573540 0.000000 
#    z -0.008360 0.000000 1.589130 
# 
# From -- ./inp_files/53402.got.cif
#   From: 2010.05.17/outbox.cif.g08.bks.cpg/sg15_27_cif.got.tgz:53402.got - 2010.06.03 18:47:42.
