data_PCOD9265592
_publ_section_title
;
Structure prediction by ZEFSAII (Michael W. Deem and Ramdas Pophale) SiO2 
 PCOD9265592
Probable space group: C 2/C
;
_chemical_formula_sum "Si O2"
_cell_formula_units_Z 48
_cell_length_a 11.466554
_cell_length_b 15.026628
_cell_length_c 23.809722
_cell_angle_alpha 90.000000
_cell_angle_beta 149.945816
_cell_angle_gamma 90.000000
_cell_volume 2054.609894
_symmetry_space_group_name_H-M "C 2/C"
_symmetry_group_IT_number 15
_symmetry_cell_setting 'monoclinic'
loop_
_space_group_symop_operation_xyz
x,y,z
-x,y,1/2-z
-x,-y,-z
x,-y,1/2+z
1/2+x,1/2+y,z
1/2-x,1/2+y,1/2-z
1/2-x,1/2-y,-z
1/2+x,1/2-y,1/2+z
loop_
_atom_site_type_symbol
_atom_site_label
_atom_site_fract_x
_atom_site_fract_y
_atom_site_fract_z
Si Si1 0.969573 0.132780 0.371858
Si Si2 0.453452 0.006008 0.332346
Si Si3 0.830642 0.085049 0.927271
Si Si4 0.245327 0.236425 0.849222
Si Si5 0.705415 0.665332 0.020704
Si Si6 0.059054 0.415536 0.486804
O O1 0.776424 0.056483 0.283383
O O2 0.824723 0.224198 0.322016
O O3 0.108684 0.133989 0.488825
O O4 0.171107 0.110336 0.411206
O O5 0.641103 0.080088 0.432797
O O6 0.576859 0.952238 0.334185
O O7 0.431103 0.938793 0.374646
O O8 0.933120 0.139918 0.917414
O O9 0.000000 0.000000 0.000000
O O10 0.206614 0.314664 0.878911
O O11 0.438256 0.173949 0.956870
O O12 0.000000 0.186549 0.750000
O O13 0.750000 0.750000 0.000000
O O14 0.000000 0.500000 0.500000
#
# Coordination Sequence:
#
# PCOD9265592 Si02
#       6
#     8   8   8   8   8   8
#     4  10  21  40  63  87 122 171 209 253 313 378
#     4  10  20  39  62  88 120 166 210 251 314 374
#     4   8  18  33  57  87 118 154 206 252 300 362
#     4  11  22  40  65  90 122 168 214 250 319 387
#     4  10  19  36  62  90 125 161 204 258 312 371
#     4  11  25  40  62  95 131 161 205 272 318 375
#
# _framework density 23.362099000000001
#
# number of rings (size 3 to 8) (size 9 to 14) (size 15 to 20)
#    0.000    2.000    1.667    1.500    2.333    0.000 
#    0.000    0.000    0.000    4.000    0.000    0.000 
#    0.000    0.000    0.000    0.000    0.000    0.000 
#
# Total GULP energy -133740.419241 kJ/mol
# GULP energy per Si atom -5572.517468 kJ/mol
# Density = 2.330893 g / cm^3
# Si number density = 23.362099 Si / 1000 Ang^3
#
#
#
# Elastic Constant Matrix: (Units=GPa)
#
#
# Indices 1 2 3 4 5 6 
#
# 1 112.5930 38.4146 40.7020 0.0000 32.9922 -0.0001
# 2 38.4146 78.4089 15.5076 0.0002 21.9552 0.0000
# 3 40.7020 15.5076 81.6363 -0.0009 36.4801 0.0002
# 4 0.0000 0.0002 -0.0009 38.3785 0.0004 1.8214
# 5 32.9922 21.9552 36.4801 0.0004 53.1597 -0.0001
# 6 -0.0001 0.0000 0.0002 1.8214 -0.0001 51.3442
#
#
#
# Elastic Compliance Matrix: (Units=1/GPa)
#
#
# Indices 1 2 3 4 5 6 
#
# 1 0.012888 -0.004581 -0.004077 0.000000 -0.003309 0.000000
# 2 -0.004581 0.016051 0.001337 0.000000 -0.004703 0.000000
# 3 -0.004077 0.001337 0.018958 0.000001 -0.011031 0.000000
# 4 0.000000 0.000000 0.000001 0.026100 -0.000001 -0.000926
# 5 -0.003309 -0.004703 -0.011031 -0.000001 0.030377 0.000000
# 6 0.000000 0.000000 0.000000 -0.000926 0.000000 0.019509
#
#
# Mechanical properties :
#
#
# Convention : Reuss Voigt Hill
#
# Bulk Modulus (GPa) = 30.07198 51.32071 40.69635
# Shear Modulus (GPa) = 33.42022 40.44407 36.93214
#
# Velocity S-wave (km/s) = 3.78634 4.16526 3.98031
# Velocity P-wave (km/s) = 5.65820 6.71921 6.21140
#
# Compressibility (1/GPa) = 0.03325354
#
# Stress axis : x y z
#
# Youngs Moduli (GPa) = 77.59208 62.30261 52.74937
#
# Poissons Ratio (x) = 0.28543 0.21505
# Poissons Ratio (y) = 0.35548 -0.07051
# Poissons Ratio (z) = 0.31632 -0.08329
#
# Static dielectric constant tensor:
#      x y z
#    x 1.901950 0.000000 0.033070 
#    y 0.000000 1.874020 0.000000 
#    z 0.033070 0.000000 2.014470 
# 
# From -- ./inp_files/87294.got.cif
#   From: 2010.05.17/outbox.cif.g08.bks.cpg/sg15_44_cif.got.tgz:87294.got - 2010.06.03 18:47:42.
