data_PCOD9265257
_publ_section_title
;
Structure prediction by ZEFSAII (Michael W. Deem and Ramdas Pophale) SiO2 
 PCOD9265257
Probable space group: C 2/C
;
_chemical_formula_sum "Si O2"
_cell_formula_units_Z 40
_cell_length_a 12.332111
_cell_length_b 9.448106
_cell_length_c 24.364164
_cell_angle_alpha 90.000000
_cell_angle_beta 32.557725
_cell_angle_gamma 90.000000
_cell_volume 1527.693639
_symmetry_space_group_name_H-M "C 2/C"
_symmetry_group_IT_number 15
_symmetry_cell_setting 'monoclinic'
loop_
_space_group_symop_operation_xyz
x,y,z
-x,y,1/2-z
-x,-y,-z
x,-y,1/2+z
1/2+x,1/2+y,z
1/2-x,1/2+y,1/2-z
1/2-x,1/2-y,-z
1/2+x,1/2-y,1/2+z
loop_
_atom_site_type_symbol
_atom_site_label
_atom_site_fract_x
_atom_site_fract_y
_atom_site_fract_z
Si Si1 0.696792 0.589772 0.288185
Si Si2 0.214194 0.387242 0.154190
Si Si3 0.186897 0.951872 0.080746
Si Si4 0.644521 0.146282 0.102840
Si Si5 0.579396 0.218041 0.525811
O O1 0.725728 0.449270 0.313111
O O2 0.517546 0.541843 0.324296
O O3 0.613607 0.717846 0.361574
O O4 0.917912 0.634711 0.174896
O O5 0.166679 0.526557 0.138613
O O6 0.372770 0.302245 0.050368
O O7 0.000000 0.308342 0.250000
O O8 0.181910 0.801004 0.112098
O O9 0.377065 0.055043 0.005776
O O10 0.204649 0.898195 0.009855
O O11 0.750000 0.250000 0.500000
#
# Coordination Sequence:
#
# PCOD9265257 Si02
#       5
#     8   8   8   8   8
#     4  10  21  34  65  81 119 156 198 230 295 351
#     4  10  20  37  60  86 119 156 194 234 291 350
#     4  10  22  37  60  84 122 146 201 244 284 346
#     4  10  21  37  57  88 118 154 189 243 293 342
#     4  10  19  36  59  86 113 152 197 239 277 348
#
# _framework density 26.183261000000002
#
# number of rings (size 3 to 8) (size 9 to 14) (size 15 to 20)
#    0.000    2.000    4.000    0.600    2.800    1.600 
#    0.000    4.000    0.000    0.000    0.000    0.000 
#    0.000    0.000    0.000    0.000    0.000    0.000 
#
# Total GULP energy -111876.064791 kJ/mol
# GULP energy per Si atom -5593.803240 kJ/mol
# Density = 2.612367 g / cm^3
# Si number density = 26.183261 Si / 1000 Ang^3
#
#
#
# Elastic Constant Matrix: (Units=GPa)
#
#
# Indices 1 2 3 4 5 6 
#
# 1 47.2882 16.5002 4.1768 0.0000 -1.5471 0.0000
# 2 16.5002 171.5792 30.1342 0.0000 -6.6188 0.0000
# 3 4.1768 30.1342 111.0803 0.0002 -30.2565 0.0000
# 4 0.0000 0.0000 0.0002 24.5168 0.0000 5.7404
# 5 -1.5471 -6.6188 -30.2565 0.0000 30.1700 0.0000
# 6 0.0000 0.0000 0.0000 5.7404 0.0000 20.0480
#
#
#
# Elastic Compliance Matrix: (Units=1/GPa)
#
#
# Indices 1 2 3 4 5 6 
#
# 1 0.021895 -0.002065 -0.000111 0.000000 0.000558 0.000000
# 2 -0.002065 0.006319 -0.001772 0.000000 -0.000496 0.000000
# 3 -0.000111 -0.001772 0.012905 0.000000 0.012548 0.000000
# 4 0.000000 0.000000 0.000000 0.043719 0.000000 -0.012518
# 5 0.000558 -0.000496 0.012548 0.000000 0.045649 0.000000
# 6 0.000000 0.000000 0.000000 -0.012518 0.000000 0.053465
#
#
# Mechanical properties :
#
#
# Convention : Reuss Voigt Hill
#
# Bulk Modulus (GPa) = 30.09841 47.95223 39.02532
# Shear Modulus (GPa) = 24.64004 33.55608 29.09806
#
# Velocity S-wave (km/s) = 3.07100 3.58381 3.33727
# Velocity P-wave (km/s) = 4.90866 5.95640 5.45773
#
# Compressibility (1/GPa) = 0.03322435
#
# Stress axis : x y z
#
# Youngs Moduli (GPa) = 45.67173 158.25851 77.48861
#
# Poissons Ratio (x) = 0.32673 0.00861
# Poissons Ratio (y) = 0.09429 0.13729
# Poissons Ratio (z) = 0.00508 0.28040
#
# Static dielectric constant tensor:
#      x y z
#    x 2.115730 0.000000 -0.031610 
#    y 0.000000 2.102340 0.000000 
#    z -0.031610 0.000000 2.071680 
# 
# From -- ./inp_files/313051.got.cif
#   From: 2010.05.17/outbox.cif.g08.bks.cpg/sg15_157_cif.got.tgz:313051.got - 2010.06.03 18:47:42.
