data_PCOD9265877
_publ_section_title
;
Structure prediction by ZEFSAII (Michael W. Deem and Ramdas Pophale) SiO2 
 PCOD9265877
Probable space group: C 2/C
;
_chemical_formula_sum "Si O2"
_cell_formula_units_Z 56
_cell_length_a 9.343648
_cell_length_b 16.915810
_cell_length_c 21.188707
_cell_angle_alpha 90.000000
_cell_angle_beta 119.821402
_cell_angle_gamma 90.000000
_cell_volume 2905.515071
_symmetry_space_group_name_H-M "C 2/C"
_symmetry_group_IT_number 15
_symmetry_cell_setting 'monoclinic'
loop_
_space_group_symop_operation_xyz
x,y,z
-x,y,1/2-z
-x,-y,-z
x,-y,1/2+z
1/2+x,1/2+y,z
1/2-x,1/2+y,1/2-z
1/2-x,1/2-y,-z
1/2+x,1/2-y,1/2+z
loop_
_atom_site_type_symbol
_atom_site_label
_atom_site_fract_x
_atom_site_fract_y
_atom_site_fract_z
Si Si1 0.770382 0.809998 0.862444
Si Si2 0.803036 0.262067 0.919606
Si Si3 0.652810 0.986454 0.985306
Si Si4 0.168652 0.686019 0.527814
Si Si5 0.502303 0.063177 0.178013
Si Si6 0.609960 0.366995 0.973786
Si Si7 0.313459 0.657969 0.227110
O O1 0.788305 0.722586 0.894919
O O2 0.598491 0.853525 0.839355
O O3 0.801137 0.810309 0.795074
O O4 0.912996 0.865173 0.925138
O O5 0.666529 0.302694 0.933875
O O6 0.751831 0.278211 0.837357
O O7 0.833128 0.172527 0.948015
O O8 0.972817 0.307673 0.973103
O O9 0.582859 0.983043 0.898229
O O10 0.722597 0.901304 0.021775
O O11 0.500000 0.000000 0.000000
O O12 0.793228 0.053111 0.018936
O O13 0.250000 0.750000 0.500000
O O14 0.500000 0.031200 0.250000
O O15 0.688052 0.084144 0.198286
O O16 0.500000 0.636830 0.250000
#
# Coordination Sequence:
#
# PCOD9265877 Si02
#       7
#     8   8   8   8   8   8   8
#     4  10  21  37  62  90 121 157 208 251 300 361
#     4  10  19  37  56  88 119 155 201 249 296 364
#     4  12  22  37  63  91 123 161 202 252 309 361
#     4  11  20  38  61  89 119 157 202 251 301 353
#     4  10  22  40  59  91 122 163 201 253 306 365
#     4  10  21  35  59  90 121 152 203 253 298 357
#     4  11  19  33  62  90 115 163 209 241 302 368
#
# _framework density 19.273690999999999
#
# number of rings (size 3 to 8) (size 9 to 14) (size 15 to 20)
#    0.000    1.429    5.714    0.000    0.000    0.571 
#    0.000    2.143    0.000    0.000   29.714    0.000 
#    0.000    0.000    0.000    0.000    0.000    0.000 
#
# Total GULP energy -156231.691722 kJ/mol
# GULP energy per Si atom -5579.703276 kJ/mol
# Density = 1.922982 g / cm^3
# Si number density = 19.273691 Si / 1000 Ang^3
#
#
#
# Elastic Constant Matrix: (Units=GPa)
#
#
# Indices 1 2 3 4 5 6 
#
# 1 70.6722 6.8482 15.2626 0.0000 0.3593 0.0000
# 2 6.8482 86.1754 16.1686 0.0000 -3.0298 0.0000
# 3 15.2626 16.1686 87.2382 0.0000 -13.4366 0.0000
# 4 0.0000 0.0000 0.0000 19.5336 0.0000 -1.4296
# 5 0.3593 -3.0298 -13.4366 0.0000 32.4367 0.0000
# 6 0.0000 0.0000 0.0000 -1.4296 0.0000 28.5674
#
#
#
# Elastic Compliance Matrix: (Units=1/GPa)
#
#
# Indices 1 2 3 4 5 6 
#
# 1 0.014801 -0.000724 -0.002661 0.000000 -0.001334 0.000000
# 2 -0.000724 0.012059 -0.002065 0.000000 0.000279 0.000000
# 3 -0.002661 -0.002065 0.013123 0.000000 0.005273 0.000000
# 4 0.000000 0.000000 0.000000 0.051382 0.000000 0.002571
# 5 -0.001334 0.000279 0.005273 0.000000 0.033054 0.000000
# 6 0.000000 0.000000 0.000000 0.002571 0.000000 0.035134
#
#
# Mechanical properties :
#
#
# Convention : Reuss Voigt Hill
#
# Bulk Modulus (GPa) = 34.38374 35.62720 35.00547
# Shear Modulus (GPa) = 27.75487 29.82796 28.79142
#
# Velocity S-wave (km/s) = 3.79890 3.93822 3.86919
# Velocity P-wave (km/s) = 6.09267 6.26135 6.17759
#
# Compressibility (1/GPa) = 0.02908351
#
# Stress axis : x y z
#
# Youngs Moduli (GPa) = 67.56117 82.92497 76.20034
#
# Poissons Ratio (x) = 0.06003 0.20275
# Poissons Ratio (y) = 0.04891 0.15739
# Poissons Ratio (z) = 0.17977 0.17128
#
# Static dielectric constant tensor:
#      x y z
#    x 1.789290 0.000000 0.008150 
#    y 0.000000 1.680510 0.000000 
#    z 0.008150 0.000000 1.729370 
# 
# From -- ./inp_files/265318.got.cif
#   From: 2010.05.17/outbox.cif.g08.bks.cpg/sg15_133_cif.got.tgz:265318.got - 2010.06.03 18:47:42.
