data_PCOD9265354
_publ_section_title
;
Structure prediction by ZEFSAII (Michael W. Deem and Ramdas Pophale) SiO2 
 PCOD9265354
Probable space group: C 2/C
;
_chemical_formula_sum "Si O2"
_cell_formula_units_Z 56
_cell_length_a 10.632936
_cell_length_b 16.173881
_cell_length_c 16.686841
_cell_angle_alpha 90.000000
_cell_angle_beta 59.382656
_cell_angle_gamma 90.000000
_cell_volume 2469.657934
_symmetry_space_group_name_H-M "C 2/C"
_symmetry_group_IT_number 15
_symmetry_cell_setting 'monoclinic'
loop_
_space_group_symop_operation_xyz
x,y,z
-x,y,1/2-z
-x,-y,-z
x,-y,1/2+z
1/2+x,1/2+y,z
1/2-x,1/2+y,1/2-z
1/2-x,1/2-y,-z
1/2+x,1/2-y,1/2+z
loop_
_atom_site_type_symbol
_atom_site_label
_atom_site_fract_x
_atom_site_fract_y
_atom_site_fract_z
Si Si1 0.184351 0.908605 0.508652
Si Si2 0.177965 0.565289 0.050916
Si Si3 0.088741 0.110338 0.301432
Si Si4 0.909853 0.119201 0.848884
Si Si5 0.647972 0.100032 0.379010
Si Si6 0.433501 0.719882 0.571625
Si Si7 0.722988 0.276032 0.882189
O O1 0.292411 0.901111 0.549539
O O2 0.161608 0.825102 0.465695
O O3 0.024574 0.929521 0.598637
O O4 0.252233 0.982556 0.434748
O O5 0.276995 0.576655 0.938789
O O6 0.203460 0.643951 0.099820
O O7 0.008883 0.559575 0.083436
O O8 0.232607 0.064932 0.221683
O O9 0.145169 0.191727 0.328250
O O10 0.000000 0.131390 0.250000
O O11 0.836276 0.202275 0.836540
O O12 0.000000 0.073989 0.750000
O O13 0.022734 0.149867 0.879403
O O14 0.632302 0.198466 0.368742
O O15 0.589312 0.749033 0.483820
#
# Coordination Sequence:
#
# PCOD9265354 Si02
#       7
#     8   8   8   8   8   8   8
#     4  10  23  38  58  87 122 162 194 243 310 369
#     4  11  22  38  59  89 120 156 201 250 305 362
#     4   9  21  36  58  88 113 153 199 244 304 367
#     4  11  21  35  60  87 117 154 199 259 294 348
#     4  11  19  38  62  86 116 156 203 249 292 366
#     4  10  19  37  60  88 115 153 209 242 302 359
#     4  10  19  36  60  86 118 152 201 252 298 355
#
# _framework density 22.675204999999998
#
# number of rings (size 3 to 8) (size 9 to 14) (size 15 to 20)
#    0.000    1.714    2.857    2.571    0.000    6.857 
#    0.000    0.000    0.000    1.714    0.000    0.000 
#    0.000    0.000    0.000    0.000    0.000    0.000 
#
# Total GULP energy -156465.323551 kJ/mol
# GULP energy per Si atom -5588.047270 kJ/mol
# Density = 2.262360 g / cm^3
# Si number density = 22.675205 Si / 1000 Ang^3
#
#
#
# Elastic Constant Matrix: (Units=GPa)
#
#
# Indices 1 2 3 4 5 6 
#
# 1 102.8991 30.1045 21.6759 0.0000 -16.3054 0.0000
# 2 30.1045 62.0912 4.8638 0.0000 -17.6208 0.0000
# 3 21.6759 4.8638 80.5599 0.0000 -16.0879 0.0000
# 4 0.0000 0.0000 0.0000 17.1078 0.0000 -10.9672
# 5 -16.3054 -17.6208 -16.0879 0.0000 24.8607 0.0000
# 6 0.0000 0.0000 0.0000 -10.9672 0.0000 30.6342
#
#
#
# Elastic Compliance Matrix: (Units=1/GPa)
#
#
# Indices 1 2 3 4 5 6 
#
# 1 0.012105 -0.004839 -0.002371 0.000000 0.002975 0.000000
# 2 -0.004839 0.022346 0.002850 0.000000 0.014509 0.000000
# 3 -0.002371 0.002850 0.014897 0.000000 0.010106 0.000000
# 4 0.000000 0.000000 0.000000 0.075864 0.000000 0.027160
# 5 0.002975 0.014509 0.010106 0.000000 0.058999 0.000000
# 6 0.000000 0.000000 0.000000 0.027160 0.000000 0.042367
#
#
# Mechanical properties :
#
#
# Convention : Reuss Voigt Hill
#
# Bulk Modulus (GPa) = 24.61290 39.87096 32.24193
# Shear Modulus (GPa) = 20.09337 27.11428 23.60383
#
# Velocity S-wave (km/s) = 2.98004 3.46174 3.22988
# Velocity P-wave (km/s) = 4.76644 5.79654 5.30654
#
# Compressibility (1/GPa) = 0.04062910
#
# Stress axis : x y z
#
# Youngs Moduli (GPa) = 82.61192 44.75146 67.12763
#
# Poissons Ratio (x) = 0.21655 0.15914
# Poissons Ratio (y) = 0.39975 -0.19134
# Poissons Ratio (z) = 0.19584 -0.12756
#
# Static dielectric constant tensor:
#      x y z
#    x 1.826320 0.000000 0.005070 
#    y 0.000000 1.889140 0.000000 
#    z 0.005070 0.000000 1.873170 
# 
# From -- ./inp_files/192016.got.cif
#   From: 2010.05.17/outbox.cif.g08.bks.cpg/sg15_97_cif.got.tgz:192016.got - 2010.06.03 18:47:42.
