data_PCOD9265017
_publ_section_title
;
Structure prediction by ZEFSAII (Michael W. Deem and Ramdas Pophale) SiO2 
 PCOD9265017
Probable space group: C 2/C
;
_chemical_formula_sum "Si O2"
_cell_formula_units_Z 56
_cell_length_a 7.208201
_cell_length_b 34.030916
_cell_length_c 17.246231
_cell_angle_alpha 90.000000
_cell_angle_beta 144.065912
_cell_angle_gamma 90.000000
_cell_volume 2482.703935
_symmetry_space_group_name_H-M "C 2/C"
_symmetry_group_IT_number 15
_symmetry_cell_setting 'monoclinic'
loop_
_space_group_symop_operation_xyz
x,y,z
-x,y,1/2-z
-x,-y,-z
x,-y,1/2+z
1/2+x,1/2+y,z
1/2-x,1/2+y,1/2-z
1/2-x,1/2-y,-z
1/2+x,1/2-y,1/2+z
loop_
_atom_site_type_symbol
_atom_site_label
_atom_site_fract_x
_atom_site_fract_y
_atom_site_fract_z
Si Si1 0.354465 0.898942 0.613152
Si Si2 0.391039 0.882992 0.130599
Si Si3 0.632899 0.977728 0.967192
Si Si4 0.656707 0.812582 0.887950
Si Si5 0.269068 0.462689 0.246470
Si Si6 0.696370 0.807096 0.475607
Si Si7 0.865632 0.756219 0.780131
O O1 0.500000 0.903471 0.750000
O O2 0.463791 0.933489 0.591875
O O3 0.418146 0.854959 0.600835
O O4 0.972074 0.897782 0.492113
O O5 0.500000 0.864754 0.250000
O O6 0.617122 0.920186 0.199347
O O7 0.426055 0.851185 0.073817
O O8 0.502645 0.005646 0.856882
O O9 0.004131 0.974163 0.106626
O O10 0.500000 0.000000 0.000000
O O11 0.500000 0.816912 0.750000
O O12 0.473565 0.774203 0.853442
O O13 0.026341 0.806611 0.997011
O O14 0.500000 0.463062 0.250000
O O15 0.896169 0.792202 0.616897
O O16 0.421952 0.775407 0.366715
O O17 0.000000 0.736428 0.750000
#
# Coordination Sequence:
#
# PCOD9265017 Si02
#       7
#     8   8   8   8   8   8   8
#     4  10  21  38  65  92 120 166 217 252 306 373
#     4  11  21  40  65  90 120 160 211 257 304 369
#     4  10  22  42  61  88 124 164 196 257 322 369
#     4   8  17  36  57  83 121 156 200 253 297 359
#     4  10  23  42  60  89 128 158 198 254 318 374
#     4   9  20  37  59  83 123 163 200 257 311 356
#     4  10  19  36  56  89 120 158 209 250 307 370
#
# _framework density 22.556052000000001
#
# number of rings (size 3 to 8) (size 9 to 14) (size 15 to 20)
#    0.000    2.286    1.429    1.286    2.000    1.714 
#    5.143    4.286    0.000    0.000    0.000    0.000 
#    0.000    0.000    0.000    0.000    0.000    0.000 
#
# Total GULP energy -155941.295237 kJ/mol
# GULP energy per Si atom -5569.331973 kJ/mol
# Density = 2.250471 g / cm^3
# Si number density = 22.556052 Si / 1000 Ang^3
#
#
#
# Elastic Constant Matrix: (Units=GPa)
#
#
# Indices 1 2 3 4 5 6 
#
# 1 38.3716 15.9110 7.7583 0.0000 8.7197 0.0000
# 2 15.9110 121.3746 46.2008 0.0000 17.2099 0.0000
# 3 7.7583 46.2008 143.2357 0.0000 9.6766 0.0000
# 4 0.0000 0.0000 0.0000 35.8460 0.0000 5.2520
# 5 8.7197 17.2099 9.6766 0.0000 15.9118 0.0000
# 6 0.0000 0.0000 0.0000 5.2520 0.0000 19.4968
#
#
#
# Elastic Compliance Matrix: (Units=1/GPa)
#
#
# Indices 1 2 3 4 5 6 
#
# 1 0.030135 -0.001883 -0.000049 0.000000 -0.014447 0.000000
# 2 -0.001883 0.010817 -0.002781 0.000000 -0.008976 0.000000
# 3 -0.000049 -0.002781 0.008005 0.000000 -0.001834 0.000000
# 4 0.000000 0.000000 0.000000 0.029043 0.000000 -0.007824
# 5 -0.014447 -0.008976 -0.001834 0.000000 0.081587 0.000000
# 6 0.000000 0.000000 0.000000 -0.007824 0.000000 0.053398
#
#
# Mechanical properties :
#
#
# Convention : Reuss Voigt Hill
#
# Bulk Modulus (GPa) = 25.29633 49.19134 37.24384
# Shear Modulus (GPa) = 21.22350 29.79173 25.50762
#
# Velocity S-wave (km/s) = 3.07077 3.63821 3.36647
# Velocity P-wave (km/s) = 4.87976 6.28526 5.62657
#
# Compressibility (1/GPa) = 0.03953142
#
# Stress axis : x y z
#
# Youngs Moduli (GPa) = 33.18424 92.44664 124.92311
#
# Poissons Ratio (x) = 0.17410 0.00609
# Poissons Ratio (y) = 0.06250 0.34736
# Poissons Ratio (z) = 0.00162 0.25706
#
# Static dielectric constant tensor:
#      x y z
#    x 1.960810 0.000000 -0.080260 
#    y 0.000000 1.900880 0.000000 
#    z -0.080260 0.000000 1.925620 
# 
# From -- ./inp_files/234973.got.cif
#   From: 2010.05.17/outbox.cif.g08.bks.cpg/sg15_118_cif.got.tgz:234973.got - 2010.06.03 18:47:42.
