data_PCOD9265249
_publ_section_title
;
Structure prediction by ZEFSAII (Michael W. Deem and Ramdas Pophale) SiO2 
 PCOD9265249
Probable space group: C 2/C
;
_chemical_formula_sum "Si O2"
_cell_formula_units_Z 56
_cell_length_a 19.225195
_cell_length_b 8.056200
_cell_length_c 28.594249
_cell_angle_alpha 90.000000
_cell_angle_beta 36.017802
_cell_angle_gamma 90.000000
_cell_volume 2604.258179
_symmetry_space_group_name_H-M "C 2/C"
_symmetry_group_IT_number 15
_symmetry_cell_setting 'monoclinic'
loop_
_space_group_symop_operation_xyz
x,y,z
-x,y,1/2-z
-x,-y,-z
x,-y,1/2+z
1/2+x,1/2+y,z
1/2-x,1/2+y,1/2-z
1/2-x,1/2-y,-z
1/2+x,1/2-y,1/2+z
loop_
_atom_site_type_symbol
_atom_site_label
_atom_site_fract_x
_atom_site_fract_y
_atom_site_fract_z
Si Si1 0.683373 0.417906 0.553350
Si Si2 0.297288 0.076322 0.751244
Si Si3 0.890508 0.777240 0.085314
Si Si4 0.731069 0.013641 0.892143
Si Si5 0.947554 0.799351 0.730990
Si Si6 0.081921 0.989814 0.512562
Si Si7 0.342479 0.264481 0.639130
O O1 0.750000 0.250000 0.500000
O O2 0.750053 0.498189 0.562061
O O3 0.552175 0.384173 0.645118
O O4 0.656708 0.508696 0.518707
O O5 0.191057 0.198859 0.825359
O O6 0.401397 0.147413 0.725995
O O7 0.334426 0.107389 0.678215
O O8 0.249625 0.898109 0.790706
O O9 0.875669 0.605702 0.066836
O O10 0.847210 0.913021 0.069787
O O11 0.016601 0.842044 0.033482
O O12 0.845404 0.928170 0.803806
O O13 0.704705 0.191634 0.884102
O O14 0.000000 0.730388 0.750000
O O15 0.970839 0.855472 0.575497
#
# Coordination Sequence:
#
# PCOD9265249 Si02
#       7
#     8   8   8   8   8   8   8
#     4  11  20  37  59  89 117 158 195 237 286 363
#     4  10  19  36  59  85 117 150 201 243 299 342
#     4   9  19  35  58  86 117 155 190 241 288 358
#     4  10  21  37  59  89 117 152 200 240 293 345
#     4   9  19  36  59  84 117 156 192 240 299 355
#     4  10  20  36  60  88 117 156 197 237 301 347
#     4  11  22  36  62  89 116 151 202 253 289 354
#
# _framework density 21.503243000000001
#
# number of rings (size 3 to 8) (size 9 to 14) (size 15 to 20)
#    0.000    2.000    2.857    1.714    2.000    0.571 
#    0.000    2.143    0.000    7.714    0.000    0.000 
#    0.000    0.000    0.000    0.000    0.000    0.000 
#
# Total GULP energy -156031.396976 kJ/mol
# GULP energy per Si atom -5572.549892 kJ/mol
# Density = 2.145430 g / cm^3
# Si number density = 21.503243 Si / 1000 Ang^3
#
#
#
# Elastic Constant Matrix: (Units=GPa)
#
#
# Indices 1 2 3 4 5 6 
#
# 1 144.9880 47.7432 35.0854 -0.0027 24.0025 0.0068
# 2 47.7432 66.9675 13.2069 -0.0095 -7.2542 0.0047
# 3 35.0854 13.2069 67.6381 -0.0006 13.9494 0.0017
# 4 -0.0027 -0.0095 -0.0006 29.8960 -0.0004 5.4496
# 5 24.0025 -7.2542 13.9494 -0.0004 29.0047 -0.0023
# 6 0.0068 0.0047 0.0017 5.4496 -0.0023 33.9329
#
#
#
# Elastic Compliance Matrix: (Units=1/GPa)
#
#
# Indices 1 2 3 4 5 6 
#
# 1 0.012642 -0.009870 -0.002180 -0.000002 -0.011881 -0.000002
# 2 -0.009870 0.024213 -0.002821 0.000007 0.015580 -0.000001
# 3 -0.002180 -0.002821 0.018028 -0.000001 -0.007572 0.000000
# 4 -0.000002 0.000007 -0.000001 0.034458 0.000004 -0.005534
# 5 -0.011881 0.015580 -0.007572 0.000004 0.051848 0.000004
# 6 -0.000002 -0.000001 0.000000 -0.005534 0.000004 0.030359
#
#
# Mechanical properties :
#
#
# Convention : Reuss Voigt Hill
#
# Bulk Modulus (GPa) = 39.77646 52.40717 46.09181
# Shear Modulus (GPa) = 23.84705 30.80394 27.32549
#
# Velocity S-wave (km/s) = 3.33377 3.78898 3.56864
# Velocity P-wave (km/s) = 5.77553 6.60049 6.20174
#
# Compressibility (1/GPa) = 0.02514050
#
# Stress axis : x y z
#
# Youngs Moduli (GPa) = 79.10383 41.29979 55.46975
#
# Poissons Ratio (x) = 0.40762 0.12092
# Poissons Ratio (y) = 0.78073 0.15650
# Poissons Ratio (z) = 0.17244 0.11652
#
# Static dielectric constant tensor:
#      x y z
#    x 1.814060 0.000000 0.019320 
#    y 0.000000 1.803730 0.000000 
#    z 0.019320 0.000000 1.880410 
# 
# From -- ./inp_files/276600.got.cif
#   From: 2010.05.17/outbox.cif.g08.bks.cpg/sg15_139_cif.got.tgz:276600.got - 2010.06.03 18:47:42.
