data_PCOD9265928
_publ_section_title
;
Structure prediction by ZEFSAII (Michael W. Deem and Ramdas Pophale) SiO2 
 PCOD9265928
Probable space group: C 2/C
;
_chemical_formula_sum "Si O2"
_cell_formula_units_Z 40
_cell_length_a 11.009251
_cell_length_b 10.395046
_cell_length_c 21.310992
_cell_angle_alpha 90.000000
_cell_angle_beta 46.477016
_cell_angle_gamma 90.000000
_cell_volume 1768.416958
_symmetry_space_group_name_H-M "C 2/C"
_symmetry_group_IT_number 15
_symmetry_cell_setting 'monoclinic'
loop_
_space_group_symop_operation_xyz
x,y,z
-x,y,1/2-z
-x,-y,-z
x,-y,1/2+z
1/2+x,1/2+y,z
1/2-x,1/2+y,1/2-z
1/2-x,1/2-y,-z
1/2+x,1/2-y,1/2+z
loop_
_atom_site_type_symbol
_atom_site_label
_atom_site_fract_x
_atom_site_fract_y
_atom_site_fract_z
Si Si1 0.800679 0.873977 0.822122
Si Si2 0.386972 0.451419 0.455325
Si Si3 0.782251 0.893592 0.099129
Si Si4 0.681316 0.652016 0.650008
Si Si5 0.699059 0.609949 0.318054
O O1 0.769976 0.752196 0.876748
O O2 0.739113 0.851128 0.772663
O O3 0.000000 0.885851 0.750000
O O4 0.735968 0.013993 0.864490
O O5 0.517589 0.388355 0.457621
O O6 0.254786 0.528880 0.544519
O O7 0.337397 0.353790 0.418473
O O8 0.507842 0.559523 0.380734
O O9 0.715484 0.984773 0.179688
O O10 0.500000 0.658594 0.750000
O O11 0.780628 0.770960 0.642951
#
# Coordination Sequence:
#
# PCOD9265928 Si02
#       5
#     8   8   8   8   8
#     4  11  19  35  57  83 114 145 188 243 287 337
#     4   9  19  40  56  79 115 152 187 238 294 333
#     4   9  20  37  58  78 117 147 189 242 284 343
#     4  11  20  35  60  82 116 153 190 238 289 336
#     4  10  19  37  58  81 109 153 193 229 285 352
#
# _framework density 22.619098000000001
#
# number of rings (size 3 to 8) (size 9 to 14) (size 15 to 20)
#    1.200    0.800    4.000    2.400    0.000    2.400 
#    0.000    3.000    0.000    0.000    0.000    0.000 
#    0.000    0.000    0.000    0.000    0.000    0.000 
#
# Total GULP energy -111409.331109 kJ/mol
# GULP energy per Si atom -5570.466555 kJ/mol
# Density = 2.256762 g / cm^3
# Si number density = 22.619098 Si / 1000 Ang^3
#
#
#
# Elastic Constant Matrix: (Units=GPa)
#
#
# Indices 1 2 3 4 5 6 
#
# 1 32.4759 13.7521 8.4304 0.0000 19.3949 0.0000
# 2 13.7521 95.3067 -17.1344 0.0000 -7.3872 0.0000
# 3 8.4304 -17.1344 56.8157 0.0000 18.4620 0.0000
# 4 0.0000 0.0000 0.0000 39.5153 0.0000 1.7850
# 5 19.3949 -7.3872 18.4620 0.0000 23.4811 0.0000
# 6 0.0000 0.0000 0.0000 1.7850 0.0000 2.8211
#
#
#
# Elastic Compliance Matrix: (Units=1/GPa)
#
#
# Indices 1 2 3 4 5 6 
#
# 1 0.085153 -0.017067 0.009157 0.000000 -0.082903 0.000000
# 2 -0.017067 0.014538 0.001141 0.000000 0.017773 0.000000
# 3 0.009157 0.001141 0.025422 0.000000 -0.027193 0.000000
# 4 0.000000 0.000000 0.000000 0.026051 0.000000 -0.016483
# 5 -0.082903 0.017773 -0.027193 0.000000 0.138036 0.000000
# 6 0.000000 0.000000 0.000000 -0.016483 0.000000 0.364906
#
#
# Mechanical properties :
#
#
# Convention : Reuss Voigt Hill
#
# Bulk Modulus (GPa) = 8.96242 21.63273 15.29757
# Shear Modulus (GPa) = 7.09387 25.13351 16.11369
#
# Velocity S-wave (km/s) = 1.77286 3.33703 2.67196
# Velocity P-wave (km/s) = 2.85686 4.94291 4.03695
#
# Compressibility (1/GPa) = 0.11157700
#
# Stress axis : x y z
#
# Youngs Moduli (GPa) = 11.74360 68.78621 39.33536
#
# Poissons Ratio (x) = 1.17394 -0.36020
# Poissons Ratio (y) = 0.20042 -0.04490
# Poissons Ratio (z) = -0.10754 -0.07852
#
# Static dielectric constant tensor:
#      x y z
#    x 1.877000 0.000000 -0.012120 
#    y 0.000000 1.877510 0.000000 
#    z -0.012120 0.000000 2.018630 
# 
# From -- ./inp_files/241893.got.cif
#   From: 2010.05.17/outbox.cif.g08.bks.cpg/sg15_121_cif.got.tgz:241893.got - 2010.06.03 18:47:42.
