data_PCOD9265312
_publ_section_title
;
Structure prediction by ZEFSAII (Michael W. Deem and Ramdas Pophale) SiO2 
 PCOD9265312
Probable space group: C 2/C
;
_chemical_formula_sum "Si O2"
_cell_formula_units_Z 44
_cell_length_a 7.068090
_cell_length_b 18.055380
_cell_length_c 14.532474
_cell_angle_alpha 90.000000
_cell_angle_beta 66.323975
_cell_angle_gamma 90.000000
_cell_volume 1698.491817
_symmetry_space_group_name_H-M "C 2/C"
_symmetry_group_IT_number 15
_symmetry_cell_setting 'monoclinic'
loop_
_space_group_symop_operation_xyz
x,y,z
-x,y,1/2-z
-x,-y,-z
x,-y,1/2+z
1/2+x,1/2+y,z
1/2-x,1/2+y,1/2-z
1/2-x,1/2-y,-z
1/2+x,1/2-y,1/2+z
loop_
_atom_site_type_symbol
_atom_site_label
_atom_site_fract_x
_atom_site_fract_y
_atom_site_fract_z
Si Si1 0.590960 0.582382 0.467104
Si Si2 0.132481 0.401678 0.308269
Si Si3 0.041004 0.606272 0.473899
Si Si4 0.722310 0.938177 0.753351
Si Si5 0.000000 0.205980 0.750000
Si Si6 0.003879 0.763067 0.052137
O O1 0.500000 0.500000 0.500000
O O2 0.625046 0.595917 0.351355
O O3 0.463901 0.652323 0.532022
O O4 0.815008 0.589836 0.472937
O O5 0.251959 0.473302 0.247452
O O6 0.302484 0.344751 0.310712
O O7 0.000000 0.370407 0.250000
O O8 0.982920 0.428162 0.420188
O O9 0.201741 0.583068 0.364003
O O10 0.080540 0.693242 0.486004
O O11 0.500000 0.925276 0.750000
O O12 0.944191 0.250231 0.670016
O O13 0.250000 0.750000 0.000000
#
# Coordination Sequence:
#
# PCOD9265312 Si02
#       6
#     8   8   8   8   4   8
#     4  10  19  36  59  99 133 165 226 281 330 404
#     4  11  23  41  65  98 134 178 228 278 340 406
#     4  10  21  39  64  95 135 178 226 276 349 411
#     4   9  20  34  61  90 130 172 216 274 337 398
#     4  12  22  40  70  96 132 176 228 280 342 408
#     4  10  21  36  64 100 130 175 223 277 340 409
#
# _framework density 25.905335000000001
#
# number of rings (size 3 to 8) (size 9 to 14) (size 15 to 20)
#    0.000    1.818    3.636    1.636    6.364    0.000 
#    0.000    0.909    0.000    2.182    2.364    0.000 
#    0.000    0.000    0.000    0.000    0.000    0.000 
#
# Total GULP energy -123029.330693 kJ/mol
# GULP energy per Si atom -5592.242304 kJ/mol
# Density = 2.584637 g / cm^3
# Si number density = 25.905335 Si / 1000 Ang^3
#
#
#
# Elastic Constant Matrix: (Units=GPa)
#
#
# Indices 1 2 3 4 5 6 
#
# 1 115.9059 12.1806 8.5215 0.0000 7.1439 0.0000
# 2 12.1806 127.3051 1.2347 0.0000 -0.4032 0.0000
# 3 8.5215 1.2347 155.5882 0.0000 24.8713 0.0000
# 4 0.0000 0.0000 0.0000 36.4827 0.0000 0.1356
# 5 7.1439 -0.4032 24.8713 0.0000 12.8135 0.0000
# 6 0.0000 0.0000 0.0000 0.1356 0.0000 22.4075
#
#
#
# Elastic Compliance Matrix: (Units=1/GPa)
#
#
# Indices 1 2 3 4 5 6 
#
# 1 0.009056 -0.000890 0.000468 0.000000 -0.005985 0.000000
# 2 -0.000890 0.007946 -0.000194 0.000000 0.001122 0.000000
# 3 0.000468 -0.000194 0.009346 0.000000 -0.018407 0.000000
# 4 0.000000 0.000000 0.000000 0.027411 0.000000 -0.000166
# 5 -0.005985 0.001122 -0.018407 0.000000 0.117143 0.000000
# 6 0.000000 0.000000 0.000000 -0.000166 0.000000 0.044629
#
#
# Mechanical properties :
#
#
# Convention : Reuss Voigt Hill
#
# Bulk Modulus (GPa) = 39.81648 49.18587 44.50117
# Shear Modulus (GPa) = 22.20904 39.46488 30.83696
#
# Velocity S-wave (km/s) = 2.93117 3.90734 3.45392
# Velocity P-wave (km/s) = 5.18257 6.27570 5.75515
#
# Compressibility (1/GPa) = 0.02511523
#
# Stress axis : x y z
#
# Youngs Moduli (GPa) = 110.42770 125.85377 107.00309
#
# Poissons Ratio (x) = 0.11200 -0.05005
# Poissons Ratio (y) = 0.09827 0.02073
# Poissons Ratio (z) = -0.05166 0.02438
#
# Static dielectric constant tensor:
#      x y z
#    x 2.082060 0.000000 -0.020120 
#    y 0.000000 2.060810 0.000000 
#    z -0.020120 0.000000 2.058720 
# 
# From -- ./inp_files/134728.got.cif
#   From: 2010.05.17/outbox.cif.g08.bks.cpg/sg15_68_cif.got.tgz:134728.got - 2010.06.03 18:47:42.
