data_PCOD9265440
_publ_section_title
;
Structure prediction by ZEFSAII (Michael W. Deem and Ramdas Pophale) SiO2 
 PCOD9265440
Probable space group: C 2/C
;
_chemical_formula_sum "Si O2"
_cell_formula_units_Z 44
_cell_length_a 13.891989
_cell_length_b 17.987080
_cell_length_c 8.896667
_cell_angle_alpha 90.000000
_cell_angle_beta 80.685594
_cell_angle_gamma 90.000000
_cell_volume 2193.755375
_symmetry_space_group_name_H-M "C 2/C"
_symmetry_group_IT_number 15
_symmetry_cell_setting 'monoclinic'
loop_
_space_group_symop_operation_xyz
x,y,z
-x,y,1/2-z
-x,-y,-z
x,-y,1/2+z
1/2+x,1/2+y,z
1/2-x,1/2+y,1/2-z
1/2-x,1/2-y,-z
1/2+x,1/2-y,1/2+z
loop_
_atom_site_type_symbol
_atom_site_label
_atom_site_fract_x
_atom_site_fract_y
_atom_site_fract_z
Si Si1 0.481298 0.587984 0.985232
Si Si2 0.500000 0.783312 0.750000
Si Si3 0.000000 0.488590 0.250000
Si Si4 0.143725 0.848343 0.219938
Si Si5 0.000000 0.205448 0.250000
Si Si6 0.421558 0.096874 0.056048
Si Si7 0.811725 0.694830 0.882666
O O1 0.381309 0.600877 0.916502
O O2 0.574120 0.617021 0.866006
O O3 0.500000 0.500000 0.000000
O O4 0.476942 0.646757 0.122460
O O5 0.406378 0.731483 0.798880
O O6 0.519994 0.833607 0.890002
O O7 0.916394 0.542224 0.200846
O O8 0.974228 0.440795 0.401136
O O9 0.251137 0.835294 0.255698
O O10 0.090733 0.260477 0.189623
O O11 0.328078 0.127960 0.996518
O O12 0.750000 0.750000 0.000000
#
# Coordination Sequence:
#
# PCOD9265440 Si02
#       7
#     8   4   4   8   4   8   8
#     4  10  21  41  65  95 132 171 213 267 326 399
#     4   9  16  33  63  84 111 164 198 260 317 362
#     4   9  21  38  56  89 117 166 204 246 315 385
#     4  10  21  39  63  92 131 165 206 272 329 366
#     4  12  23  39  71  95 126 174 220 270 332 387
#     4  10  19  36  61  84 122 160 203 256 312 369
#     4  12  22  41  65  96 128 164 219 276 319 377
#
# _framework density 20.056930999999999
#
# number of rings (size 3 to 8) (size 9 to 14) (size 15 to 20)
#    0.000    1.818    3.636    2.727    0.000    0.727 
#    3.273    0.000    0.000    0.000    0.000    0.000 
#    0.000    0.000    0.000    0.000    0.000    0.000 
#
# Total GULP energy -122472.819742 kJ/mol
# GULP energy per Si atom -5566.946352 kJ/mol
# Density = 2.001128 g / cm^3
# Si number density = 20.056931 Si / 1000 Ang^3
#
#
#
# Elastic Constant Matrix: (Units=GPa)
#
#
# Indices 1 2 3 4 5 6 
#
# 1 100.9663 38.9923 37.1749 0.0000 29.1872 0.0000
# 2 38.9923 104.6404 36.3788 0.0000 24.1329 0.0000
# 3 37.1749 36.3788 90.8471 0.0000 31.7605 0.0000
# 4 0.0000 0.0000 0.0000 26.9295 0.0000 3.7893
# 5 29.1872 24.1329 31.7605 0.0000 43.9411 0.0000
# 6 0.0000 0.0000 0.0000 3.7893 0.0000 8.8585
#
#
#
# Elastic Compliance Matrix: (Units=1/GPa)
#
#
# Indices 1 2 3 4 5 6 
#
# 1 0.013549 -0.002908 -0.002398 0.000000 -0.005670 0.000000
# 2 -0.002908 0.012238 -0.002725 0.000000 -0.002820 0.000000
# 3 -0.002398 -0.002725 0.016057 0.000000 -0.008517 0.000000
# 4 0.000000 0.000000 0.000000 0.039512 0.000000 -0.016902
# 5 -0.005670 -0.002820 -0.008517 0.000000 0.034229 0.000000
# 6 0.000000 0.000000 0.000000 -0.016902 0.000000 0.120115
#
#
# Mechanical properties :
#
#
# Convention : Reuss Voigt Hill
#
# Bulk Modulus (GPa) = 38.78384 57.94954 48.36669
# Shear Modulus (GPa) = 19.20453 28.20636 23.70544
#
# Velocity S-wave (km/s) = 3.09771 3.75415 3.44162
# Velocity P-wave (km/s) = 5.67215 6.90991 6.32139
#
# Compressibility (1/GPa) = 0.02578394
#
# Stress axis : x y z
#
# Youngs Moduli (GPa) = 73.80602 81.71475 62.27659
#
# Poissons Ratio (x) = 0.23759 0.14933
# Poissons Ratio (y) = 0.21460 0.16968
# Poissons Ratio (z) = 0.17697 0.22265
#
# Static dielectric constant tensor:
#      x y z
#    x 1.730800 0.000000 0.042130 
#    y 0.000000 1.838240 0.000000 
#    z 0.042130 0.000000 1.731920 
# 
# From -- ./inp_files/39185.got.cif
#   From: 2010.05.17/outbox.cif.g08.bks.cpg/sg15_20_cif.got.tgz:39185.got - 2010.06.03 18:47:42.
