data_PCOD9265218
_publ_section_title
;
Structure prediction by ZEFSAII (Michael W. Deem and Ramdas Pophale) SiO2 
 PCOD9265218
Probable space group: C 2/C
;
_chemical_formula_sum "Si O2"
_cell_formula_units_Z 56
_cell_length_a 18.120548
_cell_length_b 16.865907
_cell_length_c 7.085664
_cell_angle_alpha 90.000000
_cell_angle_beta 103.186932
_cell_angle_gamma 90.000000
_cell_volume 2108.414325
_symmetry_space_group_name_H-M "C 2/C"
_symmetry_group_IT_number 15
_symmetry_cell_setting 'monoclinic'
loop_
_space_group_symop_operation_xyz
x,y,z
-x,y,1/2-z
-x,-y,-z
x,-y,1/2+z
1/2+x,1/2+y,z
1/2-x,1/2+y,1/2-z
1/2-x,1/2-y,-z
1/2+x,1/2-y,1/2+z
loop_
_atom_site_type_symbol
_atom_site_label
_atom_site_fract_x
_atom_site_fract_y
_atom_site_fract_z
Si Si1 0.901629 0.369455 0.887502
Si Si2 0.744481 0.418525 0.692297
Si Si3 0.984465 0.907556 0.522134
Si Si4 0.932762 0.371331 0.451277
Si Si5 0.224181 0.589873 0.731692
Si Si6 0.845699 0.199570 0.847718
Si Si7 0.380638 0.698206 0.447068
O O1 0.820240 0.410799 0.861191
O O2 0.919409 0.374817 0.671585
O O3 0.883777 0.279588 0.942453
O O4 0.980211 0.395335 0.028519
O O5 0.728494 0.511897 0.686603
O O6 0.763693 0.401283 0.486047
O O7 0.678189 0.356423 0.703816
O O8 0.903547 0.872143 0.421018
O O9 0.000000 0.890746 0.750000
O O10 0.049822 0.858296 0.457908
O O11 0.000000 0.000000 0.500000
O O12 0.866374 0.417956 0.304166
O O13 0.915589 0.279281 0.390391
O O14 0.262250 0.667395 0.846294
O O15 0.841578 0.219293 0.621937
#
# Coordination Sequence:
#
# PCOD9265218 Si02
#       7
#     8   8   8   8   8   8   8
#     4   9  17  33  59  85 108 141 189 234 273 324
#     4  10  21  35  55  83 113 147 187 229 275 329
#     4  12  24  36  54  82 115 148 183 222 275 334
#     4   9  17  33  59  85 108 141 189 234 273 324
#     4  10  21  35  55  83 113 147 187 229 275 329
#     4  10  19  36  59  82 109 143 186 232 277 325
#     4  10  19  36  59  82 109 143 186 232 277 325
#
# _framework density 26.560244000000001
#
# number of rings (size 3 to 8) (size 9 to 14) (size 15 to 20)
#    0.000    2.000    1.429    3.000    0.000    7.429 
#    0.000    1.429    0.000    3.429    0.000    0.000 
#    0.000    0.000    0.000    0.000    0.000    0.000 
#
# Total GULP energy -156602.062790 kJ/mol
# GULP energy per Si atom -5592.930814 kJ/mol
# Density = 2.649979 g / cm^3
# Si number density = 26.560244 Si / 1000 Ang^3
#
#
#
# Elastic Constant Matrix: (Units=GPa)
#
#
# Indices 1 2 3 4 5 6 
#
# 1 106.4252 -4.8630 19.8648 0.0000 30.4147 0.0000
# 2 -4.8630 74.7013 -12.1407 0.0000 15.3490 0.0000
# 3 19.8648 -12.1407 105.5700 0.0000 7.9647 0.0000
# 4 0.0000 0.0000 0.0000 23.0635 0.0000 18.4861
# 5 30.4147 15.3490 7.9647 0.0000 44.5156 0.0000
# 6 0.0000 0.0000 0.0000 18.4861 0.0000 29.2655
#
#
#
# Elastic Compliance Matrix: (Units=1/GPa)
#
#
# Indices 1 2 3 4 5 6 
#
# 1 0.012342 0.002438 -0.001361 0.000000 -0.009030 0.000000
# 2 0.002438 0.015344 0.001856 0.000000 -0.007288 0.000000
# 3 -0.001361 0.001856 0.010056 0.000000 -0.001509 0.000000
# 4 0.000000 0.000000 0.000000 0.087824 0.000000 -0.055476
# 5 -0.009030 -0.007288 -0.001509 0.000000 0.031417 0.000000
# 6 0.000000 0.000000 0.000000 -0.055476 0.000000 0.069212
#
#
# Mechanical properties :
#
#
# Convention : Reuss Voigt Hill
#
# Bulk Modulus (GPa) = 22.93171 32.49097 27.71134
# Shear Modulus (GPa) = 21.28871 38.29125 29.78998
#
# Velocity S-wave (km/s) = 2.83419 3.80106 3.35266
# Velocity P-wave (km/s) = 4.40032 5.61458 5.04412
#
# Compressibility (1/GPa) = 0.04360773
#
# Stress axis : x y z
#
# Youngs Moduli (GPa) = 81.02283 65.16994 99.44562
#
# Poissons Ratio (x) = -0.15886 0.13533
# Poissons Ratio (y) = -0.19750 -0.18455
# Poissons Ratio (z) = 0.11026 -0.12094
#
# Static dielectric constant tensor:
#      x y z
#    x 2.101920 0.000000 -0.082560 
#    y 0.000000 2.037120 0.000000 
#    z -0.082560 0.000000 2.176190 
# 
# From -- ./inp_files/49183.got.cif
#   From: 2010.05.17/outbox.cif.g08.bks.cpg/sg15_25_cif.got.tgz:49183.got - 2010.06.03 18:47:42.
