data_PCOD9265450
_publ_section_title
;
Structure prediction by ZEFSAII (Michael W. Deem and Ramdas Pophale) SiO2 
 PCOD9265450
Probable space group: C 2/C
;
_chemical_formula_sum "Si O2"
_cell_formula_units_Z 60
_cell_length_a 28.378003
_cell_length_b 13.366066
_cell_length_c 8.799436
_cell_angle_alpha 90.000000
_cell_angle_beta 110.398242
_cell_angle_gamma 90.000000
_cell_volume 3128.351151
_symmetry_space_group_name_H-M "C 2/C"
_symmetry_group_IT_number 15
_symmetry_cell_setting 'monoclinic'
loop_
_space_group_symop_operation_xyz
x,y,z
-x,y,1/2-z
-x,-y,-z
x,-y,1/2+z
1/2+x,1/2+y,z
1/2-x,1/2+y,1/2-z
1/2-x,1/2-y,-z
1/2+x,1/2-y,1/2+z
loop_
_atom_site_type_symbol
_atom_site_label
_atom_site_fract_x
_atom_site_fract_y
_atom_site_fract_z
Si Si1 0.399744 0.133398 0.586673
Si Si2 0.320848 0.609419 0.781060
Si Si3 0.211311 0.470353 0.088510
Si Si4 0.000000 0.247510 0.250000
Si Si5 0.457053 0.578619 0.402405
Si Si6 0.797887 0.708967 0.461780
Si Si7 0.885164 0.969973 0.082308
Si Si8 0.358970 0.028733 0.249580
O O1 0.452304 0.186382 0.654903
O O2 0.354276 0.204386 0.595261
O O3 0.385898 0.101486 0.398371
O O4 0.396218 0.033298 0.684245
O O5 0.266871 0.564156 0.680362
O O6 0.307944 0.719071 0.829824
O O7 0.354871 0.597631 0.668908
O O8 0.348320 0.543667 0.944468
O O9 0.212639 0.591643 0.078374
O O10 0.173532 0.451650 0.184732
O O11 0.183729 0.426777 0.909491
O O12 0.984130 0.177031 0.372222
O O13 0.500000 0.500000 0.500000
O O14 0.424097 0.534894 0.226216
O O15 0.418393 0.590558 0.498102
O O16 0.750000 0.750000 0.500000
#
# Coordination Sequence:
#
# PCOD9265450 Si02
#       8
#     8   8   8   4   8   8   8   8
#     4  10  22  40  64  91 116 164 205 262 317 373
#     4  11  20  36  59  92 129 158 215 263 305 381
#     4  10  19  36  61  86 118 171 196 247 325 369
#     4  12  24  38  68  92 122 156 226 258 310 398
#     4  11  21  41  62  81 119 172 206 249 323 371
#     4  10  20  35  60  87 122 160 207 252 301 380
#     4  10  22  35  60  87 120 168 205 258 320 370
#     4   8  18  39  61  81 121 155 204 244 322 374
#
# _framework density 19.179433
#
# number of rings (size 3 to 8) (size 9 to 14) (size 15 to 20)
#    0.000    2.133    1.333    4.000    1.867    1.600 
#    0.000   11.333    0.000    0.000    0.000    0.000 
#    0.000    0.000    0.000    0.000    0.000    0.000 
#
# Total GULP energy -167227.793224 kJ/mol
# GULP energy per Si atom -5574.259774 kJ/mol
# Density = 1.913578 g / cm^3
# Si number density = 19.179433 Si / 1000 Ang^3
#
#
#
# Elastic Constant Matrix: (Units=GPa)
#
#
# Indices 1 2 3 4 5 6 
#
# 1 141.6301 66.1529 74.0775 0.0000 19.3579 0.0000
# 2 66.1529 81.4454 40.1627 0.0000 6.6125 0.0000
# 3 74.0775 40.1627 131.8952 0.0000 8.2201 0.0000
# 4 0.0000 0.0000 0.0000 26.2326 0.0000 1.1412
# 5 19.3579 6.6125 8.2201 0.0000 42.0673 0.0000
# 6 0.0000 0.0000 0.0000 1.1412 0.0000 33.5227
#
#
#
# Elastic Compliance Matrix: (Units=1/GPa)
#
#
# Indices 1 2 3 4 5 6 
#
# 1 0.014495 -0.008876 -0.005172 0.000000 -0.004264 0.000000
# 2 -0.008876 0.019969 -0.001168 0.000000 0.001174 0.000000
# 3 -0.005172 -0.001168 0.010814 0.000000 0.000451 0.000000
# 4 0.000000 0.000000 0.000000 0.038177 0.000000 -0.001300
# 5 -0.004264 0.001174 0.000451 0.000000 0.025461 0.000000
# 6 0.000000 0.000000 0.000000 -0.001300 0.000000 0.029875
#
#
# Mechanical properties :
#
#
# Convention : Reuss Voigt Hill
#
# Bulk Modulus (GPa) = 67.36772 79.52853 73.44813
# Shear Modulus (GPa) = 28.70720 32.00303 30.35512
#
# Velocity S-wave (km/s) = 3.87301 4.08930 3.98262
# Velocity P-wave (km/s) = 7.42977 7.99074 7.71536
#
# Compressibility (1/GPa) = 0.01484390
#
# Stress axis : x y z
#
# Youngs Moduli (GPa) = 68.99098 50.07827 92.46969
#
# Poissons Ratio (x) = 0.44451 0.47826
# Poissons Ratio (y) = 0.61239 0.10804
# Poissons Ratio (z) = 0.35683 0.05851
#
# Static dielectric constant tensor:
#      x y z
#    x 1.686290 0.000000 -0.032450 
#    y 0.000000 1.687290 0.000000 
#    z -0.032450 0.000000 1.739890 
# 
# From -- ./inp_files/69400.got.cif
#   From: 2010.05.17/outbox.cif.g08.bks.cpg/sg15_35_cif.got.tgz:69400.got - 2010.06.03 18:47:42.
