data_PCOD9265156
_publ_section_title
;
Structure prediction by ZEFSAII (Michael W. Deem and Ramdas Pophale) SiO2 
 PCOD9265156
Probable space group: C 2/C
;
_chemical_formula_sum "Si O2"
_cell_formula_units_Z 64
_cell_length_a 22.184364
_cell_length_b 8.636028
_cell_length_c 14.067258
_cell_angle_alpha 90.000000
_cell_angle_beta 67.505570
_cell_angle_gamma 90.000000
_cell_volume 2490.022713
_symmetry_space_group_name_H-M "C 2/C"
_symmetry_group_IT_number 15
_symmetry_cell_setting 'monoclinic'
loop_
_space_group_symop_operation_xyz
x,y,z
-x,y,1/2-z
-x,-y,-z
x,-y,1/2+z
1/2+x,1/2+y,z
1/2-x,1/2+y,1/2-z
1/2-x,1/2-y,-z
1/2+x,1/2-y,1/2+z
loop_
_atom_site_type_symbol
_atom_site_label
_atom_site_fract_x
_atom_site_fract_y
_atom_site_fract_z
Si Si1 0.075682 0.377374 0.890233
Si Si2 0.419229 0.100518 0.770211
Si Si3 0.782350 0.665651 0.796303
Si Si4 0.340056 0.144120 0.560235
Si Si5 0.286655 0.535312 0.412894
Si Si6 0.394634 0.456091 0.481026
Si Si7 0.850166 0.072185 0.692711
Si Si8 0.514556 0.274248 0.601344
O O1 0.051958 0.455681 0.806452
O O2 0.112460 0.509532 0.929394
O O3 0.128369 0.249396 0.830230
O O4 0.023317 0.292255 0.989658
O O5 0.342313 0.081321 0.810852
O O6 0.444635 0.243440 0.689555
O O7 0.441115 0.158527 0.859588
O O8 0.809899 0.716288 0.676080
O O9 0.722944 0.559399 0.803461
O O10 0.764857 0.805205 0.876995
O O11 0.276990 0.073053 0.544679
O O12 0.378851 0.275057 0.478468
O O13 0.329999 0.544542 0.480753
O O14 0.341825 0.472645 0.306217
O O15 0.397426 0.484085 0.592509
O O16 0.456184 0.553657 0.406121
#
# Coordination Sequence:
#
# PCOD9265156 Si02
#       8
#     8   8   8   8   8   8   8   8
#     4  10  21  38  62  86 119 157 200 251 305 351
#     4  10  21  39  63  84 119 161 205 246 297 352
#     4  10  19  36  58  85 119 160 191 241 307 357
#     4  10  21  35  56  89 123 153 193 249 303 364
#     4  11  20  35  58  87 124 158 192 242 310 359
#     4  11  22  37  59  89 121 157 203 248 300 362
#     4  10  22  37  59  90 124 153 199 247 301 375
#     4  10  22  39  62  87 117 160 209 251 288 358
#
# _framework density 25.702577000000002
#
# number of rings (size 3 to 8) (size 9 to 14) (size 15 to 20)
#    0.000    1.750    3.750    0.750    0.000    2.500 
#    0.000    2.500    2.750    1.500    0.000    0.000 
#    0.000    0.000    0.000    0.000    0.000    0.000 
#
# Total GULP energy -178823.179499 kJ/mol
# GULP energy per Si atom -5588.224359 kJ/mol
# Density = 2.564408 g / cm^3
# Si number density = 25.702577 Si / 1000 Ang^3
#
#
#
# Elastic Constant Matrix: (Units=GPa)
#
#
# Indices 1 2 3 4 5 6 
#
# 1 68.8588 -6.7953 -0.1571 0.0000 4.5723 0.0000
# 2 -6.7953 72.9012 15.8875 0.0000 -10.1810 0.0000
# 3 -0.1571 15.8875 98.7821 0.0000 2.1070 0.0000
# 4 0.0000 0.0000 0.0000 36.6126 0.0000 -5.5771
# 5 4.5723 -10.1810 2.1070 0.0000 29.5835 0.0000
# 6 0.0000 0.0000 0.0000 -5.5771 0.0000 20.9544
#
#
#
# Elastic Compliance Matrix: (Units=1/GPa)
#
#
# Indices 1 2 3 4 5 6 
#
# 1 0.014759 0.001139 -0.000120 0.000000 -0.001881 0.000000
# 2 0.001139 0.015103 -0.002538 0.000000 0.005202 0.000000
# 3 -0.000120 -0.002538 0.010566 0.000000 -0.001608 0.000000
# 4 0.000000 0.000000 0.000000 0.028467 0.000000 0.007577
# 5 -0.001881 0.005202 -0.001608 0.000000 0.035998 0.000000
# 6 0.000000 0.000000 0.000000 0.007577 0.000000 0.049739
#
#
# Mechanical properties :
#
#
# Convention : Reuss Voigt Hill
#
# Bulk Modulus (GPa) = 26.74451 28.71249 27.72850
# Shear Modulus (GPa) = 29.38866 32.87058 31.12962
#
# Velocity S-wave (km/s) = 3.38511 3.58003 3.48393
# Velocity P-wave (km/s) = 5.07017 5.31828 5.19570
#
# Compressibility (1/GPa) = 0.03739085
#
# Stress axis : x y z
#
# Youngs Moduli (GPa) = 67.75302 66.21164 94.64654
#
# Poissons Ratio (x) = -0.07543 0.01132
# Poissons Ratio (y) = -0.07718 0.24024
# Poissons Ratio (z) = 0.00811 0.16806
#
# Static dielectric constant tensor:
#      x y z
#    x 2.012800 0.000000 -0.021590 
#    y 0.000000 2.044890 0.000000 
#    z -0.021590 0.000000 2.063490 
# 
# From -- ./inp_files/176578.got.cif
#   From: 2010.05.17/outbox.cif.g08.bks.cpg/sg15_89_cif.got.tgz:176578.got - 2010.06.03 18:47:42.
