data_PCOD9265568
_publ_section_title
;
Structure prediction by ZEFSAII (Michael W. Deem and Ramdas Pophale) SiO2 
 PCOD9265568
Probable space group: C 2/C
;
_chemical_formula_sum "Si O2"
_cell_formula_units_Z 48
_cell_length_a 27.919572
_cell_length_b 15.453933
_cell_length_c 8.137784
_cell_angle_alpha 90.000000
_cell_angle_beta 38.724561
_cell_angle_gamma 90.000000
_cell_volume 2196.518241
_symmetry_space_group_name_H-M "C 2/C"
_symmetry_group_IT_number 15
_symmetry_cell_setting 'monoclinic'
loop_
_space_group_symop_operation_xyz
x,y,z
-x,y,1/2-z
-x,-y,-z
x,-y,1/2+z
1/2+x,1/2+y,z
1/2-x,1/2+y,1/2-z
1/2-x,1/2-y,-z
1/2+x,1/2-y,1/2+z
loop_
_atom_site_type_symbol
_atom_site_label
_atom_site_fract_x
_atom_site_fract_y
_atom_site_fract_z
Si Si1 0.917401 0.899244 0.262769
Si Si2 0.912471 0.604891 0.543459
Si Si3 0.315988 0.749622 0.461934
Si Si4 0.255771 0.376782 0.603834
Si Si5 0.585174 0.401540 0.835707
Si Si6 0.320034 0.970209 0.995201
O O1 0.845440 0.856099 0.368916
O O2 0.910040 0.894857 0.479549
O O3 0.912774 0.999146 0.220971
O O4 0.002675 0.866963 0.996289
O O5 0.886035 0.693598 0.700411
O O6 0.888964 0.526066 0.727843
O O7 0.856551 0.587562 0.539330
O O8 0.000000 0.605013 0.250000
O O9 0.250000 0.750000 0.500000
O O10 0.287541 0.796354 0.701137
O O11 0.345381 0.653947 0.416721
O O12 0.221628 0.411546 0.526901
O O13 0.237721 0.457374 0.777461
#
# Coordination Sequence:
#
# PCOD9265568 Si02
#       6
#     8   8   8   8   8   8
#     4  10  20  37  63  86 114 159 199 247 295 367
#     4  10  21  37  63  85 119 157 194 248 303 361
#     4  11  23  38  57  88 120 160 195 254 305 353
#     4  10  19  36  62  88 122 154 196 250 303 358
#     4  10  22  38  61  88 117 154 209 247 301 356
#     4   9  20  36  60  93 115 156 204 240 295 376
#
# _framework density 21.852765999999999
#
# number of rings (size 3 to 8) (size 9 to 14) (size 15 to 20)
#    0.000    2.000    1.667    1.500    7.000    0.000 
#    0.000    2.500    7.333    0.000    0.000    0.000 
#    0.000    0.000    0.000    0.000    0.000    0.000 
#
# Total GULP energy -134267.427881 kJ/mol
# GULP energy per Si atom -5594.476162 kJ/mol
# Density = 2.180303 g / cm^3
# Si number density = 21.852766 Si / 1000 Ang^3
#
#
#
# Elastic Constant Matrix: (Units=GPa)
#
#
# Indices 1 2 3 4 5 6 
#
# 1 48.6241 14.9397 5.5417 0.0000 -8.7963 0.0000
# 2 14.9397 43.8212 2.9995 0.0000 -2.7962 0.0000
# 3 5.5417 2.9995 68.7578 0.0000 -22.5032 0.0000
# 4 0.0000 0.0000 0.0000 133.1460 0.0000 130.7961
# 5 -8.7963 -2.7962 -22.5032 0.0000 35.4323 0.0000
# 6 0.0000 0.0000 0.0000 130.7961 0.0000 184.7914
#
#
#
# Elastic Compliance Matrix: (Units=1/GPa)
#
#
# Indices 1 2 3 4 5 6 
#
# 1 0.023934 -0.007825 0.000195 0.000000 0.005448 0.000000
# 2 -0.007825 0.025509 -0.000579 0.000000 -0.000298 0.000000
# 3 0.000195 -0.000579 0.018373 0.000000 0.011672 0.000000
# 4 0.000000 0.000000 0.000000 0.024650 0.000000 -0.017447
# 5 0.005448 -0.000298 0.011672 0.000000 0.036965 0.000000
# 6 0.000000 0.000000 0.000000 -0.017447 0.000000 0.017761
#
#
# Mechanical properties :
#
#
# Convention : Reuss Voigt Hill
#
# Bulk Modulus (GPa) = 19.45643 23.12942 21.29293
# Shear Modulus (GPa) = 27.66379 79.85542 53.75961
#
# Velocity S-wave (km/s) = 3.56183 6.05160 4.96530
# Velocity P-wave (km/s) = 5.08314 7.70949 6.52972
#
# Compressibility (1/GPa) = 0.05139688
#
# Stress axis : x y z
#
# Youngs Moduli (GPa) = 41.78233 39.20260 54.42680
#
# Poissons Ratio (x) = 0.30677 -0.01064
# Poissons Ratio (y) = 0.32696 0.03154
# Poissons Ratio (z) = -0.00817 0.02272
#
# Static dielectric constant tensor:
#      x y z
#    x 1.763050 0.000000 0.005720 
#    y 0.000000 1.812470 0.000000 
#    z 0.005720 0.000000 1.834750 
# 
# From -- ./inp_files/66392.got.cif
#   From: 2010.05.17/outbox.cif.g08.bks.cpg/sg15_34_cif.got.tgz:66392.got - 2010.06.03 18:47:42.
