data_PCOD9265720
_publ_section_title
;
Structure prediction by ZEFSAII (Michael W. Deem and Ramdas Pophale) SiO2 
 PCOD9265720
Probable space group: C 2/C
;
_chemical_formula_sum "Si O2"
_cell_formula_units_Z 40
_cell_length_a 11.576883
_cell_length_b 16.698756
_cell_length_c 8.842841
_cell_angle_alpha 90.000000
_cell_angle_beta 85.693674
_cell_angle_gamma 90.000000
_cell_volume 1704.667834
_symmetry_space_group_name_H-M "C 2/C"
_symmetry_group_IT_number 15
_symmetry_cell_setting 'monoclinic'
loop_
_space_group_symop_operation_xyz
x,y,z
-x,y,1/2-z
-x,-y,-z
x,-y,1/2+z
1/2+x,1/2+y,z
1/2-x,1/2+y,1/2-z
1/2-x,1/2-y,-z
1/2+x,1/2-y,1/2+z
loop_
_atom_site_type_symbol
_atom_site_label
_atom_site_fract_x
_atom_site_fract_y
_atom_site_fract_z
Si Si1 0.037297 0.084865 0.072022
Si Si2 0.829125 0.828186 0.487870
Si Si3 0.815255 0.400721 0.216560
Si Si4 0.270389 0.089205 0.202602
Si Si5 0.028780 0.404398 0.008417
O O1 0.965702 0.158733 0.006440
O O2 0.000000 0.077478 0.250000
O O3 0.174575 0.099712 0.079055
O O4 0.000000 0.000000 0.000000
O O5 0.750000 0.750000 0.500000
O O6 0.803984 0.861908 0.322644
O O7 0.777206 0.879911 0.633848
O O8 0.791853 0.494852 0.213332
O O9 0.883254 0.386568 0.363172
O O10 0.906129 0.372547 0.076933
O O11 0.396750 0.122328 0.142943
O O12 0.000000 0.500000 0.000000
#
# Coordination Sequence:
#
# PCOD9265720 Si02
#       5
#     8   8   8   8   8
#     4  10  21  37  65  97 122 166 221 275 331 406
#     4  11  24  41  61  93 136 177 217 283 346 391
#     4  10  19  36  64  92 124 168 216 270 328 400
#     4  10  19  37  66  91 125 164 226 269 328 400
#     4   9  19  34  60  95 120 154 211 273 323 380
#
# _framework density 23.464981999999999
#
# number of rings (size 3 to 8) (size 9 to 14) (size 15 to 20)
#    0.000    2.000    2.000    2.400    2.800    2.400 
#   10.800    1.000    8.800    0.000    0.000    0.000 
#    0.000    0.000    0.000    0.000    0.000    0.000 
#
# Total GULP energy -111407.286806 kJ/mol
# GULP energy per Si atom -5570.364340 kJ/mol
# Density = 2.341158 g / cm^3
# Si number density = 23.464982 Si / 1000 Ang^3
#
#
#
# Elastic Constant Matrix: (Units=GPa)
#
#
# Indices 1 2 3 4 5 6 
#
# 1 112.4449 15.7241 30.0002 0.0000 19.5468 0.0000
# 2 15.7241 56.5306 5.4938 0.0000 18.8726 0.0000
# 3 30.0002 5.4938 50.6328 0.0000 39.2872 0.0000
# 4 0.0000 0.0000 0.0000 15.0774 0.0000 5.8742
# 5 19.5468 18.8726 39.2872 0.0000 56.1694 0.0000
# 6 0.0000 0.0000 0.0000 5.8742 0.0000 28.1580
#
#
#
# Elastic Compliance Matrix: (Units=1/GPa)
#
#
# Indices 1 2 3 4 5 6 
#
# 1 0.011154 -0.003417 -0.009003 0.000000 0.003564 0.000000
# 2 -0.003417 0.022045 0.009747 0.000000 -0.013035 0.000000
# 3 -0.009003 0.009747 0.052783 0.000000 -0.037061 0.000000
# 4 0.000000 0.000000 0.000000 0.072192 0.000000 -0.015060
# 5 0.003564 -0.013035 -0.037061 0.000000 0.046865 0.000000
# 6 0.000000 0.000000 0.000000 -0.015060 0.000000 0.038656
#
#
# Mechanical properties :
#
#
# Convention : Reuss Voigt Hill
#
# Bulk Modulus (GPa) = 12.40156 35.78273 24.09214
# Shear Modulus (GPa) = 18.12132 31.10698 24.61415
#
# Velocity S-wave (km/s) = 2.78199 3.64493 3.24230
# Velocity P-wave (km/s) = 3.95170 5.74427 4.93014
#
# Compressibility (1/GPa) = 0.08063501
#
# Stress axis : x y z
#
# Youngs Moduli (GPa) = 89.65725 45.36269 18.94545
#
# Poissons Ratio (x) = 0.15501 0.17057
# Poissons Ratio (y) = 0.30638 -0.18467
# Poissons Ratio (z) = 0.80719 -0.44216
#
# Static dielectric constant tensor:
#      x y z
#    x 1.950520 0.000000 -0.018720 
#    y 0.000000 1.887570 0.000000 
#    z -0.018720 0.000000 1.861420 
# 
# From -- ./inp_files/30427.got.cif
#   From: 2010.05.17/outbox.cif.g08.bks.cpg/sg15_16_cif.got.tgz:30427.got - 2010.06.03 18:47:42.
