data_PCOD9265789
_publ_section_title
;
Structure prediction by ZEFSAII (Michael W. Deem and Ramdas Pophale) SiO2 
 PCOD9265789
Probable space group: C 2/C
;
_chemical_formula_sum "Si O2"
_cell_formula_units_Z 40
_cell_length_a 21.727435
_cell_length_b 13.375560
_cell_length_c 5.549232
_cell_angle_alpha 90.000000
_cell_angle_beta 82.047632
_cell_angle_gamma 90.000000
_cell_volume 1597.190355
_symmetry_space_group_name_H-M "C 2/C"
_symmetry_group_IT_number 15
_symmetry_cell_setting 'monoclinic'
loop_
_space_group_symop_operation_xyz
x,y,z
-x,y,1/2-z
-x,-y,-z
x,-y,1/2+z
1/2+x,1/2+y,z
1/2-x,1/2+y,1/2-z
1/2-x,1/2-y,-z
1/2+x,1/2-y,1/2+z
loop_
_atom_site_type_symbol
_atom_site_label
_atom_site_fract_x
_atom_site_fract_y
_atom_site_fract_z
Si Si1 0.000000 0.437020 0.250000
Si Si2 0.882728 0.898755 0.567964
Si Si3 0.500000 0.355810 0.250000
Si Si4 0.700131 0.268701 0.235494
Si Si5 0.737480 0.534050 0.862898
Si Si6 0.411400 0.768707 0.445011
O O1 0.058650 0.361591 0.209142
O O2 0.000000 0.500000 0.500000
O O3 0.949635 0.923199 0.418906
O O4 0.850276 0.832550 0.383542
O O5 0.893453 0.824272 0.783684
O O6 0.831172 0.983255 0.641334
O O7 0.536348 0.280390 0.409910
O O8 0.730422 0.347827 0.404157
O O9 0.652433 0.195052 0.391969
O O10 0.750000 0.250000 0.000000
O O11 0.766778 0.515235 0.583636
#
# Coordination Sequence:
#
# PCOD9265789 Si02
#       6
#     4   8   4   8   8   8
#     4  12  27  44  71  98 138 178 230 299 340 409
#     4  10  20  37  69  95 134 174 216 275 336 406
#     4  10  19  36  67 100 128 172 212 267 346 421
#     4  10  23  41  66  97 135 186 226 275 340 408
#     4  10  20  40  62  96 132 171 217 273 326 390
#     4  11  21  42  69  95 134 178 225 276 353 400
#
# _framework density 25.043977000000002
#
# number of rings (size 3 to 8) (size 9 to 14) (size 15 to 20)
#    0.000    1.600    4.000    0.600    2.800    0.800 
#    0.000   14.000    0.000    0.000    0.000    0.000 
#    0.000    0.000    0.000    0.000    0.000    0.000 
#
# Total GULP energy -111680.636355 kJ/mol
# GULP energy per Si atom -5584.031818 kJ/mol
# Density = 2.498698 g / cm^3
# Si number density = 25.043977 Si / 1000 Ang^3
#
#
#
# Elastic Constant Matrix: (Units=GPa)
#
#
# Indices 1 2 3 4 5 6 
#
# 1 69.6689 7.5682 16.6971 0.0000 -8.8052 0.0000
# 2 7.5682 86.9172 25.8512 0.0000 -10.4030 0.0000
# 3 16.6971 25.8512 120.5941 0.0000 -16.0017 0.0000
# 4 0.0000 0.0000 0.0000 55.9310 0.0000 -8.5727
# 5 -8.8052 -10.4030 -16.0017 0.0000 59.1543 0.0000
# 6 0.0000 0.0000 0.0000 -8.5727 0.0000 31.4436
#
#
#
# Elastic Compliance Matrix: (Units=1/GPa)
#
#
# Indices 1 2 3 4 5 6 
#
# 1 0.015044 -0.000595 -0.001735 0.000000 0.001666 0.000000
# 2 -0.000595 0.012442 -0.002392 0.000000 0.001453 0.000000
# 3 -0.001735 -0.002392 0.009289 0.000000 0.001834 0.000000
# 4 0.000000 0.000000 0.000000 0.018659 0.000000 0.005087
# 5 0.001666 0.001453 0.001834 0.000000 0.017904 0.000000
# 6 0.000000 0.000000 0.000000 0.005087 0.000000 0.033190
#
#
# Mechanical properties :
#
#
# Convention : Reuss Voigt Hill
#
# Bulk Modulus (GPa) = 36.58641 41.93479 39.26060
# Shear Modulus (GPa) = 39.97377 44.44335 42.20856
#
# Velocity S-wave (km/s) = 3.99951 4.21718 4.10979
# Velocity P-wave (km/s) = 5.99739 6.36346 6.18314
#
# Compressibility (1/GPa) = 0.02733255
#
# Stress axis : x y z
#
# Youngs Moduli (GPa) = 66.46981 80.37089 107.65951
#
# Poissons Ratio (x) = 0.04780 0.18674
# Poissons Ratio (y) = 0.03953 0.25754
# Poissons Ratio (z) = 0.11529 0.19226
#
# Static dielectric constant tensor:
#      x y z
#    x 2.035650 0.000000 -0.144610 
#    y 0.000000 2.007400 0.000000 
#    z -0.144610 0.000000 2.395790 
# 
# From -- ./inp_files/15007.got.cif
#   From: 2010.05.17/outbox.cif.g08.bks.cpg/sg15_8_cif.got.tgz:15007.got - 2010.06.03 18:47:42.
