data_PCOD9265627
_publ_section_title
;
Structure prediction by ZEFSAII (Michael W. Deem and Ramdas Pophale) SiO2 
 PCOD9265627
Probable space group: C 2/C
;
_chemical_formula_sum "Si O2"
_cell_formula_units_Z 48
_cell_length_a 8.479638
_cell_length_b 17.773460
_cell_length_c 21.567461
_cell_angle_alpha 90.000000
_cell_angle_beta 53.860603
_cell_angle_gamma 90.000000
_cell_volume 2625.042388
_symmetry_space_group_name_H-M "C 2/C"
_symmetry_group_IT_number 15
_symmetry_cell_setting 'monoclinic'
loop_
_space_group_symop_operation_xyz
x,y,z
-x,y,1/2-z
-x,-y,-z
x,-y,1/2+z
1/2+x,1/2+y,z
1/2-x,1/2+y,1/2-z
1/2-x,1/2-y,-z
1/2+x,1/2-y,1/2+z
loop_
_atom_site_type_symbol
_atom_site_label
_atom_site_fract_x
_atom_site_fract_y
_atom_site_fract_z
Si Si1 0.706158 0.173710 0.684472
Si Si2 0.490427 0.576290 0.684472
Si Si3 0.920658 0.710045 0.921661
Si Si4 0.641071 0.039637 0.276396
Si Si5 0.935641 0.460045 0.078339
Si Si6 0.720259 0.789637 0.723604
O O1 0.500000 0.134090 0.750000
O O2 0.896971 0.125000 0.652020
O O3 0.677667 0.200012 0.622351
O O4 0.729059 0.239604 0.728709
O O5 0.500000 0.615910 0.750000
O O6 0.334815 0.510396 0.728709
O O7 0.705281 0.549988 0.622351
O O8 0.978949 0.625000 0.930701
O O9 0.115619 0.761933 0.864762
O O10 0.750000 0.750000 0.000000
O O11 0.500000 0.028162 0.250000
O O12 0.715959 0.125000 0.250000
O O13 0.540094 0.011933 0.364762
O O14 0.000000 0.500000 0.000000
O O15 0.500000 0.778162 0.750000
#
# Coordination Sequence:
#
# PCOD9265627 Si02
#       6
#     8   8   8   8   8   8
#     4  10  19  36  63  84 116 157 211 257 316 384
#     4  10  19  36  63  84 116 157 211 257 316 384
#     4  11  25  41  62  93 135 167 214 272 335 393
#     4  10  21  39  66  92 124 167 224 266 322 395
#     4  11  25  41  62  93 135 167 214 272 335 393
#     4  10  21  39  66  92 124 167 224 266 322 395
#
# _framework density 18.285419999999998
#
# number of rings (size 3 to 8) (size 9 to 14) (size 15 to 20)
#    0.000    1.667    0.000    7.000    4.667    4.667 
#    6.000    3.333    0.000    0.000    0.000    0.000 
#    0.000    0.000    0.000    0.000    0.000    0.000 
#
# Total GULP energy -133613.727820 kJ/mol
# GULP energy per Si atom -5567.238659 kJ/mol
# Density = 1.824380 g / cm^3
# Si number density = 18.285420 Si / 1000 Ang^3
#
#
#
# Elastic Constant Matrix: (Units=GPa)
#
#
# Indices 1 2 3 4 5 6 
#
# 1 121.1674 24.6399 54.9933 0.0000 0.0008 0.0000
# 2 24.6399 119.6090 49.1339 0.0000 -0.0012 0.0000
# 3 54.9933 49.1339 155.5441 0.0000 -0.0025 0.0000
# 4 0.0000 0.0000 0.0000 13.7743 0.0000 0.0001
# 5 0.0008 -0.0012 -0.0025 0.0000 22.9300 0.0000
# 6 0.0000 0.0000 0.0000 0.0001 0.0000 18.3659
#
#
#
# Elastic Compliance Matrix: (Units=1/GPa)
#
#
# Indices 1 2 3 4 5 6 
#
# 1 0.009880 -0.000690 -0.003275 0.000000 -0.000001 0.000000
# 2 -0.000690 0.009655 -0.002806 0.000000 0.000000 0.000000
# 3 -0.003275 -0.002806 0.008473 0.000000 0.000001 0.000000
# 4 0.000000 0.000000 0.000000 0.072599 0.000000 0.000000
# 5 -0.000001 0.000000 0.000001 0.000000 0.043611 0.000000
# 6 0.000000 0.000000 0.000000 0.000000 0.000000 0.054449
#
#
# Mechanical properties :
#
#
# Convention : Reuss Voigt Hill
#
# Bulk Modulus (GPa) = 69.12575 72.65053 70.88814
# Shear Modulus (GPa) = 23.03814 28.85094 25.94454
#
# Velocity S-wave (km/s) = 3.55338 3.97648 3.77087
# Velocity P-wave (km/s) = 7.39738 7.80390 7.60335
#
# Compressibility (1/GPa) = 0.01446639
#
# Stress axis : x y z
#
# Youngs Moduli (GPa) = 101.21673 103.56902 118.01686
#
# Poissons Ratio (x) = 0.07145 0.38652
# Poissons Ratio (y) = 0.06983 0.33116
# Poissons Ratio (z) = 0.33150 0.29062
#
# Static dielectric constant tensor:
#      x y z
#    x 1.625930 0.000000 0.000000 
#    y 0.000000 1.743390 0.000000 
#    z 0.000000 0.000000 1.609790 
# 
# From -- ./inp_files/232479.got.cif
#   From: 2010.05.17/outbox.cif.g08.bks.cpg/sg15_117_cif.got.tgz:232479.got - 2010.06.03 18:47:42.
