data_PCOD9265051
_publ_section_title
;
Structure prediction by ZEFSAII (Michael W. Deem and Ramdas Pophale) SiO2 
 PCOD9265051
Probable space group: C 2/C
;
_chemical_formula_sum "Si O2"
_cell_formula_units_Z 48
_cell_length_a 14.011664
_cell_length_b 8.137379
_cell_length_c 18.626571
_cell_angle_alpha 90.000000
_cell_angle_beta 112.792507
_cell_angle_gamma 90.000000
_cell_volume 1957.931514
_symmetry_space_group_name_H-M "C 2/C"
_symmetry_group_IT_number 15
_symmetry_cell_setting 'monoclinic'
loop_
_space_group_symop_operation_xyz
x,y,z
-x,y,1/2-z
-x,-y,-z
x,-y,1/2+z
1/2+x,1/2+y,z
1/2-x,1/2+y,1/2-z
1/2-x,1/2-y,-z
1/2+x,1/2-y,1/2+z
loop_
_atom_site_type_symbol
_atom_site_label
_atom_site_fract_x
_atom_site_fract_y
_atom_site_fract_z
Si Si1 0.857143 0.069284 0.532429
Si Si2 0.901342 0.701078 0.176423
Si Si3 0.401546 0.536149 0.901824
Si Si4 0.258793 0.402161 0.227536
Si Si5 0.718729 0.856864 0.584658
Si Si6 0.399182 0.169423 0.696275
O O1 0.851530 0.088726 0.445077
O O2 0.752795 0.974061 0.528238
O O3 0.873555 0.217230 0.592752
O O4 0.976582 0.998214 0.571196
O O5 0.924231 0.509949 0.173356
O O6 0.000000 0.769921 0.250000
O O7 0.808386 0.745996 0.202563
O O8 0.345375 0.535330 0.809115
O O9 0.371060 0.718610 0.928859
O O10 0.222800 0.528815 0.156319
O O11 0.164179 0.356680 0.249757
O O12 0.825561 0.756417 0.619894
O O13 0.500000 0.265254 0.750000
#
# Coordination Sequence:
#
# PCOD9265051 Si02
#       6
#     8   8   8   8   8   8
#     4  10  21  36  63  84 115 162 197 246 296 370
#     4  10  19  36  57  83 113 151 197 236 294 354
#     4  10  20  37  59  89 119 149 204 246 304 351
#     4  10  20  36  58  85 111 152 199 245 288 359
#     4  10  22  36  59  89 117 151 202 252 291 363
#     4  10  21  32  54  84 119 145 186 251 301 339
#
# _framework density 24.515666
#
# number of rings (size 3 to 8) (size 9 to 14) (size 15 to 20)
#    0.000    2.000    1.667    2.500    4.667    0.000 
#    0.000    3.333    0.000   10.000    0.000    0.000 
#    0.000    0.000    0.000    0.000    0.000    0.000 
#
# Total GULP energy -133861.085054 kJ/mol
# GULP energy per Si atom -5577.545211 kJ/mol
# Density = 2.445987 g / cm^3
# Si number density = 24.515666 Si / 1000 Ang^3
#
#
#
# Elastic Constant Matrix: (Units=GPa)
#
#
# Indices 1 2 3 4 5 6 
#
# 1 76.6706 8.0436 17.7640 0.0000 0.7836 0.0000
# 2 8.0436 41.8819 3.1625 0.0000 5.6326 0.0000
# 3 17.7640 3.1625 78.7789 0.0000 -7.2255 0.0000
# 4 0.0000 0.0000 0.0000 7.7251 0.0000 2.4647
# 5 0.7836 5.6326 -7.2255 0.0000 41.3317 0.0000
# 6 0.0000 0.0000 0.0000 2.4647 0.0000 23.5540
#
#
#
# Elastic Compliance Matrix: (Units=1/GPa)
#
#
# Indices 1 2 3 4 5 6 
#
# 1 0.014019 -0.002393 -0.003109 0.000000 -0.000483 0.000000
# 2 -0.002393 0.024863 -0.000778 0.000000 -0.003479 0.000000
# 3 -0.003109 -0.000778 0.013660 0.000000 0.002553 0.000000
# 4 0.000000 0.000000 0.000000 0.133919 0.000000 -0.014013
# 5 -0.000483 -0.003479 0.002553 0.000000 0.025124 0.000000
# 6 0.000000 0.000000 0.000000 -0.014013 0.000000 0.043922
#
#
# Mechanical properties :
#
#
# Convention : Reuss Voigt Hill
#
# Bulk Modulus (GPa) = 25.01084 28.36352 26.68718
# Shear Modulus (GPa) = 17.76863 25.74625 21.75744
#
# Velocity S-wave (km/s) = 2.69511 3.24419 2.98231
# Velocity P-wave (km/s) = 4.46194 5.06238 4.77161
#
# Compressibility (1/GPa) = 0.03998266
#
# Stress axis : x y z
#
# Youngs Moduli (GPa) = 71.33068 40.22081 73.20486
#
# Poissons Ratio (x) = 0.09623 0.22763
# Poissons Ratio (y) = 0.17067 0.05693
# Poissons Ratio (z) = 0.22180 0.03128
#
# Static dielectric constant tensor:
#      x y z
#    x 1.954440 0.000000 0.019350 
#    y 0.000000 2.058450 0.000000 
#    z 0.019350 0.000000 2.040470 
# 
# From -- ./inp_files/242315.got.cif
#   From: 2010.05.17/outbox.cif.g08.bks.cpg/sg15_122_cif.got.tgz:242315.got - 2010.06.03 18:47:42.
