data_PCOD9265248
_publ_section_title
;
Structure prediction by ZEFSAII (Michael W. Deem and Ramdas Pophale) SiO2 
 PCOD9265248
Probable space group: C 2/C
;
_chemical_formula_sum "Si O2"
_cell_formula_units_Z 56
_cell_length_a 23.144069
_cell_length_b 7.797370
_cell_length_c 13.935782
_cell_angle_alpha 90.000000
_cell_angle_beta 79.500667
_cell_angle_gamma 90.000000
_cell_volume 2472.784455
_symmetry_space_group_name_H-M "C 2/C"
_symmetry_group_IT_number 15
_symmetry_cell_setting 'monoclinic'
loop_
_space_group_symop_operation_xyz
x,y,z
-x,y,1/2-z
-x,-y,-z
x,-y,1/2+z
1/2+x,1/2+y,z
1/2-x,1/2+y,1/2-z
1/2-x,1/2-y,-z
1/2+x,1/2-y,1/2+z
loop_
_atom_site_type_symbol
_atom_site_label
_atom_site_fract_x
_atom_site_fract_y
_atom_site_fract_z
Si Si1 0.269350 0.904382 0.561611
Si Si2 0.342122 0.924528 0.883259
Si Si3 0.425063 0.607657 0.628201
Si Si4 0.126219 0.458733 0.827721
Si Si5 0.950509 0.998247 0.914368
Si Si6 0.557279 0.112161 0.006077
Si Si7 0.154058 0.033575 0.692399
O O1 0.250000 0.750000 0.500000
O O2 0.323840 0.880767 0.617467
O O3 0.291087 0.041762 0.475364
O O4 0.214089 0.947879 0.644360
O O5 0.345609 0.020345 0.780197
O O6 0.401954 0.967128 0.922640
O O7 0.339734 0.728801 0.848158
O O8 0.421351 0.802890 0.670382
O O9 0.482010 0.494791 0.640023
O O10 0.431299 0.613711 0.511749
O O11 0.365866 0.529003 0.691042
O O12 0.095177 0.606786 0.897326
O O13 0.949829 0.194016 0.955648
O O14 0.902409 0.967466 0.848851
O O15 0.500000 0.000000 0.000000
#
# Coordination Sequence:
#
# PCOD9265248 Si02
#       7
#     8   8   8   8   8   8   8
#     4  11  23  38  58  85 121 152 192 254 293 336
#     4   9  22  38  58  84 112 156 200 236 285 361
#     4  10  20  36  58  85 112 151 191 236 292 345
#     4  10  21  38  59  85 118 153 199 235 291 353
#     4  10  20  35  59  84 116 148 189 240 288 344
#     4  10  19  36  59  85 117 150 188 240 292 347
#     4  10  21  38  58  82 111 154 198 231 287 351
#
# _framework density 22.646536999999999
#
# number of rings (size 3 to 8) (size 9 to 14) (size 15 to 20)
#    0.000    2.000    1.429    1.714    0.000    5.143 
#    0.000    1.429    6.286    0.000    0.000    0.000 
#    0.000    0.000    0.000    0.000    0.000    0.000 
#
# Total GULP energy -156139.363306 kJ/mol
# GULP energy per Si atom -5576.405832 kJ/mol
# Density = 2.259499 g / cm^3
# Si number density = 22.646537 Si / 1000 Ang^3
#
#
#
# Elastic Constant Matrix: (Units=GPa)
#
#
# Indices 1 2 3 4 5 6 
#
# 1 82.5601 15.6303 27.1207 0.0000 -22.5320 0.0000
# 2 15.6303 25.0472 10.1465 0.0000 -9.8112 0.0000
# 3 27.1207 10.1465 126.4944 0.0000 -30.7200 0.0000
# 4 0.0000 0.0000 0.0000 30.2662 0.0000 -3.3046
# 5 -22.5320 -9.8112 -30.7200 0.0000 40.7174 0.0000
# 6 0.0000 0.0000 0.0000 -3.3046 0.0000 23.2978
#
#
#
# Elastic Compliance Matrix: (Units=1/GPa)
#
#
# Indices 1 2 3 4 5 6 
#
# 1 0.015447 -0.006786 -0.001333 0.000000 0.005907 0.000000
# 2 -0.006786 0.047209 -0.000589 0.000000 0.007176 0.000000
# 3 -0.001333 -0.000589 0.009825 0.000000 0.006533 0.000000
# 4 0.000000 0.000000 0.000000 0.033560 0.000000 0.004760
# 5 0.005907 0.007176 0.006533 0.000000 0.034487 0.000000
# 6 0.000000 0.000000 0.000000 0.004760 0.000000 0.043598
#
#
# Mechanical properties :
#
#
# Convention : Reuss Voigt Hill
#
# Bulk Modulus (GPa) = 18.16026 37.76629 27.96328
# Shear Modulus (GPa) = 22.73806 30.93656 26.83731
#
# Velocity S-wave (km/s) = 3.17210 3.70004 3.44619
# Velocity P-wave (km/s) = 4.63170 5.91323 5.31126
#
# Compressibility (1/GPa) = 0.05506528
#
# Stress axis : x y z
#
# Youngs Moduli (GPa) = 64.73698 21.18261 101.77935
#
# Poissons Ratio (x) = 0.14374 0.13567
# Poissons Ratio (y) = 0.43928 0.05997
# Poissons Ratio (z) = 0.08629 0.01248
#
# Static dielectric constant tensor:
#      x y z
#    x 1.858960 0.000000 -0.015210 
#    y 0.000000 1.924640 0.000000 
#    z -0.015210 0.000000 1.885700 
# 
# From -- ./inp_files/171822.got.cif
#   From: 2010.05.17/outbox.cif.g08.bks.cpg/sg15_86_cif.got.tgz:171822.got - 2010.06.03 18:47:42.
