data_PCOD9265330
_publ_section_title
;
Structure prediction by ZEFSAII (Michael W. Deem and Ramdas Pophale) SiO2 
 PCOD9265330
Probable space group: C 2/C
;
_chemical_formula_sum "Si O2"
_cell_formula_units_Z 56
_cell_length_a 7.145469
_cell_length_b 32.171496
_cell_length_c 18.776341
_cell_angle_alpha 90.000000
_cell_angle_beta 148.843495
_cell_angle_gamma 90.000000
_cell_volume 2233.163496
_symmetry_space_group_name_H-M "C 2/C"
_symmetry_group_IT_number 15
_symmetry_cell_setting 'monoclinic'
loop_
_space_group_symop_operation_xyz
x,y,z
-x,y,1/2-z
-x,-y,-z
x,-y,1/2+z
1/2+x,1/2+y,z
1/2-x,1/2+y,1/2-z
1/2-x,1/2-y,-z
1/2+x,1/2-y,1/2+z
loop_
_atom_site_type_symbol
_atom_site_label
_atom_site_fract_x
_atom_site_fract_y
_atom_site_fract_z
Si Si1 0.758638 0.163544 0.013329
Si Si2 0.445714 0.919042 0.383626
Si Si3 0.686833 0.796605 0.711241
Si Si4 0.772256 0.642266 0.985928
Si Si5 0.399121 0.049649 0.019903
Si Si6 0.772132 0.294655 0.247530
Si Si7 0.303780 0.998900 0.254950
O O1 0.681836 0.121652 0.942998
O O2 0.597494 0.147611 0.035862
O O3 0.519413 0.198451 0.896750
O O4 0.126844 0.184251 0.158339
O O5 0.575037 0.937461 0.501724
O O6 0.485221 0.955287 0.339108
O O7 0.000000 0.912121 0.250000
O O8 0.371714 0.827088 0.582334
O O9 0.564600 0.749118 0.683079
O O10 0.000000 0.794936 0.750000
O O11 0.456504 0.663826 0.838694
O O12 0.737487 0.594083 0.992918
O O13 0.637865 0.029534 0.159630
O O14 0.089780 0.017188 0.896170
O O15 0.000000 0.292337 0.250000
O O16 0.500000 0.016674 0.250000
#
# Coordination Sequence:
#
# PCOD9265330 Si02
#       7
#     8   8   8   8   8   8   8
#     4  10  19  36  60  84 111 149 194 234 274 330
#     4   9  19  36  59  86 112 147 191 231 277 337
#     4   9  20  36  57  86 116 147 190 237 281 326
#     4  10  21  40  60  80 112 153 193 233 279 335
#     4  10  22  39  59  83 110 147 192 233 279 338
#     4  11  21  35  57  86 118 151 187 232 282 336
#     4  11  22  38  59  83 113 146 182 232 289 340
#
# _framework density 25.076532
#
# number of rings (size 3 to 8) (size 9 to 14) (size 15 to 20)
#    0.000    2.000    0.000    4.714    0.000    3.429 
#    0.000   10.000    0.000    0.000    0.000    0.000 
#    0.000    0.000    0.000    0.000    0.000    0.000 
#
# Total GULP energy -156437.432772 kJ/mol
# GULP energy per Si atom -5587.051170 kJ/mol
# Density = 2.501946 g / cm^3
# Si number density = 25.076532 Si / 1000 Ang^3
#
#
#
# Elastic Constant Matrix: (Units=GPa)
#
#
# Indices 1 2 3 4 5 6 
#
# 1 53.7779 30.0792 16.3371 -0.0001 -16.4667 0.0000
# 2 30.0792 166.3189 79.9816 0.0001 -7.1116 -0.0001
# 3 16.3371 79.9816 143.8191 -0.0003 -24.5295 0.0001
# 4 -0.0001 0.0001 -0.0003 35.9877 0.0000 -3.9961
# 5 -16.4667 -7.1116 -24.5295 0.0000 28.2693 0.0000
# 6 0.0000 -0.0001 0.0001 -3.9961 0.0000 19.9753
#
#
#
# Elastic Compliance Matrix: (Units=1/GPa)
#
#
# Indices 1 2 3 4 5 6 
#
# 1 0.025595 -0.005266 0.002744 0.000000 0.015965 0.000000
# 2 -0.005266 0.009412 -0.005581 0.000000 -0.005543 0.000000
# 3 0.002744 -0.005581 0.011477 0.000000 0.010153 0.000000
# 4 0.000000 0.000000 0.000000 0.028419 0.000000 0.005685
# 5 0.015965 -0.005543 0.010153 0.000000 0.052089 0.000000
# 6 0.000000 0.000000 0.000000 0.005685 0.000000 0.051199
#
#
# Mechanical properties :
#
#
# Convention : Reuss Voigt Hill
#
# Bulk Modulus (GPa) = 33.02740 68.52352 50.77546
# Shear Modulus (GPa) = 24.45098 32.68098 28.56598
#
# Velocity S-wave (km/s) = 3.12597 3.61397 3.37879
# Velocity P-wave (km/s) = 5.12135 6.69324 5.95935
#
# Compressibility (1/GPa) = 0.03027789
#
# Stress axis : x y z
#
# Youngs Moduli (GPa) = 39.06964 106.24766 87.12970
#
# Poissons Ratio (x) = 0.55949 -0.23909
# Poissons Ratio (y) = 0.20574 0.48631
# Poissons Ratio (z) = -0.10721 0.59301
#
# Static dielectric constant tensor:
#      x y z
#    x 2.043660 0.000000 0.029890 
#    y 0.000000 2.017610 0.000000 
#    z 0.029890 0.000000 1.953040 
# 
# From -- ./inp_files/234956.got.cif
#   From: 2010.05.17/outbox.cif.g08.bks.cpg/sg15_118_cif.got.tgz:234956.got - 2010.06.03 18:47:42.
