data_PCOD9265482
_publ_section_title
;
Structure prediction by ZEFSAII (Michael W. Deem and Ramdas Pophale) SiO2 
 PCOD9265482
Probable space group: C 2/C
;
_chemical_formula_sum "Si O2"
_cell_formula_units_Z 52
_cell_length_a 23.592927
_cell_length_b 13.770099
_cell_length_c 16.556896
_cell_angle_alpha 90.000000
_cell_angle_beta 26.876022
_cell_angle_gamma 90.000000
_cell_volume 2431.617653
_symmetry_space_group_name_H-M "C 2/C"
_symmetry_group_IT_number 15
_symmetry_cell_setting 'monoclinic'
loop_
_space_group_symop_operation_xyz
x,y,z
-x,y,1/2-z
-x,-y,-z
x,-y,1/2+z
1/2+x,1/2+y,z
1/2-x,1/2+y,1/2-z
1/2-x,1/2-y,-z
1/2+x,1/2-y,1/2+z
loop_
_atom_site_type_symbol
_atom_site_label
_atom_site_fract_x
_atom_site_fract_y
_atom_site_fract_z
Si Si1 0.500000 0.266119 0.250000
Si Si2 0.538664 0.407961 0.351904
Si Si3 0.987609 0.114041 0.361290
Si Si4 0.196470 0.575288 0.767036
Si Si5 0.758679 0.869674 0.750771
Si Si6 0.278792 0.809909 0.116719
Si Si7 0.320712 0.242943 0.823840
O O1 0.520091 0.335167 0.300885
O O2 0.375257 0.203887 0.421718
O O3 0.560898 0.515879 0.291008
O O4 0.405596 0.402602 0.566690
O O5 0.658027 0.372233 0.249048
O O6 0.047115 0.204386 0.330921
O O7 0.000000 0.129491 0.250000
O O8 0.845534 0.092713 0.565865
O O9 0.183326 0.465113 0.816023
O O10 0.148060 0.639906 0.902572
O O11 0.153271 0.633363 0.741534
O O12 0.740706 0.793851 0.700741
O O13 0.745408 0.807174 0.851023
O O14 0.250000 0.250000 0.000000
#
# Coordination Sequence:
#
# PCOD9265482 Si02
#       7
#     4   8   8   8   8   8   8
#     4  10  20  34  52  88 120 152 200 242 292 374
#     4  10  19  36  61  89 116 153 203 253 301 344
#     4  11  20  35  62  92 116 149 202 256 291 348
#     4  10  21  40  59  88 119 157 201 250 301 356
#     4   9  21  38  60  87 121 152 206 250 296 361
#     4  10  20  34  60  84 117 158 195 244 305 350
#     4  11  21  34  59  92 122 156 194 249 306 352
#
# _framework density 21.384941000000001
#
# number of rings (size 3 to 8) (size 9 to 14) (size 15 to 20)
#    0.000    1.846    2.308    2.308    0.000    2.462 
#    0.000    0.000    0.000   41.538    2.000    0.000 
#    0.000    0.000    0.000    0.000    0.000    0.000 
#
# Total GULP energy -145004.872046 kJ/mol
# GULP energy per Si atom -5577.110463 kJ/mol
# Density = 2.133627 g / cm^3
# Si number density = 21.384941 Si / 1000 Ang^3
#
#
#
# Elastic Constant Matrix: (Units=GPa)
#
#
# Indices 1 2 3 4 5 6 
#
# 1 73.8695 25.7135 11.1043 0.0000 12.6450 0.0000
# 2 25.7135 121.8657 12.2577 0.0000 3.2924 0.0000
# 3 11.1043 12.2577 39.1452 0.0000 16.3755 0.0000
# 4 0.0000 0.0000 0.0000 17.4566 0.0000 -23.0220
# 5 12.6450 3.2924 16.3755 0.0000 32.4621 0.0000
# 6 0.0000 0.0000 0.0000 -23.0220 0.0000 -32.1982
#
#
#
# Elastic Compliance Matrix: (Units=1/GPa)
#
#
# Indices 1 2 3 4 5 6 
#
# 1 0.015672 -0.003032 -0.001358 0.000000 -0.005112 0.000000
# 2 -0.003032 0.009069 -0.002648 0.000000 0.001597 0.000000
# 3 -0.001358 -0.002648 0.033495 0.000000 -0.016099 0.000000
# 4 0.000000 0.000000 0.000000 0.029483 0.000000 -0.021081
# 5 -0.005112 0.001597 -0.016099 0.000000 0.040756 0.000000
# 6 0.000000 0.000000 0.000000 -0.021081 0.000000 -0.015985
#
#
# Mechanical properties :
#
#
# Convention : Reuss Voigt Hill
#
# Bulk Modulus (GPa) = 22.64451 37.00349 29.82400
# Shear Modulus (GPa) = 35.38951 15.93110 25.66031
#
# Velocity S-wave (km/s) = 4.07244 2.73237 3.46775
# Velocity P-wave (km/s) = 5.72057 5.22452 5.47816
#
# Compressibility (1/GPa) = 0.04416082
#
# Stress axis : x y z
#
# Youngs Moduli (GPa) = 63.80783 110.26953 29.85541
#
# Poissons Ratio (x) = 0.33435 0.04053
# Poissons Ratio (y) = 0.19347 0.07905
# Poissons Ratio (z) = 0.08663 0.29195
#
# Static dielectric constant tensor:
#      x y z
#    x 1.820490 0.000000 -0.000940 
#    y 0.000000 1.818770 0.000000 
#    z -0.000940 0.000000 1.792380 
# 
# From -- ./inp_files/222435.got.cif
#   From: 2010.05.17/outbox.cif.g08.bks.cpg/sg15_112_cif.got.tgz:222435.got - 2010.06.03 18:47:42.
