data_PCOD9265687
_publ_section_title
;
Structure prediction by ZEFSAII (Michael W. Deem and Ramdas Pophale) SiO2 
 PCOD9265687
Probable space group: C 2/C
;
_chemical_formula_sum "Si O2"
_cell_formula_units_Z 48
_cell_length_a 12.396596
_cell_length_b 24.867494
_cell_length_c 14.550284
_cell_angle_alpha 90.000000
_cell_angle_beta 30.295771
_cell_angle_gamma 90.000000
_cell_volume 2262.747163
_symmetry_space_group_name_H-M "C 2/C"
_symmetry_group_IT_number 15
_symmetry_cell_setting 'monoclinic'
loop_
_space_group_symop_operation_xyz
x,y,z
-x,y,1/2-z
-x,-y,-z
x,-y,1/2+z
1/2+x,1/2+y,z
1/2-x,1/2+y,1/2-z
1/2-x,1/2-y,-z
1/2+x,1/2-y,1/2+z
loop_
_atom_site_type_symbol
_atom_site_label
_atom_site_fract_x
_atom_site_fract_y
_atom_site_fract_z
Si Si1 0.080244 0.874257 0.294261
Si Si2 0.516807 0.062120 0.510227
Si Si3 0.413770 0.390938 0.603178
Si Si4 0.702003 0.587209 0.044849
Si Si5 0.645515 0.709661 0.885932
Si Si6 0.865012 0.296824 0.472809
O O1 0.111939 0.812694 0.307609
O O2 0.000000 0.877465 0.250000
O O3 0.920512 0.899689 0.488736
O O4 0.302763 0.905178 0.146109
O O5 0.705667 0.089568 0.309885
O O6 0.586731 0.063279 0.566063
O O7 0.500000 0.000000 0.500000
O O8 0.621390 0.416947 0.500459
O O9 0.473142 0.327351 0.566654
O O10 0.500000 0.564480 0.250000
O O11 0.734518 0.649445 0.051518
O O12 0.887952 0.693489 0.734515
O O13 0.620319 0.770708 0.936114
O O14 0.750000 0.250000 0.500000
#
# Coordination Sequence:
#
# PCOD9265687 Si02
#       6
#     8   8   8   8   8   8
#     4  10  23  45  65  87 133 179 229 277 328 401
#     4  11  24  42  68  97 127 170 224 280 350 408
#     4   9  22  42  64  96 134 170 214 282 346 395
#     4  10  19  36  63  96 136 164 208 279 339 421
#     4  10  23  35  58  93 136 173 216 270 325 406
#     4  12  19  31  60  98 133 174 212 255 345 415
#
# _framework density 21.213152000000001
#
# number of rings (size 3 to 8) (size 9 to 14) (size 15 to 20)
#    1.000    0.667    3.333    1.500    2.333    5.333 
#    0.000    2.500    0.000    0.000    0.000    0.000 
#    0.000    0.000    0.000    0.000    0.000    0.000 
#
# Total GULP energy -133618.043378 kJ/mol
# GULP energy per Si atom -5567.418474 kJ/mol
# Density = 2.116487 g / cm^3
# Si number density = 21.213152 Si / 1000 Ang^3
#
#
#
# Elastic Constant Matrix: (Units=GPa)
#
#
# Indices 1 2 3 4 5 6 
#
# 1 123.8798 7.1278 -0.6279 -0.0012 19.4762 0.0014
# 2 7.1278 53.0499 1.9481 -0.0015 2.4226 0.0006
# 3 -0.6279 1.9481 100.8210 -0.0088 1.1298 0.0029
# 4 -0.0012 -0.0015 -0.0088 4.4801 0.0045 6.5981
# 5 19.4762 2.4226 1.1298 0.0045 27.6615 -0.0026
# 6 0.0014 0.0006 0.0029 6.5981 -0.0026 9.5833
#
#
#
# Elastic Compliance Matrix: (Units=1/GPa)
#
#
# Indices 1 2 3 4 5 6 
#
# 1 0.009125 -0.000942 0.000146 -0.000946 -0.006348 0.000649
# 2 -0.000942 0.019035 -0.000363 -0.000577 -0.000989 0.000396
# 3 0.000146 -0.000363 0.009932 -0.001755 -0.000476 0.001205
# 4 -0.000946 -0.000577 -0.001755-15.943051 0.004412 10.976780
# 5 -0.006348 -0.000989 -0.000476 0.004412 0.040726 -0.003026
# 6 0.000649 0.000396 0.001205 10.976780 -0.003026 -7.453158
#
#
# Mechanical properties :
#
#
# Convention : Reuss Voigt Hill
#
# Bulk Modulus (GPa) = 27.95184 32.73850 30.34517
# Shear Modulus (GPa) = -0.21456 26.29848 13.04196
#
# Velocity S-wave (km/s) = -0.31838 3.52479 2.48222
# Velocity P-wave (km/s) = 3.61526 5.65970 4.74880
#
# Compressibility (1/GPa) = 0.03577582
#
# Stress axis : x y z
#
# Youngs Moduli (GPa) = 109.58525 52.53433 100.68832
#
# Poissons Ratio (x) = 0.04947 -0.01471
# Poissons Ratio (y) = 0.10318 0.03651
# Poissons Ratio (z) = -0.01601 0.01905
#
# Static dielectric constant tensor:
#      x y z
#    x 1.740800 0.000000 0.098880 
#    y 0.000000 1.787920 0.000000 
#    z 0.098880 0.000000 1.786530 
# 
# From -- ./inp_files/148689.got.cif
#   From: 2010.05.17/outbox.cif.g08.bks.cpg/sg15_75_cif.got.tgz:148689.got - 2010.06.03 18:47:42.
