data_PCOD9265206
_publ_section_title
;
Structure prediction by ZEFSAII (Michael W. Deem and Ramdas Pophale) SiO2 
 PCOD9265206
Probable space group: C 2/C
;
_chemical_formula_sum "Si O2"
_cell_formula_units_Z 60
_cell_length_a 7.908741
_cell_length_b 19.618779
_cell_length_c 17.461286
_cell_angle_alpha 90.000000
_cell_angle_beta 71.377115
_cell_angle_gamma 90.000000
_cell_volume 2567.434466
_symmetry_space_group_name_H-M "C 2/C"
_symmetry_group_IT_number 15
_symmetry_cell_setting 'monoclinic'
loop_
_space_group_symop_operation_xyz
x,y,z
-x,y,1/2-z
-x,-y,-z
x,-y,1/2+z
1/2+x,1/2+y,z
1/2-x,1/2+y,1/2-z
1/2-x,1/2-y,-z
1/2+x,1/2-y,1/2+z
loop_
_atom_site_type_symbol
_atom_site_label
_atom_site_fract_x
_atom_site_fract_y
_atom_site_fract_z
Si Si1 0.862868 0.885130 0.578884
Si Si2 0.803357 0.742989 0.310036
Si Si3 0.165488 0.582003 0.632686
Si Si4 0.919648 0.576473 0.018467
Si Si5 0.500000 0.798733 0.250000
Si Si6 0.209043 0.129001 0.576233
Si Si7 0.506651 0.050646 0.337244
Si Si8 0.003661 0.003749 0.839627
O O1 0.789050 0.817745 0.629844
O O2 0.905569 0.865686 0.485475
O O3 0.685992 0.932102 0.599622
O O4 0.986143 0.934326 0.612387
O O5 0.660755 0.757973 0.264629
O O6 0.824842 0.810441 0.359674
O O7 0.000000 0.726230 0.250000
O O8 0.208744 0.584843 0.535916
O O9 0.995353 0.530894 0.664594
O O10 0.322129 0.548838 0.660973
O O11 0.096836 0.653059 0.674045
O O12 0.865275 0.581989 0.116297
O O13 0.000000 0.500000 0.000000
O O14 0.082235 0.628182 0.976349
O O15 0.154846 0.055370 0.617138
O O16 0.500000 0.073853 0.250000
O O17 0.000000 0.989085 0.750000
#
# Coordination Sequence:
#
# PCOD9265206 Si02
#       8
#     8   8   8   8   4   8   8   8
#     4  10  24  41  66  95 142 188 227 291 372 431
#     4  12  26  45  73 102 142 193 246 294 361 440
#     4  10  19  36  58  98 127 172 224 288 343 414
#     4   9  19  32  58  92 129 167 218 280 353 410
#     4  12  22  38  72  98 142 180 240 294 356 424
#     4  11  21  44  69 100 134 187 240 300 352 428
#     4   9  17  33  58  88 125 165 222 273 345 420
#     4  11  24  40  69 105 143 180 236 299 362 421
#
# _framework density 23.369633
#
# number of rings (size 3 to 8) (size 9 to 14) (size 15 to 20)
#    0.000    1.600    2.000    4.000    0.933    1.067 
#    0.000    0.000    5.867    2.400    0.000    0.000 
#    0.000    0.000    0.000    0.000    0.000    0.000 
#
# Total GULP energy -167509.996114 kJ/mol
# GULP energy per Si atom -5583.666537 kJ/mol
# Density = 2.331644 g / cm^3
# Si number density = 23.369633 Si / 1000 Ang^3
#
#
#
# Elastic Constant Matrix: (Units=GPa)
#
#
# Indices 1 2 3 4 5 6 
#
# 1 123.1774 29.9767 50.4894 0.0000 29.7675 0.0000
# 2 29.9767 95.0893 36.5242 0.0000 8.4271 0.0000
# 3 50.4894 36.5242 176.6648 0.0000 37.4468 0.0000
# 4 0.0000 0.0000 0.0000 15.0792 0.0000 -0.8008
# 5 29.7675 8.4271 37.4468 0.0000 43.6553 0.0000
# 6 0.0000 0.0000 0.0000 -0.8008 0.0000 12.7011
#
#
#
# Elastic Compliance Matrix: (Units=1/GPa)
#
#
# Indices 1 2 3 4 5 6 
#
# 1 0.010596 -0.002321 -0.001359 0.000000 -0.005612 0.000000
# 2 -0.002321 0.011934 -0.002018 0.000000 0.001010 0.000000
# 3 -0.001359 -0.002018 0.007562 0.000000 -0.005170 0.000000
# 4 0.000000 0.000000 0.000000 0.066539 0.000000 0.004196
# 5 -0.005612 0.001010 -0.005170 0.000000 0.030973 0.000000
# 6 0.000000 0.000000 0.000000 0.004196 0.000000 0.078998
#
#
# Mechanical properties :
#
#
# Convention : Reuss Voigt Hill
#
# Bulk Modulus (GPa) = 53.48775 69.87913 61.68344
# Shear Modulus (GPa) = 22.29846 32.81654 27.55750
#
# Velocity S-wave (km/s) = 3.09231 3.75138 3.43768
# Velocity P-wave (km/s) = 5.97388 6.98072 6.49683
#
# Compressibility (1/GPa) = 0.01869587
#
# Stress axis : x y z
#
# Youngs Moduli (GPa) = 94.37133 83.79588 132.24095
#
# Poissons Ratio (x) = 0.19451 0.17972
# Poissons Ratio (y) = 0.21905 0.26685
# Poissons Ratio (z) = 0.12825 0.16910
#
# Static dielectric constant tensor:
#      x y z
#    x 2.027580 0.000000 0.027820 
#    y 0.000000 1.863550 0.000000 
#    z 0.027820 0.000000 2.001320 
# 
# From -- ./inp_files/192127.got.cif
#   From: 2010.05.17/outbox.cif.g08.bks.cpg/sg15_97_cif.got.tgz:192127.got - 2010.06.03 18:47:42.
