data_PCOD9265638
_publ_section_title
;
Structure prediction by ZEFSAII (Michael W. Deem and Ramdas Pophale) SiO2 
 PCOD9265638
Probable space group: C 2/C
;
_chemical_formula_sum "Si O2"
_cell_formula_units_Z 52
_cell_length_a 11.238212
_cell_length_b 10.847468
_cell_length_c 29.475767
_cell_angle_alpha 90.000000
_cell_angle_beta 38.545038
_cell_angle_gamma 90.000000
_cell_volume 2239.077419
_symmetry_space_group_name_H-M "C 2/C"
_symmetry_group_IT_number 15
_symmetry_cell_setting 'monoclinic'
loop_
_space_group_symop_operation_xyz
x,y,z
-x,y,1/2-z
-x,-y,-z
x,-y,1/2+z
1/2+x,1/2+y,z
1/2-x,1/2+y,1/2-z
1/2-x,1/2-y,-z
1/2+x,1/2-y,1/2+z
loop_
_atom_site_type_symbol
_atom_site_label
_atom_site_fract_x
_atom_site_fract_y
_atom_site_fract_z
Si Si1 0.842850 0.665149 0.115464
Si Si2 0.687327 0.024558 0.527744
Si Si3 0.979747 0.777852 0.158973
Si Si4 0.410531 0.237129 0.620234
Si Si5 0.456957 0.557609 0.360131
Si Si6 0.616241 0.676638 0.474182
Si Si7 0.500000 0.279546 0.250000
O O1 0.654419 0.610971 0.149535
O O2 0.003868 0.559538 0.071001
O O3 0.828231 0.722819 0.169726
O O4 0.939442 0.769414 0.054821
O O5 0.817815 0.955569 0.526098
O O6 0.593382 0.151381 0.572202
O O7 0.802465 0.042576 0.447014
O O8 0.190937 0.758204 0.074424
O O9 0.991115 0.711844 0.204243
O O10 0.955253 0.923220 0.174438
O O11 0.404434 0.341153 0.660178
O O12 0.422721 0.302474 0.567388
O O13 0.211007 0.161481 0.682493
#
# Coordination Sequence:
#
# PCOD9265638 Si02
#       7
#     8   8   8   8   8   8   4
#     4  11  19  35  64  94 128 155 201 262 316 370
#     4  11  20  36  63  97 122 160 204 249 325 378
#     4  10  21  41  63  86 117 167 211 257 300 373
#     4  11  25  40  59  89 128 170 203 257 314 386
#     4  12  22  36  62 101 127 151 206 263 325 378
#     4  10  19  36  63  88 127 164 197 254 313 370
#     4  10  24  50  60  74 118 172 220 238 308 378
#
# _framework density 23.223852000000001
#
# number of rings (size 3 to 8) (size 9 to 14) (size 15 to 20)
#    0.000    1.231    4.615    3.692    0.000    1.846 
#   11.077    0.000    0.000    0.000    0.000    0.000 
#    0.000    0.000    0.000    0.000    0.000    0.000 
#
# Total GULP energy -145272.707784 kJ/mol
# GULP energy per Si atom -5587.411838 kJ/mol
# Density = 2.317099 g / cm^3
# Si number density = 23.223852 Si / 1000 Ang^3
#
#
#
# Elastic Constant Matrix: (Units=GPa)
#
#
# Indices 1 2 3 4 5 6 
#
# 1 137.8042 54.3123 24.8824 0.0000 24.2508 0.0000
# 2 54.3123 97.3049 17.7361 0.0000 -3.8052 0.0000
# 3 24.8824 17.7361 71.4623 0.0000 13.1350 0.0000
# 4 0.0000 0.0000 0.0000 3.9292 0.0000 3.7157
# 5 24.2508 -3.8052 13.1350 0.0000 35.5052 0.0000
# 6 0.0000 0.0000 0.0000 3.7157 0.0000 34.0148
#
#
#
# Elastic Compliance Matrix: (Units=1/GPa)
#
#
# Indices 1 2 3 4 5 6 
#
# 1 0.011433 -0.006547 -0.000849 0.000000 -0.008196 0.000000
# 2 -0.006547 0.014691 -0.002659 0.000000 0.007030 0.000000
# 3 -0.000849 -0.002659 0.015981 0.000000 -0.005617 0.000000
# 4 0.000000 0.000000 0.000000 0.283823 0.000000 -0.031004
# 5 -0.008196 0.007030 -0.005617 0.000000 0.036595 0.000000
# 6 0.000000 0.000000 0.000000 -0.031004 0.000000 0.032786
#
#
# Mechanical properties :
#
#
# Convention : Reuss Voigt Hill
#
# Bulk Modulus (GPa) = 45.46491 55.60366 50.53429
# Shear Modulus (GPa) = 11.82733 28.66589 20.24661
#
# Velocity S-wave (km/s) = 2.25916 3.51711 2.95583
# Velocity P-wave (km/s) = 5.14047 6.36301 5.78413
#
# Compressibility (1/GPa) = 0.02199498
#
# Stress axis : x y z
#
# Youngs Moduli (GPa) = 87.46742 68.06951 62.57286
#
# Poissons Ratio (x) = 0.44566 0.05315
# Poissons Ratio (y) = 0.57266 0.16635
# Poissons Ratio (z) = 0.07429 0.18097
#
# Static dielectric constant tensor:
#      x y z
#    x 2.003590 0.000000 -0.036020 
#    y 0.000000 1.911970 0.000000 
#    z -0.036020 0.000000 1.889870 
# 
# From -- ./inp_files/310769.got.cif
#   From: 2010.05.17/outbox.cif.g08.bks.cpg/sg15_156_cif.got.tgz:310769.got - 2010.06.03 18:47:42.
