data_PCOD9265808
_publ_section_title
;
Structure prediction by ZEFSAII (Michael W. Deem and Ramdas Pophale) SiO2 
 PCOD9265808
Probable space group: C 2/C
;
_chemical_formula_sum "Si O2"
_cell_formula_units_Z 32
_cell_length_a 5.679648
_cell_length_b 12.915300
_cell_length_c 17.288134
_cell_angle_alpha 90.000000
_cell_angle_beta 106.282550
_cell_angle_gamma 90.000000
_cell_volume 1217.294993
_symmetry_space_group_name_H-M "C 2/C"
_symmetry_group_IT_number 15
_symmetry_cell_setting 'monoclinic'
loop_
_space_group_symop_operation_xyz
x,y,z
-x,y,1/2-z
-x,-y,-z
x,-y,1/2+z
1/2+x,1/2+y,z
1/2-x,1/2+y,1/2-z
1/2-x,1/2-y,-z
1/2+x,1/2-y,1/2+z
loop_
_atom_site_type_symbol
_atom_site_label
_atom_site_fract_x
_atom_site_fract_y
_atom_site_fract_z
Si Si1 0.285489 0.022607 0.289258
Si Si2 0.233288 0.247406 0.227044
Si Si3 0.987060 0.175262 0.043981
Si Si4 0.249601 0.955346 0.445140
O O1 0.500000 0.000941 0.250000
O O2 0.323656 0.945143 0.363535
O O3 0.000000 0.010616 0.250000
O O4 0.296782 0.148487 0.290536
O O5 0.500000 0.299313 0.250000
O O6 0.000000 0.293351 0.250000
O O7 0.140948 0.215676 0.132216
O O8 0.919904 0.057619 0.065219
O O9 0.750000 0.250000 0.000000
O O10 0.142161 0.142595 0.981060
O O11 0.500000 0.000000 0.500000
#
# Coordination Sequence:
#
# PCOD9265808 Si02
#       4
#     8   8   8   8
#     4  10  19  36  68 100 131 188 257 301 375 475
#     4  10  19  39  68 100 136 198 254 303 396 474
#     4  11  25  43  71 112 152 200 264 335 401 484
#     4  11  23  42  72 107 144 203 260 321 407 486
#
# _framework density 26.287793000000001
#
# number of rings (size 3 to 8) (size 9 to 14) (size 15 to 20)
#    0.000    1.500    5.000    3.000    3.500    1.000 
#    0.000    0.000    5.500    1.500    0.000    0.000 
#    0.000    0.000    0.000    0.000    0.000    0.000 
#
# Total GULP energy -89172.306144 kJ/mol
# GULP energy per Si atom -5573.269134 kJ/mol
# Density = 2.622796 g / cm^3
# Si number density = 26.287793 Si / 1000 Ang^3
#
#
#
# Elastic Constant Matrix: (Units=GPa)
#
#
# Indices 1 2 3 4 5 6 
#
# 1 248.1150 23.4477 80.4570 0.0000 -18.7232 0.0000
# 2 23.4477 152.7626 -17.0128 0.0000 -4.8410 0.0000
# 3 80.4570 -17.0128 116.7800 0.0000 -1.7317 0.0000
# 4 0.0000 0.0000 0.0000 28.5717 0.0000 7.1980
# 5 -18.7232 -4.8410 -1.7317 0.0000 58.9007 0.0000
# 6 0.0000 0.0000 0.0000 7.1980 0.0000 44.6678
#
#
#
# Elastic Compliance Matrix: (Units=1/GPa)
#
#
# Indices 1 2 3 4 5 6 
#
# 1 0.005558 -0.001248 -0.003988 0.000000 0.001547 0.000000
# 2 -0.001248 0.006954 0.001877 0.000000 0.000230 0.000000
# 3 -0.003988 0.001877 0.011573 0.000000 -0.000773 0.000000
# 4 0.000000 0.000000 0.000000 0.036481 0.000000 -0.005879
# 5 0.001547 0.000230 -0.000773 0.000000 0.017466 0.000000
# 6 0.000000 0.000000 0.000000 -0.005879 0.000000 0.023335
#
#
# Mechanical properties :
#
#
# Convention : Reuss Voigt Hill
#
# Bulk Modulus (GPa) = 57.58769 76.82680 67.20725
# Shear Modulus (GPa) = 43.90765 55.14576 49.52670
#
# Velocity S-wave (km/s) = 4.09132 4.58511 4.34524
# Velocity P-wave (km/s) = 6.65378 7.57098 7.12715
#
# Compressibility (1/GPa) = 0.01736482
#
# Stress axis : x y z
#
# Youngs Moduli (GPa) = 179.90582 143.80240 86.40843
#
# Poissons Ratio (x) = 0.17951 0.34464
# Poissons Ratio (y) = 0.22458 -0.16215
# Poissons Ratio (z) = 0.71755 -0.26985
#
# Static dielectric constant tensor:
#      x y z
#    x 2.443440 0.000000 0.040040 
#    y 0.000000 1.779980 0.000000 
#    z 0.040040 0.000000 2.138520 
# 
# From -- ./inp_files/183822.got.cif
#   From: 2010.05.17/outbox.cif.g08.bks.cpg/sg15_92_cif.got.tgz:183822.got - 2010.06.03 18:47:42.
