data_PCOD9265855
_publ_section_title
;
Structure prediction by ZEFSAII (Michael W. Deem and Ramdas Pophale) SiO2 
 PCOD9265855
Probable space group: C 2/C
;
_chemical_formula_sum "Si O2"
_cell_formula_units_Z 40
_cell_length_a 19.518303
_cell_length_b 9.196309
_cell_length_c 28.699520
_cell_angle_alpha 90.000000
_cell_angle_beta 158.339454
_cell_angle_gamma 90.000000
_cell_volume 1901.438876
_symmetry_space_group_name_H-M "C 2/C"
_symmetry_group_IT_number 15
_symmetry_cell_setting 'monoclinic'
loop_
_space_group_symop_operation_xyz
x,y,z
-x,y,1/2-z
-x,-y,-z
x,-y,1/2+z
1/2+x,1/2+y,z
1/2-x,1/2+y,1/2-z
1/2-x,1/2-y,-z
1/2+x,1/2-y,1/2+z
loop_
_atom_site_type_symbol
_atom_site_label
_atom_site_fract_x
_atom_site_fract_y
_atom_site_fract_z
Si Si1 0.351061 0.095444 0.464944
Si Si2 0.291543 0.990311 0.260953
Si Si3 0.633484 0.148126 0.875395
Si Si4 0.167523 0.400567 0.964888
Si Si5 0.815031 0.201710 0.232810
O O1 0.269697 0.239220 0.437458
O O2 0.293846 0.112432 0.375637
O O3 0.568106 0.085056 0.613118
O O4 0.272207 0.959156 0.445653
O O5 0.441219 0.084923 0.325420
O O6 0.164400 0.097943 0.209670
O O7 0.212312 0.853125 0.182614
O O8 0.500000 0.089421 0.750000
O O9 0.502419 0.239895 0.827644
O O10 0.721409 0.020761 0.960821
O O11 0.250000 0.250000 0.000000
#
# Coordination Sequence:
#
# PCOD9265855 Si02
#       5
#     8   8   8   8   8
#     4   9  19  36  59  79 109 152 182 229 276 335
#     4   9  21  35  58  78 117 143 186 233 271 339
#     4   9  18  35  61  78 110 146 189 224 274 336
#     4   9  19  34  56  82 107 141 183 231 273 322
#     4  10  19  37  55  84 110 148 187 227 280 324
#
# _framework density 21.036701000000001
#
# number of rings (size 3 to 8) (size 9 to 14) (size 15 to 20)
#    1.200    1.600    0.000    1.200    0.000    1.600 
#    0.000   10.000    0.000    0.000    0.000    0.000 
#    0.000    0.000    0.000    0.000    0.000    0.000 
#
# Total GULP energy -111356.130373 kJ/mol
# GULP energy per Si atom -5567.806519 kJ/mol
# Density = 2.098882 g / cm^3
# Si number density = 21.036701 Si / 1000 Ang^3
#
#
#
# Elastic Constant Matrix: (Units=GPa)
#
#
# Indices 1 2 3 4 5 6 
#
# 1 102.7012 61.7798 11.6660 -0.0071 -14.6542 0.0002
# 2 61.7798 117.9160 32.6571 -0.0123 -13.2358 0.0005
# 3 11.6660 32.6571 28.5064 -0.0318 -11.3349 0.0022
# 4 -0.0071 -0.0123 -0.0318 14.8089 0.0014 1.5402
# 5 -14.6542 -13.2358 -11.3349 0.0014 25.4182 0.0018
# 6 0.0002 0.0005 0.0022 1.5402 0.0018 42.1825
#
#
#
# Elastic Compliance Matrix: (Units=1/GPa)
#
#
# Indices 1 2 3 4 5 6 
#
# 1 0.015587 -0.009351 0.007258 0.000015 0.007353 -0.000001
# 2 -0.009351 0.018032 -0.018526 -0.000029 -0.004263 0.000002
# 3 0.007258 -0.018526 0.062189 0.000120 0.022269 -0.000008
# 4 0.000015 -0.000029 0.000120 0.067785 0.000043 -0.002475
# 5 0.007353 -0.004263 0.022269 0.000043 0.051292 -0.000005
# 6 -0.000001 0.000002 -0.000008 -0.002475 -0.000005 0.023797
#
#
# Mechanical properties :
#
#
# Convention : Reuss Voigt Hill
#
# Bulk Modulus (GPa) = 18.32545 51.25882 34.79214
# Shear Modulus (GPa) = 16.77231 26.01662 21.39447
#
# Velocity S-wave (km/s) = 2.82669 3.52053 3.19251
# Velocity P-wave (km/s) = 4.40269 6.39881 5.49220
#
# Compressibility (1/GPa) = 0.05456891
#
# Stress axis : x y z
#
# Youngs Moduli (GPa) = 64.15601 55.45580 16.08014
#
# Poissons Ratio (x) = 0.51858 -0.11671
# Poissons Ratio (y) = 0.59994 0.29790
# Poissons Ratio (z) = -0.46564 1.02739
#
# Static dielectric constant tensor:
#      x y z
#    x 1.798590 0.000000 -0.002670 
#    y 0.000000 1.766470 0.000000 
#    z -0.002670 0.000000 1.831030 
# 
# From -- ./inp_files/317197.got.cif
#   From: 2010.05.17/outbox.cif.g08.bks.cpg/sg15_159_cif.got.tgz:317197.got - 2010.06.03 18:47:42.
