data_PCOD9265025
_publ_section_title
;
Structure prediction by ZEFSAII (Michael W. Deem and Ramdas Pophale) SiO2 
 PCOD9265025
Probable space group: C 2/C
;
_chemical_formula_sum "Si O2"
_cell_formula_units_Z 56
_cell_length_a 9.054989
_cell_length_b 28.748949
_cell_length_c 11.067641
_cell_angle_alpha 90.000000
_cell_angle_beta 78.161860
_cell_angle_gamma 90.000000
_cell_volume 2819.865067
_symmetry_space_group_name_H-M "C 2/C"
_symmetry_group_IT_number 15
_symmetry_cell_setting 'monoclinic'
loop_
_space_group_symop_operation_xyz
x,y,z
-x,y,1/2-z
-x,-y,-z
x,-y,1/2+z
1/2+x,1/2+y,z
1/2-x,1/2+y,1/2-z
1/2-x,1/2-y,-z
1/2+x,1/2-y,1/2+z
loop_
_atom_site_type_symbol
_atom_site_label
_atom_site_fract_x
_atom_site_fract_y
_atom_site_fract_z
Si Si1 0.442265 0.972585 0.888357
Si Si2 0.408745 0.203893 0.385543
Si Si3 0.635400 0.381510 0.469893
Si Si4 0.902137 0.810651 0.463399
Si Si5 0.723038 0.394312 0.179943
Si Si6 0.103413 0.955603 0.990762
Si Si7 0.473708 0.118414 0.998212
O O1 0.500000 0.991140 0.750000
O O2 0.491935 0.919231 0.903419
O O3 0.262106 0.969625 0.906851
O O4 0.500000 0.000000 0.000000
O O5 0.500000 0.194457 0.250000
O O6 0.231996 0.190094 0.415361
O O7 0.416748 0.258493 0.413268
O O8 0.484062 0.170732 0.472312
O O9 0.560552 0.330658 0.481804
O O10 0.670612 0.395854 0.325503
O O11 0.501798 0.414266 0.542911
O O12 0.797574 0.385043 0.502228
O O13 0.843443 0.847190 0.371305
O O14 0.654214 0.436576 0.113847
O O15 0.903629 0.394052 0.126973
O O16 0.000000 0.000000 0.000000
#
# Coordination Sequence:
#
# PCOD9265025 Si02
#       7
#     8   8   8   8   8   8   8
#     4  11  25  44  63  85 117 156 196 238 291 352
#     4  10  19  36  57  77 112 151 185 231 289 348
#     4  11  20  36  57  84 118 148 191 242 283 333
#     4   9  19  34  57  85 106 145 197 233 281 343
#     4   9  19  36  58  82 115 152 189 236 288 340
#     4  10  21  36  57  86 111 142 187 235 287 339
#     4  10  22  36  55  85 116 152 189 231 288 347
#
# _framework density 19.859107000000002
#
# number of rings (size 3 to 8) (size 9 to 14) (size 15 to 20)
#    0.000    2.000    0.000    5.143    0.000    6.286 
#    0.000    4.286    0.000    0.000    0.000    0.000 
#    0.000    0.000    0.000    0.000    0.000    0.000 
#
# Total GULP energy -156137.652073 kJ/mol
# GULP energy per Si atom -5576.344717 kJ/mol
# Density = 1.981391 g / cm^3
# Si number density = 19.859107 Si / 1000 Ang^3
#
#
#
# Elastic Constant Matrix: (Units=GPa)
#
#
# Indices 1 2 3 4 5 6 
#
# 1 178.7166 32.7049 41.2382 0.0000 -30.9409 0.0000
# 2 32.7049 85.4388 16.4050 0.0000 4.4212 0.0000
# 3 41.2382 16.4050 87.8252 0.0000 -24.0806 0.0000
# 4 0.0000 0.0000 0.0000 8.4051 0.0000 -7.4923
# 5 -30.9409 4.4212 -24.0806 0.0000 21.5286 0.0000
# 6 0.0000 0.0000 0.0000 -7.4923 0.0000 30.4680
#
#
#
# Elastic Compliance Matrix: (Units=1/GPa)
#
#
# Indices 1 2 3 4 5 6 
#
# 1 0.008620 -0.004110 0.000503 0.000000 0.013795 0.000000
# 2 -0.004110 0.014939 -0.004791 0.000000 -0.014333 0.000000
# 3 0.000503 -0.004791 0.018048 0.000000 0.021894 0.000000
# 4 0.000000 0.000000 0.000000 0.152376 0.000000 0.037470
# 5 0.013795 -0.014333 0.021894 0.000000 0.093708 0.000000
# 6 0.000000 0.000000 0.000000 0.037470 0.000000 0.042036
#
#
# Mechanical properties :
#
#
# Convention : Reuss Voigt Hill
#
# Bulk Modulus (GPa) = 40.30472 59.18629 49.74551
# Shear Modulus (GPa) = 14.09271 29.52250 21.80760
#
# Velocity S-wave (km/s) = 2.66679 3.85982 3.31738
# Velocity P-wave (km/s) = 5.46093 7.05210 6.30690
#
# Compressibility (1/GPa) = 0.02481099
#
# Stress axis : x y z
#
# Youngs Moduli (GPa) = 116.01175 66.93863 55.40734
#
# Poissons Ratio (x) = 0.27511 -0.02785
# Poissons Ratio (y) = 0.47679 0.26544
# Poissons Ratio (z) = -0.05830 0.32068
#
# Static dielectric constant tensor:
#      x y z
#    x 1.716340 0.000000 -0.024980 
#    y 0.000000 1.735130 0.000000 
#    z -0.024980 0.000000 1.728030 
# 
# From -- ./inp_files/82161.got.cif
#   From: 2010.05.17/outbox.cif.g08.bks.cpg/sg15_42_cif.got.tgz:82161.got - 2010.06.03 18:47:42.
