data_PCOD9265749
_publ_section_title
;
Structure prediction by ZEFSAII (Michael W. Deem and Ramdas Pophale) SiO2 
 PCOD9265749
Probable space group: C 2/C
;
_chemical_formula_sum "Si O2"
_cell_formula_units_Z 52
_cell_length_a 21.992152
_cell_length_b 7.683641
_cell_length_c 13.649614
_cell_angle_alpha 90.000000
_cell_angle_beta 110.890066
_cell_angle_gamma 90.000000
_cell_volume 2154.893708
_symmetry_space_group_name_H-M "C 2/C"
_symmetry_group_IT_number 15
_symmetry_cell_setting 'monoclinic'
loop_
_space_group_symop_operation_xyz
x,y,z
-x,y,1/2-z
-x,-y,-z
x,-y,1/2+z
1/2+x,1/2+y,z
1/2-x,1/2+y,1/2-z
1/2-x,1/2-y,-z
1/2+x,1/2-y,1/2+z
loop_
_atom_site_type_symbol
_atom_site_label
_atom_site_fract_x
_atom_site_fract_y
_atom_site_fract_z
Si Si1 0.428735 0.072094 0.941945
Si Si2 0.197567 0.957966 0.613217
Si Si3 0.812724 0.586774 0.999164
Si Si4 0.756054 0.681458 0.330943
Si Si5 0.876318 0.628832 0.248291
Si Si6 0.500000 0.644808 0.750000
Si Si7 0.062524 0.041280 0.974630
O O1 0.374009 0.991417 0.980019
O O2 0.405147 0.042961 0.817893
O O3 0.425609 0.263505 0.982261
O O4 0.500000 0.000000 0.000000
O O5 0.205350 0.781836 0.552469
O O6 0.199774 0.885724 0.725306
O O7 0.130070 0.045702 0.540526
O O8 0.248374 0.118252 0.638573
O O9 0.759014 0.453942 0.923316
O O10 0.842049 0.613330 0.123795
O O11 0.818353 0.685262 0.290025
O O12 0.942659 0.744347 0.271996
O O13 0.541002 0.534474 0.850822
O O14 0.000000 0.000000 0.000000
#
# Coordination Sequence:
#
# PCOD9265749 Si02
#       7
#     8   8   8   8   8   4   8
#     4  10  19  36  65  89 127 171 210 263 327 387
#     4  11  22  44  65  93 132 172 219 275 324 395
#     4  10  22  42  62  96 133 166 220 275 320 396
#     4  11  24  42  71  92 129 177 218 269 338 384
#     4  11  21  40  68  97 128 174 218 267 332 388
#     4  12  20  42  66  96 132 168 218 268 326 398
#     4  11  24  42  63  98 136 169 216 275 333 387
#
# _framework density 24.131119999999999
#
# number of rings (size 3 to 8) (size 9 to 14) (size 15 to 20)
#    0.000    1.231    6.154    0.923    2.154    0.615 
#    2.769    3.846    0.000    0.000    0.000    0.000 
#    0.000    0.000    0.000    0.000    0.000    0.000 
#
# Total GULP energy -144899.233683 kJ/mol
# GULP energy per Si atom -5573.047449 kJ/mol
# Density = 2.407620 g / cm^3
# Si number density = 24.131120 Si / 1000 Ang^3
#
#
#
# Elastic Constant Matrix: (Units=GPa)
#
#
# Indices 1 2 3 4 5 6 
#
# 1 65.0207 -14.8543 7.1582 0.0000 10.5430 0.0000
# 2 -14.8543 89.4893 53.9649 0.0000 9.7191 0.0000
# 3 7.1582 53.9649 230.6184 0.0000 20.0406 0.0000
# 4 0.0000 0.0000 0.0000 28.5633 0.0000 -1.3468
# 5 10.5430 9.7191 20.0406 0.0000 40.0932 0.0000
# 6 0.0000 0.0000 0.0000 -1.3468 0.0000 24.8429
#
#
#
# Elastic Compliance Matrix: (Units=1/GPa)
#
#
# Indices 1 2 3 4 5 6 
#
# 1 0.017224 0.004030 -0.001045 0.000000 -0.004984 0.000000
# 2 0.004030 0.014066 -0.003166 0.000000 -0.002887 0.000000
# 3 -0.001045 -0.003166 0.005247 0.000000 -0.001580 0.000000
# 4 0.000000 0.000000 0.000000 0.035100 0.000000 0.001903
# 5 -0.004984 -0.002887 -0.001580 0.000000 0.027742 0.000000
# 6 0.000000 0.000000 0.000000 0.001903 0.000000 0.040356
#
#
# Mechanical properties :
#
#
# Convention : Reuss Voigt Hill
#
# Bulk Modulus (GPa) = 27.64255 53.07402 40.35829
# Shear Modulus (GPa) = 32.86159 41.29053 37.07606
#
# Velocity S-wave (km/s) = 3.69425 4.14102 3.92400
# Velocity P-wave (km/s) = 5.44763 6.70118 6.10666
#
# Compressibility (1/GPa) = 0.03617611
#
# Stress axis : x y z
#
# Youngs Moduli (GPa) = 58.06003 71.09321 190.59594
#
# Poissons Ratio (x) = -0.28651 0.19909
# Poissons Ratio (y) = -0.23399 0.60336
# Poissons Ratio (z) = 0.06065 0.22506
#
# Static dielectric constant tensor:
#      x y z
#    x 3.903090 0.000000 -0.057420 
#    y 0.000000 2.051410 0.000000 
#    z -0.057420 0.000000 1.924590 
# 
# From -- ./inp_files/176283.got.cif
#   From: 2010.05.17/outbox.cif.g08.bks.cpg/sg15_89_cif.got.tgz:176283.got - 2010.06.03 18:47:42.
