data_PCOD9265954
_publ_section_title
;
Structure prediction by ZEFSAII (Michael W. Deem and Ramdas Pophale) SiO2 
 PCOD9265954
Probable space group: C 2/C
;
_chemical_formula_sum "Si O2"
_cell_formula_units_Z 64
_cell_length_a 28.032548
_cell_length_b 5.285418
_cell_length_c 22.575838
_cell_angle_alpha 90.000000
_cell_angle_beta 93.704484
_cell_angle_gamma 90.000000
_cell_volume 3337.931457
_symmetry_space_group_name_H-M "C 2/C"
_symmetry_group_IT_number 15
_symmetry_cell_setting 'monoclinic'
loop_
_space_group_symop_operation_xyz
x,y,z
-x,y,1/2-z
-x,-y,-z
x,-y,1/2+z
1/2+x,1/2+y,z
1/2-x,1/2+y,1/2-z
1/2-x,1/2-y,-z
1/2+x,1/2-y,1/2+z
loop_
_atom_site_type_symbol
_atom_site_label
_atom_site_fract_x
_atom_site_fract_y
_atom_site_fract_z
Si Si1 0.053445 0.754670 0.960850
Si Si2 0.644909 0.175304 0.894872
Si Si3 0.813318 0.445529 0.978171
Si Si4 0.805265 0.403430 0.694289
Si Si5 0.349390 0.440833 0.913343
Si Si6 0.711586 0.335754 0.192201
Si Si7 0.234363 0.021990 0.893267
Si Si8 0.444470 0.754988 0.460231
O O1 0.092099 0.739072 0.911938
O O2 0.997967 0.720485 0.939253
O O3 0.065311 0.526043 0.008607
O O4 0.056093 0.032561 0.990316
O O5 0.681413 0.405873 0.887241
O O6 0.649647 0.021399 0.834543
O O7 0.669721 0.037890 0.953169
O O8 0.837617 0.192410 0.951863
O O9 0.756612 0.466483 0.959284
O O10 0.829488 0.699715 0.946524
O O11 0.764600 0.584038 0.718406
O O12 0.816501 0.226580 0.750037
O O13 0.774184 0.291236 0.636973
O O14 0.322199 0.485151 0.849692
O O15 0.404775 0.356991 0.912552
O O16 0.727915 0.117632 0.147241
#
# Coordination Sequence:
#
# PCOD9265954 Si02
#       8
#     8   8   8   8   8   8   8   8
#     4  10  21  35  58  84 124 147 188 233 288 365
#     4  11  23  34  53  86 119 156 189 239 299 361
#     4  11  22  36  54  85 123 153 189 233 293 362
#     4  11  21  36  55  75 117 158 200 243 289 338
#     4  11  20  36  61  83 115 155 195 245 286 343
#     4  10  21  37  55  78 113 152 211 244 279 342
#     4  10  22  35  53  78 114 161 189 242 290 344
#     4  10  19  37  58  85 116 156 184 234 294 343
#
# _framework density 19.173549999999999
#
# number of rings (size 3 to 8) (size 9 to 14) (size 15 to 20)
#    0.000    1.500    5.000    0.375    3.500    0.500 
#    0.000    0.000    0.000    0.000    0.000    0.875 
#    3.750    0.000    0.000    0.000    0.000    0.000 
#
# Total GULP energy -178200.652954 kJ/mol
# GULP energy per Si atom -5568.770405 kJ/mol
# Density = 1.912991 g / cm^3
# Si number density = 19.173550 Si / 1000 Ang^3
#
#
#
# Elastic Constant Matrix: (Units=GPa)
#
#
# Indices 1 2 3 4 5 6 
#
# 1 126.0471 21.2766 38.8789 0.0000 -21.5190 0.0000
# 2 21.2766 78.7500 19.2276 0.0000 -8.0583 0.0000
# 3 38.8789 19.2276 84.8807 0.0000 -16.0492 0.0000
# 4 0.0000 0.0000 0.0000 25.6893 0.0000 -2.5908
# 5 -21.5190 -8.0583 -16.0492 0.0000 24.9302 0.0000
# 6 0.0000 0.0000 0.0000 -2.5908 0.0000 24.4892
#
#
#
# Elastic Compliance Matrix: (Units=1/GPa)
#
#
# Indices 1 2 3 4 5 6 
#
# 1 0.010223 -0.001336 -0.003180 0.000000 0.006345 0.000000
# 2 -0.001336 0.013780 -0.002147 0.000000 0.001919 0.000000
# 3 -0.003180 -0.002147 0.014886 0.000000 0.006144 0.000000
# 4 0.000000 0.000000 0.000000 0.039346 0.000000 0.004163
# 5 0.006345 0.001919 0.006144 0.000000 0.050164 0.000000
# 6 0.000000 0.000000 0.000000 0.004163 0.000000 0.041275
#
#
# Mechanical properties :
#
#
# Convention : Reuss Voigt Hill
#
# Bulk Modulus (GPa) = 39.11947 49.82714 44.47330
# Shear Modulus (GPa) = 26.10666 29.04140 27.57403
#
# Velocity S-wave (km/s) = 3.69399 3.89608 3.79638
# Velocity P-wave (km/s) = 6.21620 6.80317 6.51630
#
# Compressibility (1/GPa) = 0.02556272
#
# Stress axis : x y z
#
# Youngs Moduli (GPa) = 97.81563 72.56940 67.17768
#
# Poissons Ratio (x) = 0.09698 0.21364
# Poissons Ratio (y) = 0.13072 0.14420
# Poissons Ratio (z) = 0.31108 0.15578
#
# Static dielectric constant tensor:
#      x y z
#    x 1.751810 0.000000 0.018910 
#    y 0.000000 1.797850 0.000000 
#    z 0.018910 0.000000 1.730100 
# 
# From -- ./inp_files/282882.got.cif
#   From: 2010.05.17/outbox.cif.g08.bks.cpg/sg15_142_cif.got.tgz:282882.got - 2010.06.03 18:47:42.
