data_PCOD9265667
_publ_section_title
;
Structure prediction by ZEFSAII (Michael W. Deem and Ramdas Pophale) SiO2 
 PCOD9265667
Probable space group: C 2/C
;
_chemical_formula_sum "Si O2"
_cell_formula_units_Z 32
_cell_length_a 15.867798
_cell_length_b 17.657159
_cell_length_c 5.597345
_cell_angle_alpha 90.000000
_cell_angle_beta 57.877695
_cell_angle_gamma 90.000000
_cell_volume 1328.187488
_symmetry_space_group_name_H-M "C 2/C"
_symmetry_group_IT_number 15
_symmetry_cell_setting 'monoclinic'
loop_
_space_group_symop_operation_xyz
x,y,z
-x,y,1/2-z
-x,-y,-z
x,-y,1/2+z
1/2+x,1/2+y,z
1/2-x,1/2+y,1/2-z
1/2-x,1/2-y,-z
1/2+x,1/2-y,1/2+z
loop_
_atom_site_type_symbol
_atom_site_label
_atom_site_fract_x
_atom_site_fract_y
_atom_site_fract_z
Si Si1 0.600485 0.810317 0.748338
Si Si2 0.125141 0.535312 0.429523
Si Si3 0.788939 0.188889 0.633422
Si Si4 0.649307 0.521836 0.976804
O O1 0.500000 0.807429 0.750000
O O2 0.600461 0.876656 0.943059
O O3 0.692296 0.831091 0.436613
O O4 0.630308 0.731979 0.826444
O O5 0.090311 0.504078 0.736320
O O6 0.243833 0.518943 0.232993
O O7 0.750000 0.250000 0.500000
O O8 0.833599 0.109832 0.481378
O O9 0.603224 0.517632 0.779647
#
# Coordination Sequence:
#
# PCOD9265667 Si02
#       4
#     8   8   8   8
#     4  11  25  40  61  95 131 169 212 261 320 384
#     4  10  19  37  58  92 128 167 204 254 315 386
#     4  11  23  41  65  90 130 172 212 261 321 382
#     4  10  19  36  63  92 120 165 213 260 314 381
#
# _framework density 24.092984000000001
#
# number of rings (size 3 to 8) (size 9 to 14) (size 15 to 20)
#    0.000    1.500    5.000    3.000    3.500    2.000 
#    0.000    0.000    0.000    1.500    0.000    0.000 
#    0.000    0.000    0.000    0.000    0.000    0.000 
#
# Total GULP energy -89538.276582 kJ/mol
# GULP energy per Si atom -5596.142286 kJ/mol
# Density = 2.403815 g / cm^3
# Si number density = 24.092984 Si / 1000 Ang^3
#
#
#
# Elastic Constant Matrix: (Units=GPa)
#
#
# Indices 1 2 3 4 5 6 
#
# 1 75.4226 20.2512 38.0024 0.0000 -3.9248 0.0000
# 2 20.2512 100.7491 29.6657 0.0000 -5.4977 0.0000
# 3 38.0024 29.6657 135.5041 0.0000 27.3954 0.0000
# 4 0.0000 0.0000 0.0000 27.8590 0.0000 15.8365
# 5 -3.9248 -5.4977 27.3954 0.0000 36.2038 0.0000
# 6 0.0000 0.0000 0.0000 15.8365 0.0000 3.8323
#
#
#
# Elastic Compliance Matrix: (Units=1/GPa)
#
#
# Indices 1 2 3 4 5 6 
#
# 1 0.016741 -0.001411 -0.005561 0.000000 0.005808 0.000000
# 2 -0.001411 0.011237 -0.002808 0.000000 0.003678 0.000000
# 3 -0.005561 -0.002808 0.011525 0.000000 -0.009750 0.000000
# 4 0.000000 0.000000 0.000000 -0.026607 0.000000 0.109951
# 5 0.005808 0.003678 -0.009750 0.000000 0.036188 0.000000
# 6 0.000000 0.000000 0.000000 0.109951 0.000000 -0.193422
#
#
# Mechanical properties :
#
#
# Convention : Reuss Voigt Hill
#
# Bulk Modulus (GPa) = 50.13874 54.16828 52.15351
# Shear Modulus (GPa) = -42.32618 28.49612 -6.91503
#
# Velocity S-wave (km/s) = -4.19595 3.44285 -1.69599
# Velocity P-wave (km/s) = 1.61832 6.19162 4.22594
#
# Compressibility (1/GPa) = 0.01994466
#
# Stress axis : x y z
#
# Youngs Moduli (GPa) = 59.73197 88.99348 86.76507
#
# Poissons Ratio (x) = 0.12556 0.48247
# Poissons Ratio (y) = 0.08427 0.24364
# Poissons Ratio (z) = 0.33215 0.24989
#
# Static dielectric constant tensor:
#      x y z
#    x 2.009980 0.000000 0.039760 
#    y 0.000000 1.907940 0.000000 
#    z 0.039760 0.000000 1.949380 
# 
# From -- ./inp_files/6503.got.cif
#   From: 2010.05.17/outbox.cif.g08.bks.cpg/sg15_4_cif.got.tgz:6503.got - 2010.06.03 18:47:42.
