data_PCOD9265637
_publ_section_title
;
Structure prediction by ZEFSAII (Michael W. Deem and Ramdas Pophale) SiO2 
 PCOD9265637
Probable space group: C 2/C
;
_chemical_formula_sum "Si O2"
_cell_formula_units_Z 56
_cell_length_a 24.928244
_cell_length_b 8.672656
_cell_length_c 15.332233
_cell_angle_alpha 90.000000
_cell_angle_beta 57.963804
_cell_angle_gamma 90.000000
_cell_volume 2809.947082
_symmetry_space_group_name_H-M "C 2/C"
_symmetry_group_IT_number 15
_symmetry_cell_setting 'monoclinic'
loop_
_space_group_symop_operation_xyz
x,y,z
-x,y,1/2-z
-x,-y,-z
x,-y,1/2+z
1/2+x,1/2+y,z
1/2-x,1/2+y,1/2-z
1/2-x,1/2-y,-z
1/2+x,1/2-y,1/2+z
loop_
_atom_site_type_symbol
_atom_site_label
_atom_site_fract_x
_atom_site_fract_y
_atom_site_fract_z
Si Si1 0.234725 0.241088 0.880510
Si Si2 0.573260 0.528559 0.411407
Si Si3 0.154384 0.519572 0.662645
Si Si4 0.747751 0.435822 0.052981
Si Si5 0.831896 0.239444 0.735974
Si Si6 0.641540 0.504550 0.528516
Si Si7 0.569421 0.315005 0.729197
O O1 0.288603 0.111139 0.837257
O O2 0.260475 0.384869 0.912115
O O3 0.210510 0.296929 0.808196
O O4 0.173366 0.157462 0.972786
O O5 0.500000 0.500000 0.500000
O O6 0.615000 0.382026 0.341997
O O7 0.607377 0.573933 0.473419
O O8 0.573269 0.642802 0.328499
O O9 0.183156 0.444777 0.549545
O O10 0.135529 0.379449 0.741101
O O11 0.104454 0.652281 0.686442
O O12 0.720085 0.341358 0.156884
O O13 0.699887 0.397368 0.015028
O O14 0.598689 0.456596 0.647505
O O15 0.500000 0.298620 0.750000
#
# Coordination Sequence:
#
# PCOD9265637 Si02
#       7
#     8   8   8   8   8   8   8
#     4  10  19  36  63  88 124 162 203 247 314 379
#     4  11  23  39  65  91 118 164 220 255 297 364
#     4  11  22  38  59  93 127 161 201 252 321 372
#     4  11  19  38  63  91 126 167 202 256 311 375
#     4  11  23  36  60  96 130 155 205 262 314 363
#     4  10  19  37  63  91 117 160 210 254 299 365
#     4  12  22  41  67  86 124 171 209 250 306 371
#
# _framework density 19.929200000000002
#
# number of rings (size 3 to 8) (size 9 to 14) (size 15 to 20)
#    0.000    1.143    5.714    2.143    0.000    2.286 
#    0.000    4.286    0.000    0.000    0.000    0.000 
#    0.000    0.000    0.000    0.000    0.000    0.000 
#
# Total GULP energy -156110.287472 kJ/mol
# GULP energy per Si atom -5575.367410 kJ/mol
# Density = 1.988384 g / cm^3
# Si number density = 19.929200 Si / 1000 Ang^3
#
#
#
# Elastic Constant Matrix: (Units=GPa)
#
#
# Indices 1 2 3 4 5 6 
#
# 1 91.2595 -3.9852 31.7006 0.0000 7.6015 0.0000
# 2 -3.9852 51.4013 14.2818 0.0000 -0.3104 0.0000
# 3 31.7006 14.2818 98.5688 0.0000 6.8597 0.0000
# 4 0.0000 0.0000 0.0000 27.6862 0.0000 4.0451
# 5 7.6015 -0.3104 6.8597 0.0000 37.0971 0.0000
# 6 0.0000 0.0000 0.0000 4.0451 0.0000 12.2814
#
#
#
# Elastic Compliance Matrix: (Units=1/GPa)
#
#
# Indices 1 2 3 4 5 6 
#
# 1 0.012684 0.002158 -0.004267 0.000000 -0.001792 0.000000
# 2 0.002158 0.020657 -0.003716 0.000000 0.000418 0.000000
# 3 -0.004267 -0.003716 0.012154 0.000000 -0.001404 0.000000
# 4 0.000000 0.000000 0.000000 0.037945 0.000000 -0.012498
# 5 -0.001792 0.000418 -0.001404 0.000000 0.027587 0.000000
# 6 0.000000 0.000000 0.000000 -0.012498 0.000000 0.085540
#
#
# Mechanical properties :
#
#
# Convention : Reuss Voigt Hill
#
# Bulk Modulus (GPa) = 29.54730 36.13600 32.84165
# Shear Modulus (GPa) = 22.77923 28.69511 25.73717
#
# Velocity S-wave (km/s) = 3.38451 3.79866 3.59755
# Velocity P-wave (km/s) = 5.48922 6.11647 5.81132
#
# Compressibility (1/GPa) = 0.03384403
#
# Stress axis : x y z
#
# Youngs Moduli (GPa) = 78.84241 48.40937 82.27942
#
# Poissons Ratio (x) = -0.10448 0.35110
# Poissons Ratio (y) = -0.17015 0.30577
# Poissons Ratio (z) = 0.33643 0.17990
#
# Static dielectric constant tensor:
#      x y z
#    x 1.725950 0.000000 0.015420 
#    y 0.000000 1.693230 0.000000 
#    z 0.015420 0.000000 1.766420 
# 
# From -- ./inp_files/172258.got.cif
#   From: 2010.05.17/outbox.cif.g08.bks.cpg/sg15_87_cif.got.tgz:172258.got - 2010.06.03 18:47:42.
