data_PCOD9265677
_publ_section_title
;
Structure prediction by ZEFSAII (Michael W. Deem and Ramdas Pophale) SiO2 
 PCOD9265677
Probable space group: C 2/C
;
_chemical_formula_sum "Si O2"
_cell_formula_units_Z 60
_cell_length_a 12.645062
_cell_length_b 15.237223
_cell_length_c 19.120996
_cell_angle_alpha 90.000000
_cell_angle_beta 133.178166
_cell_angle_gamma 90.000000
_cell_volume 2686.590593
_symmetry_space_group_name_H-M "C 2/C"
_symmetry_group_IT_number 15
_symmetry_cell_setting 'monoclinic'
loop_
_space_group_symop_operation_xyz
x,y,z
-x,y,1/2-z
-x,-y,-z
x,-y,1/2+z
1/2+x,1/2+y,z
1/2-x,1/2+y,1/2-z
1/2-x,1/2-y,-z
1/2+x,1/2-y,1/2+z
loop_
_atom_site_type_symbol
_atom_site_label
_atom_site_fract_x
_atom_site_fract_y
_atom_site_fract_z
Si Si1 0.500000 0.106065 0.250000
Si Si2 0.282420 0.636243 0.446537
Si Si3 0.554047 0.878449 0.113692
Si Si4 0.747048 0.050604 0.979596
Si Si5 0.080023 0.944165 0.631475
Si Si6 0.998161 0.730038 0.460909
Si Si7 0.768219 0.121721 0.836710
Si Si8 0.639142 0.063533 0.170808
O O1 0.631800 0.161122 0.341418
O O2 0.569347 0.051162 0.217308
O O3 0.246052 0.555280 0.480935
O O4 0.380141 0.594915 0.426977
O O5 0.377146 0.713870 0.519970
O O6 0.383250 0.902451 0.039945
O O7 0.638981 0.858324 0.224181
O O8 0.626557 0.971670 0.125006
O O9 0.563807 0.798015 0.065260
O O10 0.718481 0.077851 0.886297
O O11 0.913117 0.074514 0.072060
O O12 0.195702 0.909067 0.739773
O O13 0.122354 0.047962 0.646532
O O14 0.858364 0.792307 0.397588
O O15 0.950585 0.640289 0.404140
#
# Coordination Sequence:
#
# PCOD9265677 Si02
#       8
#     4   8   8   8   8   8   8   8
#     4  10  20  38  68  94 112 158 230 266 292 378
#     4  10  19  36  63  94 119 158 215 266 308 375
#     4  11  25  39  62  94 133 171 212 261 331 386
#     4  11  18  39  65  91 122 165 226 261 309 378
#     4   9  18  37  64  88 117 163 219 257 313 379
#     4  12  24  40  63  94 136 166 204 267 338 379
#     4  10  21  37  62  95 118 168 214 270 308 381
#     4  10  23  41  66  89 130 168 212 260 329 386
#
# _framework density 22.333138999999999
#
# number of rings (size 3 to 8) (size 9 to 14) (size 15 to 20)
#    0.000    1.600    4.000    2.400    3.733    1.067 
#    0.000    2.000    0.000    0.000    0.000    0.000 
#    0.000    0.000    0.000    0.000    0.000    0.000 
#
# Total GULP energy -167536.203791 kJ/mol
# GULP energy per Si atom -5584.540126 kJ/mol
# Density = 2.228231 g / cm^3
# Si number density = 22.333139 Si / 1000 Ang^3
#
#
#
# Elastic Constant Matrix: (Units=GPa)
#
#
# Indices 1 2 3 4 5 6 
#
# 1 42.0531 6.3508 28.3803 0.0000 21.1259 0.0000
# 2 6.3508 85.6173 27.8721 0.0000 -6.3667 0.0000
# 3 28.3803 27.8721 125.9922 0.0000 30.2173 0.0000
# 4 0.0000 0.0000 0.0000 40.6413 0.0000 6.7218
# 5 21.1259 -6.3667 30.2173 0.0000 35.5561 0.0000
# 6 0.0000 0.0000 0.0000 6.7218 0.0000 11.4694
#
#
#
# Elastic Compliance Matrix: (Units=1/GPa)
#
#
# Indices 1 2 3 4 5 6 
#
# 1 0.035958 -0.003268 -0.002653 0.000000 -0.019695 0.000000
# 2 -0.003268 0.013915 -0.004277 0.000000 0.008068 0.000000
# 3 -0.002653 -0.004277 0.011664 0.000000 -0.009102 0.000000
# 4 0.000000 0.000000 0.000000 0.027246 0.000000 -0.015968
# 5 -0.019695 0.008068 -0.009102 0.000000 0.049006 0.000000
# 6 0.000000 0.000000 0.000000 -0.015968 0.000000 0.096547
#
#
# Mechanical properties :
#
#
# Convention : Reuss Voigt Hill
#
# Bulk Modulus (GPa) = 24.30763 42.09659 33.20211
# Shear Modulus (GPa) = 18.62578 30.27066 24.44822
#
# Velocity S-wave (km/s) = 2.89103 3.68559 3.31222
# Velocity P-wave (km/s) = 4.69594 6.08290 5.43386
#
# Compressibility (1/GPa) = 0.04113934
#
# Stress axis : x y z
#
# Youngs Moduli (GPa) = 27.81061 71.86679 85.73568
#
# Poissons Ratio (x) = 0.23487 0.22747
# Poissons Ratio (y) = 0.09089 0.36670
# Poissons Ratio (z) = 0.07378 0.30738
#
# Static dielectric constant tensor:
#      x y z
#    x 1.855050 0.000000 0.006280 
#    y 0.000000 1.854730 0.000000 
#    z 0.006280 0.000000 1.860420 
# 
# From -- ./inp_files/244718.got.cif
#   From: 2010.05.17/outbox.cif.g08.bks.cpg/sg15_123_cif.got.tgz:244718.got - 2010.06.03 18:47:42.
