data_PCOD9265736
_publ_section_title
;
Structure prediction by ZEFSAII (Michael W. Deem and Ramdas Pophale) SiO2 
 PCOD9265736
Probable space group: C 2/C
;
_chemical_formula_sum "Si O2"
_cell_formula_units_Z 56
_cell_length_a 27.431483
_cell_length_b 9.161403
_cell_length_c 17.761697
_cell_angle_alpha 90.000000
_cell_angle_beta 140.472537
_cell_angle_gamma 90.000000
_cell_volume 2840.917744
_symmetry_space_group_name_H-M "C 2/C"
_symmetry_group_IT_number 15
_symmetry_cell_setting 'monoclinic'
loop_
_space_group_symop_operation_xyz
x,y,z
-x,y,1/2-z
-x,-y,-z
x,-y,1/2+z
1/2+x,1/2+y,z
1/2-x,1/2+y,1/2-z
1/2-x,1/2-y,-z
1/2+x,1/2-y,1/2+z
loop_
_atom_site_type_symbol
_atom_site_label
_atom_site_fract_x
_atom_site_fract_y
_atom_site_fract_z
Si Si1 0.013752 0.260707 0.686902
Si Si2 0.359399 0.016470 0.200218
Si Si3 0.609881 0.818863 0.612206
Si Si4 0.249210 0.901526 0.452493
Si Si5 0.570319 0.785105 0.115500
Si Si6 0.902749 0.952072 0.317717
Si Si7 0.864699 0.419228 0.453749
O O1 0.085180 0.370518 0.776620
O O2 0.030361 0.140549 0.643436
O O3 0.000000 0.185960 0.750000
O O4 0.943266 0.365201 0.584410
O O5 0.349121 0.105073 0.266851
O O6 0.401315 0.870502 0.276679
O O7 0.288766 0.991792 0.060623
O O8 0.516947 0.838067 0.504832
O O9 0.621997 0.647070 0.639847
O O10 0.635953 0.910238 0.571043
O O11 0.250000 0.750000 0.500000
O O12 0.166102 0.949158 0.324750
O O13 0.298810 0.887726 0.435122
O O14 0.573167 0.612961 0.131432
O O15 0.628225 0.831974 0.117240
#
# Coordination Sequence:
#
# PCOD9265736 Si02
#       7
#     8   8   8   8   8   8   8
#     4  11  18  36  61  89 110 161 212 249 298 364
#     4  10  19  36  65  81 115 154 205 248 298 361
#     4  10  19  37  62  91 113 156 205 254 302 358
#     4  12  23  41  61  90 124 169 204 250 311 374
#     4  11  21  39  61  94 120 156 201 267 306 353
#     4  11  24  37  60  87 135 159 193 257 324 362
#     4  11  21  35  67  90 116 159 220 250 298 373
#
# _framework density 19.711940999999999
#
# number of rings (size 3 to 8) (size 9 to 14) (size 15 to 20)
#    0.000    1.143    8.571    1.286    0.000    1.714 
#    0.000    2.143    3.143    0.000    0.000    0.000 
#    0.000    0.000    0.000    0.000    0.000    0.000 
#
# Total GULP energy -156006.874107 kJ/mol
# GULP energy per Si atom -5571.674075 kJ/mol
# Density = 1.966708 g / cm^3
# Si number density = 19.711941 Si / 1000 Ang^3
#
#
#
# Elastic Constant Matrix: (Units=GPa)
#
#
# Indices 1 2 3 4 5 6 
#
# 1 89.1775 18.6364 8.7777 0.0000 -19.3052 0.0000
# 2 18.6364 101.0671 4.4232 0.0000 -17.5208 0.0000
# 3 8.7777 4.4232 91.2008 0.0000 -9.6593 0.0000
# 4 0.0000 0.0000 0.0000 28.1146 0.0000 -5.4952
# 5 -19.3052 -17.5208 -9.6593 0.0000 19.7301 0.0000
# 6 0.0000 0.0000 0.0000 -5.4952 0.0000 17.5465
#
#
#
# Elastic Compliance Matrix: (Units=1/GPa)
#
#
# Indices 1 2 3 4 5 6 
#
# 1 0.014233 -0.000244 0.000099 0.000000 0.013759 0.000000
# 2 -0.000244 0.011726 0.000561 0.000000 0.010450 0.000000
# 3 0.000099 0.000561 0.011592 0.000000 0.006271 0.000000
# 4 0.000000 0.000000 0.000000 0.037888 0.000000 0.011866
# 5 0.013759 0.010450 0.006271 0.000000 0.076496 0.000000
# 6 0.000000 0.000000 0.000000 0.011866 0.000000 0.060707
#
#
# Mechanical properties :
#
#
# Convention : Reuss Voigt Hill
#
# Bulk Modulus (GPa) = 26.05137 38.34668 32.19903
# Shear Modulus (GPa) = 22.26135 29.71879 25.99007
#
# Velocity S-wave (km/s) = 3.36420 3.88706 3.63505
# Velocity P-wave (km/s) = 5.32308 6.29615 5.82995
#
# Compressibility (1/GPa) = 0.03838569
#
# Stress axis : x y z
#
# Youngs Moduli (GPa) = 70.25783 85.27833 86.26485
#
# Poissons Ratio (x) = 0.02078 -0.00855
# Poissons Ratio (y) = 0.01712 -0.04844
# Poissons Ratio (z) = -0.00697 -0.04788
#
# Static dielectric constant tensor:
#      x y z
#    x 1.718160 0.000000 -0.010480 
#    y 0.000000 1.701210 0.000000 
#    z -0.010480 0.000000 1.756610 
# 
# From -- ./inp_files/222056.got.cif
#   From: 2010.05.17/outbox.cif.g08.bks.cpg/sg15_112_cif.got.tgz:222056.got - 2010.06.03 18:47:42.
