data_PCOD9265404
_publ_section_title
;
Structure prediction by ZEFSAII (Michael W. Deem and Ramdas Pophale) SiO2 
 PCOD9265404
Probable space group: C 2/C
;
_chemical_formula_sum "Si O2"
_cell_formula_units_Z 48
_cell_length_a 26.447427
_cell_length_b 8.662661
_cell_length_c 14.201054
_cell_angle_alpha 90.000000
_cell_angle_beta 144.343950
_cell_angle_gamma 90.000000
_cell_volume 1896.543794
_symmetry_space_group_name_H-M "C 2/C"
_symmetry_group_IT_number 15
_symmetry_cell_setting 'monoclinic'
loop_
_space_group_symop_operation_xyz
x,y,z
-x,y,1/2-z
-x,-y,-z
x,-y,1/2+z
1/2+x,1/2+y,z
1/2-x,1/2+y,1/2-z
1/2-x,1/2-y,-z
1/2+x,1/2-y,1/2+z
loop_
_atom_site_type_symbol
_atom_site_label
_atom_site_fract_x
_atom_site_fract_y
_atom_site_fract_z
Si Si1 0.972361 0.762418 0.317482
Si Si2 0.403392 0.844304 0.073561
Si Si3 0.854786 0.976642 0.588609
Si Si4 0.804771 0.417410 0.544798
Si Si5 0.348546 0.650055 0.378171
Si Si6 0.693014 0.311060 0.225445
O O1 0.928387 0.931724 0.258013
O O2 0.000000 0.736430 0.250000
O O3 0.062178 0.763797 0.509503
O O4 0.894538 0.646545 0.223725
O O5 0.500000 0.888011 0.250000
O O6 0.383016 0.693853 0.105523
O O7 0.384272 0.791112 0.936558
O O8 0.340817 0.980747 0.011655
O O9 0.759779 0.981844 0.490185
O O10 0.855227 0.074161 0.492475
O O11 0.744173 0.288290 0.401057
O O12 0.335428 0.488702 0.305386
O O13 0.268352 0.768340 0.262424
#
# Coordination Sequence:
#
# PCOD9265404 Si02
#       6
#     8   8   8   8   8   8
#     4  10  19  36  60  90 115 160 201 239 292 362
#     4  11  24  42  63  87 121 162 202 246 298 365
#     4  10  21  38  62  89 125 157 194 251 310 348
#     4  12  22  37  67  91 118 157 205 250 300 352
#     4  10  21  38  62  87 125 160 203 248 292 368
#     4  11  21  38  63  90 117 160 208 245 295 356
#
# _framework density 25.309194999999999
#
# number of rings (size 3 to 8) (size 9 to 14) (size 15 to 20)
#    0.000    1.333    5.000    4.000    0.000    0.000 
#    0.000    3.333    0.000    5.000    0.000    0.000 
#    0.000    0.000    0.000    0.000    0.000    0.000 
#
# Total GULP energy -133967.746768 kJ/mol
# GULP energy per Si atom -5581.989449 kJ/mol
# Density = 2.525159 g / cm^3
# Si number density = 25.309195 Si / 1000 Ang^3
#
#
#
# Elastic Constant Matrix: (Units=GPa)
#
#
# Indices 1 2 3 4 5 6 
#
# 1 82.8475 9.4984 40.9096 0.0000 22.0657 0.0000
# 2 9.4984 64.6704 10.2331 0.0000 11.4334 0.0000
# 3 40.9096 10.2331 139.3444 0.0000 16.0596 0.0000
# 4 0.0000 0.0000 0.0000 35.8194 0.0000 13.5922
# 5 22.0657 11.4334 16.0596 0.0000 42.7133 0.0000
# 6 0.0000 0.0000 0.0000 13.5922 0.0000 16.8708
#
#
#
# Elastic Compliance Matrix: (Units=1/GPa)
#
#
# Indices 1 2 3 4 5 6 
#
# 1 0.015774 -0.000550 -0.003835 0.000000 -0.006560 0.000000
# 2 -0.000550 0.016320 -0.000592 0.000000 -0.003862 0.000000
# 3 -0.003835 -0.000592 0.008466 0.000000 -0.001044 0.000000
# 4 0.000000 0.000000 0.000000 0.040211 0.000000 -0.032397
# 5 -0.006560 -0.003862 -0.001044 0.000000 0.028227 0.000000
# 6 0.000000 0.000000 0.000000 -0.032397 0.000000 0.085375
#
#
# Mechanical properties :
#
#
# Convention : Reuss Voigt Hill
#
# Bulk Modulus (GPa) = 32.67251 45.34938 39.01094
# Shear Modulus (GPa) = 23.30680 34.16211 28.73446
#
# Velocity S-wave (km/s) = 3.03790 3.67794 3.37313
# Velocity P-wave (km/s) = 5.02419 5.99944 5.53334
#
# Compressibility (1/GPa) = 0.03060677
#
# Stress axis : x y z
#
# Youngs Moduli (GPa) = 63.39495 61.27359 118.11934
#
# Poissons Ratio (x) = 0.03372 0.45294
# Poissons Ratio (y) = 0.03489 0.06991
# Poissons Ratio (z) = 0.24310 0.03627
#
# Static dielectric constant tensor:
#      x y z
#    x 2.070990 0.000000 -0.077680 
#    y 0.000000 2.053380 0.000000 
#    z -0.077680 0.000000 2.148900 
# 
# From -- ./inp_files/224712.got.cif
#   From: 2010.05.17/outbox.cif.g08.bks.cpg/sg15_113_cif.got.tgz:224712.got - 2010.06.03 18:47:42.
