data_PCOD9265289
_publ_section_title
;
Structure prediction by ZEFSAII (Michael W. Deem and Ramdas Pophale) SiO2 
 PCOD9265289
Probable space group: C 2/C
;
_chemical_formula_sum "Si O2"
_cell_formula_units_Z 48
_cell_length_a 21.060735
_cell_length_b 16.375751
_cell_length_c 15.883712
_cell_angle_alpha 90.000000
_cell_angle_beta 26.792695
_cell_angle_gamma 90.000000
_cell_volume 2469.310613
_symmetry_space_group_name_H-M "C 2/C"
_symmetry_group_IT_number 15
_symmetry_cell_setting 'monoclinic'
loop_
_space_group_symop_operation_xyz
x,y,z
-x,y,1/2-z
-x,-y,-z
x,-y,1/2+z
1/2+x,1/2+y,z
1/2-x,1/2+y,1/2-z
1/2-x,1/2-y,-z
1/2+x,1/2-y,1/2+z
loop_
_atom_site_type_symbol
_atom_site_label
_atom_site_fract_x
_atom_site_fract_y
_atom_site_fract_z
Si Si1 0.410575 0.232705 0.984570
Si Si2 0.833841 0.867785 0.452503
Si Si3 0.871238 0.668714 0.645971
Si Si4 0.353260 0.183048 0.473081
Si Si5 0.000000 0.403373 0.250000
Si Si6 0.220076 0.534244 0.618416
Si Si7 0.500000 0.364566 0.750000
O O1 0.489621 0.206003 0.975853
O O2 0.416516 0.156769 0.912773
O O3 0.497266 0.304547 0.834012
O O4 0.256758 0.268862 0.182446
O O5 0.766269 0.862213 0.439243
O O6 0.813959 0.779255 0.517531
O O7 0.000000 0.883518 0.250000
O O8 0.757736 0.940924 0.590579
O O9 0.875733 0.655942 0.541478
O O10 0.835626 0.584891 0.736244
O O11 0.500000 0.175220 0.250000
O O12 0.105064 0.456334 0.181376
O O13 0.361332 0.580293 0.419741
#
# Coordination Sequence:
#
# PCOD9265289 Si02
#       7
#     8   8   8   8   4   8   4
#     4   9  18  32  55  86 122 158 196 231 283 354
#     4  10  22  41  64  84 111 158 193 235 289 352
#     4  10  21  36  59  89 117 149 200 246 281 337
#     4  10  24  43  64  81 112 160 198 236 286 350
#     4   9  18  32  54  87 126 164 184 225 302 350
#     4  10  19  36  59  89 121 147 192 243 292 341
#     4   9  16  32  56  83 122 162 184 235 294 344
#
# _framework density 19.438623
#
# number of rings (size 3 to 8) (size 9 to 14) (size 15 to 20)
#    0.000    2.333    0.833    1.000    8.167    4.000 
#    0.000    5.000    0.000    0.000    0.000    0.000 
#    0.000    0.000    0.000    0.000    0.000    0.000 
#
# Total GULP energy -134062.267105 kJ/mol
# GULP energy per Si atom -5585.927796 kJ/mol
# Density = 1.939438 g / cm^3
# Si number density = 19.438623 Si / 1000 Ang^3
#
#
#
# Elastic Constant Matrix: (Units=GPa)
#
#
# Indices 1 2 3 4 5 6 
#
# 1 146.8988 36.1094 44.9292 0.0002 0.4573 0.0002
# 2 36.1094 74.4865 24.1986 0.0003 -11.3671 0.0000
# 3 44.9292 24.1986 55.4699 0.0001 0.2729 0.0003
# 4 0.0002 0.0003 0.0001 6.0521 0.0000 0.2749
# 5 0.4573 -11.3671 0.2729 0.0000 24.8936 -0.0003
# 6 0.0002 0.0000 0.0003 0.2749 -0.0003 -7.4017
#
#
#
# Elastic Compliance Matrix: (Units=1/GPa)
#
#
# Indices 1 2 3 4 5 6 
#
# 1 0.009452 -0.002679 -0.006481 0.000000 -0.001326 0.000000
# 2 -0.002679 0.017816 -0.005643 -0.000001 0.008246 -0.000001
# 3 -0.006481 -0.005643 0.025752 0.000000 -0.002740 0.000001
# 4 0.000000 -0.000001 0.000000 0.164953 0.000000 0.006126
# 5 -0.001326 0.008246 -0.002740 0.000000 0.043991 -0.000002
# 6 0.000000 -0.000001 0.000001 0.006126 -0.000002 -0.134876
#
#
# Mechanical properties :
#
#
# Convention : Reuss Voigt Hill
#
# Bulk Modulus (GPa) = 42.70772 54.14775 48.42774
# Shear Modulus (GPa) = 30.39563 16.15001 23.27282
#
# Velocity S-wave (km/s) = 3.95862 2.88552 3.46388
# Velocity P-wave (km/s) = 6.55076 6.24643 6.40040
#
# Compressibility (1/GPa) = 0.02341497
#
# Stress axis : x y z
#
# Youngs Moduli (GPa) = 105.79486 56.13074 38.83184
#
# Poissons Ratio (x) = 0.15038 0.25166
# Poissons Ratio (y) = 0.28344 0.21911
# Poissons Ratio (z) = 0.68563 0.31672
#
# Static dielectric constant tensor:
#      x y z
#    x 1.650020 0.000000 -0.005780 
#    y 0.000000 1.675970 0.000000 
#    z -0.005780 0.000000 1.669550 
# 
# From -- ./inp_files/56802.got.cif
#   From: 2010.05.17/outbox.cif.g08.bks.cpg/sg15_29_cif.got.tgz:56802.got - 2010.06.03 18:47:42.
