data_PCOD9265292
_publ_section_title
;
Structure prediction by ZEFSAII (Michael W. Deem and Ramdas Pophale) SiO2 
 PCOD9265292
Probable space group: C 2/C
;
_chemical_formula_sum "Si O2"
_cell_formula_units_Z 56
_cell_length_a 18.850900
_cell_length_b 8.673193
_cell_length_c 17.960027
_cell_angle_alpha 90.000000
_cell_angle_beta 67.010968
_cell_angle_gamma 90.000000
_cell_volume 2703.207900
_symmetry_space_group_name_H-M "C 2/C"
_symmetry_group_IT_number 15
_symmetry_cell_setting 'monoclinic'
loop_
_space_group_symop_operation_xyz
x,y,z
-x,y,1/2-z
-x,-y,-z
x,-y,1/2+z
1/2+x,1/2+y,z
1/2-x,1/2+y,1/2-z
1/2-x,1/2-y,-z
1/2+x,1/2-y,1/2+z
loop_
_atom_site_type_symbol
_atom_site_label
_atom_site_fract_x
_atom_site_fract_y
_atom_site_fract_z
Si Si1 0.877516 0.627811 0.265199
Si Si2 0.000000 0.881457 0.250000
Si Si3 0.500000 0.891336 0.250000
Si Si4 0.291426 0.668110 0.313321
Si Si5 0.810872 0.169713 0.532456
Si Si6 0.227543 0.813056 0.928134
Si Si7 0.313554 0.094573 0.673130
Si Si8 0.065213 0.152533 0.131529
O O1 0.799951 0.664065 0.342247
O O2 0.862972 0.541717 0.192353
O O3 0.932319 0.775535 0.244636
O O4 0.926411 0.498815 0.289132
O O5 0.030858 0.988492 0.169892
O O6 0.501240 0.778146 0.178991
O O7 0.216369 0.746246 0.381964
O O8 0.310315 0.770653 0.234922
O O9 0.267758 0.494488 0.304018
O O10 0.363229 0.670828 0.339899
O O11 0.750000 0.250000 0.500000
O O12 0.896038 0.184857 0.463440
O O13 0.801520 0.986564 0.546623
O O14 0.173062 0.685807 0.909769
O O15 0.250000 0.750000 0.000000
#
# Coordination Sequence:
#
# PCOD9265292 Si02
#       8
#     8   4   4   8   8   8   8   8
#     4  11  21  39  60  92 125 165 212 256 316 376
#     4  10  22  36  60  90 122 168 220 250 290 402
#     4  10  20  36  62  84 122 174 216 242 298 394
#     4  11  20  36  60  93 121 160 203 269 334 372
#     4  10  19  36  59  89 128 155 203 268 320 369
#     4  12  23  39  65 100 128 163 210 275 335 376
#     4  12  22  37  62  96 128 160 205 271 333 378
#     4  10  20  37  61  91 119 167 212 252 314 376
#
# _framework density 20.716128999999999
#
# number of rings (size 3 to 8) (size 9 to 14) (size 15 to 20)
#    0.000    1.143    4.286    4.286    0.000    0.000 
#    0.000    0.000    0.000   15.429    0.000    0.000 
#    0.000    0.000    0.000    0.000    0.000    0.000 
#
# Total GULP energy -156033.411547 kJ/mol
# GULP energy per Si atom -5572.621841 kJ/mol
# Density = 2.066898 g / cm^3
# Si number density = 20.716129 Si / 1000 Ang^3
#
#
#
# Elastic Constant Matrix: (Units=GPa)
#
#
# Indices 1 2 3 4 5 6 
#
# 1 26.8220 18.9422 19.4116 0.0000 -1.0009 0.0000
# 2 18.9422 111.0403 22.1817 0.0000 -3.2391 0.0000
# 3 19.4116 22.1817 76.4734 0.0000 -7.0024 0.0000
# 4 0.0000 0.0000 0.0000 31.1500 0.0000 2.2009
# 5 -1.0009 -3.2391 -7.0024 0.0000 39.6319 0.0000
# 6 0.0000 0.0000 0.0000 2.2009 0.0000 33.8175
#
#
#
# Elastic Compliance Matrix: (Units=1/GPa)
#
#
# Indices 1 2 3 4 5 6 
#
# 1 0.049558 -0.006320 -0.010855 0.000000 -0.001183 0.000000
# 2 -0.006320 0.010369 -0.001362 0.000000 0.000447 0.000000
# 3 -0.010855 -0.001362 0.016458 0.000000 0.002522 0.000000
# 4 0.000000 0.000000 0.000000 0.032251 0.000000 -0.002099
# 5 -0.001183 0.000447 0.002522 0.000000 0.025685 0.000000
# 6 0.000000 0.000000 0.000000 -0.002099 0.000000 0.029707
#
#
# Mechanical properties :
#
#
# Convention : Reuss Voigt Hill
#
# Bulk Modulus (GPa) = 25.43857 37.26744 31.35300
# Shear Modulus (GPa) = 23.34211 31.17322 27.25767
#
# Velocity S-wave (km/s) = 3.36037 3.88336 3.63129
# Velocity P-wave (km/s) = 5.23090 6.17543 5.72269
#
# Compressibility (1/GPa) = 0.03931039
#
# Stress axis : x y z
#
# Youngs Moduli (GPa) = 20.17848 96.44052 60.76127
#
# Poissons Ratio (x) = 0.60952 0.65954
# Poissons Ratio (y) = 0.12753 0.08278
# Poissons Ratio (z) = 0.21903 0.13139
#
# Static dielectric constant tensor:
#      x y z
#    x 1.816000 0.000000 -0.033350 
#    y 0.000000 1.881040 0.000000 
#    z -0.033350 0.000000 1.828460 
# 
# From -- ./inp_files/213830.got.cif
#   From: 2010.05.17/outbox.cif.g08.bks.cpg/sg15_107_cif.got.tgz:213830.got - 2010.06.03 18:47:42.
