data_PCOD9265930
_publ_section_title
;
Structure prediction by ZEFSAII (Michael W. Deem and Ramdas Pophale) SiO2 
 PCOD9265930
Probable space group: C 2/C
;
_chemical_formula_sum "Si O2"
_cell_formula_units_Z 40
_cell_length_a 9.970370
_cell_length_b 22.116590
_cell_length_c 9.723125
_cell_angle_alpha 90.000000
_cell_angle_beta 94.897174
_cell_angle_gamma 90.000000
_cell_volume 2136.225141
_symmetry_space_group_name_H-M "C 2/C"
_symmetry_group_IT_number 15
_symmetry_cell_setting 'monoclinic'
loop_
_space_group_symop_operation_xyz
x,y,z
-x,y,1/2-z
-x,-y,-z
x,-y,1/2+z
1/2+x,1/2+y,z
1/2-x,1/2+y,1/2-z
1/2-x,1/2-y,-z
1/2+x,1/2-y,1/2+z
loop_
_atom_site_type_symbol
_atom_site_label
_atom_site_fract_x
_atom_site_fract_y
_atom_site_fract_z
Si Si1 0.223374 0.862968 0.530260
Si Si2 0.598336 0.521363 0.887531
Si Si3 0.984424 0.317951 0.911321
Si Si4 0.237475 0.103061 0.351602
Si Si5 0.468879 0.707498 0.088218
O O1 0.177538 0.917654 0.429899
O O2 0.369442 0.834932 0.516352
O O3 0.227170 0.887833 0.686832
O O4 0.105803 0.813514 0.525416
O O5 0.500000 0.529588 0.750000
O O6 0.699644 0.465503 0.877157
O O7 0.500000 0.500000 0.000000
O O8 0.884648 0.375020 0.908184
O O9 0.000000 0.301879 0.750000
O O10 0.920286 0.263788 0.993861
O O11 0.130057 0.149717 0.409700
O O12 0.500000 0.724555 0.250000
#
# Coordination Sequence:
#
# PCOD9265930 Si02
#       5
#     8   8   8   8   8
#     4  10  21  38  59  85 115 148 187 236 280 330
#     4  12  21  39  63  86 108 147 195 233 278 339
#     4  10  22  38  57  84 117 151 187 229 285 336
#     4  10  20  38  60  82 116 152 182 233 289 327
#     4  10  19  37  58  81 117 153 188 231 276 330
#
# _framework density 18.724619000000001
#
# number of rings (size 3 to 8) (size 9 to 14) (size 15 to 20)
#    0.000    1.600    4.000    1.800    0.000    1.600 
#    3.600    0.000    0.000    0.000    0.000    0.000 
#    0.000    0.000    0.000    0.000    0.000    0.000 
#
# Total GULP energy -111640.459356 kJ/mol
# GULP energy per Si atom -5582.022968 kJ/mol
# Density = 1.868200 g / cm^3
# Si number density = 18.724619 Si / 1000 Ang^3
#
#
#
# Elastic Constant Matrix: (Units=GPa)
#
#
# Indices 1 2 3 4 5 6 
#
# 1 90.2869 32.4192 23.0029 0.0000 5.4889 0.0000
# 2 32.4192 110.9748 41.9547 0.0000 9.7495 0.0000
# 3 23.0029 41.9547 51.0622 0.0000 10.0132 0.0000
# 4 0.0000 0.0000 0.0000 27.1102 0.0000 3.4346
# 5 5.4889 9.7495 10.0132 0.0000 13.0065 0.0000
# 6 0.0000 0.0000 0.0000 3.4346 0.0000 28.0857
#
#
#
# Elastic Compliance Matrix: (Units=1/GPa)
#
#
# Indices 1 2 3 4 5 6 
#
# 1 0.012905 -0.002264 -0.003790 0.000000 -0.000831 0.000000
# 2 -0.002264 0.013504 -0.009750 0.000000 -0.001661 0.000000
# 3 -0.003790 -0.009750 0.032455 0.000000 -0.016078 0.000000
# 4 0.000000 0.000000 0.000000 0.037467 0.000000 -0.004582
# 5 -0.000831 -0.001661 -0.016078 0.000000 0.090858 0.000000
# 6 0.000000 0.000000 0.000000 -0.004582 0.000000 0.036166
#
#
# Mechanical properties :
#
#
# Convention : Reuss Voigt Hill
#
# Bulk Modulus (GPa) = 36.68940 49.67527 43.18234
# Shear Modulus (GPa) = 18.93580 23.97029 21.45304
#
# Velocity S-wave (km/s) = 3.18351 3.58180 3.38851
# Velocity P-wave (km/s) = 5.75758 6.61004 6.19848
#
# Compressibility (1/GPa) = 0.02725583
#
# Stress axis : x y z
#
# Youngs Moduli (GPa) = 77.48968 74.04957 30.81142
#
# Poissons Ratio (x) = 0.16764 0.11679
# Poissons Ratio (y) = 0.17543 0.30042
# Poissons Ratio (z) = 0.29372 0.72200
#
# Static dielectric constant tensor:
#      x y z
#    x 1.659890 0.000000 -0.004130 
#    y 0.000000 1.626080 0.000000 
#    z -0.004130 0.000000 1.631380 
# 
# From -- ./inp_files/23424.got.cif
#   From: 2010.05.17/outbox.cif.g08.bks.cpg/sg15_12_cif.got.tgz:23424.got - 2010.06.03 18:47:42.
