data_PCOD9265018
_publ_section_title
;
Structure prediction by ZEFSAII (Michael W. Deem and Ramdas Pophale) SiO2 
 PCOD9265018
Probable space group: C 2/C
;
_chemical_formula_sum "Si O2"
_cell_formula_units_Z 48
_cell_length_a 15.231692
_cell_length_b 14.185146
_cell_length_c 15.852303
_cell_angle_alpha 90.000000
_cell_angle_beta 37.243757
_cell_angle_gamma 90.000000
_cell_volume 2072.900456
_symmetry_space_group_name_H-M "C 2/C"
_symmetry_group_IT_number 15
_symmetry_cell_setting 'monoclinic'
loop_
_space_group_symop_operation_xyz
x,y,z
-x,y,1/2-z
-x,-y,-z
x,-y,1/2+z
1/2+x,1/2+y,z
1/2-x,1/2+y,1/2-z
1/2-x,1/2-y,-z
1/2+x,1/2-y,1/2+z
loop_
_atom_site_type_symbol
_atom_site_label
_atom_site_fract_x
_atom_site_fract_y
_atom_site_fract_z
Si Si1 0.500000 0.830663 0.250000
Si Si2 0.693695 0.163876 0.744620
Si Si3 0.261735 0.944203 0.830107
Si Si4 0.500000 0.531649 0.750000
Si Si5 0.190378 0.491552 0.026279
Si Si6 0.496637 0.335562 0.092478
Si Si7 0.033559 0.360777 0.538042
O O1 0.382994 0.785316 0.276183
O O2 0.595128 0.900511 0.118203
O O3 0.849169 0.196425 0.659434
O O4 0.731915 0.055479 0.691663
O O5 0.579753 0.161800 0.907955
O O6 0.316500 0.941263 0.885402
O O7 0.371744 0.894144 0.683140
O O8 0.105133 0.895343 0.950352
O O9 0.641040 0.472050 0.618483
O O10 0.533845 0.599272 0.803682
O O11 0.128710 0.551708 0.996978
O O12 0.568701 0.235853 0.061142
#
# Coordination Sequence:
#
# PCOD9265018 Si02
#       7
#     4   8   8   4   8   8   8
#     4  10  22  41  66  84 115 162 216 256 288 347
#     4  11  22  42  60  85 115 164 213 252 293 352
#     4  10  22  36  59  87 122 166 197 239 294 365
#     4  10  22  33  56  90 133 158 176 236 310 381
#     4  10  19  36  56  90 121 156 197 234 301 363
#     4  11  24  36  58  91 131 159 191 249 308 367
#     4  12  21  36  61  91 121 157 205 240 308 366
#
# _framework density 23.15596
#
# number of rings (size 3 to 8) (size 9 to 14) (size 15 to 20)
#    0.000    1.333    5.000    2.000    2.333    1.333 
#    0.000    0.833    0.000    0.000    0.000    0.000 
#    0.000    0.000    0.000    0.000    0.000    0.000 
#
# Total GULP energy -134081.426122 kJ/mol
# GULP energy per Si atom -5586.726088 kJ/mol
# Density = 2.310326 g / cm^3
# Si number density = 23.155960 Si / 1000 Ang^3
#
#
#
# Elastic Constant Matrix: (Units=GPa)
#
#
# Indices 1 2 3 4 5 6 
#
# 1 85.4129 -16.7008 30.3143 0.0000 -14.3249 -0.0001
# 2 -16.7008 18.9379 -7.8144 0.0000 1.1338 0.0000
# 3 30.3143 -7.8144 131.0253 0.0000 -16.3937 -0.0001
# 4 0.0000 0.0000 0.0000 11.7880 0.0000 -2.0417
# 5 -14.3249 1.1338 -16.3937 0.0000 27.5710 0.0000
# 6 -0.0001 0.0000 -0.0001 -2.0417 0.0000 24.4117
#
#
#
# Elastic Compliance Matrix: (Units=1/GPa)
#
#
# Indices 1 2 3 4 5 6 
#
# 1 0.016091 0.012918 -0.002131 0.000000 0.006562 0.000000
# 2 0.012918 0.064510 0.001476 0.000000 0.004937 0.000000
# 3 -0.002131 0.001476 0.008716 0.000000 0.004014 0.000000
# 4 0.000000 0.000000 0.000000 0.086079 0.000000 0.007199
# 5 0.006562 0.004937 0.004014 0.000000 0.041863 0.000000
# 6 0.000000 0.000000 0.000000 0.007199 0.000000 0.041566
#
#
# Mechanical properties :
#
#
# Convention : Reuss Voigt Hill
#
# Bulk Modulus (GPa) = 8.78421 27.44159 18.11290
# Shear Modulus (GPa) = 18.36576 28.05926 23.21251
#
# Velocity S-wave (km/s) = 2.81932 3.48480 3.16957
# Velocity P-wave (km/s) = 3.79471 5.29795 4.60804
#
# Compressibility (1/GPa) = 0.11384062
#
# Stress axis : x y z
#
# Youngs Moduli (GPa) = 62.14839 15.50159 114.73772
#
# Poissons Ratio (x) = -0.20024 0.24455
# Poissons Ratio (y) = -0.80280 -0.16940
# Poissons Ratio (z) = 0.13246 -0.02289
#
# Static dielectric constant tensor:
#      x y z
#    x 1.960810 0.000000 -0.020750 
#    y 0.000000 1.833480 0.000000 
#    z -0.020750 0.000000 1.853660 
# 
# From -- ./inp_files/70564.got.cif
#   From: 2010.05.17/outbox.cif.g08.bks.cpg/sg15_36_cif.got.tgz:70564.got - 2010.06.03 18:47:42.
