data_PCOD9265753
_publ_section_title
;
Structure prediction by ZEFSAII (Michael W. Deem and Ramdas Pophale) SiO2 
 PCOD9265753
Probable space group: C 2/C
;
_chemical_formula_sum "Si O2"
_cell_formula_units_Z 52
_cell_length_a 17.445824
_cell_length_b 9.526890
_cell_length_c 19.632413
_cell_angle_alpha 90.000000
_cell_angle_beta 52.228496
_cell_angle_gamma 90.000000
_cell_volume 2579.265661
_symmetry_space_group_name_H-M "C 2/C"
_symmetry_group_IT_number 15
_symmetry_cell_setting 'monoclinic'
loop_
_space_group_symop_operation_xyz
x,y,z
-x,y,1/2-z
-x,-y,-z
x,-y,1/2+z
1/2+x,1/2+y,z
1/2-x,1/2+y,1/2-z
1/2-x,1/2-y,-z
1/2+x,1/2-y,1/2+z
loop_
_atom_site_type_symbol
_atom_site_label
_atom_site_fract_x
_atom_site_fract_y
_atom_site_fract_z
Si Si1 0.301104 0.399955 0.366949
Si Si2 0.964109 0.227324 0.408519
Si Si3 0.857671 0.590030 0.313392
Si Si4 0.481400 0.029281 0.373187
Si Si5 0.500000 0.423374 0.750000
Si Si6 0.324760 0.531854 0.012001
Si Si7 0.093914 0.687243 0.963268
O O1 0.325349 0.249499 0.319880
O O2 0.398839 0.490058 0.301070
O O3 0.292464 0.417741 0.453985
O O4 0.188716 0.413080 0.403970
O O5 0.045445 0.264001 0.419857
O O6 0.925644 0.382495 0.413128
O O7 0.001264 0.169444 0.316764
O O8 0.890928 0.106456 0.472777
O O9 0.923844 0.607605 0.344805
O O10 0.765412 0.504183 0.389353
O O11 0.913577 0.520340 0.219983
O O12 0.479482 0.108910 0.445497
O O13 0.376831 0.668876 0.014399
#
# Coordination Sequence:
#
# PCOD9265753 Si02
#       7
#     8   8   8   8   4   8   8
#     4  10  19  39  69  91 121 166 225 258 316 386
#     4  11  25  40  61  92 135 163 212 265 333 377
#     4  10  19  36  65  91 119 163 222 258 304 389
#     4  11  21  37  61  91 127 164 211 264 317 381
#     4  10  22  42  64  94 128 180 212 274 318 390
#     4  10  20  41  64  91 120 171 210 264 317 390
#     4  11  21  42  63  93 125 167 217 266 318 385
#
# _framework density 20.160775999999998
#
# number of rings (size 3 to 8) (size 9 to 14) (size 15 to 20)
#    0.000    1.538    3.077    3.692    2.154    0.615 
#    8.308    1.538    0.000    0.000    0.000    0.000 
#    0.000    0.000    0.000    0.000    0.000    0.000 
#
# Total GULP energy -144763.659798 kJ/mol
# GULP energy per Si atom -5567.833069 kJ/mol
# Density = 2.011489 g / cm^3
# Si number density = 20.160776 Si / 1000 Ang^3
#
#
#
# Elastic Constant Matrix: (Units=GPa)
#
#
# Indices 1 2 3 4 5 6 
#
# 1 90.1434 18.4908 55.7439 0.0000 9.3787 0.0000
# 2 18.4908 69.7088 54.2260 0.0000 -3.9553 0.0000
# 3 55.7439 54.2260 133.1869 0.0000 -5.5123 0.0000
# 4 0.0000 0.0000 0.0000 23.2493 0.0000 28.4180
# 5 9.3787 -3.9553 -5.5123 0.0000 21.7734 0.0000
# 6 0.0000 0.0000 0.0000 28.4180 0.0000 25.8009
#
#
#
# Elastic Compliance Matrix: (Units=1/GPa)
#
#
# Indices 1 2 3 4 5 6 
#
# 1 0.016598 0.001145 -0.007782 0.000000 -0.008912 0.000000
# 2 0.001145 0.021134 -0.009040 0.000000 0.001057 0.000000
# 3 -0.007782 -0.009040 0.014670 0.000000 0.005424 0.000000
# 4 0.000000 0.000000 0.000000 -0.124205 0.000000 0.136804
# 5 -0.008912 0.001057 0.005424 0.000000 0.051331 0.000000
# 6 0.000000 0.000000 0.000000 0.136804 0.000000 -0.111922
#
#
# Mechanical properties :
#
#
# Convention : Reuss Voigt Hill
#
# Bulk Modulus (GPa) = 47.50930 61.10673 54.30802
# Shear Modulus (GPa) = -53.17782 25.13662 -14.02060
#
# Velocity S-wave (km/s) = -5.14141 3.53485 -2.63998
# Velocity P-wave (km/s) = 3.41015 6.85826 4.20753
#
# Compressibility (1/GPa) = 0.02104851
#
# Stress axis : x y z
#
# Youngs Moduli (GPa) = 60.24811 47.31767 68.16456
#
# Poissons Ratio (x) = -0.05419 0.53046
# Poissons Ratio (y) = -0.06900 0.61621
# Poissons Ratio (z) = 0.46885 0.42775
#
# Static dielectric constant tensor:
#      x y z
#    x 1.744340 0.000000 -0.051990 
#    y 0.000000 1.718010 0.000000 
#    z -0.051990 0.000000 1.754190 
# 
# From -- ./inp_files/247777.got.cif
#   From: 2010.05.17/outbox.cif.g08.bks.cpg/sg15_124_cif.got.tgz:247777.got - 2010.06.03 18:47:42.
