data_PCOD9265728
_publ_section_title
;
Structure prediction by ZEFSAII (Michael W. Deem and Ramdas Pophale) SiO2 
 PCOD9265728
Probable space group: C 2/C
;
_chemical_formula_sum "Si O2"
_cell_formula_units_Z 56
_cell_length_a 8.432204
_cell_length_b 16.984811
_cell_length_c 26.813028
_cell_angle_alpha 90.000000
_cell_angle_beta 137.116755
_cell_angle_gamma 90.000000
_cell_volume 2613.244476
_symmetry_space_group_name_H-M "C 2/C"
_symmetry_group_IT_number 15
_symmetry_cell_setting 'monoclinic'
loop_
_space_group_symop_operation_xyz
x,y,z
-x,y,1/2-z
-x,-y,-z
x,-y,1/2+z
1/2+x,1/2+y,z
1/2-x,1/2+y,1/2-z
1/2-x,1/2-y,-z
1/2+x,1/2-y,1/2+z
loop_
_atom_site_type_symbol
_atom_site_label
_atom_site_fract_x
_atom_site_fract_y
_atom_site_fract_z
Si Si1 0.245758 0.237709 0.322306
Si Si2 0.706677 0.674972 0.565721
Si Si3 0.347851 0.103895 0.861790
Si Si4 0.141912 0.101455 0.704000
Si Si5 0.203206 0.641816 0.418984
Si Si6 0.625965 0.021000 0.478330
Si Si7 0.657092 0.493874 0.111615
O O1 0.264390 0.258631 0.385255
O O2 0.252004 0.321729 0.296544
O O3 0.476958 0.193582 0.357271
O O4 0.000000 0.198769 0.250000
O O5 0.459216 0.681525 0.480598
O O6 0.698753 0.588748 0.591864
O O7 0.943796 0.667720 0.588344
O O8 0.251048 0.096634 0.783695
O O9 0.133988 0.114834 0.850531
O O10 0.463863 0.021546 0.901494
O O11 0.188310 0.029073 0.676934
O O12 0.162322 0.608312 0.466025
O O13 0.215855 0.568470 0.383322
O O14 0.884967 0.986848 0.540357
O O15 0.500000 0.000000 0.500000
#
# Coordination Sequence:
#
# PCOD9265728 Si02
#       7
#     8   8   8   8   8   8   8
#     4  11  23  42  63  88 131 177 214 261 333 397
#     4  10  19  38  66  90 118 174 221 255 304 401
#     4  11  19  38  67  91 127 163 228 267 307 380
#     4  10  23  37  65  95 121 178 226 259 314 402
#     4  11  22  39  64  96 131 163 210 278 333 377
#     4  11  20  38  64  96 128 163 211 271 330 380
#     4  10  19  36  64  94 126 163 215 265 324 385
#
# _framework density 21.429299
#
# number of rings (size 3 to 8) (size 9 to 14) (size 15 to 20)
#    0.000    1.429    5.714    1.286    0.000    0.000 
#    2.571    2.143    9.429    0.000    0.000    0.000 
#    0.000    0.000    0.000    0.000    0.000    0.000 
#
# Total GULP energy -156220.913981 kJ/mol
# GULP energy per Si atom -5579.318356 kJ/mol
# Density = 2.138053 g / cm^3
# Si number density = 21.429299 Si / 1000 Ang^3
#
#
#
# Elastic Constant Matrix: (Units=GPa)
#
#
# Indices 1 2 3 4 5 6 
#
# 1 122.9419 30.3568 43.7082 0.0000 23.4563 0.0000
# 2 30.3568 42.0230 35.1147 0.0000 12.1935 0.0000
# 3 43.7082 35.1147 88.2719 0.0000 26.7963 0.0000
# 4 0.0000 0.0000 0.0000 16.0798 0.0000 6.9182
# 5 23.4563 12.1935 26.7963 0.0000 45.9907 0.0000
# 6 0.0000 0.0000 0.0000 6.9182 0.0000 26.1743
#
#
#
# Elastic Compliance Matrix: (Units=1/GPa)
#
#
# Indices 1 2 3 4 5 6 
#
# 1 0.010761 -0.004827 -0.002588 0.000000 -0.002701 0.000000
# 2 -0.004827 0.037890 -0.012611 0.000000 -0.000236 0.000000
# 3 -0.002588 -0.012611 0.019695 0.000000 -0.006811 0.000000
# 4 0.000000 0.000000 0.000000 0.070169 0.000000 -0.018547
# 5 -0.002701 -0.000236 -0.006811 0.000000 0.027152 0.000000
# 6 0.000000 0.000000 0.000000 -0.018547 0.000000 0.043108
#
#
# Mechanical properties :
#
#
# Convention : Reuss Voigt Hill
#
# Bulk Modulus (GPa) = 35.34469 52.39959 43.87214
# Shear Modulus (GPa) = 19.36046 27.25276 23.30661
#
# Velocity S-wave (km/s) = 3.00902 3.57003 3.30146
# Velocity P-wave (km/s) = 5.34805 6.44196 5.92033
#
# Compressibility (1/GPa) = 0.02829280
#
# Stress axis : x y z
#
# Youngs Moduli (GPa) = 92.92501 26.39238 50.77557
#
# Poissons Ratio (x) = 0.12741 0.13143
# Poissons Ratio (y) = 0.44858 0.64031
# Poissons Ratio (z) = 0.24053 0.33282
#
# Static dielectric constant tensor:
#      x y z
#    x 2.356670 0.000000 -0.130870 
#    y 0.000000 1.763850 0.000000 
#    z -0.130870 0.000000 1.855920 
# 
# From -- ./inp_files/289769.got.cif
#   From: 2010.05.17/outbox.cif.g08.bks.cpg/sg15_145_cif.got.tgz:289769.got - 2010.06.03 18:47:42.
