data_PCOD9265607
_publ_section_title
;
Structure prediction by ZEFSAII (Michael W. Deem and Ramdas Pophale) SiO2 
 PCOD9265607
Probable space group: C 2/C
;
_chemical_formula_sum "Si O2"
_cell_formula_units_Z 56
_cell_length_a 15.130200
_cell_length_b 15.552281
_cell_length_c 25.909349
_cell_angle_alpha 90.000000
_cell_angle_beta 151.847462
_cell_angle_gamma 90.000000
_cell_volume 2876.551311
_symmetry_space_group_name_H-M "C 2/C"
_symmetry_group_IT_number 15
_symmetry_cell_setting 'monoclinic'
loop_
_space_group_symop_operation_xyz
x,y,z
-x,y,1/2-z
-x,-y,-z
x,-y,1/2+z
1/2+x,1/2+y,z
1/2-x,1/2+y,1/2-z
1/2-x,1/2-y,-z
1/2+x,1/2-y,1/2+z
loop_
_atom_site_type_symbol
_atom_site_label
_atom_site_fract_x
_atom_site_fract_y
_atom_site_fract_z
Si Si1 0.325237 0.398134 0.627056
Si Si2 0.755181 0.066443 0.661063
Si Si3 0.455340 0.944121 0.873855
Si Si4 0.604751 0.464227 0.409131
Si Si5 0.525913 0.190995 0.030098
Si Si6 0.023448 0.109510 0.547320
Si Si7 0.188272 0.526399 0.313669
O O1 0.500000 0.365897 0.750000
O O2 0.265266 0.487473 0.625464
O O3 0.387880 0.434460 0.603645
O O4 0.163505 0.329521 0.552874
O O5 0.670662 0.149364 0.589712
O O6 0.956264 0.076189 0.791895
O O7 0.612144 0.029969 0.630778
O O8 0.403372 0.866520 0.885273
O O9 0.358746 0.946828 0.768812
O O10 0.678332 0.937785 0.981106
O O11 0.530358 0.436206 0.426388
O O12 0.522845 0.288183 0.046494
O O13 0.226072 0.069758 0.638442
O O14 0.860550 0.081837 0.424058
O O15 0.000000 0.535471 0.250000
#
# Coordination Sequence:
#
# PCOD9265607 Si02
#       7
#     8   8   8   8   8   8   8
#     4   9  18  34  63  92 123 163 205 253 318 386
#     4  10  19  36  62  93 127 163 201 262 320 383
#     4  11  20  39  66  88 124 168 208 256 322 390
#     4  11  19  36  63  94 118 170 210 243 322 391
#     4  11  22  39  60  99 135 152 209 280 321 360
#     4  11  26  41  64  92 124 170 216 268 311 383
#     4  11  24  47  65  80 123 178 215 245 320 397
#
# _framework density 19.467756000000001
#
# number of rings (size 3 to 8) (size 9 to 14) (size 15 to 20)
#    0.000    1.429    5.714    0.857    0.000    2.286 
#    2.571    0.000    0.000    2.571    0.000    0.000 
#    0.000    0.000    0.000    0.000    0.000    0.000 
#
# Total GULP energy -156081.198238 kJ/mol
# GULP energy per Si atom -5574.328509 kJ/mol
# Density = 1.942345 g / cm^3
# Si number density = 19.467756 Si / 1000 Ang^3
#
#
#
# Elastic Constant Matrix: (Units=GPa)
#
#
# Indices 1 2 3 4 5 6 
#
# 1 69.2504 38.1031 35.0595 0.0003 -16.6898 0.0001
# 2 38.1031 79.5757 36.8416 0.0004 -5.4824 0.0001
# 3 35.0595 36.8416 130.8690 0.0012 -13.8538 0.0001
# 4 0.0003 0.0004 0.0012 10.8385 0.0002 0.2044
# 5 -16.6898 -5.4824 -13.8538 0.0002 40.4907 0.0000
# 6 0.0001 0.0001 0.0001 0.2044 0.0000 13.3252
#
#
#
# Elastic Compliance Matrix: (Units=1/GPa)
#
#
# Indices 1 2 3 4 5 6 
#
# 1 0.022503 -0.009018 -0.002736 0.000000 0.007118 0.000000
# 2 -0.009018 0.018077 -0.002913 0.000000 -0.002266 0.000000
# 3 -0.002736 -0.002913 0.009373 -0.000001 0.001685 0.000000
# 4 0.000000 0.000000 -0.000001 0.092291 -0.000001 -0.001416
# 5 0.007118 -0.002266 0.001685 -0.000001 0.027901 0.000000
# 6 0.000000 0.000000 0.000000 -0.001416 0.000000 0.075068
#
#
# Mechanical properties :
#
#
# Convention : Reuss Voigt Hill
#
# Bulk Modulus (GPa) = 48.50007 55.52260 52.01134
# Shear Modulus (GPa) = 17.76710 24.24359 21.00535
#
# Velocity S-wave (km/s) = 3.02427 3.53274 3.28835
# Velocity P-wave (km/s) = 6.09607 6.72477 6.41812
#
# Compressibility (1/GPa) = 0.02061853
#
# Stress axis : x y z
#
# Youngs Moduli (GPa) = 44.43842 55.31830 106.69318
#
# Poissons Ratio (x) = 0.49885 0.29195
# Poissons Ratio (y) = 0.40074 0.31080
# Poissons Ratio (z) = 0.12160 0.16114
#
# Static dielectric constant tensor:
#      x y z
#    x 1.767450 0.000000 0.024880 
#    y 0.000000 1.661270 0.000000 
#    z 0.024880 0.000000 1.716910 
# 
# From -- ./inp_files/296593.got.cif
#   From: 2010.05.17/outbox.cif.g08.bks.cpg/sg15_149_cif.got.tgz:296593.got - 2010.06.03 18:47:42.
