data_PCOD9265956
_publ_section_title
;
Structure prediction by ZEFSAII (Michael W. Deem and Ramdas Pophale) SiO2 
 PCOD9265956
Probable space group: C 2/C
;
_chemical_formula_sum "Si O2"
_cell_formula_units_Z 64
_cell_length_a 11.146517
_cell_length_b 10.658885
_cell_length_c 21.232514
_cell_angle_alpha 90.000000
_cell_angle_beta 76.101765
_cell_angle_gamma 90.000000
_cell_volume 2448.770544
_symmetry_space_group_name_H-M "C 2/C"
_symmetry_group_IT_number 15
_symmetry_cell_setting 'monoclinic'
loop_
_space_group_symop_operation_xyz
x,y,z
-x,y,1/2-z
-x,-y,-z
x,-y,1/2+z
1/2+x,1/2+y,z
1/2-x,1/2+y,1/2-z
1/2-x,1/2-y,-z
1/2+x,1/2-y,1/2+z
loop_
_atom_site_type_symbol
_atom_site_label
_atom_site_fract_x
_atom_site_fract_y
_atom_site_fract_z
Si Si1 0.610252 0.284159 0.481329
Si Si2 0.388136 0.420795 0.231814
Si Si3 0.718456 0.194455 0.655288
Si Si4 0.205620 0.613447 0.868138
Si Si5 0.398075 0.931968 0.813126
Si Si6 0.611667 0.215042 0.071742
Si Si7 0.299329 0.033044 0.010925
Si Si8 0.357964 0.317281 0.710343
O O1 0.719256 0.258855 0.415926
O O2 0.478851 0.290527 0.463090
O O3 0.609216 0.149556 0.516652
O O4 0.663646 0.406016 0.511295
O O5 0.500000 0.352112 0.250000
O O6 0.335092 0.343191 0.182716
O O7 0.284962 0.438372 0.298866
O O8 0.431618 0.553350 0.198174
O O9 0.642457 0.272789 0.716918
O O10 0.652582 0.061901 0.652930
O O11 0.291499 0.697316 0.903735
O O12 0.111989 0.707791 0.843479
O O13 0.169782 0.504667 0.920532
O O14 0.500000 0.963441 0.750000
O O15 0.456407 0.852068 0.861675
O O16 0.280822 0.861693 0.794861
O O17 0.677117 0.096536 0.029438
#
# Coordination Sequence:
#
# PCOD9265956 Si02
#       8
#     8   8   8   8   8   8   8   8
#     4  11  23  40  66  87 122 173 212 279 330 387
#     4  10  20  37  59  89 122 157 207 258 321 395
#     4  10  19  37  58  85 120 156 204 263 325 378
#     4  10  22  40  62  90 128 165 210 272 324 393
#     4  10  20  35  59  89 119 156 210 266 321 403
#     4  11  22  41  63  92 124 170 223 266 333 407
#     4  11  24  43  60  91 130 168 221 275 326 408
#     4   9  20  35  57  84 122 159 196 263 324 380
#
# _framework density 26.135563000000001
#
# number of rings (size 3 to 8) (size 9 to 14) (size 15 to 20)
#    0.000    1.750    1.250    3.000    0.000    6.500 
#    2.250    0.000    0.000    0.000    0.000    0.000 
#    0.000    0.000    0.000    0.000    0.000    0.000 
#
# Total GULP energy -178784.164718 kJ/mol
# GULP energy per Si atom -5587.005147 kJ/mol
# Density = 2.607608 g / cm^3
# Si number density = 26.135563 Si / 1000 Ang^3
#
#
#
# Elastic Constant Matrix: (Units=GPa)
#
#
# Indices 1 2 3 4 5 6 
#
# 1 74.5867 14.3859 14.6970 0.0000 21.6302 0.0000
# 2 14.3859 109.1072 38.9265 0.0000 -0.7085 0.0000
# 3 14.6970 38.9265 94.3125 0.0000 15.2490 0.0000
# 4 0.0000 0.0000 0.0000 39.2178 0.0000 14.8717
# 5 21.6302 -0.7085 15.2490 0.0000 29.5477 0.0000
# 6 0.0000 0.0000 0.0000 14.8717 0.0000 39.9743
#
#
#
# Elastic Compliance Matrix: (Units=1/GPa)
#
#
# Indices 1 2 3 4 5 6 
#
# 1 0.017646 -0.002572 0.000448 0.000000 -0.013210 0.000000
# 2 -0.002572 0.011336 -0.005048 0.000000 0.004760 0.000000
# 3 0.000448 -0.005048 0.013844 0.000000 -0.007594 0.000000
# 4 0.000000 0.000000 0.000000 0.029687 0.000000 -0.011044
# 5 -0.013210 0.004760 -0.007594 0.000000 0.047547 0.000000
# 6 0.000000 0.000000 0.000000 -0.011044 0.000000 0.029125
#
#
# Mechanical properties :
#
#
# Convention : Reuss Voigt Hill
#
# Bulk Modulus (GPa) = 35.10918 46.00279 40.55599
# Shear Modulus (GPa) = 28.89771 35.74777 32.32274
#
# Velocity S-wave (km/s) = 3.32879 3.70237 3.52054
# Velocity P-wave (km/s) = 5.31386 5.99304 5.66364
#
# Compressibility (1/GPa) = 0.02848258
#
# Stress axis : x y z
#
# Youngs Moduli (GPa) = 56.66962 88.21281 72.23117
#
# Poissons Ratio (x) = 0.22690 -0.03234
# Poissons Ratio (y) = 0.14576 0.36460
# Poissons Ratio (z) = -0.02537 0.44527
#
# Static dielectric constant tensor:
#      x y z
#    x 2.082480 0.000000 -0.031690 
#    y 0.000000 2.071760 0.000000 
#    z -0.031690 0.000000 2.109240 
# 
# From -- ./inp_files/269249.got.cif
#   From: 2010.05.17/outbox.cif.g08.bks.cpg/sg15_135_cif.got.tgz:269249.got - 2010.06.03 18:47:42.
