data_PCOD9265752
_publ_section_title
;
Structure prediction by ZEFSAII (Michael W. Deem and Ramdas Pophale) SiO2 
 PCOD9265752
Probable space group: C 2/C
;
_chemical_formula_sum "Si O2"
_cell_formula_units_Z 56
_cell_length_a 8.420729
_cell_length_b 11.759028
_cell_length_c 23.439423
_cell_angle_alpha 90.000000
_cell_angle_beta 112.745535
_cell_angle_gamma 90.000000
_cell_volume 2140.463359
_symmetry_space_group_name_H-M "C 2/C"
_symmetry_group_IT_number 15
_symmetry_cell_setting 'monoclinic'
loop_
_space_group_symop_operation_xyz
x,y,z
-x,y,1/2-z
-x,-y,-z
x,-y,1/2+z
1/2+x,1/2+y,z
1/2-x,1/2+y,1/2-z
1/2-x,1/2-y,-z
1/2+x,1/2-y,1/2+z
loop_
_atom_site_type_symbol
_atom_site_label
_atom_site_fract_x
_atom_site_fract_y
_atom_site_fract_z
Si Si1 0.291274 0.758087 0.329169
Si Si2 0.000000 0.712675 0.750000
Si Si3 0.475561 0.589031 0.427735
Si Si4 0.465269 0.207143 0.434239
Si Si5 0.221862 0.606926 0.881904
Si Si6 0.789788 0.099501 0.525946
Si Si7 0.000000 0.392383 0.750000
Si Si8 0.382348 0.005054 0.346020
O O1 0.370185 0.732588 0.277296
O O2 0.434552 0.704899 0.390465
O O3 0.118064 0.686684 0.305801
O O4 0.266307 0.892707 0.335752
O O5 0.131143 0.653700 0.812783
O O6 0.358497 0.489218 0.384101
O O7 0.389287 0.601600 0.478257
O O8 0.662612 0.529386 0.449695
O O9 0.316554 0.295788 0.431242
O O10 0.591095 0.134546 0.492748
O O11 0.608789 0.296945 0.428232
O O12 0.369029 0.121858 0.377918
O O13 0.068629 0.542368 0.892082
O O14 0.894768 0.467106 0.780597
#
# Coordination Sequence:
#
# PCOD9265752 Si02
#       8
#     8   4   8   8   8   8   4   8
#     4  11  24  40  70 103 131 181 229 273 338 415
#     4  10  23  40  63  96 138 169 218 269 340 390
#     4  10  19  37  66  95 129 169 234 271 328 408
#     4  10  19  36  66  90 129 168 221 271 334 387
#     4  10  19  36  65  90 124 176 212 263 332 394
#     4   9  19  36  66  98 121 179 224 278 337 388
#     4  12  23  44  73  94 136 187 226 273 338 412
#     4  11  22  40  65  96 129 174 218 277 335 402
#
# _framework density 26.162557
#
# number of rings (size 3 to 8) (size 9 to 14) (size 15 to 20)
#    0.000    1.714    2.857    2.571    0.000    0.000 
#    0.000    5.714   28.286    0.000    0.000    0.000 
#    0.000    0.000    0.000    0.000    0.000    0.000 
#
# Total GULP energy -156298.790983 kJ/mol
# GULP energy per Si atom -5582.099678 kJ/mol
# Density = 2.610301 g / cm^3
# Si number density = 26.162557 Si / 1000 Ang^3
#
#
#
# Elastic Constant Matrix: (Units=GPa)
#
#
# Indices 1 2 3 4 5 6 
#
# 1 42.3648 13.9049 18.0080 0.0000 9.7832 0.0000
# 2 13.9049 148.0532 42.3841 0.0000 6.5232 0.0000
# 3 18.0080 42.3841 83.3333 0.0000 6.2530 0.0000
# 4 0.0000 0.0000 0.0000 43.5648 0.0000 6.4048
# 5 9.7832 6.5232 6.2530 0.0000 40.2066 0.0000
# 6 0.0000 0.0000 0.0000 6.4048 0.0000 34.3316
#
#
#
# Elastic Compliance Matrix: (Units=1/GPa)
#
#
# Indices 1 2 3 4 5 6 
#
# 1 0.027356 -0.000875 -0.005037 0.000000 -0.005731 0.000000
# 2 -0.000875 0.007951 -0.003819 0.000000 -0.000483 0.000000
# 3 -0.005037 -0.003819 0.015068 0.000000 -0.000498 0.000000
# 4 0.000000 0.000000 0.000000 0.023602 0.000000 -0.004403
# 5 -0.005731 -0.000483 -0.000498 0.000000 0.026422 0.000000
# 6 0.000000 0.000000 0.000000 -0.004403 0.000000 0.029949
#
#
# Mechanical properties :
#
#
# Convention : Reuss Voigt Hill
#
# Bulk Modulus (GPa) = 32.34685 46.92725 39.63705
# Shear Modulus (GPa) = 31.22802 36.91756 34.07279
#
# Velocity S-wave (km/s) = 3.45862 3.76051 3.61272
# Velocity P-wave (km/s) = 5.32354 6.06886 5.70837
#
# Compressibility (1/GPa) = 0.03091491
#
# Stress axis : x y z
#
# Youngs Moduli (GPa) = 36.55502 125.77095 66.36606
#
# Poissons Ratio (x) = 0.11003 0.33425
# Poissons Ratio (y) = 0.03198 0.25343
# Poissons Ratio (z) = 0.18411 0.48027
#
# Static dielectric constant tensor:
#      x y z
#    x 2.093520 0.000000 -0.000650 
#    y 0.000000 2.116970 0.000000 
#    z -0.000650 0.000000 2.081790 
# 
# From -- ./inp_files/288110.got.cif
#   From: 2010.05.17/outbox.cif.g08.bks.cpg/sg15_145_cif.got.tgz:288110.got - 2010.06.03 18:47:42.
