data_PCOD9265048
_publ_section_title
;
Structure prediction by ZEFSAII (Michael W. Deem and Ramdas Pophale) SiO2 
 PCOD9265048
Probable space group: C 2/C
;
_chemical_formula_sum "Si O2"
_cell_formula_units_Z 48
_cell_length_a 24.817479
_cell_length_b 8.903776
_cell_length_c 16.610182
_cell_angle_alpha 90.000000
_cell_angle_beta 42.167600
_cell_angle_gamma 90.000000
_cell_volume 2463.904896
_symmetry_space_group_name_H-M "C 2/C"
_symmetry_group_IT_number 15
_symmetry_cell_setting 'monoclinic'
loop_
_space_group_symop_operation_xyz
x,y,z
-x,y,1/2-z
-x,-y,-z
x,-y,1/2+z
1/2+x,1/2+y,z
1/2-x,1/2+y,1/2-z
1/2-x,1/2-y,-z
1/2+x,1/2-y,1/2+z
loop_
_atom_site_type_symbol
_atom_site_label
_atom_site_fract_x
_atom_site_fract_y
_atom_site_fract_z
Si Si1 0.078206 0.941513 0.052835
Si Si2 0.730266 0.642025 0.856120
Si Si3 0.310825 0.799873 0.106207
Si Si4 0.813133 0.610837 0.348771
Si Si5 0.598212 0.589578 0.724284
Si Si6 0.267513 0.940015 0.560185
O O1 0.089493 0.928847 0.137356
O O2 0.984161 0.966090 0.144502
O O3 0.105467 0.784563 0.982967
O O4 0.143967 0.060283 0.948201
O O5 0.756597 0.720509 0.744749
O O6 0.799277 0.517794 0.797350
O O7 0.726026 0.764017 0.931888
O O8 0.263871 0.717562 0.084308
O O9 0.312908 0.973412 0.081753
O O10 0.883347 0.734391 0.276235
O O11 0.804141 0.513332 0.439441
O O12 0.674598 0.491519 0.666211
#
# Coordination Sequence:
#
# PCOD9265048 Si02
#       6
#     8   8   8   8   8   8
#     4  10  20  37  58  84 111 148 192 234 284 332
#     4  11  22  33  57  88 120 141 188 241 287 326
#     4  10  19  37  55  81 112 156 188 221 281 351
#     4  10  19  36  57  83 106 152 199 218 270 347
#     4  10  19  36  61  81 110 146 196 234 274 341
#     4  11  18  35  60  86 111 149 194 234 271 341
#
# _framework density 19.481272000000001
#
# number of rings (size 3 to 8) (size 9 to 14) (size 15 to 20)
#    0.000    1.667    5.000    3.500    0.000    0.000 
#    0.000   10.000    0.000    0.000    0.000    0.000 
#    0.000    0.000    0.000    0.000    0.000    0.000 
#
# Total GULP energy -133668.012772 kJ/mol
# GULP energy per Si atom -5569.500532 kJ/mol
# Density = 1.943693 g / cm^3
# Si number density = 19.481272 Si / 1000 Ang^3
#
#
#
# Elastic Constant Matrix: (Units=GPa)
#
#
# Indices 1 2 3 4 5 6 
#
# 1 23.8719 7.5986 17.6788 -0.0001 -9.9651 0.0001
# 2 7.5986 70.9690 -3.2624 -0.0001 -8.9652 0.0002
# 3 17.6788 -3.2624 86.6929 0.0000 -15.5271 0.0001
# 4 -0.0001 -0.0001 0.0000 21.7962 0.0000 3.6310
# 5 -9.9651 -8.9652 -15.5271 0.0000 30.9882 0.0000
# 6 0.0001 0.0002 0.0001 3.6310 0.0000 22.9682
#
#
#
# Elastic Compliance Matrix: (Units=1/GPa)
#
#
# Indices 1 2 3 4 5 6 
#
# 1 0.055242 -0.004871 -0.009359 0.000000 0.011666 0.000000
# 2 -0.004871 0.015220 0.002279 0.000000 0.003978 0.000000
# 3 -0.009359 0.002279 0.014401 0.000000 0.004865 0.000000
# 4 0.000000 0.000000 0.000000 0.047120 0.000000 -0.007449
# 5 0.011666 0.003978 0.004865 0.000000 0.039611 0.000000
# 6 0.000000 0.000000 0.000000 -0.007449 0.000000 0.044716
#
#
# Mechanical properties :
#
#
# Convention : Reuss Voigt Hill
#
# Bulk Modulus (GPa) = 16.40459 25.06264 20.73362
# Shear Modulus (GPa) = 19.19150 25.78509 22.48830
#
# Velocity S-wave (km/s) = 3.14208 3.64206 3.40127
# Velocity P-wave (km/s) = 4.64785 5.52983 5.10791
#
# Compressibility (1/GPa) = 0.06095856
#
# Stress axis : x y z
#
# Youngs Moduli (GPa) = 18.10228 65.70495 69.44126
#
# Poissons Ratio (x) = 0.32007 0.64991
# Poissons Ratio (y) = 0.08818 -0.15823
# Poissons Ratio (z) = 0.16942 -0.14972
#
# Static dielectric constant tensor:
#      x y z
#    x 1.757870 0.000000 0.041350 
#    y 0.000000 1.727820 0.000000 
#    z 0.041350 0.000000 1.678730 
# 
# From -- ./inp_files/213717.got.cif
#   From: 2010.05.17/outbox.cif.g08.bks.cpg/sg15_107_cif.got.tgz:213717.got - 2010.06.03 18:47:42.
