data_PCOD9265305
_publ_section_title
;
Structure prediction by ZEFSAII (Michael W. Deem and Ramdas Pophale) SiO2 
 PCOD9265305
Probable space group: C 2/C
;
_chemical_formula_sum "Si O2"
_cell_formula_units_Z 52
_cell_length_a 26.975617
_cell_length_b 7.664352
_cell_length_c 16.051050
_cell_angle_alpha 90.000000
_cell_angle_beta 142.022252
_cell_angle_gamma 90.000000
_cell_volume 2042.096612
_symmetry_space_group_name_H-M "C 2/C"
_symmetry_group_IT_number 15
_symmetry_cell_setting 'monoclinic'
loop_
_space_group_symop_operation_xyz
x,y,z
-x,y,1/2-z
-x,-y,-z
x,-y,1/2+z
1/2+x,1/2+y,z
1/2-x,1/2+y,1/2-z
1/2-x,1/2-y,-z
1/2+x,1/2-y,1/2+z
loop_
_atom_site_type_symbol
_atom_site_label
_atom_site_fract_x
_atom_site_fract_y
_atom_site_fract_z
Si Si1 0.680471 0.715104 0.692511
Si Si2 0.225781 0.893965 0.535674
Si Si3 0.000000 0.425518 0.250000
Si Si4 0.588864 0.243132 0.457068
Si Si5 0.197616 0.185520 0.251643
Si Si6 0.540903 0.162348 0.101499
Si Si7 0.639932 0.876875 0.326748
O O1 0.724779 0.852761 0.813248
O O2 0.710808 0.748470 0.639104
O O3 0.699250 0.519788 0.744161
O O4 0.587952 0.741642 0.590602
O O5 0.250000 0.750000 0.500000
O O6 0.133710 0.860995 0.446410
O O7 0.265019 0.064257 0.543066
O O8 0.943608 0.561177 0.122510
O O9 0.928964 0.317209 0.200531
O O10 0.655096 0.219178 0.616910
O O11 0.512598 0.293782 0.413837
O O12 0.145740 0.240408 0.260542
O O13 0.599165 0.060423 0.243166
O O14 0.500000 0.000000 0.000000
#
# Coordination Sequence:
#
# PCOD9265305 Si02
#       7
#     8   8   4   8   8   8   8
#     4  10  23  36  63  91 123 156 209 255 309 371
#     4  10  19  37  61  86 117 161 200 250 302 377
#     4  10  20  34  60  92 114 170 204 250 314 386
#     4  10  20  33  62  87 121 152 205 247 309 366
#     4  11  21  40  61  91 121 161 206 266 302 369
#     4  10  19  36  59  92 118 153 195 256 309 359
#     4  10  20  37  61  87 121 157 211 251 305 370
#
# _framework density 25.464026
#
# number of rings (size 3 to 8) (size 9 to 14) (size 15 to 20)
#    0.000    1.846    3.077    2.769    2.154    0.615 
#    0.000    0.769    3.385    0.000    0.000    0.000 
#    0.000    0.000    0.000    0.000    0.000    0.000 
#
# Total GULP energy -144759.544683 kJ/mol
# GULP energy per Si atom -5567.674796 kJ/mol
# Density = 2.540607 g / cm^3
# Si number density = 25.464026 Si / 1000 Ang^3
#
#
#
# Elastic Constant Matrix: (Units=GPa)
#
#
# Indices 1 2 3 4 5 6 
#
# 1 239.9101 50.7405 28.7418 0.0000 76.2523 0.0000
# 2 50.7405 85.6109 5.7462 0.0000 26.1652 0.0000
# 3 28.7418 5.7462 47.5951 0.0000 7.9265 0.0000
# 4 0.0000 0.0000 0.0000 16.8043 0.0000 3.0841
# 5 76.2523 26.1652 7.9265 0.0000 52.2093 0.0000
# 6 0.0000 0.0000 0.0000 3.0841 0.0000 29.8842
#
#
#
# Elastic Compliance Matrix: (Units=1/GPa)
#
#
# Indices 1 2 3 4 5 6 
#
# 1 0.008316 -0.001363 -0.003025 0.000000 -0.011004 0.000000
# 2 -0.001363 0.014030 -0.000032 0.000000 -0.005036 0.000000
# 3 -0.003025 -0.000032 0.022676 0.000000 0.000991 0.000000
# 4 0.000000 0.000000 0.000000 0.060658 0.000000 -0.006260
# 5 -0.011004 -0.005036 0.000991 0.000000 0.037598 0.000000
# 6 0.000000 0.000000 0.000000 -0.006260 0.000000 0.034109
#
#
# Mechanical properties :
#
#
# Convention : Reuss Voigt Hill
#
# Bulk Modulus (GPa) = 27.63790 60.39700 44.01745
# Shear Modulus (GPa) = 25.21601 38.97207 32.09404
#
# Velocity S-wave (km/s) = 3.15025 3.91637 3.55402
# Velocity P-wave (km/s) = 4.91013 6.64986 5.84509
#
# Compressibility (1/GPa) = 0.03618219
#
# Stress axis : x y z
#
# Youngs Moduli (GPa) = 120.24662 71.27712 44.09939
#
# Poissons Ratio (x) = 0.09714 0.13340
# Poissons Ratio (y) = 0.16388 0.00142
# Poissons Ratio (z) = 0.36374 0.00229
#
# Static dielectric constant tensor:
#      x y z
#    x 2.238200 0.000000 0.079540 
#    y 0.000000 1.871220 0.000000 
#    z 0.079540 0.000000 2.240070 
# 
# From -- ./inp_files/257037.got.cif
#   From: 2010.05.17/outbox.cif.g08.bks.cpg/sg15_129_cif.got.tgz:257037.got - 2010.06.03 18:47:42.
