data_PCOD9265205
_publ_section_title
;
Structure prediction by ZEFSAII (Michael W. Deem and Ramdas Pophale) SiO2 
 PCOD9265205
Probable space group: C 2/C
;
_chemical_formula_sum "Si O2"
_cell_formula_units_Z 56
_cell_length_a 10.527568
_cell_length_b 22.327952
_cell_length_c 10.945073
_cell_angle_alpha 90.000000
_cell_angle_beta 96.021163
_cell_angle_gamma 90.000000
_cell_volume 2558.545040
_symmetry_space_group_name_H-M "C 2/C"
_symmetry_group_IT_number 15
_symmetry_cell_setting 'monoclinic'
loop_
_space_group_symop_operation_xyz
x,y,z
-x,y,1/2-z
-x,-y,-z
x,-y,1/2+z
1/2+x,1/2+y,z
1/2-x,1/2+y,1/2-z
1/2-x,1/2-y,-z
1/2+x,1/2-y,1/2+z
loop_
_atom_site_type_symbol
_atom_site_label
_atom_site_fract_x
_atom_site_fract_y
_atom_site_fract_z
Si Si1 0.793464 0.675786 0.261915
Si Si2 0.386492 0.079604 0.912528
Si Si3 0.803094 0.989671 0.508971
Si Si4 0.132302 0.059956 0.225308
Si Si5 0.452210 0.802477 0.555997
Si Si6 0.631114 0.757631 0.397631
Si Si7 0.664840 0.103014 0.857545
O O1 0.746192 0.608580 0.230069
O O2 0.855712 0.711911 0.155007
O O3 0.670358 0.711342 0.298282
O O4 0.914022 0.673910 0.368850
O O5 0.533499 0.072842 0.889219
O O6 0.310723 0.083846 0.777949
O O7 0.326002 0.028360 0.987602
O O8 0.385519 0.143134 0.979574
O O9 0.850514 0.982157 0.652881
O O10 0.773141 0.922832 0.456525
O O11 0.874203 0.024624 0.405123
O O12 0.000000 0.091385 0.250000
O O13 0.501973 0.753463 0.464293
O O14 0.750000 0.750000 0.500000
O O15 0.638813 0.826254 0.354060
#
# Coordination Sequence:
#
# PCOD9265205 Si02
#       7
#     8   8   8   8   8   8   8
#     4  10  20  39  65  92 125 165 212 260 319 379
#     4  10  19  36  58  97 128 155 196 261 323 381
#     4  12  22  42  64  88 127 169 213 259 317 381
#     4  12  26  43  63  89 126 175 220 261 313 382
#     4   9  18  36  65  93 126 159 200 265 320 375
#     4   9  18  36  60  89 127 162 202 252 315 379
#     4  10  21  36  62  95 130 159 200 258 328 373
#
# _framework density 21.887438
#
# number of rings (size 3 to 8) (size 9 to 14) (size 15 to 20)
#    0.000    1.714    2.857    3.429    0.000    0.000 
#    5.143    2.143    6.286    0.000    0.000    0.000 
#    0.000    0.000    0.000    0.000    0.000    0.000 
#
# Total GULP energy -156007.257178 kJ/mol
# GULP energy per Si atom -5571.687756 kJ/mol
# Density = 2.183762 g / cm^3
# Si number density = 21.887438 Si / 1000 Ang^3
#
#
#
# Elastic Constant Matrix: (Units=GPa)
#
#
# Indices 1 2 3 4 5 6 
#
# 1 63.2546 27.4364 32.5954 0.0000 -22.2203 0.0000
# 2 27.4364 49.1089 30.9230 0.0000 -21.4291 0.0000
# 3 32.5954 30.9230 117.3758 0.0000 -31.3235 0.0000
# 4 0.0000 0.0000 0.0000 19.0492 0.0000 -7.4181
# 5 -22.2203 -21.4291 -31.3235 0.0000 25.3390 0.0000
# 6 0.0000 0.0000 0.0000 -7.4181 0.0000 31.4150
#
#
#
# Elastic Compliance Matrix: (Units=1/GPa)
#
#
# Indices 1 2 3 4 5 6 
#
# 1 0.024293 -0.006604 -0.001211 0.000000 0.014221 0.000000
# 2 -0.006604 0.034330 -0.001504 0.000000 0.021382 0.000000
# 3 -0.001211 -0.001504 0.012878 0.000000 0.013585 0.000000
# 4 0.000000 0.000000 0.000000 0.057811 0.000000 0.013651
# 5 0.014221 0.021382 0.013585 0.000000 0.086811 0.000000
# 6 0.000000 0.000000 0.000000 0.013651 0.000000 0.035055
#
#
# Mechanical properties :
#
#
# Convention : Reuss Voigt Hill
#
# Bulk Modulus (GPa) = 18.91745 45.73875 32.32810
# Shear Modulus (GPa) = 17.39501 24.41295 20.90398
#
# Velocity S-wave (km/s) = 2.82219 3.34336 3.09377
# Velocity P-wave (km/s) = 4.39107 5.98721 5.25015
#
# Compressibility (1/GPa) = 0.05286125
#
# Stress axis : x y z
#
# Youngs Moduli (GPa) = 41.16338 29.12907 77.65425
#
# Poissons Ratio (x) = 0.19237 0.09407
# Poissons Ratio (y) = 0.27185 0.11681
# Poissons Ratio (z) = 0.04987 0.04382
#
# Static dielectric constant tensor:
#      x y z
#    x 1.722950 0.000000 0.009560 
#    y 0.000000 1.791670 0.000000 
#    z 0.009560 0.000000 1.886070 
# 
# From -- ./inp_files/88993.got.cif
#   From: 2010.05.17/outbox.cif.g08.bks.cpg/sg15_45_cif.got.tgz:88993.got - 2010.06.03 18:47:42.
