data_PCOD9265340
_publ_section_title
;
Structure prediction by ZEFSAII (Michael W. Deem and Ramdas Pophale) SiO2 
 PCOD9265340
Probable space group: C 2/C
;
_chemical_formula_sum "Si O2"
_cell_formula_units_Z 52
_cell_length_a 8.324652
_cell_length_b 25.916724
_cell_length_c 20.704831
_cell_angle_alpha 90.000000
_cell_angle_beta 149.265926
_cell_angle_gamma 90.000000
_cell_volume 2282.889182
_symmetry_space_group_name_H-M "C 2/C"
_symmetry_group_IT_number 15
_symmetry_cell_setting 'monoclinic'
loop_
_space_group_symop_operation_xyz
x,y,z
-x,y,1/2-z
-x,-y,-z
x,-y,1/2+z
1/2+x,1/2+y,z
1/2-x,1/2+y,1/2-z
1/2-x,1/2-y,-z
1/2+x,1/2-y,1/2+z
loop_
_atom_site_type_symbol
_atom_site_label
_atom_site_fract_x
_atom_site_fract_y
_atom_site_fract_z
Si Si1 0.215656 0.793901 0.584053
Si Si2 0.412546 0.657587 0.332269
Si Si3 0.500000 0.012151 0.750000
Si Si4 0.000000 0.020779 0.750000
Si Si5 0.972512 0.799129 0.353631
Si Si6 0.434830 0.061462 0.334941
Si Si7 0.548681 0.414343 0.386291
Si Si8 0.000000 0.222777 0.250000
O O1 0.010079 0.820852 0.569191
O O2 0.555007 0.820940 0.702304
O O3 0.295949 0.732559 0.614213
O O4 0.095240 0.799851 0.470062
O O5 0.334156 0.597810 0.290698
O O6 0.621500 0.682220 0.346873
O O7 0.775996 0.049655 0.821676
O O8 0.381844 0.971526 0.655384
O O9 0.150192 0.056020 0.857185
O O10 0.262838 0.982982 0.814487
O O11 0.674243 0.762466 0.262164
O O12 0.923297 0.858406 0.321388
O O13 0.672762 0.090197 0.465137
#
# Coordination Sequence:
#
# PCOD9265340 Si02
#       8
#     8   8   4   4   8   8   8   4
#     4   9  19  35  58  86 113 157 201 233 300 371
#     4  10  19  36  60  85 115 158 198 245 302 355
#     4  10  23  38  62  94 122 152 209 264 308 358
#     4  10  25  40  60  92 126 160 207 256 316 362
#     4  10  20  37  58  83 121 157 196 250 298 367
#     4  11  21  40  64  90 122 160 208 261 302 368
#     4  11  22  40  64  87 122 166 203 251 316 366
#     4  10  22  34  56  86 124 148 200 254 294 360
#
# _framework density 22.778154000000001
#
# number of rings (size 3 to 8) (size 9 to 14) (size 15 to 20)
#    0.000    1.846    1.538    2.769    0.000    3.077 
#    0.000    0.000   10.154    0.000    0.000    0.000 
#    0.000    0.000    0.000    0.000    0.000    0.000 
#
# Total GULP energy -144748.276783 kJ/mol
# GULP energy per Si atom -5567.241415 kJ/mol
# Density = 2.272631 g / cm^3
# Si number density = 22.778154 Si / 1000 Ang^3
#
#
#
# Elastic Constant Matrix: (Units=GPa)
#
#
# Indices 1 2 3 4 5 6 
#
# 1 74.2646 56.2064 0.5831 -0.0027 -24.3380 -0.0035
# 2 56.2064 178.3890 8.8887 0.0032 -18.5350 0.0036
# 3 0.5831 8.8887 35.3614 -0.0296 -16.2023 -0.0293
# 4 -0.0027 0.0032 -0.0296 51.2993 -0.0175 45.3805
# 5 -24.3380 -18.5350 -16.2023 -0.0175 22.7749 -0.0179
# 6 -0.0035 0.0036 -0.0293 45.3805 -0.0179 93.0633
#
#
#
# Elastic Compliance Matrix: (Units=1/GPa)
#
#
# Indices 1 2 3 4 5 6 
#
# 1 0.033721 -0.006926 0.022423 0.000027 0.046351 0.000004
# 2 -0.006926 0.007575 -0.003496 -0.000004 -0.003724 -0.000001
# 3 0.022423 -0.003496 0.057065 0.000049 0.061713 0.000007
# 4 0.000027 -0.000004 0.000049 0.034281 0.000074 -0.016717
# 5 0.046351 -0.003724 0.061713 0.000074 0.134313 0.000011
# 6 0.000004 -0.000001 0.000007 -0.016717 0.000011 0.018897
#
#
# Mechanical properties :
#
#
# Convention : Reuss Voigt Hill
#
# Bulk Modulus (GPa) = 8.17242 46.59680 27.38461
# Shear Modulus (GPa) = 16.52126 48.24997 32.38561
#
# Velocity S-wave (km/s) = 2.69608 4.60745 3.77475
# Velocity P-wave (km/s) = 3.64519 6.98612 5.57196
#
# Compressibility (1/GPa) = 0.12236274
#
# Stress axis : x y z
#
# Youngs Moduli (GPa) = 29.65469 132.00774 17.52381
#
# Poissons Ratio (x) = 0.91431 -0.39293
# Poissons Ratio (y) = 0.20539 0.06127
# Poissons Ratio (z) = -0.66494 0.46152
#
# Static dielectric constant tensor:
#      x y z
#    x 1.991970 0.000000 -0.040090 
#    y 0.000000 1.876820 0.000000 
#    z -0.040090 0.000000 1.922350 
# 
# From -- ./inp_files/137545.got.cif
#   From: 2010.05.17/outbox.cif.g08.bks.cpg/sg15_69_cif.got.tgz:137545.got - 2010.06.03 18:47:42.
