data_PCOD9265083
_publ_section_title
;
Structure prediction by ZEFSAII (Michael W. Deem and Ramdas Pophale) SiO2 
 PCOD9265083
Probable space group: C 2/C
;
_chemical_formula_sum "Si O2"
_cell_formula_units_Z 56
_cell_length_a 21.607749
_cell_length_b 7.751854
_cell_length_c 15.846233
_cell_angle_alpha 90.000000
_cell_angle_beta 53.103952
_cell_angle_gamma 90.000000
_cell_volume 2122.669611
_symmetry_space_group_name_H-M "C 2/C"
_symmetry_group_IT_number 15
_symmetry_cell_setting 'monoclinic'
loop_
_space_group_symop_operation_xyz
x,y,z
-x,y,1/2-z
-x,-y,-z
x,-y,1/2+z
1/2+x,1/2+y,z
1/2-x,1/2+y,1/2-z
1/2-x,1/2-y,-z
1/2+x,1/2-y,1/2+z
loop_
_atom_site_type_symbol
_atom_site_label
_atom_site_fract_x
_atom_site_fract_y
_atom_site_fract_z
Si Si1 0.034112 0.125560 0.837590
Si Si2 0.718741 0.818585 0.311246
Si Si3 0.369294 0.400542 0.402447
Si Si4 0.706190 0.960336 0.508816
Si Si5 0.637748 0.453337 0.393980
Si Si6 0.927168 0.347874 0.453624
Si Si7 0.580819 0.006778 0.852285
O O1 0.080681 0.049819 0.720033
O O2 0.066494 0.021144 0.889549
O O3 0.061922 0.324037 0.825324
O O4 0.941267 0.135560 0.906942
O O5 0.723287 0.923746 0.395182
O O6 0.683566 0.632489 0.364053
O O7 0.802839 0.822164 0.201482
O O8 0.664303 0.905355 0.284602
O O9 0.328527 0.213838 0.422914
O O10 0.289461 0.508991 0.479450
O O11 0.632347 0.084851 0.567148
O O12 0.603165 0.339095 0.497104
O O13 0.924730 0.466711 0.541351
O O14 0.017971 0.363868 0.363174
#
# Coordination Sequence:
#
# PCOD9265083 Si02
#       7
#     8   8   8   8   8   8   8
#     4  10  19  36  57  88 110 154 201 229 289 342
#     4  11  22  36  58  86 114 149 193 252 303 343
#     4  10  20  32  60  82 115 157 201 229 266 363
#     4  10  19  36  57  88 110 153 199 234 285 343
#     4  11  22  36  58  86 116 150 191 253 301 346
#     4   9  18  34  57  82 114 144 185 241 294 336
#     4   9  18  34  57  82 113 142 187 245 286 346
#
# _framework density 26.381874
#
# number of rings (size 3 to 8) (size 9 to 14) (size 15 to 20)
#    0.000    2.000    2.857    2.571    2.000    0.571 
#    0.000    0.000    0.000   10.286    0.000    0.000 
#    0.000    0.000    0.000    0.000    0.000    0.000 
#
# Total GULP energy -156426.715677 kJ/mol
# GULP energy per Si atom -5586.668417 kJ/mol
# Density = 2.632183 g / cm^3
# Si number density = 26.381874 Si / 1000 Ang^3
#
#
#
# Elastic Constant Matrix: (Units=GPa)
#
#
# Indices 1 2 3 4 5 6 
#
# 1 203.8421 42.6166 38.2085 0.0000 -68.4379 -0.0001
# 2 42.6166 68.0473 9.9953 -0.0002 -19.1736 -0.0003
# 3 38.2085 9.9953 76.5973 0.0000 -43.3769 -0.0002
# 4 0.0000 -0.0002 0.0000 26.6592 0.0000 -12.9175
# 5 -68.4379 -19.1736 -43.3769 0.0000 52.1509 0.0001
# 6 -0.0001 -0.0003 -0.0002 -12.9175 0.0001 36.0670
#
#
#
# Elastic Compliance Matrix: (Units=1/GPa)
#
#
# Indices 1 2 3 4 5 6 
#
# 1 0.009824 -0.002403 0.004185 0.000000 0.015490 0.000000
# 2 -0.002403 0.017220 0.001420 0.000000 0.004359 0.000000
# 3 0.004185 0.001420 0.026822 0.000000 0.028323 0.000000
# 4 0.000000 0.000000 0.000000 0.045387 0.000000 0.016255
# 5 0.015490 0.004359 0.028323 0.000000 0.064663 0.000000
# 6 0.000000 0.000000 0.000000 0.016255 0.000000 0.033548
#
#
# Mechanical properties :
#
#
# Convention : Reuss Voigt Hill
#
# Bulk Modulus (GPa) = 16.59208 58.90306 37.74757
# Shear Modulus (GPa) = 23.67985 40.15319 31.91652
#
# Velocity S-wave (km/s) = 2.99921 3.90551 3.48198
# Velocity P-wave (km/s) = 4.27745 6.53551 5.52311
#
# Compressibility (1/GPa) = 0.06026970
#
# Stress axis : x y z
#
# Youngs Moduli (GPa) = 101.78941 58.07157 37.28315
#
# Poissons Ratio (x) = 0.13954 -0.15602
# Poissons Ratio (y) = 0.24459 -0.05294
# Poissons Ratio (z) = -0.42596 -0.08246
#
# Static dielectric constant tensor:
#      x y z
#    x 2.134670 0.000000 0.040970 
#    y 0.000000 2.085820 0.000000 
#    z 0.040970 0.000000 2.118240 
# 
# From -- ./inp_files/224454.got.cif
#   From: 2010.05.17/outbox.cif.g08.bks.cpg/sg15_113_cif.got.tgz:224454.got - 2010.06.03 18:47:42.
