data_PCOD9265189
_publ_section_title
;
Structure prediction by ZEFSAII (Michael W. Deem and Ramdas Pophale) SiO2 
 PCOD9265189
Probable space group: C 2/C
;
_chemical_formula_sum "Si O2"
_cell_formula_units_Z 64
_cell_length_a 10.318024
_cell_length_b 24.187904
_cell_length_c 12.238489
_cell_angle_alpha 90.000000
_cell_angle_beta 81.349655
_cell_angle_gamma 90.000000
_cell_volume 3019.631775
_symmetry_space_group_name_H-M "C 2/C"
_symmetry_group_IT_number 15
_symmetry_cell_setting 'monoclinic'
loop_
_space_group_symop_operation_xyz
x,y,z
-x,y,1/2-z
-x,-y,-z
x,-y,1/2+z
1/2+x,1/2+y,z
1/2-x,1/2+y,1/2-z
1/2-x,1/2-y,-z
1/2+x,1/2-y,1/2+z
loop_
_atom_site_type_symbol
_atom_site_label
_atom_site_fract_x
_atom_site_fract_y
_atom_site_fract_z
Si Si1 0.348757 0.781765 0.402749
Si Si2 0.333130 0.007872 0.099283
Si Si3 0.727321 0.398400 0.456081
Si Si4 0.592365 0.939193 0.602081
Si Si5 0.979313 0.103363 0.126329
Si Si6 0.333284 0.495740 0.181093
Si Si7 0.231497 0.663539 0.051999
Si Si8 0.839229 0.727505 0.643194
O O1 0.250000 0.750000 0.500000
O O2 0.320455 0.847274 0.419829
O O3 0.503307 0.767645 0.401148
O O4 0.322880 0.772767 0.276256
O O5 0.299712 0.055212 0.017226
O O6 0.453324 0.035195 0.148264
O O7 0.207386 0.995001 0.187548
O O8 0.384549 0.954608 0.028812
O O9 0.608052 0.379388 0.546342
O O10 0.665403 0.433804 0.364531
O O11 0.709493 0.971884 0.644888
O O12 0.611546 0.873954 0.610341
O O13 0.951003 0.037128 0.135666
O O14 0.000000 0.121290 0.250000
O O15 0.858922 0.129273 0.074799
O O16 0.211481 0.676569 0.925957
O O17 0.254574 0.721296 0.109177
#
# Coordination Sequence:
#
# PCOD9265189 Si02
#       8
#     8   8   8   8   8   8   8   8
#     4  11  25  44  72  99 132 175 227 276 345 411
#     4  10  19  36  58  89 132 165 211 260 328 401
#     4  11  23  39  61  95 125 171 221 267 337 404
#     4   9  20  34  58  91 125 168 208 261 322 404
#     4  11  22  40  67  91 129 180 222 274 333 404
#     4  10  21  37  58  91 127 165 214 268 325 401
#     4  10  22  42  68  94 133 173 225 278 343 387
#     4  10  24  46  67  99 133 172 221 289 335 402
#
# _framework density 21.194637
#
# number of rings (size 3 to 8) (size 9 to 14) (size 15 to 20)
#    0.000    1.750    1.250    2.250    5.250    0.000 
#    4.500    8.125    0.000    0.000    0.000    0.000 
#    0.000    0.000    0.000    0.000    0.000    0.000 
#
# Total GULP energy -178361.126615 kJ/mol
# GULP energy per Si atom -5573.785207 kJ/mol
# Density = 2.114640 g / cm^3
# Si number density = 21.194637 Si / 1000 Ang^3
#
#
#
# Elastic Constant Matrix: (Units=GPa)
#
#
# Indices 1 2 3 4 5 6 
#
# 1 75.4151 2.1724 40.2899 0.0000 10.8618 0.0000
# 2 2.1724 79.7761 35.9603 0.0000 0.8220 0.0000
# 3 40.2899 35.9603 115.0403 0.0000 2.8917 0.0000
# 4 0.0000 0.0000 0.0000 10.8700 0.0000 7.9730
# 5 10.8618 0.8220 2.8917 0.0000 30.7355 0.0000
# 6 0.0000 0.0000 0.0000 7.9730 0.0000 28.3974
#
#
#
# Elastic Compliance Matrix: (Units=1/GPa)
#
#
# Indices 1 2 3 4 5 6 
#
# 1 0.017679 0.002682 -0.006887 0.000000 -0.005671 0.000000
# 2 0.002682 0.014998 -0.005607 0.000000 -0.000821 0.000000
# 3 -0.006887 -0.005607 0.012823 0.000000 0.001377 0.000000
# 4 0.000000 0.000000 0.000000 0.115856 0.000000 -0.032528
# 5 -0.005671 -0.000821 0.001377 0.000000 0.034432 0.000000
# 6 0.000000 0.000000 0.000000 -0.032528 0.000000 0.044347
#
#
# Mechanical properties :
#
#
# Convention : Reuss Voigt Hill
#
# Bulk Modulus (GPa) = 38.64775 47.45296 43.05035
# Shear Modulus (GPa) = 18.63000 26.78782 22.70891
#
# Velocity S-wave (km/s) = 2.96800 3.55899 3.27685
# Velocity P-wave (km/s) = 5.47902 6.27107 5.88838
#
# Compressibility (1/GPa) = 0.02587473
#
# Stress axis : x y z
#
# Youngs Moduli (GPa) = 56.56424 66.67641 77.98702
#
# Poissons Ratio (x) = -0.17880 0.53712
# Poissons Ratio (y) = -0.15168 0.43725
# Poissons Ratio (z) = 0.38957 0.37383
#
# Static dielectric constant tensor:
#      x y z
#    x 1.793180 0.000000 0.048950 
#    y 0.000000 1.778240 0.000000 
#    z 0.048950 0.000000 1.908810 
# 
# From -- ./inp_files/90788.got.cif
#   From: 2010.05.17/outbox.cif.g08.bks.cpg/sg15_46_cif.got.tgz:90788.got - 2010.06.03 18:47:42.
