data_PCOD9265610
_publ_section_title
;
Structure prediction by ZEFSAII (Michael W. Deem and Ramdas Pophale) SiO2 
 PCOD9265610
Probable space group: C 2/C
;
_chemical_formula_sum "Si O2"
_cell_formula_units_Z 56
_cell_length_a 8.675776
_cell_length_b 24.212412
_cell_length_c 17.685716
_cell_angle_alpha 90.000000
_cell_angle_beta 48.668860
_cell_angle_gamma 90.000000
_cell_volume 2789.678855
_symmetry_space_group_name_H-M "C 2/C"
_symmetry_group_IT_number 15
_symmetry_cell_setting 'monoclinic'
loop_
_space_group_symop_operation_xyz
x,y,z
-x,y,1/2-z
-x,-y,-z
x,-y,1/2+z
1/2+x,1/2+y,z
1/2-x,1/2+y,1/2-z
1/2-x,1/2-y,-z
1/2+x,1/2-y,1/2+z
loop_
_atom_site_type_symbol
_atom_site_label
_atom_site_fract_x
_atom_site_fract_y
_atom_site_fract_z
Si Si1 0.596091 0.862415 0.633863
Si Si2 0.978807 0.344875 0.507484
Si Si3 0.538290 0.564020 0.324156
Si Si4 0.720483 0.522892 0.403224
Si Si5 0.477734 0.692069 0.343871
Si Si6 0.276625 0.746306 0.858361
Si Si7 0.588942 0.958331 0.033729
O O1 0.500000 0.866600 0.750000
O O2 0.460456 0.864584 0.601221
O O3 0.746885 0.914458 0.578416
O O4 0.691673 0.801375 0.602217
O O5 0.762996 0.314772 0.558273
O O6 0.012989 0.398558 0.443948
O O7 0.169094 0.304048 0.435296
O O8 0.500000 0.548897 0.250000
O O9 0.707363 0.530423 0.316728
O O10 0.569438 0.629913 0.320625
O O11 0.322136 0.553134 0.433653
O O12 0.500000 0.500000 0.500000
O O13 0.890041 0.485674 0.390431
O O14 0.500000 0.709033 0.250000
O O15 0.613105 0.733272 0.348857
O O16 0.500000 0.733270 0.750000
O O17 0.500000 0.000000 0.000000
#
# Coordination Sequence:
#
# PCOD9265610 Si02
#       7
#     8   8   8   8   8   8   8
#     4  11  22  37  65  96 124 163 219 278 325 386
#     4  11  23  39  63  94 130 173 216 270 333 393
#     4   9  19  33  59  90 118 156 209 272 323 371
#     4  10  20  36  58  89 127 158 205 269 324 386
#     4  10  19  36  62  94 125 159 213 271 326 385
#     4  11  23  40  63  95 131 174 218 269 330 391
#     4  10  20  36  57  84 124 166 207 260 319 391
#
# _framework density 20.073995
#
# number of rings (size 3 to 8) (size 9 to 14) (size 15 to 20)
#    0.000    1.714    2.857    2.571    4.000    0.000 
#    0.000    0.714    3.143    0.000    0.000    0.000 
#    0.000    0.000    0.000    0.000    0.000    0.000 
#
# Total GULP energy -156112.567492 kJ/mol
# GULP energy per Si atom -5575.448839 kJ/mol
# Density = 2.002831 g / cm^3
# Si number density = 20.073995 Si / 1000 Ang^3
#
#
#
# Elastic Constant Matrix: (Units=GPa)
#
#
# Indices 1 2 3 4 5 6 
#
# 1 114.4028 36.4668 41.8047 0.0000 15.4591 0.0000
# 2 36.4668 101.6675 48.4574 0.0000 -7.8139 0.0000
# 3 41.8047 48.4574 74.6973 0.0000 -2.6782 0.0000
# 4 0.0000 0.0000 0.0000 23.0202 0.0000 -3.5955
# 5 15.4591 -7.8139 -2.6782 0.0000 42.2806 0.0000
# 6 0.0000 0.0000 0.0000 -3.5955 0.0000 38.2178
#
#
#
# Elastic Compliance Matrix: (Units=1/GPa)
#
#
# Indices 1 2 3 4 5 6 
#
# 1 0.012168 -0.002068 -0.005654 0.000000 -0.005189 0.000000
# 2 -0.002068 0.014770 -0.008318 0.000000 0.002959 0.000000
# 3 -0.005654 -0.008318 0.022016 0.000000 0.001925 0.000000
# 4 0.000000 0.000000 0.000000 0.044088 0.000000 0.004148
# 5 -0.005189 0.002959 0.001925 0.000000 0.026218 0.000000
# 6 0.000000 0.000000 0.000000 0.004148 0.000000 0.026556
#
#
# Mechanical properties :
#
#
# Convention : Reuss Voigt Hill
#
# Bulk Modulus (GPa) = 59.26353 60.46948 59.86651
# Shear Modulus (GPa) = 27.24500 31.63965 29.44233
#
# Velocity S-wave (km/s) = 3.68806 3.97438 3.83389
# Velocity P-wave (km/s) = 6.90813 7.15889 7.03463
#
# Compressibility (1/GPa) = 0.01687378
#
# Stress axis : x y z
#
# Youngs Moduli (GPa) = 82.18545 67.70600 45.42062
#
# Poissons Ratio (x) = 0.14004 0.25680
# Poissons Ratio (y) = 0.16999 0.37779
# Poissons Ratio (z) = 0.46467 0.56316
#
# Static dielectric constant tensor:
#      x y z
#    x 1.815050 0.000000 -0.024050 
#    y 0.000000 1.730200 0.000000 
#    z -0.024050 0.000000 1.793460 
# 
# From -- ./inp_files/193219.got.cif
#   From: 2010.05.17/outbox.cif.g08.bks.cpg/sg15_97_cif.got.tgz:193219.got - 2010.06.03 18:47:42.
