data_PCOD9265927
_publ_section_title
;
Structure prediction by ZEFSAII (Michael W. Deem and Ramdas Pophale) SiO2 
 PCOD9265927
Probable space group: C 2/C
;
_chemical_formula_sum "Si O2"
_cell_formula_units_Z 40
_cell_length_a 10.281199
_cell_length_b 23.929541
_cell_length_c 9.733627
_cell_angle_alpha 90.000000
_cell_angle_beta 46.978655
_cell_angle_gamma 90.000000
_cell_volume 1750.771092
_symmetry_space_group_name_H-M "C 2/C"
_symmetry_group_IT_number 15
_symmetry_cell_setting 'monoclinic'
loop_
_space_group_symop_operation_xyz
x,y,z
-x,y,1/2-z
-x,-y,-z
x,-y,1/2+z
1/2+x,1/2+y,z
1/2-x,1/2+y,1/2-z
1/2-x,1/2-y,-z
1/2+x,1/2-y,1/2+z
loop_
_atom_site_type_symbol
_atom_site_label
_atom_site_fract_x
_atom_site_fract_y
_atom_site_fract_z
Si Si1 0.885139 0.811123 0.472290
Si Si2 0.283256 0.376703 0.780534
Si Si3 0.899455 0.318736 0.028815
Si Si4 0.866737 0.510652 0.220818
Si Si5 0.210262 0.391178 0.140463
O O1 0.923360 0.849079 0.575791
O O2 0.884669 0.748395 0.532604
O O3 0.699329 0.833763 0.541803
O O4 0.000000 0.810204 0.250000
O O5 0.250490 0.437889 0.743415
O O6 0.307871 0.379317 0.926414
O O7 0.100399 0.340288 0.896252
O O8 0.794966 0.346210 0.232507
O O9 0.756234 0.454291 0.331364
O O10 0.000000 0.524573 0.250000
O O11 0.000000 0.500000 0.000000
O O12 0.000000 0.394305 0.250000
#
# Coordination Sequence:
#
# PCOD9265927 Si02
#       5
#     8   8   8   8   8
#     4  11  23  36  53  80 113 156 193 224 275 334
#     4  11  21  36  60  86 116 144 187 238 278 331
#     4  10  19  37  58  81 109 145 195 236 274 328
#     4  11  17  31  56  95 116 134 177 244 290 326
#     4   9  19  33  55  92 114 135 182 240 292 324
#
# _framework density 22.847076000000001
#
# number of rings (size 3 to 8) (size 9 to 14) (size 15 to 20)
#    0.000    1.600    6.000    4.200    0.000    0.800 
#    0.000    3.000    0.000    4.800    0.000    0.000 
#    0.000    0.000    0.000    0.000    0.000    0.000 
#
# Total GULP energy -111672.205916 kJ/mol
# GULP energy per Si atom -5583.610296 kJ/mol
# Density = 2.279508 g / cm^3
# Si number density = 22.847076 Si / 1000 Ang^3
#
#
#
# Elastic Constant Matrix: (Units=GPa)
#
#
# Indices 1 2 3 4 5 6 
#
# 1 76.6519 45.7286 47.1775 0.0000 29.5208 0.0000
# 2 45.7286 144.2961 102.8758 0.0000 36.5774 0.0000
# 3 47.1775 102.8758 208.2469 0.0000 35.7304 0.0000
# 4 0.0000 0.0000 0.0000 30.7230 0.0000 26.9384
# 5 29.5208 36.5774 35.7304 0.0000 53.4518 0.0000
# 6 0.0000 0.0000 0.0000 26.9384 0.0000 7.9079
#
#
#
# Elastic Compliance Matrix: (Units=1/GPa)
#
#
# Indices 1 2 3 4 5 6 
#
# 1 0.018509 -0.002985 -0.001486 0.000000 -0.007187 0.000000
# 2 -0.002985 0.012122 -0.004712 0.000000 -0.003497 0.000000
# 3 -0.001486 -0.004712 0.007650 0.000000 -0.001068 0.000000
# 4 0.000000 0.000000 0.000000 -0.016382 0.000000 0.055805
# 5 -0.007187 -0.003497 -0.001068 0.000000 0.025785 0.000000
# 6 0.000000 0.000000 0.000000 0.055805 0.000000 -0.063645
#
#
# Mechanical properties :
#
#
# Convention : Reuss Voigt Hill
#
# Bulk Modulus (GPa) = 50.21213 91.19541 70.70377
# Shear Modulus (GPa) = 552.98322 33.97742 293.48032
#
# Velocity S-wave (km/s) = 15.57441 3.86056 11.34606
# Velocity P-wave (km/s) = 18.58606 7.73784 14.23579
#
# Compressibility (1/GPa) = 0.01991551
#
# Stress axis : x y z
#
# Youngs Moduli (GPa) = 54.02874 82.49405 130.72303
#
# Poissons Ratio (x) = 0.24622 0.19419
# Poissons Ratio (y) = 0.16126 0.61600
# Poissons Ratio (z) = 0.08026 0.38873
#
# Static dielectric constant tensor:
#      x y z
#    x 1.868970 0.000000 -0.086440 
#    y 0.000000 1.837320 0.000000 
#    z -0.086440 0.000000 1.860660 
# 
# From -- ./inp_files/31763.got.cif
#   From: 2010.05.17/outbox.cif.g08.bks.cpg/sg15_16_cif.got.tgz:31763.got - 2010.06.03 18:47:42.
