data_PCOD9265767
_publ_section_title
;
Structure prediction by ZEFSAII (Michael W. Deem and Ramdas Pophale) SiO2 
 PCOD9265767
Probable space group: C 2/C
;
_chemical_formula_sum "Si O2"
_cell_formula_units_Z 40
_cell_length_a 17.227925
_cell_length_b 13.211517
_cell_length_c 22.436011
_cell_angle_alpha 90.000000
_cell_angle_beta 158.384581
_cell_angle_gamma 90.000000
_cell_volume 1881.140194
_symmetry_space_group_name_H-M "C 2/C"
_symmetry_group_IT_number 15
_symmetry_cell_setting 'monoclinic'
loop_
_space_group_symop_operation_xyz
x,y,z
-x,y,1/2-z
-x,-y,-z
x,-y,1/2+z
1/2+x,1/2+y,z
1/2-x,1/2+y,1/2-z
1/2-x,1/2-y,-z
1/2+x,1/2-y,1/2+z
loop_
_atom_site_type_symbol
_atom_site_label
_atom_site_fract_x
_atom_site_fract_y
_atom_site_fract_z
Si Si1 0.682912 0.378592 0.332864
Si Si2 0.500224 0.695050 0.046237
Si Si3 0.651105 0.640516 0.441273
Si Si4 0.810175 0.590949 0.437913
Si Si5 0.443613 0.267337 0.374741
O O1 0.500000 0.400905 0.250000
O O2 0.820983 0.478876 0.419911
O O3 0.579612 0.340229 0.198007
O O4 0.836387 0.291754 0.466780
O O5 0.372043 0.632457 0.004236
O O6 0.750948 0.686938 0.233348
O O7 0.463510 0.816371 0.032350
O O8 0.430670 0.676677 0.929254
O O9 0.750000 0.750000 0.500000
O O10 0.790856 0.574720 0.495918
O O11 0.413963 0.632659 0.247085
#
# Coordination Sequence:
#
# PCOD9265767 Si02
#       5
#     8   8   8   8   8
#     4  11  22  42  64  83 114 159 214 238 286 352
#     4  10  19  39  59  90 123 146 195 236 315 355
#     4   9  17  32  62  91 116 146 188 244 298 351
#     4  10  19  36  66  89 112 159 199 239 290 362
#     4  10  23  35  61  85 118 165 187 248 294 344
#
# _framework density 21.2637
#
# number of rings (size 3 to 8) (size 9 to 14) (size 15 to 20)
#    0.000    2.000    4.000    0.600    0.000    3.200 
#    0.000    1.000    4.400    4.800    0.000    0.000 
#    0.000    0.000    0.000    0.000    0.000    0.000 
#
# Total GULP energy -111480.956417 kJ/mol
# GULP energy per Si atom -5574.047821 kJ/mol
# Density = 2.121530 g / cm^3
# Si number density = 21.263700 Si / 1000 Ang^3
#
#
#
# Elastic Constant Matrix: (Units=GPa)
#
#
# Indices 1 2 3 4 5 6 
#
# 1 135.8366 30.5627 31.7241 -0.0195 -22.4911 0.0027
# 2 30.5627 59.4629 11.6172 0.0364 -10.9436 0.0017
# 3 31.7241 11.6172 55.7683 0.0142 -18.4969 -0.0007
# 4 -0.0195 0.0364 0.0142 27.2287 0.0039 -5.0849
# 5 -22.4911 -10.9436 -18.4969 0.0039 32.1022 -0.0013
# 6 0.0027 0.0017 -0.0007 -5.0849 -0.0013 16.1064
#
#
#
# Elastic Compliance Matrix: (Units=1/GPa)
#
#
# Indices 1 2 3 4 5 6 
#
# 1 0.009569 -0.003592 -0.003557 0.000014 0.003430 0.000003
# 2 -0.003592 0.019495 -0.000801 -0.000031 0.003668 -0.000011
# 3 -0.003557 -0.000801 0.023742 -0.000016 0.010914 -0.000002
# 4 0.000014 -0.000031 -0.000016 0.039027 -0.000014 0.012321
# 5 0.003430 0.003668 0.010914 -0.000014 0.041092 -0.000002
# 6 0.000003 -0.000011 -0.000002 0.012321 -0.000002 0.065977
#
#
# Mechanical properties :
#
#
# Convention : Reuss Voigt Hill
#
# Bulk Modulus (GPa) = 27.09720 44.31953 35.70836
# Shear Modulus (GPa) = 22.01631 26.89837 24.45734
#
# Velocity S-wave (km/s) = 3.22124 3.56053 3.39513
# Velocity P-wave (km/s) = 5.15813 6.14746 5.67439
#
# Compressibility (1/GPa) = 0.03690419
#
# Stress axis : x y z
#
# Youngs Moduli (GPa) = 104.50815 51.29542 42.11967
#
# Poissons Ratio (x) = 0.18425 0.14984
# Poissons Ratio (y) = 0.37538 0.03375
# Poissons Ratio (z) = 0.37178 0.04111
#
# Static dielectric constant tensor:
#      x y z
#    x 1.855420 0.000010 0.000490 
#    y 0.000010 1.760490 -0.000040 
#    z 0.000490 -0.000040 1.760470 
# 
# From -- ./inp_files/46740.got.cif
#   From: 2010.05.17/outbox.cif.g08.bks.cpg/sg15_24_cif.got.tgz:46740.got - 2010.06.03 18:47:42.
