data_PCOD9265635
_publ_section_title
;
Structure prediction by ZEFSAII (Michael W. Deem and Ramdas Pophale) SiO2 
 PCOD9265635
Probable space group: C 2/C
;
_chemical_formula_sum "Si O2"
_cell_formula_units_Z 56
_cell_length_a 7.920188
_cell_length_b 26.160930
_cell_length_c 12.345273
_cell_angle_alpha 90.000000
_cell_angle_beta 105.415334
_cell_angle_gamma 90.000000
_cell_volume 2465.910719
_symmetry_space_group_name_H-M "C 2/C"
_symmetry_group_IT_number 15
_symmetry_cell_setting 'monoclinic'
loop_
_space_group_symop_operation_xyz
x,y,z
-x,y,1/2-z
-x,-y,-z
x,-y,1/2+z
1/2+x,1/2+y,z
1/2-x,1/2+y,1/2-z
1/2-x,1/2-y,-z
1/2+x,1/2-y,1/2+z
loop_
_atom_site_type_symbol
_atom_site_label
_atom_site_fract_x
_atom_site_fract_y
_atom_site_fract_z
Si Si1 0.556878 0.445021 0.383810
Si Si2 0.842778 0.362116 0.991339
Si Si3 0.500000 0.791552 0.750000
Si Si4 0.528714 0.649595 0.009704
Si Si5 0.208645 0.525844 0.963416
Si Si6 0.938638 0.258544 0.973794
Si Si7 0.754471 0.124795 0.267463
Si Si8 0.500000 0.967366 0.750000
O O1 0.500000 0.444818 0.250000
O O2 0.612046 0.388640 0.436605
O O3 0.708619 0.486129 0.436411
O O4 0.382159 0.459910 0.422369
O O5 0.982596 0.316275 0.022368
O O6 0.763043 0.355192 0.856905
O O7 0.681061 0.352535 0.044636
O O8 0.879296 0.421949 0.008289
O O9 0.435417 0.760005 0.842158
O O10 0.355778 0.832650 0.685407
O O11 0.560387 0.710306 0.021353
O O12 0.571051 0.623201 0.133032
O O13 0.067045 0.499922 0.861765
O O14 0.750000 0.250000 0.000000
O O15 0.661199 0.070534 0.253308
#
# Coordination Sequence:
#
# PCOD9265635 Si02
#       8
#     8   8   4   8   8   8   8   4
#     4  10  22  38  58  93 121 165 214 259 325 394
#     4   9  20  37  61  86 120 164 212 265 316 391
#     4   9  20  36  56  88 124 158 212 267 322 392
#     4  10  19  36  63  88 121 163 211 264 324 392
#     4  10  22  39  60  85 128 166 210 264 320 393
#     4   9  19  37  61  87 122 163 212 270 327 386
#     4  10  20  36  59  90 121 160 215 260 316 393
#     4  11  22  38  56  90 128 162 208 259 330 390
#
# _framework density 22.709662000000002
#
# number of rings (size 3 to 8) (size 9 to 14) (size 15 to 20)
#    0.000    2.286    1.429    0.429    3.000    1.143 
#    0.000    0.000   22.000    0.000    0.000    0.000 
#    0.000    0.000    0.000    0.000    0.000    0.000 
#
# Total GULP energy -155964.240879 kJ/mol
# GULP energy per Si atom -5570.151460 kJ/mol
# Density = 2.265797 g / cm^3
# Si number density = 22.709662 Si / 1000 Ang^3
#
#
#
# Elastic Constant Matrix: (Units=GPa)
#
#
# Indices 1 2 3 4 5 6 
#
# 1 51.9449 35.8577 9.4250 0.0000 -1.3494 0.0000
# 2 35.8577 196.8175 67.1561 0.0000 15.3081 0.0000
# 3 9.4250 67.1561 92.0583 0.0000 5.2995 0.0000
# 4 0.0000 0.0000 0.0000 434.1804 0.0000 -23.6080
# 5 -1.3494 15.3081 5.2995 0.0000 34.1592 0.0000
# 6 0.0000 0.0000 0.0000 -23.6080 0.0000 7.8392
#
#
#
# Elastic Compliance Matrix: (Units=1/GPa)
#
#
# Indices 1 2 3 4 5 6 
#
# 1 0.022332 -0.004595 0.000904 0.000000 0.002801 0.000000
# 2 -0.004595 0.007892 -0.005118 0.000000 -0.002924 0.000000
# 3 0.000904 -0.005118 0.014499 0.000000 0.000080 0.000000
# 4 0.000000 0.000000 0.000000 0.002754 0.000000 0.008294
# 5 0.002801 -0.002924 0.000080 0.000000 0.030683 0.000000
# 6 0.000000 0.000000 0.000000 0.008294 0.000000 0.152543
#
#
# Mechanical properties :
#
#
# Convention : Reuss Voigt Hill
#
# Bulk Modulus (GPa) = 36.89334 62.85536 49.87435
# Shear Modulus (GPa) = 19.42835 110.46121 64.94478
#
# Velocity S-wave (km/s) = 2.92808 6.98185 5.35350
# Velocity P-wave (km/s) = 5.26427 9.62979 7.76033
#
# Compressibility (1/GPa) = 0.02710516
#
# Stress axis : x y z
#
# Youngs Moduli (GPa) = 44.77915 126.71284 68.96914
#
# Poissons Ratio (x) = 0.58225 -0.06238
# Poissons Ratio (y) = 0.20576 0.35300
# Poissons Ratio (z) = -0.04050 0.64855
#
# Static dielectric constant tensor:
#      x y z
#    x 1.932560 0.000000 -0.021790 
#    y 0.000000 1.925250 0.000000 
#    z -0.021790 0.000000 1.840350 
# 
# From -- ./inp_files/81452.got.cif
#   From: 2010.05.17/outbox.cif.g08.bks.cpg/sg15_41_cif.got.tgz:81452.got - 2010.06.03 18:47:42.
