data_PCOD9265185
_publ_section_title
;
Structure prediction by ZEFSAII (Michael W. Deem and Ramdas Pophale) SiO2 
 PCOD9265185
Probable space group: C 2/C
;
_chemical_formula_sum "Si O2"
_cell_formula_units_Z 64
_cell_length_a 17.802457
_cell_length_b 9.917718
_cell_length_c 20.289343
_cell_angle_alpha 90.000000
_cell_angle_beta 62.517546
_cell_angle_gamma 90.000000
_cell_volume 3178.028713
_symmetry_space_group_name_H-M "C 2/C"
_symmetry_group_IT_number 15
_symmetry_cell_setting 'monoclinic'
loop_
_space_group_symop_operation_xyz
x,y,z
-x,y,1/2-z
-x,-y,-z
x,-y,1/2+z
1/2+x,1/2+y,z
1/2-x,1/2+y,1/2-z
1/2-x,1/2-y,-z
1/2+x,1/2-y,1/2+z
loop_
_atom_site_type_symbol
_atom_site_label
_atom_site_fract_x
_atom_site_fract_y
_atom_site_fract_z
Si Si1 0.128612 0.494754 0.610307
Si Si2 0.249839 0.469563 0.937749
Si Si3 0.401611 0.842133 0.565296
Si Si4 0.425855 0.343150 0.689549
Si Si5 0.526049 0.892738 0.403562
Si Si6 0.050202 0.143032 0.835978
Si Si7 0.619975 0.711855 0.151480
Si Si8 0.127983 0.197024 0.661287
O O1 0.189440 0.491326 0.522210
O O2 0.032369 0.522309 0.623990
O O3 0.146125 0.632572 0.642176
O O4 0.139542 0.355986 0.644029
O O5 0.195160 0.365268 0.915443
O O6 0.328851 0.373815 0.922617
O O7 0.291931 0.602738 0.888878
O O8 0.460097 0.813862 0.477695
O O9 0.423513 0.741330 0.615453
O O10 0.426668 0.993988 0.575037
O O11 0.407538 0.213310 0.652797
O O12 0.428280 0.488332 0.655480
O O13 0.372644 0.349001 0.778290
O O14 0.521905 0.305885 0.672390
O O15 0.099526 0.175896 0.748117
O O16 0.951375 0.155302 0.854165
#
# Coordination Sequence:
#
# PCOD9265185 Si02
#       8
#     8   8   8   8   8   8   8   8
#     4  10  21  34  63  87 113 151 201 243 288 351
#     4  11  21  40  56  84 126 155 183 245 309 346
#     4  10  22  39  59  83 119 153 190 243 293 350
#     4  10  19  36  62  84 114 154 197 247 281 348
#     4   9  20  39  59  84 111 155 197 234 294 349
#     4  11  21  38  63  85 117 155 200 245 283 351
#     4  10  19  36  58  89 115 148 195 246 296 341
#     4  11  21  38  61  91 115 151 203 244 290 347
#
# _framework density 20.138271
#
# number of rings (size 3 to 8) (size 9 to 14) (size 15 to 20)
#    0.000    1.750    3.750    1.500    1.750    1.500 
#    2.250    1.250    0.000    0.000    0.000    0.000 
#    0.000    0.000    0.000    0.000    0.000    0.000 
#
# Total GULP energy -178378.686569 kJ/mol
# GULP energy per Si atom -5574.333955 kJ/mol
# Density = 2.009244 g / cm^3
# Si number density = 20.138271 Si / 1000 Ang^3
#
#
#
# Elastic Constant Matrix: (Units=GPa)
#
#
# Indices 1 2 3 4 5 6 
#
# 1 19.9595 -2.4983 9.1380 0.0000 -0.5631 0.0000
# 2 -2.4983 109.7975 33.2513 0.0000 1.8963 0.0000
# 3 9.1380 33.2513 41.5031 0.0000 -0.1820 0.0000
# 4 0.0000 0.0000 0.0000 -192.4748 0.0000 -72.6234
# 5 -0.5631 1.8963 -0.1820 0.0000 22.3940 0.0000
# 6 0.0000 0.0000 0.0000 -72.6234 0.0000 -3.3330
#
#
#
# Elastic Compliance Matrix: (Units=1/GPa)
#
#
# Indices 1 2 3 4 5 6 
#
# 1 0.059579 0.007017 -0.018736 0.000000 0.000752 0.000000
# 2 0.007017 0.012879 -0.011868 0.000000 -0.001011 0.000000
# 3 -0.018736 -0.011868 0.037732 0.000000 0.000840 0.000000
# 4 0.000000 0.000000 0.000000 0.000719 0.000000 -0.015677
# 5 0.000752 -0.001011 0.000840 0.000000 0.044766 0.000000
# 6 0.000000 0.000000 0.000000 -0.015677 0.000000 0.041548
#
#
# Mechanical properties :
#
#
# Convention : Reuss Voigt Hill
#
# Bulk Modulus (GPa) = 15.86919 27.89357 21.88138
# Shear Modulus (GPa) = 18.83937 -25.92483 -3.54273
#
# Velocity S-wave (km/s) = 3.06191 -3.59185 -1.32779
# Velocity P-wave (km/s) = 4.51638 1.82228 2.92206
#
# Compressibility (1/GPa) = 0.06301518
#
# Stress axis : x y z
#
# Youngs Moduli (GPa) = 16.78447 77.64709 26.50301
#
# Poissons Ratio (x) = -0.54484 0.49657
# Poissons Ratio (y) = -0.11777 0.31453
# Poissons Ratio (z) = 0.31448 0.92148
#
# Static dielectric constant tensor:
#      x y z
#    x 1.740200 0.000000 -0.010220 
#    y 0.000000 1.720010 0.000000 
#    z -0.010220 0.000000 1.769460 
# 
# From -- ./inp_files/251895.got.cif
#   From: 2010.05.17/outbox.cif.g08.bks.cpg/sg15_126_cif.got.tgz:251895.got - 2010.06.03 18:47:42.
