data_PCOD9265466
_publ_section_title
;
Structure prediction by ZEFSAII (Michael W. Deem and Ramdas Pophale) SiO2 
 PCOD9265466
Probable space group: C 2/C
;
_chemical_formula_sum "Si O2"
_cell_formula_units_Z 44
_cell_length_a 5.148209
_cell_length_b 26.464742
_cell_length_c 17.286535
_cell_angle_alpha 90.000000
_cell_angle_beta 125.307994
_cell_angle_gamma 90.000000
_cell_volume 1921.995012
_symmetry_space_group_name_H-M "C 2/C"
_symmetry_group_IT_number 15
_symmetry_cell_setting 'monoclinic'
loop_
_space_group_symop_operation_xyz
x,y,z
-x,y,1/2-z
-x,-y,-z
x,-y,1/2+z
1/2+x,1/2+y,z
1/2-x,1/2+y,1/2-z
1/2-x,1/2-y,-z
1/2+x,1/2-y,1/2+z
loop_
_atom_site_type_symbol
_atom_site_label
_atom_site_fract_x
_atom_site_fract_y
_atom_site_fract_z
Si Si1 0.313649 0.374121 0.579930
Si Si2 0.124341 0.353067 0.144311
Si Si3 0.500000 0.064765 0.750000
Si Si4 0.409391 0.706217 0.874359
Si Si5 0.356118 0.185444 0.101993
Si Si6 0.857212 0.969268 0.811085
O O1 0.097778 0.365884 0.467558
O O2 0.618793 0.337353 0.624224
O O3 0.423665 0.431845 0.603343
O O4 0.106840 0.356448 0.617287
O O5 0.941108 0.307401 0.156538
O O6 0.106297 0.401200 0.196799
O O7 0.451746 0.334090 0.162791
O O8 0.784901 0.026788 0.824348
O O9 0.465682 0.762071 0.851808
O O10 0.631313 0.698423 0.988794
O O11 0.500000 0.946804 0.750000
O O12 0.000000 0.971530 0.750000
#
# Coordination Sequence:
#
# PCOD9265466 Si02
#       6
#     8   8   4   8   8   8
#     4  10  19  36  61  88 111 150 197 233 283 353
#     4  10  21  35  60  85 116 153 193 235 281 349
#     4  10  26  40  60  78 120 158 188 250 302 322
#     4   9  18  33  56  89 115 147 185 225 286 345
#     4   9  17  32  59  88 117 144 181 235 281 340
#     4  10  23  40  59  81 110 156 190 246 301 337
#
# _framework density 22.892876999999999
#
# number of rings (size 3 to 8) (size 9 to 14) (size 15 to 20)
#    0.545    1.818    0.000    2.182    2.545    5.091 
#    0.000    0.909   20.000    0.000    0.000    0.000 
#    0.000    0.000    0.000    0.000    0.000    0.000 
#
# Total GULP energy -122963.292890 kJ/mol
# GULP energy per Si atom -5589.240586 kJ/mol
# Density = 2.284077 g / cm^3
# Si number density = 22.892877 Si / 1000 Ang^3
#
#
#
# Elastic Constant Matrix: (Units=GPa)
#
#
# Indices 1 2 3 4 5 6 
#
# 1 142.7400 28.1196 16.4519 0.0000 6.2133 0.0000
# 2 28.1196 111.3961 18.0445 0.0000 13.4485 0.0000
# 3 16.4519 18.0445 29.3761 0.0000 -2.2344 0.0000
# 4 0.0000 0.0000 0.0000 15.8120 0.0000 11.0519
# 5 6.2133 13.4485 -2.2344 0.0000 22.9795 0.0000
# 6 0.0000 0.0000 0.0000 11.0519 0.0000 17.9199
#
#
#
# Elastic Compliance Matrix: (Units=1/GPa)
#
#
# Indices 1 2 3 4 5 6 
#
# 1 0.007742 -0.001124 -0.003782 0.000000 -0.001803 0.000000
# 2 -0.001124 0.011191 -0.006770 0.000000 -0.006904 0.000000
# 3 -0.003782 -0.006770 0.041000 0.000000 0.008971 0.000000
# 4 0.000000 0.000000 0.000000 0.111163 0.000000 -0.068559
# 5 -0.001803 -0.006904 0.008971 0.000000 0.048917 0.000000
# 6 0.000000 0.000000 0.000000 -0.068559 0.000000 0.098087
#
#
# Mechanical properties :
#
#
# Convention : Reuss Voigt Hill
#
# Bulk Modulus (GPa) = 27.33685 45.41604 36.37645
# Shear Modulus (GPa) = 14.13847 26.06870 20.10359
#
# Velocity S-wave (km/s) = 2.48784 3.37816 2.96659
# Velocity P-wave (km/s) = 4.49662 5.92432 5.25914
#
# Compressibility (1/GPa) = 0.03658066
#
# Stress axis : x y z
#
# Youngs Moduli (GPa) = 129.17252 89.35992 24.39003
#
# Poissons Ratio (x) = 0.10042 0.09226
# Poissons Ratio (y) = 0.14516 0.16511
# Poissons Ratio (z) = 0.48859 0.60494
#
# Static dielectric constant tensor:
#      x y z
#    x 1.831870 0.000000 0.050480 
#    y 0.000000 1.831710 0.000000 
#    z 0.050480 0.000000 1.914220 
# 
# From -- ./inp_files/184978.got.cif
#   From: 2010.05.17/outbox.cif.g08.bks.cpg/sg15_93_cif.got.tgz:184978.got - 2010.06.03 18:47:42.
