data_PCOD9265658
_publ_section_title
;
Structure prediction by ZEFSAII (Michael W. Deem and Ramdas Pophale) SiO2 
 PCOD9265658
Probable space group: C 2/C
;
_chemical_formula_sum "Si O2"
_cell_formula_units_Z 48
_cell_length_a 28.769080
_cell_length_b 13.524590
_cell_length_c 14.124423
_cell_angle_alpha 90.000000
_cell_angle_beta 23.736831
_cell_angle_gamma 90.000000
_cell_volume 2212.207447
_symmetry_space_group_name_H-M "C 2/C"
_symmetry_group_IT_number 15
_symmetry_cell_setting 'monoclinic'
loop_
_space_group_symop_operation_xyz
x,y,z
-x,y,1/2-z
-x,-y,-z
x,-y,1/2+z
1/2+x,1/2+y,z
1/2-x,1/2+y,1/2-z
1/2-x,1/2-y,-z
1/2+x,1/2-y,1/2+z
loop_
_atom_site_type_symbol
_atom_site_label
_atom_site_fract_x
_atom_site_fract_y
_atom_site_fract_z
Si Si1 0.302795 0.405641 0.922182
Si Si2 0.780481 0.607398 0.458008
Si Si3 0.241721 0.279279 0.860763
Si Si4 0.000000 0.926299 0.250000
Si Si5 0.000000 0.265889 0.250000
Si Si6 0.658574 0.271846 0.032917
Si Si7 0.561337 0.586614 0.002997
O O1 0.210370 0.494694 0.093039
O O2 0.301572 0.352541 0.822749
O O3 0.434233 0.437557 0.699528
O O4 0.272105 0.324148 0.058135
O O5 0.758751 0.675759 0.407443
O O6 0.865526 0.668577 0.368576
O O7 0.662885 0.598627 0.739394
O O8 0.305260 0.261573 0.643427
O O9 0.112528 0.319815 0.079494
O O10 0.941899 0.853080 0.283247
O O11 0.085445 0.001687 0.036448
O O12 0.952779 0.191082 0.418031
#
# Coordination Sequence:
#
# PCOD9265658 Si02
#       7
#     8   8   8   4   4   8   8
#     4  10  21  36  62  89 117 156 208 257 302 359
#     4  11  22  38  56  90 125 161 191 253 318 358
#     4  10  21  38  58  90 118 162 208 254 302 369
#     4  11  22  38  65  98 122 164 205 260 305 358
#     4   9  18  36  59  84 118 160 205 246 295 356
#     4  11  24  36  57  90 130 156 194 253 319 364
#     4  10  19  36  63  91 120 152 209 258 302 351
#
# _framework density 21.697783999999999
#
# number of rings (size 3 to 8) (size 9 to 14) (size 15 to 20)
#    0.000    1.667    3.333    1.500    2.333    1.333 
#    0.000    0.833    0.000    2.000    0.000    0.000 
#    0.000    0.000    0.000    0.000    0.000    0.000 
#
# Total GULP energy -133940.680130 kJ/mol
# GULP energy per Si atom -5580.861672 kJ/mol
# Density = 2.164840 g / cm^3
# Si number density = 21.697784 Si / 1000 Ang^3
#
#
#
# Elastic Constant Matrix: (Units=GPa)
#
#
# Indices 1 2 3 4 5 6 
#
# 1 100.0402 23.5961 8.0984 0.0000 11.1438 0.0000
# 2 23.5961 78.4028 4.5994 0.0000 0.5673 0.0000
# 3 8.0984 4.5994 30.9754 0.0000 16.1234 0.0000
# 4 0.0000 0.0000 0.0000 23.0974 0.0000 0.6419
# 5 11.1438 0.5673 16.1234 0.0000 35.0427 0.0000
# 6 0.0000 0.0000 0.0000 0.6419 0.0000 42.0710
#
#
#
# Elastic Compliance Matrix: (Units=1/GPa)
#
#
# Indices 1 2 3 4 5 6 
#
# 1 0.011188 -0.003297 -0.000804 0.000000 -0.003135 0.000000
# 2 -0.003297 0.013859 -0.002137 0.000000 0.001807 0.000000
# 3 -0.000804 -0.002137 0.042945 0.000000 -0.019469 0.000000
# 4 0.000000 0.000000 0.000000 0.043313 0.000000 -0.000661
# 5 -0.003135 0.001807 -0.019469 0.000000 0.038462 0.000000
# 6 0.000000 0.000000 0.000000 -0.000661 0.000000 0.023779
#
#
# Mechanical properties :
#
#
# Convention : Reuss Voigt Hill
#
# Bulk Modulus (GPa) = 18.01246 31.33403 24.67324
# Shear Modulus (GPa) = 24.44649 31.58385 28.01517
#
# Velocity S-wave (km/s) = 3.36025 3.81941 3.59716
# Velocity P-wave (km/s) = 4.83473 5.82434 5.35245
#
# Compressibility (1/GPa) = 0.05551714
#
# Stress axis : x y z
#
# Youngs Moduli (GPa) = 89.38198 72.15393 23.28547
#
# Poissons Ratio (x) = 0.23791 0.01872
# Poissons Ratio (y) = 0.29472 0.04975
# Poissons Ratio (z) = 0.07185 0.15416
#
# Static dielectric constant tensor:
#      x y z
#    x 1.839680 0.000000 -0.026950 
#    y 0.000000 1.829920 0.000000 
#    z -0.026950 0.000000 1.798090 
# 
# From -- ./inp_files/144406.got.cif
#   From: 2010.05.17/outbox.cif.g08.bks.cpg/sg15_73_cif.got.tgz:144406.got - 2010.06.03 18:47:42.
