data_PCOD9265467
_publ_section_title
;
Structure prediction by ZEFSAII (Michael W. Deem and Ramdas Pophale) SiO2 
 PCOD9265467
Probable space group: C 2/C
;
_chemical_formula_sum "Si O2"
_cell_formula_units_Z 64
_cell_length_a 9.906284
_cell_length_b 29.956042
_cell_length_c 18.618366
_cell_angle_alpha 90.000000
_cell_angle_beta 39.691072
_cell_angle_gamma 90.000000
_cell_volume 3528.566206
_symmetry_space_group_name_H-M "C 2/C"
_symmetry_group_IT_number 15
_symmetry_cell_setting 'monoclinic'
loop_
_space_group_symop_operation_xyz
x,y,z
-x,y,1/2-z
-x,-y,-z
x,-y,1/2+z
1/2+x,1/2+y,z
1/2-x,1/2+y,1/2-z
1/2-x,1/2-y,-z
1/2+x,1/2-y,1/2+z
loop_
_atom_site_type_symbol
_atom_site_label
_atom_site_fract_x
_atom_site_fract_y
_atom_site_fract_z
Si Si1 0.693395 0.964043 0.227427
Si Si2 0.995136 0.801590 0.427343
Si Si3 0.249014 0.384597 0.839497
Si Si4 0.710191 0.663614 0.698478
Si Si5 0.593172 0.393879 0.458100
Si Si6 0.223455 0.436023 0.698976
Si Si7 0.552265 0.912602 0.067464
Si Si8 0.056360 0.299212 0.530358
O O1 0.500000 0.964291 0.250000
O O2 0.842461 0.923954 0.137639
O O3 0.582614 0.954720 0.349305
O O4 0.795631 0.012765 0.182587
O O5 0.127581 0.810572 0.301039
O O6 0.064648 0.841980 0.450328
O O7 0.034786 0.750568 0.432257
O O8 0.742796 0.804736 0.513540
O O9 0.500000 0.377880 0.750000
O O10 0.216953 0.410374 0.777560
O O11 0.118448 0.337945 0.890984
O O12 0.151734 0.411717 0.947447
O O13 0.500000 0.642002 0.750000
O O14 0.816194 0.695030 0.595965
O O15 0.885054 0.627253 0.642362
O O16 0.381235 0.412155 0.579977
O O17 0.768621 0.402225 0.447179
O O18 0.000000 0.436947 0.750000
#
# Coordination Sequence:
#
# PCOD9265467 Si02
#       8
#     8   8   8   8   8   8   8   8
#     4   9  20  37  60  90 118 153 197 254 295 349
#     4  10  19  36  61  88 114 157 204 246 296 360
#     4  11  22  42  59  84 128 165 191 249 311 355
#     4   9  18  35  57  81 115 154 193 246 295 348
#     4  11  20  36  63  88 119 156 197 249 302 355
#     4  11  23  39  62  89 119 158 203 246 298 363
#     4  10  20  39  61  84 121 156 195 244 304 358
#     4   9  21  37  57  85 121 156 200 251 297 352
#
# _framework density 18.137678000000001
#
# number of rings (size 3 to 8) (size 9 to 14) (size 15 to 20)
#    0.000    2.000    2.500    1.125    0.000    1.500 
#    2.250    4.375    0.000    0.000    0.000    0.000 
#    0.000    0.000    0.000    0.000    0.000    0.000 
#
# Total GULP energy -178343.296936 kJ/mol
# GULP energy per Si atom -5573.228029 kJ/mol
# Density = 1.809640 g / cm^3
# Si number density = 18.137678 Si / 1000 Ang^3
#
#
#
# Elastic Constant Matrix: (Units=GPa)
#
#
# Indices 1 2 3 4 5 6 
#
# 1 46.8477 9.0040 23.7035 0.0000 1.5894 0.0000
# 2 9.0040 59.5606 20.9008 0.0000 13.1823 0.0000
# 3 23.7035 20.9008 101.4727 0.0000 9.7495 0.0000
# 4 0.0000 0.0000 0.0000 10.4629 0.0000 -0.9791
# 5 1.5894 13.1823 9.7495 0.0000 22.5355 0.0000
# 6 0.0000 0.0000 0.0000 -0.9791 0.0000 19.2346
#
#
#
# Elastic Compliance Matrix: (Units=1/GPa)
#
#
# Indices 1 2 3 4 5 6 
#
# 1 0.024460 -0.002214 -0.005443 0.000000 0.001924 0.000000
# 2 -0.002214 0.020413 -0.002666 0.000000 -0.010631 0.000000
# 3 -0.005443 -0.002666 0.011987 0.000000 -0.003243 0.000000
# 4 0.000000 0.000000 0.000000 0.096033 0.000000 0.004888
# 5 0.001924 -0.010631 -0.003243 0.000000 0.051860 0.000000
# 6 0.000000 0.000000 0.000000 0.004888 0.000000 0.052238
#
#
# Mechanical properties :
#
#
# Convention : Reuss Voigt Hill
#
# Bulk Modulus (GPa) = 27.61296 35.01084 31.31190
# Shear Modulus (GPa) = 17.25877 20.73143 18.99510
#
# Velocity S-wave (km/s) = 3.08805 3.38450 3.23967
# Velocity P-wave (km/s) = 5.28885 5.88369 5.59418
#
# Compressibility (1/GPa) = 0.03621487
#
# Stress axis : x y z
#
# Youngs Moduli (GPa) = 40.88351 48.98891 83.42446
#
# Poissons Ratio (x) = 0.10845 0.45405
# Poissons Ratio (y) = 0.09050 0.22241
# Poissons Ratio (z) = 0.22251 0.13060
#
# Static dielectric constant tensor:
#      x y z
#    x 1.643360 0.000000 0.000810 
#    y 0.000000 1.612550 0.000000 
#    z 0.000810 0.000000 1.625630 
# 
# From -- ./inp_files/194206.got.cif
#   From: 2010.05.17/outbox.cif.g08.bks.cpg/sg15_98_cif.got.tgz:194206.got - 2010.06.03 18:47:42.
