data_PCOD9265140
_publ_section_title
;
Structure prediction by ZEFSAII (Michael W. Deem and Ramdas Pophale) SiO2 
 PCOD9265140
Probable space group: C 2/C
;
_chemical_formula_sum "Si O2"
_cell_formula_units_Z 56
_cell_length_a 8.969847
_cell_length_b 12.259151
_cell_length_c 21.498604
_cell_angle_alpha 90.000000
_cell_angle_beta 84.373469
_cell_angle_gamma 90.000000
_cell_volume 2352.655018
_symmetry_space_group_name_H-M "C 2/C"
_symmetry_group_IT_number 15
_symmetry_cell_setting 'monoclinic'
loop_
_space_group_symop_operation_xyz
x,y,z
-x,y,1/2-z
-x,-y,-z
x,-y,1/2+z
1/2+x,1/2+y,z
1/2-x,1/2+y,1/2-z
1/2-x,1/2-y,-z
1/2+x,1/2-y,1/2+z
loop_
_atom_site_type_symbol
_atom_site_label
_atom_site_fract_x
_atom_site_fract_y
_atom_site_fract_z
Si Si1 0.979938 0.095996 0.366195
Si Si2 0.398527 0.244260 0.409547
Si Si3 0.471220 0.038319 0.647908
Si Si4 0.686992 0.803450 0.839902
Si Si5 0.732429 0.452610 0.060742
Si Si6 0.241023 0.522602 0.069086
Si Si7 0.811619 0.253588 0.204333
O O1 0.840856 0.180099 0.371642
O O2 0.102643 0.071636 0.413679
O O3 0.083824 0.145720 0.307650
O O4 0.876443 0.988931 0.377644
O O5 0.569826 0.262229 0.385474
O O6 0.336559 0.337813 0.455532
O O7 0.371503 0.124702 0.437424
O O8 0.302627 0.249154 0.349196
O O9 0.394497 0.059001 0.583855
O O10 0.410557 0.137335 0.692033
O O11 0.400772 0.920097 0.669985
O O12 0.649206 0.037586 0.627740
O O13 0.726487 0.751746 0.772462
O O14 0.734334 0.528527 0.999953
#
# Coordination Sequence:
#
# PCOD9265140 Si02
#       7
#     8   8   8   8   8   8   8
#     4  10  22  35  53  83 115 146 189 228 276 344
#     4   9  20  35  58  85 107 143 195 230 279 351
#     4   9  21  37  59  84 108 147 196 229 279 351
#     4  10  20  38  57  80 114 149 185 237 286 334
#     4  10  19  36  58  84 114 147 183 237 289 330
#     4  10  19  37  58  82 115 149 185 234 280 337
#     4  10  20  38  57  80 113 147 187 239 285 333
#
# _framework density 23.802893999999998
#
# number of rings (size 3 to 8) (size 9 to 14) (size 15 to 20)
#    0.000    2.286    0.000    2.143    0.000    2.286 
#    0.000   12.857    0.000    1.714    0.000    0.000 
#    0.000    0.000    0.000    0.000    0.000    0.000 
#
# Total GULP energy -155982.468989 kJ/mol
# GULP energy per Si atom -5570.802464 kJ/mol
# Density = 2.374872 g / cm^3
# Si number density = 23.802894 Si / 1000 Ang^3
#
#
#
# Elastic Constant Matrix: (Units=GPa)
#
#
# Indices 1 2 3 4 5 6 
#
# 1 116.7000 -13.6584 24.8642 0.0000 -12.6303 0.0000
# 2 -13.6584 53.1226 11.7258 0.0000 -14.8726 0.0000
# 3 24.8642 11.7258 84.4505 0.0000 -11.8455 0.0000
# 4 0.0000 0.0000 0.0000 21.2512 0.0000 -6.5051
# 5 -12.6303 -14.8726 -11.8455 0.0000 38.5275 0.0000
# 6 0.0000 0.0000 0.0000 -6.5051 0.0000 26.1305
#
#
#
# Elastic Compliance Matrix: (Units=1/GPa)
#
#
# Indices 1 2 3 4 5 6 
#
# 1 0.010181 0.004441 -0.003037 0.000000 0.004118 0.000000
# 2 0.004441 0.023328 -0.003218 0.000000 0.009472 0.000000
# 3 -0.003037 -0.003218 0.013448 0.000000 0.001897 0.000000
# 4 0.000000 0.000000 0.000000 0.050938 0.000000 0.012681
# 5 0.004118 0.009472 0.001897 0.000000 0.031545 0.000000
# 6 0.000000 0.000000 0.000000 0.012681 0.000000 0.041426
#
#
# Mechanical properties :
#
#
# Convention : Reuss Voigt Hill
#
# Bulk Modulus (GPa) = 23.07826 33.34848 28.21337
# Shear Modulus (GPa) = 26.46366 32.60460 29.53413
#
# Velocity S-wave (km/s) = 3.33796 3.70506 3.52629
# Velocity P-wave (km/s) = 4.95707 5.68718 5.33463
#
# Compressibility (1/GPa) = 0.04333082
#
# Stress axis : x y z
#
# Youngs Moduli (GPa) = 98.21757 42.86625 74.35933
#
# Poissons Ratio (x) = -0.19037 0.22580
# Poissons Ratio (y) = -0.43619 0.23929
# Poissons Ratio (z) = 0.29825 0.13795
#
# Static dielectric constant tensor:
#      x y z
#    x 1.925380 0.000000 -0.036730 
#    y 0.000000 2.020960 0.000000 
#    z -0.036730 0.000000 1.891480 
# 
# From -- ./inp_files/264243.got.cif
#   From: 2010.05.17/outbox.cif.g08.bks.cpg/sg15_133_cif.got.tgz:264243.got - 2010.06.03 18:47:42.
