data_PCOD9265439
_publ_section_title
;
Structure prediction by ZEFSAII (Michael W. Deem and Ramdas Pophale) SiO2 
 PCOD9265439
Probable space group: C 2/C
;
_chemical_formula_sum "Si O2"
_cell_formula_units_Z 52
_cell_length_a 13.724353
_cell_length_b 11.865792
_cell_length_c 12.265130
_cell_angle_alpha 90.000000
_cell_angle_beta 86.974321
_cell_angle_gamma 90.000000
_cell_volume 1994.595930
_symmetry_space_group_name_H-M "C 2/C"
_symmetry_group_IT_number 15
_symmetry_cell_setting 'monoclinic'
loop_
_space_group_symop_operation_xyz
x,y,z
-x,y,1/2-z
-x,-y,-z
x,-y,1/2+z
1/2+x,1/2+y,z
1/2-x,1/2+y,1/2-z
1/2-x,1/2-y,-z
1/2+x,1/2-y,1/2+z
loop_
_atom_site_type_symbol
_atom_site_label
_atom_site_fract_x
_atom_site_fract_y
_atom_site_fract_z
Si Si1 0.284921 0.501984 0.866886
Si Si2 0.682958 0.123734 0.676325
Si Si3 0.500000 0.307766 0.250000
Si Si4 0.960884 0.789600 0.486867
Si Si5 0.199554 0.392408 0.575520
Si Si6 0.347409 0.786311 0.606816
Si Si7 0.376439 0.337311 0.712939
O O1 0.243994 0.582887 0.777166
O O2 0.203821 0.405086 0.890266
O O3 0.373127 0.435325 0.803139
O O4 0.279685 0.569523 0.979752
O O5 0.765323 0.190085 0.602213
O O6 0.611505 0.217833 0.728558
O O7 0.649828 0.007926 0.621864
O O8 0.470173 0.358292 0.370447
O O9 0.590615 0.232896 0.285479
O O10 0.877988 0.694256 0.470387
O O11 0.942346 0.848895 0.602499
O O12 0.067166 0.729921 0.486030
O O13 0.267374 0.342040 0.666586
#
# Coordination Sequence:
#
# PCOD9265439 Si02
#       7
#     8   8   4   8   8   8   8
#     4  10  21  36  59  92 120 156 216 255 299 373
#     4  10  20  38  58  88 125 160 207 253 307 376
#     4   8  18  32  58  84 114 154 200 230 312 358
#     4  10  19  36  61  84 122 156 201 252 308 360
#     4  11  22  35  64  91 117 161 211 256 305 370
#     4   9  21  35  56  87 128 155 198 261 308 363
#     4  10  21  37  59  86 122 159 208 247 310 372
#
# _framework density 26.070443000000001
#
# number of rings (size 3 to 8) (size 9 to 14) (size 15 to 20)
#    0.923    1.231    1.538    3.231    2.154    3.077 
#    0.000    3.077    0.000    4.615    0.000    0.000 
#    0.000    0.000    0.000    0.000    0.000    0.000 
#
# Total GULP energy -145248.631456 kJ/mol
# GULP energy per Si atom -5586.485825 kJ/mol
# Density = 2.601111 g / cm^3
# Si number density = 26.070443 Si / 1000 Ang^3
#
#
#
# Elastic Constant Matrix: (Units=GPa)
#
#
# Indices 1 2 3 4 5 6 
#
# 1 116.1043 38.5137 44.6527 0.0000 -10.7126 0.0000
# 2 38.5137 135.9429 48.3766 0.0000 -0.2297 0.0000
# 3 44.6527 48.3766 171.2177 0.0000 -30.3709 0.0000
# 4 0.0000 0.0000 0.0000 48.4806 0.0000 9.0433
# 5 -10.7126 -0.2297 -30.3709 0.0000 43.0226 0.0000
# 6 0.0000 0.0000 0.0000 9.0433 0.0000 5.3880
#
#
#
# Elastic Compliance Matrix: (Units=1/GPa)
#
#
# Indices 1 2 3 4 5 6 
#
# 1 0.010161 -0.002238 -0.001796 0.000000 0.001250 0.000000
# 2 -0.002238 0.008797 -0.002278 0.000000 -0.002118 0.000000
# 3 -0.001796 -0.002278 0.007855 0.000000 0.005085 0.000000
# 4 0.000000 0.000000 0.000000 0.030028 0.000000 -0.050400
# 5 0.001250 -0.002118 0.005085 0.000000 0.027134 0.000000
# 6 0.000000 0.000000 0.000000 -0.050400 0.000000 0.270189
#
#
# Mechanical properties :
#
#
# Convention : Reuss Voigt Hill
#
# Bulk Modulus (GPa) = 70.47111 76.26120 73.36616
# Shear Modulus (GPa) = 13.45838 38.82637 26.14238
#
# Velocity S-wave (km/s) = 2.27454 3.86331 3.17007
# Velocity P-wave (km/s) = 5.82990 7.01539 6.44994
#
# Compressibility (1/GPa) = 0.01419021
#
# Stress axis : x y z
#
# Youngs Moduli (GPa) = 98.41291 113.67646 127.31536
#
# Poissons Ratio (x) = 0.25435 0.22866
# Poissons Ratio (y) = 0.22020 0.28998
# Poissons Ratio (z) = 0.17675 0.25892
#
# Static dielectric constant tensor:
#      x y z
#    x 2.062400 0.000000 -0.024440 
#    y 0.000000 2.024840 0.000000 
#    z -0.024440 0.000000 2.175220 
# 
# From -- ./inp_files/166911.got.cif
#   From: 2010.05.17/outbox.cif.g08.bks.cpg/sg15_84_cif.got.tgz:166911.got - 2010.06.03 18:47:42.
