data_PCOD9265624
_publ_section_title
;
Structure prediction by ZEFSAII (Michael W. Deem and Ramdas Pophale) SiO2 
 PCOD9265624
Probable space group: C 2/C
;
_chemical_formula_sum "Si O2"
_cell_formula_units_Z 56
_cell_length_a 12.129060
_cell_length_b 25.766524
_cell_length_c 8.928609
_cell_angle_alpha 90.000000
_cell_angle_beta 62.725112
_cell_angle_gamma 90.000000
_cell_volume 2480.160045
_symmetry_space_group_name_H-M "C 2/C"
_symmetry_group_IT_number 15
_symmetry_cell_setting 'monoclinic'
loop_
_space_group_symop_operation_xyz
x,y,z
-x,y,1/2-z
-x,-y,-z
x,-y,1/2+z
1/2+x,1/2+y,z
1/2-x,1/2+y,1/2-z
1/2-x,1/2-y,-z
1/2+x,1/2-y,1/2+z
loop_
_atom_site_type_symbol
_atom_site_label
_atom_site_fract_x
_atom_site_fract_y
_atom_site_fract_z
Si Si1 0.790130 0.343838 0.136748
Si Si2 0.605312 0.053304 0.572966
Si Si3 0.733364 0.368190 0.693900
Si Si4 0.876466 0.812664 0.003549
Si Si5 0.583329 0.061313 0.072724
Si Si6 0.916805 0.128182 0.936174
Si Si7 0.043136 0.290243 0.889151
O O1 0.746440 0.329463 0.328468
O O2 0.675400 0.332507 0.095386
O O3 0.817828 0.403864 0.076376
O O4 0.917616 0.315236 0.028650
O O5 0.500000 0.075541 0.750000
O O6 0.718854 0.089403 0.456055
O O7 0.526847 0.049522 0.471831
O O8 0.635775 0.993832 0.598725
O O9 0.645019 0.329314 0.653936
O O10 0.847027 0.332788 0.681438
O O11 0.671787 0.395516 0.878110
O O12 0.907999 0.753954 0.028493
O O13 0.982689 0.844735 0.021676
O O14 0.500000 0.089690 0.250000
O O15 0.000000 0.102266 0.750000
O O16 0.000000 0.271830 0.750000
#
# Coordination Sequence:
#
# PCOD9265624 Si02
#       7
#     8   8   8   8   8   8   8
#     4  11  21  41  68  92 134 170 225 281 331 392
#     4  10  21  36  62 100 140 164 207 277 353 402
#     4  12  23  42  66  95 136 176 210 281 340 399
#     4  11  27  41  61  93 138 178 224 266 335 403
#     4  10  19  36  63 100 130 168 215 274 341 405
#     4  10  23  44  66  89 122 178 227 271 317 394
#     4  12  24  40  67  97 127 176 225 274 333 399
#
# _framework density 22.579187999999998
#
# number of rings (size 3 to 8) (size 9 to 14) (size 15 to 20)
#    0.000    1.143    2.857    4.286    2.000    1.143 
#    2.571    0.000    0.000    9.429    0.000    0.000 
#    0.000    0.000    0.000    0.000    0.000    0.000 
#
# Total GULP energy -156049.418643 kJ/mol
# GULP energy per Si atom -5573.193523 kJ/mol
# Density = 2.252780 g / cm^3
# Si number density = 22.579188 Si / 1000 Ang^3
#
#
#
# Elastic Constant Matrix: (Units=GPa)
#
#
# Indices 1 2 3 4 5 6 
#
# 1 95.8747 22.6637 20.8307 0.0000 4.0039 0.0000
# 2 22.6637 70.8286 26.4530 0.0000 -3.6483 0.0000
# 3 20.8307 26.4530 149.3863 0.0000 -9.9233 0.0000
# 4 0.0000 0.0000 0.0000 5.3544 0.0000 24.5167
# 5 4.0039 -3.6483 -9.9233 0.0000 40.2126 0.0000
# 6 0.0000 0.0000 0.0000 24.5167 0.0000 8.7287
#
#
#
# Elastic Compliance Matrix: (Units=1/GPa)
#
#
# Indices 1 2 3 4 5 6 
#
# 1 0.011543 -0.003361 -0.001129 0.000000 -0.001733 0.000000
# 2 -0.003361 0.016118 -0.002304 0.000000 0.001228 0.000000
# 3 -0.001129 -0.002304 0.007374 0.000000 0.001723 0.000000
# 4 0.000000 0.000000 0.000000 -0.015746 0.000000 0.044228
# 5 -0.001733 0.001228 0.001723 0.000000 0.025577 0.000000
# 6 0.000000 0.000000 0.000000 0.044228 0.000000 -0.009659
#
#
# Mechanical properties :
#
#
# Convention : Reuss Voigt Hill
#
# Bulk Modulus (GPa) = 46.62896 50.66493 48.64694
# Shear Modulus (GPa) = 89.37755 27.26863 58.32309
#
# Velocity S-wave (km/s) = 6.29841 3.47895 5.08788
# Velocity P-wave (km/s) = 8.57843 6.21490 7.49047
#
# Compressibility (1/GPa) = 0.02144590
#
# Stress axis : x y z
#
# Youngs Moduli (GPa) = 86.63628 62.04363 135.61200
#
# Poissons Ratio (x) = 0.20852 0.15317
# Poissons Ratio (y) = 0.29117 0.31243
# Poissons Ratio (z) = 0.09786 0.14294
#
# Static dielectric constant tensor:
#      x y z
#    x 1.921870 0.000000 0.045280 
#    y 0.000000 1.930090 0.000000 
#    z 0.045280 0.000000 1.997170 
# 
# From -- ./inp_files/35582.got.cif
#   From: 2010.05.17/outbox.cif.g08.bks.cpg/sg15_18_cif.got.tgz:35582.got - 2010.06.03 18:47:42.
