data_PCOD9265396
_publ_section_title
;
Structure prediction by ZEFSAII (Michael W. Deem and Ramdas Pophale) SiO2 
 PCOD9265396
Probable space group: C 2/C
;
_chemical_formula_sum "Si O2"
_cell_formula_units_Z 40
_cell_length_a 20.795834
_cell_length_b 9.125262
_cell_length_c 11.830850
_cell_angle_alpha 90.000000
_cell_angle_beta 100.391487
_cell_angle_gamma 90.000000
_cell_volume 2208.286381
_symmetry_space_group_name_H-M "C 2/C"
_symmetry_group_IT_number 15
_symmetry_cell_setting 'monoclinic'
loop_
_space_group_symop_operation_xyz
x,y,z
-x,y,1/2-z
-x,-y,-z
x,-y,1/2+z
1/2+x,1/2+y,z
1/2-x,1/2+y,1/2-z
1/2-x,1/2-y,-z
1/2+x,1/2-y,1/2+z
loop_
_atom_site_type_symbol
_atom_site_label
_atom_site_fract_x
_atom_site_fract_y
_atom_site_fract_z
Si Si1 0.973340 0.130185 0.414679
Si Si2 0.901207 0.105546 0.166426
Si Si3 0.272991 0.126163 0.162223
Si Si4 0.729500 0.780249 0.364604
Si Si5 0.642651 0.308793 0.476748
O O1 0.932451 0.064048 0.296828
O O2 0.922661 0.225565 0.471737
O O3 0.040768 0.188583 0.382887
O O4 0.000000 0.000000 0.500000
O O5 0.842025 0.212815 0.169753
O O6 0.874039 0.962745 0.091908
O O7 0.273805 0.196274 0.286911
O O8 0.332069 0.191386 0.106215
O O9 0.272016 0.951394 0.163634
O O10 0.204485 0.170976 0.079951
O O11 0.750000 0.750000 0.500000
#
# Coordination Sequence:
#
# PCOD9265396 Si02
#       5
#     8   8   8   8   8
#     4   9  19  34  61  86 117 157 202 250 293 356
#     4  10  19  36  60  89 117 156 206 247 300 362
#     4  11  24  36  60  90 123 160 199 250 308 364
#     4  12  24  39  60  90 125 161 203 251 309 365
#     4  10  20  38  59  86 121 155 204 251 298 355
#
# _framework density 18.113592000000001
#
# number of rings (size 3 to 8) (size 9 to 14) (size 15 to 20)
#    0.000    1.600    4.000    1.200    2.800    0.000 
#    0.000    1.000    0.000    9.600    0.000    0.000 
#    0.000    0.000    0.000    0.000    0.000    0.000 
#
# Total GULP energy -111461.729871 kJ/mol
# GULP energy per Si atom -5573.086494 kJ/mol
# Density = 1.807236 g / cm^3
# Si number density = 18.113592 Si / 1000 Ang^3
#
#
#
# Elastic Constant Matrix: (Units=GPa)
#
#
# Indices 1 2 3 4 5 6 
#
# 1 86.7410 13.0281 32.8466 0.0000 -20.7636 0.0000
# 2 13.0281 87.6249 32.9246 0.0000 -19.8417 0.0000
# 3 32.8466 32.9246 122.0254 0.0000 -14.2901 0.0000
# 4 0.0000 0.0000 0.0000 18.0063 0.0000 -9.1809
# 5 -20.7636 -19.8417 -14.2901 0.0000 36.2073 0.0000
# 6 0.0000 0.0000 0.0000 -9.1809 0.0000 25.8169
#
#
#
# Elastic Compliance Matrix: (Units=1/GPa)
#
#
# Indices 1 2 3 4 5 6 
#
# 1 0.014404 0.000740 -0.003211 0.000000 0.007399 0.000000
# 2 0.000740 0.014055 -0.003187 0.000000 0.006869 0.000000
# 3 -0.003211 -0.003187 0.009959 0.000000 0.000343 0.000000
# 4 0.000000 0.000000 0.000000 0.067836 0.000000 0.024123
# 5 0.007399 0.006869 0.000343 0.000000 0.035761 0.000000
# 6 0.000000 0.000000 0.000000 0.024123 0.000000 0.047313
#
#
# Mechanical properties :
#
#
# Convention : Reuss Voigt Hill
#
# Bulk Modulus (GPa) = 36.89557 50.44333 43.66945
# Shear Modulus (GPa) = 23.84603 30.51224 27.17914
#
# Velocity S-wave (km/s) = 3.63226 4.10871 3.87781
# Velocity P-wave (km/s) = 6.16476 7.10053 6.64913
#
# Compressibility (1/GPa) = 0.02710352
#
# Stress axis : x y z
#
# Youngs Moduli (GPa) = 69.42399 71.14822 100.40825
#
# Poissons Ratio (x) = -0.05266 0.32237
# Poissons Ratio (y) = -0.05138 0.32002
# Poissons Ratio (z) = 0.22289 0.22676
#
# Static dielectric constant tensor:
#      x y z
#    x 1.650330 0.000000 -0.025520 
#    y 0.000000 1.589510 0.000000 
#    z -0.025520 0.000000 1.708980 
# 
# From -- ./inp_files/109565.got.cif
#   From: 2010.05.17/outbox.cif.g08.bks.cpg/sg15_55_cif.got.tgz:109565.got - 2010.06.03 18:47:42.
