data_PCOD9265734
_publ_section_title
;
Structure prediction by ZEFSAII (Michael W. Deem and Ramdas Pophale) SiO2 
 PCOD9265734
Probable space group: C 2/C
;
_chemical_formula_sum "Si O2"
_cell_formula_units_Z 36
_cell_length_a 16.925614
_cell_length_b 9.455863
_cell_length_c 21.119743
_cell_angle_alpha 90.000000
_cell_angle_beta 154.507028
_cell_angle_gamma 90.000000
_cell_volume 1454.812017
_symmetry_space_group_name_H-M "C 2/C"
_symmetry_group_IT_number 15
_symmetry_cell_setting 'monoclinic'
loop_
_space_group_symop_operation_xyz
x,y,z
-x,y,1/2-z
-x,-y,-z
x,-y,1/2+z
1/2+x,1/2+y,z
1/2-x,1/2+y,1/2-z
1/2-x,1/2-y,-z
1/2+x,1/2-y,1/2+z
loop_
_atom_site_type_symbol
_atom_site_label
_atom_site_fract_x
_atom_site_fract_y
_atom_site_fract_z
Si Si1 0.000000 0.110196 0.750000
Si Si2 0.096004 0.135244 0.410802
Si Si3 0.674766 0.925075 0.700340
Si Si4 0.640147 0.116856 0.795485
Si Si5 0.795603 0.674250 0.867671
O O1 0.852201 0.196272 0.683602
O O2 0.897519 0.004304 0.627151
O O3 0.250000 0.250000 0.500000
O O4 0.159777 0.104920 0.528311
O O5 0.911337 0.222558 0.261490
O O6 0.792812 0.802662 0.817255
O O7 0.495428 0.853990 0.540165
O O8 0.615076 0.023924 0.715631
O O9 0.760061 0.032252 0.711000
O O10 0.500000 0.072978 0.750000
#
# Coordination Sequence:
#
# PCOD9265734 Si02
#       5
#     4   8   8   8   8
#     4  12  24  44  72 110 142 192 238 302 350 428
#     4  10  19  36  65 103 139 182 234 286 344 420
#     4  11  28  50  71 106 145 193 236 302 360 431
#     4  10  21  37  68 100 140 185 237 285 347 425
#     4  11  29  49  75 103 151 185 245 295 364 426
#
# _framework density 24.745463999999998
#
# number of rings (size 3 to 8) (size 9 to 14) (size 15 to 20)
#    0.000    1.333    3.333    2.667    7.778    3.556 
#    0.000    0.000    0.000    0.000    0.000    0.000 
#    0.000    0.000    0.000    0.000    0.000    0.000 
#
# Total GULP energy -100844.649662 kJ/mol
# GULP energy per Si atom -5602.480537 kJ/mol
# Density = 2.468914 g / cm^3
# Si number density = 24.745464 Si / 1000 Ang^3
#
#
#
# Elastic Constant Matrix: (Units=GPa)
#
#
# Indices 1 2 3 4 5 6 
#
# 1 132.0765 23.9190 30.1780 0.0000 1.9809 -0.0002
# 2 23.9190 56.9230 14.1331 -0.0032 -11.3314 -0.0021
# 3 30.1780 14.1331 117.3190 -0.0013 -31.4661 -0.0013
# 4 0.0000 -0.0032 -0.0013 42.3107 -0.0003 -19.0915
# 5 1.9809 -11.3314 -31.4661 -0.0003 36.8854 -0.0004
# 6 -0.0002 -0.0021 -0.0013 -19.0915 -0.0004 36.6892
#
#
#
# Elastic Compliance Matrix: (Units=1/GPa)
#
#
# Indices 1 2 3 4 5 6 
#
# 1 0.009022 -0.003891 -0.002986 -0.000001 -0.004227 -0.000001
# 2 -0.003891 0.020468 0.000360 0.000003 0.006804 0.000003
# 3 -0.002986 0.000360 0.012086 0.000001 0.010582 0.000001
# 4 -0.000001 0.000003 0.000001 0.030887 0.000002 0.016072
# 5 -0.004227 0.006804 0.010582 0.000002 0.038455 0.000002
# 6 -0.000001 0.000003 0.000001 0.016072 0.000002 0.035619
#
#
# Mechanical properties :
#
#
# Convention : Reuss Voigt Hill
#
# Bulk Modulus (GPa) = 35.03514 49.19763 42.11638
# Shear Modulus (GPa) = 29.57108 39.04962 34.31035
#
# Velocity S-wave (km/s) = 3.46064 3.97678 3.72765
# Velocity P-wave (km/s) = 5.49154 6.40398 5.96523
#
# Compressibility (1/GPa) = 0.02854278
#
# Stress axis : x y z
#
# Youngs Moduli (GPa) = 110.84525 48.85767 82.73706
#
# Poissons Ratio (x) = 0.19011 0.24702
# Poissons Ratio (y) = 0.43130 -0.02979
# Poissons Ratio (z) = 0.33093 -0.01759
#
# Static dielectric constant tensor:
#      x y z
#    x 2.002280 0.000000 0.051710 
#    y 0.000000 1.927200 0.000000 
#    z 0.051710 0.000000 2.004830 
# 
# From -- ./inp_files/247916.got.cif
#   From: 2010.05.17/outbox.cif.g08.bks.cpg/sg15_124_cif.got.tgz:247916.got - 2010.06.03 18:47:42.
