data_PCOD9265739
_publ_section_title
;
Structure prediction by ZEFSAII (Michael W. Deem and Ramdas Pophale) SiO2 
 PCOD9265739
Probable space group: C 2/C
;
_chemical_formula_sum "Si O2"
_cell_formula_units_Z 40
_cell_length_a 12.367430
_cell_length_b 14.960918
_cell_length_c 13.877600
_cell_angle_alpha 90.000000
_cell_angle_beta 139.628290
_cell_angle_gamma 90.000000
_cell_volume 1663.241606
_symmetry_space_group_name_H-M "C 2/C"
_symmetry_group_IT_number 15
_symmetry_cell_setting 'monoclinic'
loop_
_space_group_symop_operation_xyz
x,y,z
-x,y,1/2-z
-x,-y,-z
x,-y,1/2+z
1/2+x,1/2+y,z
1/2-x,1/2+y,1/2-z
1/2-x,1/2-y,-z
1/2+x,1/2-y,1/2+z
loop_
_atom_site_type_symbol
_atom_site_label
_atom_site_fract_x
_atom_site_fract_y
_atom_site_fract_z
Si Si1 0.540905 0.406114 0.436310
Si Si2 0.000000 0.226069 0.750000
Si Si3 0.593793 0.155352 0.137056
Si Si4 0.000000 0.673970 0.750000
Si Si5 0.059300 0.232710 0.117041
Si Si6 0.217988 0.472296 0.287750
O O1 0.594840 0.341782 0.386325
O O2 0.515819 0.347975 0.516430
O O3 0.355909 0.446299 0.300669
O O4 0.676361 0.478979 0.555600
O O5 0.913812 0.292202 0.766441
O O6 0.767623 0.198855 0.217884
O O7 0.604130 0.050748 0.165637
O O8 0.449049 0.185250 0.965765
O O9 0.942254 0.738642 0.624695
O O10 0.123580 0.608723 0.774911
#
# Coordination Sequence:
#
# PCOD9265739 Si02
#       6
#     8   4   8   4   8   8
#     4   9  21  41  59  83 122 161 195 235 295 364
#     4  10  19  36  65  86 110 160 204 232 289 362
#     4  10  22  40  61  88 119 153 196 247 293 348
#     4  12  23  36  61  90 116 154 202 248 293 340
#     4  10  23  40  61  86 120 158 198 240 293 357
#     4  10  22  38  57  88 124 151 192 251 297 342
#
# _framework density 24.049420999999999
#
# number of rings (size 3 to 8) (size 9 to 14) (size 15 to 20)
#    0.000    2.000    0.000    3.000    0.000   14.400 
#    0.000    7.000    0.000    0.000    0.000    0.000 
#    0.000    0.000    0.000    0.000    0.000    0.000 
#
# Total GULP energy -111535.563704 kJ/mol
# GULP energy per Si atom -5576.778185 kJ/mol
# Density = 2.399468 g / cm^3
# Si number density = 24.049421 Si / 1000 Ang^3
#
#
#
# Elastic Constant Matrix: (Units=GPa)
#
#
# Indices 1 2 3 4 5 6 
#
# 1 80.2116 24.9657 20.1667 0.0000 -25.6821 0.0000
# 2 24.9657 56.0905 19.1116 0.0000 -22.3044 0.0000
# 3 20.1667 19.1116 62.0952 -0.0002 -21.6926 0.0000
# 4 0.0000 0.0000 -0.0002 36.8117 -0.0001 -0.2942
# 5 -25.6821 -22.3044 -21.6926 -0.0001 33.4328 0.0000
# 6 0.0000 0.0000 0.0000 -0.2942 0.0000 33.5391
#
#
#
# Elastic Compliance Matrix: (Units=1/GPa)
#
#
# Indices 1 2 3 4 5 6 
#
# 1 0.016992 -0.003124 -0.000938 0.000000 0.010361 0.000000
# 2 -0.003124 0.025107 -0.002198 0.000000 0.012924 0.000000
# 3 -0.000938 -0.002198 0.021105 0.000000 0.011507 0.000000
# 4 0.000000 0.000000 0.000000 0.027167 0.000000 0.000238
# 5 0.010361 0.012924 0.011507 0.000000 0.053958 0.000000
# 6 0.000000 0.000000 0.000000 0.000238 0.000000 0.029818
#
#
# Mechanical properties :
#
#
# Convention : Reuss Voigt Hill
#
# Bulk Modulus (GPa) = 19.72949 36.32061 28.02505
# Shear Modulus (GPa) = 24.56252 29.70025 27.13139
#
# Velocity S-wave (km/s) = 3.19930 3.51802 3.36244
# Velocity P-wave (km/s) = 4.67642 5.62470 5.17234
#
# Compressibility (1/GPa) = 0.05068553
#
# Stress axis : x y z
#
# Youngs Moduli (GPa) = 58.85017 39.82967 47.38135
#
# Poissons Ratio (x) = 0.12442 0.04443
# Poissons Ratio (y) = 0.18384 0.10414
# Poissons Ratio (z) = 0.05519 0.08754
#
# Static dielectric constant tensor:
#      x y z
#    x 1.927320 0.000000 0.075270 
#    y 0.000000 1.945140 0.000000 
#    z 0.075270 0.000000 2.013760 
# 
# From -- ./inp_files/85754.got.cif
#   From: 2010.05.17/outbox.cif.g08.bks.cpg/sg15_43_cif.got.tgz:85754.got - 2010.06.03 18:47:42.
