data_PCOD9265229
_publ_section_title
;
Structure prediction by ZEFSAII (Michael W. Deem and Ramdas Pophale) SiO2 
 PCOD9265229
Probable space group: C 2/C
;
_chemical_formula_sum "Si O2"
_cell_formula_units_Z 64
_cell_length_a 17.694384
_cell_length_b 11.903177
_cell_length_c 20.414667
_cell_angle_alpha 90.000000
_cell_angle_beta 128.180968
_cell_angle_gamma 90.000000
_cell_volume 3379.851269
_symmetry_space_group_name_H-M "C 2/C"
_symmetry_group_IT_number 15
_symmetry_cell_setting 'monoclinic'
loop_
_space_group_symop_operation_xyz
x,y,z
-x,y,1/2-z
-x,-y,-z
x,-y,1/2+z
1/2+x,1/2+y,z
1/2-x,1/2+y,1/2-z
1/2-x,1/2-y,-z
1/2+x,1/2-y,1/2+z
loop_
_atom_site_type_symbol
_atom_site_label
_atom_site_fract_x
_atom_site_fract_y
_atom_site_fract_z
Si Si1 0.958449 0.945889 0.372027
Si Si2 0.964286 0.715182 0.878225
Si Si3 0.806268 0.026555 0.671202
Si Si4 0.283066 0.778668 0.446658
Si Si5 0.496094 0.200508 0.048854
Si Si6 0.180204 0.106117 0.145557
Si Si7 0.639201 0.016550 0.179941
Si Si8 0.571714 0.385207 0.850599
O O1 0.883724 0.952992 0.270615
O O2 0.986732 0.822937 0.410299
O O3 0.899316 0.008225 0.398002
O O4 0.045972 0.019910 0.390957
O O5 0.873090 0.802342 0.835160
O O6 0.920082 0.595569 0.833642
O O7 0.044193 0.769876 0.873299
O O8 0.004042 0.705883 0.973950
O O9 0.796663 0.141813 0.627289
O O10 0.705176 0.009950 0.652518
O O11 0.831966 0.925327 0.635140
O O12 0.250000 0.750000 0.500000
O O13 0.387094 0.836985 0.504255
O O14 0.301235 0.670475 0.411321
O O15 0.568030 0.114659 0.120945
O O16 0.281165 0.059368 0.225783
O O17 0.500000 0.389208 0.750000
#
# Coordination Sequence:
#
# PCOD9265229 Si02
#       8
#     8   8   8   8   8   8   8   8
#     4   9  19  35  60  86 114 154 204 247 286 365
#     4  10  21  38  60  88 122 154 198 254 297 359
#     4  10  19  36  59  83 114 157 202 238 293 362
#     4  11  22  36  56  84 122 152 193 254 305 352
#     4  11  22  35  60  90 118 157 197 247 311 358
#     4   9  20  37  60  86 113 158 209 242 290 358
#     4  11  21  38  65  82 121 155 205 243 299 368
#     4   9  19  37  59  85 113 156 199 247 295 345
#
# _framework density 18.935745000000001
#
# number of rings (size 3 to 8) (size 9 to 14) (size 15 to 20)
#    0.000    2.000    2.500    2.625    1.750    5.500 
#    0.000    3.750    0.000    0.000    0.000    0.000 
#    0.000    0.000    0.000    0.000    0.000    0.000 
#
# Total GULP energy -178325.236302 kJ/mol
# GULP energy per Si atom -5572.663634 kJ/mol
# Density = 1.889265 g / cm^3
# Si number density = 18.935745 Si / 1000 Ang^3
#
#
#
# Elastic Constant Matrix: (Units=GPa)
#
#
# Indices 1 2 3 4 5 6 
#
# 1 57.7295 4.9842 15.1346 0.0000 -18.7526 0.0000
# 2 4.9842 76.9014 20.1598 0.0000 5.3061 0.0000
# 3 15.1346 20.1598 41.8260 0.0000 2.6666 0.0000
# 4 0.0000 0.0000 0.0000 17.5802 0.0000 -9.0200
# 5 -18.7526 5.3061 2.6666 0.0000 23.8577 0.0000
# 6 0.0000 0.0000 0.0000 -9.0200 0.0000 21.3351
#
#
#
# Elastic Compliance Matrix: (Units=1/GPa)
#
#
# Indices 1 2 3 4 5 6 
#
# 1 0.027914 -0.000435 -0.011377 0.000000 0.023310 0.000000
# 2 -0.000435 0.015044 -0.006908 0.000000 -0.002916 0.000000
# 3 -0.011377 -0.006908 0.032055 0.000000 -0.010989 0.000000
# 4 0.000000 0.000000 0.000000 0.072639 0.000000 0.030710
# 5 0.023310 -0.002916 -0.010989 0.000000 0.062114 0.000000
# 6 0.000000 0.000000 0.000000 0.030710 0.000000 0.059855
#
#
# Mechanical properties :
#
#
# Convention : Reuss Voigt Hill
#
# Bulk Modulus (GPa) = 26.61427 28.55714 27.58570
# Shear Modulus (GPa) = 15.64529 21.63316 18.63923
#
# Velocity S-wave (km/s) = 2.87754 3.38368 3.14082
# Velocity P-wave (km/s) = 5.01257 5.51177 5.26809
#
# Compressibility (1/GPa) = 0.03757382
#
# Stress axis : x y z
#
# Youngs Moduli (GPa) = 35.82406 66.47207 31.19591
#
# Poissons Ratio (x) = 0.02891 0.35492
# Poissons Ratio (y) = 0.01558 0.21549
# Poissons Ratio (z) = 0.40758 0.45917
#
# Static dielectric constant tensor:
#      x y z
#    x 1.678000 0.000000 -0.000910 
#    y 0.000000 1.708790 0.000000 
#    z -0.000910 0.000000 1.661030 
# 
# From -- ./inp_files/248643.got.cif
#   From: 2010.05.17/outbox.cif.g08.bks.cpg/sg15_125_cif.got.tgz:248643.got - 2010.06.03 18:47:42.
