data_PCOD9265969
_publ_section_title
;
Structure prediction by ZEFSAII (Michael W. Deem and Ramdas Pophale) SiO2 
 PCOD9265969
Probable space group: C 2/C
;
_chemical_formula_sum "Si O2"
_cell_formula_units_Z 44
_cell_length_a 9.919714
_cell_length_b 23.038446
_cell_length_c 8.715433
_cell_angle_alpha 90.000000
_cell_angle_beta 63.706230
_cell_angle_gamma 90.000000
_cell_volume 1785.699418
_symmetry_space_group_name_H-M "C 2/C"
_symmetry_group_IT_number 15
_symmetry_cell_setting 'monoclinic'
loop_
_space_group_symop_operation_xyz
x,y,z
-x,y,1/2-z
-x,-y,-z
x,-y,1/2+z
1/2+x,1/2+y,z
1/2-x,1/2+y,1/2-z
1/2-x,1/2-y,-z
1/2+x,1/2-y,1/2+z
loop_
_atom_site_type_symbol
_atom_site_label
_atom_site_fract_x
_atom_site_fract_y
_atom_site_fract_z
Si Si1 0.628321 0.547916 0.474832
Si Si2 0.781270 0.535638 0.088494
Si Si3 0.500000 0.917882 0.250000
Si Si4 0.424138 0.638341 0.448094
Si Si5 0.368838 0.258593 0.195733
Si Si6 0.940436 0.304292 0.119547
O O1 0.500000 0.500000 0.500000
O O2 0.700497 0.525533 0.594080
O O3 0.545657 0.608734 0.500295
O O4 0.756968 0.546363 0.279194
O O5 0.931195 0.541168 0.915364
O O6 0.689404 0.587642 0.047851
O O7 0.410461 0.870967 0.186334
O O8 0.500000 0.654487 0.250000
O O9 0.359964 0.693266 0.566354
O O10 0.500000 0.271831 0.250000
O O11 0.204129 0.265879 0.352085
O O12 0.429719 0.201412 0.075161
O O13 0.000000 0.279578 0.250000
#
# Coordination Sequence:
#
# PCOD9265969 Si02
#       6
#     8   8   4   8   8   8
#     4   9  19  33  58  85 116 152 199 259 307 374
#     4  10  19  37  58  88 123 155 206 257 313 370
#     4  10  22  38  66  80 124 172 218 248 310 392
#     4   9  18  35  58  87 116 162 207 246 306 388
#     4  12  23  38  63  96 128 162 209 278 321 361
#     4  10  23  42  64  88 125 175 216 254 312 394
#
# _framework density 24.640203
#
# number of rings (size 3 to 8) (size 9 to 14) (size 15 to 20)
#    0.545    1.455    1.818    3.273    0.000    6.545 
#    0.000    0.000    0.000    0.000    0.000    0.000 
#    0.000    0.000    0.000    0.000    0.000    0.000 
#
# Total GULP energy -122682.810480 kJ/mol
# GULP energy per Si atom -5576.491385 kJ/mol
# Density = 2.458412 g / cm^3
# Si number density = 24.640203 Si / 1000 Ang^3
#
#
#
# Elastic Constant Matrix: (Units=GPa)
#
#
# Indices 1 2 3 4 5 6 
#
# 1 64.0665 1.7321 -3.5559 0.0000 0.3024 0.0000
# 2 1.7321 63.4276 14.1835 0.0000 4.5086 0.0000
# 3 -3.5559 14.1835 81.8975 0.0000 -13.4140 0.0000
# 4 0.0000 0.0000 0.0000 15.9089 0.0000 6.2278
# 5 0.3024 4.5086 -13.4140 0.0000 31.6210 0.0000
# 6 0.0000 0.0000 0.0000 6.2278 0.0000 12.8198
#
#
#
# Elastic Compliance Matrix: (Units=1/GPa)
#
#
# Indices 1 2 3 4 5 6 
#
# 1 0.015671 -0.000637 0.000839 0.000000 0.000297 0.000000
# 2 -0.000637 0.016865 -0.003591 0.000000 -0.003922 0.000000
# 3 0.000839 -0.003591 0.013918 0.000000 0.006408 0.000000
# 4 0.000000 0.000000 0.000000 0.077619 0.000000 -0.037707
# 5 0.000297 -0.003922 0.006408 0.000000 0.034899 0.000000
# 6 0.000000 0.000000 0.000000 -0.037707 0.000000 0.096322
#
#
# Mechanical properties :
#
#
# Convention : Reuss Voigt Hill
#
# Bulk Modulus (GPa) = 25.20277 26.01235 25.60756
# Shear Modulus (GPa) = 18.16215 25.20539 21.68377
#
# Velocity S-wave (km/s) = 2.71789 3.20181 2.96972
# Velocity P-wave (km/s) = 4.48328 4.92428 4.70895
#
# Compressibility (1/GPa) = 0.03967817
#
# Stress axis : x y z
#
# Youngs Moduli (GPa) = 63.81145 59.29397 71.84781
#
# Poissons Ratio (x) = 0.03776 -0.06030
# Poissons Ratio (y) = 0.04063 0.25799
# Poissons Ratio (z) = -0.05356 0.21291
#
# Static dielectric constant tensor:
#      x y z
#    x 2.121830 0.000000 -0.145950 
#    y 0.000000 1.939970 0.000000 
#    z -0.145950 0.000000 2.008250 
# 
# From -- ./inp_files/33988.got.cif
#   From: 2010.05.17/outbox.cif.g08.bks.cpg/sg15_17_cif.got.tgz:33988.got - 2010.06.03 18:47:42.
