data_PCOD9265632
_publ_section_title
;
Structure prediction by ZEFSAII (Michael W. Deem and Ramdas Pophale) SiO2 
 PCOD9265632
Probable space group: C 2/C
;
_chemical_formula_sum "Si O2"
_cell_formula_units_Z 64
_cell_length_a 15.985342
_cell_length_b 12.349832
_cell_length_c 17.983490
_cell_angle_alpha 90.000000
_cell_angle_beta 70.425071
_cell_angle_gamma 90.000000
_cell_volume 3345.045049
_symmetry_space_group_name_H-M "C 2/C"
_symmetry_group_IT_number 15
_symmetry_cell_setting 'monoclinic'
loop_
_space_group_symop_operation_xyz
x,y,z
-x,y,1/2-z
-x,-y,-z
x,-y,1/2+z
1/2+x,1/2+y,z
1/2-x,1/2+y,1/2-z
1/2-x,1/2-y,-z
1/2+x,1/2-y,1/2+z
loop_
_atom_site_type_symbol
_atom_site_label
_atom_site_fract_x
_atom_site_fract_y
_atom_site_fract_z
Si Si1 0.392575 0.915260 0.430729
Si Si2 0.560797 0.359333 0.157129
Si Si3 0.309590 0.385441 0.050298
Si Si4 0.015453 0.625767 0.158555
Si Si5 0.664715 0.538328 0.196742
Si Si6 0.073977 0.986913 0.878866
Si Si7 0.434800 0.683158 0.381508
Si Si8 0.653608 0.157205 0.390787
O O1 0.291506 0.918018 0.431439
O O2 0.440012 0.811745 0.378608
O O3 0.386326 0.889896 0.520415
O O4 0.441721 0.024820 0.395734
O O5 0.500000 0.360570 0.250000
O O6 0.574504 0.234673 0.134120
O O7 0.645564 0.431703 0.152792
O O8 0.501689 0.422438 0.114121
O O9 0.370363 0.479996 0.066057
O O10 0.316896 0.280585 0.101442
O O11 0.351896 0.345897 0.960243
O O12 0.000000 0.601470 0.250000
O O13 0.921561 0.654432 0.149099
O O14 0.640157 0.513047 0.288764
O O15 0.593018 0.625521 0.186742
O O16 0.761534 0.587029 0.157792
O O17 0.020477 0.874426 0.891640
#
# Coordination Sequence:
#
# PCOD9265632 Si02
#       8
#     8   8   8   8   8   8   8   8
#     4  11  23  40  59  88 121 155 196 240 297 349
#     4   8  17  36  56  82 112 152 191 227 287 345
#     4  11  20  38  62  89 114 157 201 237 283 360
#     4  11  24  40  60  85 118 157 195 241 295 355
#     4  10  19  36  63  88 114 153 199 242 291 343
#     4  10  20  33  62  90 115 147 198 246 286 337
#     4  10  19  38  60  88 118 153 196 242 293 342
#     4  11  21  42  62  82 118 165 194 232 297 360
#
# _framework density 19.132776
#
# number of rings (size 3 to 8) (size 9 to 14) (size 15 to 20)
#    0.000    1.750    3.750    2.625    1.750    1.000 
#    0.000    1.875    0.000    0.000    0.000    0.000 
#    0.000    0.000    0.000    0.000    0.000    0.000 
#
# Total GULP energy -178728.181784 kJ/mol
# GULP energy per Si atom -5585.255681 kJ/mol
# Density = 1.908923 g / cm^3
# Si number density = 19.132776 Si / 1000 Ang^3
#
#
#
# Elastic Constant Matrix: (Units=GPa)
#
#
# Indices 1 2 3 4 5 6 
#
# 1 70.0773 10.7989 3.3350 0.0000 7.6386 0.0000
# 2 10.7989 86.6511 0.9624 0.0000 -13.6003 0.0000
# 3 3.3350 0.9624 38.1794 0.0000 6.1009 0.0000
# 4 0.0000 0.0000 0.0000 21.0023 0.0000 -6.8228
# 5 7.6386 -13.6003 6.1009 0.0000 21.9749 0.0000
# 6 0.0000 0.0000 0.0000 -6.8228 0.0000 26.3046
#
#
#
# Elastic Compliance Matrix: (Units=1/GPa)
#
#
# Indices 1 2 3 4 5 6 
#
# 1 0.015543 -0.003078 -0.000118 0.000000 -0.007275 0.000000
# 2 -0.003078 0.013493 -0.001650 0.000000 0.009879 0.000000
# 3 -0.000118 -0.001650 0.027626 0.000000 -0.008650 0.000000
# 4 0.000000 0.000000 0.000000 0.051995 0.000000 0.013486
# 5 -0.007275 0.009879 -0.008650 0.000000 0.056551 0.000000
# 6 0.000000 0.000000 0.000000 0.013486 0.000000 0.041514
#
#
# Mechanical properties :
#
#
# Convention : Reuss Voigt Hill
#
# Bulk Modulus (GPa) = 21.28931 25.01115 23.15023
# Shear Modulus (GPa) = 21.54533 25.84380 23.69456
#
# Velocity S-wave (km/s) = 3.35937 3.67926 3.52295
# Velocity P-wave (km/s) = 5.11845 5.58122 5.35484
#
# Compressibility (1/GPa) = 0.04697193
#
# Stress axis : x y z
#
# Youngs Moduli (GPa) = 64.33868 74.11319 36.19746
#
# Poissons Ratio (x) = 0.22808 0.00426
# Poissons Ratio (y) = 0.19800 0.05972
# Poissons Ratio (z) = 0.00757 0.12228
#
# Static dielectric constant tensor:
#      x y z
#    x 1.648690 0.000000 0.016460 
#    y 0.000000 1.683030 0.000000 
#    z 0.016460 0.000000 1.675840 
# 
# From -- ./inp_files/243722.got.cif
#   From: 2010.05.17/outbox.cif.g08.bks.cpg/sg15_122_cif.got.tgz:243722.got - 2010.06.03 18:47:42.
