data_PCOD9265061
_publ_section_title
;
Structure prediction by ZEFSAII (Michael W. Deem and Ramdas Pophale) SiO2 
 PCOD9265061
Probable space group: C 2/C
;
_chemical_formula_sum "Si O2"
_cell_formula_units_Z 40
_cell_length_a 8.765715
_cell_length_b 16.783270
_cell_length_c 21.272821
_cell_angle_alpha 90.000000
_cell_angle_beta 138.214867
_cell_angle_gamma 90.000000
_cell_volume 2085.375441
_symmetry_space_group_name_H-M "C 2/C"
_symmetry_group_IT_number 15
_symmetry_cell_setting 'monoclinic'
loop_
_space_group_symop_operation_xyz
x,y,z
-x,y,1/2-z
-x,-y,-z
x,-y,1/2+z
1/2+x,1/2+y,z
1/2-x,1/2+y,1/2-z
1/2-x,1/2-y,-z
1/2+x,1/2-y,1/2+z
loop_
_atom_site_type_symbol
_atom_site_label
_atom_site_fract_x
_atom_site_fract_y
_atom_site_fract_z
Si Si1 0.300210 0.430295 0.480929
Si Si2 0.829160 0.429113 0.641092
Si Si3 0.122535 0.306194 0.511937
Si Si4 0.745893 0.693426 0.648515
Si Si5 0.403988 0.257361 0.150797
O O1 0.565129 0.434995 0.582948
O O2 0.180839 0.510400 0.420218
O O3 0.163079 0.392297 0.496065
O O4 0.308930 0.371993 0.421990
O O5 0.892834 0.338998 0.640882
O O6 0.000000 0.452422 0.750000
O O7 0.250000 0.250000 0.500000
O O8 0.236976 0.279632 0.611823
O O9 0.856146 0.286269 0.434284
O O10 0.563615 0.700116 0.648493
O O11 0.000000 0.676952 0.750000
O O12 0.500000 0.273339 0.250000
#
# Coordination Sequence:
#
# PCOD9265061 Si02
#       5
#     8   8   8   8   8
#     4  10  21  39  58  84 116 155 190 235 285 347
#     4  10  21  35  60  83 116 152 196 226 288 346
#     4  10  19  36  57  85 114 147 189 240 277 342
#     4  11  22  35  61  87 115 151 195 237 287 339
#     4  11  21  36  60  85 114 151 194 241 286 338
#
# _framework density 19.1812
#
# number of rings (size 3 to 8) (size 9 to 14) (size 15 to 20)
#    0.000    1.600    4.000    3.600    2.800    0.000 
#    0.000    1.000    0.000    1.200    0.000    0.000 
#    0.000    0.000    0.000    0.000    0.000    0.000 
#
# Total GULP energy -111562.030141 kJ/mol
# GULP energy per Si atom -5578.101507 kJ/mol
# Density = 1.913754 g / cm^3
# Si number density = 19.181200 Si / 1000 Ang^3
#
#
#
# Elastic Constant Matrix: (Units=GPa)
#
#
# Indices 1 2 3 4 5 6 
#
# 1 91.8891 8.9121 29.1306 0.0000 8.2315 0.0000
# 2 8.9121 38.6869 16.0226 0.0000 2.6736 0.0000
# 3 29.1306 16.0226 132.0818 -0.0001 21.4017 0.0000
# 4 0.0000 0.0000 -0.0001 -21.7544 0.0000 -12.7223
# 5 8.2315 2.6736 21.4017 0.0000 28.9335 0.0000
# 6 0.0000 0.0000 0.0000 -12.7223 0.0000 11.6352
#
#
#
# Elastic Compliance Matrix: (Units=1/GPa)
#
#
# Indices 1 2 3 4 5 6 
#
# 1 0.011877 -0.001735 -0.002144 0.000000 -0.001632 0.000000
# 2 -0.001735 0.027470 -0.002975 0.000000 0.000156 0.000000
# 3 -0.002144 -0.002975 0.009387 0.000000 -0.006058 0.000000
# 4 0.000000 0.000000 0.000000 -0.028038 0.000000 -0.030658
# 5 -0.001632 0.000156 -0.006058 0.000000 0.039493 0.000000
# 6 0.000000 0.000000 0.000000 -0.030658 0.000000 0.052423
#
#
# Mechanical properties :
#
#
# Convention : Reuss Voigt Hill
#
# Bulk Modulus (GPa) = 28.55165 41.19873 34.87519
# Shear Modulus (GPa) = 36.23325 17.66903 26.95114
#
# Velocity S-wave (km/s) = 4.35098 3.03836 3.75251
# Velocity P-wave (km/s) = 6.33710 5.81672 6.08248
#
# Compressibility (1/GPa) = 0.03502424
#
# Stress axis : x y z
#
# Youngs Moduli (GPa) = 84.19604 36.40398 106.53572
#
# Poissons Ratio (x) = 0.06316 0.22847
# Poissons Ratio (y) = 0.14609 0.31693
# Poissons Ratio (z) = 0.18056 0.10830
#
# Static dielectric constant tensor:
#      x y z
#    x 1.669580 0.000000 0.005290 
#    y 0.000000 1.738090 0.000000 
#    z 0.005290 0.000000 1.679630 
# 
# From -- ./inp_files/133806.got.cif
#   From: 2010.05.17/outbox.cif.g08.bks.cpg/sg15_67_cif.got.tgz:133806.got - 2010.06.03 18:47:42.
