data_PCOD9265597
_publ_section_title
;
Structure prediction by ZEFSAII (Michael W. Deem and Ramdas Pophale) SiO2 
 PCOD9265597
Probable space group: C 2/C
;
_chemical_formula_sum "Si O2"
_cell_formula_units_Z 56
_cell_length_a 9.595204
_cell_length_b 16.720137
_cell_length_c 26.193453
_cell_angle_alpha 90.000000
_cell_angle_beta 42.897886
_cell_angle_gamma 90.000000
_cell_volume 2860.478044
_symmetry_space_group_name_H-M "C 2/C"
_symmetry_group_IT_number 15
_symmetry_cell_setting 'monoclinic'
loop_
_space_group_symop_operation_xyz
x,y,z
-x,y,1/2-z
-x,-y,-z
x,-y,1/2+z
1/2+x,1/2+y,z
1/2-x,1/2+y,1/2-z
1/2-x,1/2-y,-z
1/2+x,1/2-y,1/2+z
loop_
_atom_site_type_symbol
_atom_site_label
_atom_site_fract_x
_atom_site_fract_y
_atom_site_fract_z
Si Si1 0.306142 0.702474 0.933127
Si Si2 0.557857 0.603328 0.934465
Si Si3 0.019618 0.838282 0.856586
Si Si4 0.340930 0.813968 0.435575
Si Si5 0.576394 0.909241 0.993382
Si Si6 0.719142 0.564548 0.396661
Si Si7 0.944143 0.675815 0.206038
O O1 0.465785 0.635609 0.907653
O O2 0.427556 0.761192 0.862511
O O3 0.102433 0.655830 0.970013
O O4 0.250000 0.750000 0.000000
O O5 0.686439 0.667399 0.931685
O O6 0.692200 0.526192 0.888950
O O7 0.377767 0.578298 0.021774
O O8 0.099370 0.881287 0.887138
O O9 0.202412 0.841491 0.766473
O O10 0.015151 0.742178 0.866390
O O11 0.793385 0.878882 0.909294
O O12 0.250000 0.750000 0.500000
O O13 0.385789 0.893834 0.455895
O O14 0.500000 0.000000 0.000000
O O15 0.949603 0.591891 0.334543
O O16 0.000000 0.695523 0.250000
#
# Coordination Sequence:
#
# PCOD9265597 Si02
#       7
#     8   8   8   8   8   8   8
#     4  12  23  38  64  97 122 157 217 272 301 372
#     4  11  21  35  63  94 123 150 217 267 302 356
#     4  10  20  40  62  85 123 172 210 247 319 392
#     4  10  19  37  60  87 120 167 211 247 310 385
#     4  11  22  36  61  95 126 162 210 263 316 380
#     4  10  19  36  62  92 119 164 204 258 307 381
#     4  10  22  40  64  89 127 174 210 255 329 387
#
# _framework density 19.577148000000001
#
# number of rings (size 3 to 8) (size 9 to 14) (size 15 to 20)
#    0.000    1.429    4.286    4.286    2.000    0.000 
#    0.000    8.571    0.000    6.857    0.000    0.000 
#    0.000    0.000    0.000    0.000    0.000    0.000 
#
# Total GULP energy -155893.903559 kJ/mol
# GULP energy per Si atom -5567.639413 kJ/mol
# Density = 1.953259 g / cm^3
# Si number density = 19.577148 Si / 1000 Ang^3
#
#
#
# Elastic Constant Matrix: (Units=GPa)
#
#
# Indices 1 2 3 4 5 6 
#
# 1 70.8925 23.4900 34.5628 -0.0001 -23.5519 0.0002
# 2 23.4900 90.3892 53.8833 -0.0002 -22.3644 0.0003
# 3 34.5628 53.8833 109.8491 -0.0001 -28.0477 0.0004
# 4 -0.0001 -0.0002 -0.0001 21.3875 0.0001 -8.5452
# 5 -23.5519 -22.3644 -28.0477 0.0001 30.6250 -0.0002
# 6 0.0002 0.0003 0.0004 -8.5452 -0.0002 34.4627
#
#
#
# Elastic Compliance Matrix: (Units=1/GPa)
#
#
# Indices 1 2 3 4 5 6 
#
# 1 0.019703 -0.000368 -0.002896 0.000000 0.012232 0.000000
# 2 -0.000368 0.016454 -0.006473 0.000000 0.005805 0.000000
# 3 -0.002896 -0.006473 0.014898 0.000000 0.006690 0.000000
# 4 0.000000 0.000000 0.000000 0.051898 0.000000 0.012868
# 5 0.012232 0.005805 0.006690 0.000000 0.052426 0.000000
# 6 0.000000 0.000000 0.000000 0.012868 0.000000 0.032208
#
#
# Mechanical properties :
#
#
# Convention : Reuss Voigt Hill
#
# Bulk Modulus (GPa) = 31.66408 55.00033 43.33220
# Shear Modulus (GPa) = 22.97934 27.90802 25.44368
#
# Velocity S-wave (km/s) = 3.42977 3.77973 3.60899
# Velocity P-wave (km/s) = 5.64744 6.87049 6.28877
#
# Compressibility (1/GPa) = 0.03158153
#
# Stress axis : x y z
#
# Youngs Moduli (GPa) = 50.75312 60.77612 67.12335
#
# Poissons Ratio (x) = 0.02234 0.19438
# Poissons Ratio (y) = 0.01866 0.43450
# Poissons Ratio (z) = 0.14698 0.39342
#
# Static dielectric constant tensor:
#      x y z
#    x 1.619960 0.000000 0.275610 
#    y 0.000000 1.920880 0.000000 
#    z 0.275610 0.000000 1.236910 
# 
# From -- ./inp_files/265461.got.cif
#   From: 2010.05.17/outbox.cif.g08.bks.cpg/sg15_133_cif.got.tgz:265461.got - 2010.06.03 18:47:42.
