data_PCOD9265342
_publ_section_title
;
Structure prediction by ZEFSAII (Michael W. Deem and Ramdas Pophale) SiO2 
 PCOD9265342
Probable space group: C 2/C
;
_chemical_formula_sum "Si O2"
_cell_formula_units_Z 48
_cell_length_a 5.104296
_cell_length_b 33.826397
_cell_length_c 15.408699
_cell_angle_alpha 90.000000
_cell_angle_beta 112.201216
_cell_angle_gamma 90.000000
_cell_volume 2463.225034
_symmetry_space_group_name_H-M "C 2/C"
_symmetry_group_IT_number 15
_symmetry_cell_setting 'monoclinic'
loop_
_space_group_symop_operation_xyz
x,y,z
-x,y,1/2-z
-x,-y,-z
x,-y,1/2+z
1/2+x,1/2+y,z
1/2-x,1/2+y,1/2-z
1/2-x,1/2-y,-z
1/2+x,1/2-y,1/2+z
loop_
_atom_site_type_symbol
_atom_site_label
_atom_site_fract_x
_atom_site_fract_y
_atom_site_fract_z
Si Si1 0.745400 0.031806 0.049347
Si Si2 0.000000 0.792881 0.250000
Si Si3 0.000000 0.589129 0.250000
Si Si4 0.737989 0.706214 0.457197
Si Si5 0.500000 0.264239 0.750000
Si Si6 0.246582 0.086517 0.042429
Si Si7 0.652955 0.666205 0.949194
Si Si8 0.000000 0.967057 0.750000
O O1 0.542489 0.068604 0.046824
O O2 0.005762 0.052269 0.027767
O O3 0.909141 0.011907 0.151273
O O4 0.500000 0.000000 0.000000
O O5 0.262732 0.764215 0.261770
O O6 0.052986 0.818967 0.342386
O O7 0.165122 0.607319 0.353594
O O8 0.239172 0.560700 0.241403
O O9 0.750000 0.750000 0.500000
O O10 0.627561 0.710380 0.345003
O O11 0.538775 0.682821 0.497652
O O12 0.038960 0.684925 0.497320
O O13 0.151143 0.119281 0.962498
#
# Coordination Sequence:
#
# PCOD9265342 Si02
#       8
#     8   4   4   8   4   8   8   4
#     4  10  19  36  60  85 118 154 197 239 295 355
#     4  12  22  40  62  84 116 173 196 245 308 382
#     4   8  16  32  53  74 115 146 183 228 295 351
#     4  12  23  41  60  90 115 157 207 260 294 368
#     4  12  24  38  65  88 119 151 214 253 308 359
#     4  10  21  36  57  88 117 155 194 247 298 363
#     4  12  24  40  63  86 125 160 206 252 313 359
#     4   8  16  30  52  82 106 148 185 222 285 350
#
# _framework density 19.486650000000001
#
# number of rings (size 3 to 8) (size 9 to 14) (size 15 to 20)
#    0.000    1.333    3.333    3.000    0.000    1.333 
#    0.000    2.500    0.000    2.000    0.000    0.000 
#    0.000    0.000    0.000    0.000    0.000    0.000 
#
# Total GULP energy -133621.267805 kJ/mol
# GULP energy per Si atom -5567.552825 kJ/mol
# Density = 1.944230 g / cm^3
# Si number density = 19.486650 Si / 1000 Ang^3
#
#
#
# Elastic Constant Matrix: (Units=GPa)
#
#
# Indices 1 2 3 4 5 6 
#
# 1 141.9239 6.3045 17.8518 0.0000 4.3403 0.0000
# 2 6.3045 32.5704 28.3844 0.0000 3.6203 0.0000
# 3 17.8518 28.3844 143.6994 0.0000 7.3062 0.0000
# 4 0.0000 0.0000 0.0000 29.5465 0.0000 14.7099
# 5 4.3403 3.6203 7.3062 0.0000 28.6711 0.0000
# 6 0.0000 0.0000 0.0000 14.7099 0.0000 36.1696
#
#
#
# Elastic Compliance Matrix: (Units=1/GPa)
#
#
# Indices 1 2 3 4 5 6 
#
# 1 0.007191 -0.000675 -0.000718 0.000000 -0.000820 0.000000
# 2 -0.000675 0.037382 -0.007158 0.000000 -0.002794 0.000000
# 3 -0.000718 -0.007158 0.008521 0.000000 -0.001159 0.000000
# 4 0.000000 0.000000 0.000000 0.042438 0.000000 -0.017259
# 5 -0.000820 -0.002794 -0.001159 0.000000 0.035651 0.000000
# 6 0.000000 0.000000 0.000000 -0.017259 0.000000 0.034667
#
#
# Mechanical properties :
#
#
# Convention : Reuss Voigt Hill
#
# Bulk Modulus (GPa) = 27.78391 47.03058 37.40724
# Shear Modulus (GPa) = 25.64775 36.58765 31.11770
#
# Velocity S-wave (km/s) = 3.63184 4.33780 4.00042
# Velocity P-wave (km/s) = 5.64587 7.01968 6.36992
#
# Compressibility (1/GPa) = 0.03599206
#
# Stress axis : x y z
#
# Youngs Moduli (GPa) = 139.05388 26.75087 117.35669
#
# Poissons Ratio (x) = 0.01805 0.08431
# Poissons Ratio (y) = 0.09383 0.84004
# Poissons Ratio (z) = 0.09990 0.19148
#
# Static dielectric constant tensor:
#      x y z
#    x 1.684970 0.000000 -0.015080 
#    y 0.000000 1.691940 0.000000 
#    z -0.015080 0.000000 1.768030 
# 
# From -- ./inp_files/130399.got.cif
#   From: 2010.05.17/outbox.cif.g08.bks.cpg/sg15_66_cif.got.tgz:130399.got - 2010.06.03 18:47:42.
