data_PCOD9265830
_publ_section_title
;
Structure prediction by ZEFSAII (Michael W. Deem and Ramdas Pophale) SiO2 
 PCOD9265830
Probable space group: C 2/C
;
_chemical_formula_sum "Si O2"
_cell_formula_units_Z 56
_cell_length_a 15.643971
_cell_length_b 18.563187
_cell_length_c 11.881421
_cell_angle_alpha 90.000000
_cell_angle_beta 59.741426
_cell_angle_gamma 90.000000
_cell_volume 2980.307457
_symmetry_space_group_name_H-M "C 2/C"
_symmetry_group_IT_number 15
_symmetry_cell_setting 'monoclinic'
loop_
_space_group_symop_operation_xyz
x,y,z
-x,y,1/2-z
-x,-y,-z
x,-y,1/2+z
1/2+x,1/2+y,z
1/2-x,1/2+y,1/2-z
1/2-x,1/2-y,-z
1/2+x,1/2-y,1/2+z
loop_
_atom_site_type_symbol
_atom_site_label
_atom_site_fract_x
_atom_site_fract_y
_atom_site_fract_z
Si Si1 0.771405 0.436320 0.724551
Si Si2 0.632868 0.833496 0.265427
Si Si3 0.581814 0.108844 0.560564
Si Si4 0.202747 0.793637 0.855724
Si Si5 0.239434 0.084593 0.644130
Si Si6 0.615194 0.716538 0.657052
Si Si7 0.398246 0.049278 0.355592
O O1 0.846349 0.393539 0.592945
O O2 0.700373 0.377285 0.826545
O O3 0.723047 0.500932 0.685236
O O4 0.836354 0.467177 0.784295
O O5 0.526014 0.857441 0.385109
O O6 0.628296 0.850045 0.136510
O O7 0.659624 0.752700 0.282079
O O8 0.714611 0.880264 0.275014
O O9 0.570178 0.025173 0.605077
O O10 0.314464 0.768613 0.814846
O O11 0.142851 0.774155 0.007958
O O12 0.149561 0.135022 0.666067
O O13 0.324442 0.088329 0.491020
O O14 0.500000 0.727773 0.750000
O O15 0.500000 0.087149 0.250000
#
# Coordination Sequence:
#
# PCOD9265830 Si02
#       7
#     8   8   8   8   8   8   8
#     4  11  21  34  57  88 118 150 193 241 286 338
#     4  10  19  37  52  83 123 153 191 225 291 350
#     4  10  20  33  56  84 119 160 184 230 291 352
#     4  10  23  38  60  88 117 148 196 241 282 349
#     4  10  20  36  59  83 118 153 192 240 285 345
#     4  10  22  42  62  84 113 156 193 239 290 337
#     4  11  18  31  55  90 121 146 186 238 293 346
#
# _framework density 18.790008
#
# number of rings (size 3 to 8) (size 9 to 14) (size 15 to 20)
#    0.000    1.714    4.286    0.857    2.000    3.429 
#    0.000    0.714    3.143    0.000    0.000    0.000 
#    0.000    0.000    0.000    0.000    0.000    0.000 
#
# Total GULP energy -156281.847602 kJ/mol
# GULP energy per Si atom -5581.494557 kJ/mol
# Density = 1.874724 g / cm^3
# Si number density = 18.790008 Si / 1000 Ang^3
#
#
#
# Elastic Constant Matrix: (Units=GPa)
#
#
# Indices 1 2 3 4 5 6 
#
# 1 58.3180 16.2817 17.9681 0.0000 -11.2887 0.0000
# 2 16.2817 73.1533 4.0867 0.0000 -2.3714 0.0000
# 3 17.9681 4.0867 49.7986 0.0000 -1.9617 0.0000
# 4 0.0000 0.0000 0.0000 22.6674 0.0000 2.9159
# 5 -11.2887 -2.3714 -1.9617 0.0000 21.8210 0.0000
# 6 0.0000 0.0000 0.0000 2.9159 0.0000 12.0353
#
#
#
# Elastic Compliance Matrix: (Units=1/GPa)
#
#
# Indices 1 2 3 4 5 6 
#
# 1 0.022682 -0.004290 -0.007414 0.000000 0.010601 0.000000
# 2 -0.004290 0.014587 0.000327 0.000000 -0.000605 0.000000
# 3 -0.007414 0.000327 0.022660 0.000000 -0.001763 0.000000
# 4 0.000000 0.000000 0.000000 0.045535 0.000000 -0.011032
# 5 0.010601 -0.000605 -0.001763 0.000000 0.051087 0.000000
# 6 0.000000 0.000000 0.000000 -0.011032 0.000000 0.085762
#
#
# Mechanical properties :
#
#
# Convention : Reuss Voigt Hill
#
# Bulk Modulus (GPa) = 26.90094 28.66034 27.78064
# Shear Modulus (GPa) = 18.02069 20.83363 19.42716
#
# Velocity S-wave (km/s) = 3.10022 3.33342 3.21893
# Velocity P-wave (km/s) = 5.21180 5.48650 5.35091
#
# Compressibility (1/GPa) = 0.03717342
#
# Stress axis : x y z
#
# Youngs Moduli (GPa) = 44.08856 68.55442 44.13115
#
# Poissons Ratio (x) = 0.29413 0.32720
# Poissons Ratio (y) = 0.18916 -0.01444
# Poissons Ratio (z) = 0.32688 -0.02243
#
# Static dielectric constant tensor:
#      x y z
#    x 1.628840 0.000000 0.003150 
#    y 0.000000 1.700050 0.000000 
#    z 0.003150 0.000000 1.665550 
# 
# From -- ./inp_files/98372.got.cif
#   From: 2010.05.17/outbox.cif.g08.bks.cpg/sg15_50_cif.got.tgz:98372.got - 2010.06.03 18:47:42.
