data_PCOD9265355
_publ_section_title
;
Structure prediction by ZEFSAII (Michael W. Deem and Ramdas Pophale) SiO2 
 PCOD9265355
Probable space group: C 2/C
;
_chemical_formula_sum "Si O2"
_cell_formula_units_Z 60
_cell_length_a 17.746439
_cell_length_b 16.500787
_cell_length_c 10.785664
_cell_angle_alpha 90.000000
_cell_angle_beta 79.430916
_cell_angle_gamma 90.000000
_cell_volume 3104.784842
_symmetry_space_group_name_H-M "C 2/C"
_symmetry_group_IT_number 15
_symmetry_cell_setting 'monoclinic'
loop_
_space_group_symop_operation_xyz
x,y,z
-x,y,1/2-z
-x,-y,-z
x,-y,1/2+z
1/2+x,1/2+y,z
1/2-x,1/2+y,1/2-z
1/2-x,1/2-y,-z
1/2+x,1/2-y,1/2+z
loop_
_atom_site_type_symbol
_atom_site_label
_atom_site_fract_x
_atom_site_fract_y
_atom_site_fract_z
Si Si1 0.697039 0.764739 0.398236
Si Si2 0.584403 0.097769 0.908955
Si Si3 0.050866 0.008351 0.109606
Si Si4 0.571598 0.318966 0.520516
Si Si5 0.085046 0.166584 0.574108
Si Si6 0.344198 0.237948 0.212663
Si Si7 0.000000 0.296115 0.250000
Si Si8 0.550821 0.916660 0.856969
O O1 0.750000 0.750000 0.500000
O O2 0.628205 0.701691 0.440289
O O3 0.611140 0.718617 0.685067
O O4 0.754000 0.744688 0.269541
O O5 0.561974 0.144099 0.790630
O O6 0.587125 0.001511 0.890788
O O7 0.661124 0.145579 0.922393
O O8 0.512826 0.112862 0.023971
O O9 0.101864 0.927455 0.096499
O O10 0.000000 0.009348 0.250000
O O11 0.089507 0.095172 0.078456
O O12 0.000000 0.000000 0.000000
O O13 0.503857 0.327604 0.436943
O O14 0.640132 0.283113 0.420589
O O15 0.539603 0.259594 0.635161
O O16 0.384265 0.150154 0.187986
O O17 0.500000 0.931941 0.750000
#
# Coordination Sequence:
#
# PCOD9265355 Si02
#       8
#     8   8   8   8   8   8   4   8
#     4  10  21  39  61  86 122 166 199 249 320 384
#     4  11  23  39  62  93 124 156 211 266 318 365
#     4  10  20  32  54  87 114 148 200 255 303 352
#     4  11  20  35  59  85 119 161 201 254 305 371
#     4  10  19  36  60  86 118 155 206 261 293 360
#     4  11  21  37  62  91 122 161 212 250 320 385
#     4  12  20  38  62  84 124 160 200 260 328 354
#     4  11  21  37  66  97 118 156 216 276 305 359
#
# _framework density 19.325009999999999
#
# number of rings (size 3 to 8) (size 9 to 14) (size 15 to 20)
#    0.000    1.333    4.000    4.400    0.000    0.000 
#    2.400    0.667    2.933    0.000    0.000    0.000 
#    0.000    0.000    0.000    0.000    0.000    0.000 
#
# Total GULP energy -167295.375276 kJ/mol
# GULP energy per Si atom -5576.512509 kJ/mol
# Density = 1.928102 g / cm^3
# Si number density = 19.325010 Si / 1000 Ang^3
#
#
#
# Elastic Constant Matrix: (Units=GPa)
#
#
# Indices 1 2 3 4 5 6 
#
# 1 46.1800 40.9536 22.4071 0.0000 -17.2529 0.0000
# 2 40.9536 155.8625 59.9752 0.0000 -25.5190 0.0000
# 3 22.4071 59.9752 125.3479 0.0000 -29.8267 0.0000
# 4 0.0000 0.0000 0.0000 30.1145 0.0000 3.2205
# 5 -17.2529 -25.5190 -29.8267 0.0000 40.9401 0.0000
# 6 0.0000 0.0000 0.0000 3.2205 0.0000 23.1948
#
#
#
# Elastic Compliance Matrix: (Units=1/GPa)
#
#
# Indices 1 2 3 4 5 6 
#
# 1 0.030880 -0.006572 -0.000307 0.000000 0.008693 0.000000
# 2 -0.006572 0.009501 -0.003170 0.000000 0.000843 0.000000
# 3 -0.000307 -0.003170 0.010946 0.000000 0.005869 0.000000
# 4 0.000000 0.000000 0.000000 0.033707 0.000000 -0.004680
# 5 0.008693 0.000843 0.005869 0.000000 0.032890 0.000000
# 6 0.000000 0.000000 0.000000 -0.004680 0.000000 0.043763
#
#
# Mechanical properties :
#
#
# Convention : Reuss Voigt Hill
#
# Bulk Modulus (GPa) = 32.02346 63.78469 47.90408
# Shear Modulus (GPa) = 26.01519 32.45351 29.23435
#
# Velocity S-wave (km/s) = 3.67303 4.10244 3.89366
# Velocity P-wave (km/s) = 5.88177 7.45104 6.71242
#
# Compressibility (1/GPa) = 0.03122710
#
# Stress axis : x y z
#
# Youngs Moduli (GPa) = 32.38393 105.25456 91.35569
#
# Poissons Ratio (x) = 0.69178 0.02803
# Poissons Ratio (y) = 0.21284 0.28964
# Poissons Ratio (z) = 0.00994 0.33371
#
# Static dielectric constant tensor:
#      x y z
#    x 3.276030 0.000000 1.261890 
#    y 0.000000 1.709490 0.000000 
#    z 1.261890 0.000000 2.816760 
# 
# From -- ./inp_files/118521.got.cif
#   From: 2010.05.17/outbox.cif.g08.bks.cpg/sg15_60_cif.got.tgz:118521.got - 2010.06.03 18:47:42.
