data_PCOD9265751
_publ_section_title
;
Structure prediction by ZEFSAII (Michael W. Deem and Ramdas Pophale) SiO2 
 PCOD9265751
Probable space group: C 2/C
;
_chemical_formula_sum "Si O2"
_cell_formula_units_Z 52
_cell_length_a 20.657169
_cell_length_b 7.602881
_cell_length_c 24.425209
_cell_angle_alpha 90.000000
_cell_angle_beta 141.016641
_cell_angle_gamma 90.000000
_cell_volume 2413.255341
_symmetry_space_group_name_H-M "C 2/C"
_symmetry_group_IT_number 15
_symmetry_cell_setting 'monoclinic'
loop_
_space_group_symop_operation_xyz
x,y,z
-x,y,1/2-z
-x,-y,-z
x,-y,1/2+z
1/2+x,1/2+y,z
1/2-x,1/2+y,1/2-z
1/2-x,1/2-y,-z
1/2+x,1/2-y,1/2+z
loop_
_atom_site_type_symbol
_atom_site_label
_atom_site_fract_x
_atom_site_fract_y
_atom_site_fract_z
Si Si1 0.119089 0.921172 0.940353
Si Si2 0.081004 0.235010 0.590178
Si Si3 0.000000 0.609177 0.250000
Si Si4 0.189813 0.186083 0.277709
Si Si5 0.059462 0.183679 0.094739
Si Si6 0.939198 0.171583 0.804191
Si Si7 0.837546 0.647684 0.625132
O O1 0.146577 0.814518 0.903727
O O2 0.038501 0.825782 0.928366
O O3 0.225938 0.936770 0.042450
O O4 0.055102 0.093151 0.882105
O O5 0.187535 0.310465 0.638320
O O6 0.071932 0.282744 0.647854
O O7 0.983068 0.276129 0.487619
O O8 0.086717 0.018967 0.595808
O O9 0.928606 0.721521 0.242349
O O10 0.925448 0.487129 0.166130
O O11 0.151398 0.255988 0.192947
O O12 0.149656 0.295490 0.303358
O O13 0.138861 0.992941 0.247334
#
# Coordination Sequence:
#
# PCOD9265751 Si02
#       7
#     8   8   4   8   8   8   8
#     4   9  19  39  62  88 112 162 201 248 298 356
#     4   9  18  36  58  88 113 158 193 244 299 357
#     4  12  24  38  56  92 124 160 194 252 304 352
#     4  10  19  36  65  90 112 159 206 246 295 363
#     4   9  18  34  61  86 119 145 199 252 296 348
#     4  10  23  39  58  86 129 157 195 250 305 357
#     4  11  21  35  66  88 116 156 210 247 293 363
#
# _framework density 21.547657999999998
#
# number of rings (size 3 to 8) (size 9 to 14) (size 15 to 20)
#    0.000    2.462    1.538    2.769    0.000    3.077 
#    0.000    0.000    6.769    5.538    0.000    0.000 
#    0.000    0.000    0.000    0.000    0.000    0.000 
#
# Total GULP energy -145058.608943 kJ/mol
# GULP energy per Si atom -5579.177267 kJ/mol
# Density = 2.149861 g / cm^3
# Si number density = 21.547658 Si / 1000 Ang^3
#
#
#
# Elastic Constant Matrix: (Units=GPa)
#
#
# Indices 1 2 3 4 5 6 
#
# 1 47.7856 9.7181 12.1425 0.0000 -8.7625 0.0000
# 2 9.7181 22.3042 19.9567 -0.0001 -8.8843 -0.0001
# 3 12.1425 19.9567 104.7867 0.0000 -7.7337 0.0000
# 4 0.0000 -0.0001 0.0000 -5.6155 0.0000 -1.8283
# 5 -8.7625 -8.8843 -7.7337 0.0000 31.5590 0.0000
# 6 0.0000 -0.0001 0.0000 -1.8283 0.0000 8.5679
#
#
#
# Elastic Compliance Matrix: (Units=1/GPa)
#
#
# Indices 1 2 3 4 5 6 
#
# 1 0.023497 -0.007758 -0.000942 0.000000 0.004109 0.000000
# 2 -0.007758 0.062331 -0.010017 -0.000001 0.012938 0.000000
# 3 -0.000942 -0.010017 0.011541 0.000000 -0.000253 0.000000
# 4 0.000000 -0.000001 0.000000 -0.166510 0.000000 -0.035532
# 5 0.004109 0.012938 -0.000253 0.000000 0.036408 0.000000
# 6 0.000000 0.000000 0.000000 -0.035532 0.000000 0.109133
#
#
# Mechanical properties :
#
#
# Convention : Reuss Voigt Hill
#
# Bulk Modulus (GPa) = 16.68465 28.72348 22.70407
# Shear Modulus (GPa) = 37.36509 15.77289 26.56899
#
# Velocity S-wave (km/s) = 4.16873 2.70849 3.51527
# Velocity P-wave (km/s) = 5.56157 4.81044 5.19959
#
# Compressibility (1/GPa) = 0.05993532
#
# Stress axis : x y z
#
# Youngs Moduli (GPa) = 42.55774 16.04328 86.64434
#
# Poissons Ratio (x) = 0.12447 0.08162
# Poissons Ratio (y) = 0.33018 0.86793
# Poissons Ratio (z) = 0.04009 0.16071
#
# Static dielectric constant tensor:
#      x y z
#    x 1.771090 0.000000 -0.035600 
#    y 0.000000 1.807710 0.000000 
#    z -0.035600 0.000000 1.821930 
# 
# From -- ./inp_files/279619.got.cif
#   From: 2010.05.17/outbox.cif.g08.bks.cpg/sg15_140_cif.got.tgz:279619.got - 2010.06.03 18:47:42.
