data_PCOD9265123
_publ_section_title
;
Structure prediction by ZEFSAII (Michael W. Deem and Ramdas Pophale) SiO2 
 PCOD9265123
Probable space group: C 2/C
;
_chemical_formula_sum "Si O2"
_cell_formula_units_Z 52
_cell_length_a 11.415188
_cell_length_b 7.878377
_cell_length_c 27.550049
_cell_angle_alpha 90.000000
_cell_angle_beta 96.222496
_cell_angle_gamma 90.000000
_cell_volume 2463.065625
_symmetry_space_group_name_H-M "C 2/C"
_symmetry_group_IT_number 15
_symmetry_cell_setting 'monoclinic'
loop_
_space_group_symop_operation_xyz
x,y,z
-x,y,1/2-z
-x,-y,-z
x,-y,1/2+z
1/2+x,1/2+y,z
1/2-x,1/2+y,1/2-z
1/2-x,1/2-y,-z
1/2+x,1/2-y,1/2+z
loop_
_atom_site_type_symbol
_atom_site_label
_atom_site_fract_x
_atom_site_fract_y
_atom_site_fract_z
Si Si1 0.885116 0.156874 0.709654
Si Si2 0.449333 0.157868 0.340369
Si Si3 0.771693 0.799033 0.719765
Si Si4 0.444344 0.264193 0.499674
Si Si5 0.500000 0.078577 0.750000
Si Si6 0.328951 0.394997 0.031616
Si Si7 0.610237 0.046369 0.567835
O O1 0.059899 0.218637 0.838236
O O2 0.813908 0.984149 0.706563
O O3 0.796423 0.289009 0.731612
O O4 0.000000 0.133710 0.750000
O O5 0.326836 0.255954 0.323866
O O6 0.466109 0.031947 0.295278
O O7 0.437660 0.046326 0.387255
O O8 0.887827 0.688574 0.729797
O O9 0.538489 0.323849 0.463075
O O10 0.357037 0.419066 0.508453
O O11 0.526200 0.203054 0.548627
O O12 0.391081 0.091229 0.476209
O O13 0.249177 0.412689 0.075920
O O14 0.250000 0.250000 0.000000
#
# Coordination Sequence:
#
# PCOD9265123 Si02
#       7
#     8   8   8   8   4   8   8
#     4  10  19  36  58  82 109 150 199 242 296 350
#     4  11  23  38  56  88 122 152 206 249 291 362
#     4  11  20  37  62  78 111 159 198 246 300 347
#     4   9  19  38  62  85 120 156 191 242 302 361
#     4  12  22  38  60  82 116 164 196 246 306 348
#     4   9  18  36  62  86 114 154 196 237 296 360
#     4  10  21  36  59  89 119 155 194 246 300 356
#
# _framework density 21.111903000000002
#
# number of rings (size 3 to 8) (size 9 to 14) (size 15 to 20)
#    0.000    1.846    4.615    0.462    0.000    2.462 
#    0.000    3.077    0.000    0.000    0.000    0.000 
#    0.000    0.000    0.000    0.000    0.000    0.000 
#
# Total GULP energy -144782.688789 kJ/mol
# GULP energy per Si atom -5568.564953 kJ/mol
# Density = 2.106385 g / cm^3
# Si number density = 21.111903 Si / 1000 Ang^3
#
#
#
# Elastic Constant Matrix: (Units=GPa)
#
#
# Indices 1 2 3 4 5 6 
#
# 1 120.1181 46.1531 27.2372 0.0000 -21.0977 0.0000
# 2 46.1531 102.0203 14.8394 0.0000 -6.8758 0.0000
# 3 27.2372 14.8394 45.9670 0.0000 -5.3853 0.0000
# 4 0.0000 0.0000 0.0000 10.4480 0.0000 -10.1844
# 5 -21.0977 -6.8758 -5.3853 0.0000 21.0398 0.0000
# 6 0.0000 0.0000 0.0000 -10.1844 0.0000 44.9230
#
#
#
# Elastic Compliance Matrix: (Units=1/GPa)
#
#
# Indices 1 2 3 4 5 6 
#
# 1 0.012984 -0.004446 -0.005055 0.000000 0.010273 0.000000
# 2 -0.004446 0.011946 -0.001327 0.000000 -0.000894 0.000000
# 3 -0.005055 -0.001327 0.025292 0.000000 0.000972 0.000000
# 4 0.000000 0.000000 0.000000 0.122864 0.000000 0.027854
# 5 0.010273 -0.000894 0.000972 0.000000 0.057787 0.000000
# 6 0.000000 0.000000 0.000000 0.027854 0.000000 0.028575
#
#
# Mechanical properties :
#
#
# Convention : Reuss Voigt Hill
#
# Bulk Modulus (GPa) = 35.00557 49.39611 42.20084
# Shear Modulus (GPa) = 17.20430 27.27387 22.23909
#
# Velocity S-wave (km/s) = 2.85776 3.59816 3.24912
# Velocity P-wave (km/s) = 5.24462 6.38047 5.84022
#
# Compressibility (1/GPa) = 0.02856688
#
# Stress axis : x y z
#
# Youngs Moduli (GPa) = 77.01764 83.70897 39.53835
#
# Poissons Ratio (x) = 0.37219 0.19985
# Poissons Ratio (y) = 0.34244 0.05246
# Poissons Ratio (z) = 0.38929 0.11106
#
# Static dielectric constant tensor:
#      x y z
#    x 1.820620 0.000000 0.001310 
#    y 0.000000 1.804010 0.000000 
#    z 0.001310 0.000000 1.760590 
# 
# From -- ./inp_files/291118.got.cif
#   From: 2010.05.17/outbox.cif.g08.bks.cpg/sg15_146_cif.got.tgz:291118.got - 2010.06.03 18:47:42.
