data_PCOD9265940
_publ_section_title
;
Structure prediction by ZEFSAII (Michael W. Deem and Ramdas Pophale) SiO2 
 PCOD9265940
Probable space group: C 2/C
;
_chemical_formula_sum "Si O2"
_cell_formula_units_Z 60
_cell_length_a 7.232136
_cell_length_b 12.675567
_cell_length_c 26.385326
_cell_angle_alpha 90.000000
_cell_angle_beta 99.099241
_cell_angle_gamma 90.000000
_cell_volume 2388.342248
_symmetry_space_group_name_H-M "C 2/C"
_symmetry_group_IT_number 15
_symmetry_cell_setting 'monoclinic'
loop_
_space_group_symop_operation_xyz
x,y,z
-x,y,1/2-z
-x,-y,-z
x,-y,1/2+z
1/2+x,1/2+y,z
1/2-x,1/2+y,1/2-z
1/2-x,1/2-y,-z
1/2+x,1/2-y,1/2+z
loop_
_atom_site_type_symbol
_atom_site_label
_atom_site_fract_x
_atom_site_fract_y
_atom_site_fract_z
Si Si1 0.295940 0.809215 0.180234
Si Si2 0.129698 0.685733 0.441954
Si Si3 0.168234 0.356844 0.425834
Si Si4 0.500000 0.091168 0.250000
Si Si5 0.540635 0.316988 0.983325
Si Si6 0.731846 0.391559 0.388083
Si Si7 0.132874 0.582583 0.148996
Si Si8 0.739196 0.215162 0.713982
O O1 0.252761 0.872777 0.127316
O O2 0.208572 0.695090 0.168557
O O3 0.228077 0.847398 0.232090
O O4 0.517316 0.786241 0.194544
O O5 0.336032 0.640818 0.461545
O O6 0.011856 0.708719 0.487324
O O7 0.149142 0.807700 0.423647
O O8 0.031904 0.612814 0.396928
O O9 0.318662 0.384942 0.475994
O O10 0.136438 0.231522 0.437425
O O11 0.954615 0.394827 0.411710
O O12 0.560329 0.033250 0.199937
O O13 0.668411 0.169888 0.274624
O O14 0.710079 0.514062 0.373421
O O15 0.682505 0.335905 0.333027
#
# Coordination Sequence:
#
# PCOD9265940 Si02
#       8
#     8   8   8   4   8   8   8   8
#     4   9  18  33  59  78 116 150 186 229 298 341
#     4  10  19  37  58  83 114 153 193 244 291 343
#     4   9  17  34  57  83 108 153 193 238 291 349
#     4  10  20  36  60  82 118 154 188 228 298 354
#     4   9  18  33  60  79 108 157 199 233 298 350
#     4  10  21  36  59  86 116 146 197 236 292 354
#     4  11  21  36  59  88 117 155 189 243 292 356
#     4   9  18  35  56  83 110 155 183 233 289 353
#
# _framework density 25.122028
#
# number of rings (size 3 to 8) (size 9 to 14) (size 15 to 20)
#    0.000    2.400    2.667    0.000    0.000    2.133 
#    0.000   10.667    0.000    0.000    0.000    0.000 
#    0.000    0.000    0.000    0.000    0.000    0.000 
#
# Total GULP energy -167245.846276 kJ/mol
# GULP energy per Si atom -5574.861543 kJ/mol
# Density = 2.506485 g / cm^3
# Si number density = 25.122028 Si / 1000 Ang^3
#
#
#
# Elastic Constant Matrix: (Units=GPa)
#
#
# Indices 1 2 3 4 5 6 
#
# 1 63.0762 6.6452 19.5995 0.0000 25.2491 0.0000
# 2 6.6452 68.2551 25.6144 0.0000 5.8129 0.0000
# 3 19.5995 25.6144 138.0738 0.0000 11.8106 0.0000
# 4 0.0000 0.0000 0.0000 8.7208 0.0000 -1.5564
# 5 25.2491 5.8129 11.8106 0.0000 50.5506 0.0000
# 6 0.0000 0.0000 0.0000 -1.5564 0.0000 16.3937
#
#
#
# Elastic Compliance Matrix: (Units=1/GPa)
#
#
# Indices 1 2 3 4 5 6 
#
# 1 0.020387 -0.000415 -0.001990 0.000000 -0.009670 0.000000
# 2 -0.000415 0.015822 -0.002794 0.000000 -0.000959 0.000000
# 3 -0.001990 -0.002794 0.008093 0.000000 -0.000576 0.000000
# 4 0.000000 0.000000 0.000000 0.116645 0.000000 0.011074
# 5 -0.009670 -0.000959 -0.000576 0.000000 0.024857 0.000000
# 6 0.000000 0.000000 0.000000 0.011074 0.000000 0.062050
#
#
# Mechanical properties :
#
#
# Convention : Reuss Voigt Hill
#
# Bulk Modulus (GPa) = 29.49523 41.45816 35.47670
# Shear Modulus (GPa) = 18.54933 29.63609 24.09271
#
# Velocity S-wave (km/s) = 2.72024 3.43838 3.10018
# Velocity P-wave (km/s) = 4.65108 5.68347 5.19299
#
# Compressibility (1/GPa) = 0.03390378
#
# Stress axis : x y z
#
# Youngs Moduli (GPa) = 49.05148 63.20487 123.57051
#
# Poissons Ratio (x) = 0.02620 0.24588
# Poissons Ratio (y) = 0.02033 0.34528
# Poissons Ratio (z) = 0.09760 0.17661
#
# Static dielectric constant tensor:
#      x y z
#    x 2.046760 0.000000 -0.040430 
#    y 0.000000 1.967930 0.000000 
#    z -0.040430 0.000000 2.073980 
# 
# From -- ./inp_files/288411.got.cif
#   From: 2010.05.17/outbox.cif.g08.bks.cpg/sg15_145_cif.got.tgz:288411.got - 2010.06.03 18:47:42.
