data_PCOD9265762
_publ_section_title
;
Structure prediction by ZEFSAII (Michael W. Deem and Ramdas Pophale) SiO2 
 PCOD9265762
Probable space group: C 2/C
;
_chemical_formula_sum "Si O2"
_cell_formula_units_Z 56
_cell_length_a 21.050819
_cell_length_b 8.643777
_cell_length_c 14.562007
_cell_angle_alpha 90.000000
_cell_angle_beta 63.062997
_cell_angle_gamma 90.000000
_cell_volume 2362.205319
_symmetry_space_group_name_H-M "C 2/C"
_symmetry_group_IT_number 15
_symmetry_cell_setting 'monoclinic'
loop_
_space_group_symop_operation_xyz
x,y,z
-x,y,1/2-z
-x,-y,-z
x,-y,1/2+z
1/2+x,1/2+y,z
1/2-x,1/2+y,1/2-z
1/2-x,1/2-y,-z
1/2+x,1/2-y,1/2+z
loop_
_atom_site_type_symbol
_atom_site_label
_atom_site_fract_x
_atom_site_fract_y
_atom_site_fract_z
Si Si1 0.816442 0.883245 0.388192
Si Si2 0.301837 0.108131 0.998396
Si Si3 0.927091 0.665089 0.629148
Si Si4 0.174146 0.547163 0.203670
Si Si5 0.079818 0.227291 0.991371
Si Si6 0.339669 0.428068 0.591818
Si Si7 0.928784 0.113340 0.294809
O O1 0.828503 0.723436 0.329533
O O2 0.836846 0.890287 0.483526
O O3 0.738307 0.954688 0.441345
O O4 0.862662 0.013453 0.308515
O O5 0.352388 0.161234 0.047041
O O6 0.337939 0.055187 0.880187
O O7 0.250000 0.250000 0.000000
O O8 0.887090 0.507960 0.685940
O O9 0.869127 0.773773 0.618340
O O10 0.942207 0.751387 0.715209
O O11 0.003568 0.688369 0.526291
O O12 0.258598 0.525190 0.173310
O O13 0.082182 0.172668 0.096179
O O14 0.104160 0.068759 0.925670
O O15 0.000000 0.010200 0.250000
#
# Coordination Sequence:
#
# PCOD9265762 Si02
#       7
#     8   8   8   8   8   8   8
#     4  10  21  38  64  91 127 172 226 266 311 400
#     4  11  16  34  65  94 115 166 230 259 305 389
#     4  11  22  37  63 100 134 164 217 279 337 383
#     4  11  22  38  63  95 125 174 221 272 324 386
#     4  10  19  36  65  97 125 174 220 266 323 399
#     4  10  21  38  63  96 130 173 213 271 336 395
#     4   9  18  35  58  89 124 170 215 262 321 386
#
# _framework density 23.706661
#
# number of rings (size 3 to 8) (size 9 to 14) (size 15 to 20)
#    0.000    1.714    5.714    2.143    0.000    1.143 
#    2.571    1.429    6.286    3.429    0.000    0.000 
#    0.000    0.000    0.000    0.000    0.000    0.000 
#
# Total GULP energy -156148.078675 kJ/mol
# GULP energy per Si atom -5576.717096 kJ/mol
# Density = 2.365270 g / cm^3
# Si number density = 23.706661 Si / 1000 Ang^3
#
#
#
# Elastic Constant Matrix: (Units=GPa)
#
#
# Indices 1 2 3 4 5 6 
#
# 1 72.2209 35.3885 29.0250 0.0000 -21.7079 0.0000
# 2 35.3885 103.5679 32.5016 0.0000 -10.9399 0.0000
# 3 29.0250 32.5016 55.0680 0.0000 -11.2178 0.0000
# 4 0.0000 0.0000 0.0000 33.9792 0.0000 3.2993
# 5 -21.7079 -10.9399 -11.2178 0.0000 31.8756 0.0000
# 6 0.0000 0.0000 0.0000 3.2993 0.0000 21.9787
#
#
#
# Elastic Compliance Matrix: (Units=1/GPa)
#
#
# Indices 1 2 3 4 5 6 
#
# 1 0.022001 -0.004190 -0.006855 0.000000 0.011132 0.000000
# 2 -0.004190 0.012738 -0.005386 0.000000 -0.000378 0.000000
# 3 -0.006855 -0.005386 0.025448 0.000000 0.002439 0.000000
# 4 0.000000 0.000000 0.000000 0.029865 0.000000 -0.004483
# 5 0.011132 -0.000378 0.002439 0.000000 0.039682 0.000000
# 6 0.000000 0.000000 0.000000 -0.004483 0.000000 0.046172
#
#
# Mechanical properties :
#
#
# Convention : Reuss Voigt Hill
#
# Bulk Modulus (GPa) = 36.59860 47.18744 41.89302
# Shear Modulus (GPa) = 22.94874 26.49615 24.72245
#
# Velocity S-wave (km/s) = 3.11469 3.34678 3.23282
# Velocity P-wave (km/s) = 5.32979 5.90614 5.62535
#
# Compressibility (1/GPa) = 0.02732345
#
# Stress axis : x y z
#
# Youngs Moduli (GPa) = 45.45278 78.50703 39.29525
#
# Poissons Ratio (x) = 0.32897 0.26938
# Poissons Ratio (y) = 0.19046 0.21165
# Poissons Ratio (z) = 0.31159 0.42285
#
# Static dielectric constant tensor:
#      x y z
#    x 1.980080 0.000000 -0.069310 
#    y 0.000000 1.975780 0.000000 
#    z -0.069310 0.000000 1.979660 
# 
# From -- ./inp_files/213808.got.cif
#   From: 2010.05.17/outbox.cif.g08.bks.cpg/sg15_107_cif.got.tgz:213808.got - 2010.06.03 18:47:42.
