data_PCOD9265533
_publ_section_title
;
Structure prediction by ZEFSAII (Michael W. Deem and Ramdas Pophale) SiO2 
 PCOD9265533
Probable space group: C 2/C
;
_chemical_formula_sum "Si O2"
_cell_formula_units_Z 64
_cell_length_a 11.313478
_cell_length_b 28.131448
_cell_length_c 12.397357
_cell_angle_alpha 90.000000
_cell_angle_beta 113.559974
_cell_angle_gamma 90.000000
_cell_volume 3616.739013
_symmetry_space_group_name_H-M "C 2/C"
_symmetry_group_IT_number 15
_symmetry_cell_setting 'monoclinic'
loop_
_space_group_symop_operation_xyz
x,y,z
-x,y,1/2-z
-x,-y,-z
x,-y,1/2+z
1/2+x,1/2+y,z
1/2-x,1/2+y,1/2-z
1/2-x,1/2-y,-z
1/2+x,1/2-y,1/2+z
loop_
_atom_site_type_symbol
_atom_site_label
_atom_site_fract_x
_atom_site_fract_y
_atom_site_fract_z
Si Si1 0.947251 0.578289 0.893449
Si Si2 0.353943 0.727277 0.326445
Si Si3 0.184114 0.144360 0.028980
Si Si4 0.613274 0.938756 0.880244
Si Si5 0.304565 0.042786 0.638911
Si Si6 0.385492 0.624016 0.940866
Si Si7 0.265789 0.164885 0.817491
Si Si8 0.154828 0.790235 0.922220
O O1 0.851672 0.548045 0.780542
O O2 0.894047 0.631924 0.861405
O O3 0.086747 0.569824 0.892832
O O4 0.939275 0.563800 0.015706
O O5 0.298904 0.692432 0.396799
O O6 0.300423 0.780306 0.314596
O O7 0.325810 0.706102 0.198359
O O8 0.509072 0.727276 0.392359
O O9 0.289992 0.105252 0.098409
O O10 0.201802 0.155810 0.909680
O O11 0.039654 0.125734 0.997644
O O12 0.500000 0.937515 0.750000
O O13 0.688986 0.988200 0.892189
O O14 0.173239 0.071397 0.573954
O O15 0.328877 0.646781 0.810528
O O16 0.333412 0.659074 0.015244
O O17 0.250000 0.750000 0.000000
#
# Coordination Sequence:
#
# PCOD9265533 Si02
#       8
#     8   8   8   8   8   8   8   8
#     4   9  20  35  56  89 113 137 194 245 280 336
#     4  10  21  36  57  84 116 151 194 228 282 344
#     4  10  23  40  53  83 123 150 189 229 286 351
#     4  11  22  39  59  82 116 154 185 244 293 332
#     4  10  20  35  62  85 109 144 195 239 290 338
#     4  10  21  37  59  85 111 150 188 235 287 342
#     4  10  19  36  62  82 112 152 190 239 276 333
#     4  10  20  35  55  83 117 149 182 239 284 328
#
# _framework density 17.695498000000001
#
# number of rings (size 3 to 8) (size 9 to 14) (size 15 to 20)
#    0.000    2.000    2.500    1.125    1.750    2.500 
#    2.250    1.250    0.000    0.000    0.000    0.000 
#    0.000    0.000    0.000    0.000    0.000    0.000 
#
# Total GULP energy -178575.798162 kJ/mol
# GULP energy per Si atom -5580.493693 kJ/mol
# Density = 1.765522 g / cm^3
# Si number density = 17.695498 Si / 1000 Ang^3
#
#
#
# Elastic Constant Matrix: (Units=GPa)
#
#
# Indices 1 2 3 4 5 6 
#
# 1 22.9278 32.8991 25.5127 0.0000 -4.6960 0.0000
# 2 32.8991 104.3318 51.3622 0.0000 -9.4476 0.0000
# 3 25.5127 51.3622 95.5433 0.0000 -7.0175 0.0000
# 4 0.0000 0.0000 0.0000 22.5754 0.0000 -3.0441
# 5 -4.6960 -9.4476 -7.0175 0.0000 18.4628 0.0000
# 6 0.0000 0.0000 0.0000 -3.0441 0.0000 24.5241
#
#
#
# Elastic Compliance Matrix: (Units=1/GPa)
#
#
# Indices 1 2 3 4 5 6 
#
# 1 0.089238 -0.021786 -0.011593 0.000000 0.007144 0.000000
# 2 -0.021786 0.018665 -0.004035 0.000000 0.002476 0.000000
# 3 -0.011593 -0.004035 0.015804 0.000000 0.000994 0.000000
# 4 0.000000 0.000000 0.000000 0.045050 0.000000 0.005592
# 5 0.007144 0.002476 0.000994 0.000000 0.057625 0.000000
# 6 0.000000 0.000000 0.000000 0.005592 0.000000 0.041470
#
#
# Mechanical properties :
#
#
# Convention : Reuss Voigt Hill
#
# Bulk Modulus (GPa) = 20.45782 49.15008 34.80395
# Shear Modulus (GPa) = 13.92863 20.64773 17.28818
#
# Velocity S-wave (km/s) = 2.80863 3.41960 3.12906
# Velocity P-wave (km/s) = 4.70149 6.58994 5.72413
#
# Compressibility (1/GPa) = 0.04888106
#
# Stress axis : x y z
#
# Youngs Moduli (GPa) = 11.20593 53.57616 63.27498
#
# Poissons Ratio (x) = 1.16719 0.73354
# Poissons Ratio (y) = 0.24413 0.25530
# Poissons Ratio (z) = 0.12991 0.21616
#
# Static dielectric constant tensor:
#      x y z
#    x 1.587470 0.000000 -0.005690 
#    y 0.000000 1.584260 0.000000 
#    z -0.005690 0.000000 1.606530 
# 
# From -- ./inp_files/91302.got.cif
#   From: 2010.05.17/outbox.cif.g08.bks.cpg/sg15_46_cif.got.tgz:91302.got - 2010.06.03 18:47:42.
