data_PCOD9265634
_publ_section_title
;
Structure prediction by ZEFSAII (Michael W. Deem and Ramdas Pophale) SiO2 
 PCOD9265634
Probable space group: C 2/C
;
_chemical_formula_sum "Si O2"
_cell_formula_units_Z 64
_cell_length_a 14.612981
_cell_length_b 13.976409
_cell_length_c 21.862800
_cell_angle_alpha 90.000000
_cell_angle_beta 142.171853
_cell_angle_gamma 90.000000
_cell_volume 2738.481003
_symmetry_space_group_name_H-M "C 2/C"
_symmetry_group_IT_number 15
_symmetry_cell_setting 'monoclinic'
loop_
_space_group_symop_operation_xyz
x,y,z
-x,y,1/2-z
-x,-y,-z
x,-y,1/2+z
1/2+x,1/2+y,z
1/2-x,1/2+y,1/2-z
1/2-x,1/2-y,-z
1/2+x,1/2-y,1/2+z
loop_
_atom_site_type_symbol
_atom_site_label
_atom_site_fract_x
_atom_site_fract_y
_atom_site_fract_z
Si Si1 0.761251 0.520611 0.220095
Si Si2 0.704760 0.701595 0.912252
Si Si3 0.482837 0.939336 0.566074
Si Si4 0.356157 0.182200 0.440314
Si Si5 0.605858 0.668279 0.055975
Si Si6 0.831678 0.343300 0.172614
Si Si7 0.501732 0.576841 0.871323
Si Si8 0.244942 0.415591 0.501110
O O1 0.893332 0.584814 0.316844
O O2 0.641626 0.583444 0.120484
O O3 0.822449 0.437905 0.208541
O O4 0.664606 0.464063 0.220034
O O5 0.737316 0.782102 0.879690
O O6 0.548135 0.652083 0.843548
O O7 0.750000 0.750000 0.000000
O O8 0.837456 0.624201 0.975704
O O9 0.584949 0.915314 0.560245
O O10 0.409022 0.031623 0.559575
O O11 0.499666 0.249835 0.527895
O O12 0.256978 0.253267 0.346350
O O13 0.251572 0.161302 0.442968
O O14 0.532571 0.625205 0.954648
O O15 0.764113 0.373613 0.071263
O O16 0.000000 0.315526 0.250000
O O17 0.620498 0.490845 0.926887
#
# Coordination Sequence:
#
# PCOD9265634 Si02
#       8
#     8   8   8   8   8   8   8   8
#     4  12  22  39  65  94 125 161 207 261 318 361
#     4   8  18  36  60  88 119 161 204 248 304 364
#     4  10  23  41  63  92 128 166 201 261 318 363
#     4  11  24  41  63  91 126 163 212 252 301 377
#     4  10  19  37  64  91 121 162 206 254 304 369
#     4  12  24  39  62  95 130 157 201 267 313 358
#     4  10  19  36  63  88 121 162 205 249 303 373
#     4  11  22  41  66  89 123 171 210 240 309 382
#
# _framework density 23.370619999999999
#
# number of rings (size 3 to 8) (size 9 to 14) (size 15 to 20)
#    0.000    1.500    3.750    1.875    0.000    2.000 
#    0.000    0.000    0.000    7.500    0.000    0.000 
#    0.000    0.000    0.000    0.000    0.000    0.000 
#
# Total GULP energy -178409.468597 kJ/mol
# GULP energy per Si atom -5575.295894 kJ/mol
# Density = 2.331743 g / cm^3
# Si number density = 23.370620 Si / 1000 Ang^3
#
#
#
# Elastic Constant Matrix: (Units=GPa)
#
#
# Indices 1 2 3 4 5 6 
#
# 1 93.7258 21.0329 3.1167 0.0000 3.5112 0.0000
# 2 21.0329 63.3016 -4.5453 0.0000 9.4252 0.0000
# 3 3.1167 -4.5453 17.9456 0.0000 5.4932 0.0000
# 4 0.0000 0.0000 0.0000 5.9024 0.0000 8.1271
# 5 3.5112 9.4252 5.4932 0.0000 18.9658 0.0000
# 6 0.0000 0.0000 0.0000 8.1271 0.0000 49.4320
#
#
#
# Elastic Compliance Matrix: (Units=1/GPa)
#
#
# Indices 1 2 3 4 5 6 
#
# 1 0.011707 -0.004275 -0.003404 0.000000 0.000943 0.000000
# 2 -0.004275 0.019617 0.009275 0.000000 -0.011644 0.000000
# 3 -0.003404 0.009275 0.065708 0.000000 -0.023011 0.000000
# 4 0.000000 0.000000 0.000000 0.218998 0.000000 -0.036006
# 5 0.000943 -0.011644 -0.023011 0.000000 0.065003 0.000000
# 6 0.000000 0.000000 0.000000 -0.036006 0.000000 0.026150
#
#
# Mechanical properties :
#
#
# Convention : Reuss Voigt Hill
#
# Bulk Modulus (GPa) = 9.97756 23.79794 16.88775
# Shear Modulus (GPa) = 11.43124 25.21797 18.32460
#
# Velocity S-wave (km/s) = 2.21402 3.28845 2.80319
# Velocity P-wave (km/s) = 3.28853 4.96220 4.20939
#
# Compressibility (1/GPa) = 0.10022488
#
# Stress axis : x y z
#
# Youngs Moduli (GPa) = 85.42231 50.97507 15.21884
#
# Poissons Ratio (x) = 0.21789 0.05181
# Poissons Ratio (y) = 0.36514 -0.14116
# Poissons Ratio (z) = 0.29081 -0.47281
#
# Static dielectric constant tensor:
#      x y z
#    x 1.899660 0.000000 -0.004210 
#    y 0.000000 1.881990 0.000000 
#    z -0.004210 0.000000 1.872150 
# 
# From -- ./inp_files/274358.got.cif
#   From: 2010.05.17/outbox.cif.g08.bks.cpg/sg15_138_cif.got.tgz:274358.got - 2010.06.03 18:47:42.
