data_PCOD9265290
_publ_section_title
;
Structure prediction by ZEFSAII (Michael W. Deem and Ramdas Pophale) SiO2 
 PCOD9265290
Probable space group: C 2/C
;
_chemical_formula_sum "Si O2"
_cell_formula_units_Z 44
_cell_length_a 7.456360
_cell_length_b 26.653085
_cell_length_c 12.699768
_cell_angle_alpha 90.000000
_cell_angle_beta 63.252951
_cell_angle_gamma 90.000000
_cell_volume 2253.837662
_symmetry_space_group_name_H-M "C 2/C"
_symmetry_group_IT_number 15
_symmetry_cell_setting 'monoclinic'
loop_
_space_group_symop_operation_xyz
x,y,z
-x,y,1/2-z
-x,-y,-z
x,-y,1/2+z
1/2+x,1/2+y,z
1/2-x,1/2+y,1/2-z
1/2-x,1/2-y,-z
1/2+x,1/2-y,1/2+z
loop_
_atom_site_type_symbol
_atom_site_label
_atom_site_fract_x
_atom_site_fract_y
_atom_site_fract_z
Si Si1 0.925586 0.614666 0.028407
Si Si2 0.280789 0.048098 0.254529
Si Si3 0.182111 0.434137 0.282991
Si Si4 0.502241 0.363241 0.875985
Si Si5 0.240360 0.190388 0.495671
Si Si6 0.500000 0.642756 0.750000
O O1 0.079749 0.581601 0.920133
O O2 0.050126 0.659334 0.050700
O O3 0.821071 0.576609 0.135887
O O4 0.728156 0.636432 0.023449
O O5 0.500000 0.049559 0.250000
O O6 0.112128 0.082062 0.355391
O O7 0.231428 0.990139 0.248703
O O8 0.354250 0.393621 0.222589
O O9 0.000000 0.430006 0.250000
O O10 0.500000 0.349820 0.750000
O O11 0.631244 0.327230 0.917134
O O12 0.250000 0.250000 0.500000
O O13 0.120632 0.173885 0.632177
#
# Coordination Sequence:
#
# PCOD9265290 Si02
#       6
#     8   8   8   8   8   4
#     4  10  21  38  59  86 125 157 206 256 300 369
#     4  10  19  36  59  89 123 162 200 247 305 363
#     4  10  21  37  56  86 125 163 201 244 306 368
#     4  10  22  38  64  92 125 157 207 261 302 369
#     4  11  24  44  65  90 122 167 208 261 311 355
#     4  10  24  40  62  90 126 162 208 252 306 376
#
# _framework density 19.522258000000001
#
# number of rings (size 3 to 8) (size 9 to 14) (size 15 to 20)
#    0.000    1.818    1.818    1.636    3.818    3.636 
#    0.000    6.364    0.000    0.000    0.000    0.000 
#    0.000    0.000    0.000    0.000    0.000    0.000 
#
# Total GULP energy -122653.070403 kJ/mol
# GULP energy per Si atom -5575.139564 kJ/mol
# Density = 1.947782 g / cm^3
# Si number density = 19.522258 Si / 1000 Ang^3
#
#
#
# Elastic Constant Matrix: (Units=GPa)
#
#
# Indices 1 2 3 4 5 6 
#
# 1 123.9737 66.8360 13.2376 0.0000 5.5921 0.0000
# 2 66.8360 171.3602 35.4104 0.0000 9.8079 0.0000
# 3 13.2376 35.4104 31.5360 0.0000 4.0207 0.0000
# 4 0.0000 0.0000 0.0000 94.7339 0.0000 54.3856
# 5 5.5921 9.8079 4.0207 0.0000 28.6011 0.0000
# 6 0.0000 0.0000 0.0000 54.3856 0.0000 31.6920
#
#
#
# Elastic Compliance Matrix: (Units=1/GPa)
#
#
# Indices 1 2 3 4 5 6 
#
# 1 0.010228 -0.004012 0.000297 0.000000 -0.000666 0.000000
# 2 -0.004012 0.009231 -0.008530 0.000000 -0.001182 0.000000
# 3 0.000297 -0.008530 0.041542 0.000000 -0.002973 0.000000
# 4 0.000000 0.000000 0.000000 0.711940 0.000000 -1.221736
# 5 -0.000666 -0.001182 -0.002973 0.000000 0.035917 0.000000
# 6 0.000000 0.000000 0.000000 -1.221736 0.000000 2.128134
#
#
# Mechanical properties :
#
#
# Convention : Reuss Voigt Hill
#
# Bulk Modulus (GPa) = 27.38980 61.98200 44.68590
# Shear Modulus (GPa) = 1.68143 45.09777 23.38960
#
# Velocity S-wave (km/s) = 0.92906 4.81153 3.46511
# Velocity P-wave (km/s) = 3.90018 7.91746 6.24089
#
# Compressibility (1/GPa) = 0.03650994
#
# Stress axis : x y z
#
# Youngs Moduli (GPa) = 97.77384 108.33094 24.07184
#
# Poissons Ratio (x) = 0.43467 -0.00715
# Poissons Ratio (y) = 0.39231 0.20534
# Poissons Ratio (z) = -0.02904 0.92408
#
# Static dielectric constant tensor:
#      x y z
#    x 1.809310 0.000000 -0.024230 
#    y 0.000000 1.654200 0.000000 
#    z -0.024230 0.000000 1.685070 
# 
# From -- ./inp_files/79692.got.cif
#   From: 2010.05.17/outbox.cif.g08.bks.cpg/sg15_40_cif.got.tgz:79692.got - 2010.06.03 18:47:42.
