data_PCOD9265916
_publ_section_title
;
Structure prediction by ZEFSAII (Michael W. Deem and Ramdas Pophale) SiO2 
 PCOD9265916
Probable space group: C 2/C
;
_chemical_formula_sum "Si O2"
_cell_formula_units_Z 56
_cell_length_a 15.911079
_cell_length_b 18.821250
_cell_length_c 21.397173
_cell_angle_alpha 90.000000
_cell_angle_beta 152.902791
_cell_angle_gamma 90.000000
_cell_volume 2918.732846
_symmetry_space_group_name_H-M "C 2/C"
_symmetry_group_IT_number 15
_symmetry_cell_setting 'monoclinic'
loop_
_space_group_symop_operation_xyz
x,y,z
-x,y,1/2-z
-x,-y,-z
x,-y,1/2+z
1/2+x,1/2+y,z
1/2-x,1/2+y,1/2-z
1/2-x,1/2-y,-z
1/2+x,1/2-y,1/2+z
loop_
_atom_site_type_symbol
_atom_site_label
_atom_site_fract_x
_atom_site_fract_y
_atom_site_fract_z
Si Si1 0.806655 0.812034 0.586329
Si Si2 0.847455 0.971855 0.594986
Si Si3 0.405020 0.872137 0.777943
Si Si4 0.192040 0.099976 0.014906
Si Si5 0.409106 0.723240 0.846250
Si Si6 0.454686 0.947664 0.524564
Si Si7 0.964548 0.311146 0.452652
O O1 0.750000 0.750000 0.500000
O O2 0.824003 0.888956 0.563829
O O3 0.650989 0.823577 0.536872
O O4 0.000000 0.796583 0.750000
O O5 0.000000 0.975735 0.750000
O O6 0.881784 0.024988 0.559916
O O7 0.673448 0.007071 0.514529
O O8 0.615259 0.882991 0.893057
O O9 0.259451 0.897262 0.630820
O O10 0.401742 0.790112 0.794429
O O11 0.379623 0.918423 0.823408
O O12 0.040794 0.161501 0.907333
O O13 0.195459 0.701215 0.704033
O O14 0.486841 0.749756 0.964534
O O15 0.390177 0.875606 0.447229
O O16 0.500000 0.000000 0.500000
#
# Coordination Sequence:
#
# PCOD9265916 Si02
#       7
#     8   8   8   8   8   8   8
#     4  11  24  45  64  87 115 156 209 256 305 359
#     4  10  21  39  63  88 119 162 204 249 301 367
#     4   9  20  34  56  91 128 168 190 244 296 359
#     4  10  19  37  57  92 131 160 201 239 302 369
#     4  11  20  36  59  92 129 156 199 240 302 364
#     4  10  19  37  60  87 117 155 200 247 301 354
#     4  11  22  37  64  87 119 160 197 251 300 357
#
# _framework density 19.186408
#
# number of rings (size 3 to 8) (size 9 to 14) (size 15 to 20)
#    0.000    1.714    2.857    2.143    0.000    0.000 
#    7.714    0.000    0.000    2.571    0.000    0.000 
#    0.000    0.000    0.000    0.000    0.000    0.000 
#
# Total GULP energy -155915.060941 kJ/mol
# GULP energy per Si atom -5568.395034 kJ/mol
# Density = 1.914274 g / cm^3
# Si number density = 19.186408 Si / 1000 Ang^3
#
#
#
# Elastic Constant Matrix: (Units=GPa)
#
#
# Indices 1 2 3 4 5 6 
#
# 1 38.9188 37.4220 21.1120 0.5942 -19.5308 -0.2644
# 2 37.4220 147.8600 61.6892 -2.2425 -20.3328 0.9917
# 3 21.1120 61.6892 115.3546 -2.8244 -9.9659 1.2438
# 4 0.5942 -2.2425 -2.8244 -813.4110 -0.5845 357.1858
# 5 -19.5308 -20.3328 -9.9659 -0.5845 19.2209 0.2588
# 6 -0.2644 0.9917 1.2438 357.1858 0.2588 -125.7879
#
#
#
# Elastic Compliance Matrix: (Units=1/GPa)
#
#
# Indices 1 2 3 4 5 6 
#
# 1 0.060050 -0.006825 -0.002818 0.000037 0.052339 0.000005
# 2 -0.006825 0.010521 -0.004204 -0.000022 0.002015 -0.000003
# 3 -0.002818 -0.004204 0.011307 -0.000029 -0.001449 -0.000001
# 4 0.000037 -0.000022 -0.000029 0.004979 -0.000040 0.014138
# 5 0.052339 0.002015 -0.001449 -0.000040 0.106588 -0.000002
# 6 0.000005 -0.000003 -0.000001 0.014138 -0.000002 0.032196
#
#
# Mechanical properties :
#
#
# Convention : Reuss Voigt Hill
#
# Bulk Modulus (GPa) = 18.45522 60.28666 39.37094
# Shear Modulus (GPa) = 18.42328 -171.86825 -76.72248
#
# Velocity S-wave (km/s) = 3.10211 -9.47484 -6.33046
# Velocity P-wave (km/s) = 4.74032 9.39186 5.73308
#
# Compressibility (1/GPa) = 0.05418521
#
# Stress axis : x y z
#
# Youngs Moduli (GPa) = 16.65273 95.04763 88.44125
#
# Poissons Ratio (x) = 0.64866 0.24923
# Poissons Ratio (y) = 0.11365 0.37179
# Poissons Ratio (z) = 0.04693 0.39957
#
# Static dielectric constant tensor:
#      x y z
#    x 1.661180 -0.000020 -0.045340 
#    y -0.000020 1.858700 -0.000110 
#    z -0.045340 -0.000110 1.672600 
# 
# From -- ./inp_files/49145.got.cif
#   From: 2010.05.17/outbox.cif.g08.bks.cpg/sg15_25_cif.got.tgz:49145.got - 2010.06.03 18:47:42.
