data_PCOD9265814
_publ_section_title
;
Structure prediction by ZEFSAII (Michael W. Deem and Ramdas Pophale) SiO2 
 PCOD9265814
Probable space group: C 2/C
;
_chemical_formula_sum "Si O2"
_cell_formula_units_Z 52
_cell_length_a 8.900721
_cell_length_b 13.244583
_cell_length_c 25.398282
_cell_angle_alpha 90.000000
_cell_angle_beta 60.165156
_cell_angle_gamma 90.000000
_cell_volume 2597.280225
_symmetry_space_group_name_H-M "C 2/C"
_symmetry_group_IT_number 15
_symmetry_cell_setting 'monoclinic'
loop_
_space_group_symop_operation_xyz
x,y,z
-x,y,1/2-z
-x,-y,-z
x,-y,1/2+z
1/2+x,1/2+y,z
1/2-x,1/2+y,1/2-z
1/2-x,1/2-y,-z
1/2+x,1/2-y,1/2+z
loop_
_atom_site_type_symbol
_atom_site_label
_atom_site_fract_x
_atom_site_fract_y
_atom_site_fract_z
Si Si1 0.249851 0.774922 0.842124
Si Si2 0.500000 0.937521 0.750000
Si Si3 0.328319 0.397250 0.076625
Si Si4 0.360112 0.708730 0.931371
Si Si5 0.161887 0.494934 0.432776
Si Si6 0.428472 0.922063 0.163997
Si Si7 0.546464 0.401228 0.564069
O O1 0.343039 0.862638 0.793380
O O2 0.362081 0.767355 0.876186
O O3 0.207720 0.671563 0.817569
O O4 0.065367 0.807564 0.898112
O O5 0.571900 0.009785 0.783842
O O6 0.448181 0.313820 0.082528
O O7 0.410998 0.504791 0.081277
O O8 0.128160 0.387047 0.124579
O O9 0.363537 0.391183 0.008198
O O10 0.263617 0.606205 0.931396
O O11 0.250000 0.750000 0.000000
O O12 0.105224 0.488211 0.382546
O O13 0.302039 0.579808 0.420812
O O14 0.000000 0.500000 0.500000
#
# Coordination Sequence:
#
# PCOD9265814 Si02
#       7
#     8   4   8   8   8   8   8
#     4  11  25  46  69  98 131 185 236 283 347 418
#     4  12  28  52  72  86 148 190 234 300 340 402
#     4  10  19  36  68  99 139 173 212 278 349 420
#     4  10  21  35  64 102 136 171 218 279 353 415
#     4  10  21  36  63 102 138 167 212 282 346 414
#     4  11  25  46  69  98 130 184 238 277 347 420
#     4  10  19  37  65 101 137 175 211 272 359 408
#
# _framework density 20.020942999999999
#
# number of rings (size 3 to 8) (size 9 to 14) (size 15 to 20)
#    0.000    1.538    4.615    0.000    2.154    3.077 
#    5.538    0.000    0.000    0.000    0.000    0.000 
#    0.000    0.000    0.000    0.000    0.000    0.000 
#
# Total GULP energy -145114.837686 kJ/mol
# GULP energy per Si atom -5581.339911 kJ/mol
# Density = 1.997537 g / cm^3
# Si number density = 20.020943 Si / 1000 Ang^3
#
#
#
# Elastic Constant Matrix: (Units=GPa)
#
#
# Indices 1 2 3 4 5 6 
#
# 1 129.9954 34.3514 44.3250 0.0000 30.5166 0.0000
# 2 34.3514 59.1123 46.6904 0.0000 20.5244 0.0000
# 3 44.3250 46.6904 84.6175 0.0000 25.2663 0.0000
# 4 0.0000 0.0000 0.0000 33.4916 0.0000 1.5597
# 5 30.5166 20.5244 25.2663 0.0000 34.8039 0.0000
# 6 0.0000 0.0000 0.0000 1.5597 0.0000 33.8431
#
#
#
# Elastic Compliance Matrix: (Units=1/GPa)
#
#
# Indices 1 2 3 4 5 6 
#
# 1 0.010550 -0.001900 -0.002618 0.000000 -0.006229 0.000000
# 2 -0.001900 0.031829 -0.014632 0.000000 -0.006482 0.000000
# 3 -0.002618 -0.014632 0.022983 0.000000 -0.005761 0.000000
# 4 0.000000 0.000000 0.000000 0.029922 0.000000 -0.001379
# 5 -0.006229 -0.006482 -0.005761 0.000000 0.042199 0.000000
# 6 0.000000 0.000000 0.000000 -0.001379 0.000000 0.029612
#
#
# Mechanical properties :
#
#
# Convention : Reuss Voigt Hill
#
# Bulk Modulus (GPa) = 36.95233 58.27320 47.61276
# Shear Modulus (GPa) = 23.31939 30.31827 26.81883
#
# Velocity S-wave (km/s) = 3.41655 3.89566 3.66394
# Velocity P-wave (km/s) = 5.83615 7.02881 6.46006
#
# Compressibility (1/GPa) = 0.02706189
#
# Stress axis : x y z
#
# Youngs Moduli (GPa) = 94.79072 31.41816 43.51076
#
# Poissons Ratio (x) = 0.05970 0.11390
# Poissons Ratio (y) = 0.18011 0.63664
# Poissons Ratio (z) = 0.24814 0.45970
#
# Static dielectric constant tensor:
#      x y z
#    x 1.716100 0.000000 0.027870 
#    y 0.000000 1.800770 0.000000 
#    z 0.027870 0.000000 1.691330 
# 
# From -- ./inp_files/231145.got.cif
#   From: 2010.05.17/outbox.cif.g08.bks.cpg/sg15_116_cif.got.tgz:231145.got - 2010.06.03 18:47:42.
