data_PCOD9265925
_publ_section_title
;
Structure prediction by ZEFSAII (Michael W. Deem and Ramdas Pophale) SiO2 
 PCOD9265925
Probable space group: C 2/C
;
_chemical_formula_sum "Si O2"
_cell_formula_units_Z 40
_cell_length_a 16.798432
_cell_length_b 12.216023
_cell_length_c 12.044828
_cell_angle_alpha 90.000000
_cell_angle_beta 37.369523
_cell_angle_gamma 90.000000
_cell_volume 1500.218046
_symmetry_space_group_name_H-M "C 2/C"
_symmetry_group_IT_number 15
_symmetry_cell_setting 'monoclinic'
loop_
_space_group_symop_operation_xyz
x,y,z
-x,y,1/2-z
-x,-y,-z
x,-y,1/2+z
1/2+x,1/2+y,z
1/2-x,1/2+y,1/2-z
1/2-x,1/2-y,-z
1/2+x,1/2-y,1/2+z
loop_
_atom_site_type_symbol
_atom_site_label
_atom_site_fract_x
_atom_site_fract_y
_atom_site_fract_z
Si Si1 0.879136 0.649233 0.325088
Si Si2 0.315242 0.405905 0.849104
Si Si3 0.299976 0.986490 0.227848
Si Si4 0.640385 0.633186 0.748302
Si Si5 0.905936 0.325437 0.248575
O O1 0.801354 0.576477 0.322916
O O2 0.779348 0.666070 0.537358
O O3 0.935567 0.758465 0.202748
O O4 0.000000 0.588721 0.250000
O O5 0.208907 0.441167 0.873967
O O6 0.399442 0.517250 0.762421
O O7 0.394455 0.299856 0.724076
O O8 0.234010 0.368073 0.046056
O O9 0.178724 0.903362 0.330204
O O10 0.419256 0.906316 0.129475
O O11 0.000000 0.328982 0.250000
#
# Coordination Sequence:
#
# PCOD9265925 Si02
#       5
#     8   8   8   8   8
#     4  11  21  36  58  82 107 141 182 223 263 315
#     4   9  22  37  56  78 113 142 177 217 273 321
#     4  10  19  37  58  80 105 148 172 229 259 325
#     4   9  22  37  56  78 113 142 177 217 273 321
#     4  11  21  36  58  82 107 141 182 223 263 315
#
# _framework density 26.662790000000001
#
# number of rings (size 3 to 8) (size 9 to 14) (size 15 to 20)
#    1.200    0.800    2.000    1.800    0.000    4.000 
#    0.000    0.000    0.000    4.800    0.000    0.000 
#    0.000    0.000    0.000    0.000    0.000    0.000 
#
# Total GULP energy -111443.934330 kJ/mol
# GULP energy per Si atom -5572.196716 kJ/mol
# Density = 2.660210 g / cm^3
# Si number density = 26.662790 Si / 1000 Ang^3
#
#
#
# Elastic Constant Matrix: (Units=GPa)
#
#
# Indices 1 2 3 4 5 6 
#
# 1 167.1491 66.5007 19.6197 0.0000 23.1899 0.0000
# 2 66.5007 233.4198 7.7429 0.0000 17.0803 0.0000
# 3 19.6197 7.7429 45.3454 0.0000 8.4935 0.0000
# 4 0.0000 0.0000 0.0000 22.6894 0.0000 8.4095
# 5 23.1899 17.0803 8.4935 0.0000 18.6566 0.0000
# 6 0.0000 0.0000 0.0000 8.4095 0.0000 45.0369
#
#
#
# Elastic Compliance Matrix: (Units=1/GPa)
#
#
# Indices 1 2 3 4 5 6 
#
# 1 0.007878 -0.001638 -0.001723 0.000000 -0.007509 0.000000
# 2 -0.001638 0.004932 0.000362 0.000000 -0.002644 0.000000
# 3 -0.001723 0.000362 0.024485 0.000000 -0.009337 0.000000
# 4 0.000000 0.000000 0.000000 0.047350 0.000000 -0.008841
# 5 -0.007509 -0.002644 -0.009337 0.000000 0.069605 0.000000
# 6 0.000000 0.000000 0.000000 -0.008841 0.000000 0.023855
#
#
# Mechanical properties :
#
#
# Convention : Reuss Voigt Hill
#
# Bulk Modulus (GPa) = 31.95043 70.40454 51.17748
# Shear Modulus (GPa) = 25.70208 40.74667 33.22438
#
# Velocity S-wave (km/s) = 3.10815 3.91349 3.53384
# Velocity P-wave (km/s) = 4.98899 6.84715 5.99055
#
# Compressibility (1/GPa) = 0.03129849
#
# Stress axis : x y z
#
# Youngs Moduli (GPa) = 126.93118 202.74690 40.84074
#
# Poissons Ratio (x) = 0.33208 0.07035
# Poissons Ratio (y) = 0.20790 -0.01478
# Poissons Ratio (z) = 0.21865 -0.07335
#
# Static dielectric constant tensor:
#      x y z
#    x 2.118320 0.000000 0.129350 
#    y 0.000000 2.202050 0.000000 
#    z 0.129350 0.000000 2.355440 
# 
# From -- ./inp_files/95121.got.cif
#   From: 2010.05.17/outbox.cif.g08.bks.cpg/sg15_48_cif.got.tgz:95121.got - 2010.06.03 18:47:42.
