data_PCOD9265026
_publ_section_title
;
Structure prediction by ZEFSAII (Michael W. Deem and Ramdas Pophale) SiO2 
 PCOD9265026
Probable space group: C 2/C
;
_chemical_formula_sum "Si O2"
_cell_formula_units_Z 40
_cell_length_a 8.572957
_cell_length_b 14.049245
_cell_length_c 19.417522
_cell_angle_alpha 90.000000
_cell_angle_beta 131.338425
_cell_angle_gamma 90.000000
_cell_volume 1755.957679
_symmetry_space_group_name_H-M "C 2/C"
_symmetry_group_IT_number 15
_symmetry_cell_setting 'monoclinic'
loop_
_space_group_symop_operation_xyz
x,y,z
-x,y,1/2-z
-x,-y,-z
x,-y,1/2+z
1/2+x,1/2+y,z
1/2-x,1/2+y,1/2-z
1/2-x,1/2-y,-z
1/2+x,1/2-y,1/2+z
loop_
_atom_site_type_symbol
_atom_site_label
_atom_site_fract_x
_atom_site_fract_y
_atom_site_fract_z
Si Si1 0.566673 0.868383 0.626308
Si Si2 0.349695 0.227512 0.774220
Si Si3 0.157884 0.879365 0.922156
Si Si4 0.243353 0.009221 0.570511
Si Si5 0.696913 0.477782 0.214808
O O1 0.632650 0.776845 0.688269
O O2 0.658689 0.857638 0.577499
O O3 0.341157 0.913437 0.567584
O O4 0.700103 0.948482 0.703822
O O5 0.500000 0.226347 0.750000
O O6 0.481061 0.296452 0.864482
O O7 0.267585 0.122785 0.767070
O O8 0.268028 0.900693 0.027221
O O9 0.035269 0.977025 0.862901
O O10 0.291337 0.021061 0.664815
O O11 0.000000 0.000000 0.500000
#
# Coordination Sequence:
#
# PCOD9265026 Si02
#       5
#     8   8   8   8   8
#     4  10  19  36  57  78 109 147 181 221 268 324
#     4   9  18  34  56  80 106 141 183 220 264 326
#     4   9  20  37  56  82 111 140 179 226 271 317
#     4  10  20  35  55  81 111 142 179 228 273 312
#     4  10  19  36  59  81 107 144 183 219 267 327
#
# _framework density 22.779592000000001
#
# number of rings (size 3 to 8) (size 9 to 14) (size 15 to 20)
#    0.000    2.400    0.000    4.200    0.000    0.000 
#    0.000   27.000    0.000    0.000    0.000    0.000 
#    0.000    0.000    0.000    0.000    0.000    0.000 
#
# Total GULP energy -111370.226883 kJ/mol
# GULP energy per Si atom -5568.511344 kJ/mol
# Density = 2.272774 g / cm^3
# Si number density = 22.779592 Si / 1000 Ang^3
#
#
#
# Elastic Constant Matrix: (Units=GPa)
#
#
# Indices 1 2 3 4 5 6 
#
# 1 44.9791 -11.9226 14.3559 0.0000 11.7540 0.0000
# 2 -11.9226 47.3732 -1.4754 0.0000 2.0415 0.0000
# 3 14.3559 -1.4754 32.0400 0.0000 6.5618 0.0000
# 4 0.0000 0.0000 0.0000 8.4540 0.0000 11.3646
# 5 11.7540 2.0415 6.5618 0.0000 45.1679 0.0000
# 6 0.0000 0.0000 0.0000 11.3646 0.0000 20.7759
#
#
#
# Elastic Compliance Matrix: (Units=1/GPa)
#
#
# Indices 1 2 3 4 5 6 
#
# 1 0.029537 0.007345 -0.011599 0.000000 -0.006333 0.000000
# 2 0.007345 0.023022 -0.001676 0.000000 -0.002708 0.000000
# 3 -0.011599 -0.001676 0.036792 0.000000 -0.002251 0.000000
# 4 0.000000 0.000000 0.000000 0.446928 0.000000 -0.244474
# 5 -0.006333 -0.002708 -0.002251 0.000000 0.024237 0.000000
# 6 0.000000 0.000000 0.000000 -0.244474 0.000000 0.181862
#
#
# Mechanical properties :
#
#
# Convention : Reuss Voigt Hill
#
# Bulk Modulus (GPa) = 12.90480 14.03423 13.46952
# Shear Modulus (GPa) = 6.40970 23.10852 14.75911
#
# Velocity S-wave (km/s) = 1.67926 3.18848 2.54817
# Velocity P-wave (km/s) = 3.07201 4.44179 3.81882
#
# Compressibility (1/GPa) = 0.07749056
#
# Stress axis : x y z
#
# Youngs Moduli (GPa) = 33.85629 43.43652 27.17990
#
# Poissons Ratio (x) = -0.31905 0.31526
# Poissons Ratio (y) = -0.24868 0.04556
# Poissons Ratio (z) = 0.39270 0.07281
#
# Static dielectric constant tensor:
#      x y z
#    x 1.947470 0.000000 0.052030 
#    y 0.000000 2.118870 0.000000 
#    z 0.052030 0.000000 1.999760 
# 
# From -- ./inp_files/188378.got.cif
#   From: 2010.05.17/outbox.cif.g08.bks.cpg/sg15_95_cif.got.tgz:188378.got - 2010.06.03 18:47:42.
