data_PCOD9265803
_publ_section_title
;
Structure prediction by ZEFSAII (Michael W. Deem and Ramdas Pophale) SiO2 
 PCOD9265803
Probable space group: C 2/C
;
_chemical_formula_sum "Si O2"
_cell_formula_units_Z 40
_cell_length_a 9.905079
_cell_length_b 21.696021
_cell_length_c 16.072444
_cell_angle_alpha 90.000000
_cell_angle_beta 36.416830
_cell_angle_gamma 90.000000
_cell_volume 2050.474154
_symmetry_space_group_name_H-M "C 2/C"
_symmetry_group_IT_number 15
_symmetry_cell_setting 'monoclinic'
loop_
_space_group_symop_operation_xyz
x,y,z
-x,y,1/2-z
-x,-y,-z
x,-y,1/2+z
1/2+x,1/2+y,z
1/2-x,1/2+y,1/2-z
1/2-x,1/2-y,-z
1/2+x,1/2-y,1/2+z
loop_
_atom_site_type_symbol
_atom_site_label
_atom_site_fract_x
_atom_site_fract_y
_atom_site_fract_z
Si Si1 0.252841 0.153952 0.658037
Si Si2 0.494207 0.407160 0.879988
Si Si3 0.537649 0.725189 0.053082
Si Si4 0.620332 0.935833 0.923906
Si Si5 0.240855 0.124746 0.847891
O O1 0.365885 0.219990 0.621020
O O2 0.426909 0.116307 0.513679
O O3 0.236491 0.115786 0.752436
O O4 0.000000 0.160490 0.750000
O O5 0.288085 0.418171 0.917599
O O6 0.715381 0.440942 0.737120
O O7 0.554743 0.334020 0.850645
O O8 0.403519 0.418557 0.018309
O O9 0.636795 0.692432 0.920979
O O10 0.750000 0.750000 0.000000
O O11 0.500000 0.000000 0.000000
O O12 0.500000 0.123919 0.750000
#
# Coordination Sequence:
#
# PCOD9265803 Si02
#       5
#     8   8   8   8   8
#     4  12  25  39  64 101 140 171 219 297 349 386
#     4   9  22  39  69  90 126 173 233 267 315 418
#     4  10  19  36  67  96 126 171 227 270 330 408
#     4  11  23  41  66  97 132 179 226 276 331 400
#     4  10  19  39  66  93 124 171 226 269 331 405
#
# _framework density 19.507683
#
# number of rings (size 3 to 8) (size 9 to 14) (size 15 to 20)
#    1.200    0.400    6.000    0.000    5.600    0.800 
#    0.000    2.000    4.400    0.000    0.000    0.000 
#    0.000    0.000    0.000    0.000    0.000    0.000 
#
# Total GULP energy -111461.628882 kJ/mol
# GULP energy per Si atom -5573.081444 kJ/mol
# Density = 1.946328 g / cm^3
# Si number density = 19.507683 Si / 1000 Ang^3
#
#
#
# Elastic Constant Matrix: (Units=GPa)
#
#
# Indices 1 2 3 4 5 6 
#
# 1 78.3872 12.6124 36.9060 -0.0018 -27.2575 0.0000
# 2 12.6124 86.7009 34.8030 -0.0078 -24.3276 0.0059
# 3 36.9060 34.8030 143.0121 -0.0159 -15.5626 0.0128
# 4 -0.0018 -0.0078 -0.0159 35.7506 0.0020 1.4615
# 5 -27.2575 -24.3276 -15.5626 0.0020 38.5111 -0.0002
# 6 0.0000 0.0059 0.0128 1.4615 -0.0002 -3.5813
#
#
#
# Elastic Compliance Matrix: (Units=1/GPa)
#
#
# Indices 1 2 3 4 5 6 
#
# 1 0.018908 0.002644 -0.004063 -0.000001 0.013411 -0.000011
# 2 0.002644 0.015346 -0.003303 0.000001 0.010230 0.000013
# 3 -0.004063 -0.003303 0.008687 0.000002 -0.001452 0.000026
# 4 -0.000001 0.000001 0.000002 0.027513 0.000000 0.011227
# 5 0.013411 0.010230 -0.001452 0.000000 0.041334 0.000009
# 6 -0.000011 0.000013 0.000026 0.011227 0.000009 -0.274645
#
#
# Mechanical properties :
#
#
# Convention : Reuss Voigt Hill
#
# Bulk Modulus (GPa) = 29.85583 52.97143 41.41363
# Shear Modulus (GPa) = -35.15055 29.05465 -3.04795
#
# Velocity S-wave (km/s) = -4.24946 3.86346 -1.25133
# Velocity P-wave (km/s) = 2.95624 6.86402 4.38038
#
# Compressibility (1/GPa) = 0.03349429
#
# Stress axis : x y z
#
# Youngs Moduli (GPa) = 52.88676 65.16392 115.11573
#
# Poissons Ratio (x) = -0.17226 0.46777
# Poissons Ratio (y) = -0.13981 0.38028
# Poissons Ratio (z) = 0.21490 0.21527
#
# Static dielectric constant tensor:
#      x y z
#    x 1.653130 0.000000 0.043860 
#    y 0.000000 1.693170 0.000000 
#    z 0.043860 0.000000 1.732780 
# 
# From -- ./inp_files/137085.got.cif
#   From: 2010.05.17/outbox.cif.g08.bks.cpg/sg15_69_cif.got.tgz:137085.got - 2010.06.03 18:47:42.
