data_PCOD9265461
_publ_section_title
;
Structure prediction by ZEFSAII (Michael W. Deem and Ramdas Pophale) SiO2 
 PCOD9265461
Probable space group: C 2/C
;
_chemical_formula_sum "Si O2"
_cell_formula_units_Z 52
_cell_length_a 10.952516
_cell_length_b 15.233908
_cell_length_c 18.805860
_cell_angle_alpha 90.000000
_cell_angle_beta 131.201663
_cell_angle_gamma 90.000000
_cell_volume 2360.830354
_symmetry_space_group_name_H-M "C 2/C"
_symmetry_group_IT_number 15
_symmetry_cell_setting 'monoclinic'
loop_
_space_group_symop_operation_xyz
x,y,z
-x,y,1/2-z
-x,-y,-z
x,-y,1/2+z
1/2+x,1/2+y,z
1/2-x,1/2+y,1/2-z
1/2-x,1/2-y,-z
1/2+x,1/2-y,1/2+z
loop_
_atom_site_type_symbol
_atom_site_label
_atom_site_fract_x
_atom_site_fract_y
_atom_site_fract_z
Si Si1 0.767452 0.236114 0.405397
Si Si2 0.125364 0.938361 0.910192
Si Si3 0.500000 0.844729 0.250000
Si Si4 0.830741 0.811150 0.769606
Si Si5 0.611635 0.816476 0.552467
Si Si6 0.590049 0.370938 0.412989
Si Si7 0.677727 0.616169 0.579291
O O1 0.775225 0.200583 0.329090
O O2 0.609225 0.289664 0.367392
O O3 0.803956 0.160356 0.477578
O O4 0.918451 0.305780 0.472725
O O5 0.291104 0.886816 0.956398
O O6 0.972349 0.884696 0.820982
O O7 0.136891 0.039112 0.893181
O O8 0.103311 0.938320 0.987064
O O9 0.585394 0.778659 0.226704
O O10 0.635795 0.903656 0.337694
O O11 0.683608 0.830185 0.659250
O O12 0.668878 0.718472 0.552042
O O13 0.415910 0.385979 0.382228
#
# Coordination Sequence:
#
# PCOD9265461 Si02
#       7
#     8   8   4   8   8   8   8
#     4  10  22  43  60  85 124 174 199 241 303 378
#     4  12  19  36  64  90 115 157 203 263 297 348
#     4  10  20  36  60  96 108 152 208 252 294 362
#     4  11  19  35  65  88 119 155 207 255 299 353
#     4  10  20  36  61  93 117 158 208 256 299 359
#     4  10  23  38  61  86 124 163 203 236 315 367
#     4  10  19  36  61  87 117 156 198 245 300 362
#
# _framework density 22.026149
#
# number of rings (size 3 to 8) (size 9 to 14) (size 15 to 20)
#    0.000    1.538    6.154    1.846    0.000    0.615 
#    0.000   23.077    0.000    0.000    0.000    0.000 
#    0.000    0.000    0.000    0.000    0.000    0.000 
#
# Total GULP energy -145189.348023 kJ/mol
# GULP energy per Si atom -5584.205693 kJ/mol
# Density = 2.197602 g / cm^3
# Si number density = 22.026149 Si / 1000 Ang^3
#
#
#
# Elastic Constant Matrix: (Units=GPa)
#
#
# Indices 1 2 3 4 5 6 
#
# 1 73.3990 6.6254 19.5774 0.0000 -16.1383 0.0000
# 2 6.6254 67.8485 5.0332 0.0000 2.8691 0.0000
# 3 19.5774 5.0332 76.3075 0.0000 -7.4793 0.0000
# 4 0.0000 0.0000 0.0000 6.1859 0.0000 -1.5622
# 5 -16.1383 2.8691 -7.4793 0.0000 34.4400 0.0000
# 6 0.0000 0.0000 0.0000 -1.5622 0.0000 25.8844
#
#
#
# Elastic Compliance Matrix: (Units=1/GPa)
#
#
# Indices 1 2 3 4 5 6 
#
# 1 0.016208 -0.001629 -0.003365 0.000000 0.007000 0.000000
# 2 -0.001629 0.015049 -0.000789 0.000000 -0.002188 0.000000
# 3 -0.003365 -0.000789 0.014174 0.000000 0.001567 0.000000
# 4 0.000000 0.000000 0.000000 0.164159 0.000000 0.009908
# 5 0.007000 -0.002188 0.001567 0.000000 0.032839 0.000000
# 6 0.000000 0.000000 0.000000 0.009908 0.000000 0.039231
#
#
# Mechanical properties :
#
#
# Convention : Reuss Voigt Hill
#
# Bulk Modulus (GPa) = 29.52945 31.11411 30.32178
# Shear Modulus (GPa) = 16.41961 25.72334 21.07148
#
# Velocity S-wave (km/s) = 2.73327 3.42110 3.09634
# Velocity P-wave (km/s) = 4.83701 5.45544 5.15551
#
# Compressibility (1/GPa) = 0.03386450
#
# Stress axis : x y z
#
# Youngs Moduli (GPa) = 61.69903 66.45011 70.55288
#
# Poissons Ratio (x) = 0.10825 0.23739
# Poissons Ratio (y) = 0.10051 0.05568
# Poissons Ratio (z) = 0.20760 0.05244
#
# Static dielectric constant tensor:
#      x y z
#    x 1.868740 0.000000 0.034990 
#    y 0.000000 1.799370 0.000000 
#    z 0.034990 0.000000 1.879560 
# 
# From -- ./inp_files/238846.got.cif
#   From: 2010.05.17/outbox.cif.g08.bks.cpg/sg15_120_cif.got.tgz:238846.got - 2010.06.03 18:47:42.
