data_PCOD9265960
_publ_section_title
;
Structure prediction by ZEFSAII (Michael W. Deem and Ramdas Pophale) SiO2 
 PCOD9265960
Probable space group: C 2/C
;
_chemical_formula_sum "Si O2"
_cell_formula_units_Z 56
_cell_length_a 17.005910
_cell_length_b 8.755690
_cell_length_c 15.994131
_cell_angle_alpha 90.000000
_cell_angle_beta 76.729444
_cell_angle_gamma 90.000000
_cell_volume 2317.908410
_symmetry_space_group_name_H-M "C 2/C"
_symmetry_group_IT_number 15
_symmetry_cell_setting 'monoclinic'
loop_
_space_group_symop_operation_xyz
x,y,z
-x,y,1/2-z
-x,-y,-z
x,-y,1/2+z
1/2+x,1/2+y,z
1/2-x,1/2+y,1/2-z
1/2-x,1/2-y,-z
1/2+x,1/2-y,1/2+z
loop_
_atom_site_type_symbol
_atom_site_label
_atom_site_fract_x
_atom_site_fract_y
_atom_site_fract_z
Si Si1 0.382160 0.337715 0.244790
Si Si2 0.203139 0.676581 0.742320
Si Si3 0.915264 0.116857 0.315221
Si Si4 0.449011 0.010244 0.182488
Si Si5 0.580051 0.873380 0.040142
Si Si6 0.254744 0.083257 0.953862
Si Si7 0.581137 0.578608 0.946164
O O1 0.286643 0.305893 0.269153
O O2 0.406456 0.433595 0.320787
O O3 0.425413 0.178558 0.218009
O O4 0.405837 0.437036 0.156242
O O5 0.161730 0.832344 0.721495
O O6 0.134129 0.582796 0.805993
O O7 0.223894 0.594939 0.649249
O O8 0.914810 0.233593 0.392348
O O9 0.000000 0.139089 0.250000
O O10 0.500000 0.951474 0.250000
O O11 0.505215 0.973347 0.089519
O O12 0.662183 0.974078 0.024024
O O13 0.577061 0.763060 0.960999
O O14 0.163187 0.021107 0.973317
O O15 0.250000 0.250000 0.000000
O O16 0.500000 0.500000 0.000000
#
# Coordination Sequence:
#
# PCOD9265960 Si02
#       7
#     8   8   8   8   8   8   8
#     4  11  25  35  57  95 122 144 195 261 297 333
#     4  10  19  37  58  86 117 155 193 241 305 348
#     4  11  18  36  60  83 110 153 201 233 283 360
#     4  12  21  38  59  88 119 156 199 246 300 351
#     4  10  19  37  63  80 112 163 203 230 291 371
#     4   8  16  32  56  83 104 147 201 233 272 353
#     4  10  21  36  57  86 116 154 193 247 296 349
#
# _framework density 24.159711999999999
#
# number of rings (size 3 to 8) (size 9 to 14) (size 15 to 20)
#    0.000    1.714    4.286    2.143    0.000    0.571 
#    0.000    0.000    0.000    0.857    0.000    0.000 
#    0.000    0.000    0.000    0.000    0.000    0.000 
#
# Total GULP energy -156202.205650 kJ/mol
# GULP energy per Si atom -5578.650202 kJ/mol
# Density = 2.410472 g / cm^3
# Si number density = 24.159712 Si / 1000 Ang^3
#
#
#
# Elastic Constant Matrix: (Units=GPa)
#
#
# Indices 1 2 3 4 5 6 
#
# 1 170.3390 32.1975 38.6837 0.0000 -41.8709 0.0000
# 2 32.1975 84.9846 2.1934 0.0000 1.2195 0.0000
# 3 38.6837 2.1934 60.1644 0.0000 -13.8678 0.0000
# 4 0.0000 0.0000 0.0000 4.3222 0.0000 11.0494
# 5 -41.8709 1.2195 -13.8678 0.0000 40.3406 0.0000
# 6 0.0000 0.0000 0.0000 11.0494 0.0000 26.1697
#
#
#
# Elastic Compliance Matrix: (Units=1/GPa)
#
#
# Indices 1 2 3 4 5 6 
#
# 1 0.009623 -0.003666 -0.004046 0.000000 0.008708 0.000000
# 2 -0.003666 0.013186 0.000986 0.000000 -0.003865 0.000000
# 3 -0.004046 0.000986 0.019779 0.000000 0.002570 0.000000
# 4 0.000000 0.000000 0.000000 -2.914565 0.000000 1.230593
# 5 0.008708 -0.003865 0.002570 0.000000 0.034827 0.000000
# 6 0.000000 0.000000 0.000000 1.230593 0.000000 -0.481371
#
#
# Mechanical properties :
#
#
# Convention : Reuss Voigt Hill
#
# Bulk Modulus (GPa) = 34.32418 51.29301 42.80859
# Shear Modulus (GPa) = -1.51729 30.32741 14.40506
#
# Velocity S-wave (km/s) = -0.79334 3.54685 2.44446
# Velocity P-wave (km/s) = 3.66044 6.16850 5.07195
#
# Compressibility (1/GPa) = 0.02913398
#
# Stress axis : x y z
#
# Youngs Moduli (GPa) = 103.91663 75.83854 50.55803
#
# Poissons Ratio (x) = 0.27805 0.20458
# Poissons Ratio (y) = 0.38099 -0.04984
# Poissons Ratio (z) = 0.42050 -0.07475
#
# Static dielectric constant tensor:
#      x y z
#    x 1.942250 0.000000 -0.063970 
#    y 0.000000 1.967490 0.000000 
#    z -0.063970 0.000000 1.732780 
# 
# From -- ./inp_files/209542.got.cif
#   From: 2010.05.17/outbox.cif.g08.bks.cpg/sg15_105_cif.got.tgz:209542.got - 2010.06.03 18:47:42.
