data_PCOD9265681
_publ_section_title
;
Structure prediction by ZEFSAII (Michael W. Deem and Ramdas Pophale) SiO2 
 PCOD9265681
Probable space group: C 2/C
;
_chemical_formula_sum "Si O2"
_cell_formula_units_Z 60
_cell_length_a 7.539909
_cell_length_b 27.373105
_cell_length_c 14.759682
_cell_angle_alpha 90.000000
_cell_angle_beta 87.158402
_cell_angle_gamma 90.000000
_cell_volume 3042.515748
_symmetry_space_group_name_H-M "C 2/C"
_symmetry_group_IT_number 15
_symmetry_cell_setting 'monoclinic'
loop_
_space_group_symop_operation_xyz
x,y,z
-x,y,1/2-z
-x,-y,-z
x,-y,1/2+z
1/2+x,1/2+y,z
1/2-x,1/2+y,1/2-z
1/2-x,1/2-y,-z
1/2+x,1/2-y,1/2+z
loop_
_atom_site_type_symbol
_atom_site_label
_atom_site_fract_x
_atom_site_fract_y
_atom_site_fract_z
Si Si1 0.204042 0.271892 0.748936
Si Si2 0.675961 0.563369 0.362777
Si Si3 0.580091 0.850660 0.439846
Si Si4 0.736180 0.546847 0.167701
Si Si5 0.654778 0.035097 0.962026
Si Si6 0.145124 0.829037 0.923164
Si Si7 0.500000 0.804534 0.250000
Si Si8 0.272386 0.848325 0.589464
O O1 0.288802 0.288734 0.650339
O O2 0.334462 0.229948 0.780115
O O3 0.205238 0.316759 0.819883
O O4 0.000000 0.255734 0.750000
O O5 0.783508 0.546722 0.272302
O O6 0.472245 0.556601 0.342192
O O7 0.712908 0.537307 0.456095
O O8 0.712890 0.620249 0.377468
O O9 0.601445 0.909455 0.442407
O O10 0.753220 0.826578 0.483724
O O11 0.553126 0.834504 0.337687
O O12 0.412831 0.835884 0.507516
O O13 0.772322 0.494386 0.124737
O O14 0.811652 0.594921 0.115068
O O15 0.500000 0.000000 0.000000
O O16 0.932001 0.836713 0.934957
#
# Coordination Sequence:
#
# PCOD9265681 Si02
#       8
#     8   8   8   8   8   8   4   8
#     4  12  23  42  72 102 129 165 221 275 339 395
#     4   9  20  34  61  93 127 163 211 268 321 375
#     4  11  26  45  64  94 133 179 222 271 327 396
#     4  10  19  36  63  95 127 161 214 269 324 377
#     4  11  22  38  60  94 127 171 215 258 324 388
#     4  10  20  40  69 100 129 162 214 282 327 377
#     4  12  30  48  62  92 142 178 222 268 336 408
#     4  11  20  40  71 101 129 164 215 283 331 380
#
# _framework density 19.720524000000001
#
# number of rings (size 3 to 8) (size 9 to 14) (size 15 to 20)
#    0.000    1.333    5.333    0.400    0.000    3.733 
#    0.000    0.000    2.933    0.000    0.000    0.000 
#    0.000    0.000    0.000    0.000    0.000    0.000 
#
# Total GULP energy -167406.587686 kJ/mol
# GULP energy per Si atom -5580.219590 kJ/mol
# Density = 1.967564 g / cm^3
# Si number density = 19.720524 Si / 1000 Ang^3
#
#
#
# Elastic Constant Matrix: (Units=GPa)
#
#
# Indices 1 2 3 4 5 6 
#
# 1 74.8386 15.4615 18.0948 0.0000 8.4281 0.0000
# 2 15.4615 56.4663 28.8694 0.0000 13.9803 0.0000
# 3 18.0948 28.8694 105.2101 0.0000 13.4219 0.0000
# 4 0.0000 0.0000 0.0000 18.0072 0.0000 7.4010
# 5 8.4281 13.9803 13.4219 0.0000 20.2021 0.0000
# 6 0.0000 0.0000 0.0000 7.4010 0.0000 20.3237
#
#
#
# Elastic Compliance Matrix: (Units=1/GPa)
#
#
# Indices 1 2 3 4 5 6 
#
# 1 0.014593 -0.002416 -0.001402 0.000000 -0.003484 0.000000
# 2 -0.002416 0.023759 -0.004518 0.000000 -0.012432 0.000000
# 3 -0.001402 -0.004518 0.011486 0.000000 -0.003919 0.000000
# 4 0.000000 0.000000 0.000000 0.065308 0.000000 -0.023782
# 5 -0.003484 -0.012432 -0.003919 0.000000 0.062161 0.000000
# 6 0.000000 0.000000 0.000000 -0.023782 0.000000 0.057864
#
#
# Mechanical properties :
#
#
# Convention : Reuss Voigt Hill
#
# Bulk Modulus (GPa) = 30.15238 40.15182 35.15210
# Shear Modulus (GPa) = 19.01879 23.31255 21.16567
#
# Velocity S-wave (km/s) = 3.10887 3.44197 3.27965
# Velocity P-wave (km/s) = 5.31129 6.01671 5.67497
#
# Compressibility (1/GPa) = 0.03316487
#
# Stress axis : x y z
#
# Youngs Moduli (GPa) = 68.52747 42.08904 87.06503
#
# Poissons Ratio (x) = 0.10169 0.12209
# Poissons Ratio (y) = 0.16557 0.39335
# Poissons Ratio (z) = 0.09609 0.19015
#
# Static dielectric constant tensor:
#      x y z
#    x 1.737580 0.000000 -0.012100 
#    y 0.000000 1.988360 0.000000 
#    z -0.012100 0.000000 1.691090 
# 
# From -- ./inp_files/82236.got.cif
#   From: 2010.05.17/outbox.cif.g08.bks.cpg/sg15_42_cif.got.tgz:82236.got - 2010.06.03 18:47:42.
