data_PCOD9265121
_publ_section_title
;
Structure prediction by ZEFSAII (Michael W. Deem and Ramdas Pophale) SiO2 
 PCOD9265121
Probable space group: C 2/C
;
_chemical_formula_sum "Si O2"
_cell_formula_units_Z 44
_cell_length_a 19.487199
_cell_length_b 21.497164
_cell_length_c 12.565086
_cell_angle_alpha 90.000000
_cell_angle_beta 25.570317
_cell_angle_gamma 90.000000
_cell_volume 2271.935974
_symmetry_space_group_name_H-M "C 2/C"
_symmetry_group_IT_number 15
_symmetry_cell_setting 'monoclinic'
loop_
_space_group_symop_operation_xyz
x,y,z
-x,y,1/2-z
-x,-y,-z
x,-y,1/2+z
1/2+x,1/2+y,z
1/2-x,1/2+y,1/2-z
1/2-x,1/2-y,-z
1/2+x,1/2-y,1/2+z
loop_
_atom_site_type_symbol
_atom_site_label
_atom_site_fract_x
_atom_site_fract_y
_atom_site_fract_z
Si Si1 0.376681 0.602637 0.781561
Si Si2 0.075702 0.763167 0.538582
Si Si3 0.083490 0.221683 0.458155
Si Si4 0.456469 0.144214 0.190190
Si Si5 0.222260 0.897163 0.328482
Si Si6 0.000000 0.993967 0.750000
O O1 0.503937 0.658316 0.607132
O O2 0.326758 0.595606 0.727451
O O3 0.443591 0.539139 0.734683
O O4 0.225546 0.624676 0.063074
O O5 0.229503 0.726337 0.280492
O O6 0.148666 0.830683 0.464877
O O7 0.000000 0.734814 0.750000
O O8 0.947722 0.772428 0.624959
O O9 0.992443 0.282191 0.630915
O O10 0.500000 0.126811 0.250000
O O11 0.586881 0.110166 0.934283
O O12 0.142760 0.950480 0.509145
#
# Coordination Sequence:
#
# PCOD9265121 Si02
#       6
#     8   8   8   8   8   4
#     4  10  22  34  56  85 110 143 184 236 279 322
#     4  10  19  36  58  81 116 152 185 232 279 340
#     4  10  21  33  58  87 118 140 189 232 288 343
#     4   9  19  37  59  79 114 147 181 231 281 342
#     4   9  20  39  55  78 106 157 191 215 279 332
#     4  12  22  34  60  76 118 144 190 232 260 342
#
# _framework density 19.366743
#
# number of rings (size 3 to 8) (size 9 to 14) (size 15 to 20)
#    0.000    2.182    0.909    2.727    3.818    0.727 
#    0.000    0.000    0.000    1.091    0.000    0.000 
#    0.000    0.000    0.000    0.000    0.000    0.000 
#
# Total GULP energy -122777.677034 kJ/mol
# GULP energy per Si atom -5580.803502 kJ/mol
# Density = 1.932266 g / cm^3
# Si number density = 19.366743 Si / 1000 Ang^3
#
#
#
# Elastic Constant Matrix: (Units=GPa)
#
#
# Indices 1 2 3 4 5 6 
#
# 1 25.9231 -0.8585 12.9427 -0.0075 -1.1429 0.0007
# 2 -0.8585 98.3800 50.3926 -0.0038 4.0123 0.0008
# 3 12.9427 50.3926 81.6083 -0.0120 12.7141 0.0034
# 4 -0.0075 -0.0038 -0.0120 18.0735 0.0078 -8.1973
# 5 -1.1429 4.0123 12.7141 0.0078 16.1956 -0.0009
# 6 0.0007 0.0008 0.0034 -8.1973 -0.0009 8.2741
#
#
#
# Elastic Compliance Matrix: (Units=1/GPa)
#
#
# Indices 1 2 3 4 5 6 
#
# 1 0.045984 0.006738 -0.013329 0.000014 0.012040 0.000016
# 2 0.006738 0.016087 -0.011912 -0.000005 0.005842 -0.000001
# 3 -0.013329 -0.011912 0.024394 0.000020 -0.017139 0.000010
# 4 0.000014 -0.000005 0.000020 0.100479 -0.000056 0.099546
# 5 0.012040 0.005842 -0.017139 -0.000056 0.074603 -0.000042
# 6 0.000016 -0.000001 0.000010 0.099546 -0.000042 0.219480
#
#
# Mechanical properties :
#
#
# Convention : Reuss Voigt Hill
#
# Bulk Modulus (GPa) = 20.21934 36.76277 28.49106
# Shear Modulus (GPa) = 9.35419 18.07096 13.71257
#
# Velocity S-wave (km/s) = 2.20012 3.05797 2.66380
# Velocity P-wave (km/s) = 4.11302 5.61176 4.91980
#
# Compressibility (1/GPa) = 0.04945761
#
# Stress axis : x y z
#
# Youngs Moduli (GPa) = 21.74651 62.16209 40.99442
#
# Poissons Ratio (x) = -0.41883 0.54642
# Poissons Ratio (y) = -0.14652 0.48834
# Poissons Ratio (z) = 0.28986 0.74049
#
# Static dielectric constant tensor:
#      x y z
#    x 1.689000 0.000000 0.011030 
#    y 0.000000 1.637310 0.000000 
#    z 0.011030 0.000000 1.703520 
# 
# From -- ./inp_files/30759.got.cif
#   From: 2010.05.17/outbox.cif.g08.bks.cpg/sg15_16_cif.got.tgz:30759.got - 2010.06.03 18:47:42.
