data_PCOD9265616
_publ_section_title
;
Structure prediction by ZEFSAII (Michael W. Deem and Ramdas Pophale) SiO2 
 PCOD9265616
Probable space group: C 2/C
;
_chemical_formula_sum "Si O2"
_cell_formula_units_Z 56
_cell_length_a 13.503289
_cell_length_b 15.793457
_cell_length_c 10.856697
_cell_angle_alpha 90.000000
_cell_angle_beta 85.063339
_cell_angle_gamma 90.000000
_cell_volume 2306.749548
_symmetry_space_group_name_H-M "C 2/C"
_symmetry_group_IT_number 15
_symmetry_cell_setting 'monoclinic'
loop_
_space_group_symop_operation_xyz
x,y,z
-x,y,1/2-z
-x,-y,-z
x,-y,1/2+z
1/2+x,1/2+y,z
1/2-x,1/2+y,1/2-z
1/2-x,1/2-y,-z
1/2+x,1/2-y,1/2+z
loop_
_atom_site_type_symbol
_atom_site_label
_atom_site_fract_x
_atom_site_fract_y
_atom_site_fract_z
Si Si1 0.500000 0.711481 0.250000
Si Si2 0.692089 0.319116 0.851632
Si Si3 0.683234 0.467045 0.185561
Si Si4 0.942935 0.639477 0.943619
Si Si5 0.257292 0.571095 0.556131
Si Si6 0.338815 0.257794 0.135196
Si Si7 0.000000 0.873535 0.250000
Si Si8 0.164781 0.358295 0.461899
O O1 0.412339 0.655418 0.199586
O O2 0.547189 0.779477 0.149081
O O3 0.759510 0.277886 0.739273
O O4 0.656753 0.243003 0.946499
O O5 0.769143 0.373864 0.923860
O O6 0.688892 0.475051 0.333439
O O7 0.574226 0.432334 0.164188
O O8 0.766151 0.394915 0.152474
O O9 0.713602 0.536593 0.081707
O O10 0.861864 0.571323 0.908865
O O11 0.053804 0.607527 0.959484
O O12 0.894115 0.679128 0.069290
O O13 0.287485 0.670462 0.556587
O O14 0.426218 0.312711 0.186413
#
# Coordination Sequence:
#
# PCOD9265616 Si02
#       8
#     4   8   8   8   8   8   4   8
#     4  10  20  34  59  96 131 166 204 276 342 390
#     4  10  19  36  62  95 135 167 215 274 334 397
#     4  11  25  45  68  92 135 182 228 274 329 404
#     4  11  22  39  67  95 130 169 217 277 347 389
#     4  11  24  45  65  93 133 181 226 275 330 403
#     4  11  21  39  65  97 129 172 216 281 336 407
#     4  10  22  42  67  92 131 178 218 282 342 394
#     4  10  21  39  64  98 128 169 220 273 333 403
#
# _framework density 24.276585000000001
#
# number of rings (size 3 to 8) (size 9 to 14) (size 15 to 20)
#    0.000    1.429    4.286    2.143    4.000    4.000 
#    0.000    0.714    0.000    0.000    0.000    0.000 
#    0.000    0.000    0.000    0.000    0.000    0.000 
#
# Total GULP energy -156402.254198 kJ/mol
# GULP energy per Si atom -5585.794793 kJ/mol
# Density = 2.422133 g / cm^3
# Si number density = 24.276585 Si / 1000 Ang^3
#
#
#
# Elastic Constant Matrix: (Units=GPa)
#
#
# Indices 1 2 3 4 5 6 
#
# 1 202.0585 12.2684 32.9085 0.0000 16.1628 0.0000
# 2 12.2684 22.9179 30.0356 0.0000 5.4654 0.0000
# 3 32.9085 30.0356 80.4521 0.0000 3.4854 0.0000
# 4 0.0000 0.0000 0.0000 41.4041 0.0000 9.6292
# 5 16.1628 5.4654 3.4854 0.0000 33.1366 0.0000
# 6 0.0000 0.0000 0.0000 9.6292 0.0000 15.8285
#
#
#
# Elastic Compliance Matrix: (Units=1/GPa)
#
#
# Indices 1 2 3 4 5 6 
#
# 1 0.005504 0.000925 -0.002485 0.000000 -0.002576 0.000000
# 2 0.000925 0.089610 -0.033325 0.000000 -0.011726 0.000000
# 3 -0.002485 -0.033325 0.025714 0.000000 0.004004 0.000000
# 4 0.000000 0.000000 0.000000 0.028132 0.000000 -0.017114
# 5 -0.002576 -0.011726 0.004004 0.000000 0.032947 0.000000
# 6 0.000000 0.000000 0.000000 -0.017114 0.000000 0.073589
#
#
# Mechanical properties :
#
#
# Convention : Reuss Voigt Hill
#
# Bulk Modulus (GPa) = 19.58574 50.65041 35.11807
# Shear Modulus (GPa) = 14.60771 33.42156 24.01464
#
# Velocity S-wave (km/s) = 2.45566 3.71442 3.14858
# Velocity P-wave (km/s) = 4.01567 6.26937 5.26453
#
# Compressibility (1/GPa) = 0.05105756
#
# Stress axis : x y z
#
# Youngs Moduli (GPa) = 181.69775 11.15948 38.88932
#
# Poissons Ratio (x) = -0.01032 0.09663
# Poissons Ratio (y) = -0.16799 1.29598
# Poissons Ratio (z) = 0.45149 0.37189
#
# Static dielectric constant tensor:
#      x y z
#    x 2.007140 0.000000 0.093110 
#    y 0.000000 2.023780 0.000000 
#    z 0.093110 0.000000 2.013630 
# 
# From -- ./inp_files/89008.got.cif
#   From: 2010.05.17/outbox.cif.g08.bks.cpg/sg15_45_cif.got.tgz:89008.got - 2010.06.03 18:47:42.
