data_PCOD9265301
_publ_section_title
;
Structure prediction by ZEFSAII (Michael W. Deem and Ramdas Pophale) SiO2 
 PCOD9265301
Probable space group: C 2/C
;
_chemical_formula_sum "Si O2"
_cell_formula_units_Z 48
_cell_length_a 14.745119
_cell_length_b 9.719672
_cell_length_c 20.098388
_cell_angle_alpha 90.000000
_cell_angle_beta 63.514993
_cell_angle_gamma 90.000000
_cell_volume 2578.154523
_symmetry_space_group_name_H-M "C 2/C"
_symmetry_group_IT_number 15
_symmetry_cell_setting 'monoclinic'
loop_
_space_group_symop_operation_xyz
x,y,z
-x,y,1/2-z
-x,-y,-z
x,-y,1/2+z
1/2+x,1/2+y,z
1/2-x,1/2+y,1/2-z
1/2-x,1/2-y,-z
1/2+x,1/2-y,1/2+z
loop_
_atom_site_type_symbol
_atom_site_label
_atom_site_fract_x
_atom_site_fract_y
_atom_site_fract_z
Si Si1 0.169783 0.234514 0.812261
Si Si2 0.981247 0.106885 0.065532
Si Si3 0.751575 0.445598 0.825907
Si Si4 0.338858 0.206677 0.419974
Si Si5 0.027880 0.939118 0.169680
Si Si6 0.977965 0.645239 0.038848
O O1 0.207724 0.345422 0.745862
O O2 0.127162 0.320093 0.889384
O O3 0.070670 0.152924 0.817293
O O4 0.245080 0.107895 0.807710
O O5 0.863664 0.100585 0.122541
O O6 0.041239 0.054176 0.109697
O O7 0.011926 0.249951 0.025224
O O8 0.000000 0.000000 0.000000
O O9 0.809155 0.410058 0.876180
O O10 0.250000 0.250000 0.500000
O O11 0.376220 0.338067 0.364590
O O12 0.433515 0.169499 0.435809
O O13 0.000000 0.998677 0.250000
O O14 0.000000 0.500000 0.000000
#
# Coordination Sequence:
#
# PCOD9265301 Si02
#       6
#     8   8   8   8   8   8
#     4  10  23  37  61  88 126 155 197 253 304 367
#     4  11  19  39  63  85 117 159 205 247 296 361
#     4  11  21  37  61  92 117 157 207 247 298 363
#     4  11  20  35  65  87 112 161 211 240 289 376
#     4  10  19  36  59  91 118 157 203 247 300 366
#     4  11  24  41  60  88 124 161 196 254 316 356
#
# _framework density 18.617968000000001
#
# number of rings (size 3 to 8) (size 9 to 14) (size 15 to 20)
#    0.000    1.333    8.333    0.000    2.333    0.000 
#    0.000    4.167    0.000    0.000    0.000    0.000 
#    0.000    0.000    0.000    0.000    0.000    0.000 
#
# Total GULP energy -133772.033032 kJ/mol
# GULP energy per Si atom -5573.834710 kJ/mol
# Density = 1.857559 g / cm^3
# Si number density = 18.617968 Si / 1000 Ang^3
#
#
#
# Elastic Constant Matrix: (Units=GPa)
#
#
# Indices 1 2 3 4 5 6 
#
# 1 39.4941 19.3495 21.5189 0.0000 0.3270 0.0000
# 2 19.3495 141.9879 82.7240 0.0000 3.6550 0.0000
# 3 21.5189 82.7240 147.5709 0.0000 2.5234 0.0000
# 4 0.0000 0.0000 0.0000 29.1058 0.0000 5.4698
# 5 0.3270 3.6550 2.5234 0.0000 27.8669 0.0000
# 6 0.0000 0.0000 0.0000 5.4698 0.0000 23.2770
#
#
#
# Elastic Compliance Matrix: (Units=1/GPa)
#
#
# Indices 1 2 3 4 5 6 
#
# 1 0.027934 -0.002134 -0.002881 0.000000 0.000213 0.000000
# 2 -0.002134 0.010641 -0.005639 0.000000 -0.000860 0.000000
# 3 -0.002881 -0.005639 0.010361 0.000000 -0.000165 0.000000
# 4 0.000000 0.000000 0.000000 0.035945 0.000000 -0.008447
# 5 0.000213 -0.000860 -0.000165 0.000000 0.036010 0.000000
# 6 0.000000 0.000000 0.000000 -0.008447 0.000000 0.044946
#
#
# Mechanical properties :
#
#
# Convention : Reuss Voigt Hill
#
# Bulk Modulus (GPa) = 36.19571 64.02640 50.11106
# Shear Modulus (GPa) = 25.46432 29.74731 27.60581
#
# Velocity S-wave (km/s) = 3.70229 4.00155 3.85483
# Velocity P-wave (km/s) = 6.14487 7.47089 6.84009
#
# Compressibility (1/GPa) = 0.02762758
#
# Stress axis : x y z
#
# Youngs Moduli (GPa) = 35.79926 93.97310 96.51972
#
# Poissons Ratio (x) = 0.20051 0.27806
# Poissons Ratio (y) = 0.07639 0.54431
# Poissons Ratio (z) = 0.10313 0.52995
#
# Static dielectric constant tensor:
#      x y z
#    x 1.596050 0.000000 -0.016120 
#    y 0.000000 1.659110 0.000000 
#    z -0.016120 0.000000 1.656590 
# 
# From -- ./inp_files/242305.got.cif
#   From: 2010.05.17/outbox.cif.g08.bks.cpg/sg15_122_cif.got.tgz:242305.got - 2010.06.03 18:47:42.
