data_PCOD9265403
_publ_section_title
;
Structure prediction by ZEFSAII (Michael W. Deem and Ramdas Pophale) SiO2 
 PCOD9265403
Probable space group: C 2/C
;
_chemical_formula_sum "Si O2"
_cell_formula_units_Z 52
_cell_length_a 11.499215
_cell_length_b 13.895283
_cell_length_c 24.392135
_cell_angle_alpha 90.000000
_cell_angle_beta 45.874347
_cell_angle_gamma 90.000000
_cell_volume 2797.677951
_symmetry_space_group_name_H-M "C 2/C"
_symmetry_group_IT_number 15
_symmetry_cell_setting 'monoclinic'
loop_
_space_group_symop_operation_xyz
x,y,z
-x,y,1/2-z
-x,-y,-z
x,-y,1/2+z
1/2+x,1/2+y,z
1/2-x,1/2+y,1/2-z
1/2-x,1/2-y,-z
1/2+x,1/2-y,1/2+z
loop_
_atom_site_type_symbol
_atom_site_label
_atom_site_fract_x
_atom_site_fract_y
_atom_site_fract_z
Si Si1 0.816588 0.733680 0.676170
Si Si2 0.708165 0.071732 0.251379
Si Si3 0.550815 0.414288 0.297302
Si Si4 0.000000 0.429730 0.250000
Si Si5 0.619866 0.895533 0.904579
Si Si6 0.395788 0.746630 0.334424
Si Si7 0.197591 0.608128 0.926564
O O1 0.735753 0.838307 0.702703
O O2 0.693735 0.664533 0.750303
O O3 0.834667 0.684365 0.611435
O O4 0.985503 0.744499 0.652878
O O5 0.647940 0.106830 0.330386
O O6 0.874652 0.013310 0.205873
O O7 0.582637 0.996595 0.267468
O O8 0.500000 0.424077 0.250000
O O9 0.385675 0.384521 0.381382
O O10 0.872821 0.355498 0.319582
O O11 0.736467 0.815797 0.893452
O O12 0.671699 0.001341 0.909221
O O13 0.434931 0.880051 0.982911
O O14 0.500000 0.700057 0.250000
#
# Coordination Sequence:
#
# PCOD9265403 Si02
#       7
#     8   8   8   4   8   8   8
#     4  11  21  35  62  89 118 157 208 246 304 356
#     4  12  21  37  65  89 114 168 203 254 295 365
#     4  10  19  38  61  86 119 152 207 252 287 366
#     4  10  22  36  58  88 122 144 218 250 292 348
#     4  11  21  37  63  89 123 157 204 249 313 342
#     4  10  19  36  60  90 112 158 200 255 287 364
#     4  10  23  37  57  96 124 155 195 262 300 363
#
# _framework density 18.586843999999999
#
# number of rings (size 3 to 8) (size 9 to 14) (size 15 to 20)
#    0.462    0.923    6.154    0.923    3.231    0.615 
#    0.000    2.308    0.000    1.846    0.000    0.000 
#    0.000    0.000    0.000    0.000    0.000    0.000 
#
# Total GULP energy -145058.777429 kJ/mol
# GULP energy per Si atom -5579.183747 kJ/mol
# Density = 1.854454 g / cm^3
# Si number density = 18.586844 Si / 1000 Ang^3
#
#
#
# Elastic Constant Matrix: (Units=GPa)
#
#
# Indices 1 2 3 4 5 6 
#
# 1 74.2426 31.3715 36.5482 0.0000 -8.6559 0.0000
# 2 31.3715 116.8111 27.6801 0.0000 -3.2326 0.0000
# 3 36.5482 27.6801 90.3699 0.0000 -22.0438 0.0000
# 4 0.0000 0.0000 0.0000 15.4653 0.0000 -7.0129
# 5 -8.6559 -3.2326 -22.0438 0.0000 17.8338 0.0000
# 6 0.0000 0.0000 0.0000 -7.0129 0.0000 34.1287
#
#
#
# Elastic Compliance Matrix: (Units=1/GPa)
#
#
# Indices 1 2 3 4 5 6 
#
# 1 0.017956 -0.003363 -0.006091 0.000000 0.000576 0.000000
# 2 -0.003363 0.009946 -0.002355 0.000000 -0.002740 0.000000
# 3 -0.006091 -0.002355 0.019220 0.000000 0.020374 0.000000
# 4 0.000000 0.000000 0.000000 0.071305 0.000000 0.014652
# 5 0.000576 -0.002740 0.020374 0.000000 0.081040 0.000000
# 6 0.000000 0.000000 0.000000 0.014652 0.000000 0.032312
#
#
# Mechanical properties :
#
#
# Convention : Reuss Voigt Hill
#
# Bulk Modulus (GPa) = 42.54518 52.51367 47.52943
# Shear Modulus (GPa) = 18.99463 25.87383 22.43423
#
# Velocity S-wave (km/s) = 3.20025 3.73507 3.47795
# Velocity P-wave (km/s) = 6.04939 6.84948 6.46183
#
# Compressibility (1/GPa) = 0.02350442
#
# Stress axis : x y z
#
# Youngs Moduli (GPa) = 55.69083 100.54087 52.02850
#
# Poissons Ratio (x) = 0.33813 0.31692
# Poissons Ratio (y) = 0.18729 0.12251
# Poissons Ratio (z) = 0.33923 0.23675
#
# Static dielectric constant tensor:
#      x y z
#    x 1.653270 0.000000 -0.017970 
#    y 0.000000 1.663680 0.000000 
#    z -0.017970 0.000000 1.640350 
# 
# From -- ./inp_files/292670.got.cif
#   From: 2010.05.17/outbox.cif.g08.bks.cpg/sg15_147_cif.got.tgz:292670.got - 2010.06.03 18:47:42.
