data_PCOD9265167
_publ_section_title
;
Structure prediction by ZEFSAII (Michael W. Deem and Ramdas Pophale) SiO2 
 PCOD9265167
Probable space group: C 2/C
;
_chemical_formula_sum "Si O2"
_cell_formula_units_Z 48
_cell_length_a 28.619930
_cell_length_b 13.460012
_cell_length_c 13.282040
_cell_angle_alpha 90.000000
_cell_angle_beta 150.558308
_cell_angle_gamma 90.000000
_cell_volume 2514.985695
_symmetry_space_group_name_H-M "C 2/C"
_symmetry_group_IT_number 15
_symmetry_cell_setting 'monoclinic'
loop_
_space_group_symop_operation_xyz
x,y,z
-x,y,1/2-z
-x,-y,-z
x,-y,1/2+z
1/2+x,1/2+y,z
1/2-x,1/2+y,1/2-z
1/2-x,1/2-y,-z
1/2+x,1/2-y,1/2+z
loop_
_atom_site_type_symbol
_atom_site_label
_atom_site_fract_x
_atom_site_fract_y
_atom_site_fract_z
Si Si1 0.174206 0.724115 0.942265
Si Si2 0.392559 0.329708 0.064990
Si Si3 0.784017 0.044295 0.193731
Si Si4 0.511552 0.707030 0.381937
Si Si5 0.418080 0.509544 0.264430
Si Si6 0.721120 0.320621 0.243075
O O1 0.191374 0.612622 0.012086
O O2 0.197702 0.794913 0.082343
O O3 0.250000 0.750000 0.000000
O O4 0.067899 0.739264 0.700798
O O5 0.500000 0.291251 0.250000
O O6 0.399205 0.412039 0.164922
O O7 0.356259 0.391334 0.898721
O O8 0.313302 0.246151 0.940019
O O9 0.826955 0.034111 0.162039
O O10 0.766986 0.937128 0.211526
O O11 0.500000 0.754734 0.250000
O O12 0.464897 0.597295 0.286839
O O13 0.622141 0.706589 0.615412
O O14 0.500000 0.500000 0.500000
#
# Coordination Sequence:
#
# PCOD9265167 Si02
#       6
#     8   8   8   8   8   8
#     4  10  20  35  62  89 114 157 202 241 286 360
#     4  11  22  38  57  85 118 152 196 246 296 354
#     4  11  22  37  58  91 115 154 198 245 301 341
#     4  10  19  36  58  87 114 148 195 244 283 345
#     4  12  20  33  63  86 114 149 199 249 294 347
#     4  10  22  37  56  87 122 149 190 250 301 340
#
# _framework density 19.085595999999999
#
# number of rings (size 3 to 8) (size 9 to 14) (size 15 to 20)
#    0.000    1.333    5.000    2.500    0.000    0.667 
#    0.000    4.167    0.000    1.000    0.000    0.000 
#    0.000    0.000    0.000    0.000    0.000    0.000 
#
# Total GULP energy -133693.528502 kJ/mol
# GULP energy per Si atom -5570.563688 kJ/mol
# Density = 1.904216 g / cm^3
# Si number density = 19.085596 Si / 1000 Ang^3
#
#
#
# Elastic Constant Matrix: (Units=GPa)
#
#
# Indices 1 2 3 4 5 6 
#
# 1 91.0940 39.8339 30.9316 0.0000 22.8436 0.0000
# 2 39.8339 97.7832 75.7170 0.0000 34.8588 0.0000
# 3 30.9316 75.7170 111.5748 0.0000 35.8750 0.0000
# 4 0.0000 0.0000 0.0000 28.3939 0.0000 6.7026
# 5 22.8436 34.8588 35.8750 0.0000 33.5502 0.0000
# 6 0.0000 0.0000 0.0000 6.7026 0.0000 23.4958
#
#
#
# Elastic Compliance Matrix: (Units=1/GPa)
#
#
# Indices 1 2 3 4 5 6 
#
# 1 0.014070 -0.004313 0.001014 0.000000 -0.006184 0.000000
# 2 -0.004313 0.025489 -0.013000 0.000000 -0.009645 0.000000
# 3 0.001014 -0.013000 0.020395 0.000000 -0.008991 0.000000
# 4 0.000000 0.000000 0.000000 0.037762 0.000000 -0.010772
# 5 -0.006184 -0.009645 -0.008991 0.000000 0.053652 0.000000
# 6 0.000000 0.000000 0.000000 -0.010772 0.000000 0.045634
#
#
# Mechanical properties :
#
#
# Convention : Reuss Voigt Hill
#
# Bulk Modulus (GPa) = 36.55530 65.93522 51.24526
# Shear Modulus (GPa) = 20.94542 27.35262 24.14902
#
# Velocity S-wave (km/s) = 3.31637 3.78981 3.56097
# Velocity P-wave (km/s) = 5.81888 7.33296 6.61935
#
# Compressibility (1/GPa) = 0.02735581
#
# Stress axis : x y z
#
# Youngs Moduli (GPa) = 71.07453 39.23334 49.03280
#
# Poissons Ratio (x) = 0.16920 -0.04974
# Poissons Ratio (y) = 0.30652 0.63743
# Poissons Ratio (z) = -0.07209 0.51004
#
# Static dielectric constant tensor:
#      x y z
#    x 1.584910 0.000000 0.006730 
#    y 0.000000 1.833680 0.000000 
#    z 0.006730 0.000000 1.714820 
# 
# From -- ./inp_files/152077.got.cif
#   From: 2010.05.17/outbox.cif.g08.bks.cpg/sg15_77_cif.got.tgz:152077.got - 2010.06.03 18:47:42.
