data_PCOD9265964
_publ_section_title
;
Structure prediction by ZEFSAII (Michael W. Deem and Ramdas Pophale) SiO2 
 PCOD9265964
Probable space group: C 2/C
;
_chemical_formula_sum "Si O2"
_cell_formula_units_Z 48
_cell_length_a 10.673151
_cell_length_b 10.008517
_cell_length_c 19.321001
_cell_angle_alpha 90.000000
_cell_angle_beta 80.004217
_cell_angle_gamma 90.000000
_cell_volume 2032.586804
_symmetry_space_group_name_H-M "C 2/C"
_symmetry_group_IT_number 15
_symmetry_cell_setting 'monoclinic'
loop_
_space_group_symop_operation_xyz
x,y,z
-x,y,1/2-z
-x,-y,-z
x,-y,1/2+z
1/2+x,1/2+y,z
1/2-x,1/2+y,1/2-z
1/2-x,1/2-y,-z
1/2+x,1/2-y,1/2+z
loop_
_atom_site_type_symbol
_atom_site_label
_atom_site_fract_x
_atom_site_fract_y
_atom_site_fract_z
Si Si1 0.530463 0.031582 0.149612
Si Si2 0.785586 0.846154 0.932921
Si Si3 0.622128 0.718397 0.825144
Si Si4 0.042117 0.037979 0.416734
Si Si5 0.129128 0.352116 0.259160
Si Si6 0.222514 0.600118 0.024810
O O1 0.486296 0.175507 0.178681
O O2 0.623468 0.960883 0.196397
O O3 0.410342 0.931336 0.168098
O O4 0.587769 0.055818 0.069020
O O5 0.707344 0.787147 0.877361
O O6 0.936843 0.854620 0.904394
O O7 0.750000 0.750000 0.000000
O O8 0.752712 0.995434 0.961259
O O9 0.557211 0.585574 0.862909
O O10 0.728567 0.700104 0.755723
O O11 0.183713 0.085779 0.418213
O O12 0.000000 0.000000 0.500000
O O13 0.000000 0.268850 0.250000
O O14 0.250000 0.750000 0.000000
#
# Coordination Sequence:
#
# PCOD9265964 Si02
#       6
#     8   8   8   8   8   8
#     4   9  20  39  64  85 122 169 206 256 318 374
#     4  11  22  36  61  95 124 171 206 245 324 383
#     4  12  20  42  65  87 130 158 216 263 310 378
#     4  10  19  37  58  87 129 163 191 261 311 363
#     4   8  20  43  58  86 122 162 212 259 310 364
#     4  11  21  39  61  97 134 164 206 263 322 379
#
# _framework density 23.615227000000001
#
# number of rings (size 3 to 8) (size 9 to 14) (size 15 to 20)
#    1.000    0.667    5.000    2.000    0.000    0.667 
#    6.000    6.667    0.000    0.000    0.000    0.000 
#    0.000    0.000    0.000    0.000    0.000    0.000 
#
# Total GULP energy -133763.396126 kJ/mol
# GULP energy per Si atom -5573.474839 kJ/mol
# Density = 2.356148 g / cm^3
# Si number density = 23.615227 Si / 1000 Ang^3
#
#
#
# Elastic Constant Matrix: (Units=GPa)
#
#
# Indices 1 2 3 4 5 6 
#
# 1 58.7132 11.1143 18.8550 0.0000 -8.9914 0.0000
# 2 11.1143 87.4997 14.8680 0.0000 -5.1044 0.0000
# 3 18.8550 14.8680 76.8798 0.0000 -25.5287 0.0000
# 4 0.0000 0.0000 0.0000 34.7150 0.0000 -10.6704
# 5 -8.9914 -5.1044 -25.5287 0.0000 42.7037 0.0000
# 6 0.0000 0.0000 0.0000 -10.6704 0.0000 42.0360
#
#
#
# Elastic Compliance Matrix: (Units=1/GPa)
#
#
# Indices 1 2 3 4 5 6 
#
# 1 0.018792 -0.001655 -0.003794 0.000000 0.001491 0.000000
# 2 -0.001655 0.011963 -0.001932 0.000000 -0.000074 0.000000
# 3 -0.003794 -0.001932 0.017429 0.000000 0.009390 0.000000
# 4 0.000000 0.000000 0.000000 0.031244 0.000000 0.007931
# 5 0.001491 -0.000074 0.009390 0.000000 0.029336 0.000000
# 6 0.000000 0.000000 0.000000 0.007931 0.000000 0.025802
#
#
# Mechanical properties :
#
#
# Convention : Reuss Voigt Hill
#
# Bulk Modulus (GPa) = 29.92017 34.75191 32.33604
# Shear Modulus (GPa) = 31.15885 35.77465 33.46675
#
# Velocity S-wave (km/s) = 3.63635 3.89639 3.76861
# Velocity P-wave (km/s) = 5.50709 5.91526 5.71482
#
# Compressibility (1/GPa) = 0.03342227
#
# Stress axis : x y z
#
# Youngs Moduli (GPa) = 53.21452 83.59200 57.37477
#
# Poissons Ratio (x) = 0.13838 0.21765
# Poissons Ratio (y) = 0.08809 0.11085
# Poissons Ratio (z) = 0.20187 0.16150
#
# Static dielectric constant tensor:
#      x y z
#    x 1.991770 0.000000 -0.049560 
#    y 0.000000 1.911750 0.000000 
#    z -0.049560 0.000000 2.056570 
# 
# From -- ./inp_files/268034.got.cif
#   From: 2010.05.17/outbox.cif.g08.bks.cpg/sg15_135_cif.got.tgz:268034.got - 2010.06.03 18:47:42.
