data_PCOD9265831
_publ_section_title
;
Structure prediction by ZEFSAII (Michael W. Deem and Ramdas Pophale) SiO2 
 PCOD9265831
Probable space group: C 2/C
;
_chemical_formula_sum "Si O2"
_cell_formula_units_Z 52
_cell_length_a 25.728796
_cell_length_b 17.306508
_cell_length_c 23.499920
_cell_angle_alpha 90.000000
_cell_angle_beta 162.888357
_cell_angle_gamma 90.000000
_cell_volume 3078.853004
_symmetry_space_group_name_H-M "C 2/C"
_symmetry_group_IT_number 15
_symmetry_cell_setting 'monoclinic'
loop_
_space_group_symop_operation_xyz
x,y,z
-x,y,1/2-z
-x,-y,-z
x,-y,1/2+z
1/2+x,1/2+y,z
1/2-x,1/2+y,1/2-z
1/2-x,1/2-y,-z
1/2+x,1/2-y,1/2+z
loop_
_atom_site_type_symbol
_atom_site_label
_atom_site_fract_x
_atom_site_fract_y
_atom_site_fract_z
Si Si1 0.610784 0.553873 0.160279
Si Si2 0.000000 0.946165 0.250000
Si Si3 0.481983 0.979485 0.547794
Si Si4 0.435728 0.348387 0.987979
Si Si5 0.697584 0.169797 0.475656
Si Si6 0.167838 0.678808 0.580203
Si Si7 0.359400 0.501622 0.485561
O O1 0.649966 0.627434 0.161743
O O2 0.480651 0.558348 0.077472
O O3 0.794206 0.514645 0.370107
O O4 0.500000 0.500000 0.000000
O O5 0.156596 0.892263 0.389665
O O6 0.080643 0.993228 0.386931
O O7 0.470362 0.887317 0.546337
O O8 0.500000 0.000000 0.500000
O O9 0.652291 0.011779 0.758578
O O10 0.381924 0.264311 0.952846
O O11 0.645635 0.345522 0.198113
O O12 0.395631 0.414375 0.993155
O O13 0.500000 0.147743 0.250000
O O14 0.750000 0.250000 0.500000
O O15 0.693438 0.179182 0.539115
#
# Coordination Sequence:
#
# PCOD9265831 Si02
#       7
#     8   4   8   8   8   8   8
#     4  10  19  37  53  73 102 137 174 225 269 310
#     4  12  22  36  52  74 104 144 184 222 254 316
#     4  12  20  35  58  75 101 146 181 214 272 322
#     4  11  20  34  51  74 106 140 176 220 262 306
#     4  12  22  35  47  67 105 149 185 217 250 297
#     4  12  22  34  49  76 108 142 181 220 258 305
#     4  11  21  37  53  76 104 142 182 221 267 311
#
# _framework density 16.889406999999999
#
# number of rings (size 3 to 8) (size 9 to 14) (size 15 to 20)
#    0.000    0.615    8.462    3.692    0.000    0.000 
#    0.000    0.000    0.000    0.000    0.000    0.000 
#    0.000    4.923    0.000    0.154    0.000    0.000 
#
# Total GULP energy -145176.481406 kJ/mol
# GULP energy per Si atom -5583.710823 kJ/mol
# Density = 1.685097 g / cm^3
# Si number density = 16.889407 Si / 1000 Ang^3
#
#
#
# Elastic Constant Matrix: (Units=GPa)
#
#
# Indices 1 2 3 4 5 6 
#
# 1 101.1855 40.3344 31.4620 0.0040 -15.9003 0.0019
# 2 40.3344 36.8615 2.7588 0.0221 -7.3119 0.0282
# 3 31.4620 2.7588 114.8037 0.0026 3.1424 0.0071
# 4 0.0040 0.0221 0.0026 17.1967 -0.0027 -1.3517
# 5 -15.9003 -7.3119 3.1424 -0.0027 34.4534 -0.0006
# 6 0.0019 0.0282 0.0071 -1.3517 -0.0006 18.8705
#
#
#
# Elastic Compliance Matrix: (Units=1/GPa)
#
#
# Indices 1 2 3 4 5 6 
#
# 1 0.020996 -0.021454 -0.005392 0.000027 0.005628 0.000034
# 2 -0.021454 0.050326 0.004660 -0.000067 0.000354 -0.000080
# 3 -0.005392 0.004660 0.010143 -0.000007 -0.002425 -0.000011
# 4 0.000027 -0.000067 -0.000007 0.058480 0.000004 0.004189
# 5 0.005628 0.000354 -0.002425 0.000004 0.031919 0.000001
# 6 0.000034 -0.000080 -0.000011 0.004189 0.000001 0.053293
#
#
# Mechanical properties :
#
#
# Convention : Reuss Voigt Hill
#
# Bulk Modulus (GPa) = 26.96000 44.66235 35.81117
# Shear Modulus (GPa) = 17.73728 25.99048 21.86388
#
# Velocity S-wave (km/s) = 3.24420 3.92709 3.60186
# Velocity P-wave (km/s) = 5.48000 6.86033 6.20864
#
# Compressibility (1/GPa) = 0.03709199
#
# Stress axis : x y z
#
# Youngs Moduli (GPa) = 47.62808 19.87060 98.59304
#
# Poissons Ratio (x) = 0.42631 0.53166
# Poissons Ratio (y) = 1.02182 -0.45949
# Poissons Ratio (z) = 0.25683 -0.09261
#
# Static dielectric constant tensor:
#      x y z
#    x 1.550440 -0.000040 0.014270 
#    y -0.000040 1.587770 -0.000010 
#    z 0.014270 -0.000010 1.613340 
# 
# From -- ./inp_files/255865.got.cif
#   From: 2010.05.17/outbox.cif.g08.bks.cpg/sg15_128_cif.got.tgz:255865.got - 2010.06.03 18:47:42.
