data_PCOD9265031
_publ_section_title
;
Structure prediction by ZEFSAII (Michael W. Deem and Ramdas Pophale) SiO2 
 PCOD9265031
Probable space group: C 2/C
;
_chemical_formula_sum "Si O2"
_cell_formula_units_Z 56
_cell_length_a 22.239652
_cell_length_b 14.243359
_cell_length_c 10.685212
_cell_angle_alpha 90.000000
_cell_angle_beta 68.470634
_cell_angle_gamma 90.000000
_cell_volume 3148.572563
_symmetry_space_group_name_H-M "C 2/C"
_symmetry_group_IT_number 15
_symmetry_cell_setting 'monoclinic'
loop_
_space_group_symop_operation_xyz
x,y,z
-x,y,1/2-z
-x,-y,-z
x,-y,1/2+z
1/2+x,1/2+y,z
1/2-x,1/2+y,1/2-z
1/2-x,1/2-y,-z
1/2+x,1/2-y,1/2+z
loop_
_atom_site_type_symbol
_atom_site_label
_atom_site_fract_x
_atom_site_fract_y
_atom_site_fract_z
Si Si1 0.582386 0.313939 0.800791
Si Si2 0.621747 0.578750 0.513857
Si Si3 0.351509 0.658241 0.744209
Si Si4 0.285028 0.182986 0.155115
Si Si5 0.741978 0.488223 0.305661
Si Si6 0.672655 0.827141 0.153514
Si Si7 0.938922 0.109459 0.443095
O O1 0.605196 0.207145 0.764358
O O2 0.599255 0.361304 0.654088
O O3 0.507609 0.339666 0.879928
O O4 0.617377 0.360257 0.891903
O O5 0.622774 0.640758 0.637014
O O6 0.688056 0.519298 0.448888
O O7 0.563053 0.503712 0.559242
O O8 0.321264 0.758930 0.735760
O O9 0.296595 0.580288 0.758716
O O10 0.404720 0.639263 0.596822
O O11 0.223995 0.247395 0.160423
O O12 0.265690 0.081313 0.218908
O O13 0.327453 0.174783 0.996727
O O14 0.798617 0.425802 0.322395
#
# Coordination Sequence:
#
# PCOD9265031 Si02
#       7
#     8   8   8   8   8   8   8
#     4  11  21  37  56  81 112 151 193 228 277 340
#     4  11  21  34  54  89 121 144 181 236 283 345
#     4  10  21  35  56  84 117 147 183 230 289 335
#     4  10  19  36  57  79 115 153 188 231 282 338
#     4  10  20  34  55  84 116 150 190 231 280 334
#     4  10  20  35  57  80 111 155 192 230 278 342
#     4  10  21  36  57  79 109 154 192 225 279 336
#
# _framework density 17.785837000000001
#
# number of rings (size 3 to 8) (size 9 to 14) (size 15 to 20)
#    0.000    1.714    2.857    3.000    2.000    2.286 
#    2.571    0.000    0.000    0.857    0.000    0.000 
#    0.000    0.000    0.000    0.000    0.000    0.000 
#
# Total GULP energy -156173.133021 kJ/mol
# GULP energy per Si atom -5577.611894 kJ/mol
# Density = 1.774536 g / cm^3
# Si number density = 17.785837 Si / 1000 Ang^3
#
#
#
# Elastic Constant Matrix: (Units=GPa)
#
#
# Indices 1 2 3 4 5 6 
#
# 1 61.0533 41.2570 48.2359 0.0000 -0.9126 0.0000
# 2 41.2570 109.8378 50.0857 0.0000 -5.6502 0.0000
# 3 48.2359 50.0857 106.5823 0.0000 12.7795 0.0000
# 4 0.0000 0.0000 0.0000 22.9978 0.0000 -4.7183
# 5 -0.9126 -5.6502 12.7795 0.0000 24.0820 0.0000
# 6 0.0000 0.0000 0.0000 -4.7183 0.0000 26.1604
#
#
#
# Elastic Compliance Matrix: (Units=1/GPa)
#
#
# Indices 1 2 3 4 5 6 
#
# 1 0.029084 -0.005481 -0.011283 0.000000 0.005803 0.000000
# 2 -0.005481 0.013490 -0.004500 0.000000 0.005345 0.000000
# 3 -0.011283 -0.004500 0.017921 0.000000 -0.010993 0.000000
# 4 0.000000 0.000000 0.000000 0.045153 0.000000 0.008144
# 5 0.005803 0.005345 -0.010993 0.000000 0.048833 0.000000
# 6 0.000000 0.000000 0.000000 0.008144 0.000000 0.039694
#
#
# Mechanical properties :
#
#
# Convention : Reuss Voigt Hill
#
# Bulk Modulus (GPa) = 55.65330 61.84784 58.75057
# Shear Modulus (GPa) = 20.60238 23.84104 22.22171
#
# Velocity S-wave (km/s) = 3.40716 3.66519 3.53853
# Velocity P-wave (km/s) = 6.84376 7.26365 7.05683
#
# Compressibility (1/GPa) = 0.01796839
#
# Stress axis : x y z
#
# Youngs Moduli (GPa) = 34.38367 74.12984 55.79994
#
# Poissons Ratio (x) = 0.40630 0.62957
# Poissons Ratio (y) = 0.18846 0.25108
# Poissons Ratio (z) = 0.38794 0.33355
#
# Static dielectric constant tensor:
#      x y z
#    x 1.669050 0.000000 -0.007810 
#    y 0.000000 1.611730 0.000000 
#    z -0.007810 0.000000 1.607940 
# 
# From -- ./inp_files/61499.got.cif
#   From: 2010.05.17/outbox.cif.g08.bks.cpg/sg15_31_cif.got.tgz:61499.got - 2010.06.03 18:47:42.
