data_PCOD9265802
_publ_section_title
;
Structure prediction by ZEFSAII (Michael W. Deem and Ramdas Pophale) SiO2 
 PCOD9265802
Probable space group: C 2/C
;
_chemical_formula_sum "Si O2"
_cell_formula_units_Z 56
_cell_length_a 18.523422
_cell_length_b 26.044528
_cell_length_c 5.369165
_cell_angle_alpha 90.000000
_cell_angle_beta 66.851846
_cell_angle_gamma 90.000000
_cell_volume 2381.727935
_symmetry_space_group_name_H-M "C 2/C"
_symmetry_group_IT_number 15
_symmetry_cell_setting 'monoclinic'
loop_
_space_group_symop_operation_xyz
x,y,z
-x,y,1/2-z
-x,-y,-z
x,-y,1/2+z
1/2+x,1/2+y,z
1/2-x,1/2+y,1/2-z
1/2-x,1/2-y,-z
1/2+x,1/2-y,1/2+z
loop_
_atom_site_type_symbol
_atom_site_label
_atom_site_fract_x
_atom_site_fract_y
_atom_site_fract_z
Si Si1 0.500000 0.193582 0.750000
Si Si2 0.000000 0.241708 0.750000
Si Si3 0.123328 0.514971 0.685335
Si Si4 0.724895 0.292231 0.324284
Si Si5 0.080819 0.834910 0.782179
Si Si6 0.154777 0.628589 0.615628
Si Si7 0.786631 0.865979 0.555863
Si Si8 0.301246 0.474596 0.353205
O O1 0.519136 0.224122 0.467152
O O2 0.576082 0.159957 0.693871
O O3 0.059902 0.202864 0.537413
O O4 0.084237 0.514455 0.466602
O O5 0.134992 0.573475 0.749083
O O6 0.209391 0.491131 0.504579
O O7 0.750000 0.250000 0.500000
O O8 0.634881 0.304174 0.515391
O O9 0.786441 0.337307 0.303360
O O10 0.721653 0.306335 0.030345
O O11 0.000000 0.851120 0.750000
O O12 0.144642 0.871378 0.828513
O O13 0.203822 0.620806 0.295268
O O14 0.806892 0.912794 0.341890
O O15 0.335192 0.498838 0.561248
#
# Coordination Sequence:
#
# PCOD9265802 Si02
#       8
#     4   4   8   8   8   8   8   8
#     4  12  30  44  72  95 148 193 246 292 356 418
#     4  12  26  52  68  95 134 203 228 286 364 422
#     4  10  19  36  67  94 135 182 228 289 353 413
#     4  11  25  41  68 106 139 183 240 301 351 432
#     4  11  25  45  72 101 139 184 239 293 364 434
#     4  11  25  42  65 106 139 190 244 295 350 425
#     4  11  24  40  75 105 144 183 247 298 357 434
#     4  10  19  37  66 103 137 186 229 290 366 422
#
# _framework density 23.512343999999999
#
# number of rings (size 3 to 8) (size 9 to 14) (size 15 to 20)
#    0.000    1.143    3.571    3.429    8.000    1.143 
#    0.000    0.714    0.000    0.857    0.000    0.000 
#    0.000    0.000    0.000    0.000    0.000    0.000 
#
# Total GULP energy -155942.603833 kJ/mol
# GULP energy per Si atom -5569.378708 kJ/mol
# Density = 2.345883 g / cm^3
# Si number density = 23.512344 Si / 1000 Ang^3
#
#
#
# Elastic Constant Matrix: (Units=GPa)
#
#
# Indices 1 2 3 4 5 6 
#
# 1 99.5175 32.3376 29.5254 0.0000 -3.8498 0.0000
# 2 32.3376 77.1608 4.5875 0.0000 20.7936 0.0000
# 3 29.5254 4.5875 101.0138 0.0000 29.4073 0.0000
# 4 0.0000 0.0000 0.0000 41.6752 0.0000 9.1552
# 5 -3.8498 20.7936 29.4073 0.0000 38.5981 0.0000
# 6 0.0000 0.0000 0.0000 9.1552 0.0000 15.1436
#
#
#
# Elastic Compliance Matrix: (Units=1/GPa)
#
#
# Indices 1 2 3 4 5 6 
#
# 1 0.016123 -0.009787 -0.008059 0.000000 0.013020 0.000000
# 2 -0.009787 0.021481 0.007117 0.000000 -0.017971 0.000000
# 3 -0.008059 0.007117 0.017068 0.000000 -0.017641 0.000000
# 4 0.000000 0.000000 0.000000 0.027670 0.000000 -0.016728
# 5 0.013020 -0.017971 -0.017641 0.000000 0.050329 0.000000
# 6 0.000000 0.000000 0.000000 -0.016728 0.000000 0.076147
#
#
# Mechanical properties :
#
#
# Convention : Reuss Voigt Hill
#
# Bulk Modulus (GPa) = 30.10734 45.62146 37.86440
# Shear Modulus (GPa) = 20.71704 33.16615 26.94159
#
# Velocity S-wave (km/s) = 2.97158 3.75985 3.38871
# Velocity P-wave (km/s) = 4.96048 6.18821 5.60804
#
# Compressibility (1/GPa) = 0.03321450
#
# Stress axis : x y z
#
# Youngs Moduli (GPa) = 62.02222 46.55224 58.59013
#
# Poissons Ratio (x) = 0.45560 0.47216
# Poissons Ratio (y) = 0.60700 -0.41697
# Poissons Ratio (z) = 0.49982 -0.33130
#
# Static dielectric constant tensor:
#      x y z
#    x 1.988260 0.000000 0.137870 
#    y 0.000000 1.952760 0.000000 
#    z 0.137870 0.000000 1.973200 
# 
# From -- ./inp_files/11538.got.cif
#   From: 2010.05.17/outbox.cif.g08.bks.cpg/sg15_6_cif.got.tgz:11538.got - 2010.06.03 18:47:42.
