data_PCOD9265798
_publ_section_title
;
Structure prediction by ZEFSAII (Michael W. Deem and Ramdas Pophale) SiO2 
 PCOD9265798
Probable space group: C 2/C
;
_chemical_formula_sum "Si O2"
_cell_formula_units_Z 56
_cell_length_a 21.761537
_cell_length_b 22.336693
_cell_length_c 14.446664
_cell_angle_alpha 90.000000
_cell_angle_beta 160.045109
_cell_angle_gamma 90.000000
_cell_volume 2396.553494
_symmetry_space_group_name_H-M "C 2/C"
_symmetry_group_IT_number 15
_symmetry_cell_setting 'monoclinic'
loop_
_space_group_symop_operation_xyz
x,y,z
-x,y,1/2-z
-x,-y,-z
x,-y,1/2+z
1/2+x,1/2+y,z
1/2-x,1/2+y,1/2-z
1/2-x,1/2-y,-z
1/2+x,1/2-y,1/2+z
loop_
_atom_site_type_symbol
_atom_site_label
_atom_site_fract_x
_atom_site_fract_y
_atom_site_fract_z
Si Si1 0.435580 0.416699 0.862856
Si Si2 0.088223 0.216552 0.220152
Si Si3 0.673667 0.212750 0.664607
Si Si4 0.643953 0.383385 0.333200
Si Si5 0.831581 0.572630 0.836661
Si Si6 0.500000 0.081411 0.250000
Si Si7 0.500000 0.722761 0.750000
Si Si8 0.189643 0.008601 0.469859
O O1 0.367541 0.353368 0.728029
O O2 0.315161 0.467572 0.643337
O O3 0.478794 0.405737 0.032792
O O4 0.632566 0.429173 0.099344
O O5 0.250000 0.250000 0.500000
O O6 0.076595 0.246781 0.103252
O O7 0.889718 0.219200 0.983478
O O8 0.623436 0.143214 0.607994
O O9 0.619571 0.237732 0.488012
O O10 0.822572 0.380591 0.523176
O O11 0.609295 0.322558 0.337922
O O12 0.685135 0.437125 0.462085
O O13 0.830626 0.540181 0.737315
O O14 0.954903 0.545933 0.092713
O O15 0.000000 0.026520 0.250000
#
# Coordination Sequence:
#
# PCOD9265798 Si02
#       8
#     8   8   8   8   8   4   4   8
#     4   9  19  38  60  90 124 166 221 263 330 402
#     4  11  22  40  65  92 131 175 219 276 337 398
#     4  11  24  40  64  97 133 172 224 281 329 407
#     4  11  22  41  64  94 129 172 221 277 337 397
#     4   9  20  38  60  92 125 174 216 267 336 400
#     4  10  23  40  62  90 134 168 219 276 340 414
#     4  12  25  42  64 102 136 174 229 282 338 392
#     4  10  19  36  67  92 121 172 226 272 323 406
#
# _framework density 23.366889
#
# number of rings (size 3 to 8) (size 9 to 14) (size 15 to 20)
#    0.000    1.714    2.143    2.143    2.000    3.429 
#    0.000    0.000    6.286    0.000    0.000    0.000 
#    0.000    0.000    0.000    0.000    0.000    0.000 
#
# Total GULP energy -156418.952934 kJ/mol
# GULP energy per Si atom -5586.391176 kJ/mol
# Density = 2.331371 g / cm^3
# Si number density = 23.366889 Si / 1000 Ang^3
#
#
#
# Elastic Constant Matrix: (Units=GPa)
#
#
# Indices 1 2 3 4 5 6 
#
# 1 75.9173 22.8103 20.3251 0.0000 -14.6383 0.0000
# 2 22.8103 115.3019 53.5832 0.0000 -26.8387 0.0000
# 3 20.3251 53.5832 103.1721 -0.0001 -26.6537 0.0000
# 4 0.0000 0.0000 -0.0001 23.1054 0.0000 -13.8727
# 5 -14.6383 -26.8387 -26.6537 0.0000 33.9074 0.0000
# 6 0.0000 0.0000 0.0000 -13.8727 0.0000 42.4939
#
#
#
# Elastic Compliance Matrix: (Units=1/GPa)
#
#
# Indices 1 2 3 4 5 6 
#
# 1 0.014724 -0.001403 -0.001025 0.000000 0.004441 0.000000
# 2 -0.001403 0.012446 -0.004767 0.000000 0.005498 0.000000
# 3 -0.001025 -0.004767 0.014156 0.000000 0.006912 0.000000
# 4 0.000000 0.000000 0.000000 0.053831 0.000000 0.017574
# 5 0.004441 0.005498 0.006912 0.000000 0.041194 0.000000
# 6 0.000000 0.000000 0.000000 0.017574 0.000000 0.029270
#
#
# Mechanical properties :
#
#
# Convention : Reuss Voigt Hill
#
# Bulk Modulus (GPa) = 37.12480 54.20314 45.66397
# Shear Modulus (GPa) = 26.45646 33.07953 29.76800
#
# Velocity S-wave (km/s) = 3.36850 3.76661 3.57310
# Velocity P-wave (km/s) = 5.57237 6.49333 6.05040
#
# Compressibility (1/GPa) = 0.02693617
#
# Stress axis : x y z
#
# Youngs Moduli (GPa) = 67.91445 80.35026 70.64250
#
# Poissons Ratio (x) = 0.11273 0.07240
# Poissons Ratio (y) = 0.09529 0.33674
# Poissons Ratio (z) = 0.06960 0.38302
#
# Static dielectric constant tensor:
#      x y z
#    x 1.925640 0.000000 -0.015830 
#    y 0.000000 1.872100 0.000000 
#    z -0.015830 0.000000 1.969530 
# 
# From -- ./inp_files/174791.got.cif
#   From: 2010.05.17/outbox.cif.g08.bks.cpg/sg15_88_cif.got.tgz:174791.got - 2010.06.03 18:47:42.
