data_PCOD9265344
_publ_section_title
;
Structure prediction by ZEFSAII (Michael W. Deem and Ramdas Pophale) SiO2 
 PCOD9265344
Probable space group: C 2/C
;
_chemical_formula_sum "Si O2"
_cell_formula_units_Z 32
_cell_length_a 22.694376
_cell_length_b 6.345546
_cell_length_c 15.670636
_cell_angle_alpha 90.000000
_cell_angle_beta 34.484519
_cell_angle_gamma 90.000000
_cell_volume 1277.706507
_symmetry_space_group_name_H-M "C 2/C"
_symmetry_group_IT_number 15
_symmetry_cell_setting 'monoclinic'
loop_
_space_group_symop_operation_xyz
x,y,z
-x,y,1/2-z
-x,-y,-z
x,-y,1/2+z
1/2+x,1/2+y,z
1/2-x,1/2+y,1/2-z
1/2-x,1/2-y,-z
1/2+x,1/2-y,1/2+z
loop_
_atom_site_type_symbol
_atom_site_label
_atom_site_fract_x
_atom_site_fract_y
_atom_site_fract_z
Si Si1 0.843882 0.445858 0.636057
Si Si2 0.328298 0.048541 0.834972
Si Si3 0.891277 0.118335 0.128391
Si Si4 0.892693 0.776479 0.909273
O O1 0.854887 0.394427 0.724390
O O2 0.898818 0.671990 0.560863
O O3 0.720725 0.478834 0.764732
O O4 0.890869 0.293000 0.509824
O O5 0.365553 0.273170 0.750097
O O6 0.373991 0.063662 0.874597
O O7 0.204249 0.068988 0.988834
O O8 0.000000 0.000000 0.000000
O O9 0.000000 0.870949 0.750000
#
# Coordination Sequence:
#
# PCOD9265344 Si02
#       4
#     8   8   8   8
#     4   9  20  38  60  89 121 158 210 248 304 372
#     4   8  20  35  58  88 115 161 204 248 301 373
#     4   9  19  37  64  86 121 162 201 251 309 359
#     4  10  19  36  60  85 120 158 206 248 307 361
#
# _framework density 25.044875000000001
#
# number of rings (size 3 to 8) (size 9 to 14) (size 15 to 20)
#    1.500    1.500    0.000    0.000    3.500    1.000 
#    4.500    1.250   11.000    0.000    0.000    0.000 
#    0.000    0.000    0.000    0.000    0.000    0.000 
#
# Total GULP energy -89191.755959 kJ/mol
# GULP energy per Si atom -5574.484747 kJ/mol
# Density = 2.498787 g / cm^3
# Si number density = 25.044875 Si / 1000 Ang^3
#
#
#
# Elastic Constant Matrix: (Units=GPa)
#
#
# Indices 1 2 3 4 5 6 
#
# 1 106.9605 2.3789 41.7534 -0.0004 14.5346 0.0022
# 2 2.3789 16.1144 18.0034 -0.0047 -8.6628 0.0089
# 3 41.7534 18.0034 182.5776 0.0008 -22.0039 0.0023
# 4 -0.0004 -0.0047 0.0008 21.7636 -0.0002 -5.0124
# 5 14.5346 -8.6628 -22.0039 -0.0002 60.9036 -0.0003
# 6 0.0022 0.0089 0.0023 -5.0124 -0.0003 28.0704
#
#
#
# Elastic Compliance Matrix: (Units=1/GPa)
#
#
# Indices 1 2 3 4 5 6 
#
# 1 0.011010 -0.000358 -0.002933 0.000000 -0.003738 -0.000001
# 2 -0.000358 0.073458 -0.006160 0.000012 0.008308 -0.000021
# 3 -0.002933 -0.006160 0.007041 -0.000001 0.002367 0.000001
# 4 0.000000 0.000012 -0.000001 0.047919 0.000001 0.008557
# 5 -0.003738 0.008308 0.002367 0.000001 0.019349 -0.000002
# 6 -0.000001 -0.000021 0.000001 0.008557 -0.000002 0.037153
#
#
# Mechanical properties :
#
#
# Convention : Reuss Voigt Hill
#
# Bulk Modulus (GPa) = 13.77295 47.76931 30.77113
# Shear Modulus (GPa) = 20.91752 38.38197 29.64975
#
# Velocity S-wave (km/s) = 2.89312 3.91900 3.44447
# Velocity P-wave (km/s) = 4.08307 6.29229 5.30398
#
# Compressibility (1/GPa) = 0.07260608
#
# Stress axis : x y z
#
# Youngs Moduli (GPa) = 90.82526 13.61321 142.03209
#
# Poissons Ratio (x) = 0.00487 0.41660
# Poissons Ratio (y) = 0.03252 0.87496
# Poissons Ratio (z) = 0.26640 0.08386
#
# Static dielectric constant tensor:
#      x y z
#    x 2.050420 0.000000 0.002520 
#    y 0.000000 2.111240 0.000000 
#    z 0.002520 0.000000 1.945040 
# 
# From -- ./inp_files/165286.got.cif
#   From: 2010.05.17/outbox.cif.g08.bks.cpg/sg15_83_cif.got.tgz:165286.got - 2010.06.03 18:47:42.
