data_PCOD9265804
_publ_section_title
;
Structure prediction by ZEFSAII (Michael W. Deem and Ramdas Pophale) SiO2 
 PCOD9265804
Probable space group: C 2/C
;
_chemical_formula_sum "Si O2"
_cell_formula_units_Z 40
_cell_length_a 23.640793
_cell_length_b 16.700664
_cell_length_c 14.810733
_cell_angle_alpha 90.000000
_cell_angle_beta 17.835865
_cell_angle_gamma 90.000000
_cell_volume 1791.046704
_symmetry_space_group_name_H-M "C 2/C"
_symmetry_group_IT_number 15
_symmetry_cell_setting 'monoclinic'
loop_
_space_group_symop_operation_xyz
x,y,z
-x,y,1/2-z
-x,-y,-z
x,-y,1/2+z
1/2+x,1/2+y,z
1/2-x,1/2+y,1/2-z
1/2-x,1/2-y,-z
1/2+x,1/2-y,1/2+z
loop_
_atom_site_type_symbol
_atom_site_label
_atom_site_fract_x
_atom_site_fract_y
_atom_site_fract_z
Si Si1 0.218876 0.503993 0.655338
Si Si2 0.405483 0.692707 0.071725
Si Si3 0.324557 0.074688 0.963257
Si Si4 0.512874 0.232158 0.590959
Si Si5 0.000000 0.864468 0.750000
Si Si6 0.500000 0.369391 0.250000
O O1 0.252447 0.517196 0.497139
O O2 0.327948 0.578140 0.535010
O O3 0.321628 0.425686 0.534832
O O4 0.000000 0.500000 0.000000
O O5 0.330835 0.611992 0.235327
O O6 0.223804 0.729249 0.301519
O O7 0.483891 0.749210 0.030699
O O8 0.534325 0.676729 0.790682
O O9 0.500000 0.037955 0.750000
O O10 0.418976 0.151275 0.769372
O O11 0.437995 0.306597 0.763473
#
# Coordination Sequence:
#
# PCOD9265804 Si02
#       6
#     8   8   8   8   4   4
#     4  11  23  42  62  91 134 171 213 260 316 387
#     4  11  22  40  64  94 133 165 215 274 320 389
#     4  10  19  36  67  97 123 159 211 280 319 379
#     4  11  20  38  70 102 122 157 220 275 337 369
#     4  11  20  38  70 102 122 167 212 274 324 381
#     4  11  28  44  58  90 136 185 210 256 324 385
#
# _framework density 22.333307999999999
#
# number of rings (size 3 to 8) (size 9 to 14) (size 15 to 20)
#    0.000    1.200    5.000    4.200    0.000    1.600 
#    3.600    0.000    0.000    0.000    0.000    0.000 
#    0.000    0.000    0.000    0.000    0.000    0.000 
#
# Total GULP energy -111811.869564 kJ/mol
# GULP energy per Si atom -5590.593478 kJ/mol
# Density = 2.228248 g / cm^3
# Si number density = 22.333308 Si / 1000 Ang^3
#
#
#
# Elastic Constant Matrix: (Units=GPa)
#
#
# Indices 1 2 3 4 5 6 
#
# 1 154.7728 24.2686 8.2708 -0.0013 5.2127 0.0003
# 2 24.2686 40.3994 7.0399 -0.0011 7.1455 -0.0005
# 3 8.2708 7.0399 63.6411 -0.0063 -4.3355 0.0002
# 4 -0.0013 -0.0011 -0.0063 9.6531 0.0007 1.1158
# 5 5.2127 7.1455 -4.3355 0.0007 46.9755 0.0001
# 6 0.0003 -0.0005 0.0002 1.1158 0.0001 38.3082
#
#
#
# Elastic Compliance Matrix: (Units=1/GPa)
#
#
# Indices 1 2 3 4 5 6 
#
# 1 0.007148 -0.004174 -0.000481 0.000000 -0.000203 0.000000
# 2 -0.004174 0.028496 -0.002892 0.000001 -0.004138 0.000000
# 3 -0.000481 -0.002892 0.016231 0.000010 0.001991 0.000000
# 4 0.000000 0.000001 0.000010 0.103944 -0.000001 -0.003027
# 5 -0.000203 -0.004138 0.001991 -0.000001 0.022123 0.000000
# 6 0.000000 0.000000 0.000000 -0.003027 0.000000 0.026192
#
#
# Mechanical properties :
#
#
# Convention : Reuss Voigt Hill
#
# Bulk Modulus (GPa) = 27.18755 37.55245 32.37000
# Shear Modulus (GPa) = 21.59924 33.60295 27.60109
#
# Velocity S-wave (km/s) = 3.11325 3.88314 3.51931
# Velocity P-wave (km/s) = 5.01229 6.07915 5.57132
#
# Compressibility (1/GPa) = 0.03678154
#
# Stress axis : x y z
#
# Youngs Moduli (GPa) = 139.89622 35.09232 61.60987
#
# Poissons Ratio (x) = 0.14649 0.02964
# Poissons Ratio (y) = 0.58398 0.17815
# Poissons Ratio (z) = 0.06729 0.10147
#
# Static dielectric constant tensor:
#      x y z
#    x 1.831600 0.000000 0.008220 
#    y 0.000000 1.845430 0.000000 
#    z 0.008220 0.000000 1.919450 
# 
# From -- ./inp_files/77892.got.cif
#   From: 2010.05.17/outbox.cif.g08.bks.cpg/sg15_39_cif.got.tgz:77892.got - 2010.06.03 18:47:42.
