data_PCOD9265577
_publ_section_title
;
Structure prediction by ZEFSAII (Michael W. Deem and Ramdas Pophale) SiO2 
 PCOD9265577
Probable space group: C 2/C
;
_chemical_formula_sum "Si O2"
_cell_formula_units_Z 48
_cell_length_a 12.961361
_cell_length_b 13.534151
_cell_length_c 13.997204
_cell_angle_alpha 90.000000
_cell_angle_beta 118.949934
_cell_angle_gamma 90.000000
_cell_volume 2148.583892
_symmetry_space_group_name_H-M "C 2/C"
_symmetry_group_IT_number 15
_symmetry_cell_setting 'monoclinic'
loop_
_space_group_symop_operation_xyz
x,y,z
-x,y,1/2-z
-x,-y,-z
x,-y,1/2+z
1/2+x,1/2+y,z
1/2-x,1/2+y,1/2-z
1/2-x,1/2-y,-z
1/2+x,1/2-y,1/2+z
loop_
_atom_site_type_symbol
_atom_site_label
_atom_site_fract_x
_atom_site_fract_y
_atom_site_fract_z
Si Si1 0.370882 0.083818 0.521674
Si Si2 0.000000 0.679077 0.750000
Si Si3 0.798006 0.026984 0.796616
Si Si4 0.132485 0.894008 0.964670
Si Si5 0.376144 0.108098 0.930616
Si Si6 0.500000 0.469447 0.250000
Si Si7 0.386267 0.694827 0.354635
O O1 0.428492 0.111928 0.646588
O O2 0.248864 0.142557 0.461515
O O3 0.480747 0.106285 0.501588
O O4 0.337596 0.968407 0.494605
O O5 0.091544 0.748811 0.735033
O O6 0.819549 0.908144 0.810186
O O7 0.676930 0.056051 0.689428
O O8 0.897480 0.075781 0.770581
O O9 0.820933 0.061558 0.914742
O O10 0.022737 0.826121 0.943912
O O11 0.071066 0.967460 0.861132
O O12 0.337498 0.222087 0.905126
#
# Coordination Sequence:
#
# PCOD9265577 Si02
#       7
#     8   4   8   8   8   4   8
#     4  10  21  41  62  92 132 169 204 270 351 381
#     4  10  21  36  62  95 122 162 223 278 324 391
#     4  11  22  41  66  91 131 176 216 280 329 387
#     4  11  21  38  68  90 130 174 217 272 331 384
#     4  10  22  41  62  94 136 168 210 277 338 393
#     4  10  19  36  62  89 120 166 225 266 324 369
#     4  10  21  38  61  99 125 163 232 270 312 402
#
# _framework density 22.340295999999999
#
# number of rings (size 3 to 8) (size 9 to 14) (size 15 to 20)
#    0.000    1.667    1.667    6.000    0.000    2.667 
#   12.000    0.833    0.000    1.000    0.000    0.000 
#    0.000    0.000    0.000    0.000    0.000    0.000 
#
# Total GULP energy -133651.395158 kJ/mol
# GULP energy per Si atom -5568.808132 kJ/mol
# Density = 2.228945 g / cm^3
# Si number density = 22.340296 Si / 1000 Ang^3
#
#
#
# Elastic Constant Matrix: (Units=GPa)
#
#
# Indices 1 2 3 4 5 6 
#
# 1 71.5965 22.7094 24.2068 0.0000 18.9519 0.0000
# 2 22.7094 110.1667 24.7483 0.0000 7.1018 0.0000
# 3 24.2068 24.7483 118.3246 0.0000 7.6528 0.0000
# 4 0.0000 0.0000 0.0000 13.9120 0.0000 1.4255
# 5 18.9519 7.1018 7.6528 0.0000 42.2276 0.0000
# 6 0.0000 0.0000 0.0000 1.4255 0.0000 18.3561
#
#
#
# Elastic Compliance Matrix: (Units=1/GPa)
#
#
# Indices 1 2 3 4 5 6 
#
# 1 0.017501 -0.002577 -0.002592 0.000000 -0.006951 0.000000
# 2 -0.002577 0.009970 -0.001543 0.000000 -0.000241 0.000000
# 3 -0.002592 -0.001543 0.009321 0.000000 -0.000267 0.000000
# 4 0.000000 0.000000 0.000000 0.072457 0.000000 -0.005627
# 5 -0.006951 -0.000241 -0.000267 0.000000 0.026890 0.000000
# 6 0.000000 0.000000 0.000000 -0.005627 0.000000 0.054915
#
#
# Mechanical properties :
#
#
# Convention : Reuss Voigt Hill
#
# Bulk Modulus (GPa) = 42.79030 49.26852 46.02941
# Shear Modulus (GPa) = 23.55518 30.12735 26.84126
#
# Velocity S-wave (km/s) = 3.25065 3.67627 3.46999
# Velocity P-wave (km/s) = 5.76926 6.33415 6.05829
#
# Compressibility (1/GPa) = 0.02336978
#
# Stress axis : x y z
#
# Youngs Moduli (GPa) = 57.13978 100.29632 107.27979
#
# Poissons Ratio (x) = 0.25849 0.27804
# Poissons Ratio (y) = 0.14726 0.16549
# Poissons Ratio (z) = 0.14809 0.15471
#
# Static dielectric constant tensor:
#      x y z
#    x 1.959810 0.000000 0.003280 
#    y 0.000000 1.919470 0.000000 
#    z 0.003280 0.000000 1.815300 
# 
# From -- ./inp_files/153632.got.cif
#   From: 2010.05.17/outbox.cif.g08.bks.cpg/sg15_77_cif.got.tgz:153632.got - 2010.06.03 18:47:42.
