data_PCOD9265770
_publ_section_title
;
Structure prediction by ZEFSAII (Michael W. Deem and Ramdas Pophale) SiO2 
 PCOD9265770
Probable space group: C 2/C
;
_chemical_formula_sum "Si O2"
_cell_formula_units_Z 48
_cell_length_a 10.185065
_cell_length_b 15.772647
_cell_length_c 13.864199
_cell_angle_alpha 90.000000
_cell_angle_beta 63.147596
_cell_angle_gamma 90.000000
_cell_volume 1987.065936
_symmetry_space_group_name_H-M "C 2/C"
_symmetry_group_IT_number 15
_symmetry_cell_setting 'monoclinic'
loop_
_space_group_symop_operation_xyz
x,y,z
-x,y,1/2-z
-x,-y,-z
x,-y,1/2+z
1/2+x,1/2+y,z
1/2-x,1/2+y,1/2-z
1/2-x,1/2-y,-z
1/2+x,1/2-y,1/2+z
loop_
_atom_site_type_symbol
_atom_site_label
_atom_site_fract_x
_atom_site_fract_y
_atom_site_fract_z
Si Si1 0.798493 0.065796 0.364668
Si Si2 0.970937 0.389264 0.016488
Si Si3 0.664055 0.246313 0.727072
Si Si4 0.865498 0.217232 0.042534
Si Si5 0.783128 0.960620 0.537049
Si Si6 0.772699 0.566593 0.761730
O O1 0.622973 0.068591 0.440588
O O2 0.830189 0.162695 0.328769
O O3 0.859517 0.030466 0.444542
O O4 0.827888 0.992898 0.275005
O O5 0.992593 0.287730 0.998950
O O6 0.907041 0.410258 0.143749
O O7 0.847930 0.417215 0.980878
O O8 0.500000 0.217321 0.750000
O O9 0.692741 0.272155 0.829013
O O10 0.763251 0.160696 0.684732
O O11 0.890101 0.118330 0.020338
O O12 0.750000 0.250000 0.000000
O O13 0.711006 0.004869 0.653108
#
# Coordination Sequence:
#
# PCOD9265770 Si02
#       6
#     8   8   8   8   8   8
#     4  11  23  40  62  98 124 164 222 263 322 385
#     4   9  21  35  63  94 128 155 217 268 311 374
#     4  11  25  42  63  91 135 167 208 273 328 379
#     4   9  19  42  61  88 124 177 205 254 322 378
#     4  10  19  36  66  90 124 168 208 261 316 387
#     4  10  21  38  62  89 126 164 205 263 321 365
#
# _framework density 24.156220000000001
#
# number of rings (size 3 to 8) (size 9 to 14) (size 15 to 20)
#    0.000    2.000    1.667    3.000    7.000    0.667 
#    0.000    2.500    0.000    0.000    0.000    0.000 
#    0.000    0.000    0.000    0.000    0.000    0.000 
#
# Total GULP energy -133685.871480 kJ/mol
# GULP energy per Si atom -5570.244645 kJ/mol
# Density = 2.410124 g / cm^3
# Si number density = 24.156220 Si / 1000 Ang^3
#
#
#
# Elastic Constant Matrix: (Units=GPa)
#
#
# Indices 1 2 3 4 5 6 
#
# 1 47.9615 43.4638 37.0559 0.0000 1.7698 0.0000
# 2 43.4638 248.6544 64.4221 0.0000 22.7597 0.0000
# 3 37.0559 64.4221 123.0247 0.0000 31.9767 0.0000
# 4 0.0000 0.0000 0.0000 56.2925 0.0000 10.8255
# 5 1.7698 22.7597 31.9767 0.0000 25.2520 0.0000
# 6 0.0000 0.0000 0.0000 10.8255 0.0000 23.3771
#
#
#
# Elastic Compliance Matrix: (Units=1/GPa)
#
#
# Indices 1 2 3 4 5 6 
#
# 1 0.033599 -0.004240 -0.012344 0.000000 0.017098 0.000000
# 2 -0.004240 0.005235 -0.000470 0.000000 -0.003826 0.000000
# 3 -0.012344 -0.000470 0.017526 0.000000 -0.020905 0.000000
# 4 0.000000 0.000000 0.000000 0.019501 0.000000 -0.009031
# 5 0.017098 -0.003826 -0.020905 0.000000 0.068323 0.000000
# 6 0.000000 0.000000 0.000000 -0.009031 0.000000 0.046959
#
#
# Mechanical properties :
#
#
# Convention : Reuss Voigt Hill
#
# Bulk Modulus (GPa) = 44.93873 78.83604 61.88739
# Shear Modulus (GPa) = 21.48996 39.29756 30.39376
#
# Velocity S-wave (km/s) = 2.98589 4.03775 3.55098
# Velocity P-wave (km/s) = 5.52550 7.37866 6.51828
#
# Compressibility (1/GPa) = 0.02225252
#
# Stress axis : x y z
#
# Youngs Moduli (GPa) = 29.76322 191.03634 57.05758
#
# Poissons Ratio (x) = 0.80994 0.70432
# Poissons Ratio (y) = 0.12619 0.02679
# Poissons Ratio (z) = 0.36740 0.08970
#
# Static dielectric constant tensor:
#      x y z
#    x 1.990350 0.000000 -0.025050 
#    y 0.000000 2.130800 0.000000 
#    z -0.025050 0.000000 1.956570 
# 
# From -- ./inp_files/143537.got.cif
#   From: 2010.05.17/outbox.cif.g08.bks.cpg/sg15_72_cif.got.tgz:143537.got - 2010.06.03 18:47:42.
