data_PCOD9265905
_publ_section_title
;
Structure prediction by ZEFSAII (Michael W. Deem and Ramdas Pophale) SiO2 
 PCOD9265905
Probable space group: C 2/C
;
_chemical_formula_sum "Si O2"
_cell_formula_units_Z 48
_cell_length_a 20.467071
_cell_length_b 8.957273
_cell_length_c 25.854909
_cell_angle_alpha 90.000000
_cell_angle_beta 31.949342
_cell_angle_gamma 90.000000
_cell_volume 2508.240207
_symmetry_space_group_name_H-M "C 2/C"
_symmetry_group_IT_number 15
_symmetry_cell_setting 'monoclinic'
loop_
_space_group_symop_operation_xyz
x,y,z
-x,y,1/2-z
-x,-y,-z
x,-y,1/2+z
1/2+x,1/2+y,z
1/2-x,1/2+y,1/2-z
1/2-x,1/2-y,-z
1/2+x,1/2-y,1/2+z
loop_
_atom_site_type_symbol
_atom_site_label
_atom_site_fract_x
_atom_site_fract_y
_atom_site_fract_z
Si Si1 0.948996 0.389497 0.177133
Si Si2 0.324310 0.383849 0.125772
Si Si3 0.877985 0.180064 0.970353
Si Si4 0.972250 0.917158 0.600064
Si Si5 0.968644 0.610938 0.067939
Si Si6 0.604758 0.905155 0.637428
O O1 0.817780 0.392778 0.293959
O O2 0.943380 0.510781 0.134911
O O3 0.957961 0.230773 0.142883
O O4 0.059616 0.440736 0.140552
O O5 0.359123 0.516172 0.142651
O O6 0.357735 0.224261 0.129303
O O7 0.418873 0.393490 0.014900
O O8 0.889635 0.284576 0.912633
O O9 0.917075 0.280028 0.993613
O O10 0.979695 0.051790 0.897023
O O11 0.743329 0.106847 0.066059
O O12 0.000000 0.500000 0.000000
O O13 0.500000 0.868883 0.750000
#
# Coordination Sequence:
#
# PCOD9265905 Si02
#       6
#     8   8   8   8   8   8
#     4  11  21  35  58  85 114 150 194 238 285 352
#     4  10  20  35  55  83 122 149 182 232 301 354
#     4   9  21  39  58  81 113 152 192 239 287 344
#     4  10  20  36  55  84 116 147 185 241 295 343
#     4  10  19  37  57  86 118 151 186 235 301 354
#     4  10  21  41  59  78 110 156 202 232 283 343
#
# _framework density 19.136922999999999
#
# number of rings (size 3 to 8) (size 9 to 14) (size 15 to 20)
#    0.000    2.000    1.667    2.000    0.000    0.667 
#   12.000    0.833    0.000    0.000    0.000    0.000 
#    0.000    0.000    0.000    0.000    0.000    0.000 
#
# Total GULP energy -133832.533785 kJ/mol
# GULP energy per Si atom -5576.355574 kJ/mol
# Density = 1.909337 g / cm^3
# Si number density = 19.136923 Si / 1000 Ang^3
#
#
#
# Elastic Constant Matrix: (Units=GPa)
#
#
# Indices 1 2 3 4 5 6 
#
# 1 58.6952 33.0448 25.5320 0.0000 -11.7283 0.0000
# 2 33.0448 112.6938 20.7039 0.0001 -8.6596 -0.0001
# 3 25.5320 20.7039 69.3171 0.0000 -8.2695 0.0000
# 4 0.0000 0.0001 0.0000 17.6795 0.0000 2.3784
# 5 -11.7283 -8.6596 -8.2695 0.0000 26.5633 0.0000
# 6 0.0000 -0.0001 0.0000 2.3784 0.0000 26.0010
#
#
#
# Elastic Compliance Matrix: (Units=1/GPa)
#
#
# Indices 1 2 3 4 5 6 
#
# 1 0.024292 -0.005394 -0.006508 0.000000 0.006941 0.000000
# 2 -0.005394 0.010720 -0.001124 0.000000 0.000763 0.000000
# 3 -0.006508 -0.001124 0.017420 0.000000 0.002183 0.000000
# 4 0.000000 0.000000 0.000000 0.057268 0.000000 -0.005238
# 5 0.006941 0.000763 0.002183 0.000000 0.041639 0.000000
# 6 0.000000 0.000000 0.000000 -0.005238 0.000000 0.038939
#
#
# Mechanical properties :
#
#
# Convention : Reuss Voigt Hill
#
# Bulk Modulus (GPa) = 37.90875 44.36304 41.13590
# Shear Modulus (GPa) = 22.20997 24.81046 23.51021
#
# Velocity S-wave (km/s) = 3.41043 3.60456 3.50884
# Velocity P-wave (km/s) = 5.94645 6.36836 6.16102
#
# Compressibility (1/GPa) = 0.02637913
#
# Stress axis : x y z
#
# Youngs Moduli (GPa) = 41.16593 93.27975 57.40547
#
# Poissons Ratio (x) = 0.50315 0.37362
# Poissons Ratio (y) = 0.22205 0.06453
# Poissons Ratio (z) = 0.26793 0.10486
#
# Static dielectric constant tensor:
#      x y z
#    x 1.698130 0.000000 -0.008990 
#    y 0.000000 1.687520 0.000000 
#    z -0.008990 0.000000 1.648130 
# 
# From -- ./inp_files/116432.got.cif
#   From: 2010.05.17/outbox.cif.g08.bks.cpg/sg15_59_cif.got.tgz:116432.got - 2010.06.03 18:47:42.
