data_PCOD9265958
_publ_section_title
;
Structure prediction by ZEFSAII (Michael W. Deem and Ramdas Pophale) SiO2 
 PCOD9265958
Probable space group: C 2/C
;
_chemical_formula_sum "Si O2"
_cell_formula_units_Z 24
_cell_length_a 26.459105
_cell_length_b 6.855766
_cell_length_c 9.415625
_cell_angle_alpha 90.000000
_cell_angle_beta 30.873897
_cell_angle_gamma 90.000000
_cell_volume 876.445384
_symmetry_space_group_name_H-M "C 2/C"
_symmetry_group_IT_number 15
_symmetry_cell_setting 'monoclinic'
loop_
_space_group_symop_operation_xyz
x,y,z
-x,y,1/2-z
-x,-y,-z
x,-y,1/2+z
1/2+x,1/2+y,z
1/2-x,1/2+y,1/2-z
1/2-x,1/2-y,-z
1/2+x,1/2-y,1/2+z
loop_
_atom_site_type_symbol
_atom_site_label
_atom_site_fract_x
_atom_site_fract_y
_atom_site_fract_z
Si Si1 0.891367 0.996771 0.517344
Si Si2 0.400157 0.908288 0.577319
Si Si3 0.688486 0.822566 0.979738
O O1 0.896934 0.176107 0.617328
O O2 0.865103 0.123316 0.438524
O O3 0.800543 0.852628 0.762525
O O4 0.000000 0.907558 0.250000
O O5 0.313763 0.927452 0.669822
O O6 0.500000 0.943505 0.250000
O O7 0.380652 0.046201 0.754711
#
# Coordination Sequence:
#
# PCOD9265958 Si02
#       3
#     8   8   8
#     4   9  21  36  60  81 117 146 187 230 286 330
#     4   9  19  34  61  81 113 148 190 228 282 333
#     4  10  19  37  58  86 110 153 184 234 281 333
#
# _framework density 27.38334
#
# number of rings (size 3 to 8) (size 9 to 14) (size 15 to 20)
#    2.000    0.667    0.000    2.000    0.000    1.333 
#    0.000    5.000    0.000    0.000    0.000    0.000 
#    0.000    0.000    0.000    0.000    0.000    0.000 
#
# Total GULP energy -67010.098616 kJ/mol
# GULP energy per Si atom -5584.174885 kJ/mol
# Density = 2.732101 g / cm^3
# Si number density = 27.383340 Si / 1000 Ang^3
#
#
#
# Elastic Constant Matrix: (Units=GPa)
#
#
# Indices 1 2 3 4 5 6 
#
# 1 61.9766 30.4808 51.4902 0.0000 -21.2581 0.0000
# 2 30.4808 128.6031 60.3179 0.0000 1.9094 0.0000
# 3 51.4902 60.3179 179.8808 0.0000 -49.1345 0.0000
# 4 0.0000 0.0000 0.0000 28.1565 0.0000 -15.9864
# 5 -21.2581 1.9094 -49.1345 0.0000 61.1787 0.0000
# 6 0.0000 0.0000 0.0000 -15.9864 0.0000 -11.1887
#
#
#
# Elastic Compliance Matrix: (Units=1/GPa)
#
#
# Indices 1 2 3 4 5 6 
#
# 1 0.022919 -0.003616 -0.004025 0.000000 0.004844 0.000000
# 2 -0.003616 0.010442 -0.003713 0.000000 -0.004565 0.000000
# 3 -0.004025 -0.003713 0.009744 0.000000 0.006543 0.000000
# 4 0.000000 0.000000 0.000000 0.019609 0.000000 -0.028017
# 5 0.004844 -0.004565 0.006543 0.000000 0.023426 0.000000
# 6 0.000000 0.000000 0.000000 -0.028017 0.000000 -0.049345
#
#
# Mechanical properties :
#
#
# Convention : Reuss Voigt Hill
#
# Bulk Modulus (GPa) = 49.02810 72.78203 60.90507
# Shear Modulus (GPa) = 75.41309 30.84073 53.12691
#
# Velocity S-wave (km/s) = 5.25353 3.35962 4.40946
# Velocity P-wave (km/s) = 7.39883 6.45647 6.94365
#
# Compressibility (1/GPa) = 0.02039647
#
# Stress axis : x y z
#
# Youngs Moduli (GPa) = 43.63196 95.76368 102.63213
#
# Poissons Ratio (x) = 0.34632 0.41305
# Poissons Ratio (y) = 0.15779 0.38110
# Poissons Ratio (z) = 0.17560 0.35559
#
# Static dielectric constant tensor:
#      x y z
#    x 2.186080 0.000000 -0.007320 
#    y 0.000000 2.143890 0.000000 
#    z -0.007320 0.000000 2.073050 
# 
# From -- ./inp_files/26941.got.cif
#   From: 2010.05.17/outbox.cif.g08.bks.cpg/sg15_14_cif.got.tgz:26941.got - 2010.06.03 18:47:42.
