data_PCOD9265583
_publ_section_title
;
Structure prediction by ZEFSAII (Michael W. Deem and Ramdas Pophale) SiO2 
 PCOD9265583
Probable space group: C 2/C
;
_chemical_formula_sum "Si O2"
_cell_formula_units_Z 48
_cell_length_a 11.419426
_cell_length_b 15.456815
_cell_length_c 28.265710
_cell_angle_alpha 90.000000
_cell_angle_beta 27.507726
_cell_angle_gamma 90.000000
_cell_volume 2304.317194
_symmetry_space_group_name_H-M "C 2/C"
_symmetry_group_IT_number 15
_symmetry_cell_setting 'monoclinic'
loop_
_space_group_symop_operation_xyz
x,y,z
-x,y,1/2-z
-x,-y,-z
x,-y,1/2+z
1/2+x,1/2+y,z
1/2-x,1/2+y,1/2-z
1/2-x,1/2-y,-z
1/2+x,1/2-y,1/2+z
loop_
_atom_site_type_symbol
_atom_site_label
_atom_site_fract_x
_atom_site_fract_y
_atom_site_fract_z
Si Si1 0.786877 0.530171 0.454077
Si Si2 0.769176 0.413381 0.366199
Si Si3 0.364287 0.713060 0.110120
Si Si4 0.180717 0.631770 0.502388
Si Si5 0.537171 0.722224 0.185175
Si Si6 0.450612 0.182493 0.186757
O O1 0.784314 0.471072 0.407801
O O2 0.504429 0.569420 0.558994
O O3 0.846003 0.468847 0.477300
O O4 0.990159 0.603864 0.369341
O O5 0.816613 0.312166 0.359437
O O6 0.000000 0.441636 0.250000
O O7 0.632992 0.667555 0.022820
O O8 0.199021 0.667879 0.210328
O O9 0.224526 0.708201 0.110043
O O10 0.422381 0.813672 0.099211
O O11 0.315051 0.661953 0.405417
O O12 0.500000 0.681090 0.250000
O O13 0.253700 0.742111 0.266785
#
# Coordination Sequence:
#
# PCOD9265583 Si02
#       6
#     8   8   8   8   8   8
#     4  11  21  33  60  99 125 158 205 272 312 361
#     4  10  22  37  59  92 131 162 206 260 317 368
#     4   9  18  34  60  92 124 167 204 254 312 387
#     4  10  19  36  62  89 129 165 212 256 321 377
#     4  10  22  42  61  83 126 179 212 254 314 381
#     4  10  20  33  61  91 124 160 210 253 310 371
#
# _framework density 20.830465
#
# number of rings (size 3 to 8) (size 9 to 14) (size 15 to 20)
#    0.000    2.000    0.000    6.000    7.000    0.000 
#    0.000    8.333    7.333    0.000    0.000    0.000 
#    0.000    0.000    0.000    0.000    0.000    0.000 
#
# Total GULP energy -133691.112997 kJ/mol
# GULP energy per Si atom -5570.463042 kJ/mol
# Density = 2.078305 g / cm^3
# Si number density = 20.830465 Si / 1000 Ang^3
#
#
#
# Elastic Constant Matrix: (Units=GPa)
#
#
# Indices 1 2 3 4 5 6 
#
# 1 74.2985 28.1661 27.8839 -0.0168 9.6252 0.0219
# 2 28.1661 101.7114 54.7219 0.0026 -3.0365 0.0027
# 3 27.8839 54.7219 107.4399 -0.0128 22.9695 0.0152
# 4 -0.0168 0.0026 -0.0128 29.9144 0.0216 4.0718
# 5 9.6252 -3.0365 22.9695 0.0216 24.8249 -0.0235
# 6 0.0219 0.0027 0.0152 4.0718 -0.0235 10.9876
#
#
#
# Elastic Compliance Matrix: (Units=1/GPa)
#
#
# Indices 1 2 3 4 5 6 
#
# 1 0.016137 -0.004276 -0.000699 0.000020 -0.006133 -0.000051
# 2 -0.004276 0.017022 -0.010421 -0.000026 0.013382 0.000057
# 3 -0.000699 -0.010421 0.018713 0.000032 -0.018318 -0.000073
# 4 0.000020 -0.000026 0.000032 0.035205 -0.000083 -0.013046
# 5 -0.006133 0.013382 -0.018318 -0.000083 0.061246 0.000196
# 6 -0.000051 0.000057 -0.000073 -0.013046 0.000196 0.095847
#
#
# Mechanical properties :
#
#
# Convention : Reuss Voigt Hill
#
# Bulk Modulus (GPa) = 47.43797 56.11039 51.77418
# Shear Modulus (GPa) = 17.73129 24.65724 21.19427
#
# Velocity S-wave (km/s) = 2.92073 3.44424 3.19323
# Velocity P-wave (km/s) = 5.84782 6.54311 6.20521
#
# Compressibility (1/GPa) = 0.02108016
#
# Stress axis : x y z
#
# Youngs Moduli (GPa) = 61.96938 58.74800 53.43907
#
# Poissons Ratio (x) = 0.25118 0.03737
# Poissons Ratio (y) = 0.26495 0.55689
# Poissons Ratio (z) = 0.04333 0.61221
#
# Static dielectric constant tensor:
#      x y z
#    x 1.779030 0.000000 -0.004400 
#    y 0.000000 1.798920 0.000000 
#    z -0.004400 0.000000 1.827770 
# 
# From -- ./inp_files/311135.got.cif
#   From: 2010.05.17/outbox.cif.g08.bks.cpg/sg15_156_cif.got.tgz:311135.got - 2010.06.03 18:47:42.
