data_PCOD9265945
_publ_section_title
;
Structure prediction by ZEFSAII (Michael W. Deem and Ramdas Pophale) SiO2 
 PCOD9265945
Probable space group: C 2/C
;
_chemical_formula_sum "Si O2"
_cell_formula_units_Z 52
_cell_length_a 11.327300
_cell_length_b 27.362514
_cell_length_c 18.592703
_cell_angle_alpha 90.000000
_cell_angle_beta 27.614881
_cell_angle_gamma 90.000000
_cell_volume 2671.155714
_symmetry_space_group_name_H-M "C 2/C"
_symmetry_group_IT_number 15
_symmetry_cell_setting 'monoclinic'
loop_
_space_group_symop_operation_xyz
x,y,z
-x,y,1/2-z
-x,-y,-z
x,-y,1/2+z
1/2+x,1/2+y,z
1/2-x,1/2+y,1/2-z
1/2-x,1/2-y,-z
1/2+x,1/2-y,1/2+z
loop_
_atom_site_type_symbol
_atom_site_label
_atom_site_fract_x
_atom_site_fract_y
_atom_site_fract_z
Si Si1 0.732103 0.055492 0.181089
Si Si2 0.292877 0.841510 0.760729
Si Si3 0.218188 0.444888 0.193337
Si Si4 0.843314 0.345938 0.195391
Si Si5 0.500000 0.787396 0.250000
Si Si6 0.162079 0.196164 0.479255
Si Si7 0.415159 0.787800 0.560445
O O1 0.500000 0.062372 0.250000
O O2 0.714354 0.100522 0.245226
O O3 0.705160 0.001039 0.226836
O O4 0.002719 0.059453 0.993871
O O5 0.572217 0.822996 0.634393
O O6 0.124733 0.829194 0.921132
O O7 0.243834 0.811671 0.715395
O O8 0.179404 0.403122 0.273799
O O9 0.000000 0.439230 0.250000
O O10 0.978585 0.320522 0.190873
O O11 0.563501 0.321712 0.348183
O O12 0.977884 0.328735 0.050113
O O13 0.259225 0.751552 0.385270
O O14 0.135052 0.253835 0.478016
#
# Coordination Sequence:
#
# PCOD9265945 Si02
#       7
#     8   8   8   8   4   8   8
#     4  10  19  37  58  84 107 143 186 232 280 329
#     4  11  20  37  57  80 113 147 181 226 280 331
#     4  10  20  34  61  84 105 140 193 235 270 328
#     4  11  20  37  56  82 110 144 188 233 272 320
#     4  10  22  38  52  74 114 156 188 218 266 338
#     4  10  20  36  56  77 111 151 190 214 268 336
#     4  11  24  34  53  82 115 148 181 230 279 327
#
# _framework density 19.467229
#
# number of rings (size 3 to 8) (size 9 to 14) (size 15 to 20)
#    0.000    1.538    3.846    2.769    0.000    4.308 
#    0.000    0.769    0.000    0.000    0.000    6.462 
#    0.000    0.000    0.000    0.000    0.000    0.000 
#
# Total GULP energy -145124.472149 kJ/mol
# GULP energy per Si atom -5581.710467 kJ/mol
# Density = 1.942292 g / cm^3
# Si number density = 19.467229 Si / 1000 Ang^3
#
#
#
# Elastic Constant Matrix: (Units=GPa)
#
#
# Indices 1 2 3 4 5 6 
#
# 1 22.2607 13.5976 8.2790 0.3461 -14.5953 -0.1582
# 2 13.5976 161.9414 12.0797 0.1474 6.7380 -0.0323
# 3 8.2790 12.0797 48.8624 0.4073 -7.1022 -0.3102
# 4 0.3461 0.1474 0.4073 -11.6384 -0.2186 9.7932
# 5 -14.5953 6.7380 -7.1022 -0.2186 30.5417 0.1600
# 6 -0.1582 -0.0323 -0.3102 9.7932 0.1600 22.7417
#
#
#
# Elastic Compliance Matrix: (Units=1/GPa)
#
#
# Indices 1 2 3 4 5 6 
#
# 1 0.075375 -0.007420 -0.005664 0.001041 0.036349 -0.000268
# 2 -0.007420 0.007120 -0.001290 -0.000067 -0.005417 0.000008
# 3 -0.005664 -0.001290 0.022136 0.000545 0.002729 0.000007
# 4 0.001041 -0.000067 0.000545 -0.063025 0.000046 0.027155
# 5 0.036349 -0.005417 0.002729 0.000046 0.051943 -0.000103
# 6 -0.000268 0.000008 0.000007 0.027155 -0.000103 0.032278
#
#
# Mechanical properties :
#
#
# Convention : Reuss Voigt Hill
#
# Bulk Modulus (GPa) = 13.17793 33.44190 23.30991
# Shear Modulus (GPa) = 27.79800 21.60287 24.70044
#
# Velocity S-wave (km/s) = 3.78291 3.33484 3.56592
# Velocity P-wave (km/s) = 5.08571 5.66074 5.38092
#
# Compressibility (1/GPa) = 0.07588448
#
# Stress axis : x y z
#
# Youngs Moduli (GPa) = 13.26697 140.45436 45.17456
#
# Poissons Ratio (x) = 1.04216 0.25586
# Poissons Ratio (y) = 0.09844 0.05826
# Poissons Ratio (z) = 0.07514 0.18115
#
# Static dielectric constant tensor:
#      x y z
#    x 1.712950 -0.000020 -0.037490 
#    y -0.000020 1.705770 0.000010 
#    z -0.037490 0.000010 1.683080 
# 
# From -- ./inp_files/33494.got.cif
#   From: 2010.05.17/outbox.cif.g08.bks.cpg/sg15_17_cif.got.tgz:33494.got - 2010.06.03 18:47:42.
