data_PCOD9265435
_publ_section_title
;
Structure prediction by ZEFSAII (Michael W. Deem and Ramdas Pophale) SiO2 
 PCOD9265435
Probable space group: C 2/C
;
_chemical_formula_sum "Si O2"
_cell_formula_units_Z 44
_cell_length_a 20.212553
_cell_length_b 10.909254
_cell_length_c 26.928123
_cell_angle_alpha 90.000000
_cell_angle_beta 26.881752
_cell_angle_gamma 90.000000
_cell_volume 2684.760049
_symmetry_space_group_name_H-M "C 2/C"
_symmetry_group_IT_number 15
_symmetry_cell_setting 'monoclinic'
loop_
_space_group_symop_operation_xyz
x,y,z
-x,y,1/2-z
-x,-y,-z
x,-y,1/2+z
1/2+x,1/2+y,z
1/2-x,1/2+y,1/2-z
1/2-x,1/2-y,-z
1/2+x,1/2-y,1/2+z
loop_
_atom_site_type_symbol
_atom_site_label
_atom_site_fract_x
_atom_site_fract_y
_atom_site_fract_z
Si Si1 0.780750 0.586400 0.152772
Si Si2 0.472948 0.444896 0.826900
Si Si3 0.500000 0.006040 0.750000
Si Si4 0.083043 0.307447 0.277346
Si Si5 0.195906 0.611344 0.036048
Si Si6 0.491671 0.007668 0.922191
O O1 0.624100 0.517719 0.253150
O O2 0.730793 0.728268 0.183708
O O3 0.872709 0.551830 0.139462
O O4 0.877283 0.552159 0.040415
O O5 0.500000 0.459269 0.750000
O O6 0.464240 0.298986 0.844045
O O7 0.333290 0.520048 0.937282
O O8 0.390936 0.925029 0.856023
O O9 0.416315 0.094980 0.767445
O O10 0.042555 0.378846 0.354259
O O11 0.088563 0.584946 0.061561
O O12 0.250000 0.750000 0.000000
#
# Coordination Sequence:
#
# PCOD9265435 Si02
#       6
#     8   8   4   8   8   8
#     4   9  20  35  56  83 111 150 185 232 294 341
#     4  10  19  36  61  84 109 153 192 235 290 331
#     4  10  22  36  60  92 108 146 200 244 282 330
#     4   9  19  34  58  83 111 139 195 243 273 336
#     4  11  24  37  58  84 121 153 189 237 287 352
#     4  10  20  36  57  83 112 152 189 234 290 342
#
# _framework density 16.388801999999998
#
# number of rings (size 3 to 8) (size 9 to 14) (size 15 to 20)
#    1.091    1.091    2.727    0.000    3.818    2.909 
#    0.000    5.455    0.000    6.545    0.000    0.000 
#    0.000    0.000    0.000    0.000    0.000    0.000 
#
# Total GULP energy -122489.524254 kJ/mol
# GULP energy per Si atom -5567.705648 kJ/mol
# Density = 1.635150 g / cm^3
# Si number density = 16.388802 Si / 1000 Ang^3
#
#
#
# Elastic Constant Matrix: (Units=GPa)
#
#
# Indices 1 2 3 4 5 6 
#
# 1 123.6493 59.1355 79.2246 -0.0002 -4.2567 0.0000
# 2 59.1355 119.2395 62.5311 0.0000 6.3990 -0.0001
# 3 79.2246 62.5311 99.7219 0.0006 6.9972 -0.0003
# 4 -0.0002 0.0000 0.0006 27.8988 -0.0002 -6.1412
# 5 -4.2567 6.3990 6.9972 -0.0002 29.4434 0.0001
# 6 0.0000 -0.0001 -0.0003 -6.1412 0.0001 17.5235
#
#
#
# Elastic Compliance Matrix: (Units=1/GPa)
#
#
# Indices 1 2 3 4 5 6 
#
# 1 0.017827 -0.002263 -0.013179 0.000000 0.006201 0.000000
# 2 -0.002263 0.012804 -0.006115 0.000000 -0.001657 0.000000
# 3 -0.013179 -0.006115 0.024787 -0.000001 -0.006467 0.000000
# 4 0.000000 0.000000 -0.000001 0.038840 0.000000 0.013612
# 5 0.006201 -0.001657 -0.006467 0.000000 0.036757 0.000000
# 6 0.000000 0.000000 0.000000 0.013612 0.000000 0.061836
#
#
# Mechanical properties :
#
#
# Convention : Reuss Voigt Hill
#
# Bulk Modulus (GPa) = 81.27485 82.71034 81.99259
# Shear Modulus (GPa) = 20.82750 24.42110 22.62430
#
# Velocity S-wave (km/s) = 3.56875 3.86438 3.71950
# Velocity P-wave (km/s) = 8.16582 8.39574 8.28158
#
# Compressibility (1/GPa) = 0.01230393
#
# Stress axis : x y z
#
# Youngs Moduli (GPa) = 56.09431 78.09774 40.34440
#
# Poissons Ratio (x) = 0.17670 0.53171
# Poissons Ratio (y) = 0.12692 0.24672
# Poissons Ratio (z) = 0.73928 0.47760
#
# Static dielectric constant tensor:
#      x y z
#    x 1.547560 0.000000 -0.014970 
#    y 0.000000 1.540690 0.000000 
#    z -0.014970 0.000000 1.537190 
# 
# From -- ./inp_files/277011.got.cif
#   From: 2010.05.17/outbox.cif.g08.bks.cpg/sg15_139_cif.got.tgz:277011.got - 2010.06.03 18:47:42.
