data_PCOD9265241
_publ_section_title
;
Structure prediction by ZEFSAII (Michael W. Deem and Ramdas Pophale) SiO2 
 PCOD9265241
Probable space group: C 2/C
;
_chemical_formula_sum "Si O2"
_cell_formula_units_Z 48
_cell_length_a 8.418606
_cell_length_b 11.280539
_cell_length_c 20.026982
_cell_angle_alpha 90.000000
_cell_angle_beta 84.886090
_cell_angle_gamma 90.000000
_cell_volume 1894.320088
_symmetry_space_group_name_H-M "C 2/C"
_symmetry_group_IT_number 15
_symmetry_cell_setting 'monoclinic'
loop_
_space_group_symop_operation_xyz
x,y,z
-x,y,1/2-z
-x,-y,-z
x,-y,1/2+z
1/2+x,1/2+y,z
1/2-x,1/2+y,1/2-z
1/2-x,1/2-y,-z
1/2+x,1/2-y,1/2+z
loop_
_atom_site_type_symbol
_atom_site_label
_atom_site_fract_x
_atom_site_fract_y
_atom_site_fract_z
Si Si1 0.880267 0.505529 0.199255
Si Si2 0.131721 0.877674 0.291926
Si Si3 0.419697 0.410650 0.856240
Si Si4 0.479955 0.170978 0.583137
Si Si5 0.681149 0.621236 0.940181
Si Si6 0.329671 0.407956 0.477685
O O1 0.784003 0.400949 0.240878
O O2 0.740879 0.594791 0.182101
O O3 0.965694 0.443334 0.133122
O O4 0.000000 0.553119 0.250000
O O5 0.178243 0.835922 0.363753
O O6 0.000000 0.815994 0.250000
O O7 0.043880 0.001754 0.315716
O O8 0.501958 0.289146 0.873707
O O9 0.356743 0.484908 0.923000
O O10 0.648567 0.161761 0.538186
O O11 0.320079 0.163992 0.544635
O O12 0.503131 0.652280 0.971534
O O13 0.694088 0.478634 0.952686
#
# Coordination Sequence:
#
# PCOD9265241 Si02
#       6
#     8   8   8   8   8   8
#     4  10  19  36  59  84 120 162 201 252 319 366
#     4   9  18  37  58  78 118 159 194 252 307 361
#     4   9  21  38  59  89 120 156 205 260 310 367
#     4  11  21  38  63  92 115 161 210 249 309 379
#     4  10  19  38  62  87 119 163 206 247 311 378
#     4   9  21  40  60  86 125 161 196 258 317 360
#
# _framework density 25.338908
#
# number of rings (size 3 to 8) (size 9 to 14) (size 15 to 20)
#    0.000    2.333    1.667    1.500    0.000    2.667 
#    3.000    8.333    0.000    0.000    0.000    0.000 
#    0.000    0.000    0.000    0.000    0.000    0.000 
#
# Total GULP energy -134027.759823 kJ/mol
# GULP energy per Si atom -5584.489993 kJ/mol
# Density = 2.528124 g / cm^3
# Si number density = 25.338908 Si / 1000 Ang^3
#
#
#
# Elastic Constant Matrix: (Units=GPa)
#
#
# Indices 1 2 3 4 5 6 
#
# 1 248.0205 64.8855 47.4544 0.0000 32.9676 0.0000
# 2 64.8855 91.6327 14.4612 0.0000 9.5478 0.0000
# 3 47.4544 14.4612 85.0840 0.0000 10.6913 0.0000
# 4 0.0000 0.0000 0.0000 13.6435 0.0000 3.2160
# 5 32.9676 9.5478 10.6913 0.0000 64.0784 0.0000
# 6 0.0000 0.0000 0.0000 3.2160 0.0000 45.9371
#
#
#
# Elastic Compliance Matrix: (Units=1/GPa)
#
#
# Indices 1 2 3 4 5 6 
#
# 1 0.005634 -0.003416 -0.002310 0.000000 -0.002004 0.000000
# 2 -0.003416 0.013406 -0.000351 0.000000 -0.000182 0.000000
# 3 -0.002310 -0.000351 0.013222 0.000000 -0.000966 0.000000
# 4 0.000000 0.000000 0.000000 0.074525 0.000000 -0.005217
# 5 -0.002004 -0.000182 -0.000966 0.000000 0.016825 0.000000
# 6 0.000000 0.000000 0.000000 -0.005217 0.000000 0.022134
#
#
# Mechanical properties :
#
#
# Convention : Reuss Voigt Hill
#
# Bulk Modulus (GPa) = 49.72717 75.37106 62.54912
# Shear Modulus (GPa) = 30.37618 44.59422 37.48520
#
# Velocity S-wave (km/s) = 3.46612 4.19968 3.85041
# Velocity P-wave (km/s) = 5.97378 7.30248 6.67129
#
# Compressibility (1/GPa) = 0.02010973
#
# Stress axis : x y z
#
# Youngs Moduli (GPa) = 177.49490 74.59181 75.63006
#
# Poissons Ratio (x) = 0.25481 0.17469
# Poissons Ratio (y) = 0.60634 0.02651
# Poissons Ratio (z) = 0.40998 0.02615
#
# Static dielectric constant tensor:
#      x y z
#    x 2.002790 0.000000 0.077260 
#    y 0.000000 2.043500 0.000000 
#    z 0.077260 0.000000 2.080230 
# 
# From -- ./inp_files/263116.got.cif
#   From: 2010.05.17/outbox.cif.g08.bks.cpg/sg15_132_cif.got.tgz:263116.got - 2010.06.03 18:47:42.
