data_PCOD9265041
_publ_section_title
;
Structure prediction by ZEFSAII (Michael W. Deem and Ramdas Pophale) SiO2 
 PCOD9265041
Probable space group: C 2/C
;
_chemical_formula_sum "Si O2"
_cell_formula_units_Z 52
_cell_length_a 10.807669
_cell_length_b 8.953187
_cell_length_c 29.823235
_cell_angle_alpha 90.000000
_cell_angle_beta 121.634666
_cell_angle_gamma 90.000000
_cell_volume 2456.988137
_symmetry_space_group_name_H-M "C 2/C"
_symmetry_group_IT_number 15
_symmetry_cell_setting 'monoclinic'
loop_
_space_group_symop_operation_xyz
x,y,z
-x,y,1/2-z
-x,-y,-z
x,-y,1/2+z
1/2+x,1/2+y,z
1/2-x,1/2+y,1/2-z
1/2-x,1/2-y,-z
1/2+x,1/2-y,1/2+z
loop_
_atom_site_type_symbol
_atom_site_label
_atom_site_fract_x
_atom_site_fract_y
_atom_site_fract_z
Si Si1 0.934332 0.711742 0.501474
Si Si2 0.764774 0.570655 0.933639
Si Si3 0.004319 0.442836 0.325001
Si Si4 0.500000 0.806132 0.750000
Si Si5 0.796247 0.441355 0.058568
Si Si6 0.250000 0.750000 0.500000
Si Si7 0.500000 0.305519 0.750000
Si Si8 0.715014 0.560434 0.820977
O O1 0.846146 0.585969 0.456465
O O2 0.898337 0.663381 0.545740
O O3 0.862262 0.868236 0.477246
O O4 0.107499 0.692610 0.525960
O O5 0.708421 0.582242 0.873198
O O6 0.655935 0.621689 0.951085
O O7 0.995516 0.587481 0.292112
O O8 0.880800 0.450503 0.338762
O O9 0.153289 0.431303 0.380641
O O10 0.974858 0.301952 0.287460
O O11 0.637917 0.698496 0.781646
O O12 0.812133 0.607426 0.043125
O O13 0.631800 0.413576 0.788424
#
# Coordination Sequence:
#
# PCOD9265041 Si02
#       8
#     8   8   8   4   8   4   4   8
#     4   9  19  34  57  82 111 150 194 231 286 364
#     4  10  19  36  57  83 114 154 190 241 299 354
#     4  11  21  40  63  86 118 159 196 252 303 356
#     4  10  24  38  58  88 120 146 200 254 294 352
#     4  10  19  36  57  82 114 154 190 242 293 351
#     4  10  22  34  54  84 122 148 196 242 286 358
#     4  10  24  38  62  94 116 152 212 252 298 370
#     4  11  21  40  63  86 118 160 195 248 308 357
#
# _framework density 21.164124000000001
#
# number of rings (size 3 to 8) (size 9 to 14) (size 15 to 20)
#    0.000    1.846    1.538    2.769    0.000    0.615 
#    0.000    0.000    6.769    0.000    0.000    0.000 
#    0.000    0.000    0.000    0.000    0.000    0.000 
#
# Total GULP energy -144785.625504 kJ/mol
# GULP energy per Si atom -5568.677904 kJ/mol
# Density = 2.111595 g / cm^3
# Si number density = 21.164124 Si / 1000 Ang^3
#
#
#
# Elastic Constant Matrix: (Units=GPa)
#
#
# Indices 1 2 3 4 5 6 
#
# 1 24.3270 9.3880 -5.9121 0.0000 2.2500 0.0000
# 2 9.3880 96.5071 32.6784 0.0000 6.4282 0.0000
# 3 -5.9121 32.6784 125.3620 0.0000 -15.6445 0.0000
# 4 0.0000 0.0000 0.0000 40.1672 0.0000 3.4962
# 5 2.2500 6.4282 -15.6445 0.0000 26.5871 0.0000
# 6 0.0000 0.0000 0.0000 3.4962 0.0000 13.4758
#
#
#
# Elastic Compliance Matrix: (Units=1/GPa)
#
#
# Indices 1 2 3 4 5 6 
#
# 1 0.044075 -0.005428 0.003445 0.000000 -0.000391 0.000000
# 2 -0.005428 0.012643 -0.004183 0.000000 -0.005059 0.000000
# 3 0.003445 -0.004183 0.010058 0.000000 0.006638 0.000000
# 4 0.000000 0.000000 0.000000 0.025471 0.000000 -0.006608
# 5 -0.000391 -0.005059 0.006638 0.000000 0.042775 0.000000
# 6 0.000000 0.000000 0.000000 -0.006608 0.000000 0.075922
#
#
# Mechanical properties :
#
#
# Convention : Reuss Voigt Hill
#
# Bulk Modulus (GPa) = 18.36761 35.38940 26.87851
# Shear Modulus (GPa) = 20.71044 30.04879 25.37961
#
# Velocity S-wave (km/s) = 3.13159 3.77211 3.46668
# Velocity P-wave (km/s) = 4.66619 5.97741 5.36203
#
# Compressibility (1/GPa) = 0.05444366
#
# Stress axis : x y z
#
# Youngs Moduli (GPa) = 22.68881 79.09287 99.42141
#
# Poissons Ratio (x) = 0.42931 -0.34248
# Poissons Ratio (y) = 0.12315 0.41589
# Poissons Ratio (z) = -0.07816 0.33085
#
# Static dielectric constant tensor:
#      x y z
#    x 1.112680 0.000000 0.353520 
#    y 0.000000 1.709170 0.000000 
#    z 0.353520 0.000000 1.503640 
# 
# From -- ./inp_files/272921.got.cif
#   From: 2010.05.17/outbox.cif.g08.bks.cpg/sg15_137_cif.got.tgz:272921.got - 2010.06.03 18:47:42.
