data_PCOD9265459
_publ_section_title
;
Structure prediction by ZEFSAII (Michael W. Deem and Ramdas Pophale) SiO2 
 PCOD9265459
Probable space group: C 2/C
;
_chemical_formula_sum "Si O2"
_cell_formula_units_Z 48
_cell_length_a 30.699986
_cell_length_b 15.195698
_cell_length_c 15.054352
_cell_angle_alpha 90.000000
_cell_angle_beta 17.569146
_cell_angle_gamma 90.000000
_cell_volume 2119.929907
_symmetry_space_group_name_H-M "C 2/C"
_symmetry_group_IT_number 15
_symmetry_cell_setting 'monoclinic'
loop_
_space_group_symop_operation_xyz
x,y,z
-x,y,1/2-z
-x,-y,-z
x,-y,1/2+z
1/2+x,1/2+y,z
1/2-x,1/2+y,1/2-z
1/2-x,1/2-y,-z
1/2+x,1/2-y,1/2+z
loop_
_atom_site_type_symbol
_atom_site_label
_atom_site_fract_x
_atom_site_fract_y
_atom_site_fract_z
Si Si1 0.175783 0.842438 0.286094
Si Si2 0.693626 0.460661 0.768305
Si Si3 0.007304 0.330165 0.633012
Si Si4 0.252214 0.843635 0.817777
Si Si5 0.483623 0.016978 0.927576
Si Si6 0.002762 0.832853 0.042340
O O1 0.187311 0.753871 0.321739
O O2 0.061148 0.826722 0.431248
O O3 0.148013 0.939306 0.378690
O O4 0.340735 0.847346 0.927022
O O5 0.681395 0.393855 0.873424
O O6 0.861158 0.463690 0.416212
O O7 0.602087 0.417172 0.866819
O O8 0.078561 0.425942 0.492213
O O9 0.074566 0.258119 0.437167
O O10 0.000000 0.300309 0.750000
O O11 0.380548 0.903232 0.604963
O O12 0.133570 0.838921 0.125878
O O13 0.500000 0.000000 0.000000
#
# Coordination Sequence:
#
# PCOD9265459 Si02
#       6
#     8   8   8   8   8   8
#     4  10  21  38  59  87 122 161 195 237 301 371
#     4  11  23  39  61  91 121 157 202 249 298 361
#     4  10  19  36  61  87 115 157 204 244 295 369
#     4  11  21  39  63  89 119 158 201 249 301 358
#     4  11  22  39  60  86 120 163 206 250 298 354
#     4  11  21  39  64  90 119 156 200 247 301 365
#
# _framework density 22.642258000000002
#
# number of rings (size 3 to 8) (size 9 to 14) (size 15 to 20)
#    0.000    1.333    0.000   10.500    0.000    0.000 
#    0.000    8.333    0.000    0.000    0.000    0.000 
#    0.000    0.000    0.000    0.000    0.000    0.000 
#
# Total GULP energy -134161.062559 kJ/mol
# GULP energy per Si atom -5590.044273 kJ/mol
# Density = 2.259072 g / cm^3
# Si number density = 22.642258 Si / 1000 Ang^3
#
#
#
# Elastic Constant Matrix: (Units=GPa)
#
#
# Indices 1 2 3 4 5 6 
#
# 1 93.1034 25.9842 -9.0588 0.0000 -11.2127 0.0000
# 2 25.9842 187.4555 17.9903 0.0000 -11.9534 0.0000
# 3 -9.0588 17.9903 31.5614 0.0000 -9.6417 0.0000
# 4 0.0000 0.0000 0.0000 17.7958 0.0000 -4.2094
# 5 -11.2127 -11.9534 -9.6417 0.0000 26.3036 0.0000
# 6 0.0000 0.0000 0.0000 -4.2094 0.0000 40.2403
#
#
#
# Elastic Compliance Matrix: (Units=1/GPa)
#
#
# Indices 1 2 3 4 5 6 
#
# 1 0.012838 -0.001997 0.007002 0.000000 0.007132 0.000000
# 2 -0.001997 0.006011 -0.003857 0.000000 0.000467 0.000000
# 3 0.007002 -0.003857 0.040842 0.000000 0.016203 0.000000
# 4 0.000000 0.000000 0.000000 0.057619 0.000000 0.006027
# 5 0.007132 0.000467 0.016203 0.000000 0.047209 0.000000
# 6 0.000000 0.000000 0.000000 0.006027 0.000000 0.025481
#
#
# Mechanical properties :
#
#
# Convention : Reuss Voigt Hill
#
# Bulk Modulus (GPa) = 16.13229 42.43910 29.28570
# Shear Modulus (GPa) = 23.99606 35.34825 29.67216
#
# Velocity S-wave (km/s) = 3.25897 3.95544 3.62398
# Velocity P-wave (km/s) = 4.61536 6.29640 5.52025
#
# Compressibility (1/GPa) = 0.06198747
#
# Stress axis : x y z
#
# Youngs Moduli (GPa) = 77.89281 166.35317 24.48447
#
# Poissons Ratio (x) = 0.33217 -0.17143
# Poissons Ratio (y) = 0.15553 0.09444
# Poissons Ratio (z) = -0.54538 0.64163
#
# Static dielectric constant tensor:
#      x y z
#    x 1.856790 0.000000 -0.008330 
#    y 0.000000 1.939560 0.000000 
#    z -0.008330 0.000000 1.820810 
# 
# From -- ./inp_files/182413.got.cif
#   From: 2010.05.17/outbox.cif.g08.bks.cpg/sg15_92_cif.got.tgz:182413.got - 2010.06.03 18:47:42.
