data_PCOD9265703
_publ_section_title
;
Structure prediction by ZEFSAII (Michael W. Deem and Ramdas Pophale) SiO2 
 PCOD9265703
Probable space group: C 2/C
;
_chemical_formula_sum "Si O2"
_cell_formula_units_Z 56
_cell_length_a 24.335492
_cell_length_b 9.657964
_cell_length_c 15.208029
_cell_angle_alpha 90.000000
_cell_angle_beta 44.247822
_cell_angle_gamma 90.000000
_cell_volume 2494.059012
_symmetry_space_group_name_H-M "C 2/C"
_symmetry_group_IT_number 15
_symmetry_cell_setting 'monoclinic'
loop_
_space_group_symop_operation_xyz
x,y,z
-x,y,1/2-z
-x,-y,-z
x,-y,1/2+z
1/2+x,1/2+y,z
1/2-x,1/2+y,1/2-z
1/2-x,1/2-y,-z
1/2+x,1/2-y,1/2+z
loop_
_atom_site_type_symbol
_atom_site_label
_atom_site_fract_x
_atom_site_fract_y
_atom_site_fract_z
Si Si1 0.041023 0.648590 0.445829
Si Si2 0.311359 0.832675 0.622841
Si Si3 0.094200 0.583862 0.658827
Si Si4 0.771637 0.101795 0.781152
Si Si5 0.468131 0.677495 0.186010
Si Si6 0.830773 0.296742 0.953511
Si Si7 0.074680 0.861749 0.274693
O O1 0.132549 0.620138 0.360935
O O2 0.026247 0.735892 0.374237
O O3 0.000000 0.500000 0.500000
O O4 0.017839 0.754683 0.550709
O O5 0.361017 0.856940 0.477949
O O6 0.285961 0.677107 0.672709
O O7 0.239568 0.938385 0.707168
O O8 0.100010 0.705027 0.724876
O O9 0.136665 0.438520 0.627078
O O10 0.000000 0.553902 0.750000
O O11 0.846645 0.132134 0.755829
O O12 0.694805 0.166903 0.917946
O O13 0.500000 0.679148 0.250000
O O14 0.457040 0.516170 0.181610
O O15 0.896254 0.181641 0.855951
O O16 0.750000 0.250000 0.000000
#
# Coordination Sequence:
#
# PCOD9265703 Si02
#       7
#     8   8   8   8   8   8   8
#     4  11  22  40  63  89 125 165 208 257 313 381
#     4  10  20  39  60  88 121 161 204 260 307 372
#     4  10  19  36  64  86 121 165 211 252 317 383
#     4   9  21  38  59  84 123 157 210 250 306 368
#     4  11  22  40  59  92 128 161 203 262 323 378
#     4   9  19  39  58  86 119 161 206 263 300 374
#     4  10  22  38  60  89 127 157 205 261 313 367
#
# _framework density 22.453358999999999
#
# number of rings (size 3 to 8) (size 9 to 14) (size 15 to 20)
#    0.000    2.000    2.857    1.286    0.000    2.857 
#    2.571    6.429    0.000    0.000    0.000    0.000 
#    0.000    0.000    0.000    0.000    0.000    0.000 
#
# Total GULP energy -155996.733376 kJ/mol
# GULP energy per Si atom -5571.311906 kJ/mol
# Density = 2.240225 g / cm^3
# Si number density = 22.453359 Si / 1000 Ang^3
#
#
#
# Elastic Constant Matrix: (Units=GPa)
#
#
# Indices 1 2 3 4 5 6 
#
# 1 11.2379 8.6746 11.5962 -0.0003 7.5378 0.0001
# 2 8.6746 132.5411 46.5656 -0.0012 -4.6070 0.0009
# 3 11.5962 46.5656 80.0748 -0.0005 8.9476 0.0005
# 4 -0.0003 -0.0012 -0.0005 42.8890 0.0004 3.2459
# 5 7.5378 -4.6070 8.9476 0.0004 16.3095 -0.0002
# 6 0.0001 0.0009 0.0005 3.2459 -0.0002 30.1203
#
#
#
# Elastic Compliance Matrix: (Units=1/GPa)
#
#
# Indices 1 2 3 4 5 6 
#
# 1 0.150176 -0.008981 -0.009041 0.000001 -0.066985 -0.000001
# 2 -0.008981 0.010620 -0.006045 0.000000 0.010467 0.000000
# 3 -0.009041 -0.006045 0.018149 0.000000 -0.007486 0.000000
# 4 0.000001 0.000000 0.000000 0.023508 -0.000001 -0.002533
# 5 -0.066985 0.010467 -0.007486 -0.000001 0.099336 0.000001
# 6 -0.000001 0.000000 0.000000 -0.002533 0.000001 0.033473
#
#
# Mechanical properties :
#
#
# Convention : Reuss Voigt Hill
#
# Bulk Modulus (GPa) = 7.64452 39.72519 23.68485
# Shear Modulus (GPa) = 11.70961 28.33158 20.02060
#
# Velocity S-wave (km/s) = 2.28613 3.55603 2.98929
# Velocity P-wave (km/s) = 3.22189 5.88143 4.74193
#
# Compressibility (1/GPa) = 0.13081269
#
# Stress axis : x y z
#
# Youngs Moduli (GPa) = 6.65885 94.16022 55.09835
#
# Poissons Ratio (x) = 0.84564 0.49813
# Poissons Ratio (y) = 0.05980 0.33307
# Poissons Ratio (z) = 0.06020 0.56919
#
# Static dielectric constant tensor:
#      x y z
#    x 1.877060 0.000000 -0.002230 
#    y 0.000000 1.879990 0.000000 
#    z -0.002230 0.000000 1.904120 
# 
# From -- ./inp_files/224403.got.cif
#   From: 2010.05.17/outbox.cif.g08.bks.cpg/sg15_113_cif.got.tgz:224403.got - 2010.06.03 18:47:42.
