data_PCOD9265813
_publ_section_title
;
Structure prediction by ZEFSAII (Michael W. Deem and Ramdas Pophale) SiO2 
 PCOD9265813
Probable space group: C 2/C
;
_chemical_formula_sum "Si O2"
_cell_formula_units_Z 52
_cell_length_a 13.239681
_cell_length_b 8.916225
_cell_length_c 27.895695
_cell_angle_alpha 90.000000
_cell_angle_beta 52.465327
_cell_angle_gamma 90.000000
_cell_volume 2611.322967
_symmetry_space_group_name_H-M "C 2/C"
_symmetry_group_IT_number 15
_symmetry_cell_setting 'monoclinic'
loop_
_space_group_symop_operation_xyz
x,y,z
-x,y,1/2-z
-x,-y,-z
x,-y,1/2+z
1/2+x,1/2+y,z
1/2-x,1/2+y,1/2-z
1/2-x,1/2-y,-z
1/2+x,1/2-y,1/2+z
loop_
_atom_site_type_symbol
_atom_site_label
_atom_site_fract_x
_atom_site_fract_y
_atom_site_fract_z
Si Si1 0.951529 0.688034 0.923802
Si Si2 0.266710 0.886867 0.563941
Si Si3 0.464236 0.911860 0.662782
Si Si4 0.047238 0.988120 0.931436
Si Si5 0.772661 0.224941 0.658176
Si Si6 0.500000 0.091471 0.750000
Si Si7 0.340861 0.316801 0.433228
O O1 0.849127 0.776657 0.919568
O O2 0.021477 0.555235 0.876312
O O3 0.043164 0.816492 0.917152
O O4 0.871198 0.627365 0.992116
O O5 0.308797 0.830213 0.603072
O O6 0.228985 0.059806 0.578290
O O7 0.346494 0.802384 0.681576
O O8 0.589350 0.811636 0.616452
O O9 0.468048 0.983843 0.714212
O O10 0.176166 0.065263 0.876547
O O11 0.944451 0.084347 0.931582
O O12 0.000000 0.000000 0.000000
O O13 0.623121 0.198712 0.708039
O O14 0.250000 0.250000 0.500000
#
# Coordination Sequence:
#
# PCOD9265813 Si02
#       7
#     8   8   8   8   8   4   8
#     4  10  19  36  68  99 137 174 210 278 353 407
#     4  10  19  37  65 101 136 174 210 272 356 409
#     4  11  25  46  69  99 130 186 238 278 345 417
#     4  10  21  35  64 102 136 169 217 278 350 420
#     4  11  25  46  69  97 131 183 236 281 347 419
#     4  12  28  52  72  86 148 190 234 298 338 398
#     4  10  21  36  63 102 139 166 214 280 347 415
#
# _framework density 19.913278999999999
#
# number of rings (size 3 to 8) (size 9 to 14) (size 15 to 20)
#    0.000    1.538    4.615    0.000    2.154    3.077 
#    5.538    0.000    0.000    0.000    0.000    0.000 
#    0.000    0.000    0.000    0.000    0.000    0.000 
#
# Total GULP energy -145108.066348 kJ/mol
# GULP energy per Si atom -5581.079475 kJ/mol
# Density = 1.986796 g / cm^3
# Si number density = 19.913279 Si / 1000 Ang^3
#
#
#
# Elastic Constant Matrix: (Units=GPa)
#
#
# Indices 1 2 3 4 5 6 
#
# 1 49.2094 20.7086 36.1620 0.0000 2.6316 0.0000
# 2 20.7086 112.1567 30.6571 0.0000 4.3468 0.0000
# 3 36.1620 30.6571 75.0301 0.0000 4.8868 0.0000
# 4 0.0000 0.0000 0.0000 20.1746 0.0000 -0.7121
# 5 2.6316 4.3468 4.8868 0.0000 39.1543 0.0000
# 6 0.0000 0.0000 0.0000 -0.7121 0.0000 34.0227
#
#
#
# Elastic Compliance Matrix: (Units=1/GPa)
#
#
# Indices 1 2 3 4 5 6 
#
# 1 0.031820 -0.001892 -0.014556 0.000000 -0.000112 0.000000
# 2 -0.001892 0.010164 -0.003202 0.000000 -0.000602 0.000000
# 3 -0.014556 -0.003202 0.021741 0.000000 -0.001380 0.000000
# 4 0.000000 0.000000 0.000000 0.049604 0.000000 0.001038
# 5 -0.000112 -0.000602 -0.001380 0.000000 0.025787 0.000000
# 6 0.000000 0.000000 0.000000 0.001038 0.000000 0.029414
#
#
# Mechanical properties :
#
#
# Convention : Reuss Voigt Hill
#
# Bulk Modulus (GPa) = 40.94009 45.71686 43.32848
# Shear Modulus (GPa) = 23.15125 28.59489 25.87307
#
# Velocity S-wave (km/s) = 3.41340 3.79353 3.60847
# Velocity P-wave (km/s) = 6.01156 6.49582 6.25838
#
# Compressibility (1/GPa) = 0.02442593
#
# Stress axis : x y z
#
# Youngs Moduli (GPa) = 31.42682 98.38667 45.99513
#
# Poissons Ratio (x) = 0.18617 0.66949
# Poissons Ratio (y) = 0.05947 0.14727
# Poissons Ratio (z) = 0.45744 0.31501
#
# Static dielectric constant tensor:
#      x y z
#    x 1.797360 0.000000 -0.026850 
#    y 0.000000 1.719260 0.000000 
#    z -0.026850 0.000000 1.682300 
# 
# From -- ./inp_files/295034.got.cif
#   From: 2010.05.17/outbox.cif.g08.bks.cpg/sg15_148_cif.got.tgz:295034.got - 2010.06.03 18:47:42.
