data_PCOD9265942
_publ_section_title
;
Structure prediction by ZEFSAII (Michael W. Deem and Ramdas Pophale) SiO2 
 PCOD9265942
Probable space group: C 2/C
;
_chemical_formula_sum "Si O2"
_cell_formula_units_Z 48
_cell_length_a 10.536183
_cell_length_b 15.710944
_cell_length_c 14.492370
_cell_angle_alpha 90.000000
_cell_angle_beta 62.985466
_cell_angle_gamma 90.000000
_cell_volume 2137.222479
_symmetry_space_group_name_H-M "C 2/C"
_symmetry_group_IT_number 15
_symmetry_cell_setting 'monoclinic'
loop_
_space_group_symop_operation_xyz
x,y,z
-x,y,1/2-z
-x,-y,-z
x,-y,1/2+z
1/2+x,1/2+y,z
1/2-x,1/2+y,1/2-z
1/2-x,1/2-y,-z
1/2+x,1/2-y,1/2+z
loop_
_atom_site_type_symbol
_atom_site_label
_atom_site_fract_x
_atom_site_fract_y
_atom_site_fract_z
Si Si1 0.330177 0.432552 0.301115
Si Si2 0.841265 0.327473 0.510667
Si Si3 0.131567 0.490491 0.527677
Si Si4 0.542216 0.810569 0.601011
Si Si5 0.273145 0.249938 0.311682
Si Si6 0.653284 0.610156 0.244786
O O1 0.500000 0.414505 0.250000
O O2 0.267397 0.460127 0.421724
O O3 0.249395 0.348007 0.296399
O O4 0.305704 0.513807 0.243242
O O5 0.750000 0.250000 0.500000
O O6 0.850802 0.412174 0.443463
O O7 0.753534 0.361797 0.627647
O O8 0.991850 0.302418 0.510635
O O9 0.086386 0.409315 0.603278
O O10 0.000000 0.500000 0.500000
O O11 0.668021 0.755777 0.604389
O O12 0.406232 0.781547 0.705208
O O13 0.157002 0.180261 0.322879
O O14 0.500000 0.604340 0.250000
#
# Coordination Sequence:
#
# PCOD9265942 Si02
#       6
#     8   8   8   8   8   8
#     4  10  19  37  60  81 118 160 186 243 310 345
#     4   9  18  35  57  79 117 152 187 243 294 346
#     4   9  19  35  57  85 117 158 195 245 300 347
#     4   9  18  35  56  83 114 149 199 238 289 347
#     4  10  19  37  58  83 118 153 199 245 290 358
#     4   9  20  36  56  80 111 151 192 234 293 354
#
# _framework density 22.459056
#
# number of rings (size 3 to 8) (size 9 to 14) (size 15 to 20)
#    0.000    2.667    1.667    1.000    0.000    3.333 
#    6.000    0.000    0.000    5.000    0.000    0.000 
#    0.000    0.000    0.000    0.000    0.000    0.000 
#
# Total GULP energy -133642.026645 kJ/mol
# GULP energy per Si atom -5568.417777 kJ/mol
# Density = 2.240794 g / cm^3
# Si number density = 22.459056 Si / 1000 Ang^3
#
#
#
# Elastic Constant Matrix: (Units=GPa)
#
#
# Indices 1 2 3 4 5 6 
#
# 1 63.3998 44.2457 2.9581 0.0000 7.2764 0.0000
# 2 44.2457 220.2777 18.7142 0.0000 20.6930 0.0000
# 3 2.9581 18.7142 53.1667 0.0000 -16.2359 0.0000
# 4 0.0000 0.0000 0.0000 31.5156 0.0000 2.8341
# 5 7.2764 20.6930 -16.2359 0.0000 23.2243 0.0000
# 6 0.0000 0.0000 0.0000 2.8341 0.0000 32.5705
#
#
#
# Elastic Compliance Matrix: (Units=1/GPa)
#
#
# Indices 1 2 3 4 5 6 
#
# 1 0.018531 -0.003313 -0.000936 0.000000 -0.003509 0.000000
# 2 -0.003313 0.006290 -0.004354 0.000000 -0.007610 0.000000
# 3 -0.000936 -0.004354 0.027549 0.000000 0.023431 0.000000
# 4 0.000000 0.000000 0.000000 0.031981 0.000000 -0.002783
# 5 -0.003509 -0.007610 0.023431 0.000000 0.067319 0.000000
# 6 0.000000 0.000000 0.000000 -0.002783 0.000000 0.030945
#
#
# Mechanical properties :
#
#
# Convention : Reuss Voigt Hill
#
# Bulk Modulus (GPa) = 28.43809 52.07557 40.25683
# Shear Modulus (GPa) = 23.63604 35.52385 29.57994
#
# Velocity S-wave (km/s) = 3.24760 3.98139 3.63307
# Velocity P-wave (km/s) = 5.17226 6.66127 5.96342
#
# Compressibility (1/GPa) = 0.03516411
#
# Stress axis : x y z
#
# Youngs Moduli (GPa) = 53.96218 158.98384 36.29942
#
# Poissons Ratio (x) = 0.52674 0.03399
# Poissons Ratio (y) = 0.17878 0.15803
# Poissons Ratio (z) = 0.05053 0.69214
#
# Static dielectric constant tensor:
#      x y z
#    x 1.772410 0.000000 0.111400 
#    y 0.000000 1.924450 0.000000 
#    z 0.111400 0.000000 1.734660 
# 
# From -- ./inp_files/143470.got.cif
#   From: 2010.05.17/outbox.cif.g08.bks.cpg/sg15_72_cif.got.tgz:143470.got - 2010.06.03 18:47:42.
