data_PCOD9265514
_publ_section_title
;
Structure prediction by ZEFSAII (Michael W. Deem and Ramdas Pophale) SiO2 
 PCOD9265514
Probable space group: C 2/C
;
_chemical_formula_sum "Si O2"
_cell_formula_units_Z 32
_cell_length_a 22.249302
_cell_length_b 8.451508
_cell_length_c 17.060912
_cell_angle_alpha 90.000000
_cell_angle_beta 21.549552
_cell_angle_gamma 90.000000
_cell_volume 1178.367012
_symmetry_space_group_name_H-M "C 2/C"
_symmetry_group_IT_number 15
_symmetry_cell_setting 'monoclinic'
loop_
_space_group_symop_operation_xyz
x,y,z
-x,y,1/2-z
-x,-y,-z
x,-y,1/2+z
1/2+x,1/2+y,z
1/2-x,1/2+y,1/2-z
1/2-x,1/2-y,-z
1/2+x,1/2-y,1/2+z
loop_
_atom_site_type_symbol
_atom_site_label
_atom_site_fract_x
_atom_site_fract_y
_atom_site_fract_z
Si Si1 0.365865 0.588801 0.287699
Si Si2 0.149749 0.712907 0.837524
Si Si3 0.000000 0.658223 0.750000
Si Si4 0.193059 0.620421 0.213289
Si Si5 0.500000 0.644795 0.750000
O O1 0.400778 0.643149 0.157662
O O2 0.168197 0.568263 0.528074
O O3 0.435879 0.732420 0.256684
O O4 0.451391 0.445674 0.227850
O O5 0.213925 0.567790 0.705594
O O6 0.276936 0.786190 0.742858
O O7 0.998270 0.643494 0.070746
O O8 0.318240 0.692392 0.999021
#
# Coordination Sequence:
#
# PCOD9265514 Si02
#       5
#     8   8   4   8   4
#     4  10  19  36  61  92 126 164 208 257 310 374
#     4  11  24  43  67  95 129 168 214 264 318 379
#     4   9  16  28  56  91 120 151 206 263 300 351
#     4  11  25  44  66  95 129 169 215 264 318 380
#     4  11  24  40  64  95 132 169 212 263 320 379
#
# _framework density 27.156226
#
# number of rings (size 3 to 8) (size 9 to 14) (size 15 to 20)
#    0.000    1.500    0.000    7.500    0.000    7.000 
#    0.000    0.000    0.000    6.000    0.000    0.000 
#    0.000    0.000    0.000    0.000    0.000    0.000 
#
# Total GULP energy -89425.454057 kJ/mol
# GULP energy per Si atom -5589.090879 kJ/mol
# Density = 2.709442 g / cm^3
# Si number density = 27.156226 Si / 1000 Ang^3
#
#
#
# Elastic Constant Matrix: (Units=GPa)
#
#
# Indices 1 2 3 4 5 6 
#
# 1 72.0575 29.7026 30.2137 0.0000 -24.2228 0.0000
# 2 29.7026 99.1350 17.6608 0.0000 -5.5138 0.0000
# 3 30.2137 17.6608 172.5154 0.0000 -11.9962 0.0000
# 4 0.0000 0.0000 0.0000 -2.6696 0.0000 -11.6604
# 5 -24.2228 -5.5138 -11.9962 0.0000 45.7237 0.0000
# 6 0.0000 0.0000 0.0000 -11.6604 0.0000 40.3676
#
#
#
# Elastic Compliance Matrix: (Units=1/GPa)
#
#
# Indices 1 2 3 4 5 6 
#
# 1 0.020132 -0.005089 -0.002349 0.000000 0.009435 0.000000
# 2 -0.005089 0.011604 -0.000394 0.000000 -0.001400 0.000000
# 3 -0.002349 -0.000394 0.006273 0.000000 0.000354 0.000000
# 4 0.000000 0.000000 0.000000 -0.165623 0.000000 -0.047841
# 5 0.009435 -0.001400 0.000354 0.000000 0.026793 0.000000
# 6 0.000000 0.000000 0.000000 -0.047841 0.000000 0.010953
#
#
# Mechanical properties :
#
#
# Convention : Reuss Voigt Hill
#
# Bulk Modulus (GPa) = 44.75068 55.42913 50.08991
# Shear Modulus (GPa) = -74.89995 34.42640 -20.23677
#
# Velocity S-wave (km/s) = -5.25747 3.56436 -2.73279
# Velocity P-wave (km/s) = 4.50998 6.11515 2.92020
#
# Compressibility (1/GPa) = 0.02234603
#
# Stress axis : x y z
#
# Youngs Moduli (GPa) = 49.67216 86.17529 159.41589
#
# Poissons Ratio (x) = 0.43852 0.37444
# Poissons Ratio (y) = 0.25277 0.06282
# Poissons Ratio (z) = 0.11667 0.03396
#
# Static dielectric constant tensor:
#      x y z
#    x 2.014080 0.000000 0.002990 
#    y 0.000000 2.169510 0.000000 
#    z 0.002990 0.000000 2.214480 
# 
# From -- ./inp_files/219235.got.cif
#   From: 2010.05.17/outbox.cif.g08.bks.cpg/sg15_110_cif.got.tgz:219235.got - 2010.06.03 18:47:42.
