data_PCOD9265374
_publ_section_title
;
Structure prediction by ZEFSAII (Michael W. Deem and Ramdas Pophale) SiO2 
 PCOD9265374
Probable space group: C 2/C
;
_chemical_formula_sum "Si O2"
_cell_formula_units_Z 52
_cell_length_a 24.640553
_cell_length_b 8.505946
_cell_length_c 20.668825
_cell_angle_alpha 90.000000
_cell_angle_beta 146.536454
_cell_angle_gamma 90.000000
_cell_volume 2388.694444
_symmetry_space_group_name_H-M "C 2/C"
_symmetry_group_IT_number 15
_symmetry_cell_setting 'monoclinic'
loop_
_space_group_symop_operation_xyz
x,y,z
-x,y,1/2-z
-x,-y,-z
x,-y,1/2+z
1/2+x,1/2+y,z
1/2-x,1/2+y,1/2-z
1/2-x,1/2-y,-z
1/2+x,1/2-y,1/2+z
loop_
_atom_site_type_symbol
_atom_site_label
_atom_site_fract_x
_atom_site_fract_y
_atom_site_fract_z
Si Si1 0.156786 0.265339 0.080784
Si Si2 0.882055 0.199005 0.308146
Si Si3 0.000000 0.819982 0.750000
Si Si4 0.985700 0.066752 0.841654
Si Si5 0.014948 0.525289 0.939309
Si Si6 0.811962 0.655433 0.613471
Si Si7 0.151192 0.333198 0.804649
O O1 0.154737 0.228289 0.155631
O O2 0.260933 0.229383 0.152503
O O3 0.072412 0.155952 0.964924
O O4 0.119068 0.443592 0.028520
O O5 0.985418 0.294565 0.401463
O O6 0.805941 0.273761 0.180330
O O7 0.912687 0.023606 0.318919
O O8 0.919974 0.704984 0.698963
O O9 0.029937 0.938885 0.836876
O O10 0.913732 0.189671 0.732898
O O11 0.929481 0.429651 0.817395
O O12 0.000000 0.500000 0.000000
O O13 0.750000 0.750000 0.500000
O O14 0.803167 0.467306 0.603882
#
# Coordination Sequence:
#
# PCOD9265374 Si02
#       7
#     8   8   4   8   8   8   8
#     4  10  19  36  60  87 123 159 188 249 313 352
#     4   9  19  36  58  87 120 157 202 243 294 372
#     4  10  22  42  60  80 114 156 200 250 302 358
#     4  10  21  38  59  87 118 153 201 252 303 363
#     4   8  17  35  54  80 120 159 197 235 289 362
#     4  10  21  41  62  85 117 161 211 249 295 370
#     4  10  21  36  59  91 120 152 203 252 305 374
#
# _framework density 21.769213000000001
#
# number of rings (size 3 to 8) (size 9 to 14) (size 15 to 20)
#    0.000    2.462    0.000    1.385    0.000    4.308 
#    0.000   34.615    0.000    0.000    0.000    0.000 
#    0.000    0.000    0.000    0.000    0.000    0.000 
#
# Total GULP energy -144946.935974 kJ/mol
# GULP energy per Si atom -5574.882153 kJ/mol
# Density = 2.171967 g / cm^3
# Si number density = 21.769213 Si / 1000 Ang^3
#
#
#
# Elastic Constant Matrix: (Units=GPa)
#
#
# Indices 1 2 3 4 5 6 
#
# 1 79.5817 28.3050 24.3743 0.0000 -0.6211 0.0000
# 2 28.3050 95.4198 12.0199 0.0000 6.3482 0.0000
# 3 24.3743 12.0199 43.9157 0.0000 -11.8590 0.0000
# 4 0.0000 0.0000 0.0000 22.1458 0.0000 0.6024
# 5 -0.6211 6.3482 -11.8590 0.0000 21.6542 0.0000
# 6 0.0000 0.0000 0.0000 0.6024 0.0000 30.6437
#
#
#
# Elastic Compliance Matrix: (Units=1/GPa)
#
#
# Indices 1 2 3 4 5 6 
#
# 1 0.016615 -0.003534 -0.009208 0.000000 -0.003530 0.000000
# 2 -0.003534 0.012227 -0.002794 0.000000 -0.005216 0.000000
# 3 -0.009208 -0.002794 0.033794 0.000000 0.019062 0.000000
# 4 0.000000 0.000000 0.000000 0.045179 0.000000 -0.000888
# 5 -0.003530 -0.005216 0.019062 0.000000 0.058048 0.000000
# 6 0.000000 0.000000 0.000000 -0.000888 0.000000 0.032651
#
#
# Mechanical properties :
#
#
# Convention : Reuss Voigt Hill
#
# Bulk Modulus (GPa) = 31.68063 38.70175 35.19119
# Shear Modulus (GPa) = 20.82407 25.16992 22.99699
#
# Velocity S-wave (km/s) = 3.09622 3.40401 3.25376
# Velocity P-wave (km/s) = 5.23132 5.76771 5.50605
#
# Compressibility (1/GPa) = 0.03156503
#
# Stress axis : x y z
#
# Youngs Moduli (GPa) = 60.18555 81.78455 29.59134
#
# Poissons Ratio (x) = 0.28902 0.27247
# Poissons Ratio (y) = 0.21269 0.08267
# Poissons Ratio (z) = 0.55418 0.22848
#
# Static dielectric constant tensor:
#      x y z
#    x 1.793870 0.000000 -0.032720 
#    y 0.000000 1.853910 0.000000 
#    z -0.032720 0.000000 1.813160 
# 
# From -- ./inp_files/283317.got.cif
#   From: 2010.05.17/outbox.cif.g08.bks.cpg/sg15_142_cif.got.tgz:283317.got - 2010.06.03 18:47:42.
