data_PCOD9265612
_publ_section_title
;
Structure prediction by ZEFSAII (Michael W. Deem and Ramdas Pophale) SiO2 
 PCOD9265612
Probable space group: C 2/C
;
_chemical_formula_sum "Si O2"
_cell_formula_units_Z 64
_cell_length_a 16.005585
_cell_length_b 10.456881
_cell_length_c 19.187860
_cell_angle_alpha 90.000000
_cell_angle_beta 75.962989
_cell_angle_gamma 90.000000
_cell_volume 3115.547200
_symmetry_space_group_name_H-M "C 2/C"
_symmetry_group_IT_number 15
_symmetry_cell_setting 'monoclinic'
loop_
_space_group_symop_operation_xyz
x,y,z
-x,y,1/2-z
-x,-y,-z
x,-y,1/2+z
1/2+x,1/2+y,z
1/2-x,1/2+y,1/2-z
1/2-x,1/2-y,-z
1/2+x,1/2-y,1/2+z
loop_
_atom_site_type_symbol
_atom_site_label
_atom_site_fract_x
_atom_site_fract_y
_atom_site_fract_z
Si Si1 0.065132 0.349810 0.048954
Si Si2 0.068871 0.801225 0.678054
Si Si3 0.796745 0.999592 0.895221
Si Si4 0.820982 0.601953 0.195060
Si Si5 0.753055 0.445625 0.441830
Si Si6 0.273016 0.854440 0.296333
Si Si7 0.686133 0.775712 0.578479
Si Si8 0.495701 0.136002 0.090744
O O1 0.031121 0.251020 0.113212
O O2 0.166779 0.364118 0.043942
O O3 0.024720 0.488905 0.072435
O O4 0.043909 0.315776 0.974271
O O5 0.123518 0.927251 0.653664
O O6 0.134439 0.694499 0.694734
O O7 0.000000 0.825250 0.750000
O O8 0.713674 0.937244 0.875297
O O9 0.797413 0.149932 0.880053
O O10 0.800559 0.974289 0.977722
O O11 0.772645 0.731309 0.228403
O O12 0.791622 0.480674 0.247511
O O13 0.922424 0.630157 0.165038
O O14 0.718975 0.380291 0.378803
O O15 0.787789 0.581567 0.405579
O O16 0.750000 0.750000 0.500000
O O17 0.583792 0.786281 0.585727
#
# Coordination Sequence:
#
# PCOD9265612 Si02
#       8
#     8   8   8   8   8   8   8   8
#     4   9  18  32  62  88 114 149 209 262 293 366
#     4  10  21  39  56  84 124 165 207 250 322 378
#     4  10  21  38  63  86 125 170 207 258 325 392
#     4  11  23  40  63  94 129 167 218 261 330 381
#     4   9  18  38  63  89 114 161 214 257 313 374
#     4  10  24  39  63  92 126 168 207 268 318 384
#     4   9  20  38  59  92 126 157 201 266 326 372
#     4  10  19  36  62  95 117 160 213 260 308 382
#
# _framework density 20.542138999999999
#
# number of rings (size 3 to 8) (size 9 to 14) (size 15 to 20)
#    0.000    2.250    1.250    0.750    5.250    1.500 
#    4.500    1.875    0.000    0.000    0.000    0.000 
#    0.000    0.000    0.000    0.000    0.000    0.000 
#
# Total GULP energy -178358.578895 kJ/mol
# GULP energy per Si atom -5573.705590 kJ/mol
# Density = 2.049538 g / cm^3
# Si number density = 20.542139 Si / 1000 Ang^3
#
#
#
# Elastic Constant Matrix: (Units=GPa)
#
#
# Indices 1 2 3 4 5 6 
#
# 1 55.9794 17.9123 11.1581 0.0000 -16.8066 0.0000
# 2 17.9123 88.0668 27.0396 0.0000 4.7566 0.0000
# 3 11.1581 27.0396 53.6311 0.0000 -5.5235 0.0000
# 4 0.0000 0.0000 0.0000 31.5286 0.0000 -0.6464
# 5 -16.8066 4.7566 -5.5235 0.0000 15.2884 0.0000
# 6 0.0000 0.0000 0.0000 -0.6464 0.0000 9.6220
#
#
#
# Elastic Compliance Matrix: (Units=1/GPa)
#
#
# Indices 1 2 3 4 5 6 
#
# 1 0.032094 -0.009236 0.001983 0.000000 0.038871 0.000000
# 2 -0.009236 0.016828 -0.008463 0.000000 -0.018446 0.000000
# 3 0.001983 -0.008463 0.023884 0.000000 0.013442 0.000000
# 4 0.000000 0.000000 0.000000 0.031761 0.000000 0.002134
# 5 0.038871 -0.018446 0.013442 0.000000 0.118736 0.000000
# 6 0.000000 0.000000 0.000000 0.002134 0.000000 0.104071
#
#
# Mechanical properties :
#
#
# Convention : Reuss Voigt Hill
#
# Bulk Modulus (GPa) = 24.16928 34.43303 29.30116
# Shear Modulus (GPa) = 13.41927 20.72562 17.07244
#
# Velocity S-wave (km/s) = 2.55866 3.17981 2.88600
# Velocity P-wave (km/s) = 4.52993 5.50274 5.03986
#
# Compressibility (1/GPa) = 0.04137483
#
# Stress axis : x y z
#
# Youngs Moduli (GPa) = 31.15847 59.42406 41.86823
#
# Poissons Ratio (x) = 0.54884 -0.08301
# Poissons Ratio (y) = 0.28778 0.35432
# Poissons Ratio (z) = -0.06178 0.50288
#
# Static dielectric constant tensor:
#      x y z
#    x 1.734290 0.000000 0.003700 
#    y 0.000000 1.750860 0.000000 
#    z 0.003700 0.000000 1.769990 
# 
# From -- ./inp_files/210283.got.cif
#   From: 2010.05.17/outbox.cif.g08.bks.cpg/sg15_106_cif.got.tgz:210283.got - 2010.06.03 18:47:42.
