data_PCOD9265553
_publ_section_title
;
Structure prediction by ZEFSAII (Michael W. Deem and Ramdas Pophale) SiO2 
 PCOD9265553
Probable space group: C 2/C
;
_chemical_formula_sum "Si O2"
_cell_formula_units_Z 56
_cell_length_a 18.202783
_cell_length_b 7.788520
_cell_length_c 24.199286
_cell_angle_alpha 90.000000
_cell_angle_beta 132.737921
_cell_angle_gamma 90.000000
_cell_volume 2519.803886
_symmetry_space_group_name_H-M "C 2/C"
_symmetry_group_IT_number 15
_symmetry_cell_setting 'monoclinic'
loop_
_space_group_symop_operation_xyz
x,y,z
-x,y,1/2-z
-x,-y,-z
x,-y,1/2+z
1/2+x,1/2+y,z
1/2-x,1/2+y,1/2-z
1/2-x,1/2-y,-z
1/2+x,1/2-y,1/2+z
loop_
_atom_site_type_symbol
_atom_site_label
_atom_site_fract_x
_atom_site_fract_y
_atom_site_fract_z
Si Si1 0.770152 0.326984 0.797576
Si Si2 0.146122 0.642148 0.454408
Si Si3 0.960890 0.845283 0.412492
Si Si4 0.595132 0.902282 0.197142
Si Si5 0.393707 0.880792 0.689056
Si Si6 0.282607 0.102819 0.892374
Si Si7 0.017884 0.754766 0.558525
O O1 0.844805 0.163978 0.836634
O O2 0.661143 0.268168 0.725750
O O3 0.836978 0.448492 0.793799
O O4 0.755545 0.432981 0.845851
O O5 0.250000 0.750000 0.500000
O O6 0.124484 0.560170 0.383473
O O7 0.176715 0.549435 0.526691
O O8 0.046341 0.754371 0.418716
O O9 0.958221 0.742601 0.470030
O O10 0.990948 0.043324 0.433163
O O11 0.505587 0.860434 0.107795
O O12 0.592213 0.964969 0.259264
O O13 0.500000 0.785897 0.750000
O O14 0.306510 0.742319 0.654445
O O15 0.373226 0.199179 0.907990
#
# Coordination Sequence:
#
# PCOD9265553 Si02
#       7
#     8   8   8   8   8   8   8
#     4  11  21  35  60  86 110 142 180 241 292 326
#     4   9  20  37  56  78 111 154 191 221 266 337
#     4  10  19  36  62  87 111 146 189 230 285 340
#     4  11  22  36  55  85 118 143 181 235 291 331
#     4  11  22  37  56  78 112 158 192 223 272 343
#     4   9  20  39  59  83 113 145 189 236 283 332
#     4   9  20  36  60  90 114 138 181 245 291 330
#
# _framework density 22.223953000000002
#
# number of rings (size 3 to 8) (size 9 to 14) (size 15 to 20)
#    0.000    2.000    0.000    4.286    0.000    8.571 
#    0.000    4.286    0.000    0.000    0.000    0.000 
#    0.000    0.000    0.000    0.000    0.000    0.000 
#
# Total GULP energy -155894.626634 kJ/mol
# GULP energy per Si atom -5567.665237 kJ/mol
# Density = 2.217337 g / cm^3
# Si number density = 22.223953 Si / 1000 Ang^3
#
#
#
# Elastic Constant Matrix: (Units=GPa)
#
#
# Indices 1 2 3 4 5 6 
#
# 1 56.1757 11.7991 35.0943 0.0000 -24.9623 0.0000
# 2 11.7991 46.1488 15.2069 0.0000 -15.4057 0.0000
# 3 35.0943 15.2069 124.5143 0.0000 -30.8551 0.0000
# 4 0.0000 0.0000 0.0000 39.4347 0.0000 -4.1010
# 5 -24.9623 -15.4057 -30.8551 0.0000 53.2628 0.0000
# 6 0.0000 0.0000 0.0000 -4.1010 0.0000 20.8205
#
#
#
# Elastic Compliance Matrix: (Units=1/GPa)
#
#
# Indices 1 2 3 4 5 6 
#
# 1 0.024869 -0.002024 -0.004693 0.000000 0.008351 0.000000
# 2 -0.002024 0.024364 -0.001044 0.000000 0.005494 0.000000
# 3 -0.004693 -0.001044 0.010347 0.000000 0.003493 0.000000
# 4 0.000000 0.000000 0.000000 0.025889 0.000000 0.005099
# 5 0.008351 0.005494 0.003493 0.000000 0.026301 0.000000
# 6 0.000000 0.000000 0.000000 0.005099 0.000000 0.049034
#
#
# Mechanical properties :
#
#
# Convention : Reuss Voigt Hill
#
# Bulk Modulus (GPa) = 22.69670 39.00438 30.85054
# Shear Modulus (GPa) = 26.17642 33.68618 29.93130
#
# Velocity S-wave (km/s) = 3.43570 3.89750 3.67386
# Velocity P-wave (km/s) = 5.09643 6.15164 5.64873
#
# Compressibility (1/GPa) = 0.04405927
#
# Stress axis : x y z
#
# Youngs Moduli (GPa) = 40.21065 41.04338 96.64817
#
# Poissons Ratio (x) = 0.08308 0.45353
# Poissons Ratio (y) = 0.08139 0.10087
# Poissons Ratio (z) = 0.18869 0.04284
#
# Static dielectric constant tensor:
#      x y z
#    x 1.874750 0.000000 -0.046470 
#    y 0.000000 1.836320 0.000000 
#    z -0.046470 0.000000 1.940290 
# 
# From -- ./inp_files/276603.got.cif
#   From: 2010.05.17/outbox.cif.g08.bks.cpg/sg15_139_cif.got.tgz:276603.got - 2010.06.03 18:47:42.
