data_PCOD9265397
_publ_section_title
;
Structure prediction by ZEFSAII (Michael W. Deem and Ramdas Pophale) SiO2 
 PCOD9265397
Probable space group: C 2/C
;
_chemical_formula_sum "Si O2"
_cell_formula_units_Z 64
_cell_length_a 23.009187
_cell_length_b 8.534085
_cell_length_c 14.627019
_cell_angle_alpha 90.000000
_cell_angle_beta 90.970248
_cell_angle_gamma 90.000000
_cell_volume 2871.784129
_symmetry_space_group_name_H-M "C 2/C"
_symmetry_group_IT_number 15
_symmetry_cell_setting 'monoclinic'
loop_
_space_group_symop_operation_xyz
x,y,z
-x,y,1/2-z
-x,-y,-z
x,-y,1/2+z
1/2+x,1/2+y,z
1/2-x,1/2+y,1/2-z
1/2-x,1/2-y,-z
1/2+x,1/2-y,1/2+z
loop_
_atom_site_type_symbol
_atom_site_label
_atom_site_fract_x
_atom_site_fract_y
_atom_site_fract_z
Si Si1 0.933278 0.091931 0.180687
Si Si2 0.499240 0.137741 0.598383
Si Si3 0.177448 0.747948 0.899819
Si Si4 0.565225 0.347100 0.458648
Si Si5 0.617104 0.052874 0.424367
Si Si6 0.688556 0.750339 0.620982
Si Si7 0.627867 0.571690 0.145423
Si Si8 0.129507 0.431242 0.135469
O O1 0.968146 0.250138 0.169152
O O2 0.868563 0.129028 0.140115
O O3 0.923821 0.042855 0.283856
O O4 0.960351 0.968957 0.111854
O O5 0.518137 0.246494 0.513394
O O6 0.441074 0.065682 0.861159
O O7 0.446903 0.024448 0.569674
O O8 0.155878 0.572212 0.872648
O O9 0.242572 0.774863 0.869374
O O10 0.175365 0.752496 0.010789
O O11 0.604682 0.230679 0.397421
O O12 0.603513 0.420627 0.541387
O O13 0.642430 0.071467 0.526935
O O14 0.670185 0.577215 0.654850
O O15 0.656410 0.901632 0.664855
O O16 0.647509 0.754068 0.167267
#
# Coordination Sequence:
#
# PCOD9265397 Si02
#       8
#     8   8   8   8   8   8   8   8
#     4  11  21  38  59  90 120 157 203 248 311 357
#     4   9  18  35  62  83 122 155 194 251 307 356
#     4   9  19  37  63  86 116 155 201 251 305 357
#     4  10  19  36  60  89 117 162 198 244 303 370
#     4   8  16  34  58  90 114 152 198 244 301 364
#     4  10  19  41  63  86 118 161 199 252 303 358
#     4  10  22  40  59  85 125 156 200 254 296 356
#     4   9  19  36  60  84 117 159 193 242 305 357
#
# _framework density 22.285799000000001
#
# number of rings (size 3 to 8) (size 9 to 14) (size 15 to 20)
#    0.000    2.750    1.250    1.875    0.000    2.000 
#   13.500    2.500    5.500    0.000    0.000    0.000 
#    0.000    0.000    0.000    0.000    0.000    0.000 
#
# Total GULP energy -178342.971308 kJ/mol
# GULP energy per Si atom -5573.217853 kJ/mol
# Density = 2.223508 g / cm^3
# Si number density = 22.285799 Si / 1000 Ang^3
#
#
#
# Elastic Constant Matrix: (Units=GPa)
#
#
# Indices 1 2 3 4 5 6 
#
# 1 97.0948 57.1395 26.1013 0.0000 -2.9398 0.0000
# 2 57.1395 106.0656 38.2119 0.0000 -1.2299 0.0000
# 3 26.1013 38.2119 53.9545 0.0000 -6.5551 0.0000
# 4 0.0000 0.0000 0.0000 14.8999 0.0000 -1.6609
# 5 -2.9398 -1.2299 -6.5551 0.0000 20.1126 0.0000
# 6 0.0000 0.0000 0.0000 -1.6609 0.0000 18.8160
#
#
#
# Elastic Compliance Matrix: (Units=1/GPa)
#
#
# Indices 1 2 3 4 5 6 
#
# 1 0.015279 -0.007525 -0.001923 0.000000 0.001146 0.000000
# 2 -0.007525 0.016461 -0.008360 0.000000 -0.002818 0.000000
# 3 -0.001923 -0.008360 0.026332 0.000000 0.007790 0.000000
# 4 0.000000 0.000000 0.000000 0.067782 0.000000 0.005983
# 5 0.001146 -0.002818 0.007790 0.000000 0.052254 0.000000
# 6 0.000000 0.000000 0.000000 0.005983 0.000000 0.053674
#
#
# Mechanical properties :
#
#
# Convention : Reuss Voigt Hill
#
# Bulk Modulus (GPa) = 44.53191 55.55782 50.04486
# Shear Modulus (GPa) = 18.18947 19.80985 18.99966
#
# Velocity S-wave (km/s) = 2.86000 2.98468 2.92301
# Velocity P-wave (km/s) = 5.56163 6.07137 5.82208
#
# Compressibility (1/GPa) = 0.02245581
#
# Stress axis : x y z
#
# Youngs Moduli (GPa) = 65.44777 60.74826 37.97715
#
# Poissons Ratio (x) = 0.45715 0.07302
# Poissons Ratio (y) = 0.49251 0.31750
# Poissons Ratio (z) = 0.12584 0.50787
#
# Static dielectric constant tensor:
#      x y z
#    x 1.813570 0.000000 0.008530 
#    y 0.000000 1.899010 0.000000 
#    z 0.008530 0.000000 1.876010 
# 
# From -- ./inp_files/176598.got.cif
#   From: 2010.05.17/outbox.cif.g08.bks.cpg/sg15_89_cif.got.tgz:176598.got - 2010.06.03 18:47:42.
