data_PCOD9265027
_publ_section_title
;
Structure prediction by ZEFSAII (Michael W. Deem and Ramdas Pophale) SiO2 
 PCOD9265027
Probable space group: C 2/C
;
_chemical_formula_sum "Si O2"
_cell_formula_units_Z 52
_cell_length_a 11.353268
_cell_length_b 7.882016
_cell_length_c 27.833080
_cell_angle_alpha 90.000000
_cell_angle_beta 76.398562
_cell_angle_gamma 90.000000
_cell_volume 2420.837689
_symmetry_space_group_name_H-M "C 2/C"
_symmetry_group_IT_number 15
_symmetry_cell_setting 'monoclinic'
loop_
_space_group_symop_operation_xyz
x,y,z
-x,y,1/2-z
-x,-y,-z
x,-y,1/2+z
1/2+x,1/2+y,z
1/2-x,1/2+y,1/2-z
1/2-x,1/2-y,-z
1/2+x,1/2-y,1/2+z
loop_
_atom_site_type_symbol
_atom_site_label
_atom_site_fract_x
_atom_site_fract_y
_atom_site_fract_z
Si Si1 0.000000 0.306154 0.250000
Si Si2 0.306512 0.486246 0.499782
Si Si3 0.089324 0.644747 0.967971
Si Si4 0.417956 0.615506 0.709570
Si Si5 0.799357 0.475167 0.716927
Si Si6 0.374596 0.572825 0.341820
Si Si7 0.618440 0.203713 0.568020
O O1 0.907844 0.414740 0.227164
O O2 0.925745 0.193399 0.294603
O O3 0.224312 0.426891 0.462353
O O4 0.390192 0.330355 0.508671
O O5 0.367437 0.660709 0.477055
O O6 0.207961 0.546123 0.549308
O O7 0.024291 0.661675 0.922680
O O8 0.000000 0.500000 0.000000
O O9 0.500000 0.640093 0.750000
O O10 0.308593 0.488001 0.733139
O O11 0.352442 0.789362 0.704495
O O12 0.511347 0.551176 0.660437
O O13 0.736162 0.525224 0.672664
O O14 0.347089 0.695779 0.387951
#
# Coordination Sequence:
#
# PCOD9265027 Si02
#       7
#     4   8   8   8   8   8   8
#     4  12  22  38  60  80 112 156 196 240 296 340
#     4   9  19  38  60  85 115 153 189 234 293 355
#     4   9  18  36  62  83 116 151 189 234 292 355
#     4  10  19  36  57  79 108 148 194 234 288 341
#     4  11  20  37  61  78 111 155 192 240 291 345
#     4  11  23  38  56  87 116 148 196 247 289 349
#     4  10  21  36  59  87 115 150 192 240 295 345
#
# _framework density 21.480167000000002
#
# number of rings (size 3 to 8) (size 9 to 14) (size 15 to 20)
#    0.000    1.846    4.615    0.462    0.000    2.462 
#    0.000    4.615    0.000    0.000    0.000    0.000 
#    0.000    0.000    0.000    0.000    0.000    0.000 
#
# Total GULP energy -144772.617431 kJ/mol
# GULP energy per Si atom -5568.177593 kJ/mol
# Density = 2.143128 g / cm^3
# Si number density = 21.480167 Si / 1000 Ang^3
#
#
#
# Elastic Constant Matrix: (Units=GPa)
#
#
# Indices 1 2 3 4 5 6 
#
# 1 127.0418 33.3231 9.0019 0.0000 12.8847 0.0000
# 2 33.3231 103.2916 4.8337 0.0000 -7.2726 0.0000
# 3 9.0019 4.8337 30.4140 0.0000 2.9563 0.0000
# 4 0.0000 0.0000 0.0000 5.6696 0.0000 0.7640
# 5 12.8847 -7.2726 2.9563 0.0000 14.7690 0.0000
# 6 0.0000 0.0000 0.0000 0.7640 0.0000 43.8500
#
#
#
# Elastic Compliance Matrix: (Units=1/GPa)
#
#
# Indices 1 2 3 4 5 6 
#
# 1 0.010050 -0.003914 -0.001339 0.000000 -0.010427 0.000000
# 2 -0.003914 0.011688 -0.001622 0.000000 0.009495 0.000000
# 3 -0.001339 -0.001622 0.034162 0.000000 -0.006469 0.000000
# 4 0.000000 0.000000 0.000000 0.176794 0.000000 -0.003080
# 5 -0.010427 0.009495 -0.006469 0.000000 0.082777 0.000000
# 6 0.000000 0.000000 0.000000 -0.003080 0.000000 0.022859
#
#
# Mechanical properties :
#
#
# Convention : Reuss Voigt Hill
#
# Bulk Modulus (GPa) = 23.72417 39.45164 31.58791
# Shear Modulus (GPa) = 13.65630 27.09697 20.37664
#
# Velocity S-wave (km/s) = 2.52417 3.55560 3.08332
# Velocity P-wave (km/s) = 4.42311 5.93825 5.23577
#
# Compressibility (1/GPa) = 0.04215110
#
# Stress axis : x y z
#
# Youngs Moduli (GPa) = 99.49757 85.55467 29.27187
#
# Poissons Ratio (x) = 0.33485 0.03920
# Poissons Ratio (y) = 0.38943 0.04748
# Poissons Ratio (z) = 0.13324 0.13878
#
# Static dielectric constant tensor:
#      x y z
#    x 1.872860 0.000000 -0.025590 
#    y 0.000000 1.819570 0.000000 
#    z -0.025590 0.000000 1.798570 
# 
# From -- ./inp_files/309664.got.cif
#   From: 2010.05.17/outbox.cif.g08.bks.cpg/sg15_155_cif.got.tgz:309664.got - 2010.06.03 18:47:42.
