data_PCOD9265886
_publ_section_title
;
Structure prediction by ZEFSAII (Michael W. Deem and Ramdas Pophale) SiO2 
 PCOD9265886
Probable space group: C 2/C
;
_chemical_formula_sum "Si O2"
_cell_formula_units_Z 56
_cell_length_a 11.008408
_cell_length_b 16.093578
_cell_length_c 15.212798
_cell_angle_alpha 90.000000
_cell_angle_beta 90.280181
_cell_angle_gamma 90.000000
_cell_volume 2695.138156
_symmetry_space_group_name_H-M "C 2/C"
_symmetry_group_IT_number 15
_symmetry_cell_setting 'monoclinic'
loop_
_space_group_symop_operation_xyz
x,y,z
-x,y,1/2-z
-x,-y,-z
x,-y,1/2+z
1/2+x,1/2+y,z
1/2-x,1/2+y,1/2-z
1/2-x,1/2-y,-z
1/2+x,1/2-y,1/2+z
loop_
_atom_site_type_symbol
_atom_site_label
_atom_site_fract_x
_atom_site_fract_y
_atom_site_fract_z
Si Si1 0.235325 0.019864 0.641430
Si Si2 0.272052 0.681052 0.572875
Si Si3 0.009576 0.728309 0.349880
Si Si4 0.662372 0.325103 0.030174
Si Si5 0.009483 0.449230 0.910551
Si Si6 0.947485 0.919877 0.953175
Si Si7 0.623285 0.921878 0.199594
O O1 0.227043 0.090823 0.565344
O O2 0.264230 0.064799 0.733787
O O3 0.356848 0.967067 0.626257
O O4 0.120765 0.957174 0.632706
O O5 0.250000 0.750000 0.500000
O O6 0.363359 0.724754 0.640420
O O7 0.342443 0.611335 0.518257
O O8 0.159790 0.642665 0.624189
O O9 0.997069 0.649167 0.413741
O O10 0.000000 0.699510 0.250000
O O11 0.909756 0.792397 0.384363
O O12 0.750000 0.250000 0.000000
O O13 0.557516 0.352410 0.958597
O O14 0.911226 0.490686 0.845645
O O15 0.000000 0.500000 0.000000
O O16 0.000000 0.000000 0.000000
O O17 0.500000 0.895731 0.250000
#
# Coordination Sequence:
#
# PCOD9265886 Si02
#       7
#     8   8   8   8   8   8   8
#     4  10  19  37  57  79 116 153 193 246 293 355
#     4  11  22  38  62  88 120 158 200 252 310 376
#     4  11  22  37  57  86 118 152 192 243 305 361
#     4  10  21  36  58  86 117 154 196 242 297 362
#     4  11  21  36  59  85 113 155 205 247 298 366
#     4   9  20  37  58  84 114 158 203 241 300 374
#     4  10  22  37  60  90 120 158 205 259 314 366
#
# _framework density 20.778155000000002
#
# number of rings (size 3 to 8) (size 9 to 14) (size 15 to 20)
#    0.000    1.714    0.000    5.571    0.000    4.571 
#    0.000    0.000    0.000    5.143    0.000    0.000 
#    0.000    0.000    0.000    0.000    0.000    0.000 
#
# Total GULP energy -156160.391675 kJ/mol
# GULP energy per Si atom -5577.156846 kJ/mol
# Density = 2.073086 g / cm^3
# Si number density = 20.778155 Si / 1000 Ang^3
#
#
#
# Elastic Constant Matrix: (Units=GPa)
#
#
# Indices 1 2 3 4 5 6 
#
# 1 79.4144 40.9033 31.8454 0.0000 10.5845 0.0000
# 2 40.9033 96.6129 23.7183 0.0000 -1.4570 0.0000
# 3 31.8454 23.7183 67.0487 0.0000 18.9155 0.0000
# 4 0.0000 0.0000 0.0000 25.5910 0.0000 1.0383
# 5 10.5845 -1.4570 18.9155 0.0000 29.1840 0.0000
# 6 0.0000 0.0000 0.0000 1.0383 0.0000 51.1212
#
#
#
# Elastic Compliance Matrix: (Units=1/GPa)
#
#
# Indices 1 2 3 4 5 6 
#
# 1 0.018685 -0.006601 -0.005549 0.000000 -0.003510 0.000000
# 2 -0.006601 0.014037 -0.003308 0.000000 0.005239 0.000000
# 3 -0.005549 -0.003308 0.022272 0.000000 -0.012588 0.000000
# 4 0.000000 0.000000 0.000000 0.039108 0.000000 -0.000794
# 5 -0.003510 0.005239 -0.012588 0.000000 0.043959 0.000000
# 6 0.000000 0.000000 0.000000 -0.000794 0.000000 0.019577
#
#
# Mechanical properties :
#
#
# Convention : Reuss Voigt Hill
#
# Bulk Modulus (GPa) = 41.53536 48.44556 44.99046
# Shear Modulus (GPa) = 25.43477 30.95318 28.19398
#
# Velocity S-wave (km/s) = 3.50253 3.86385 3.68761
# Velocity P-wave (km/s) = 6.03243 6.57815 6.31119
#
# Compressibility (1/GPa) = 0.02407587
#
# Stress axis : x y z
#
# Youngs Moduli (GPa) = 53.51762 71.24239 44.90004
#
# Poissons Ratio (x) = 0.47030 0.24917
# Poissons Ratio (y) = 0.35329 0.14853
# Poissons Ratio (z) = 0.29699 0.23567
#
# Static dielectric constant tensor:
#      x y z
#    x 1.768010 0.000000 0.045920 
#    y 0.000000 1.494410 0.000000 
#    z 0.045920 0.000000 1.778770 
# 
# From -- ./inp_files/144219.got.cif
#   From: 2010.05.17/outbox.cif.g08.bks.cpg/sg15_73_cif.got.tgz:144219.got - 2010.06.03 18:47:42.
