data_PCOD9265657
_publ_section_title
;
Structure prediction by ZEFSAII (Michael W. Deem and Ramdas Pophale) SiO2 
 PCOD9265657
Probable space group: C 2/C
;
_chemical_formula_sum "Si O2"
_cell_formula_units_Z 64
_cell_length_a 13.005138
_cell_length_b 15.737346
_cell_length_c 21.762154
_cell_angle_alpha 90.000000
_cell_angle_beta 136.935944
_cell_angle_gamma 90.000000
_cell_volume 3041.247455
_symmetry_space_group_name_H-M "C 2/C"
_symmetry_group_IT_number 15
_symmetry_cell_setting 'monoclinic'
loop_
_space_group_symop_operation_xyz
x,y,z
-x,y,1/2-z
-x,-y,-z
x,-y,1/2+z
1/2+x,1/2+y,z
1/2-x,1/2+y,1/2-z
1/2-x,1/2-y,-z
1/2+x,1/2-y,1/2+z
loop_
_atom_site_type_symbol
_atom_site_label
_atom_site_fract_x
_atom_site_fract_y
_atom_site_fract_z
Si Si1 0.884853 0.382636 0.750671
Si Si2 0.887808 0.596606 0.386146
Si Si3 0.097819 0.128447 0.563281
Si Si4 0.769519 0.789539 0.205454
Si Si5 0.853750 0.272723 0.485448
Si Si6 0.345530 0.752499 0.218128
Si Si7 0.437646 0.553816 0.390243
Si Si8 0.356956 0.522133 0.729451
O O1 0.906666 0.431022 0.823397
O O2 0.897386 0.282280 0.771728
O O3 0.715692 0.400130 0.655349
O O4 0.000000 0.408445 0.750000
O O5 0.767440 0.673279 0.340156
O O6 0.790346 0.517370 0.368978
O O7 0.047730 0.639796 0.470126
O O8 0.258865 0.166755 0.651086
O O9 0.974946 0.197097 0.531340
O O10 0.071926 0.106455 0.479909
O O11 0.064528 0.040646 0.583306
O O12 0.646284 0.766032 0.204175
O O13 0.815410 0.885827 0.237796
O O14 0.731763 0.780013 0.117100
O O15 0.750000 0.250000 0.500000
O O16 0.500000 0.738442 0.250000
O O17 0.417477 0.541886 0.308863
O O18 0.500000 0.536085 0.750000
#
# Coordination Sequence:
#
# PCOD9265657 Si02
#       8
#     8   8   8   8   8   8   8   8
#     4  10  19  36  63  91 119 162 209 265 326 372
#     4   9  22  39  57  88 129 158 214 258 305 402
#     4  10  21  41  62  94 128 156 215 269 309 392
#     4  11  22  39  62  94 128 161 219 267 314 399
#     4  11  23  40  67  97 129 166 209 271 334 377
#     4  10  21  42  66  89 123 169 210 264 326 384
#     4  10  21  39  60  92 128 159 215 265 310 387
#     4  11  23  40  62  88 128 177 214 258 329 387
#
# _framework density 21.043996
#
# number of rings (size 3 to 8) (size 9 to 14) (size 15 to 20)
#    0.000    1.750    2.500    1.500    1.750    1.000 
#    2.250    1.250    0.000    0.000    0.000    0.000 
#    0.000    0.000    0.000    0.000    0.000    0.000 
#
# Total GULP energy -178302.165354 kJ/mol
# GULP energy per Si atom -5571.942667 kJ/mol
# Density = 2.099610 g / cm^3
# Si number density = 21.043996 Si / 1000 Ang^3
#
#
#
# Elastic Constant Matrix: (Units=GPa)
#
#
# Indices 1 2 3 4 5 6 
#
# 1 127.4934 4.9347 19.4576 0.0000 -3.3805 0.0000
# 2 4.9347 67.6435 0.9977 0.0000 3.7756 0.0000
# 3 19.4576 0.9977 58.1088 0.0000 -11.2931 0.0000
# 4 0.0000 0.0000 0.0000 29.9621 0.0000 -6.3930
# 5 -3.3805 3.7756 -11.2931 0.0000 19.5176 0.0000
# 6 0.0000 0.0000 0.0000 -6.3930 0.0000 13.7983
#
#
#
# Elastic Compliance Matrix: (Units=1/GPa)
#
#
# Indices 1 2 3 4 5 6 
#
# 1 0.008287 -0.000560 -0.002778 0.000000 -0.000063 0.000000
# 2 -0.000560 0.015027 -0.000737 0.000000 -0.003430 0.000000
# 3 -0.002778 -0.000737 0.020378 0.000000 0.011452 0.000000
# 4 0.000000 0.000000 0.000000 0.037037 0.000000 0.017160
# 5 -0.000063 -0.003430 0.011452 0.000000 0.058515 0.000000
# 6 0.000000 0.000000 0.000000 0.017160 0.000000 0.080423
#
#
# Mechanical properties :
#
#
# Convention : Reuss Voigt Hill
#
# Bulk Modulus (GPa) = 28.13599 33.78063 30.95831
# Shear Modulus (GPa) = 20.86256 27.84597 24.35426
#
# Velocity S-wave (km/s) = 3.15203 3.64156 3.40560
# Velocity P-wave (km/s) = 5.16199 5.81107 5.49612
#
# Compressibility (1/GPa) = 0.03554166
#
# Stress axis : x y z
#
# Youngs Moduli (GPa) = 120.66407 66.54869 49.07361
#
# Poissons Ratio (x) = 0.03727 0.13631
# Poissons Ratio (y) = 0.06758 0.03617
# Poissons Ratio (z) = 0.33518 0.04906
#
# Static dielectric constant tensor:
#      x y z
#    x 1.739590 0.000000 -0.015410 
#    y 0.000000 1.811720 0.000000 
#    z -0.015410 0.000000 1.850080 
# 
# From -- ./inp_files/239815.got.cif
#   From: 2010.05.17/outbox.cif.g08.bks.cpg/sg15_120_cif.got.tgz:239815.got - 2010.06.03 18:47:42.
