data_PCOD9265580
_publ_section_title
;
Structure prediction by ZEFSAII (Michael W. Deem and Ramdas Pophale) SiO2 
 PCOD9265580
Probable space group: C 2/C
;
_chemical_formula_sum "Si O2"
_cell_formula_units_Z 48
_cell_length_a 9.371646
_cell_length_b 16.913075
_cell_length_c 17.949363
_cell_angle_alpha 90.000000
_cell_angle_beta 121.785839
_cell_angle_gamma 90.000000
_cell_volume 2418.344239
_symmetry_space_group_name_H-M "C 2/C"
_symmetry_group_IT_number 15
_symmetry_cell_setting 'monoclinic'
loop_
_space_group_symop_operation_xyz
x,y,z
-x,y,1/2-z
-x,-y,-z
x,-y,1/2+z
1/2+x,1/2+y,z
1/2-x,1/2+y,1/2-z
1/2-x,1/2-y,-z
1/2+x,1/2-y,1/2+z
loop_
_atom_site_type_symbol
_atom_site_label
_atom_site_fract_x
_atom_site_fract_y
_atom_site_fract_z
Si Si1 0.007851 0.104590 0.334500
Si Si2 0.776326 0.258087 0.918252
Si Si3 0.497950 0.106776 0.041219
Si Si4 0.192776 0.594235 0.823811
Si Si5 0.337827 0.942693 0.758938
Si Si6 0.766208 0.517978 0.505642
O O1 0.123233 0.182314 0.356089
O O2 0.100295 0.050187 0.420541
O O3 0.000000 0.067071 0.250000
O O4 0.814187 0.115920 0.303224
O O5 0.770420 0.177595 0.869750
O O6 0.952273 0.302265 0.951403
O O7 0.750000 0.250000 0.000000
O O8 0.598450 0.074007 0.140717
O O9 0.312102 0.072806 0.001054
O O10 0.583677 0.067667 0.992391
O O11 0.236531 0.531664 0.770799
O O12 0.222573 0.540128 0.905295
O O13 0.000000 0.612869 0.750000
O O14 0.500000 0.935326 0.750000
#
# Coordination Sequence:
#
# PCOD9265580 Si02
#       6
#     8   8   8   8   8   8
#     4  11  21  39  65  93 123 165 215 260 305 373
#     4  11  21  39  64  97 121 165 216 262 308 366
#     4  10  19  37  59  88 128 164 203 256 316 366
#     4  11  21  36  59  98 123 154 218 263 299 371
#     4  11  22  39  61  94 126 166 207 259 317 372
#     4  10  19  36  62  89 122 165 205 258 303 373
#
# _framework density 19.848291
#
# number of rings (size 3 to 8) (size 9 to 14) (size 15 to 20)
#    0.000    1.333   10.000    0.500    0.000    0.667 
#    0.000    0.000    0.000    5.000    0.000    0.000 
#    0.000    0.000    0.000    0.000    0.000    0.000 
#
# Total GULP energy -133602.961285 kJ/mol
# GULP energy per Si atom -5566.790054 kJ/mol
# Density = 1.980312 g / cm^3
# Si number density = 19.848291 Si / 1000 Ang^3
#
#
#
# Elastic Constant Matrix: (Units=GPa)
#
#
# Indices 1 2 3 4 5 6 
#
# 1 47.6973 20.4433 9.6678 0.0000 8.7976 0.0000
# 2 20.4433 70.0865 2.9273 0.0000 -11.0901 0.0000
# 3 9.6678 2.9273 99.1434 0.0000 -10.2301 0.0000
# 4 0.0000 0.0000 0.0000 22.3506 0.0000 -3.9827
# 5 8.7976 -11.0901 -10.2301 0.0000 26.1713 0.0000
# 6 0.0000 0.0000 0.0000 -3.9827 0.0000 20.4232
#
#
#
# Elastic Compliance Matrix: (Units=1/GPa)
#
#
# Indices 1 2 3 4 5 6 
#
# 1 0.029540 -0.011011 -0.004232 0.000000 -0.016250 0.000000
# 2 -0.011011 0.019403 0.001804 0.000000 0.012628 0.000000
# 3 -0.004232 0.001804 0.011120 0.000000 0.006534 0.000000
# 4 0.000000 0.000000 0.000000 0.046352 0.000000 0.009039
# 5 -0.016250 0.012628 0.006534 0.000000 0.051578 0.000000
# 6 0.000000 0.000000 0.000000 0.009039 0.000000 0.050727
#
#
# Mechanical properties :
#
#
# Convention : Reuss Voigt Hill
#
# Bulk Modulus (GPa) = 30.13487 31.44490 30.78988
# Shear Modulus (GPa) = 20.27086 26.04828 23.15957
#
# Velocity S-wave (km/s) = 3.19923 3.62659 3.41959
# Velocity P-wave (km/s) = 5.37237 5.78042 5.58012
#
# Compressibility (1/GPa) = 0.03318415
#
# Stress axis : x y z
#
# Youngs Moduli (GPa) = 33.85232 51.53912 89.92789
#
# Poissons Ratio (x) = 0.56750 0.38059
# Poissons Ratio (y) = 0.37275 -0.16222
# Poissons Ratio (z) = 0.14327 -0.09297
#
# Static dielectric constant tensor:
#      x y z
#    x 1.762570 0.000000 0.012700 
#    y 0.000000 1.780340 0.000000 
#    z 0.012700 0.000000 1.731240 
# 
# From -- ./inp_files/190627.got.cif
#   From: 2010.05.17/outbox.cif.g08.bks.cpg/sg15_96_cif.got.tgz:190627.got - 2010.06.03 18:47:42.
