data_PCOD9265974
_publ_section_title
;
Structure prediction by ZEFSAII (Michael W. Deem and Ramdas Pophale) SiO2 
 PCOD9265974
Probable space group: C 2/C
;
_chemical_formula_sum "Si O2"
_cell_formula_units_Z 40
_cell_length_a 21.475223
_cell_length_b 5.512415
_cell_length_c 21.731810
_cell_angle_alpha 90.000000
_cell_angle_beta 130.158093
_cell_angle_gamma 90.000000
_cell_volume 1966.170243
_symmetry_space_group_name_H-M "C 2/C"
_symmetry_group_IT_number 15
_symmetry_cell_setting 'monoclinic'
loop_
_space_group_symop_operation_xyz
x,y,z
-x,y,1/2-z
-x,-y,-z
x,-y,1/2+z
1/2+x,1/2+y,z
1/2-x,1/2+y,1/2-z
1/2-x,1/2-y,-z
1/2+x,1/2-y,1/2+z
loop_
_atom_site_type_symbol
_atom_site_label
_atom_site_fract_x
_atom_site_fract_y
_atom_site_fract_z
Si Si1 0.317397 0.430823 0.017588
Si Si2 0.408507 0.948333 0.514042
Si Si3 0.733075 0.687118 0.398970
Si Si4 0.204811 0.067033 0.242226
Si Si5 0.541420 0.691169 0.072914
O O1 0.399807 0.294727 0.049802
O O2 0.323394 0.622913 0.078010
O O3 0.250000 0.250000 0.000000
O O4 0.268884 0.541825 0.928169
O O5 0.419428 0.881636 0.449786
O O6 0.318961 0.053283 0.461668
O O7 0.476231 0.151873 0.570436
O O8 0.699010 0.612945 0.311747
O O9 0.252345 0.308126 0.246341
O O10 0.114028 0.069633 0.156492
O O11 0.500000 0.500000 0.000000
#
# Coordination Sequence:
#
# PCOD9265974 Si02
#       5
#     8   8   8   8   8
#     4   9  19  35  63  88 120 166 219 263 317 399
#     4  10  19  37  58  90 121 168 210 258 328 393
#     4  10  20  38  62  92 125 165 221 271 324 396
#     4  12  25  41  65 100 132 170 222 286 340 406
#     4  11  23  37  62  91 132 170 212 275 339 401
#
# _framework density 20.344117000000001
#
# number of rings (size 3 to 8) (size 9 to 14) (size 15 to 20)
#    0.000    1.600    2.000    3.600    5.600    0.000 
#    0.000    0.000    0.000   28.800    0.000    0.000 
#    0.000    0.000    0.000    0.000    0.000    0.000 
#
# Total GULP energy -111354.236842 kJ/mol
# GULP energy per Si atom -5567.711842 kJ/mol
# Density = 2.029781 g / cm^3
# Si number density = 20.344117 Si / 1000 Ang^3
#
#
#
# Elastic Constant Matrix: (Units=GPa)
#
#
# Indices 1 2 3 4 5 6 
#
# 1 97.9860 31.5554 42.5206 0.0001 2.0399 -0.0012
# 2 31.5554 81.7523 16.2808 0.0007 6.0623 -0.0037
# 3 42.5206 16.2808 104.2475 0.0005 5.0818 0.0003
# 4 0.0001 0.0007 0.0005 20.7361 0.0003 0.7229
# 5 2.0399 6.0623 5.0818 0.0003 28.8667 0.0008
# 6 -0.0012 -0.0037 0.0003 0.7229 0.0008 37.9641
#
#
#
# Elastic Compliance Matrix: (Units=1/GPa)
#
#
# Indices 1 2 3 4 5 6 
#
# 1 0.013754 -0.004381 -0.004966 0.000000 0.000822 0.000000
# 2 -0.004381 0.014177 -0.000300 0.000000 -0.002615 0.000001
# 3 -0.004966 -0.000300 0.011746 0.000000 -0.001654 0.000000
# 4 0.000000 0.000000 0.000000 0.048257 0.000000 -0.000919
# 5 0.000822 -0.002615 -0.001654 0.000000 0.035424 -0.000001
# 6 0.000000 0.000001 0.000000 -0.000919 -0.000001 0.026358
#
#
# Mechanical properties :
#
#
# Convention : Reuss Voigt Hill
#
# Bulk Modulus (GPa) = 49.06005 51.63328 50.34666
# Shear Modulus (GPa) = 28.44085 30.42199 29.43142
#
# Velocity S-wave (km/s) = 3.74303 3.87120 3.80765
# Velocity P-wave (km/s) = 6.54582 6.73918 6.64321
#
# Compressibility (1/GPa) = 0.02038318
#
# Stress axis : x y z
#
# Youngs Moduli (GPa) = 72.70490 70.53851 85.13896
#
# Poissons Ratio (x) = 0.30903 0.42280
# Poissons Ratio (y) = 0.31852 0.02551
# Poissons Ratio (z) = 0.36105 0.02114
#
# Static dielectric constant tensor:
#      x y z
#    x 1.788440 0.000000 -0.025510 
#    y 0.000000 2.027850 0.000000 
#    z -0.025510 0.000000 1.698750 
# 
# From -- ./inp_files/212586.got.cif
#   From: 2010.05.17/outbox.cif.g08.bks.cpg/sg15_107_cif.got.tgz:212586.got - 2010.06.03 18:47:42.
