data_PCOD9265917
_publ_section_title
;
Structure prediction by ZEFSAII (Michael W. Deem and Ramdas Pophale) SiO2 
 PCOD9265917
Probable space group: C 2/C
;
_chemical_formula_sum "Si O2"
_cell_formula_units_Z 52
_cell_length_a 30.214485
_cell_length_b 10.367969
_cell_length_c 7.937399
_cell_angle_alpha 90.000000
_cell_angle_beta 99.959836
_cell_angle_gamma 90.000000
_cell_volume 2449.018850
_symmetry_space_group_name_H-M "C 2/C"
_symmetry_group_IT_number 15
_symmetry_cell_setting 'monoclinic'
loop_
_space_group_symop_operation_xyz
x,y,z
-x,y,1/2-z
-x,-y,-z
x,-y,1/2+z
1/2+x,1/2+y,z
1/2-x,1/2+y,1/2-z
1/2-x,1/2-y,-z
1/2+x,1/2-y,1/2+z
loop_
_atom_site_type_symbol
_atom_site_label
_atom_site_fract_x
_atom_site_fract_y
_atom_site_fract_z
Si Si1 0.688945 0.048341 0.762504
Si Si2 0.364743 0.243576 0.567256
Si Si3 0.709773 0.594199 0.676263
Si Si4 0.436984 0.374810 0.447272
Si Si5 0.633086 0.396457 0.600602
Si Si6 0.320324 0.211104 0.089981
Si Si7 0.500000 0.499795 0.250000
O O1 0.654371 0.112982 0.868867
O O2 0.740575 0.065296 0.855579
O O3 0.687820 0.127176 0.585455
O O4 0.677008 0.897297 0.763088
O O5 0.321796 0.321565 0.466661
O O6 0.406780 0.249918 0.467091
O O7 0.381659 0.319048 0.745149
O O8 0.681622 0.461713 0.675842
O O9 0.712041 0.679558 0.849494
O O10 0.400644 0.488079 0.450903
O O11 0.460501 0.405349 0.286928
O O12 0.477932 0.404778 0.599786
O O13 0.638984 0.303238 0.444309
#
# Coordination Sequence:
#
# PCOD9265917 Si02
#       7
#     8   8   8   8   8   8   4
#     4  11  25  37  57  82 119 167 215 256 297 358
#     4  10  21  37  54  83 120 160 199 250 308 369
#     4  11  22  35  60  81 120 160 213 262 306 343
#     4  10  19  37  57  93 125 153 196 252 327 369
#     4  10  22  37  60  85 124 160 201 257 314 363
#     4  11  25  41  56  85 118 165 216 256 306 363
#     4  10  20  32  62  92 124 154 196 258 322 388
#
# _framework density 21.232993
#
# number of rings (size 3 to 8) (size 9 to 14) (size 15 to 20)
#    0.000    1.538    1.538    3.692   10.769    0.000 
#    0.000    0.000    0.000    0.000    0.000    6.462 
#    0.000    0.000    0.000    0.000    0.000    0.000 
#
# Total GULP energy -144953.128826 kJ/mol
# GULP energy per Si atom -5575.120339 kJ/mol
# Density = 2.118467 g / cm^3
# Si number density = 21.232993 Si / 1000 Ang^3
#
#
#
# Elastic Constant Matrix: (Units=GPa)
#
#
# Indices 1 2 3 4 5 6 
#
# 1 91.4100 31.6906 7.4281 0.0000 -13.6314 0.0000
# 2 31.6906 66.4731 10.5185 0.0000 -13.6167 0.0000
# 3 7.4281 10.5185 54.6140 0.0000 -9.7877 0.0000
# 4 0.0000 0.0000 0.0000 36.4682 0.0000 -15.5960
# 5 -13.6314 -13.6167 -9.7877 0.0000 32.3593 0.0000
# 6 0.0000 0.0000 0.0000 -15.5960 0.0000 23.7024
#
#
#
# Elastic Compliance Matrix: (Units=1/GPa)
#
#
# Indices 1 2 3 4 5 6 
#
# 1 0.013410 -0.005714 -0.000150 0.000000 0.003199 0.000000
# 2 -0.005714 0.019115 -0.002003 0.000000 0.005031 0.000000
# 3 -0.000150 -0.002003 0.019617 0.000000 0.005028 0.000000
# 4 0.000000 0.000000 0.000000 0.038159 0.000000 0.025108
# 5 0.003199 0.005031 0.005028 0.000000 0.035888 0.000000
# 6 0.000000 0.000000 0.000000 0.025108 0.000000 0.058711
#
#
# Mechanical properties :
#
#
# Convention : Reuss Voigt Hill
#
# Bulk Modulus (GPa) = 27.46574 34.64127 31.05351
# Shear Modulus (GPa) = 23.49946 29.36332 26.43139
#
# Velocity S-wave (km/s) = 3.33038 3.72278 3.53204
# Velocity P-wave (km/s) = 5.26803 5.90162 5.59380
#
# Compressibility (1/GPa) = 0.03640900
#
# Stress axis : x y z
#
# Youngs Moduli (GPa) = 74.57138 52.31422 50.97492
#
# Poissons Ratio (x) = 0.29893 0.00765
# Poissons Ratio (y) = 0.42610 0.10209
# Poissons Ratio (z) = 0.01119 0.10477
#
# Static dielectric constant tensor:
#      x y z
#    x 1.755520 0.000000 -0.028180 
#    y 0.000000 1.768670 0.000000 
#    z -0.028180 0.000000 1.897480 
# 
# From -- ./inp_files/65194.got.cif
#   From: 2010.05.17/outbox.cif.g08.bks.cpg/sg15_33_cif.got.tgz:65194.got - 2010.06.03 18:47:42.
