data_PCOD9265949
_publ_section_title
;
Structure prediction by ZEFSAII (Michael W. Deem and Ramdas Pophale) SiO2 
 PCOD9265949
Probable space group: C 2/C
;
_chemical_formula_sum "Si O2"
_cell_formula_units_Z 48
_cell_length_a 7.253057
_cell_length_b 13.724554
_cell_length_c 26.262245
_cell_angle_alpha 90.000000
_cell_angle_beta 131.270194
_cell_angle_gamma 90.000000
_cell_volume 1964.907956
_symmetry_space_group_name_H-M "C 2/C"
_symmetry_group_IT_number 15
_symmetry_cell_setting 'monoclinic'
loop_
_space_group_symop_operation_xyz
x,y,z
-x,y,1/2-z
-x,-y,-z
x,-y,1/2+z
1/2+x,1/2+y,z
1/2-x,1/2+y,1/2-z
1/2-x,1/2-y,-z
1/2+x,1/2-y,1/2+z
loop_
_atom_site_type_symbol
_atom_site_label
_atom_site_fract_x
_atom_site_fract_y
_atom_site_fract_z
Si Si1 0.346377 0.091263 0.077884
Si Si2 0.457149 0.817778 0.123387
Si Si3 0.404478 0.297596 0.134951
Si Si4 0.277390 0.013351 0.789760
Si Si5 0.524861 0.434645 0.070501
Si Si6 0.820094 0.819542 0.765877
O O1 0.362675 0.206035 0.089732
O O2 0.604396 0.042830 0.140003
O O3 0.160052 0.036630 0.083726
O O4 0.241531 0.064685 0.003815
O O5 0.645800 0.827754 0.111855
O O6 0.183832 0.854838 0.066363
O O7 0.515158 0.713473 0.157102
O O8 0.554732 0.892692 0.185028
O O9 0.513961 0.388739 0.124346
O O10 0.590201 0.250242 0.210233
O O11 0.273984 0.929788 0.746999
O O12 0.000000 0.043572 0.750000
O O13 0.000000 0.816731 0.750000
#
# Coordination Sequence:
#
# PCOD9265949 Si02
#       6
#     8   8   8   8   8   8
#     4   9  21  40  61  91 123 167 214 251 317 382
#     4  11  22  39  62  91 121 158 207 255 311 383
#     4  11  21  38  62  90 121 163 208 259 313 371
#     4   9  19  37  60  85 120 156 198 255 310 364
#     4  10  21  42  62  86 131 164 205 265 310 379
#     4  10  19  37  58  84 118 158 201 248 317 368
#
# _framework density 24.428625
#
# number of rings (size 3 to 8) (size 9 to 14) (size 15 to 20)
#    0.000    2.000    1.667    2.000    0.000    0.667 
#    9.000    7.500    0.000    0.000    0.000    0.000 
#    0.000    0.000    0.000    0.000    0.000    0.000 
#
# Total GULP energy -134057.613936 kJ/mol
# GULP energy per Si atom -5585.733914 kJ/mol
# Density = 2.437302 g / cm^3
# Si number density = 24.428625 Si / 1000 Ang^3
#
#
#
# Elastic Constant Matrix: (Units=GPa)
#
#
# Indices 1 2 3 4 5 6 
#
# 1 84.8752 -15.7765 -10.3807 0.0000 3.7852 0.0000
# 2 -15.7765 78.5086 8.5307 0.0000 -10.7164 0.0000
# 3 -10.3807 8.5307 60.9567 0.0000 25.2825 0.0000
# 4 0.0000 0.0000 0.0000 30.3618 0.0000 5.6667
# 5 3.7852 -10.7164 25.2825 0.0000 25.2005 0.0000
# 6 0.0000 0.0000 0.0000 5.6667 0.0000 26.1041
#
#
#
# Elastic Compliance Matrix: (Units=1/GPa)
#
#
# Indices 1 2 3 4 5 6 
#
# 1 0.012821 0.001309 0.004398 0.000000 -0.005781 0.000000
# 2 0.001309 0.015880 -0.008082 0.000000 0.014664 0.000000
# 3 0.004398 -0.008082 0.034226 0.000000 -0.038435 0.000000
# 4 0.000000 0.000000 0.000000 0.034327 0.000000 -0.007452
# 5 -0.005781 0.014664 -0.038435 0.000000 0.085346 0.000000
# 6 0.000000 0.000000 0.000000 -0.007452 0.000000 0.039926
#
#
# Mechanical properties :
#
#
# Convention : Reuss Voigt Hill
#
# Bulk Modulus (GPa) = 17.18820 21.00972 19.09896
# Shear Modulus (GPa) = 20.27015 32.46441 26.36728
#
# Velocity S-wave (km/s) = 2.88370 3.64943 3.28893
# Velocity P-wave (km/s) = 4.25899 5.13585 4.71783
#
# Compressibility (1/GPa) = 0.05817944
#
# Stress axis : x y z
#
# Youngs Moduli (GPa) = 77.99636 62.97073 29.21725
#
# Poissons Ratio (x) = -0.08246 -0.12850
# Poissons Ratio (y) = -0.10213 0.23612
# Poissons Ratio (z) = -0.34302 0.50890
#
# Static dielectric constant tensor:
#      x y z
#    x 1.935320 0.000000 0.015720 
#    y 0.000000 1.992280 0.000000 
#    z 0.015720 0.000000 1.952780 
# 
# From -- ./inp_files/308114.got.cif
#   From: 2010.05.17/outbox.cif.g08.bks.cpg/sg15_155_cif.got.tgz:308114.got - 2010.06.03 18:47:42.
