data_PCOD9265335
_publ_section_title
;
Structure prediction by ZEFSAII (Michael W. Deem and Ramdas Pophale) SiO2 
 PCOD9265335
Probable space group: C 2/C
;
_chemical_formula_sum "Si O2"
_cell_formula_units_Z 48
_cell_length_a 16.506123
_cell_length_b 28.029909
_cell_length_c 8.685262
_cell_angle_alpha 90.000000
_cell_angle_beta 146.340739
_cell_angle_gamma 90.000000
_cell_volume 2227.191395
_symmetry_space_group_name_H-M "C 2/C"
_symmetry_group_IT_number 15
_symmetry_cell_setting 'monoclinic'
loop_
_space_group_symop_operation_xyz
x,y,z
-x,y,1/2-z
-x,-y,-z
x,-y,1/2+z
1/2+x,1/2+y,z
1/2-x,1/2+y,1/2-z
1/2-x,1/2-y,-z
1/2+x,1/2-y,1/2+z
loop_
_atom_site_type_symbol
_atom_site_label
_atom_site_fract_x
_atom_site_fract_y
_atom_site_fract_z
Si Si1 0.308455 0.202205 0.169144
Si Si2 0.579520 0.457095 0.212444
Si Si3 0.551448 0.143073 0.653692
Si Si4 0.558980 0.352919 0.165035
Si Si5 0.300378 0.700097 0.149724
Si Si6 0.568170 0.046342 0.189498
O O1 0.476381 0.187243 0.443888
O O2 0.254436 0.201338 0.260129
O O3 0.250000 0.250000 0.000000
O O4 0.227055 0.160637 0.946735
O O5 0.500000 0.455523 0.250000
O O6 0.544400 0.406049 0.079335
O O7 0.755137 0.459114 0.517084
O O8 0.500000 0.500000 0.000000
O O9 0.500000 0.144017 0.750000
O O10 0.490240 0.093800 0.489776
O O11 0.721075 0.156614 0.934414
O O12 0.500000 0.352130 0.250000
O O13 0.470231 0.313324 0.930251
O O14 0.250000 0.750000 0.000000
O O15 0.500000 0.048799 0.250000
O O16 0.500000 0.000000 0.000000
#
# Coordination Sequence:
#
# PCOD9265335 Si02
#       6
#     8   8   8   8   8   8
#     4  10  19  36  60  84 121 165 212 261 316 382
#     4  11  24  44  69  96 128 169 215 261 324 389
#     4  10  22  39  62  90 128 170 218 265 325 386
#     4   9  19  37  61  84 119 165 208 249 317 382
#     4  10  21  36  57  91 123 166 213 266 321 374
#     4  12  26  44  69 100 132 169 216 271 330 389
#
# _framework density 21.551808000000001
#
# number of rings (size 3 to 8) (size 9 to 14) (size 15 to 20)
#    0.000    1.667    1.667    2.500    4.667    1.333 
#    0.000    0.000    0.000    0.000    0.000    0.000 
#    0.000    0.000    0.000    0.000    0.000    0.000 
#
# Total GULP energy -133896.931811 kJ/mol
# GULP energy per Si atom -5579.038825 kJ/mol
# Density = 2.150275 g / cm^3
# Si number density = 21.551808 Si / 1000 Ang^3
#
#
#
# Elastic Constant Matrix: (Units=GPa)
#
#
# Indices 1 2 3 4 5 6 
#
# 1 41.0216 5.9004 37.8455 0.0000 8.1247 0.0000
# 2 5.9004 158.0369 74.0927 0.0000 -19.1381 0.0000
# 3 37.8455 74.0927 154.3028 0.0000 5.8843 0.0000
# 4 0.0000 0.0000 0.0000 76.7267 0.0000 -14.8488
# 5 8.1247 -19.1381 5.8843 0.0000 27.2383 0.0000
# 6 0.0000 0.0000 0.0000 -14.8488 0.0000 21.5498
#
#
#
# Elastic Compliance Matrix: (Units=1/GPa)
#
#
# Indices 1 2 3 4 5 6 
#
# 1 0.033739 0.002206 -0.009085 0.000000 -0.006551 0.000000
# 2 0.002206 0.009704 -0.005481 0.000000 0.007344 0.000000
# 3 -0.009085 -0.005481 0.011479 0.000000 -0.003621 0.000000
# 4 0.000000 0.000000 0.000000 0.015039 0.000000 0.010362
# 5 -0.006551 0.007344 -0.003621 0.000000 0.044610 0.000000
# 6 0.000000 0.000000 0.000000 0.010362 0.000000 0.053544
#
#
# Mechanical properties :
#
#
# Convention : Reuss Voigt Hill
#
# Bulk Modulus (GPa) = 33.10911 65.44873 49.27892
# Shear Modulus (GPa) = 24.64255 40.80447 32.72351
#
# Velocity S-wave (km/s) = 3.38510 4.35595 3.90085
# Velocity P-wave (km/s) = 5.53845 7.46546 6.57296
#
# Compressibility (1/GPa) = 0.03020317
#
# Stress axis : x y z
#
# Youngs Moduli (GPa) = 29.63950 103.04688 87.11685
#
# Poissons Ratio (x) = -0.22734 0.79142
# Poissons Ratio (y) = -0.06539 0.47748
# Poissons Ratio (z) = 0.26926 0.56480
#
# Static dielectric constant tensor:
#      x y z
#    x 1.761910 0.000000 -0.005100 
#    y 0.000000 1.839460 0.000000 
#    z -0.005100 0.000000 1.795660 
# 
# From -- ./inp_files/52876.got.cif
#   From: 2010.05.17/outbox.cif.g08.bks.cpg/sg15_27_cif.got.tgz:52876.got - 2010.06.03 18:47:42.
