data_PCOD9265120
_publ_section_title
;
Structure prediction by ZEFSAII (Michael W. Deem and Ramdas Pophale) SiO2 
 PCOD9265120
Probable space group: C 2/C
;
_chemical_formula_sum "Si O2"
_cell_formula_units_Z 56
_cell_length_a 21.628427
_cell_length_b 12.489870
_cell_length_c 17.396060
_cell_angle_alpha 90.000000
_cell_angle_beta 34.989692
_cell_angle_gamma 90.000000
_cell_volume 2694.718749
_symmetry_space_group_name_H-M "C 2/C"
_symmetry_group_IT_number 15
_symmetry_cell_setting 'monoclinic'
loop_
_space_group_symop_operation_xyz
x,y,z
-x,y,1/2-z
-x,-y,-z
x,-y,1/2+z
1/2+x,1/2+y,z
1/2-x,1/2+y,1/2-z
1/2-x,1/2-y,-z
1/2+x,1/2-y,1/2+z
loop_
_atom_site_type_symbol
_atom_site_label
_atom_site_fract_x
_atom_site_fract_y
_atom_site_fract_z
Si Si1 0.391764 0.828139 0.319545
Si Si2 0.093918 0.331861 0.460567
Si Si3 0.740316 0.840766 0.895254
Si Si4 0.907460 0.217267 0.577260
Si Si5 0.712550 0.512769 0.779811
Si Si6 0.434558 0.940532 0.738771
Si Si7 0.745212 0.174471 0.143854
O O1 0.500000 0.786106 0.250000
O O2 0.318543 0.869943 0.465287
O O3 0.332676 0.739793 0.329556
O O4 0.415646 0.933786 0.247116
O O5 0.184006 0.408097 0.331615
O O6 0.152503 0.252130 0.461665
O O7 0.028384 0.259067 0.466559
O O8 0.007771 0.402541 0.593568
O O9 0.654064 0.775194 0.930588
O O10 0.783880 0.940762 0.801429
O O11 0.887997 0.090291 0.599400
O O12 0.841423 0.257693 0.719014
O O13 0.725033 0.428102 0.835113
O O14 0.500000 0.926699 0.750000
O O15 0.323180 0.873900 0.856014
#
# Coordination Sequence:
#
# PCOD9265120 Si02
#       7
#     8   8   8   8   8   8   8
#     4  10  21  37  58  84 111 147 188 223 272 331
#     4  10  21  37  56  82 111 143 184 229 274 324
#     4  10  21  36  57  85 116 143 180 234 275 322
#     4   9  20  35  56  83 111 145 183 227 277 327
#     4  10  19  36  58  81 112 143 178 227 282 329
#     4  10  20  35  57  80 107 148 188 221 269 329
#     4   9  20  34  53  83 111 139 183 229 272 326
#
# _framework density 20.781389999999998
#
# number of rings (size 3 to 8) (size 9 to 14) (size 15 to 20)
#    0.000    2.286    0.000    2.571    0.000   12.000 
#    0.000    4.286    0.000    3.429    0.000    0.000 
#    0.000    0.000    0.000    0.000    0.000    0.000 
#
# Total GULP energy -156291.338242 kJ/mol
# GULP energy per Si atom -5581.833509 kJ/mol
# Density = 2.073409 g / cm^3
# Si number density = 20.781390 Si / 1000 Ang^3
#
#
#
# Elastic Constant Matrix: (Units=GPa)
#
#
# Indices 1 2 3 4 5 6 
#
# 1 79.1968 37.2753 17.0415 0.0000 -24.5803 0.0000
# 2 37.2753 109.0184 34.4896 0.0000 -17.8285 0.0000
# 3 17.0415 34.4896 56.9735 0.0000 -4.7024 0.0000
# 4 0.0000 0.0000 0.0000 24.6631 0.0000 -4.8683
# 5 -24.5803 -17.8285 -4.7024 0.0000 29.0464 0.0000
# 6 0.0000 0.0000 0.0000 -4.8683 0.0000 20.6391
#
#
#
# Elastic Compliance Matrix: (Units=1/GPa)
#
#
# Indices 1 2 3 4 5 6 
#
# 1 0.019005 -0.003513 -0.002441 0.000000 0.013532 0.000000
# 2 -0.003513 0.013101 -0.006549 0.000000 0.004008 0.000000
# 3 -0.002441 -0.006549 0.022039 0.000000 -0.002518 0.000000
# 4 0.000000 0.000000 0.000000 0.042526 0.000000 0.010031
# 5 0.013532 0.004008 -0.002518 0.000000 0.047931 0.000000
# 6 0.000000 0.000000 0.000000 0.010031 0.000000 0.050818
#
#
# Mechanical properties :
#
#
# Convention : Reuss Voigt Hill
#
# Bulk Modulus (GPa) = 34.31880 46.97792 40.64836
# Shear Modulus (GPa) = 21.72571 25.29521 23.51046
#
# Velocity S-wave (km/s) = 3.23684 3.49263 3.36716
# Velocity P-wave (km/s) = 5.52445 6.23855 5.89233
#
# Compressibility (1/GPa) = 0.02913855
#
# Stress axis : x y z
#
# Youngs Moduli (GPa) = 52.61673 76.32727 45.37366
#
# Poissons Ratio (x) = 0.26814 0.11077
# Poissons Ratio (y) = 0.18484 0.29717
# Poissons Ratio (z) = 0.12845 0.49991
#
# Static dielectric constant tensor:
#      x y z
#    x 1.769430 0.000000 -0.035120 
#    y 0.000000 1.759980 0.000000 
#    z -0.035120 0.000000 1.793500 
# 
# From -- ./inp_files/255441.got.cif
#   From: 2010.05.17/outbox.cif.g08.bks.cpg/sg15_128_cif.got.tgz:255441.got - 2010.06.03 18:47:42.
