data_PCOD9265723
_publ_section_title
;
Structure prediction by ZEFSAII (Michael W. Deem and Ramdas Pophale) SiO2 
 PCOD9265723
Probable space group: C 2/C
;
_chemical_formula_sum "Si O2"
_cell_formula_units_Z 56
_cell_length_a 10.954680
_cell_length_b 21.006982
_cell_length_c 12.331612
_cell_angle_alpha 90.000000
_cell_angle_beta 106.392784
_cell_angle_gamma 90.000000
_cell_volume 2722.451026
_symmetry_space_group_name_H-M "C 2/C"
_symmetry_group_IT_number 15
_symmetry_cell_setting 'monoclinic'
loop_
_space_group_symop_operation_xyz
x,y,z
-x,y,1/2-z
-x,-y,-z
x,-y,1/2+z
1/2+x,1/2+y,z
1/2-x,1/2+y,1/2-z
1/2-x,1/2-y,-z
1/2+x,1/2-y,1/2+z
loop_
_atom_site_type_symbol
_atom_site_label
_atom_site_fract_x
_atom_site_fract_y
_atom_site_fract_z
Si Si1 0.171629 0.855597 0.208467
Si Si2 0.249254 0.231626 0.376210
Si Si3 0.387428 0.320875 0.065014
Si Si4 0.229332 0.406429 0.874681
Si Si5 0.355701 0.468495 0.458808
Si Si6 0.140755 0.897151 0.815985
Si Si7 0.476914 0.808233 0.623766
O O1 0.260649 0.797530 0.191758
O O2 0.172849 0.849979 0.339338
O O3 0.179226 0.925428 0.155920
O O4 0.035691 0.835053 0.123193
O O5 0.250000 0.250000 0.500000
O O6 0.144961 0.179185 0.323697
O O7 0.383957 0.194731 0.391341
O O8 0.385808 0.244683 0.048490
O O9 0.333558 0.357069 0.948235
O O10 0.258833 0.472978 0.937015
O O11 0.260499 0.414425 0.755207
O O12 0.096520 0.374003 0.875153
O O13 0.500000 0.500000 0.500000
O O14 0.334425 0.425459 0.559327
O O15 0.000000 0.920331 0.750000
O O16 0.500000 0.781381 0.750000
#
# Coordination Sequence:
#
# PCOD9265723 Si02
#       7
#     8   8   8   8   8   8   8
#     4  10  19  37  62  89 125 171 202 258 334 376
#     4  11  22  42  68  92 128 168 214 268 329 394
#     4  10  19  36  64  93 123 160 211 268 321 379
#     4  12  25  38  63  95 132 168 221 268 317 401
#     4  12  24  38  58  93 134 170 213 266 326 385
#     4  12  24  40  66  97 125 167 219 276 329 381
#     4  11  21  41  65  93 128 175 211 264 331 393
#
# _framework density 20.569700999999998
#
# number of rings (size 3 to 8) (size 9 to 14) (size 15 to 20)
#    0.000    0.857    8.571    0.429    4.000    0.000 
#    0.000    0.714    0.000    0.857    0.000    0.000 
#    0.000    0.000    0.000    0.000    0.000    0.000 
#
# Total GULP energy -156117.458656 kJ/mol
# GULP energy per Si atom -5575.623523 kJ/mol
# Density = 2.052288 g / cm^3
# Si number density = 20.569701 Si / 1000 Ang^3
#
#
#
# Elastic Constant Matrix: (Units=GPa)
#
#
# Indices 1 2 3 4 5 6 
#
# 1 63.6190 23.0443 10.5836 0.0000 -10.2820 0.0000
# 2 23.0443 117.7171 4.7494 0.0000 -4.0911 0.0000
# 3 10.5836 4.7494 53.2821 0.0000 -17.3569 0.0000
# 4 0.0000 0.0000 0.0000 25.9800 0.0000 0.3389
# 5 -10.2820 -4.0911 -17.3569 0.0000 27.0729 0.0000
# 6 0.0000 0.0000 0.0000 0.3389 0.0000 32.2168
#
#
#
# Elastic Compliance Matrix: (Units=1/GPa)
#
#
# Indices 1 2 3 4 5 6 
#
# 1 0.018030 -0.003281 -0.001542 0.000000 0.005363 0.000000
# 2 -0.003281 0.009145 -0.000151 0.000000 0.000039 0.000000
# 3 -0.001542 -0.000151 0.023876 0.000000 0.014699 0.000000
# 4 0.000000 0.000000 0.000000 0.038496 0.000000 -0.000405
# 5 0.005363 0.000039 0.014699 0.000000 0.048404 0.000000
# 6 0.000000 0.000000 0.000000 -0.000405 0.000000 0.031044
#
#
# Mechanical properties :
#
#
# Convention : Reuss Voigt Hill
#
# Bulk Modulus (GPa) = 24.32850 34.59698 29.46274
# Shear Modulus (GPa) = 25.95465 30.13665 28.04565
#
# Velocity S-wave (km/s) = 3.55602 3.83181 3.69649
# Velocity P-wave (km/s) = 5.35849 6.03597 5.70729
#
# Compressibility (1/GPa) = 0.04110405
#
# Stress axis : x y z
#
# Youngs Moduli (GPa) = 55.46199 109.35327 41.88310
#
# Poissons Ratio (x) = 0.35879 0.06458
# Poissons Ratio (y) = 0.18197 0.00631
# Poissons Ratio (z) = 0.08551 0.01647
#
# Static dielectric constant tensor:
#      x y z
#    x 1.762220 0.000000 0.001150 
#    y 0.000000 1.805790 0.000000 
#    z 0.001150 0.000000 1.736960 
# 
# From -- ./inp_files/89030.got.cif
#   From: 2010.05.17/outbox.cif.g08.bks.cpg/sg15_45_cif.got.tgz:89030.got - 2010.06.03 18:47:42.
