data_PCOD9265193
_publ_section_title
;
Structure prediction by ZEFSAII (Michael W. Deem and Ramdas Pophale) SiO2 
 PCOD9265193
Probable space group: C 2/C
;
_chemical_formula_sum "Si O2"
_cell_formula_units_Z 64
_cell_length_a 18.007953
_cell_length_b 26.648452
_cell_length_c 5.810339
_cell_angle_alpha 90.000000
_cell_angle_beta 85.706879
_cell_angle_gamma 90.000000
_cell_volume 2780.465553
_symmetry_space_group_name_H-M "C 2/C"
_symmetry_group_IT_number 15
_symmetry_cell_setting 'monoclinic'
loop_
_space_group_symop_operation_xyz
x,y,z
-x,y,1/2-z
-x,-y,-z
x,-y,1/2+z
1/2+x,1/2+y,z
1/2-x,1/2+y,1/2-z
1/2-x,1/2-y,-z
1/2+x,1/2-y,1/2+z
loop_
_atom_site_type_symbol
_atom_site_label
_atom_site_fract_x
_atom_site_fract_y
_atom_site_fract_z
Si Si1 0.268851 0.380941 0.029607
Si Si2 0.623120 0.868307 0.802230
Si Si3 0.428760 0.758285 0.593597
Si Si4 0.836564 0.214619 0.001020
Si Si5 0.740978 0.483891 0.214849
Si Si6 0.922837 0.843287 0.804108
Si Si7 0.586434 0.979505 0.857178
Si Si8 0.815601 0.684643 0.612418
O O1 0.207941 0.386246 0.842360
O O2 0.261065 0.426018 0.211992
O O3 0.353534 0.370635 0.942167
O O4 0.231607 0.334878 0.168169
O O5 0.591533 0.818130 0.940334
O O6 0.578766 0.919002 0.864742
O O7 0.628205 0.851668 0.532750
O O8 0.500000 0.760800 0.750000
O O9 0.358612 0.737414 0.753599
O O10 0.442571 0.709554 0.428257
O O11 0.751991 0.198095 0.046995
O O12 0.889678 0.170459 0.062403
O O13 0.851382 0.262263 0.162682
O O14 0.708679 0.491610 0.962354
O O15 0.825550 0.503902 0.170396
O O16 0.000000 0.871740 0.750000
O O17 0.561268 0.997746 0.608793
#
# Coordination Sequence:
#
# PCOD9265193 Si02
#       8
#     8   8   8   8   8   8   8   8
#     4  12  22  34  61  89 117 153 207 254 309 370
#     4  11  22  34  61  90 115 154 205 252 305 368
#     4  11  23  41  56  80 121 168 203 241 297 365
#     4  10  20  35  54  77 117 154 196 244 300 350
#     4  10  20  36  60  90 124 158 192 256 326 380
#     4  12  24  38  56  81 120 164 207 244 298 359
#     4  10  19  36  58  91 124 155 193 256 320 377
#     4  10  20  32  53  88 114 144 196 259 295 352
#
# _framework density 23.01773
#
# number of rings (size 3 to 8) (size 9 to 14) (size 15 to 20)
#    0.000    1.250    6.250    2.250    0.000    1.000 
#    0.000    0.000    0.000    1.500    0.000    0.000 
#    0.000    0.000    0.000    0.000    0.000    0.000 
#
# Total GULP energy -178150.634303 kJ/mol
# GULP energy per Si atom -5567.207322 kJ/mol
# Density = 2.296534 g / cm^3
# Si number density = 23.017730 Si / 1000 Ang^3
#
#
#
# Elastic Constant Matrix: (Units=GPa)
#
#
# Indices 1 2 3 4 5 6 
#
# 1 55.4108 9.8901 10.8924 0.0000 -1.6457 0.0000
# 2 9.8901 72.5799 33.5409 0.0000 -3.3069 0.0000
# 3 10.8924 33.5409 78.9020 0.0000 -19.5057 0.0000
# 4 0.0000 0.0000 0.0000 28.7262 0.0000 -3.2342
# 5 -1.6457 -3.3069 -19.5057 0.0000 22.5860 0.0000
# 6 0.0000 0.0000 0.0000 -3.2342 0.0000 4.2772
#
#
#
# Elastic Compliance Matrix: (Units=1/GPa)
#
#
# Indices 1 2 3 4 5 6 
#
# 1 0.018722 -0.001633 -0.002050 0.000000 -0.000645 0.000000
# 2 -0.001633 0.017710 -0.008508 0.000000 -0.004874 0.000000
# 3 -0.002050 -0.008508 0.020634 0.000000 0.016425 0.000000
# 4 0.000000 0.000000 0.000000 0.038051 0.000000 0.028772
# 5 -0.000645 -0.004874 0.016425 0.000000 0.057700 0.000000
# 6 0.000000 0.000000 0.000000 0.028772 0.000000 0.255555
#
#
# Mechanical properties :
#
#
# Convention : Reuss Voigt Hill
#
# Bulk Modulus (GPa) = 30.59546 35.05996 32.82771
# Shear Modulus (GPa) = 11.27017 21.28917 16.27967
#
# Velocity S-wave (km/s) = 2.21516 3.04452 2.66233
# Velocity P-wave (km/s) = 4.45686 5.25582 4.87274
#
# Compressibility (1/GPa) = 0.03268458
#
# Stress axis : x y z
#
# Youngs Moduli (GPa) = 53.41219 56.46494 48.46354
#
# Poissons Ratio (x) = 0.09223 0.09934
# Poissons Ratio (y) = 0.08724 0.41232
# Poissons Ratio (z) = 0.10948 0.48039
#
# Static dielectric constant tensor:
#      x y z
#    x 1.931690 0.000000 0.106250 
#    y 0.000000 1.942960 0.000000 
#    z 0.106250 0.000000 2.074600 
# 
# From -- ./inp_files/14284.got.cif
#   From: 2010.05.17/outbox.cif.g08.bks.cpg/sg15_8_cif.got.tgz:14284.got - 2010.06.03 18:47:42.
