data_PCOD9265858
_publ_section_title
;
Structure prediction by ZEFSAII (Michael W. Deem and Ramdas Pophale) SiO2 
 PCOD9265858
Probable space group: C 2/C
;
_chemical_formula_sum "Si O2"
_cell_formula_units_Z 44
_cell_length_a 17.259251
_cell_length_b 23.424833
_cell_length_c 6.075109
_cell_angle_alpha 90.000000
_cell_angle_beta 73.418750
_cell_angle_gamma 90.000000
_cell_volume 2354.000683
_symmetry_space_group_name_H-M "C 2/C"
_symmetry_group_IT_number 15
_symmetry_cell_setting 'monoclinic'
loop_
_space_group_symop_operation_xyz
x,y,z
-x,y,1/2-z
-x,-y,-z
x,-y,1/2+z
1/2+x,1/2+y,z
1/2-x,1/2+y,1/2-z
1/2-x,1/2-y,-z
1/2+x,1/2-y,1/2+z
loop_
_atom_site_type_symbol
_atom_site_label
_atom_site_fract_x
_atom_site_fract_y
_atom_site_fract_z
Si Si1 0.844741 0.971385 0.746657
Si Si2 0.250462 0.136245 0.046934
Si Si3 0.500000 0.597325 0.250000
Si Si4 0.907058 0.300310 0.343443
Si Si5 0.386923 0.320630 0.114364
Si Si6 0.172682 0.773053 0.933873
O O1 0.775301 0.923490 0.829805
O O2 0.932249 0.940998 0.688885
O O3 0.839358 0.997091 0.498264
O O4 0.209728 0.186009 0.222661
O O5 0.344662 0.150478 0.961462
O O6 0.199723 0.148335 0.864110
O O7 0.452903 0.638339 0.456750
O O8 0.896256 0.243237 0.503630
O O9 0.875571 0.278364 0.133982
O O10 0.000000 0.316548 0.250000
O O11 0.387860 0.309955 0.370996
O O12 0.250000 0.750000 0.000000
#
# Coordination Sequence:
#
# PCOD9265858 Si02
#       6
#     8   8   4   8   8   8
#     4  11  26  46  66  89 120 169 227 280 318 369
#     4  10  22  38  60  85 120 165 210 262 318 371
#     4  10  22  40  60  92 130 162 204 264 326 386
#     4  11  21  36  53  93 129 156 201 253 311 390
#     4  10  19  37  55  88 125 168 197 238 315 396
#     4  11  19  35  62  83 127 172 206 241 306 403
#
# _framework density 18.691583999999999
#
# number of rings (size 3 to 8) (size 9 to 14) (size 15 to 20)
#    0.000    1.455    4.545    1.636    5.091    0.727 
#    6.545    0.000    0.000    1.091    0.000    0.000 
#    0.000    0.000    0.000    0.000    0.000    0.000 
#
# Total GULP energy -122568.072779 kJ/mol
# GULP energy per Si atom -5571.276035 kJ/mol
# Density = 1.864904 g / cm^3
# Si number density = 18.691584 Si / 1000 Ang^3
#
#
#
# Elastic Constant Matrix: (Units=GPa)
#
#
# Indices 1 2 3 4 5 6 
#
# 1 129.0937 46.4275 40.2710 0.0000 -28.2300 0.0000
# 2 46.4275 57.5531 13.2208 0.0000 -9.6044 0.0000
# 3 40.2710 13.2208 59.0711 0.0000 -8.5669 0.0000
# 4 0.0000 0.0000 0.0000 19.5658 0.0000 -13.3538
# 5 -28.2300 -9.6044 -8.5669 0.0000 31.9207 0.0000
# 6 0.0000 0.0000 0.0000 -13.3538 0.0000 30.9974
#
#
#
# Elastic Compliance Matrix: (Units=1/GPa)
#
#
# Indices 1 2 3 4 5 6 
#
# 1 0.015130 -0.009136 -0.007000 0.000000 0.008753 0.000000
# 2 -0.009136 0.024504 0.000668 0.000000 -0.000528 0.000000
# 3 -0.007000 0.000668 0.021521 0.000000 -0.000214 0.000000
# 4 0.000000 0.000000 0.000000 0.072396 0.000000 0.031189
# 5 0.008753 -0.000528 -0.000214 0.000000 0.038852 0.000000
# 6 0.000000 0.000000 0.000000 0.031189 0.000000 0.045697
#
#
# Mechanical properties :
#
#
# Convention : Reuss Voigt Hill
#
# Bulk Modulus (GPa) = 33.09450 49.50629 41.30039
# Shear Modulus (GPa) = 19.29678 26.21667 22.75672
#
# Velocity S-wave (km/s) = 3.21655 3.74918 3.49303
# Velocity P-wave (km/s) = 5.61595 6.72943 6.19775
#
# Compressibility (1/GPa) = 0.03021650
#
# Stress axis : x y z
#
# Youngs Moduli (GPa) = 66.09359 40.80959 46.46694
#
# Poissons Ratio (x) = 0.37286 0.32529
# Poissons Ratio (y) = 0.60386 -0.03103
# Poissons Ratio (z) = 0.46269 -0.02725
#
# Static dielectric constant tensor:
#      x y z
#    x 1.729500 0.000000 0.042500 
#    y 0.000000 1.657380 0.000000 
#    z 0.042500 0.000000 1.724180 
# 
# From -- ./inp_files/10296.got.cif
#   From: 2010.05.17/outbox.cif.g08.bks.cpg/sg15_6_cif.got.tgz:10296.got - 2010.06.03 18:47:42.
