data_PCOD9265705
_publ_section_title
;
Structure prediction by ZEFSAII (Michael W. Deem and Ramdas Pophale) SiO2 
 PCOD9265705
Probable space group: C 2/C
;
_chemical_formula_sum "Si O2"
_cell_formula_units_Z 48
_cell_length_a 5.106367
_cell_length_b 16.181418
_cell_length_c 31.311462
_cell_angle_alpha 90.000000
_cell_angle_beta 68.882202
_cell_angle_gamma 90.000000
_cell_volume 2413.458760
_symmetry_space_group_name_H-M "C 2/C"
_symmetry_group_IT_number 15
_symmetry_cell_setting 'monoclinic'
loop_
_space_group_symop_operation_xyz
x,y,z
-x,y,1/2-z
-x,-y,-z
x,-y,1/2+z
1/2+x,1/2+y,z
1/2-x,1/2+y,1/2-z
1/2-x,1/2-y,-z
1/2+x,1/2-y,1/2+z
loop_
_atom_site_type_symbol
_atom_site_label
_atom_site_fract_x
_atom_site_fract_y
_atom_site_fract_z
Si Si1 0.538169 0.270081 0.113337
Si Si2 0.111312 0.582077 0.947337
Si Si3 0.677490 0.694601 0.198396
Si Si4 0.141759 0.974781 0.931561
Si Si5 0.100471 0.672012 0.030150
Si Si6 0.234155 0.131834 0.345751
O O1 0.688504 0.352258 0.088779
O O2 0.293211 0.271521 0.163119
O O3 0.435171 0.214083 0.079097
O O4 0.768953 0.212847 0.123398
O O5 0.332573 0.513488 0.950809
O O6 0.872625 0.542073 0.932297
O O7 0.973732 0.627496 0.996231
O O8 0.500000 0.717980 0.250000
O O9 0.492960 0.639618 0.177375
O O10 0.955632 0.641664 0.192464
O O11 0.201925 0.896573 0.958968
O O12 0.196193 0.943754 0.880137
O O13 0.250000 0.750000 0.000000
#
# Coordination Sequence:
#
# PCOD9265705 Si02
#       6
#     8   8   8   8   8   8
#     4   8  21  36  58  84 113 149 191 238 284 334
#     4  11  22  36  56  85 119 159 189 228 288 341
#     4  10  19  36  64  88 104 141 195 247 285 343
#     4  11  22  37  57  83 121 154 192 232 282 345
#     4   9  19  40  54  85 117 157 197 239 270 336
#     4   9  20  36  58  84 114 142 191 236 289 334
#
# _framework density 19.888470999999999
#
# number of rings (size 3 to 8) (size 9 to 14) (size 15 to 20)
#    1.000    1.333    0.000    2.500    2.333    0.000 
#    3.000    3.333    0.000    4.000    0.000    0.000 
#    0.000    0.000    0.000    0.000    0.000    0.000 
#
# Total GULP energy -133685.504764 kJ/mol
# GULP energy per Si atom -5570.229365 kJ/mol
# Density = 1.984320 g / cm^3
# Si number density = 19.888471 Si / 1000 Ang^3
#
#
#
# Elastic Constant Matrix: (Units=GPa)
#
#
# Indices 1 2 3 4 5 6 
#
# 1 83.7773 21.4436 17.5926 0.0000 0.9493 0.0000
# 2 21.4436 80.7367 38.0513 0.0000 -6.6382 0.0000
# 3 17.5926 38.0513 113.4739 0.0000 -20.2128 0.0000
# 4 0.0000 0.0000 0.0000 19.3984 0.0000 2.4453
# 5 0.9493 -6.6382 -20.2128 0.0000 27.1348 0.0000
# 6 0.0000 0.0000 0.0000 2.4453 0.0000 9.4388
#
#
#
# Elastic Compliance Matrix: (Units=1/GPa)
#
#
# Indices 1 2 3 4 5 6 
#
# 1 0.013021 -0.002973 -0.001421 0.000000 -0.002241 0.000000
# 2 -0.002973 0.015390 -0.004624 0.000000 0.000424 0.000000
# 3 -0.001421 -0.004624 0.011981 0.000000 0.007843 0.000000
# 4 0.000000 0.000000 0.000000 0.053291 0.000000 -0.013806
# 5 -0.002241 0.000424 0.007843 0.000000 0.042877 0.000000
# 6 0.000000 0.000000 0.000000 -0.013806 0.000000 0.109523
#
#
# Mechanical properties :
#
#
# Convention : Reuss Voigt Hill
#
# Bulk Modulus (GPa) = 44.73240 48.01809 46.37525
# Shear Modulus (GPa) = 18.41141 24.58776 21.49959
#
# Velocity S-wave (km/s) = 3.04589 3.51990 3.29143
# Velocity P-wave (km/s) = 5.90850 6.38088 6.14923
#
# Compressibility (1/GPa) = 0.02235516
#
# Stress axis : x y z
#
# Youngs Moduli (GPa) = 76.79799 64.97805 83.46853
#
# Poissons Ratio (x) = 0.19318 0.11862
# Poissons Ratio (y) = 0.22832 0.38597
# Poissons Ratio (z) = 0.10914 0.30047
#
# Static dielectric constant tensor:
#      x y z
#    x 1.720820 0.000000 -0.005110 
#    y 0.000000 1.728660 0.000000 
#    z -0.005110 0.000000 1.727210 
# 
# From -- ./inp_files/305196.got.cif
#   From: 2010.05.17/outbox.cif.g08.bks.cpg/sg15_153_cif.got.tgz:305196.got - 2010.06.03 18:47:42.
