data_PCOD9265409
_publ_section_title
;
Structure prediction by ZEFSAII (Michael W. Deem and Ramdas Pophale) SiO2 
 PCOD9265409
Probable space group: C 2/C
;
_chemical_formula_sum "Si O2"
_cell_formula_units_Z 64
_cell_length_a 23.292255
_cell_length_b 9.120823
_cell_length_c 28.548738
_cell_angle_alpha 90.000000
_cell_angle_beta 147.231202
_cell_angle_gamma 90.000000
_cell_volume 3282.696182
_symmetry_space_group_name_H-M "C 2/C"
_symmetry_group_IT_number 15
_symmetry_cell_setting 'monoclinic'
loop_
_space_group_symop_operation_xyz
x,y,z
-x,y,1/2-z
-x,-y,-z
x,-y,1/2+z
1/2+x,1/2+y,z
1/2-x,1/2+y,1/2-z
1/2-x,1/2-y,-z
1/2+x,1/2-y,1/2+z
loop_
_atom_site_type_symbol
_atom_site_label
_atom_site_fract_x
_atom_site_fract_y
_atom_site_fract_z
Si Si1 0.495283 0.785381 0.569140
Si Si2 0.308311 0.282379 0.588614
Si Si3 0.609947 0.509365 0.182567
Si Si4 0.500371 0.769457 0.159564
Si Si5 0.174797 0.409956 0.634099
Si Si6 0.605502 0.600050 0.076645
Si Si7 0.137368 0.469238 0.502110
Si Si8 0.222404 0.620495 0.836677
O O1 0.548587 0.640615 0.628175
O O2 0.588640 0.892187 0.615433
O O3 0.429529 0.737889 0.477688
O O4 0.414003 0.875167 0.545483
O O5 0.250000 0.250000 0.500000
O O6 0.429321 0.261913 0.656547
O O7 0.259830 0.437344 0.572734
O O8 0.275890 0.173357 0.608274
O O9 0.544400 0.613703 0.172118
O O10 0.727267 0.487575 0.284024
O O11 0.624573 0.605115 0.145036
O O12 0.599666 0.875192 0.238201
O O13 0.430280 0.845521 0.071157
O O14 0.128368 0.450678 0.551750
O O15 0.222538 0.246908 0.657252
O O16 0.707447 0.522222 0.123713
O O17 0.500000 0.500000 0.000000
#
# Coordination Sequence:
#
# PCOD9265409 Si02
#       8
#     8   8   8   8   8   8   8   8
#     4  11  22  35  55  85 126 159 192 244 309 369
#     4   9  20  36  63  84 113 152 205 255 295 345
#     4  10  22  35  60  86 120 158 203 242 310 362
#     4  10  21  38  63  88 114 158 208 259 289 363
#     4  10  20  35  55  85 120 159 198 243 291 365
#     4  10  20  35  56  83 124 159 193 243 299 377
#     4  10  22  37  56  85 120 155 202 250 305 353
#     4  10  19  36  60  91 111 154 211 246 293 351
#
# _framework density 19.496169999999999
#
# number of rings (size 3 to 8) (size 9 to 14) (size 15 to 20)
#    0.000    2.000    2.500    1.500   10.500    1.000 
#    0.000    0.625    0.000    0.000    0.000    0.000 
#    0.000    0.000    0.000    0.000    0.000    0.000 
#
# Total GULP energy -178394.286921 kJ/mol
# GULP energy per Si atom -5574.821466 kJ/mol
# Density = 1.945180 g / cm^3
# Si number density = 19.496170 Si / 1000 Ang^3
#
#
#
# Elastic Constant Matrix: (Units=GPa)
#
#
# Indices 1 2 3 4 5 6 
#
# 1 75.1278 7.2296 6.5919 0.0000 20.8037 0.0000
# 2 7.2296 50.4999 9.2598 0.0000 18.9926 0.0000
# 3 6.5919 9.2598 86.0630 0.0000 8.7300 0.0000
# 4 0.0000 0.0000 0.0000 16.7647 0.0000 8.4165
# 5 20.8037 18.9926 8.7300 0.0000 33.5907 0.0000
# 6 0.0000 0.0000 0.0000 8.4165 0.0000 19.3158
#
#
#
# Elastic Compliance Matrix: (Units=1/GPa)
#
#
# Indices 1 2 3 4 5 6 
#
# 1 0.016209 0.001883 -0.000326 0.000000 -0.011019 0.000000
# 2 0.001883 0.025511 -0.001343 0.000000 -0.015242 0.000000
# 3 -0.000326 -0.001343 0.012008 0.000000 -0.002159 0.000000
# 4 0.000000 0.000000 0.000000 0.076351 0.000000 -0.033269
# 5 -0.011019 -0.015242 -0.002159 0.000000 0.045774 0.000000
# 6 0.000000 0.000000 0.000000 -0.033269 0.000000 0.066267
#
#
# Mechanical properties :
#
#
# Convention : Reuss Voigt Hill
#
# Bulk Modulus (GPa) = 18.46511 28.65038 23.55775
# Shear Modulus (GPa) = 19.24973 26.50820 22.87896
#
# Velocity S-wave (km/s) = 3.14564 3.69136 3.42937
# Velocity P-wave (km/s) = 4.76289 5.73546 5.27165
#
# Compressibility (1/GPa) = 0.05415618
#
# Stress axis : x y z
#
# Youngs Moduli (GPa) = 61.69292 39.19895 83.27829
#
# Poissons Ratio (x) = -0.07383 0.02719
# Poissons Ratio (y) = -0.11620 0.11184
# Poissons Ratio (z) = 0.02014 0.05264
#
# Static dielectric constant tensor:
#      x y z
#    x 1.682070 0.000000 0.022650 
#    y 0.000000 1.700050 0.000000 
#    z 0.022650 0.000000 1.749240 
# 
# From -- ./inp_files/318642.got.cif
#   From: 2010.05.17/outbox.cif.g08.bks.cpg/sg15_160_cif.got.tgz:318642.got - 2010.06.03 18:47:42.
