data_PCOD9265520
_publ_section_title
;
Structure prediction by ZEFSAII (Michael W. Deem and Ramdas Pophale) SiO2 
 PCOD9265520
Probable space group: C 2/C
;
_chemical_formula_sum "Si O2"
_cell_formula_units_Z 56
_cell_length_a 16.457553
_cell_length_b 11.453564
_cell_length_c 17.949875
_cell_angle_alpha 90.000000
_cell_angle_beta 57.065283
_cell_angle_gamma 90.000000
_cell_volume 2839.747266
_symmetry_space_group_name_H-M "C 2/C"
_symmetry_group_IT_number 15
_symmetry_cell_setting 'monoclinic'
loop_
_space_group_symop_operation_xyz
x,y,z
-x,y,1/2-z
-x,-y,-z
x,-y,1/2+z
1/2+x,1/2+y,z
1/2-x,1/2+y,1/2-z
1/2-x,1/2-y,-z
1/2+x,1/2-y,1/2+z
loop_
_atom_site_type_symbol
_atom_site_label
_atom_site_fract_x
_atom_site_fract_y
_atom_site_fract_z
Si Si1 0.885386 0.025274 0.548728
Si Si2 0.514604 0.868871 0.069129
Si Si3 0.159666 0.941988 0.723001
Si Si4 0.387318 0.918023 0.633103
Si Si5 0.651281 0.296384 0.866434
Si Si6 0.347412 0.676491 0.713775
Si Si7 0.649069 0.310175 0.572371
O O1 0.846955 0.109491 0.634237
O O2 0.869952 0.091345 0.479859
O O3 0.832465 0.900310 0.583209
O O4 0.000000 0.000000 0.500000
O O5 0.433876 0.789595 0.068539
O O6 0.569897 0.791845 0.102009
O O7 0.456081 0.979752 0.128502
O O8 0.587219 0.904335 0.967029
O O9 0.273348 0.948457 0.690541
O O10 0.114201 0.865111 0.811430
O O11 0.150674 0.872512 0.651194
O O12 0.119170 0.073648 0.747151
O O13 0.403243 0.796648 0.668735
O O14 0.744394 0.222779 0.795561
O O15 0.750000 0.250000 0.500000
#
# Coordination Sequence:
#
# PCOD9265520 Si02
#       7
#     8   8   8   8   8   8   8
#     4  11  21  39  64  88 121 169 212 247 303 382
#     4  11  20  35  64  91 122 158 213 250 308 375
#     4  10  21  35  60  91 127 156 203 264 321 346
#     4  10  19  36  61  94 118 169 206 254 300 386
#     4  10  20  36  61  91 116 164 209 253 304 378
#     4  10  19  38  60  89 125 161 209 254 306 379
#     4  12  22  39  60  97 126 157 206 272 309 361
#
# _framework density 19.720065000000002
#
# number of rings (size 3 to 8) (size 9 to 14) (size 15 to 20)
#    0.000    1.429    5.714    0.857    0.000    0.571 
#    0.000    0.714    0.000    1.714    0.000    0.000 
#    0.000    0.000    0.000    0.000    0.000    0.000 
#
# Total GULP energy -156184.342507 kJ/mol
# GULP energy per Si atom -5578.012232 kJ/mol
# Density = 1.967518 g / cm^3
# Si number density = 19.720065 Si / 1000 Ang^3
#
#
#
# Elastic Constant Matrix: (Units=GPa)
#
#
# Indices 1 2 3 4 5 6 
#
# 1 43.1278 28.2401 14.8657 0.0000 2.8126 0.0000
# 2 28.2401 140.0611 17.7332 0.0000 8.6750 0.0000
# 3 14.8657 17.7332 55.1695 0.0000 0.6371 0.0000
# 4 0.0000 0.0000 0.0000 48.7881 0.0000 -5.7120
# 5 2.8126 8.6750 0.6371 0.0000 30.3054 0.0000
# 6 0.0000 0.0000 0.0000 -5.7120 0.0000 27.9639
#
#
#
# Elastic Compliance Matrix: (Units=1/GPa)
#
#
# Indices 1 2 3 4 5 6 
#
# 1 0.028588 -0.004922 -0.006108 0.000000 -0.001116 0.000000
# 2 -0.004922 0.008423 -0.001359 0.000000 -0.001926 0.000000
# 3 -0.006108 -0.001359 0.020203 0.000000 0.000531 0.000000
# 4 0.000000 0.000000 0.000000 0.020999 0.000000 0.004289
# 5 -0.001116 -0.001926 0.000531 0.000000 0.033641 0.000000
# 6 0.000000 0.000000 0.000000 0.004289 0.000000 0.036637
#
#
# Mechanical properties :
#
#
# Convention : Reuss Voigt Hill
#
# Bulk Modulus (GPa) = 30.83015 40.00405 35.41710
# Shear Modulus (GPa) = 27.16204 33.24611 30.20407
#
# Velocity S-wave (km/s) = 3.71533 4.11043 3.91787
# Velocity P-wave (km/s) = 5.83719 6.54656 6.20203
#
# Compressibility (1/GPa) = 0.03243578
#
# Stress axis : x y z
#
# Youngs Moduli (GPa) = 34.97997 118.71642 49.49861
#
# Poissons Ratio (x) = 0.58427 0.30235
# Poissons Ratio (y) = 0.17216 0.06728
# Poissons Ratio (z) = 0.21367 0.16136
#
# Static dielectric constant tensor:
#      x y z
#    x 1.679910 0.000000 -0.023940 
#    y 0.000000 1.749000 0.000000 
#    z -0.023940 0.000000 1.689940 
# 
# From -- ./inp_files/204359.got.cif
#   From: 2010.05.17/outbox.cif.g08.bks.cpg/sg15_103_cif.got.tgz:204359.got - 2010.06.03 18:47:42.
