data_PCOD9265489
_publ_section_title
;
Structure prediction by ZEFSAII (Michael W. Deem and Ramdas Pophale) SiO2 
 PCOD9265489
Probable space group: C 2/C
;
_chemical_formula_sum "Si O2"
_cell_formula_units_Z 52
_cell_length_a 14.744121
_cell_length_b 12.327935
_cell_length_c 14.212433
_cell_angle_alpha 90.000000
_cell_angle_beta 104.955203
_cell_angle_gamma 90.000000
_cell_volume 2495.814319
_symmetry_space_group_name_H-M "C 2/C"
_symmetry_group_IT_number 15
_symmetry_cell_setting 'monoclinic'
loop_
_space_group_symop_operation_xyz
x,y,z
-x,y,1/2-z
-x,-y,-z
x,-y,1/2+z
1/2+x,1/2+y,z
1/2-x,1/2+y,1/2-z
1/2-x,1/2-y,-z
1/2+x,1/2-y,1/2+z
loop_
_atom_site_type_symbol
_atom_site_label
_atom_site_fract_x
_atom_site_fract_y
_atom_site_fract_z
Si Si1 0.390489 0.092744 0.889319
Si Si2 0.188941 0.181944 0.194217
Si Si3 0.185942 0.994505 0.838279
Si Si4 0.500000 0.176350 0.250000
Si Si5 0.209144 0.024504 0.564684
Si Si6 0.368799 0.319858 0.303959
Si Si7 0.586206 0.009719 0.393639
O O1 0.372590 0.217576 0.859031
O O2 0.295118 0.024742 0.839631
O O3 0.486946 0.051883 0.868620
O O4 0.402624 0.069999 0.003470
O O5 0.154563 0.112274 0.274324
O O6 0.282974 0.240410 0.256586
O O7 0.201247 0.091788 0.115317
O O8 0.128126 0.094561 0.780878
O O9 0.180425 0.984651 0.948483
O O10 0.461101 0.247922 0.324480
O O11 0.579856 0.099689 0.311940
O O12 0.150794 0.112065 0.607922
O O13 0.319341 0.058141 0.596179
#
# Coordination Sequence:
#
# PCOD9265489 Si02
#       7
#     8   8   8   4   8   8   8
#     4   9  20  36  61  94 128 147 205 250 308 356
#     4  10  19  36  61  90 118 161 196 247 303 364
#     4   9  20  37  60  87 122 160 204 245 300 365
#     4  12  22  36  64  84 120 156 206 244 306 354
#     4  10  21  39  63  86 123 157 204 253 298 360
#     4  10  22  36  60  88 115 158 207 246 299 367
#     4  10  21  36  62  96 117 156 194 263 298 356
#
# _framework density 20.834883000000001
#
# number of rings (size 3 to 8) (size 9 to 14) (size 15 to 20)
#    0.000    2.154    1.538    0.923    6.462    2.462 
#    0.000    0.769   13.538    0.000    0.000    0.000 
#    0.000    0.000    0.000    0.000    0.000    0.000 
#
# Total GULP energy -145107.402930 kJ/mol
# GULP energy per Si atom -5581.053959 kJ/mol
# Density = 2.078746 g / cm^3
# Si number density = 20.834883 Si / 1000 Ang^3
#
#
#
# Elastic Constant Matrix: (Units=GPa)
#
#
# Indices 1 2 3 4 5 6 
#
# 1 25.8000 5.8782 21.3416 0.0000 -8.3807 0.0000
# 2 5.8782 74.1837 23.1613 0.0000 -11.7804 0.0000
# 3 21.3416 23.1613 87.4994 0.0000 -24.6792 0.0000
# 4 0.0000 0.0000 0.0000 20.8880 0.0000 4.0049
# 5 -8.3807 -11.7804 -24.6792 0.0000 25.1939 0.0000
# 6 0.0000 0.0000 0.0000 4.0049 0.0000 23.4884
#
#
#
# Elastic Compliance Matrix: (Units=1/GPa)
#
#
# Indices 1 2 3 4 5 6 
#
# 1 0.049296 0.000334 -0.010284 0.000000 0.006480 0.000000
# 2 0.000334 0.015030 -0.002828 0.000000 0.004369 0.000000
# 3 -0.010284 -0.002828 0.018443 0.000000 0.013323 0.000000
# 4 0.000000 0.000000 0.000000 0.049492 0.000000 -0.008439
# 5 0.006480 0.004369 0.013323 0.000000 0.056942 0.000000
# 6 0.000000 0.000000 0.000000 -0.008439 0.000000 0.044013
#
#
# Mechanical properties :
#
#
# Convention : Reuss Voigt Hill
#
# Bulk Modulus (GPa) = 17.47845 32.02725 24.75285
# Shear Modulus (GPa) = 17.99574 23.05420 20.52497
#
# Velocity S-wave (km/s) = 2.94212 3.33005 3.14208
# Velocity P-wave (km/s) = 4.46639 5.49463 5.00697
#
# Compressibility (1/GPa) = 0.05721330
#
# Stress axis : x y z
#
# Youngs Moduli (GPa) = 20.28578 66.53250 54.22006
#
# Poissons Ratio (x) = -0.02221 0.55761
# Poissons Ratio (y) = -0.00677 0.15331
# Poissons Ratio (z) = 0.20862 0.18813
#
# Static dielectric constant tensor:
#      x y z
#    x 1.767290 0.000000 -0.002200 
#    y 0.000000 1.748860 0.000000 
#    z -0.002200 0.000000 1.730500 
# 
# From -- ./inp_files/160436.got.cif
#   From: 2010.05.17/outbox.cif.g08.bks.cpg/sg15_81_cif.got.tgz:160436.got - 2010.06.03 18:47:42.
