data_PCOD9265376
_publ_section_title
;
Structure prediction by ZEFSAII (Michael W. Deem and Ramdas Pophale) SiO2 
 PCOD9265376
Probable space group: C 2/C
;
_chemical_formula_sum "Si O2"
_cell_formula_units_Z 64
_cell_length_a 19.079275
_cell_length_b 23.178781
_cell_length_c 15.677658
_cell_angle_alpha 90.000000
_cell_angle_beta 151.947460
_cell_angle_gamma 90.000000
_cell_volume 3260.551784
_symmetry_space_group_name_H-M "C 2/C"
_symmetry_group_IT_number 15
_symmetry_cell_setting 'monoclinic'
loop_
_space_group_symop_operation_xyz
x,y,z
-x,y,1/2-z
-x,-y,-z
x,-y,1/2+z
1/2+x,1/2+y,z
1/2-x,1/2+y,1/2-z
1/2-x,1/2-y,-z
1/2+x,1/2-y,1/2+z
loop_
_atom_site_type_symbol
_atom_site_label
_atom_site_fract_x
_atom_site_fract_y
_atom_site_fract_z
Si Si1 0.377418 0.500347 0.442720
Si Si2 0.631211 0.398217 0.441170
Si Si3 0.688030 0.921045 0.328074
Si Si4 0.647631 0.940356 0.584803
Si Si5 0.783414 0.829530 0.802501
Si Si6 0.268798 0.205109 0.597426
Si Si7 0.962562 0.761166 0.512129
Si Si8 0.167330 0.478452 0.943288
O O1 0.500000 0.500000 0.500000
O O2 0.428599 0.544965 0.570951
O O3 0.330074 0.436555 0.421692
O O4 0.217786 0.527047 0.241339
O O5 0.500000 0.366949 0.250000
O O6 0.706182 0.358686 0.593470
O O7 0.733126 0.424891 0.476557
O O8 0.705035 0.861359 0.396544
O O9 0.690221 0.972296 0.397636
O O10 0.527650 0.924894 0.108287
O O11 0.734995 0.879380 0.682646
O O12 0.682795 0.986163 0.547591
O O13 0.657630 0.780023 0.662873
O O14 0.943119 0.803658 0.946730
O O15 0.250000 0.250000 0.500000
O O16 0.128111 0.208283 0.509374
O O17 0.411608 0.223405 0.806013
O O18 0.000000 0.457988 0.750000
#
# Coordination Sequence:
#
# PCOD9265376 Si02
#       8
#     8   8   8   8   8   8   8   8
#     4  10  21  35  58  89 122 157 208 247 306 368
#     4  10  21  40  59  87 119 157 193 262 314 365
#     4  10  21  35  56  86 123 167 199 243 298 363
#     4  10  19  36  60  87 125 162 194 250 304 366
#     4  10  22  41  65  86 123 158 205 259 312 355
#     4  11  23  38  59  88 123 163 209 247 298 356
#     4  10  23  41  58  88 119 158 210 256 290 368
#     4   9  20  36  56  87 125 156 202 237 297 375
#
# _framework density 19.628579999999999
#
# number of rings (size 3 to 8) (size 9 to 14) (size 15 to 20)
#    0.000    2.000    1.250    1.500    7.000    2.000 
#    0.000    1.875    0.000    0.000    0.000    0.000 
#    0.000    0.000    0.000    0.000    0.000    0.000 
#
# Total GULP energy -178302.610663 kJ/mol
# GULP energy per Si atom -5571.956583 kJ/mol
# Density = 1.958390 g / cm^3
# Si number density = 19.628580 Si / 1000 Ang^3
#
#
#
# Elastic Constant Matrix: (Units=GPa)
#
#
# Indices 1 2 3 4 5 6 
#
# 1 68.2517 22.1078 41.2676 0.0000 11.2883 0.0000
# 2 22.1078 76.9138 31.9738 0.0000 7.1581 0.0000
# 3 41.2676 31.9738 77.8283 0.0000 -1.3913 0.0000
# 4 0.0000 0.0000 0.0000 20.2894 0.0000 -8.8735
# 5 11.2883 7.1581 -1.3913 0.0000 29.3022 0.0000
# 6 0.0000 0.0000 0.0000 -8.8735 0.0000 12.2900
#
#
#
# Elastic Compliance Matrix: (Units=1/GPa)
#
#
# Indices 1 2 3 4 5 6 
#
# 1 0.024174 -0.000775 -0.012673 0.000000 -0.009725 0.000000
# 2 -0.000775 0.016222 -0.006325 0.000000 -0.003965 0.000000
# 3 -0.012673 -0.006325 0.022301 0.000000 0.007486 0.000000
# 4 0.000000 0.000000 0.000000 0.072032 0.000000 0.052008
# 5 -0.009725 -0.003965 0.007486 0.000000 0.039198 0.000000
# 6 0.000000 0.000000 0.000000 0.052008 0.000000 0.118917
#
#
# Mechanical properties :
#
#
# Convention : Reuss Voigt Hill
#
# Bulk Modulus (GPa) = 43.19391 45.96580 44.57986
# Shear Modulus (GPa) = 14.70125 20.88597 17.79361
#
# Velocity S-wave (km/s) = 2.73970 3.26553 3.01411
# Velocity P-wave (km/s) = 5.66228 6.13896 5.90543
#
# Compressibility (1/GPa) = 0.02315141
#
# Stress axis : x y z
#
# Youngs Moduli (GPa) = 41.36680 61.64289 44.84129
#
# Poissons Ratio (x) = 0.04777 0.56829
# Poissons Ratio (y) = 0.03206 0.28360
# Poissons Ratio (z) = 0.52426 0.38987
#
# Static dielectric constant tensor:
#      x y z
#    x 1.789330 0.000000 0.043240 
#    y 0.000000 1.705970 0.000000 
#    z 0.043240 0.000000 1.745090 
# 
# From -- ./inp_files/164276.got.cif
#   From: 2010.05.17/outbox.cif.g08.bks.cpg/sg15_83_cif.got.tgz:164276.got - 2010.06.03 18:47:42.
