data_PCOD9265129
_publ_section_title
;
Structure prediction by ZEFSAII (Michael W. Deem and Ramdas Pophale) SiO2 
 PCOD9265129
Probable space group: C 2/C
;
_chemical_formula_sum "Si O2"
_cell_formula_units_Z 48
_cell_length_a 25.684254
_cell_length_b 16.747121
_cell_length_c 7.838857
_cell_angle_alpha 90.000000
_cell_angle_beta 44.666092
_cell_angle_gamma 90.000000
_cell_volume 2370.276834
_symmetry_space_group_name_H-M "C 2/C"
_symmetry_group_IT_number 15
_symmetry_cell_setting 'monoclinic'
loop_
_space_group_symop_operation_xyz
x,y,z
-x,y,1/2-z
-x,-y,-z
x,-y,1/2+z
1/2+x,1/2+y,z
1/2-x,1/2+y,1/2-z
1/2-x,1/2-y,-z
1/2+x,1/2-y,1/2+z
loop_
_atom_site_type_symbol
_atom_site_label
_atom_site_fract_x
_atom_site_fract_y
_atom_site_fract_z
Si Si1 0.481078 0.244521 0.983690
Si Si2 0.673924 0.216095 0.246042
Si Si3 0.360628 0.256478 0.778523
Si Si4 0.200772 0.447116 0.521584
Si Si5 0.537001 0.923190 0.838997
Si Si6 0.258408 0.116028 0.911005
O O1 0.500000 0.274346 0.750000
O O2 0.550693 0.268420 0.939733
O O3 0.392689 0.255548 0.212412
O O4 0.479340 0.148413 0.994078
O O5 0.656459 0.235885 0.482543
O O6 0.684150 0.120201 0.202875
O O7 0.750000 0.250000 0.000000
O O8 0.325909 0.180503 0.760753
O O9 0.311507 0.334515 0.853446
O O10 0.121573 0.447687 0.612240
O O11 0.223561 0.533876 0.533337
O O12 0.255234 0.410148 0.253068
O O13 0.500000 0.898328 0.750000
O O14 0.500000 0.000000 0.000000
#
# Coordination Sequence:
#
# PCOD9265129 Si02
#       6
#     8   8   8   8   8   8
#     4   9  19  33  54  78 104 140 178 221 270 328
#     4  10  19  36  58  83 109 139 183 230 281 331
#     4  10  20  37  56  82 111 149 187 223 276 328
#     4  11  21  34  53  82 111 149 184 229 278 334
#     4  11  20  30  48  75 113 142 173 217 275 337
#     4  11  22  35  56  78 117 149 187 227 273 333
#
# _framework density 20.250799000000001
#
# number of rings (size 3 to 8) (size 9 to 14) (size 15 to 20)
#    0.000    1.667    1.667    4.500    0.000    2.667 
#    0.000    0.000    0.000    1.000    0.000    0.000 
#    0.000    0.000    0.000    0.000    0.000    0.000 
#
# Total GULP energy -133789.651502 kJ/mol
# GULP energy per Si atom -5574.568813 kJ/mol
# Density = 2.020471 g / cm^3
# Si number density = 20.250799 Si / 1000 Ang^3
#
#
#
# Elastic Constant Matrix: (Units=GPa)
#
#
# Indices 1 2 3 4 5 6 
#
# 1 72.3037 34.0811 26.4793 0.0000 -25.9849 0.0000
# 2 34.0811 97.4606 25.3605 0.0000 -12.7682 0.0000
# 3 26.4793 25.3605 70.9134 0.0000 -24.1001 0.0000
# 4 0.0000 0.0000 0.0000 24.2385 0.0000 -3.9633
# 5 -25.9849 -12.7682 -24.1001 0.0000 46.3785 0.0000
# 6 0.0000 0.0000 0.0000 -3.9633 0.0000 27.4395
#
#
#
# Elastic Compliance Matrix: (Units=1/GPa)
#
#
# Indices 1 2 3 4 5 6 
#
# 1 0.020422 -0.005287 -0.002843 0.000000 0.008509 0.000000
# 2 -0.005287 0.012740 -0.002911 0.000000 -0.000967 0.000000
# 3 -0.002843 -0.002911 0.018692 0.000000 0.007319 0.000000
# 4 0.000000 0.000000 0.000000 0.042255 0.000000 0.006103
# 5 0.008509 -0.000967 0.007319 0.000000 0.029866 0.000000
# 6 0.000000 0.000000 0.000000 0.006103 0.000000 0.037325
#
#
# Mechanical properties :
#
#
# Convention : Reuss Voigt Hill
#
# Bulk Modulus (GPa) = 33.58849 45.83550 39.71200
# Shear Modulus (GPa) = 25.86595 29.92843 27.89719
#
# Velocity S-wave (km/s) = 3.57778 3.84850 3.71561
# Velocity P-wave (km/s) = 5.80428 6.51391 6.16931
#
# Compressibility (1/GPa) = 0.02977210
#
# Stress axis : x y z
#
# Youngs Moduli (GPa) = 48.96746 78.49301 53.50019
#
# Poissons Ratio (x) = 0.41497 0.15210
# Poissons Ratio (y) = 0.25888 0.15573
# Poissons Ratio (z) = 0.13922 0.22848
#
# Static dielectric constant tensor:
#      x y z
#    x 7.727170 0.000000 0.730490 
#    y 0.000000 1.690770 0.000000 
#    z 0.730490 0.000000 1.893210 
# 
# From -- ./inp_files/47932.got.cif
#   From: 2010.05.17/outbox.cif.g08.bks.cpg/sg15_24_cif.got.tgz:47932.got - 2010.06.03 18:47:42.
