data_PCOD9265478
_publ_section_title
;
Structure prediction by ZEFSAII (Michael W. Deem and Ramdas Pophale) SiO2 
 PCOD9265478
Probable space group: C 2/C
;
_chemical_formula_sum "Si O2"
_cell_formula_units_Z 44
_cell_length_a 14.023247
_cell_length_b 18.332030
_cell_length_c 8.140786
_cell_angle_alpha 90.000000
_cell_angle_beta 88.327980
_cell_angle_gamma 90.000000
_cell_volume 2091.898130
_symmetry_space_group_name_H-M "C 2/C"
_symmetry_group_IT_number 15
_symmetry_cell_setting 'monoclinic'
loop_
_space_group_symop_operation_xyz
x,y,z
-x,y,1/2-z
-x,-y,-z
x,-y,1/2+z
1/2+x,1/2+y,z
1/2-x,1/2+y,1/2-z
1/2-x,1/2-y,-z
1/2+x,1/2-y,1/2+z
loop_
_atom_site_type_symbol
_atom_site_label
_atom_site_fract_x
_atom_site_fract_y
_atom_site_fract_z
Si Si1 0.718537 0.173569 0.920696
Si Si2 0.198745 0.907854 0.634128
Si Si3 0.666104 0.704223 0.876875
Si Si4 0.634490 0.451238 0.975701
Si Si5 0.108597 0.640548 0.229555
Si Si6 0.500000 0.601866 0.750000
O O1 0.735416 0.186774 0.727164
O O2 0.750000 0.250000 0.000000
O O3 0.791274 0.108872 0.959996
O O4 0.626317 0.154495 0.033443
O O5 0.180414 0.827865 0.558600
O O6 0.127810 0.929008 0.786115
O O7 0.305760 0.909862 0.704386
O O8 0.181096 0.969424 0.497997
O O9 0.627854 0.784311 0.830797
O O10 0.583486 0.653037 0.810086
O O11 0.542113 0.442277 0.094482
O O12 0.000000 0.615678 0.250000
#
# Coordination Sequence:
#
# PCOD9265478 Si02
#       6
#     8   8   8   8   8   4
#     4   8  17  34  59  83 116 156 191 243 304 348
#     4  11  23  38  59  86 126 165 196 245 306 362
#     4  10  19  36  61  88 121 156 198 249 305 358
#     4  10  21  36  56  90 123 159 197 241 306 362
#     4  10  20  39  63  88 116 159 208 247 292 355
#     4  10  20  36  64  90 124 156 196 256 302 368
#
# _framework density 21.033529000000001
#
# number of rings (size 3 to 8) (size 9 to 14) (size 15 to 20)
#    0.000    2.182    0.909    2.727    0.000    3.636 
#    0.000    4.545    4.000    0.000    0.000    0.000 
#    0.000    0.000    0.000    0.000    0.000    0.000 
#
# Total GULP energy -122544.013106 kJ/mol
# GULP energy per Si atom -5570.182414 kJ/mol
# Density = 2.098566 g / cm^3
# Si number density = 21.033529 Si / 1000 Ang^3
#
#
#
# Elastic Constant Matrix: (Units=GPa)
#
#
# Indices 1 2 3 4 5 6 
#
# 1 98.4990 4.7975 34.6923 0.0000 -19.3345 0.0000
# 2 4.7975 80.2676 21.4284 0.0000 0.8650 0.0000
# 3 34.6923 21.4284 117.3783 0.0000 -20.7729 0.0000
# 4 0.0000 0.0000 0.0000 35.8984 0.0000 10.5880
# 5 -19.3345 0.8650 -20.7729 0.0000 37.8594 0.0000
# 6 0.0000 0.0000 0.0000 10.5880 0.0000 28.1726
#
#
#
# Elastic Compliance Matrix: (Units=1/GPa)
#
#
# Indices 1 2 3 4 5 6 
#
# 1 0.012026 -0.000042 -0.002724 0.000000 0.004648 0.000000
# 2 -0.000042 0.013206 -0.002720 0.000000 -0.001815 0.000000
# 3 -0.002724 -0.002720 0.010617 0.000000 0.004496 0.000000
# 4 0.000000 0.000000 0.000000 0.031329 0.000000 -0.011774
# 5 0.004648 -0.001815 0.004496 0.000000 0.031296 0.000000
# 6 0.000000 0.000000 0.000000 -0.011774 0.000000 0.039921
#
#
# Mechanical properties :
#
#
# Convention : Reuss Voigt Hill
#
# Bulk Modulus (GPa) = 40.19619 46.44235 43.31927
# Shear Modulus (GPa) = 31.71390 36.06785 33.89087
#
# Velocity S-wave (km/s) = 3.88722 4.14548 4.01843
# Velocity P-wave (km/s) = 6.26892 6.71129 6.49387
#
# Compressibility (1/GPa) = 0.02487798
#
# Stress axis : x y z
#
# Youngs Moduli (GPa) = 83.15114 75.72032 94.18921
#
# Poissons Ratio (x) = 0.00315 0.25660
# Poissons Ratio (y) = 0.00346 0.25619
# Poissons Ratio (z) = 0.22653 0.20595
#
# Static dielectric constant tensor:
#      x y z
#    x 1.760670 0.000000 0.000370 
#    y 0.000000 1.785750 0.000000 
#    z 0.000370 0.000000 1.851240 
# 
# From -- ./inp_files/39161.got.cif
#   From: 2010.05.17/outbox.cif.g08.bks.cpg/sg15_20_cif.got.tgz:39161.got - 2010.06.03 18:47:42.
