data_PCOD9265474
_publ_section_title
;
Structure prediction by ZEFSAII (Michael W. Deem and Ramdas Pophale) SiO2 
 PCOD9265474
Probable space group: C 2/C
;
_chemical_formula_sum "Si O2"
_cell_formula_units_Z 56
_cell_length_a 9.236064
_cell_length_b 23.300164
_cell_length_c 30.065563
_cell_angle_alpha 90.000000
_cell_angle_beta 151.824071
_cell_angle_gamma 90.000000
_cell_volume 3055.084830
_symmetry_space_group_name_H-M "C 2/C"
_symmetry_group_IT_number 15
_symmetry_cell_setting 'monoclinic'
loop_
_space_group_symop_operation_xyz
x,y,z
-x,y,1/2-z
-x,-y,-z
x,-y,1/2+z
1/2+x,1/2+y,z
1/2-x,1/2+y,1/2-z
1/2-x,1/2-y,-z
1/2+x,1/2-y,1/2+z
loop_
_atom_site_type_symbol
_atom_site_label
_atom_site_fract_x
_atom_site_fract_y
_atom_site_fract_z
Si Si1 0.117141 0.563888 0.392994
Si Si2 0.221095 0.887050 0.708520
Si Si3 0.328132 0.070295 0.573424
Si Si4 0.576949 0.063906 0.002811
Si Si5 0.337872 0.142990 0.011384
Si Si6 0.082777 0.784367 0.823631
Si Si7 0.379850 0.847314 0.168589
O O1 0.460827 0.581898 0.470915
O O2 0.129561 0.495852 0.401827
O O3 0.055512 0.597363 0.422145
O O4 0.860624 0.580370 0.288490
O O5 0.500000 0.881369 0.750000
O O6 0.931252 0.921170 0.610286
O O7 0.103460 0.825699 0.694063
O O8 0.465272 0.073830 0.561165
O O9 0.449761 0.110605 0.646230
O O10 0.376261 0.109610 0.975626
O O11 0.500000 0.000000 0.000000
O O12 0.563046 0.197264 0.073886
O O13 0.987421 0.156482 0.925949
O O14 0.013555 0.717551 0.812055
O O15 0.000000 0.797254 0.750000
O O16 0.500000 0.866063 0.250000
#
# Coordination Sequence:
#
# PCOD9265474 Si02
#       7
#     8   8   8   8   8   8   8
#     4  10  19  36  61  88 117 163 193 252 296 367
#     4  11  22  37  62  92 117 153 206 255 309 351
#     4  10  21  38  58  87 127 157 198 240 313 369
#     4  11  22  37  58  93 127 155 197 254 301 371
#     4  10  20  37  62  87 122 152 206 249 307 351
#     4  10  20  38  63  89 116 154 211 255 294 362
#     4  10  23  41  60  85 120 168 204 243 301 375
#
# _framework density 18.330096999999999
#
# number of rings (size 3 to 8) (size 9 to 14) (size 15 to 20)
#    0.000    1.714    4.286    0.429    0.000    1.714 
#    0.000    7.857    0.000    0.000    0.000    0.000 
#    0.000    0.000    0.000    0.000    0.000    0.000 
#
# Total GULP energy -156221.728018 kJ/mol
# GULP energy per Si atom -5579.347429 kJ/mol
# Density = 1.828838 g / cm^3
# Si number density = 18.330097 Si / 1000 Ang^3
#
#
#
# Elastic Constant Matrix: (Units=GPa)
#
#
# Indices 1 2 3 4 5 6 
#
# 1 118.9790 43.9660 24.1943 0.0007 -19.8560 -0.0011
# 2 43.9660 76.9316 27.8716 -0.0026 -18.1417 -0.0010
# 3 24.1943 27.8716 62.2495 -0.0048 -16.3898 -0.0007
# 4 0.0007 -0.0026 -0.0048 20.9816 0.0010 0.2693
# 5 -19.8560 -18.1417 -16.3898 0.0010 31.4028 0.0010
# 6 -0.0011 -0.0010 -0.0007 0.2693 0.0010 12.3613
#
#
#
# Elastic Compliance Matrix: (Units=1/GPa)
#
#
# Indices 1 2 3 4 5 6 
#
# 1 0.011105 -0.005124 -0.001104 -0.000001 0.003485 0.000000
# 2 -0.005124 0.018992 -0.005189 0.000001 0.005023 0.000000
# 3 -0.001104 -0.005189 0.020686 0.000004 0.007101 0.000000
# 4 -0.000001 0.000001 0.000004 0.047674 0.000000 -0.001039
# 5 0.003485 0.005023 0.007101 0.000000 0.040656 -0.000002
# 6 0.000000 0.000000 0.000000 -0.001039 -0.000002 0.080920
#
#
# Mechanical properties :
#
#
# Convention : Reuss Voigt Hill
#
# Bulk Modulus (GPa) = 35.78131 50.02487 42.90309
# Shear Modulus (GPa) = 19.82685 23.75770 21.79228
#
# Velocity S-wave (km/s) = 3.29242 3.60405 3.45175
# Velocity P-wave (km/s) = 5.83235 6.68351 6.27238
#
# Compressibility (1/GPa) = 0.02794755
#
# Stress axis : x y z
#
# Youngs Moduli (GPa) = 90.05333 52.65472 48.34089
#
# Poissons Ratio (x) = 0.26983 0.05337
# Poissons Ratio (y) = 0.46147 0.25084
# Poissons Ratio (z) = 0.09942 0.27323
#
# Static dielectric constant tensor:
#      x y z
#    x 1.634460 0.000000 0.001060 
#    y 0.000000 1.608680 0.000000 
#    z 0.001060 0.000000 1.631420 
# 
# From -- ./inp_files/137445.got.cif
#   From: 2010.05.17/outbox.cif.g08.bks.cpg/sg15_69_cif.got.tgz:137445.got - 2010.06.03 18:47:42.
