data_PCOD9265660
_publ_section_title
;
Structure prediction by ZEFSAII (Michael W. Deem and Ramdas Pophale) SiO2 
 PCOD9265660
Probable space group: C 2/C
;
_chemical_formula_sum "Si O2"
_cell_formula_units_Z 40
_cell_length_a 13.052218
_cell_length_b 14.199378
_cell_length_c 8.777704
_cell_angle_alpha 90.000000
_cell_angle_beta 95.854174
_cell_angle_gamma 90.000000
_cell_volume 1618.317290
_symmetry_space_group_name_H-M "C 2/C"
_symmetry_group_IT_number 15
_symmetry_cell_setting 'monoclinic'
loop_
_space_group_symop_operation_xyz
x,y,z
-x,y,1/2-z
-x,-y,-z
x,-y,1/2+z
1/2+x,1/2+y,z
1/2-x,1/2+y,1/2-z
1/2-x,1/2-y,-z
1/2+x,1/2-y,1/2+z
loop_
_atom_site_type_symbol
_atom_site_label
_atom_site_fract_x
_atom_site_fract_y
_atom_site_fract_z
Si Si1 0.500000 0.100832 0.750000
Si Si2 0.361557 0.579679 0.472249
Si Si3 0.290925 0.091438 0.571137
Si Si4 0.500000 0.521417 0.750000
Si Si5 0.847616 0.740438 0.330410
Si Si6 0.428689 0.767206 0.511111
O O1 0.399561 0.057134 0.656777
O O2 0.550951 0.158750 0.618220
O O3 0.274034 0.502515 0.462800
O O4 0.415949 0.579649 0.645425
O O5 0.442420 0.542538 0.361812
O O6 0.350660 0.688634 0.434004
O O7 0.230695 0.171157 0.662970
O O8 0.306670 0.149809 0.417338
O O9 0.881626 0.707496 0.167685
O O10 0.954296 0.769039 0.434446
#
# Coordination Sequence:
#
# PCOD9265660 Si02
#       6
#     4   8   8   4   8   8
#     4  10  23  40  60  90 133 174 208 252 313 380
#     4  11  20  35  61  96 127 159 207 266 317 371
#     4  10  21  37  58  90 131 169 209 257 312 375
#     4  10  21  34  58  96 133 152 192 266 333 366
#     4   9  19  37  59  87 125 162 203 262 327 378
#     4  10  19  36  63  91 121 160 209 263 322 378
#
# _framework density 24.717032
#
# number of rings (size 3 to 8) (size 9 to 14) (size 15 to 20)
#    0.000    2.000    0.000    5.400    0.000    4.000 
#    0.000    4.000    0.000    4.800    0.000    9.800 
#    0.000   14.400    0.000    0.000    0.000    0.000 
#
# Total GULP energy -111820.371249 kJ/mol
# GULP energy per Si atom -5591.018562 kJ/mol
# Density = 2.466077 g / cm^3
# Si number density = 24.717032 Si / 1000 Ang^3
#
#
#
# Elastic Constant Matrix: (Units=GPa)
#
#
# Indices 1 2 3 4 5 6 
#
# 1 150.3229 55.1584 43.4053 0.0000 5.1169 0.0000
# 2 55.1584 75.5256 24.4483 0.0000 -7.2206 0.0000
# 3 43.4053 24.4483 103.5407 0.0000 -31.4609 0.0000
# 4 0.0000 0.0000 0.0000 18.9978 0.0000 -39.4043
# 5 5.1169 -7.2206 -31.4609 0.0000 44.3129 0.0000
# 6 0.0000 0.0000 0.0000 -39.4043 0.0000 92.1336
#
#
#
# Elastic Compliance Matrix: (Units=1/GPa)
#
#
# Indices 1 2 3 4 5 6 
#
# 1 0.010671 -0.006854 -0.004551 0.000000 -0.005580 0.000000
# 2 -0.006854 0.018739 -0.000489 0.000000 0.003498 0.000000
# 3 -0.004551 -0.000489 0.015067 0.000000 0.011143 0.000000
# 4 0.000000 0.000000 0.000000 0.466177 0.000000 0.199377
# 5 -0.005580 0.003498 0.011143 0.000000 0.031692 0.000000
# 6 0.000000 0.000000 0.000000 0.199377 0.000000 0.096125
#
#
# Mechanical properties :
#
#
# Convention : Reuss Voigt Hill
#
# Bulk Modulus (GPa) = 48.33081 63.93481 56.13281
# Shear Modulus (GPa) = 7.47213 44.84732 26.15973
#
# Velocity S-wave (km/s) = 1.74058 4.26423 3.25679
# Velocity P-wave (km/s) = 4.86165 7.08292 6.07468
#
# Compressibility (1/GPa) = 0.02069074
#
# Stress axis : x y z
#
# Youngs Moduli (GPa) = 93.71089 53.36565 66.37111
#
# Poissons Ratio (x) = 0.36576 0.30202
# Poissons Ratio (y) = 0.64228 0.03243
# Poissons Ratio (z) = 0.42643 0.02607
#
# Static dielectric constant tensor:
#      x y z
#    x 1.992140 0.000000 0.036520 
#    y 0.000000 1.955420 0.000000 
#    z 0.036520 0.000000 1.988970 
# 
# From -- ./inp_files/38740.got.cif
#   From: 2010.05.17/outbox.cif.g08.bks.cpg/sg15_20_cif.got.tgz:38740.got - 2010.06.03 18:47:42.
