data_PCOD9265178
_publ_section_title
;
Structure prediction by ZEFSAII (Michael W. Deem and Ramdas Pophale) SiO2 
 PCOD9265178
Probable space group: C 2/C
;
_chemical_formula_sum "Si O2"
_cell_formula_units_Z 56
_cell_length_a 17.163758
_cell_length_b 10.688079
_cell_length_c 21.867651
_cell_angle_alpha 90.000000
_cell_angle_beta 39.325108
_cell_angle_gamma 90.000000
_cell_volume 2542.210639
_symmetry_space_group_name_H-M "C 2/C"
_symmetry_group_IT_number 15
_symmetry_cell_setting 'monoclinic'
loop_
_space_group_symop_operation_xyz
x,y,z
-x,y,1/2-z
-x,-y,-z
x,-y,1/2+z
1/2+x,1/2+y,z
1/2-x,1/2+y,1/2-z
1/2-x,1/2-y,-z
1/2+x,1/2-y,1/2+z
loop_
_atom_site_type_symbol
_atom_site_label
_atom_site_fract_x
_atom_site_fract_y
_atom_site_fract_z
Si Si1 0.713641 0.280908 0.224741
Si Si2 0.569525 0.723392 0.601755
Si Si3 0.569118 0.705612 0.341349
Si Si4 0.736015 0.676259 0.841411
Si Si5 0.913312 0.996411 0.993471
Si Si6 0.255834 0.901702 0.070217
Si Si7 0.420438 0.894511 0.512699
O O1 0.572387 0.244605 0.303124
O O2 0.811383 0.177997 0.188031
O O3 0.719055 0.370751 0.281661
O O4 0.761697 0.341791 0.133992
O O5 0.594100 0.633336 0.528947
O O6 0.649203 0.844314 0.536875
O O7 0.625292 0.641984 0.623171
O O8 0.632907 0.752927 0.240516
O O9 0.477288 0.590702 0.402950
O O10 0.502787 0.823857 0.412917
O O11 0.709585 0.572293 0.908011
O O12 0.632146 0.783690 0.912948
O O13 0.000000 0.000000 0.000000
O O14 0.301973 0.041602 0.053191
O O15 0.500000 0.000000 0.500000
#
# Coordination Sequence:
#
# PCOD9265178 Si02
#       7
#     8   8   8   8   8   8   8
#     4  10  19  36  58  88 119 150 192 252 291 348
#     4  11  24  41  59  86 125 164 199 241 302 366
#     4   9  21  34  57  91 115 149 197 248 303 342
#     4   9  21  34  57  91 115 149 197 248 303 342
#     4  11  19  36  61  86 118 156 199 250 300 343
#     4  11  24  41  59  86 125 164 199 241 302 366
#     4  11  19  36  61  86 118 156 199 250 300 343
#
# _framework density 22.028071000000001
#
# number of rings (size 3 to 8) (size 9 to 14) (size 15 to 20)
#    0.857    0.857    2.857    2.143    2.000    1.143 
#    2.571    2.857    0.000    1.714    0.000    0.000 
#    0.000    0.000    0.000    0.000    0.000    0.000 
#
# Total GULP energy -156039.884468 kJ/mol
# GULP energy per Si atom -5572.853017 kJ/mol
# Density = 2.197793 g / cm^3
# Si number density = 22.028071 Si / 1000 Ang^3
#
#
#
# Elastic Constant Matrix: (Units=GPa)
#
#
# Indices 1 2 3 4 5 6 
#
# 1 43.2645 -1.5999 -9.0233 0.0000 3.5050 0.0000
# 2 -1.5999 54.9507 10.0634 0.0000 6.0554 0.0000
# 3 -9.0233 10.0634 113.5845 0.0000 -5.3399 0.0000
# 4 0.0000 0.0000 0.0000 7.4648 0.0000 -0.9689
# 5 3.5050 6.0554 -5.3399 0.0000 21.6848 0.0000
# 6 0.0000 0.0000 0.0000 -0.9689 0.0000 17.9764
#
#
#
# Elastic Compliance Matrix: (Units=1/GPa)
#
#
# Indices 1 2 3 4 5 6 
#
# 1 0.023783 0.000794 0.001647 0.000000 -0.003660 0.000000
# 2 0.000794 0.019231 -0.001922 0.000000 -0.005972 0.000000
# 3 0.001647 -0.001922 0.009225 0.000000 0.002542 0.000000
# 4 0.000000 0.000000 0.000000 0.134905 0.000000 0.007271
# 5 -0.003660 -0.005972 0.002542 0.000000 0.049001 0.000000
# 6 0.000000 0.000000 0.000000 0.007271 0.000000 0.056021
#
#
# Mechanical properties :
#
#
# Convention : Reuss Voigt Hill
#
# Bulk Modulus (GPa) = 18.76949 23.40893 21.08921
# Shear Modulus (GPa) = 16.18723 23.58248 19.88485
#
# Velocity S-wave (km/s) = 2.71374 3.27550 3.00776
# Velocity P-wave (km/s) = 4.28467 4.99551 4.65368
#
# Compressibility (1/GPa) = 0.05327794
#
# Stress axis : x y z
#
# Youngs Moduli (GPa) = 42.04686 51.99873 108.40578
#
# Poissons Ratio (x) = -0.04130 -0.17853
# Poissons Ratio (y) = -0.03339 0.20830
# Poissons Ratio (z) = -0.06925 0.09992
#
# Static dielectric constant tensor:
#      x y z
#    x 1.863690 0.000000 -0.023280 
#    y 0.000000 1.838110 0.000000 
#    z -0.023280 0.000000 1.855760 
# 
# From -- ./inp_files/277043.got.cif
#   From: 2010.05.17/outbox.cif.g08.bks.cpg/sg15_139_cif.got.tgz:277043.got - 2010.06.03 18:47:42.
