data_PCOD9265179
_publ_section_title
;
Structure prediction by ZEFSAII (Michael W. Deem and Ramdas Pophale) SiO2 
 PCOD9265179
Probable space group: C 2/C
;
_chemical_formula_sum "Si O2"
_cell_formula_units_Z 48
_cell_length_a 8.043332
_cell_length_b 26.140084
_cell_length_c 15.219687
_cell_angle_alpha 90.000000
_cell_angle_beta 140.285727
_cell_angle_gamma 90.000000
_cell_volume 2044.664242
_symmetry_space_group_name_H-M "C 2/C"
_symmetry_group_IT_number 15
_symmetry_cell_setting 'monoclinic'
loop_
_space_group_symop_operation_xyz
x,y,z
-x,y,1/2-z
-x,-y,-z
x,-y,1/2+z
1/2+x,1/2+y,z
1/2-x,1/2+y,1/2-z
1/2-x,1/2-y,-z
1/2+x,1/2-y,1/2+z
loop_
_atom_site_type_symbol
_atom_site_label
_atom_site_fract_x
_atom_site_fract_y
_atom_site_fract_z
Si Si1 0.944715 0.627916 0.357884
Si Si2 0.559023 0.516355 0.624644
Si Si3 0.000000 0.946156 0.750000
Si Si4 0.963131 0.308806 0.439625
Si Si5 0.974149 0.189981 0.422523
Si Si6 0.777053 0.870947 0.316287
Si Si7 0.500000 0.048048 0.250000
O O1 0.733608 0.591283 0.318745
O O2 0.768434 0.664270 0.224727
O O3 0.079593 0.662168 0.486192
O O4 0.111970 0.588741 0.366043
O O5 0.500000 0.500000 0.500000
O O6 0.403095 0.483315 0.632083
O O7 0.589270 0.575751 0.654543
O O8 0.840432 0.489877 0.745999
O O9 0.795464 0.336137 0.296178
O O10 0.910723 0.248510 0.419601
O O11 0.270603 0.312528 0.537226
O O12 0.062943 0.160611 0.546173
O O13 0.500000 0.884240 0.250000
#
# Coordination Sequence:
#
# PCOD9265179 Si02
#       7
#     8   8   4   8   8   8   4
#     4  11  20  39  61  87 120 160 204 252 304 370
#     4  11  23  40  61  86 124 165 201 253 308 367
#     4  10  22  36  60  84 112 158 206 242 300 364
#     4  10  20  33  60  90 117 150 203 255 296 362
#     4  10  19  36  58  88 120 155 194 249 314 356
#     4  10  20  34  55  87 121 150 192 248 301 357
#     4  10  24  38  58  86 118 162 206 244 306 368
#
# _framework density 23.475736000000001
#
# number of rings (size 3 to 8) (size 9 to 14) (size 15 to 20)
#    0.000    1.667    2.500    3.000    2.333    4.000 
#    0.000    4.167    0.000    2.000    0.000    0.000 
#    0.000    0.000    0.000    0.000    0.000    0.000 
#
# Total GULP energy -134117.940653 kJ/mol
# GULP energy per Si atom -5588.247527 kJ/mol
# Density = 2.342230 g / cm^3
# Si number density = 23.475736 Si / 1000 Ang^3
#
#
#
# Elastic Constant Matrix: (Units=GPa)
#
#
# Indices 1 2 3 4 5 6 
#
# 1 45.4218 33.9710 5.9356 0.0000 -11.3368 0.0000
# 2 33.9710 204.5530 58.1869 0.0000 -17.5120 0.0000
# 3 5.9356 58.1869 111.6517 0.0000 -23.6244 0.0000
# 4 0.0000 0.0000 0.0000 37.4520 0.0000 -7.8775
# 5 -11.3368 -17.5120 -23.6244 0.0000 30.5703 0.0000
# 6 0.0000 0.0000 0.0000 -7.8775 0.0000 31.3687
#
#
#
# Elastic Compliance Matrix: (Units=1/GPa)
#
#
# Indices 1 2 3 4 5 6 
#
# 1 0.027523 -0.004582 0.003023 0.000000 0.009918 0.000000
# 2 -0.004582 0.006537 -0.003264 0.000000 -0.000477 0.000000
# 3 0.003023 -0.003264 0.012359 0.000000 0.008802 0.000000
# 4 0.000000 0.000000 0.000000 0.028190 0.000000 0.007079
# 5 0.009918 -0.000477 0.008802 0.000000 0.042919 0.000000
# 6 0.000000 0.000000 0.000000 0.007079 0.000000 0.033657
#
#
# Mechanical properties :
#
#
# Convention : Reuss Voigt Hill
#
# Bulk Modulus (GPa) = 27.19295 61.97928 44.58612
# Shear Modulus (GPa) = 28.88693 37.44707 33.16700
#
# Velocity S-wave (km/s) = 3.51166 3.99825 3.76283
# Velocity P-wave (km/s) = 5.29631 6.91183 6.15728
#
# Compressibility (1/GPa) = 0.03677423
#
# Stress axis : x y z
#
# Youngs Moduli (GPa) = 36.33327 152.96756 80.91041
#
# Poissons Ratio (x) = 0.70085 -0.24461
# Poissons Ratio (y) = 0.16647 0.26411
# Poissons Ratio (z) = -0.10984 0.49932
#
# Static dielectric constant tensor:
#      x y z
#    x 2.036430 0.000000 0.074600 
#    y 0.000000 1.844170 0.000000 
#    z 0.074600 0.000000 1.982010 
# 
# From -- ./inp_files/139085.got.cif
#   From: 2010.05.17/outbox.cif.g08.bks.cpg/sg15_70_cif.got.tgz:139085.got - 2010.06.03 18:47:42.
