data_PCOD9265924
_publ_section_title
;
Structure prediction by ZEFSAII (Michael W. Deem and Ramdas Pophale) SiO2 
 PCOD9265924
Probable space group: C 2/C
;
_chemical_formula_sum "Si O2"
_cell_formula_units_Z 40
_cell_length_a 20.612711
_cell_length_b 13.954862
_cell_length_c 12.713681
_cell_angle_alpha 90.000000
_cell_angle_beta 153.867196
_cell_angle_gamma 90.000000
_cell_volume 1610.763545
_symmetry_space_group_name_H-M "C 2/C"
_symmetry_group_IT_number 15
_symmetry_cell_setting 'monoclinic'
loop_
_space_group_symop_operation_xyz
x,y,z
-x,y,1/2-z
-x,-y,-z
x,-y,1/2+z
1/2+x,1/2+y,z
1/2-x,1/2+y,1/2-z
1/2-x,1/2-y,-z
1/2+x,1/2-y,1/2+z
loop_
_atom_site_type_symbol
_atom_site_label
_atom_site_fract_x
_atom_site_fract_y
_atom_site_fract_z
Si Si1 0.624433 0.906022 0.287599
Si Si2 0.383293 0.418486 0.364217
Si Si3 0.215447 0.407433 0.661494
Si Si4 0.933165 0.243145 0.430903
Si Si5 0.881504 0.610018 0.168955
O O1 0.702249 0.900348 0.514223
O O2 0.669936 0.822696 0.274514
O O3 0.635513 0.018659 0.279714
O O4 0.449522 0.887762 0.043905
O O5 0.500000 0.500000 0.500000
O O6 0.275935 0.486130 0.276915
O O7 0.482261 0.325362 0.530035
O O8 0.274363 0.380292 0.114631
O O9 0.334320 0.326014 0.860623
O O10 0.048758 0.301216 0.670004
O O11 0.000000 0.583068 0.250000
#
# Coordination Sequence:
#
# PCOD9265924 Si02
#       5
#     8   8   8   8   8
#     4  10  19  37  58  79 115 149 188 227 286 337
#     4   9  19  38  57  77 114 148 180 228 291 336
#     4   9  19  37  57  81 115 149 178 233 288 335
#     4  11  22  32  61  89 104 146 200 231 274 342
#     4  11  21  38  56  81 117 149 185 235 289 336
#
# _framework density 24.832943
#
# number of rings (size 3 to 8) (size 9 to 14) (size 15 to 20)
#    0.000    2.000    4.000    1.800    2.800    0.000 
#    0.000    0.000    0.000    0.000    5.200    0.000 
#    0.000    0.000    0.000    0.000    0.000    0.000 
#
# Total GULP energy -111609.886466 kJ/mol
# GULP energy per Si atom -5580.494323 kJ/mol
# Density = 2.477642 g / cm^3
# Si number density = 24.832943 Si / 1000 Ang^3
#
#
#
# Elastic Constant Matrix: (Units=GPa)
#
#
# Indices 1 2 3 4 5 6 
#
# 1 43.6757 11.4326 10.4363 0.0000 -3.8255 0.0000
# 2 11.4326 155.8216 22.1505 0.0000 -1.3011 0.0000
# 3 10.4363 22.1505 101.3662 0.0000 8.0307 0.0000
# 4 0.0000 0.0000 0.0000 49.3612 0.0000 6.3069
# 5 -3.8255 -1.3011 8.0307 0.0000 23.1213 0.0000
# 6 0.0000 0.0000 0.0000 6.3069 0.0000 23.7992
#
#
#
# Elastic Compliance Matrix: (Units=1/GPa)
#
#
# Indices 1 2 3 4 5 6 
#
# 1 0.024297 -0.001375 -0.002585 0.000000 0.004840 0.000000
# 2 -0.001375 0.006719 -0.001377 0.000000 0.000629 0.000000
# 3 -0.002585 -0.001377 0.010768 0.000000 -0.004245 0.000000
# 4 0.000000 0.000000 0.000000 0.020969 0.000000 -0.005557
# 5 0.004840 0.000629 -0.004245 0.000000 0.045561 0.000000
# 6 0.000000 0.000000 0.000000 -0.005557 0.000000 0.043491
#
#
# Mechanical properties :
#
#
# Convention : Reuss Voigt Hill
#
# Bulk Modulus (GPa) = 32.14071 43.21135 37.67603
# Shear Modulus (GPa) = 28.92698 36.37929 32.65313
#
# Velocity S-wave (km/s) = 3.41671 3.83163 3.63011
# Velocity P-wave (km/s) = 5.34192 6.08390 5.72494
#
# Compressibility (1/GPa) = 0.03111319
#
# Stress axis : x y z
#
# Youngs Moduli (GPa) = 41.15657 148.82266 92.86381
#
# Poissons Ratio (x) = 0.20461 0.24002
# Poissons Ratio (y) = 0.05659 0.12783
# Poissons Ratio (z) = 0.10637 0.20487
#
# Static dielectric constant tensor:
#      x y z
#    x 2.042050 0.000000 0.001790 
#    y 0.000000 2.060160 0.000000 
#    z 0.001790 0.000000 1.941430 
# 
# From -- ./inp_files/118872.got.cif
#   From: 2010.05.17/outbox.cif.g08.bks.cpg/sg15_60_cif.got.tgz:118872.got - 2010.06.03 18:47:42.
