data_PCOD9265636
_publ_section_title
;
Structure prediction by ZEFSAII (Michael W. Deem and Ramdas Pophale) SiO2 
 PCOD9265636
Probable space group: C 2/C
;
_chemical_formula_sum "Si O2"
_cell_formula_units_Z 44
_cell_length_a 8.577229
_cell_length_b 27.269460
_cell_length_c 9.919097
_cell_angle_alpha 90.000000
_cell_angle_beta 134.901691
_cell_angle_gamma 90.000000
_cell_volume 1643.329210
_symmetry_space_group_name_H-M "C 2/C"
_symmetry_group_IT_number 15
_symmetry_cell_setting 'monoclinic'
loop_
_space_group_symop_operation_xyz
x,y,z
-x,y,1/2-z
-x,-y,-z
x,-y,1/2+z
1/2+x,1/2+y,z
1/2-x,1/2+y,1/2-z
1/2-x,1/2-y,-z
1/2+x,1/2-y,1/2+z
loop_
_atom_site_type_symbol
_atom_site_label
_atom_site_fract_x
_atom_site_fract_y
_atom_site_fract_z
Si Si1 0.000000 0.779431 0.250000
Si Si2 0.853158 0.909135 0.478345
Si Si3 0.573820 0.185219 0.456770
Si Si4 0.693060 0.398387 0.483725
Si Si5 0.291782 0.808678 0.027815
Si Si6 0.508467 0.943262 0.467661
O O1 0.960743 0.740862 0.107361
O O2 0.202504 0.810695 0.317777
O O3 0.871414 0.850684 0.518649
O O4 0.747645 0.931766 0.549483
O O5 0.667957 0.924813 0.253500
O O6 0.082314 0.923284 0.545380
O O7 0.704449 0.155461 0.418819
O O8 0.374501 0.172925 0.431266
O O9 0.500000 0.400240 0.250000
O O10 0.910469 0.418590 0.542678
O O11 0.500000 0.814890 0.250000
O O12 0.250000 0.750000 0.000000
O O13 0.500000 0.000000 0.500000
#
# Coordination Sequence:
#
# PCOD9265636 Si02
#       6
#     4   8   8   8   8   8
#     4  10  24  32  58  88 130 170 232 266 310 396
#     4  10  21  40  62  96 128 166 218 273 330 398
#     4  11  21  39  57  91 128 179 221 272 327 385
#     4  10  19  36  63  88 123 164 210 266 337 388
#     4  12  23  38  65  97 136 185 225 270 331 400
#     4  10  20  38  66  91 122 166 213 269 342 397
#
# _framework density 26.774916000000001
#
# number of rings (size 3 to 8) (size 9 to 14) (size 15 to 20)
#    0.000    1.455    4.545    2.182    5.091    0.727 
#    0.000    1.818    0.000    3.273    0.000    0.000 
#    0.000    0.000    0.000    0.000    0.000    0.000 
#
# Total GULP energy -122522.944329 kJ/mol
# GULP energy per Si atom -5569.224742 kJ/mol
# Density = 2.671397 g / cm^3
# Si number density = 26.774916 Si / 1000 Ang^3
#
#
#
# Elastic Constant Matrix: (Units=GPa)
#
#
# Indices 1 2 3 4 5 6 
#
# 1 260.5847 54.4817 29.2254 0.0000 -6.4704 0.0000
# 2 54.4817 100.1483 -17.5209 0.0000 -12.0071 0.0000
# 3 29.2254 -17.5209 60.3664 0.0000 -3.2759 0.0000
# 4 0.0000 0.0000 0.0000 14.5666 0.0000 -8.4873
# 5 -6.4704 -12.0071 -3.2759 0.0000 38.6380 0.0000
# 6 0.0000 0.0000 0.0000 -8.4873 0.0000 43.5136
#
#
#
# Elastic Compliance Matrix: (Units=1/GPa)
#
#
# Indices 1 2 3 4 5 6 
#
# 1 0.004893 -0.003308 -0.003356 0.000000 -0.000493 0.000000
# 2 -0.003308 0.013262 0.005671 0.000000 0.004048 0.000000
# 3 -0.003356 0.005671 0.019993 0.000000 0.002895 0.000000
# 4 0.000000 0.000000 0.000000 0.077452 0.000000 0.015107
# 5 -0.000493 0.004048 0.002895 0.000000 0.027302 0.000000
# 6 0.000000 0.000000 0.000000 0.015107 0.000000 0.025928
#
#
# Mechanical properties :
#
#
# Convention : Reuss Voigt Hill
#
# Bulk Modulus (GPa) = 27.65362 61.49686 44.57524
# Shear Modulus (GPa) = 27.34142 43.00450 35.17296
#
# Velocity S-wave (km/s) = 3.19902 4.01203 3.62837
# Velocity P-wave (km/s) = 4.89853 6.66931 5.85130
#
# Compressibility (1/GPa) = 0.03616163
#
# Stress axis : x y z
#
# Youngs Moduli (GPa) = 204.35921 75.40139 50.01689
#
# Poissons Ratio (x) = 0.24945 0.16786
# Poissons Ratio (y) = 0.67608 -0.28363
# Poissons Ratio (z) = 0.68583 -0.42757
#
# Static dielectric constant tensor:
#      x y z
#    x 2.258720 0.000000 0.133510 
#    y 0.000000 2.542150 0.000000 
#    z 0.133510 0.000000 1.995690 
# 
# From -- ./inp_files/81589.got.cif
#   From: 2010.05.17/outbox.cif.g08.bks.cpg/sg15_41_cif.got.tgz:81589.got - 2010.06.03 18:47:42.
