data_PCOD9265302
_publ_section_title
;
Structure prediction by ZEFSAII (Michael W. Deem and Ramdas Pophale) SiO2 
 PCOD9265302
Probable space group: C 2/C
;
_chemical_formula_sum "Si O2"
_cell_formula_units_Z 60
_cell_length_a 22.163786
_cell_length_b 16.601796
_cell_length_c 13.568549
_cell_angle_alpha 90.000000
_cell_angle_beta 36.623528
_cell_angle_gamma 90.000000
_cell_volume 2978.396759
_symmetry_space_group_name_H-M "C 2/C"
_symmetry_group_IT_number 15
_symmetry_cell_setting 'monoclinic'
loop_
_space_group_symop_operation_xyz
x,y,z
-x,y,1/2-z
-x,-y,-z
x,-y,1/2+z
1/2+x,1/2+y,z
1/2-x,1/2+y,1/2-z
1/2-x,1/2-y,-z
1/2+x,1/2-y,1/2+z
loop_
_atom_site_type_symbol
_atom_site_label
_atom_site_fract_x
_atom_site_fract_y
_atom_site_fract_z
Si Si1 0.068072 0.206912 0.409858
Si Si2 0.744944 0.125516 0.409624
Si Si3 0.353830 0.127140 0.604589
Si Si4 0.492012 0.560823 0.876646
Si Si5 0.830873 0.031284 0.708232
Si Si6 0.907059 0.566097 0.735328
Si Si7 0.500000 0.068735 0.250000
Si Si8 0.443637 0.213871 0.920505
O O1 0.144861 0.164621 0.232845
O O2 0.122320 0.286619 0.379428
O O3 0.045917 0.144206 0.525229
O O4 0.967424 0.231601 0.483121
O O5 0.692578 0.102503 0.580936
O O6 0.669497 0.188656 0.456410
O O7 0.757388 0.044182 0.329170
O O8 0.239100 0.105825 0.728468
O O9 0.387577 0.062683 0.644716
O O10 0.421959 0.118054 0.418366
O O11 0.500000 0.564072 0.750000
O O12 0.599586 0.543352 0.786807
O O13 0.410582 0.494549 0.019761
O O14 0.938162 0.487043 0.754193
O O15 0.996758 0.630036 0.636580
O O16 0.500000 0.248144 0.750000
#
# Coordination Sequence:
#
# PCOD9265302 Si02
#       8
#     8   8   8   8   8   8   4   8
#     4  10  24  40  59  98 129 169 210 257 327 389
#     4  10  19  39  64  85 132 158 215 263 309 377
#     4  11  24  36  65  94 124 163 214 267 320 386
#     4  10  24  45  67  87 134 169 208 266 315 382
#     4  10  22  43  65  96 115 168 224 257 311 384
#     4  10  19  36  59  91 122 163 210 266 323 364
#     4  12  20  38  58  90 132 158 214 262 322 384
#     4   9  18  35  59  88 126 165 198 265 320 362
#
# _framework density 20.145067000000001
#
# number of rings (size 3 to 8) (size 9 to 14) (size 15 to 20)
#    0.000    1.867    3.333    0.400    4.667    5.867 
#    0.000    4.667    0.000    0.000    0.000    0.000 
#    0.000    0.000    0.000    0.000    0.000    0.000 
#
# Total GULP energy -167540.846565 kJ/mol
# GULP energy per Si atom -5584.694885 kJ/mol
# Density = 2.009922 g / cm^3
# Si number density = 20.145067 Si / 1000 Ang^3
#
#
#
# Elastic Constant Matrix: (Units=GPa)
#
#
# Indices 1 2 3 4 5 6 
#
# 1 90.8052 22.6139 53.3402 0.0000 3.2197 0.0000
# 2 22.6139 54.8964 13.9068 0.0000 -2.9662 0.0000
# 3 53.3402 13.9068 67.8278 0.0000 -0.1994 0.0000
# 4 0.0000 0.0000 0.0000 14.1867 0.0000 0.5302
# 5 3.2197 -2.9662 -0.1994 0.0000 21.8436 0.0000
# 6 0.0000 0.0000 0.0000 0.5302 0.0000 20.6494
#
#
#
# Elastic Compliance Matrix: (Units=1/GPa)
#
#
# Indices 1 2 3 4 5 6 
#
# 1 0.021984 -0.005162 -0.016242 0.000000 -0.004090 0.000000
# 2 -0.005162 0.020572 -0.000148 0.000000 0.003553 0.000000
# 3 -0.016242 -0.000148 0.027554 0.000000 0.002625 0.000000
# 4 0.000000 0.000000 0.000000 0.070556 0.000000 -0.001811
# 5 -0.004090 0.003553 0.002625 0.000000 0.046889 0.000000
# 6 0.000000 0.000000 0.000000 -0.001811 0.000000 0.048474
#
#
# Mechanical properties :
#
#
# Convention : Reuss Voigt Hill
#
# Bulk Modulus (GPa) = 37.02884 43.69456 40.36170
# Shear Modulus (GPa) = 17.35295 19.58051 18.46673
#
# Velocity S-wave (km/s) = 2.93814 3.12103 3.03097
# Velocity P-wave (km/s) = 5.47095 5.89278 5.68578
#
# Compressibility (1/GPa) = 0.02700597
#
# Stress axis : x y z
#
# Youngs Moduli (GPa) = 45.48781 48.60944 36.29252
#
# Poissons Ratio (x) = 0.25094 0.58946
# Poissons Ratio (y) = 0.23483 0.00536
# Poissons Ratio (z) = 0.73881 0.00718
#
# Static dielectric constant tensor:
#      x y z
#    x 1.705100 0.000000 -0.014860 
#    y 0.000000 1.726950 0.000000 
#    z -0.014860 0.000000 1.694380 
# 
# From -- ./inp_files/113803.got.cif
#   From: 2010.05.17/outbox.cif.g08.bks.cpg/sg15_57_cif.got.tgz:113803.got - 2010.06.03 18:47:42.
