data_PCOD9265310
_publ_section_title
;
Structure prediction by ZEFSAII (Michael W. Deem and Ramdas Pophale) SiO2 
 PCOD9265310
Probable space group: C 2/C
;
_chemical_formula_sum "Si O2"
_cell_formula_units_Z 52
_cell_length_a 15.554796
_cell_length_b 18.808287
_cell_length_c 15.539029
_cell_angle_alpha 90.000000
_cell_angle_beta 148.285192
_cell_angle_gamma 90.000000
_cell_volume 2389.837739
_symmetry_space_group_name_H-M "C 2/C"
_symmetry_group_IT_number 15
_symmetry_cell_setting 'monoclinic'
loop_
_space_group_symop_operation_xyz
x,y,z
-x,y,1/2-z
-x,-y,-z
x,-y,1/2+z
1/2+x,1/2+y,z
1/2-x,1/2+y,1/2-z
1/2-x,1/2-y,-z
1/2+x,1/2-y,1/2+z
loop_
_atom_site_type_symbol
_atom_site_label
_atom_site_fract_x
_atom_site_fract_y
_atom_site_fract_z
Si Si1 0.246209 0.876648 0.275573
Si Si2 0.951205 0.699007 0.541620
Si Si3 0.322492 0.780074 0.739156
Si Si4 0.675508 0.390675 0.864628
Si Si5 0.302762 0.550671 0.591830
Si Si6 0.000000 0.366203 0.750000
Si Si7 0.052281 0.147677 0.089426
O O1 0.406226 0.857359 0.356471
O O2 0.208600 0.803137 0.296109
O O3 0.248991 0.933930 0.353077
O O4 0.105912 0.888042 0.085574
O O5 0.870976 0.709657 0.379552
O O6 0.820234 0.666478 0.495161
O O7 0.013929 0.778979 0.609570
O O8 0.451938 0.814956 0.787585
O O9 0.155389 0.824958 0.595063
O O10 0.500000 0.367681 0.750000
O O11 0.712493 0.466471 0.937860
O O12 0.647318 0.400908 0.737691
O O13 0.500000 0.568687 0.750000
O O14 0.164109 0.590295 0.416376
#
# Coordination Sequence:
#
# PCOD9265310 Si02
#       7
#     8   8   8   8   8   4   8
#     4  10  19  36  59  94 120 163 205 251 307 371
#     4   9  18  39  61  89 119 153 207 261 308 368
#     4   9  19  34  60  91 126 160 206 253 300 360
#     4  10  23  43  59  85 125 161 205 266 315 374
#     4  11  25  41  58  91 136 169 210 254 302 372
#     4  12  22  40  64  92 130 182 206 244 302 374
#     4   9  19  38  63  87 122 154 200 270 316 354
#
# _framework density 21.758799
#
# number of rings (size 3 to 8) (size 9 to 14) (size 15 to 20)
#    0.000    2.154    1.538    1.846    1.077    2.462 
#    5.538    0.000    0.000    0.000    0.000    0.000 
#    0.000    0.000    0.000    0.000    0.000    0.000 
#
# Total GULP energy -144914.274290 kJ/mol
# GULP energy per Si atom -5573.625934 kJ/mol
# Density = 2.170927 g / cm^3
# Si number density = 21.758799 Si / 1000 Ang^3
#
#
#
# Elastic Constant Matrix: (Units=GPa)
#
#
# Indices 1 2 3 4 5 6 
#
# 1 59.6784 42.4719 -4.5472 0.0005 19.3870 0.0005
# 2 42.4719 49.5383 12.0887 -0.0002 11.2625 -0.0003
# 3 -4.5472 12.0887 61.7264 -0.0009 16.6196 -0.0012
# 4 0.0005 -0.0002 -0.0009 4.6982 -0.0004 -22.0285
# 5 19.3870 11.2625 16.6196 -0.0004 23.7940 -0.0006
# 6 0.0005 -0.0003 -0.0012 -22.0285 -0.0006 -7.8552
#
#
#
# Elastic Compliance Matrix: (Units=1/GPa)
#
#
# Indices 1 2 3 4 5 6 
#
# 1 0.103024 -0.081804 0.044075 0.000002 -0.076008 0.000003
# 2 -0.081804 0.087758 -0.036918 -0.000001 0.050900 -0.000002
# 3 0.044075 -0.036918 0.038970 0.000000 -0.045657 0.000001
# 4 0.000002 -0.000001 0.000000 0.015044 -0.000002 -0.042187
# 5 -0.076008 0.050900 -0.045657 -0.000002 0.111755 -0.000003
# 6 0.000003 -0.000002 0.000001 -0.042187 -0.000003 -0.008998
#
#
# Mechanical properties :
#
#
# Convention : Reuss Voigt Hill
#
# Bulk Modulus (GPa) = 12.42851 30.10776 21.26813
# Shear Modulus (GPa) = 9.54805 12.18937 10.86871
#
# Velocity S-wave (km/s) = 2.09706 2.36943 2.23739
# Velocity P-wave (km/s) = 3.40410 4.62090 4.05836
#
# Compressibility (1/GPa) = 0.08046019
#
# Stress axis : x y z
#
# Youngs Moduli (GPa) = 9.70644 11.39496 25.66049
#
# Poissons Ratio (x) = 0.93215 -1.13098
# Poissons Ratio (y) = 0.79402 0.94732
# Poissons Ratio (z) = -0.42781 0.42067
#
# Static dielectric constant tensor:
#      x y z
#    x 1.839760 0.000000 0.067830 
#    y 0.000000 1.811040 0.000000 
#    z 0.067830 0.000000 1.874140 
# 
# From -- ./inp_files/40786.got.cif
#   From: 2010.05.17/outbox.cif.g08.bks.cpg/sg15_21_cif.got.tgz:40786.got - 2010.06.03 18:47:42.
