data_PCOD9265148
_publ_section_title
;
Structure prediction by ZEFSAII (Michael W. Deem and Ramdas Pophale) SiO2 
 PCOD9265148
Probable space group: C 2/C
;
_chemical_formula_sum "Si O2"
_cell_formula_units_Z 32
_cell_length_a 8.473828
_cell_length_b 11.620688
_cell_length_c 27.470638
_cell_angle_alpha 90.000000
_cell_angle_beta 145.861455
_cell_angle_gamma 90.000000
_cell_volume 1518.080312
_symmetry_space_group_name_H-M "C 2/C"
_symmetry_group_IT_number 15
_symmetry_cell_setting 'monoclinic'
loop_
_space_group_symop_operation_xyz
x,y,z
-x,y,1/2-z
-x,-y,-z
x,-y,1/2+z
1/2+x,1/2+y,z
1/2-x,1/2+y,1/2-z
1/2-x,1/2-y,-z
1/2+x,1/2-y,1/2+z
loop_
_atom_site_type_symbol
_atom_site_label
_atom_site_fract_x
_atom_site_fract_y
_atom_site_fract_z
Si Si1 0.846517 0.096443 0.994283
Si Si2 0.918433 0.756386 0.425817
Si Si3 0.314816 0.000981 0.402808
Si Si4 0.815900 0.982212 0.338280
O O1 0.880329 0.213424 0.973120
O O2 0.015193 0.077913 0.087361
O O3 0.518936 0.066198 0.918228
O O4 0.000000 0.000000 0.000000
O O5 0.792160 0.633381 0.380813
O O6 0.804005 0.863318 0.365708
O O7 0.250000 0.750000 0.500000
O O8 0.500000 0.000000 0.500000
O O9 0.007269 0.958443 0.339600
O O10 0.500000 0.021366 0.250000
#
# Coordination Sequence:
#
# PCOD9265148 Si02
#       4
#     8   8   8   8
#     4   9  18  35  61  81 109 148 196 229 276 349
#     4  11  19  38  62  84 109 153 201 229 284 347
#     4  10  19  36  58  85 110 149 197 230 285 343
#     4  10  22  40  53  85 126 143 188 250 287 333
#
# _framework density 21.079255
#
# number of rings (size 3 to 8) (size 9 to 14) (size 15 to 20)
#    0.000    2.000    7.500    0.000    0.000    4.000 
#    4.500    5.000    0.000    0.000    0.000    0.000 
#    0.000    0.000    0.000    0.000    0.000    0.000 
#
# Total GULP energy -89247.504095 kJ/mol
# GULP energy per Si atom -5577.969006 kJ/mol
# Density = 2.103128 g / cm^3
# Si number density = 21.079255 Si / 1000 Ang^3
#
#
#
# Elastic Constant Matrix: (Units=GPa)
#
#
# Indices 1 2 3 4 5 6 
#
# 1 134.5303 23.9131 44.4883 0.0000 40.2986 0.0000
# 2 23.9131 79.9873 17.4068 0.0000 -0.9292 0.0000
# 3 44.4883 17.4068 73.8254 0.0001 35.1023 0.0000
# 4 0.0000 0.0000 0.0001 17.4444 0.0000 0.5563
# 5 40.2986 -0.9292 35.1023 0.0000 28.6205 0.0000
# 6 0.0000 0.0000 0.0000 0.5563 0.0000 45.4378
#
#
#
# Elastic Compliance Matrix: (Units=1/GPa)
#
#
# Indices 1 2 3 4 5 6 
#
# 1 0.015282 -0.006265 0.006228 0.000000 -0.029359 0.000000
# 2 -0.006265 0.017108 -0.011316 0.000000 0.023255 0.000000
# 3 0.006228 -0.011316 0.040315 0.000000 -0.058581 0.000000
# 4 0.000000 0.000000 0.000000 0.057347 0.000001 -0.000702
# 5 -0.029359 0.023255 -0.058581 0.000001 0.148881 0.000000
# 6 0.000000 0.000000 0.000000 -0.000702 0.000000 0.022017
#
#
# Mechanical properties :
#
#
# Convention : Reuss Voigt Hill
#
# Bulk Modulus (GPa) = 20.00077 51.10661 35.55369
# Shear Modulus (GPa) = 14.69200 31.80285 23.24742
#
# Velocity S-wave (km/s) = 2.64292 3.88845 3.32453
# Velocity P-wave (km/s) = 4.33847 6.66766 5.62494
#
# Compressibility (1/GPa) = 0.04999807
#
# Stress axis : x y z
#
# Youngs Moduli (GPa) = 65.43672 58.45357 24.80495
#
# Poissons Ratio (x) = 0.36621 -0.15447
# Poissons Ratio (y) = 0.40996 0.28068
# Poissons Ratio (z) = -0.40751 0.66143
#
# Static dielectric constant tensor:
#      x y z
#    x 1.937000 0.000000 -0.057260 
#    y 0.000000 1.807660 0.000000 
#    z -0.057260 0.000000 1.767370 
# 
# From -- ./inp_files/131727.got.cif
#   From: 2010.05.17/outbox.cif.g08.bks.cpg/sg15_66_cif.got.tgz:131727.got - 2010.06.03 18:47:42.
