data_PCOD9265585
_publ_section_title
;
Structure prediction by ZEFSAII (Michael W. Deem and Ramdas Pophale) SiO2 
 PCOD9265585
Probable space group: C 2/C
;
_chemical_formula_sum "Si O2"
_cell_formula_units_Z 36
_cell_length_a 14.708919
_cell_length_b 18.609870
_cell_length_c 5.776192
_cell_angle_alpha 90.000000
_cell_angle_beta 112.088856
_cell_angle_gamma 90.000000
_cell_volume 1465.071603
_symmetry_space_group_name_H-M "C 2/C"
_symmetry_group_IT_number 15
_symmetry_cell_setting 'monoclinic'
loop_
_space_group_symop_operation_xyz
x,y,z
-x,y,1/2-z
-x,-y,-z
x,-y,1/2+z
1/2+x,1/2+y,z
1/2-x,1/2+y,1/2-z
1/2-x,1/2-y,-z
1/2+x,1/2-y,1/2+z
loop_
_atom_site_type_symbol
_atom_site_label
_atom_site_fract_x
_atom_site_fract_y
_atom_site_fract_z
Si Si1 0.884646 0.310062 0.667066
Si Si2 0.500000 0.960559 0.250000
Si Si3 0.199882 0.588691 0.080089
Si Si4 0.134602 0.974667 0.255806
Si Si5 0.203643 0.179925 0.684649
O O1 0.841840 0.384664 0.718979
O O2 0.865343 0.247576 0.837806
O O3 0.809972 0.295396 0.385858
O O4 0.000000 0.315710 0.750000
O O5 0.601622 0.917216 0.336176
O O6 0.500000 0.000000 0.500000
O O7 0.260319 0.515914 0.148243
O O8 0.273790 0.647723 0.045455
O O9 0.153576 0.889290 0.262786
O O10 0.091810 0.998228 0.465653
#
# Coordination Sequence:
#
# PCOD9265585 Si02
#       5
#     8   4   8   8   8
#     4  11  23  39  62  90 128 168 216 268 324 390
#     4  12  26  36  60 100 142 168 208 270 336 398
#     4  11  22  37  61  88 126 169 211 262 325 394
#     4  10  19  36  62  90 119 161 208 258 314 382
#     4  10  22  40  59  91 125 172 216 260 330 392
#
# _framework density 24.572178000000001
#
# number of rings (size 3 to 8) (size 9 to 14) (size 15 to 20)
#    0.000    1.333    2.222    4.667    4.667    0.000 
#    0.000    0.000    0.000    5.333    0.000    0.000 
#    0.000    0.000    0.000    0.000    0.000    0.000 
#
# Total GULP energy -100524.902387 kJ/mol
# GULP energy per Si atom -5584.716799 kJ/mol
# Density = 2.451625 g / cm^3
# Si number density = 24.572178 Si / 1000 Ang^3
#
#
#
# Elastic Constant Matrix: (Units=GPa)
#
#
# Indices 1 2 3 4 5 6 
#
# 1 105.6232 21.1555 35.3173 0.0000 -28.7531 0.0000
# 2 21.1555 97.6712 12.7537 0.0000 -17.4889 0.0000
# 3 35.3173 12.7537 108.7108 0.0000 -9.5576 0.0000
# 4 0.0000 0.0000 0.0000 38.4689 0.0000 -6.0091
# 5 -28.7531 -17.4889 -9.5576 0.0000 33.4147 0.0000
# 6 0.0000 0.0000 0.0000 -6.0091 0.0000 14.7923
#
#
#
# Elastic Compliance Matrix: (Units=1/GPa)
#
#
# Indices 1 2 3 4 5 6 
#
# 1 0.013557 -0.000636 -0.003419 0.000000 0.010355 0.000000
# 2 -0.000636 0.011400 -0.000671 0.000000 0.005227 0.000000
# 3 -0.003419 -0.000671 0.010359 0.000000 -0.000331 0.000000
# 4 0.000000 0.000000 0.000000 0.027756 0.000000 0.011275
# 5 0.010355 0.005227 -0.000331 0.000000 0.041479 0.000000
# 6 0.000000 0.000000 0.000000 0.011275 0.000000 0.072183
#
#
# Mechanical properties :
#
#
# Convention : Reuss Voigt Hill
#
# Bulk Modulus (GPa) = 38.66474 50.05090 44.35782
# Shear Modulus (GPa) = 25.66621 33.52043 29.59332
#
# Velocity S-wave (km/s) = 3.23541 3.69746 3.47413
# Velocity P-wave (km/s) = 5.45220 6.21623 5.84671
#
# Compressibility (1/GPa) = 0.02586336
#
# Stress axis : x y z
#
# Youngs Moduli (GPa) = 73.76165 87.72065 96.53186
#
# Poissons Ratio (x) = 0.05577 0.33008
# Poissons Ratio (y) = 0.04690 0.06480
# Poissons Ratio (z) = 0.25222 0.05888
#
# Static dielectric constant tensor:
#      x y z
#    x 1.979270 0.000000 -0.004820 
#    y 0.000000 1.938700 0.000000 
#    z -0.004820 0.000000 2.063340 
# 
# From -- ./inp_files/6910.got.cif
#   From: 2010.05.17/outbox.cif.g08.bks.cpg/sg15_4_cif.got.tgz:6910.got - 2010.06.03 18:47:42.
