data_PCOD9265523
_publ_section_title
;
Structure prediction by ZEFSAII (Michael W. Deem and Ramdas Pophale) SiO2 
 PCOD9265523
Probable space group: C 2/C
;
_chemical_formula_sum "Si O2"
_cell_formula_units_Z 40
_cell_length_a 21.526394
_cell_length_b 12.559778
_cell_length_c 5.520190
_cell_angle_alpha 90.000000
_cell_angle_beta 86.594239
_cell_angle_gamma 90.000000
_cell_volume 1489.839797
_symmetry_space_group_name_H-M "C 2/C"
_symmetry_group_IT_number 15
_symmetry_cell_setting 'monoclinic'
loop_
_space_group_symop_operation_xyz
x,y,z
-x,y,1/2-z
-x,-y,-z
x,-y,1/2+z
1/2+x,1/2+y,z
1/2-x,1/2+y,1/2-z
1/2-x,1/2-y,-z
1/2+x,1/2-y,1/2+z
loop_
_atom_site_type_symbol
_atom_site_label
_atom_site_fract_x
_atom_site_fract_y
_atom_site_fract_z
Si Si1 0.640148 0.896356 0.266778
Si Si2 0.812091 0.365887 0.743304
Si Si3 0.684204 0.563675 0.264880
Si Si4 0.000000 0.265740 0.750000
Si Si5 0.000000 0.388482 0.250000
Si Si6 0.044048 0.897534 0.932757
O O1 0.654695 0.835433 0.513452
O O2 0.568816 0.934987 0.276942
O O3 0.679594 0.004978 0.262832
O O4 0.657151 0.832566 0.018162
O O5 0.738260 0.347509 0.765976
O O6 0.693891 0.493127 0.504545
O O7 0.610566 0.586226 0.299017
O O8 0.989309 0.336421 0.519221
O O9 0.052213 0.178558 0.661556
O O10 0.000000 0.838120 0.750000
O O11 0.000000 0.000000 0.000000
#
# Coordination Sequence:
#
# PCOD9265523 Si02
#       6
#     8   8   8   4   4   8
#     4  10  20  37  60  91 125 164 213 248 311 351
#     4  10  19  36  61  95 127 156 203 275 289 363
#     4  12  20  34  61  98 127 157 185 253 343 353
#     4  12  26  45  59  92 132 160 210 256 306 376
#     4  12  26  41  65  86 124 186 202 248 306 374
#     4  12  23  40  68  99 120 151 204 271 320 368
#
# _framework density 26.848526
#
# number of rings (size 3 to 8) (size 9 to 14) (size 15 to 20)
#    0.000    0.800    8.000    1.200    0.000    3.200 
#    0.000    0.000    0.000    7.200    0.000    0.000 
#    0.000    0.000    0.000    0.000    0.000    0.000 
#
# Total GULP energy -111672.594973 kJ/mol
# GULP energy per Si atom -5583.629749 kJ/mol
# Density = 2.678742 g / cm^3
# Si number density = 26.848526 Si / 1000 Ang^3
#
#
#
# Elastic Constant Matrix: (Units=GPa)
#
#
# Indices 1 2 3 4 5 6 
#
# 1 217.5254 31.3808 49.9956 0.0000 -15.9107 0.0000
# 2 31.3808 36.9052 42.8526 0.0000 -5.4879 0.0000
# 3 49.9956 42.8526 228.4414 0.0000 16.5950 0.0000
# 4 0.0000 0.0000 0.0000 28.7656 0.0000 20.0048
# 5 -15.9107 -5.4879 16.5950 0.0000 42.9097 0.0000
# 6 0.0000 0.0000 0.0000 20.0048 0.0000 -24.6476
#
#
#
# Elastic Compliance Matrix: (Units=1/GPa)
#
#
# Indices 1 2 3 4 5 6 
#
# 1 0.005391 -0.003576 -0.000639 0.000000 0.001789 0.000000
# 2 -0.003576 0.039282 -0.007053 0.000000 0.006426 0.000000
# 3 -0.000639 -0.007053 0.006094 0.000000 -0.003496 0.000000
# 4 0.000000 0.000000 0.000000 0.022221 0.000000 0.018035
# 5 0.001789 0.006426 -0.003496 0.000000 0.026142 0.000000
# 6 0.000000 0.000000 0.000000 0.018035 0.000000 -0.025934
#
#
# Mechanical properties :
#
#
# Convention : Reuss Voigt Hill
#
# Bulk Modulus (GPa) = 35.42138 81.25890 58.34014
# Shear Modulus (GPa) = 47.55450 33.31508 40.43479
#
# Velocity S-wave (km/s) = 4.21315 3.52640 3.88498
# Velocity P-wave (km/s) = 6.07364 6.84923 6.47307
#
# Compressibility (1/GPa) = 0.02823154
#
# Stress axis : x y z
#
# Youngs Moduli (GPa) = 185.50431 25.45685 164.08693
#
# Poissons Ratio (x) = 0.09103 0.10484
# Poissons Ratio (y) = 0.66335 1.15731
# Poissons Ratio (z) = 0.11852 0.17955
#
# Static dielectric constant tensor:
#      x y z
#    x 2.110810 0.000000 0.058060 
#    y 0.000000 2.223350 0.000000 
#    z 0.058060 0.000000 2.238360 
# 
# From -- ./inp_files/12784.got.cif
#   From: 2010.05.17/outbox.cif.g08.bks.cpg/sg15_7_cif.got.tgz:12784.got - 2010.06.03 18:47:42.
