data_PCOD9265679
_publ_section_title
;
Structure prediction by ZEFSAII (Michael W. Deem and Ramdas Pophale) SiO2 
 PCOD9265679
Probable space group: C 2/C
;
_chemical_formula_sum "Si O2"
_cell_formula_units_Z 48
_cell_length_a 7.589497
_cell_length_b 16.440287
_cell_length_c 17.440152
_cell_angle_alpha 90.000000
_cell_angle_beta 67.965879
_cell_angle_gamma 90.000000
_cell_volume 2017.130196
_symmetry_space_group_name_H-M "C 2/C"
_symmetry_group_IT_number 15
_symmetry_cell_setting 'monoclinic'
loop_
_space_group_symop_operation_xyz
x,y,z
-x,y,1/2-z
-x,-y,-z
x,-y,1/2+z
1/2+x,1/2+y,z
1/2-x,1/2+y,1/2-z
1/2-x,1/2-y,-z
1/2+x,1/2-y,1/2+z
loop_
_atom_site_type_symbol
_atom_site_label
_atom_site_fract_x
_atom_site_fract_y
_atom_site_fract_z
Si Si1 0.733224 0.626897 0.478944
Si Si2 0.550935 0.450179 0.372026
Si Si3 0.500000 0.418103 0.750000
Si Si4 0.645266 0.764452 0.396729
Si Si5 0.413028 0.925418 0.678114
Si Si6 0.459357 0.097009 0.844063
Si Si7 0.000000 0.185290 0.750000
O O1 0.615234 0.556448 0.538957
O O2 0.607999 0.675421 0.436218
O O3 0.779992 0.685328 0.542492
O O4 0.930485 0.607050 0.405768
O O5 0.534134 0.527225 0.320031
O O6 0.753410 0.443443 0.380214
O O7 0.546232 0.373269 0.314188
O O8 0.709859 0.380733 0.704767
O O9 0.483191 0.822042 0.389114
O O10 0.817301 0.764058 0.307015
O O11 0.500000 0.922493 0.750000
O O12 0.393243 0.022972 0.662191
O O13 0.500000 0.120069 0.750000
#
# Coordination Sequence:
#
# PCOD9265679 Si02
#       7
#     8   8   4   8   8   8   4
#     4  10  24  40  59  93 134 173 217 282 343 390
#     4  10  19  36  63  94 126 166 222 272 327 395
#     4  11  20  40  70  96 128 178 223 272 338 413
#     4  10  21  39  63  89 126 179 223 267 334 409
#     4  11  23  42  66  98 132 170 224 287 338 395
#     4  11  19  37  66 100 126 171 232 276 321 413
#     4   9  16  32  62  80 110 170 219 252 316 393
#
# _framework density 23.796182999999999
#
# number of rings (size 3 to 8) (size 9 to 14) (size 15 to 20)
#    0.000    1.667    5.000    2.000    1.167    4.000 
#    3.000    0.000    1.833    0.000    0.000    0.000 
#    0.000    0.000    0.000    0.000    0.000    0.000 
#
# Total GULP energy -134121.334372 kJ/mol
# GULP energy per Si atom -5588.388932 kJ/mol
# Density = 2.374202 g / cm^3
# Si number density = 23.796183 Si / 1000 Ang^3
#
#
#
# Elastic Constant Matrix: (Units=GPa)
#
#
# Indices 1 2 3 4 5 6 
#
# 1 100.5131 10.6974 39.9226 0.0000 -19.0898 0.0000
# 2 10.6974 40.6072 29.9771 0.0000 15.7762 0.0000
# 3 39.9226 29.9771 166.4701 0.0000 -23.6912 0.0000
# 4 0.0000 0.0000 0.0000 -1.3929 0.0000 6.7989
# 5 -19.0898 15.7762 -23.6912 0.0000 32.8144 0.0000
# 6 0.0000 0.0000 0.0000 6.7989 0.0000 22.0071
#
#
#
# Elastic Compliance Matrix: (Units=1/GPa)
#
#
# Indices 1 2 3 4 5 6 
#
# 1 0.012915 -0.007567 -0.000165 0.000000 0.011033 0.000000
# 2 -0.007567 0.050803 -0.012746 0.000000 -0.038029 0.000000
# 3 -0.000165 -0.012746 0.010254 0.000000 0.013435 0.000000
# 4 0.000000 0.000000 0.000000 -0.286256 0.000000 0.088437
# 5 0.011033 -0.038029 0.013435 0.000000 0.064876 0.000000
# 6 0.000000 0.000000 0.000000 0.088437 0.000000 0.018118
#
#
# Mechanical properties :
#
#
# Convention : Reuss Voigt Hill
#
# Bulk Modulus (GPa) = 30.28707 52.08716 41.18711
# Shear Modulus (GPa) = -64.65884 25.81861 -19.42012
#
# Velocity S-wave (km/s) = -5.21833 3.29749 -2.85985
# Velocity P-wave (km/s) = 4.85310 6.03609 2.53789
#
# Compressibility (1/GPa) = 0.03301739
#
# Stress axis : x y z
#
# Youngs Moduli (GPa) = 77.42940 19.68370 97.52515
#
# Poissons Ratio (x) = 0.14895 0.01604
# Poissons Ratio (y) = 0.58591 1.24304
# Poissons Ratio (z) = 0.01274 0.25089
#
# Static dielectric constant tensor:
#      x y z
#    x 1.944520 0.000000 -0.015460 
#    y 0.000000 1.991170 0.000000 
#    z -0.015460 0.000000 1.868660 
# 
# From -- ./inp_files/191983.got.cif
#   From: 2010.05.17/outbox.cif.g08.bks.cpg/sg15_96_cif.got.tgz:191983.got - 2010.06.03 18:47:42.
