data_PCOD9265291
_publ_section_title
;
Structure prediction by ZEFSAII (Michael W. Deem and Ramdas Pophale) SiO2 
 PCOD9265291
Probable space group: C 2/C
;
_chemical_formula_sum "Si O2"
_cell_formula_units_Z 40
_cell_length_a 22.294201
_cell_length_b 14.971836
_cell_length_c 10.031436
_cell_angle_alpha 90.000000
_cell_angle_beta 140.046273
_cell_angle_gamma 90.000000
_cell_volume 2150.201866
_symmetry_space_group_name_H-M "C 2/C"
_symmetry_group_IT_number 15
_symmetry_cell_setting 'monoclinic'
loop_
_space_group_symop_operation_xyz
x,y,z
-x,y,1/2-z
-x,-y,-z
x,-y,1/2+z
1/2+x,1/2+y,z
1/2-x,1/2+y,1/2-z
1/2-x,1/2-y,-z
1/2+x,1/2-y,1/2+z
loop_
_atom_site_type_symbol
_atom_site_label
_atom_site_fract_x
_atom_site_fract_y
_atom_site_fract_z
Si Si1 0.041022 0.575383 0.968623
Si Si2 0.342342 0.522815 0.708584
Si Si3 0.552026 0.819923 0.975792
Si Si4 0.984542 0.115135 0.577140
Si Si5 0.716005 0.036752 0.748483
O O1 0.000000 0.574529 0.750000
O O2 0.148103 0.549361 0.134230
O O3 0.000000 0.500000 0.000000
O O4 0.012135 0.661372 0.003874
O O5 0.410958 0.607541 0.803863
O O6 0.267921 0.543543 0.696573
O O7 0.289129 0.484151 0.489534
O O8 0.412479 0.445328 0.875357
O O9 0.500000 0.850006 0.750000
O O10 0.558733 0.713329 0.979891
O O11 0.647691 0.877108 0.151704
O O12 0.000000 0.074781 0.750000
#
# Coordination Sequence:
#
# PCOD9265291 Si02
#       5
#     8   8   8   8   8
#     4  10  19  36  59  89 125 158 187 239 310 355
#     4  11  22  39  63  85 116 160 205 244 293 360
#     4  10  21  40  61  86 125 158 190 247 311 353
#     4  10  22  43  58  82 122 166 193 241 315 357
#     4  11  20  36  63  91 112 150 207 246 285 357
#
# _framework density 18.602906000000001
#
# number of rings (size 3 to 8) (size 9 to 14) (size 15 to 20)
#    0.000    1.600    2.000    6.000    0.000    0.800 
#    7.200    3.000    0.000    0.000    0.000    0.000 
#    0.000    0.000    0.000    0.000    0.000    0.000 
#
# Total GULP energy -111419.273701 kJ/mol
# GULP energy per Si atom -5570.963685 kJ/mol
# Density = 1.856057 g / cm^3
# Si number density = 18.602906 Si / 1000 Ang^3
#
#
#
# Elastic Constant Matrix: (Units=GPa)
#
#
# Indices 1 2 3 4 5 6 
#
# 1 103.7963 -2.1906 3.2801 0.0000 1.6350 0.0000
# 2 -2.1906 44.2955 24.8130 0.0000 4.5827 0.0000
# 3 3.2801 24.8130 115.1617 0.0000 -11.5436 0.0000
# 4 0.0000 0.0000 0.0000 7.1281 0.0000 5.8964
# 5 1.6350 4.5827 -11.5436 0.0000 39.4048 0.0000
# 6 0.0000 0.0000 0.0000 5.8964 0.0000 16.7618
#
#
#
# Elastic Compliance Matrix: (Units=1/GPa)
#
#
# Indices 1 2 3 4 5 6 
#
# 1 0.009679 0.000838 -0.000522 0.000000 -0.000652 0.000000
# 2 0.000838 0.026638 -0.006261 0.000000 -0.004967 0.000000
# 3 -0.000522 -0.006261 0.010429 0.000000 0.003805 0.000000
# 4 0.000000 0.000000 0.000000 0.197870 0.000000 -0.069606
# 5 -0.000652 -0.004967 0.003805 0.000000 0.027097 0.000000
# 6 0.000000 0.000000 0.000000 -0.069606 0.000000 0.084146
#
#
# Mechanical properties :
#
#
# Convention : Reuss Voigt Hill
#
# Bulk Modulus (GPa) = 28.68905 35.00651 31.84778
# Shear Modulus (GPa) = 13.17986 28.48232 20.83109
#
# Velocity S-wave (km/s) = 2.66462 3.91713 3.34994
# Velocity P-wave (km/s) = 4.99222 6.27034 5.66743
#
# Compressibility (1/GPa) = 0.03485650
#
# Stress axis : x y z
#
# Youngs Moduli (GPa) = 103.31969 37.53987 95.88853
#
# Poissons Ratio (x) = -0.03147 0.05002
# Poissons Ratio (y) = -0.08661 0.60039
# Poissons Ratio (z) = 0.05390 0.23505
#
# Static dielectric constant tensor:
#      x y z
#    x 1.697430 0.000000 0.001540 
#    y 0.000000 1.672780 0.000000 
#    z 0.001540 0.000000 1.641540 
# 
# From -- ./inp_files/38072.got.cif
#   From: 2010.05.17/outbox.cif.g08.bks.cpg/sg15_20_cif.got.tgz:38072.got - 2010.06.03 18:47:42.
