data_PCOD9265518
_publ_section_title
;
Structure prediction by ZEFSAII (Michael W. Deem and Ramdas Pophale) SiO2 
 PCOD9265518
Probable space group: C 2/C
;
_chemical_formula_sum "Si O2"
_cell_formula_units_Z 60
_cell_length_a 19.393089
_cell_length_b 8.914265
_cell_length_c 28.953647
_cell_angle_alpha 90.000000
_cell_angle_beta 144.600192
_cell_angle_gamma 90.000000
_cell_volume 2899.500392
_symmetry_space_group_name_H-M "C 2/C"
_symmetry_group_IT_number 15
_symmetry_cell_setting 'monoclinic'
loop_
_space_group_symop_operation_xyz
x,y,z
-x,y,1/2-z
-x,-y,-z
x,-y,1/2+z
1/2+x,1/2+y,z
1/2-x,1/2+y,1/2-z
1/2-x,1/2-y,-z
1/2+x,1/2-y,1/2+z
loop_
_atom_site_type_symbol
_atom_site_label
_atom_site_fract_x
_atom_site_fract_y
_atom_site_fract_z
Si Si1 0.343910 0.859739 0.191132
Si Si2 0.269322 0.304000 0.130444
Si Si3 0.217100 0.387070 0.448326
Si Si4 0.965797 0.046275 0.589884
Si Si5 0.881106 0.963017 0.906871
Si Si6 0.500000 0.113644 0.250000
Si Si7 0.070638 0.959797 0.741052
Si Si8 0.850949 0.652858 0.028791
O O1 0.334917 0.840755 0.130038
O O2 0.215530 0.908321 0.138205
O O3 0.386150 0.709895 0.238287
O O4 0.434112 0.998471 0.248532
O O5 0.386683 0.215432 0.174483
O O6 0.320940 0.424159 0.194366
O O7 0.201361 0.379404 0.050565
O O8 0.182322 0.186065 0.108157
O O9 0.250000 0.250000 0.500000
O O10 0.340227 0.476451 0.504899
O O11 0.136893 0.503403 0.434204
O O12 0.957301 0.226953 0.580978
O O13 0.072361 0.969630 0.619935
O O14 0.984760 0.006065 0.653194
O O15 0.000000 0.000000 0.000000
O O16 0.000000 0.970515 0.750000
O O17 0.750000 0.750000 0.000000
#
# Coordination Sequence:
#
# PCOD9265518 Si02
#       8
#     8   8   8   8   8   4   8   8
#     4  11  23  40  65  91 132 174 211 267 341 396
#     4  11  22  37  67  93 131 170 215 270 329 394
#     4  11  22  36  63  97 128 168 223 272 331 387
#     4  11  23  40  67  89 131 176 218 277 317 398
#     4  11  21  45  65  89 127 185 226 257 321 406
#     4  10  20  34  60  94 118 166 210 252 332 386
#     4  12  24  41  63  99 137 161 210 293 345 370
#     4  10  19  36  61  93 122 166 223 261 320 383
#
# _framework density 20.693221000000001
#
# number of rings (size 3 to 8) (size 9 to 14) (size 15 to 20)
#    0.000    1.067    4.000    5.600    1.867    1.067 
#    0.000    2.000    0.000    0.000    0.000    0.000 
#    0.000    0.000    0.000    0.000    0.000    0.000 
#
# Total GULP energy -167526.847791 kJ/mol
# GULP energy per Si atom -5584.228260 kJ/mol
# Density = 2.064612 g / cm^3
# Si number density = 20.693221 Si / 1000 Ang^3
#
#
#
# Elastic Constant Matrix: (Units=GPa)
#
#
# Indices 1 2 3 4 5 6 
#
# 1 78.4401 -3.0046 4.8007 0.0000 13.6433 0.0000
# 2 -3.0046 86.4438 7.2459 0.0000 12.3004 0.0000
# 3 4.8007 7.2459 73.3051 0.0000 1.1118 0.0000
# 4 0.0000 0.0000 0.0000 27.1343 0.0000 0.3573
# 5 13.6433 12.3004 1.1118 0.0000 34.6886 0.0000
# 6 0.0000 0.0000 0.0000 0.3573 0.0000 22.8606
#
#
#
# Elastic Compliance Matrix: (Units=1/GPa)
#
#
# Indices 1 2 3 4 5 6 
#
# 1 0.013893 0.001407 -0.000959 0.000000 -0.005933 0.000000
# 2 0.001407 0.012421 -0.001245 0.000000 -0.004918 0.000000
# 3 -0.000959 -0.001245 0.013822 0.000000 0.000376 0.000000
# 4 0.000000 0.000000 0.000000 0.036861 0.000000 -0.000576
# 5 -0.005933 -0.004918 0.000376 0.000000 0.032893 0.000000
# 6 0.000000 0.000000 0.000000 -0.000576 0.000000 0.043752
#
#
# Mechanical properties :
#
#
# Convention : Reuss Voigt Hill
#
# Bulk Modulus (GPa) = 25.94546 28.47477 27.21012
# Shear Modulus (GPa) = 29.74694 32.21315 30.98004
#
# Velocity S-wave (km/s) = 3.79558 3.94978 3.87345
# Velocity P-wave (km/s) = 5.63684 5.88144 5.76044
#
# Compressibility (1/GPa) = 0.03854239
#
# Stress axis : x y z
#
# Youngs Moduli (GPa) = 71.97840 80.50659 72.34937
#
# Poissons Ratio (x) = -0.11331 0.06938
# Poissons Ratio (y) = -0.10131 0.09010
# Poissons Ratio (z) = 0.06903 0.10026
#
# Static dielectric constant tensor:
#      x y z
#    x 1.764170 0.000000 -0.004840 
#    y 0.000000 1.781740 0.000000 
#    z -0.004840 0.000000 1.772760 
# 
# From -- ./inp_files/317270.got.cif
#   From: 2010.05.17/outbox.cif.g08.bks.cpg/sg15_159_cif.got.tgz:317270.got - 2010.06.03 18:47:42.
