data_PCOD9265573
_publ_section_title
;
Structure prediction by ZEFSAII (Michael W. Deem and Ramdas Pophale) SiO2 
 PCOD9265573
Probable space group: C 2/C
;
_chemical_formula_sum "Si O2"
_cell_formula_units_Z 40
_cell_length_a 22.904866
_cell_length_b 9.080444
_cell_length_c 14.485924
_cell_angle_alpha 90.000000
_cell_angle_beta 140.952799
_cell_angle_gamma 90.000000
_cell_volume 1897.991628
_symmetry_space_group_name_H-M "C 2/C"
_symmetry_group_IT_number 15
_symmetry_cell_setting 'monoclinic'
loop_
_space_group_symop_operation_xyz
x,y,z
-x,y,1/2-z
-x,-y,-z
x,-y,1/2+z
1/2+x,1/2+y,z
1/2-x,1/2+y,1/2-z
1/2-x,1/2-y,-z
1/2+x,1/2-y,1/2+z
loop_
_atom_site_type_symbol
_atom_site_label
_atom_site_fract_x
_atom_site_fract_y
_atom_site_fract_z
Si Si1 0.859527 0.692275 0.833510
Si Si2 0.563087 0.315914 0.078719
Si Si3 0.645345 0.804814 0.373973
Si Si4 0.033218 0.010893 0.197081
Si Si5 0.312851 0.093492 0.379623
O O1 0.870604 0.308947 0.877785
O O2 0.869768 0.620241 0.743619
O O3 0.816805 0.572849 0.849542
O O4 0.962540 0.748207 0.982128
O O5 0.594383 0.406512 0.206888
O O6 0.544346 0.427063 0.969347
O O7 0.584623 0.657181 0.295411
O O8 0.636720 0.890866 0.458890
O O9 0.711813 0.670417 0.260208
O O10 0.000000 0.934420 0.250000
O O11 0.250000 0.250000 0.500000
#
# Coordination Sequence:
#
# PCOD9265573 Si02
#       5
#     8   8   8   8   8
#     4  10  24  39  61  92 120 162 207 251 307 364
#     4  10  22  37  61  89 123 158 208 249 302 363
#     4   9  20  37  60  85 120 157 201 242 306 371
#     4  10  19  36  62  89 114 159 204 246 303 361
#     4  11  22  41  64  87 126 163 199 256 309 362
#
# _framework density 21.074908000000001
#
# number of rings (size 3 to 8) (size 9 to 14) (size 15 to 20)
#    0.000    2.000    2.000    0.600   11.200    0.000 
#    3.600    1.000    0.000    0.000    0.000    0.000 
#    0.000    0.000    0.000    0.000    0.000    0.000 
#
# Total GULP energy -111581.048526 kJ/mol
# GULP energy per Si atom -5579.052426 kJ/mol
# Density = 2.102694 g / cm^3
# Si number density = 21.074908 Si / 1000 Ang^3
#
#
#
# Elastic Constant Matrix: (Units=GPa)
#
#
# Indices 1 2 3 4 5 6 
#
# 1 95.8030 29.6004 33.4101 0.0000 -12.6089 0.0000
# 2 29.6004 65.5499 38.4583 0.0000 -19.8678 0.0000
# 3 33.4101 38.4583 76.2258 0.0000 -30.3045 0.0000
# 4 0.0000 0.0000 0.0000 19.5057 0.0000 -9.7432
# 5 -12.6089 -19.8678 -30.3045 0.0000 43.2835 0.0000
# 6 0.0000 0.0000 0.0000 -9.7432 0.0000 46.4667
#
#
#
# Elastic Compliance Matrix: (Units=1/GPa)
#
#
# Indices 1 2 3 4 5 6 
#
# 1 0.012900 -0.003643 -0.004139 0.000000 -0.000812 0.000000
# 2 -0.003643 0.023019 -0.008644 0.000000 0.003452 0.000000
# 3 -0.004139 -0.008644 0.023886 0.000000 0.011550 0.000000
# 4 0.000000 0.000000 0.000000 0.057265 0.000000 0.012007
# 5 -0.000812 0.003452 0.011550 0.000000 0.032538 0.000000
# 6 0.000000 0.000000 0.000000 0.012007 0.000000 0.024039
#
#
# Mechanical properties :
#
#
# Convention : Reuss Voigt Hill
#
# Bulk Modulus (GPa) = 37.10261 48.94626 43.02444
# Shear Modulus (GPa) = 23.20355 30.92516 27.06436
#
# Velocity S-wave (km/s) = 3.32174 3.83481 3.58746
# Velocity P-wave (km/s) = 5.68817 6.54851 6.13344
#
# Compressibility (1/GPa) = 0.02695228
#
# Stress axis : x y z
#
# Youngs Moduli (GPa) = 77.51776 43.44288 41.86498
#
# Poissons Ratio (x) = 0.15827 0.17328
# Poissons Ratio (y) = 0.28241 0.36189
# Poissons Ratio (z) = 0.32085 0.37553
#
# Static dielectric constant tensor:
#      x y z
#    x 1.807730 0.000000 -0.025760 
#    y 0.000000 1.924330 0.000000 
#    z -0.025760 0.000000 1.798730 
# 
# From -- ./inp_files/116547.got.cif
#   From: 2010.05.17/outbox.cif.g08.bks.cpg/sg15_59_cif.got.tgz:116547.got - 2010.06.03 18:47:42.
