data_PCOD9265119
_publ_section_title
;
Structure prediction by ZEFSAII (Michael W. Deem and Ramdas Pophale) SiO2 
 PCOD9265119
Probable space group: C 2/C
;
_chemical_formula_sum "Si O2"
_cell_formula_units_Z 52
_cell_length_a 19.824442
_cell_length_b 29.661274
_cell_length_c 8.969653
_cell_angle_alpha 90.000000
_cell_angle_beta 149.168480
_cell_angle_gamma 90.000000
_cell_volume 2703.169453
_symmetry_space_group_name_H-M "C 2/C"
_symmetry_group_IT_number 15
_symmetry_cell_setting 'monoclinic'
loop_
_space_group_symop_operation_xyz
x,y,z
-x,y,1/2-z
-x,-y,-z
x,-y,1/2+z
1/2+x,1/2+y,z
1/2-x,1/2+y,1/2-z
1/2-x,1/2-y,-z
1/2+x,1/2-y,1/2+z
loop_
_atom_site_type_symbol
_atom_site_label
_atom_site_fract_x
_atom_site_fract_y
_atom_site_fract_z
Si Si1 0.862422 0.444060 0.233187
Si Si2 0.766294 0.297537 0.108299
Si Si3 0.988993 0.646131 0.407736
Si Si4 0.951227 0.954303 0.827614
Si Si5 0.500000 0.997614 0.250000
Si Si6 0.231953 0.799746 0.400172
Si Si7 0.982368 0.144698 0.397252
O O1 0.944092 0.397429 0.391599
O O2 0.926226 0.472492 0.488424
O O3 0.895009 0.467817 0.139410
O O4 0.706124 0.445512 0.963582
O O5 0.914353 0.313516 0.366189
O O6 0.744325 0.295128 0.244462
O O7 0.750000 0.250000 0.000000
O O8 0.661834 0.334431 0.850157
O O9 0.000000 0.638460 0.250000
O O10 0.842395 0.663818 0.160215
O O11 0.005427 0.906547 0.993852
O O12 0.000000 0.957905 0.750000
O O13 0.000000 0.000000 0.000000
O O14 0.250000 0.750000 0.500000
O O15 0.090366 0.821129 0.164898
O O16 0.000000 0.143209 0.250000
#
# Coordination Sequence:
#
# PCOD9265119 Si02
#       7
#     8   8   8   8   4   8   8
#     4  11  21  42  59  93 122 161 210 255 311 373
#     4  10  19  36  58  81 110 155 194 242 303 362
#     4  10  20  35  62  83 119 158 199 250 306 371
#     4  11  23  39  64  90 122 163 208 257 308 369
#     4  10  24  36  66  86 126 162 204 258 306 364
#     4  10  21  37  56  86 115 151 200 247 303 363
#     4   9  19  35  58  81 114 155 194 235 297 371
#
# _framework density 19.236678999999999
#
# number of rings (size 3 to 8) (size 9 to 14) (size 15 to 20)
#    0.000    1.846    2.308    1.846    2.154    2.462 
#    2.769    1.538    0.000    0.000    0.000    0.000 
#    0.000    0.000    0.000    0.000    0.000    0.000 
#
# Total GULP energy -144981.332457 kJ/mol
# GULP energy per Si atom -5576.205094 kJ/mol
# Density = 1.919290 g / cm^3
# Si number density = 19.236679 Si / 1000 Ang^3
#
#
#
# Elastic Constant Matrix: (Units=GPa)
#
#
# Indices 1 2 3 4 5 6 
#
# 1 51.1520 14.9151 18.0602 0.0000 10.0067 0.0000
# 2 14.9151 137.6432 41.2873 0.0000 -10.3167 0.0000
# 3 18.0602 41.2873 79.0624 0.0000 18.1022 0.0000
# 4 0.0000 0.0000 0.0000 31.3813 0.0000 5.4176
# 5 10.0067 -10.3167 18.1022 0.0000 21.2714 0.0000
# 6 0.0000 0.0000 0.0000 5.4176 0.0000 15.6326
#
#
#
# Elastic Compliance Matrix: (Units=1/GPa)
#
#
# Indices 1 2 3 4 5 6 
#
# 1 0.023041 -0.003029 -0.001072 0.000000 -0.011396 0.000000
# 2 -0.003029 0.011121 -0.008292 0.000000 0.013876 0.000000
# 3 -0.001072 -0.008292 0.022392 0.000000 -0.022573 0.000000
# 4 0.000000 0.000000 0.000000 0.033894 0.000000 -0.011746
# 5 -0.011396 0.013876 -0.022573 0.000000 0.078312 0.000000
# 6 0.000000 0.000000 0.000000 -0.011746 0.000000 0.068040
#
#
# Mechanical properties :
#
#
# Convention : Reuss Voigt Hill
#
# Bulk Modulus (GPa) = 31.48026 46.26476 38.87251
# Shear Modulus (GPa) = 18.37053 26.56340 22.46697
#
# Velocity S-wave (km/s) = 3.09362 3.72004 3.42120
# Velocity P-wave (km/s) = 5.40008 6.52335 5.98811
#
# Compressibility (1/GPa) = 0.03176594
#
# Stress axis : x y z
#
# Youngs Moduli (GPa) = 43.40143 89.92158 44.65906
#
# Poissons Ratio (x) = 0.27240 0.04788
# Poissons Ratio (y) = 0.13147 0.37033
# Poissons Ratio (z) = 0.04653 0.74567
#
# Static dielectric constant tensor:
#      x y z
#    x 1.627160 0.000000 0.178410 
#    y 0.000000 1.689820 0.000000 
#    z 0.178410 0.000000 0.779880 
# 
# From -- ./inp_files/59320.got.cif
#   From: 2010.05.17/outbox.cif.g08.bks.cpg/sg15_30_cif.got.tgz:59320.got - 2010.06.03 18:47:42.
