data_PCOD9265260
_publ_section_title
;
Structure prediction by ZEFSAII (Michael W. Deem and Ramdas Pophale) SiO2 
 PCOD9265260
Probable space group: C 2/C
;
_chemical_formula_sum "Si O2"
_cell_formula_units_Z 44
_cell_length_a 6.837977
_cell_length_b 10.915076
_cell_length_c 23.732661
_cell_angle_alpha 90.000000
_cell_angle_beta 89.308983
_cell_angle_gamma 90.000000
_cell_volume 1771.206712
_symmetry_space_group_name_H-M "C 2/C"
_symmetry_group_IT_number 15
_symmetry_cell_setting 'monoclinic'
loop_
_space_group_symop_operation_xyz
x,y,z
-x,y,1/2-z
-x,-y,-z
x,-y,1/2+z
1/2+x,1/2+y,z
1/2-x,1/2+y,1/2-z
1/2-x,1/2-y,-z
1/2+x,1/2-y,1/2+z
loop_
_atom_site_type_symbol
_atom_site_label
_atom_site_fract_x
_atom_site_fract_y
_atom_site_fract_z
Si Si1 0.227333 0.540465 0.998670
Si Si2 0.756881 0.859229 0.085158
Si Si3 0.666544 0.764523 0.419824
Si Si4 0.500000 0.634511 0.250000
Si Si5 0.697011 0.919178 0.665825
Si Si6 0.121309 0.259887 0.803208
O O1 0.332950 0.421843 0.026454
O O2 0.258885 0.657342 0.038938
O O3 0.254316 0.603247 0.937359
O O4 0.000000 0.500000 0.000000
O O5 0.567863 0.776320 0.073629
O O6 0.883517 0.794588 0.133236
O O7 0.684060 0.977520 0.119661
O O8 0.723503 0.709922 0.359585
O O9 0.638311 0.552468 0.289097
O O10 0.655348 0.718918 0.215868
O O11 0.483623 0.891433 0.689140
O O12 0.000000 0.206551 0.750000
#
# Coordination Sequence:
#
# PCOD9265260 Si02
#       6
#     8   8   8   4   8   8
#     4   8  16  30  60  91 117 161 196 234 305 353
#     4  10  19  36  59  86 116 158 195 242 302 351
#     4   9  16  34  58  86 124 154 192 251 291 347
#     4  10  20  42  56  78 120 152 192 256 298 342
#     4  10  21  37  57  84 115 153 199 242 294 357
#     4  10  22  40  57  84 118 152 201 250 294 361
#
# _framework density 24.841820999999999
#
# number of rings (size 3 to 8) (size 9 to 14) (size 15 to 20)
#    0.000    2.545    1.818    0.000    1.273    0.000 
#    8.182    0.909    0.000   37.091    0.000    0.000 
#    0.000    0.000    0.000    0.000    0.000    0.000 
#
# Total GULP energy -122589.505056 kJ/mol
# GULP energy per Si atom -5572.250230 kJ/mol
# Density = 2.478528 g / cm^3
# Si number density = 24.841821 Si / 1000 Ang^3
#
#
#
# Elastic Constant Matrix: (Units=GPa)
#
#
# Indices 1 2 3 4 5 6 
#
# 1 110.7817 42.4526 32.8348 0.0000 24.6025 0.0000
# 2 42.4526 70.0546 31.4873 0.0000 13.9564 0.0000
# 3 32.8348 31.4873 93.6015 0.0000 32.7633 0.0000
# 4 0.0000 0.0000 0.0000 52.6390 0.0000 9.7908
# 5 24.6025 13.9564 32.7633 0.0000 47.1317 0.0000
# 6 0.0000 0.0000 0.0000 9.7908 0.0000 26.5320
#
#
#
# Elastic Compliance Matrix: (Units=1/GPa)
#
#
# Indices 1 2 3 4 5 6 
#
# 1 0.012672 -0.006490 -0.000819 0.000000 -0.004124 0.000000
# 2 -0.006490 0.020209 -0.004775 0.000000 0.000722 0.000000
# 3 -0.000819 -0.004775 0.015770 0.000000 -0.009121 0.000000
# 4 0.000000 0.000000 0.000000 0.020397 0.000000 -0.007527
# 5 -0.004124 0.000722 -0.009121 0.000000 0.029496 0.000000
# 6 0.000000 0.000000 0.000000 -0.007527 0.000000 0.040468
#
#
# Mechanical properties :
#
#
# Convention : Reuss Voigt Hill
#
# Bulk Modulus (GPa) = 40.84127 54.22081 47.53104
# Shear Modulus (GPa) = 29.18162 36.43807 32.80985
#
# Velocity S-wave (km/s) = 3.43110 3.83404 3.63816
# Velocity P-wave (km/s) = 5.67211 6.44000 6.06822
#
# Compressibility (1/GPa) = 0.02448503
#
# Stress axis : x y z
#
# Youngs Moduli (GPa) = 78.91299 49.48178 63.41329
#
# Poissons Ratio (x) = 0.32112 0.05191
# Poissons Ratio (y) = 0.51212 0.30278
# Poissons Ratio (z) = 0.06460 0.23626
#
# Static dielectric constant tensor:
#      x y z
#    x 1.988550 0.000000 0.048290 
#    y 0.000000 1.989260 0.000000 
#    z 0.048290 0.000000 2.105290 
# 
# From -- ./inp_files/304970.got.cif
#   From: 2010.05.17/outbox.cif.g08.bks.cpg/sg15_153_cif.got.tgz:304970.got - 2010.06.03 18:47:42.
