data_PCOD9265693
_publ_section_title
;
Structure prediction by ZEFSAII (Michael W. Deem and Ramdas Pophale) SiO2 
 PCOD9265693
Probable space group: C 2/C
;
_chemical_formula_sum "Si O2"
_cell_formula_units_Z 32
_cell_length_a 19.711227
_cell_length_b 13.553837
_cell_length_c 5.300233
_cell_angle_alpha 90.000000
_cell_angle_beta 71.633320
_cell_angle_gamma 90.000000
_cell_volume 1343.891730
_symmetry_space_group_name_H-M "C 2/C"
_symmetry_group_IT_number 15
_symmetry_cell_setting 'monoclinic'
loop_
_space_group_symop_operation_xyz
x,y,z
-x,y,1/2-z
-x,-y,-z
x,-y,1/2+z
1/2+x,1/2+y,z
1/2-x,1/2+y,1/2-z
1/2-x,1/2-y,-z
1/2+x,1/2-y,1/2+z
loop_
_atom_site_type_symbol
_atom_site_label
_atom_site_fract_x
_atom_site_fract_y
_atom_site_fract_z
Si Si1 0.957542 0.217976 0.544047
Si Si2 0.090945 0.436974 0.995797
Si Si3 0.748817 0.131517 0.447039
Si Si4 0.300787 0.654479 0.886813
O O1 0.949637 0.335671 0.513722
O O2 0.000000 0.179032 0.250000
O O3 0.122707 0.179375 0.820032
O O4 0.000000 0.198499 0.750000
O O5 0.077230 0.510611 0.779629
O O6 0.173698 0.403021 0.923066
O O7 0.750000 0.250000 0.500000
O O8 0.807153 0.112521 0.161728
O O9 0.761054 0.092386 0.716170
O O10 0.250000 0.750000 0.000000
#
# Coordination Sequence:
#
# PCOD9265693 Si02
#       4
#     8   8   8   8
#     4  12  25  38  57  87 126 166 204 236 286 361
#     4  12  25  38  57  87 126 167 204 234 286 361
#     4  10  19  36  64  80 105 154 208 253 299 316
#     4  10  19  36  64  80 103 156 204 254 299 317
#
# _framework density 23.811440999999999
#
# number of rings (size 3 to 8) (size 9 to 14) (size 15 to 20)
#    0.000    1.000    5.000    4.500    7.000    3.000 
#    0.000    0.000    0.000    0.000    0.000    0.000 
#    0.000   70.000    0.000    0.000    0.000    0.000 
#
# Total GULP energy -89423.720340 kJ/mol
# GULP energy per Si atom -5588.982521 kJ/mol
# Density = 2.375725 g / cm^3
# Si number density = 23.811441 Si / 1000 Ang^3
#
#
#
# Elastic Constant Matrix: (Units=GPa)
#
#
# Indices 1 2 3 4 5 6 
#
# 1 106.1979 -5.1637 47.8017 0.0000 -6.0380 0.0000
# 2 -5.1637 53.8868 -2.0871 0.0000 -4.1316 0.0000
# 3 47.8017 -2.0871 246.7099 0.0000 5.2843 0.0000
# 4 0.0000 0.0000 0.0000 -0.5409 0.0000 -13.6801
# 5 -6.0380 -4.1316 5.2843 0.0000 56.4344 0.0000
# 6 0.0000 0.0000 0.0000 -13.6801 0.0000 22.8173
#
#
#
# Elastic Compliance Matrix: (Units=1/GPa)
#
#
# Indices 1 2 3 4 5 6 
#
# 1 0.010468 0.001030 -0.002049 0.000000 0.001387 0.000000
# 2 0.001030 0.018768 -0.000073 0.000000 0.001491 0.000000
# 3 -0.002049 -0.000073 0.004464 0.000000 -0.000643 0.000000
# 4 0.000000 0.000000 0.000000 -0.114379 0.000000 -0.068576
# 5 0.001387 0.001491 -0.000643 0.000000 0.018037 0.000000
# 6 0.000000 0.000000 0.000000 -0.068576 0.000000 0.002712
#
#
# Mechanical properties :
#
#
# Convention : Reuss Voigt Hill
#
# Bulk Modulus (GPa) = 31.73078 54.21071 42.97074
# Shear Modulus (GPa) = -105.83707 40.15841 -32.83933
#
# Velocity S-wave (km/s) = -6.67417 4.11118 -3.71771
# Velocity P-wave (km/s) = 6.78512 6.73437 0.58569
#
# Compressibility (1/GPa) = 0.03151514
#
# Stress axis : x y z
#
# Youngs Moduli (GPa) = 95.53182 53.28322 224.03775
#
# Poissons Ratio (x) = -0.05489 0.45910
# Poissons Ratio (y) = -0.09840 0.01630
# Poissons Ratio (z) = 0.19576 0.00388
#
# Static dielectric constant tensor:
#      x y z
#    x 1.955290 0.000000 0.012770 
#    y 0.000000 3.395200 0.000000 
#    z 0.012770 0.000000 2.001820 
# 
# From -- ./inp_files/6533.got.cif
#   From: 2010.05.17/outbox.cif.g08.bks.cpg/sg15_4_cif.got.tgz:6533.got - 2010.06.03 18:47:42.
