data_PCOD9265210
_publ_section_title
;
Structure prediction by ZEFSAII (Michael W. Deem and Ramdas Pophale) SiO2 
 PCOD9265210
Probable space group: C 2/C
;
_chemical_formula_sum "Si O2"
_cell_formula_units_Z 24
_cell_length_a 11.187259
_cell_length_b 7.738798
_cell_length_c 11.209633
_cell_angle_alpha 90.000000
_cell_angle_beta 75.947920
_cell_angle_gamma 90.000000
_cell_volume 941.443152
_symmetry_space_group_name_H-M "C 2/C"
_symmetry_group_IT_number 15
_symmetry_cell_setting 'monoclinic'
loop_
_space_group_symop_operation_xyz
x,y,z
-x,y,1/2-z
-x,-y,-z
x,-y,1/2+z
1/2+x,1/2+y,z
1/2-x,1/2+y,1/2-z
1/2-x,1/2-y,-z
1/2+x,1/2-y,1/2+z
loop_
_atom_site_type_symbol
_atom_site_label
_atom_site_fract_x
_atom_site_fract_y
_atom_site_fract_z
Si Si1 0.084310 0.718182 0.116582
Si Si2 0.688908 0.859414 0.119009
Si Si3 0.153857 0.173073 0.362888
O O1 0.093679 0.509264 0.102544
O O2 0.222611 0.775223 0.121328
O O3 0.000000 0.757903 0.250000
O O4 0.057664 0.795488 0.992784
O O5 0.633467 0.740519 0.235822
O O6 0.798483 0.978029 0.146732
O O7 0.750000 0.750000 0.000000
#
# Coordination Sequence:
#
# PCOD9265210 Si02
#       3
#     8   8   8
#     4   9  20  37  59  81 113 146 186 220 276 331
#     4  10  19  36  59  78 114 147 181 225 282 320
#     4   9  20  35  59  79 113 144 183 227 272 325
#
# _framework density 25.492775000000002
#
# number of rings (size 3 to 8) (size 9 to 14) (size 15 to 20)
#    2.000    0.667    0.000    2.000    0.000    1.333 
#    0.000    3.333    0.000    0.000    0.000    0.000 
#    0.000    0.000    0.000    0.000    0.000    0.000 
#
# Total GULP energy -66974.665268 kJ/mol
# GULP energy per Si atom -5581.222106 kJ/mol
# Density = 2.543475 g / cm^3
# Si number density = 25.492775 Si / 1000 Ang^3
#
#
#
# Elastic Constant Matrix: (Units=GPa)
#
#
# Indices 1 2 3 4 5 6 
#
# 1 47.1046 12.4463 39.9283 0.0000 -10.6202 0.0000
# 2 12.4463 106.5742 78.3049 0.0000 16.8909 0.0000
# 3 39.9283 78.3049 285.8744 0.0000 -0.7298 0.0000
# 4 0.0000 0.0000 0.0000 59.0358 0.0000 7.9005
# 5 -10.6202 16.8909 -0.7298 0.0000 33.4008 0.0000
# 6 0.0000 0.0000 0.0000 7.9005 0.0000 24.0562
#
#
#
# Elastic Compliance Matrix: (Units=1/GPa)
#
#
# Indices 1 2 3 4 5 6 
#
# 1 0.026600 -0.002400 -0.003033 0.000000 0.009605 0.000000
# 2 -0.002400 0.013309 -0.003330 0.000000 -0.007566 0.000000
# 3 -0.003033 -0.003330 0.004836 0.000000 0.000825 0.000000
# 4 0.000000 0.000000 0.000000 0.017718 0.000000 -0.005819
# 5 0.009605 -0.007566 0.000825 0.000000 0.036838 0.000000
# 6 0.000000 0.000000 0.000000 -0.005819 0.000000 0.043480
#
#
# Mechanical properties :
#
#
# Convention : Reuss Voigt Hill
#
# Bulk Modulus (GPa) = 36.73900 77.87914 57.30907
# Shear Modulus (GPa) = 29.51936 43.89014 36.70475
#
# Velocity S-wave (km/s) = 3.40656 4.15380 3.79860
# Velocity P-wave (km/s) = 5.46952 7.32265 6.46285
#
# Compressibility (1/GPa) = 0.02721903
#
# Stress axis : x y z
#
# Youngs Moduli (GPa) = 37.59343 75.13693 206.78933
#
# Poissons Ratio (x) = 0.18034 0.62726
# Poissons Ratio (y) = 0.09023 0.68853
# Poissons Ratio (z) = 0.11403 0.25018
#
# Static dielectric constant tensor:
#      x y z
#    x 2.157150 0.000000 -0.000990 
#    y 0.000000 1.988360 0.000000 
#    z -0.000990 0.000000 1.984780 
# 
# From -- ./inp_files/45793.got.cif
#   From: 2010.05.17/outbox.cif.g08.bks.cpg/sg15_23_cif.got.tgz:45793.got - 2010.06.03 18:47:42.
