data_PCOD9265165
_publ_section_title
;
Structure prediction by ZEFSAII (Michael W. Deem and Ramdas Pophale) SiO2 
 PCOD9265165
Probable space group: C 2/C
;
_chemical_formula_sum "Si O2"
_cell_formula_units_Z 64
_cell_length_a 13.701033
_cell_length_b 12.030732
_cell_length_c 26.206027
_cell_angle_alpha 90.000000
_cell_angle_beta 144.862783
_cell_angle_gamma 90.000000
_cell_volume 2486.105024
_symmetry_space_group_name_H-M "C 2/C"
_symmetry_group_IT_number 15
_symmetry_cell_setting 'monoclinic'
loop_
_space_group_symop_operation_xyz
x,y,z
-x,y,1/2-z
-x,-y,-z
x,-y,1/2+z
1/2+x,1/2+y,z
1/2-x,1/2+y,1/2-z
1/2-x,1/2-y,-z
1/2+x,1/2-y,1/2+z
loop_
_atom_site_type_symbol
_atom_site_label
_atom_site_fract_x
_atom_site_fract_y
_atom_site_fract_z
Si Si1 0.145194 0.794537 0.879948
Si Si2 0.930417 0.572078 0.303571
Si Si3 0.689675 0.411349 0.507984
Si Si4 0.058943 0.863761 0.954825
Si Si5 0.777311 0.336558 0.437055
Si Si6 0.152144 0.354684 0.622176
Si Si7 0.695234 0.848814 0.269086
Si Si8 0.716610 0.722275 0.803812
O O1 0.113764 0.859431 0.918749
O O2 0.205542 0.872038 0.859468
O O3 0.977023 0.722720 0.798329
O O4 0.300327 0.709557 0.956300
O O5 0.831593 0.592330 0.314798
O O6 0.844707 0.474929 0.234591
O O7 0.926683 0.689031 0.272783
O O8 0.120702 0.540331 0.400582
O O9 0.562610 0.507153 0.470443
O O10 0.675190 0.384079 0.441531
O O11 0.694957 0.294047 0.538578
O O12 0.882069 0.800410 0.883031
O O13 0.699795 0.347337 0.348000
O O14 0.968113 0.384658 0.521834
O O15 0.166729 0.222289 0.641770
O O16 0.743967 0.846599 0.230209
#
# Coordination Sequence:
#
# PCOD9265165 Si02
#       8
#     8   8   8   8   8   8   8   8
#     4  10  19  36  58  86 117 146 180 238 294 337
#     4  10  22  39  58  84 115 153 193 235 288 347
#     4  10  22  39  57  83 117 151 191 241 288 338
#     4  10  20  35  59  88 114 141 188 241 287 338
#     4  10  22  39  58  81 114 154 197 236 282 338
#     4  10  21  37  59  83 115 154 190 235 290 345
#     4  10  21  38  58  85 120 148 186 240 293 339
#     4  10  22  39  60  85 115 151 193 238 285 344
#
# _framework density 25.743079999999999
#
# number of rings (size 3 to 8) (size 9 to 14) (size 15 to 20)
#    0.000    2.000    2.500    0.375    1.750    3.000 
#    2.250    2.500    0.000    0.000    0.000    0.000 
#    0.000    0.000    0.000    0.000    0.000    0.000 
#
# Total GULP energy -179220.517789 kJ/mol
# GULP energy per Si atom -5600.641181 kJ/mol
# Density = 2.568449 g / cm^3
# Si number density = 25.743080 Si / 1000 Ang^3
#
#
#
# Elastic Constant Matrix: (Units=GPa)
#
#
# Indices 1 2 3 4 5 6 
#
# 1 119.5732 -8.0655 31.0188 0.0000 -35.4540 0.0000
# 2 -8.0655 86.5957 -3.4025 0.0000 2.8822 0.0000
# 3 31.0188 -3.4025 98.2431 0.0000 -1.2330 0.0000
# 4 0.0000 0.0000 0.0000 9.6172 0.0000 7.0100
# 5 -35.4540 2.8822 -1.2330 0.0000 48.8193 0.0000
# 6 0.0000 0.0000 0.0000 7.0100 0.0000 -4.2165
#
#
#
# Elastic Compliance Matrix: (Units=1/GPa)
#
#
# Indices 1 2 3 4 5 6 
#
# 1 0.011862 0.000680 -0.003615 0.000000 0.008483 0.000000
# 2 0.000680 0.011625 0.000185 0.000000 -0.000187 0.000000
# 3 -0.003615 0.000185 0.011297 0.000000 -0.002351 0.000000
# 4 0.000000 0.000000 0.000000 0.047012 0.000000 0.078157
# 5 0.008483 -0.000187 -0.002351 0.000000 0.026596 0.000000
# 6 0.000000 0.000000 0.000000 0.078157 0.000000 -0.107226
#
#
# Mechanical properties :
#
#
# Convention : Reuss Voigt Hill
#
# Bulk Modulus (GPa) = 34.14679 38.16820 36.15749
# Shear Modulus (GPa) = 304.38236 29.83474 167.10855
#
# Velocity S-wave (km/s) = 10.88555 3.40802 8.06566
# Velocity P-wave (km/s) = 13.08766 5.50862 10.04071
#
# Compressibility (1/GPa) = 0.02928533
#
# Stress axis : x y z
#
# Youngs Moduli (GPa) = 84.30207 86.02282 88.51745
#
# Poissons Ratio (x) = -0.05853 0.32001
# Poissons Ratio (y) = -0.05736 -0.01641
# Poissons Ratio (z) = 0.30477 -0.01595
#
# Static dielectric constant tensor:
#      x y z
#    x 2.020980 0.000000 0.018730 
#    y 0.000000 1.976860 0.000000 
#    z 0.018730 0.000000 2.048330 
# 
# From -- ./inp_files/296167.got.cif
#   From: 2010.05.17/outbox.cif.g08.bks.cpg/sg15_149_cif.got.tgz:296167.got - 2010.06.03 18:47:42.
