data_PCOD9265743
_publ_section_title
;
Structure prediction by ZEFSAII (Michael W. Deem and Ramdas Pophale) SiO2 
 PCOD9265743
Probable space group: C 2/C
;
_chemical_formula_sum "Si O2"
_cell_formula_units_Z 56
_cell_length_a 7.751157
_cell_length_b 25.164813
_cell_length_c 14.674149
_cell_angle_alpha 90.000000
_cell_angle_beta 119.318349
_cell_angle_gamma 90.000000
_cell_volume 2495.663750
_symmetry_space_group_name_H-M "C 2/C"
_symmetry_group_IT_number 15
_symmetry_cell_setting 'monoclinic'
loop_
_space_group_symop_operation_xyz
x,y,z
-x,y,1/2-z
-x,-y,-z
x,-y,1/2+z
1/2+x,1/2+y,z
1/2-x,1/2+y,1/2-z
1/2-x,1/2-y,-z
1/2+x,1/2-y,1/2+z
loop_
_atom_site_type_symbol
_atom_site_label
_atom_site_fract_x
_atom_site_fract_y
_atom_site_fract_z
Si Si1 0.323410 0.794971 0.447803
Si Si2 0.797545 0.611672 0.271345
Si Si3 0.755764 0.645520 0.451604
Si Si4 0.094788 0.213376 0.174884
Si Si5 0.723070 0.055611 0.404141
Si Si6 0.054384 0.456907 0.431809
Si Si7 0.349212 0.406227 0.128787
O O1 0.250000 0.750000 0.500000
O O2 0.544251 0.820380 0.517579
O O3 0.334799 0.766452 0.353445
O O4 0.177026 0.844745 0.405729
O O5 0.696475 0.617405 0.341890
O O6 0.771425 0.670808 0.225146
O O7 0.694994 0.572913 0.172181
O O8 0.020179 0.591666 0.352157
O O9 0.579493 0.685451 0.430027
O O10 0.801717 0.593918 0.522645
O O11 0.000000 0.222378 0.250000
O O12 0.849844 0.065206 0.528543
O O13 0.646319 0.995789 0.382018
O O14 0.000000 0.500000 0.500000
O O15 0.848114 0.427476 0.373063
O O16 0.500000 0.413371 0.250000
#
# Coordination Sequence:
#
# PCOD9265743 Si02
#       7
#     8   8   8   8   8   8   8
#     4  11  22  39  68  91 127 178 220 263 327 390
#     4  10  19  36  65  87 122 153 216 264 308 380
#     4  10  20  40  62  89 133 162 209 271 324 385
#     4  10  23  38  60  97 127 167 211 268 329 382
#     4  10  19  37  65  89 123 160 213 265 317 378
#     4   9  17  37  61  85 120 170 199 248 327 378
#     4  10  21  38  59  92 127 164 212 265 319 390
#
# _framework density 22.438921000000001
#
# number of rings (size 3 to 8) (size 9 to 14) (size 15 to 20)
#    0.000    2.000    4.286    1.286    2.000    2.286 
#    5.143    2.143   22.000    0.000    0.000    0.000 
#    0.000    0.000    0.000    0.000    0.000    0.000 
#
# Total GULP energy -155944.195720 kJ/mol
# GULP energy per Si atom -5569.435561 kJ/mol
# Density = 2.238785 g / cm^3
# Si number density = 22.438921 Si / 1000 Ang^3
#
#
#
# Elastic Constant Matrix: (Units=GPa)
#
#
# Indices 1 2 3 4 5 6 
#
# 1 35.4320 16.0468 7.3746 0.0000 -1.1437 0.0000
# 2 16.0468 108.9311 21.3704 0.0000 -12.2053 0.0000
# 3 7.3746 21.3704 101.3058 0.0000 5.7001 0.0000
# 4 0.0000 0.0000 0.0000 2.2385 0.0000 -7.8022
# 5 -1.1437 -12.2053 5.7001 0.0000 30.8681 0.0000
# 6 0.0000 0.0000 0.0000 -7.8022 0.0000 11.7019
#
#
#
# Elastic Compliance Matrix: (Units=1/GPa)
#
#
# Indices 1 2 3 4 5 6 
#
# 1 0.030413 -0.004261 -0.001297 0.000000 -0.000319 0.000000
# 2 -0.004261 0.010745 -0.002210 0.000000 0.004499 0.000000
# 3 -0.001297 -0.002210 0.010594 0.000000 -0.002878 0.000000
# 4 0.000000 0.000000 0.000000 -0.337434 0.000000 -0.224983
# 5 -0.000319 0.004499 -0.002878 0.000000 0.034694 0.000000
# 6 0.000000 0.000000 0.000000 -0.224983 0.000000 -0.064550
#
#
# Mechanical properties :
#
#
# Convention : Reuss Voigt Hill
#
# Bulk Modulus (GPa) = 27.61247 37.25027 32.43137
# Shear Modulus (GPa) = -17.36534 22.35351 2.49409
#
# Velocity S-wave (km/s) = -2.78491 3.15968 1.05542
# Velocity P-wave (km/s) = 1.41115 5.47249 3.99622
#
# Compressibility (1/GPa) = 0.03621553
#
# Stress axis : x y z
#
# Youngs Moduli (GPa) = 32.88101 93.06260 94.39678
#
# Poissons Ratio (x) = 0.39658 0.12244
# Poissons Ratio (y) = 0.14012 0.20859
# Poissons Ratio (z) = 0.04265 0.20564
#
# Static dielectric constant tensor:
#      x y z
#    x 1.971090 0.000000 0.032870 
#    y 0.000000 1.862390 0.000000 
#    z 0.032870 0.000000 1.916370 
# 
# From -- ./inp_files/137941.got.cif
#   From: 2010.05.17/outbox.cif.g08.bks.cpg/sg15_69_cif.got.tgz:137941.got - 2010.06.03 18:47:42.
