data_PCOD9265099
_publ_section_title
;
Structure prediction by ZEFSAII (Michael W. Deem and Ramdas Pophale) SiO2 
 PCOD9265099
Probable space group: C 2/C
;
_chemical_formula_sum "Si O2"
_cell_formula_units_Z 56
_cell_length_a 7.527345
_cell_length_b 37.694337
_cell_length_c 18.662724
_cell_angle_alpha 90.000000
_cell_angle_beta 146.563852
_cell_angle_gamma 90.000000
_cell_volume 2917.765238
_symmetry_space_group_name_H-M "C 2/C"
_symmetry_group_IT_number 15
_symmetry_cell_setting 'monoclinic'
loop_
_space_group_symop_operation_xyz
x,y,z
-x,y,1/2-z
-x,-y,-z
x,-y,1/2+z
1/2+x,1/2+y,z
1/2-x,1/2+y,1/2-z
1/2-x,1/2-y,-z
1/2+x,1/2-y,1/2+z
loop_
_atom_site_type_symbol
_atom_site_label
_atom_site_fract_x
_atom_site_fract_y
_atom_site_fract_z
Si Si1 0.790521 0.166688 0.034170
Si Si2 0.887613 0.909369 0.595464
Si Si3 0.741746 0.785164 0.729738
Si Si4 0.794325 0.667814 0.995872
Si Si5 0.527635 0.907070 0.905924
Si Si6 0.824047 0.295199 0.266973
Si Si7 0.817401 0.966834 0.904518
O O1 0.837375 0.125642 0.030398
O O2 0.110094 0.188368 0.161642
O O3 0.590472 0.164062 0.040746
O O4 0.573915 0.188728 0.906992
O O5 0.605183 0.914702 0.558756
O O6 0.211302 0.901035 0.750159
O O7 0.954228 0.943866 0.570947
O O8 0.408430 0.801435 0.588531
O O9 0.720537 0.744985 0.749661
O O10 0.000000 0.784287 0.750000
O O11 0.485773 0.680094 0.847980
O O12 0.770021 0.629367 0.023901
O O13 0.706899 0.939934 0.930134
O O14 0.000000 0.294306 0.250000
O O15 0.500000 0.976316 0.750000
O O16 0.000000 0.000000 0.000000
#
# Coordination Sequence:
#
# PCOD9265099 Si02
#       7
#     8   8   8   8   8   8   8
#     4  10  19  36  58  77 107 150 195 241 286 341
#     4   9  18  36  63  87 110 151 198 234 278 342
#     4   9  18  35  57  77 105 146 197 243 292 339
#     4  10  19  36  58  77 107 150 195 241 286 341
#     4   9  18  36  63  87 110 151 198 234 278 342
#     4  11  23  33  47  81 119 150 183 241 300 342
#     4  10  22  40  62  90 122 148 184 234 290 348
#
# _framework density 19.192772000000001
#
# number of rings (size 3 to 8) (size 9 to 14) (size 15 to 20)
#    0.000    2.286    1.429    1.286    2.000    0.571 
#    2.571    2.143    0.000    0.000    0.000    0.000 
#    0.000    0.000    0.000    0.000    0.000    0.000 
#
# Total GULP energy -156297.268272 kJ/mol
# GULP energy per Si atom -5582.045295 kJ/mol
# Density = 1.914909 g / cm^3
# Si number density = 19.192772 Si / 1000 Ang^3
#
#
#
# Elastic Constant Matrix: (Units=GPa)
#
#
# Indices 1 2 3 4 5 6 
#
# 1 61.8486 32.9521 0.4523 0.0000 -8.6581 0.0000
# 2 32.9521 142.1975 46.9052 0.0000 -18.0107 0.0000
# 3 0.4523 46.9052 67.6924 0.0000 -17.3776 0.0000
# 4 0.0000 0.0000 0.0000 33.6555 0.0000 2.0142
# 5 -8.6581 -18.0107 -17.3776 0.0000 19.9568 0.0000
# 6 0.0000 0.0000 0.0000 2.0142 0.0000 8.3528
#
#
#
# Elastic Compliance Matrix: (Units=1/GPa)
#
#
# Indices 1 2 3 4 5 6 
#
# 1 0.020360 -0.005564 0.006050 0.000000 0.009080 0.000000
# 2 -0.005564 0.010832 -0.007184 0.000000 0.001106 0.000000
# 3 0.006050 -0.007184 0.024109 0.000000 0.017134 0.000000
# 4 0.000000 0.000000 0.000000 0.030148 0.000000 -0.007270
# 5 0.009080 0.001106 0.017134 0.000000 0.069965 0.000000
# 6 0.000000 0.000000 0.000000 -0.007270 0.000000 0.121474
#
#
# Mechanical properties :
#
#
# Convention : Reuss Voigt Hill
#
# Bulk Modulus (GPa) = 23.86387 48.03976 35.95181
# Shear Modulus (GPa) = 16.43378 25.15492 20.79435
#
# Velocity S-wave (km/s) = 2.92935 3.62421 3.29515
# Velocity P-wave (km/s) = 4.88899 6.52669 5.76628
#
# Compressibility (1/GPa) = 0.04190435
#
# Stress axis : x y z
#
# Youngs Moduli (GPa) = 49.11692 92.32187 41.47808
#
# Poissons Ratio (x) = 0.51365 -0.25094
# Poissons Ratio (y) = 0.27327 0.29800
# Poissons Ratio (z) = -0.29716 0.66328
#
# Static dielectric constant tensor:
#      x y z
#    x 1.721810 0.000000 -0.007120 
#    y 0.000000 1.660860 0.000000 
#    z -0.007120 0.000000 1.598990 
# 
# From -- ./inp_files/234957.got.cif
#   From: 2010.05.17/outbox.cif.g08.bks.cpg/sg15_118_cif.got.tgz:234957.got - 2010.06.03 18:47:42.
