data_PCOD9265965
_publ_section_title
;
Structure prediction by ZEFSAII (Michael W. Deem and Ramdas Pophale) SiO2 
 PCOD9265965
Probable space group: C 2/C
;
_chemical_formula_sum "Si O2"
_cell_formula_units_Z 60
_cell_length_a 18.028279
_cell_length_b 17.212916
_cell_length_c 10.620247
_cell_angle_alpha 90.000000
_cell_angle_beta 115.299869
_cell_angle_gamma 90.000000
_cell_volume 2979.558340
_symmetry_space_group_name_H-M "C 2/C"
_symmetry_group_IT_number 15
_symmetry_cell_setting 'monoclinic'
loop_
_space_group_symop_operation_xyz
x,y,z
-x,y,1/2-z
-x,-y,-z
x,-y,1/2+z
1/2+x,1/2+y,z
1/2-x,1/2+y,1/2-z
1/2-x,1/2-y,-z
1/2+x,1/2-y,1/2+z
loop_
_atom_site_type_symbol
_atom_site_label
_atom_site_fract_x
_atom_site_fract_y
_atom_site_fract_z
Si Si1 0.674789 0.085754 0.042752
Si Si2 0.500000 0.767008 0.750000
Si Si3 0.841629 0.742219 0.024307
Si Si4 0.432795 0.335500 0.614193
Si Si5 0.012467 0.321854 0.473827
Si Si6 0.220965 0.867842 0.123614
Si Si7 0.204068 0.797651 0.778390
Si Si8 0.852785 0.590118 0.912454
O O1 0.592031 0.134901 0.980971
O O2 0.737813 0.126775 0.186660
O O3 0.645675 0.999241 0.052156
O O4 0.725514 0.094618 0.950140
O O5 0.415166 0.722756 0.658385
O O6 0.517421 0.810724 0.629662
O O7 0.841471 0.776088 0.883471
O O8 0.854590 0.649000 0.031092
O O9 0.750000 0.750000 0.000000
O O10 0.500000 0.378291 0.750000
O O11 0.479778 0.263044 0.583998
O O12 0.375671 0.379462 0.470861
O O13 0.362511 0.307373 0.660573
O O14 0.930409 0.374014 0.390263
O O15 0.238184 0.775152 0.143584
O O16 0.265831 0.897813 0.280540
#
# Coordination Sequence:
#
# PCOD9265965 Si02
#       8
#     8   4   8   8   8   8   8   8
#     4  11  20  36  60  82 122 159 182 244 302 345
#     4  10  22  34  52  88 116 150 200 234 282 358
#     4  10  21  38  57  80 119 154 198 242 287 351
#     4  11  19  33  62  85 108 149 200 258 286 321
#     4  11  21  35  55  85 127 153 189 232 291 360
#     4  10  20  37  56  84 115 150 210 239 283 351
#     4  10  19  37  58  88 109 149 212 239 286 348
#     4  10  24  36  53  93 117 153 198 228 297 368
#
# _framework density 20.137212000000002
#
# number of rings (size 3 to 8) (size 9 to 14) (size 15 to 20)
#    0.000    1.600    2.667    4.400    1.867    3.200 
#    0.000    0.000    0.000    3.200    8.667    0.000 
#    0.000    0.000    0.000    0.000    0.000    0.000 
#
# Total GULP energy -167066.451107 kJ/mol
# GULP energy per Si atom -5568.881704 kJ/mol
# Density = 2.009138 g / cm^3
# Si number density = 20.137212 Si / 1000 Ang^3
#
#
#
# Elastic Constant Matrix: (Units=GPa)
#
#
# Indices 1 2 3 4 5 6 
#
# 1 94.0123 20.2168 18.3825 0.0000 27.6183 0.0000
# 2 20.2168 34.9582 -6.3736 0.0000 3.2146 0.0000
# 3 18.3825 -6.3736 103.4810 0.0000 28.6473 0.0000
# 4 0.0000 0.0000 0.0000 11.5504 0.0000 3.5738
# 5 27.6183 3.2146 28.6473 0.0000 40.0512 0.0000
# 6 0.0000 0.0000 0.0000 3.5738 0.0000 20.1733
#
#
#
# Elastic Compliance Matrix: (Units=1/GPa)
#
#
# Indices 1 2 3 4 5 6 
#
# 1 0.015265 -0.008066 -0.000591 0.000000 -0.009457 0.000000
# 2 -0.008066 0.033853 0.003404 0.000000 0.000410 0.000000
# 3 -0.000591 0.003404 0.012396 0.000000 -0.008732 0.000000
# 4 0.000000 0.000000 0.000000 0.091598 0.000000 -0.016227
# 5 -0.009457 0.000410 -0.008732 0.000000 0.037702 0.000000
# 6 0.000000 0.000000 0.000000 -0.016227 0.000000 0.052445
#
#
# Mechanical properties :
#
#
# Convention : Reuss Voigt Hill
#
# Bulk Modulus (GPa) = 19.60416 32.98923 26.29669
# Shear Modulus (GPa) = 18.46610 27.70336 23.08473
#
# Velocity S-wave (km/s) = 3.03151 3.71311 3.38948
# Velocity P-wave (km/s) = 4.69146 5.89921 5.32966
#
# Compressibility (1/GPa) = 0.05100958
#
# Stress axis : x y z
#
# Youngs Moduli (GPa) = 65.50923 29.53915 80.67393
#
# Poissons Ratio (x) = 0.23827 0.04765
# Poissons Ratio (y) = 0.52840 -0.27465
# Poissons Ratio (z) = 0.03869 -0.10057
#
# Static dielectric constant tensor:
#      x y z
#    x 1.479130 0.000000 -0.173950 
#    y 0.000000 1.712950 0.000000 
#    z -0.173950 0.000000 1.707570 
# 
# From -- ./inp_files/106707.got.cif
#   From: 2010.05.17/outbox.cif.g08.bks.cpg/sg15_54_cif.got.tgz:106707.got - 2010.06.03 18:47:42.
