data_PCOD9265801
_publ_section_title
;
Structure prediction by ZEFSAII (Michael W. Deem and Ramdas Pophale) SiO2 
 PCOD9265801
Probable space group: C 2/C
;
_chemical_formula_sum "Si O2"
_cell_formula_units_Z 52
_cell_length_a 7.743856
_cell_length_b 29.415415
_cell_length_c 11.392455
_cell_angle_alpha 90.000000
_cell_angle_beta 61.807329
_cell_angle_gamma 90.000000
_cell_volume 2287.203590
_symmetry_space_group_name_H-M "C 2/C"
_symmetry_group_IT_number 15
_symmetry_cell_setting 'monoclinic'
loop_
_space_group_symop_operation_xyz
x,y,z
-x,y,1/2-z
-x,-y,-z
x,-y,1/2+z
1/2+x,1/2+y,z
1/2-x,1/2+y,1/2-z
1/2-x,1/2-y,-z
1/2+x,1/2-y,1/2+z
loop_
_atom_site_type_symbol
_atom_site_label
_atom_site_fract_x
_atom_site_fract_y
_atom_site_fract_z
Si Si1 0.287102 0.823856 0.031621
Si Si2 0.811195 0.085112 0.464805
Si Si3 0.735925 0.760417 0.674463
Si Si4 0.281369 0.405708 0.574721
Si Si5 0.500000 0.947488 0.250000
Si Si6 0.083384 0.527390 0.364998
Si Si7 0.734794 0.841211 0.819230
O O1 0.198696 0.789585 0.961214
O O2 0.186356 0.872575 0.047766
O O3 0.508861 0.836215 0.928441
O O4 0.288441 0.792396 0.145828
O O5 0.628430 0.080322 0.614340
O O6 0.755915 0.056271 0.366886
O O7 0.835398 0.134962 0.398230
O O8 0.012883 0.071116 0.460583
O O9 0.500000 0.762027 0.750000
O O10 0.800675 0.790828 0.762596
O O11 0.098966 0.439739 0.614551
O O12 0.237471 0.372288 0.700170
O O13 0.643509 0.985718 0.261586
O O14 0.000000 0.500000 0.500000
#
# Coordination Sequence:
#
# PCOD9265801 Si02
#       7
#     8   8   8   8   4   8   8
#     4   9  17  33  60  91 125 162 211 258 324 370
#     4  11  23  41  65  96 128 173 217 263 327 387
#     4   8  16  31  57  95 123 162 208 264 310 387
#     4  11  21  38  67  98 123 170 222 264 313 403
#     4  10  24  42  60  90 140 162 210 280 320 382
#     4  10  22  41  64  90 125 170 215 262 326 376
#     4  10  19  36  67  93 126 174 216 259 327 386
#
# _framework density 22.735187
#
# number of rings (size 3 to 8) (size 9 to 14) (size 15 to 20)
#    0.000    2.154    1.538    2.769    0.000    2.462 
#    2.769    6.154    0.000   26.769    0.000    0.000 
#    0.000    0.000    0.000    0.000    0.000    0.000 
#
# Total GULP energy -144785.392585 kJ/mol
# GULP energy per Si atom -5568.668946 kJ/mol
# Density = 2.268344 g / cm^3
# Si number density = 22.735187 Si / 1000 Ang^3
#
#
#
# Elastic Constant Matrix: (Units=GPa)
#
#
# Indices 1 2 3 4 5 6 
#
# 1 130.8919 40.4610 13.6858 0.0000 -5.5172 0.0000
# 2 40.4610 109.1752 52.1018 0.0000 5.9094 0.0000
# 3 13.6858 52.1018 72.4560 0.0000 3.7028 0.0000
# 4 0.0000 0.0000 0.0000 60.3399 0.0000 5.4116
# 5 -5.5172 5.9094 3.7028 0.0000 14.7238 0.0000
# 6 0.0000 0.0000 0.0000 5.4116 0.0000 12.1931
#
#
#
# Elastic Compliance Matrix: (Units=1/GPa)
#
#
# Indices 1 2 3 4 5 6 
#
# 1 0.008992 -0.004055 0.000974 0.000000 0.004752 0.000000
# 2 -0.004055 0.015916 -0.010409 0.000000 -0.005290 0.000000
# 3 0.000974 -0.010409 0.021142 0.000000 -0.000774 0.000000
# 4 0.000000 0.000000 0.000000 0.017260 0.000000 -0.007660
# 5 0.004752 -0.005290 -0.000774 0.000000 0.072016 0.000000
# 6 0.000000 0.000000 0.000000 -0.007660 0.000000 0.085414
#
#
# Mechanical properties :
#
#
# Convention : Reuss Voigt Hill
#
# Bulk Modulus (GPa) = 52.43432 58.33559 55.38495
# Shear Modulus (GPa) = 19.67939 31.20298 25.44119
#
# Velocity S-wave (km/s) = 2.94529 3.70868 3.34881
# Velocity P-wave (km/s) = 5.88892 6.63728 6.27427
#
# Compressibility (1/GPa) = 0.01907148
#
# Stress axis : x y z
#
# Youngs Moduli (GPa) = 111.21470 62.83044 47.29995
#
# Poissons Ratio (x) = 0.25475 -0.04609
# Poissons Ratio (y) = 0.45092 0.49233
# Poissons Ratio (z) = -0.10836 0.65398
#
# Static dielectric constant tensor:
#      x y z
#    x 1.894650 0.000000 0.067590 
#    y 0.000000 1.976530 0.000000 
#    z 0.067590 0.000000 1.891220 
# 
# From -- ./inp_files/82103.got.cif
#   From: 2010.05.17/outbox.cif.g08.bks.cpg/sg15_42_cif.got.tgz:82103.got - 2010.06.03 18:47:42.
