data_PCOD9265470
_publ_section_title
;
Structure prediction by ZEFSAII (Michael W. Deem and Ramdas Pophale) SiO2 
 PCOD9265470
Probable space group: C 2/C
;
_chemical_formula_sum "Si O2"
_cell_formula_units_Z 60
_cell_length_a 15.395126
_cell_length_b 12.452604
_cell_length_c 13.711850
_cell_angle_alpha 90.000000
_cell_angle_beta 78.531475
_cell_angle_gamma 90.000000
_cell_volume 2576.206408
_symmetry_space_group_name_H-M "C 2/C"
_symmetry_group_IT_number 15
_symmetry_cell_setting 'monoclinic'
loop_
_space_group_symop_operation_xyz
x,y,z
-x,y,1/2-z
-x,-y,-z
x,-y,1/2+z
1/2+x,1/2+y,z
1/2-x,1/2+y,1/2-z
1/2-x,1/2-y,-z
1/2+x,1/2-y,1/2+z
loop_
_atom_site_type_symbol
_atom_site_label
_atom_site_fract_x
_atom_site_fract_y
_atom_site_fract_z
Si Si1 0.395475 0.957841 0.624138
Si Si2 0.478308 0.370903 0.934853
Si Si3 0.229347 0.392849 0.455836
Si Si4 0.605254 0.730834 0.557782
Si Si5 0.000000 0.771623 0.250000
Si Si6 0.896708 0.060345 0.639549
Si Si7 0.299278 0.990363 0.832133
Si Si8 0.054772 0.369496 0.090565
O O1 0.308091 0.009203 0.594119
O O2 0.356211 0.928263 0.737595
O O3 0.471750 0.048702 0.623321
O O4 0.427100 0.878790 0.530832
O O5 0.532806 0.461498 0.864651
O O6 0.460220 0.257110 0.886441
O O7 0.543973 0.344865 0.009354
O O8 0.397113 0.411924 0.021463
O O9 0.321103 0.341600 0.407299
O O10 0.152771 0.304136 0.468379
O O11 0.229097 0.416855 0.570945
O O12 0.549875 0.790726 0.653031
O O13 0.933360 0.846521 0.202112
O O14 0.794682 0.033798 0.686429
O O15 0.364018 0.081531 0.864688
#
# Coordination Sequence:
#
# PCOD9265470 Si02
#       8
#     8   8   8   8   4   8   8   8
#     4  10  21  39  60  88 129 163 208 256 318 379
#     4  10  20  41  63  81 124 163 203 251 317 377
#     4  10  20  36  62  89 120 164 201 263 310 366
#     4  10  19  36  61  88 117 155 212 254 315 360
#     4  10  22  38  62  90 116 160 208 266 294 382
#     4  10  22  40  62  89 119 164 209 256 310 373
#     4  11  22  38  62  94 127 160 210 258 314 377
#     4  10  22  40  61  90 124 172 202 261 321 373
#
# _framework density 23.29006
#
# number of rings (size 3 to 8) (size 9 to 14) (size 15 to 20)
#    0.000    1.867    2.667    1.200    0.000    2.667 
#    2.400    1.333    0.000    0.000    0.000    0.000 
#    0.000    0.000    0.000    0.000    0.000    0.000 
#
# Total GULP energy -167306.793636 kJ/mol
# GULP energy per Si atom -5576.893121 kJ/mol
# Density = 2.323705 g / cm^3
# Si number density = 23.290060 Si / 1000 Ang^3
#
#
#
# Elastic Constant Matrix: (Units=GPa)
#
#
# Indices 1 2 3 4 5 6 
#
# 1 63.2202 -9.9520 21.4775 0.0000 -10.0987 0.0000
# 2 -9.9520 40.1365 -6.0854 0.0000 9.7203 0.0000
# 3 21.4775 -6.0854 92.7000 0.0000 -7.9061 0.0000
# 4 0.0000 0.0000 0.0000 17.0992 0.0000 17.4626
# 5 -10.0987 9.7203 -7.9061 0.0000 22.8393 0.0000
# 6 0.0000 0.0000 0.0000 17.4626 0.0000 22.2563
#
#
#
# Elastic Compliance Matrix: (Units=1/GPa)
#
#
# Indices 1 2 3 4 5 6 
#
# 1 0.018371 0.002614 -0.003593 0.000000 0.005767 0.000000
# 2 0.002614 0.028214 0.000331 0.000000 -0.010737 0.000000
# 3 -0.003593 0.000331 0.011844 0.000000 0.002370 0.000000
# 4 0.000000 0.000000 0.000000 0.294314 0.000000 -0.230923
# 5 0.005767 -0.010737 0.002370 0.000000 0.051724 0.000000
# 6 0.000000 0.000000 0.000000 -0.230923 0.000000 0.226117
#
#
# Mechanical properties :
#
#
# Convention : Reuss Voigt Hill
#
# Bulk Modulus (GPa) = 17.50341 22.99297 20.24819
# Shear Modulus (GPa) = 7.68139 25.14675 16.41407
#
# Velocity S-wave (km/s) = 1.81805 3.28947 2.65763
# Velocity P-wave (km/s) = 3.45525 4.93167 4.25794
#
# Compressibility (1/GPa) = 0.05713173
#
# Stress axis : x y z
#
# Youngs Moduli (GPa) = 54.43369 35.44392 84.43234
#
# Poissons Ratio (x) = -0.09264 0.30336
# Poissons Ratio (y) = -0.14228 -0.02793
# Poissons Ratio (z) = 0.19558 -0.01172
#
# Static dielectric constant tensor:
#      x y z
#    x 1.912580 0.000000 -0.041390 
#    y 0.000000 1.938000 0.000000 
#    z -0.041390 0.000000 1.920580 
# 
# From -- ./inp_files/153921.got.cif
#   From: 2010.05.17/outbox.cif.g08.bks.cpg/sg15_77_cif.got.tgz:153921.got - 2010.06.03 18:47:42.
