data_PCOD9265087
_publ_section_title
;
Structure prediction by ZEFSAII (Michael W. Deem and Ramdas Pophale) SiO2 
 PCOD9265087
Probable space group: C 2/C
;
_chemical_formula_sum "Si O2"
_cell_formula_units_Z 60
_cell_length_a 19.269443
_cell_length_b 17.585245
_cell_length_c 8.620471
_cell_angle_alpha 90.000000
_cell_angle_beta 98.465449
_cell_angle_gamma 90.000000
_cell_volume 2889.288417
_symmetry_space_group_name_H-M "C 2/C"
_symmetry_group_IT_number 15
_symmetry_cell_setting 'monoclinic'
loop_
_space_group_symop_operation_xyz
x,y,z
-x,y,1/2-z
-x,-y,-z
x,-y,1/2+z
1/2+x,1/2+y,z
1/2-x,1/2+y,1/2-z
1/2-x,1/2-y,-z
1/2+x,1/2-y,1/2+z
loop_
_atom_site_type_symbol
_atom_site_label
_atom_site_fract_x
_atom_site_fract_y
_atom_site_fract_z
Si Si1 0.531101 0.074311 0.587655
Si Si2 0.194898 0.314601 0.435119
Si Si3 0.060693 0.889272 0.033774
Si Si4 0.500000 0.501166 0.750000
Si Si5 0.692160 0.412800 0.909760
Si Si6 0.531993 0.771711 0.433406
Si Si7 0.695932 0.084443 0.653597
Si Si8 0.274477 0.545674 0.386449
O O1 0.500000 0.077431 0.750000
O O2 0.507934 0.155382 0.508925
O O3 0.614150 0.067095 0.619726
O O4 0.500000 0.000000 0.500000
O O5 0.250000 0.250000 0.500000
O O6 0.227481 0.386690 0.538754
O O7 0.113968 0.296622 0.442535
O O8 0.203523 0.339795 0.259147
O O9 0.054360 0.940517 0.185075
O O10 0.138582 0.867891 0.000084
O O11 0.023678 0.807185 0.023610
O O12 0.030307 0.944329 0.889406
O O13 0.679914 0.408277 0.722736
O O14 0.681062 0.495995 0.978711
O O15 0.500000 0.757865 0.250000
O O16 0.724965 0.090437 0.488380
O O17 0.733975 0.016181 0.763645
#
# Coordination Sequence:
#
# PCOD9265087 Si02
#       8
#     8   8   8   4   8   8   8   8
#     4  11  22  37  61  92 125 174 215 258 315 382
#     4  11  21  38  62  86 118 171 215 256 325 383
#     4  11  21  42  64  93 123 161 211 256 322 379
#     4  10  24  38  68  96 120 158 210 266 310 388
#     4  10  20  36  63  86 122 161 202 260 318 382
#     4  11  22  41  65  87 127 175 211 259 324 390
#     4  10  19  36  57  88 125 160 217 264 311 386
#     4   9  20  34  58  91 121 155 202 268 317 370
#
# _framework density 20.766359000000001
#
# number of rings (size 3 to 8) (size 9 to 14) (size 15 to 20)
#    0.000    1.600    4.667    1.600    3.733    0.000 
#    1.200    0.667    0.000    0.000    0.000    0.000 
#    0.000    0.000    0.000    0.000    0.000    0.000 
#
# Total GULP energy -167137.680402 kJ/mol
# GULP energy per Si atom -5571.256013 kJ/mol
# Density = 2.071909 g / cm^3
# Si number density = 20.766359 Si / 1000 Ang^3
#
#
#
# Elastic Constant Matrix: (Units=GPa)
#
#
# Indices 1 2 3 4 5 6 
#
# 1 50.2965 8.6303 9.8739 0.0000 6.0596 0.0000
# 2 8.6303 101.7079 24.9757 0.0000 4.2506 0.0000
# 3 9.8739 24.9757 81.0184 0.0000 -13.8155 0.0000
# 4 0.0000 0.0000 0.0000 14.7882 0.0000 11.1204
# 5 6.0596 4.2506 -13.8155 0.0000 30.5394 0.0000
# 6 0.0000 0.0000 0.0000 11.1204 0.0000 27.8445
#
#
#
# Elastic Compliance Matrix: (Units=1/GPa)
#
#
# Indices 1 2 3 4 5 6 
#
# 1 0.021345 -0.000758 -0.003329 0.000000 -0.005635 0.000000
# 2 -0.000758 0.010963 -0.003816 0.000000 -0.003102 0.000000
# 3 -0.003329 -0.003816 0.015309 0.000000 0.008117 0.000000
# 4 0.000000 0.000000 0.000000 0.096647 0.000000 -0.038598
# 5 -0.005635 -0.003102 0.008117 0.000000 0.037966 0.000000
# 6 0.000000 0.000000 0.000000 -0.038598 0.000000 0.051329
#
#
# Mechanical properties :
#
#
# Convention : Reuss Voigt Hill
#
# Bulk Modulus (GPa) = 31.43571 35.55361 33.49466
# Shear Modulus (GPa) = 19.23308 27.27062 23.25185
#
# Velocity S-wave (km/s) = 3.04660 3.62776 3.34980
# Velocity P-wave (km/s) = 5.24846 5.89113 5.57906
#
# Compressibility (1/GPa) = 0.03181095
#
# Stress axis : x y z
#
# Youngs Moduli (GPa) = 46.85025 91.21459 65.32063
#
# Poissons Ratio (x) = 0.06917 0.21742
# Poissons Ratio (y) = 0.03553 0.24927
# Poissons Ratio (z) = 0.15594 0.34809
#
# Static dielectric constant tensor:
#      x y z
#    x 1.813430 0.000000 0.000310 
#    y 0.000000 1.858370 0.000000 
#    z 0.000310 0.000000 1.764470 
# 
# From -- ./inp_files/56636.got.cif
#   From: 2010.05.17/outbox.cif.g08.bks.cpg/sg15_29_cif.got.tgz:56636.got - 2010.06.03 18:47:42.
