data_PCOD9265581
_publ_section_title
;
Structure prediction by ZEFSAII (Michael W. Deem and Ramdas Pophale) SiO2 
 PCOD9265581
Probable space group: C 2/C
;
_chemical_formula_sum "Si O2"
_cell_formula_units_Z 40
_cell_length_a 7.953560
_cell_length_b 12.157070
_cell_length_c 17.999993
_cell_angle_alpha 90.000000
_cell_angle_beta 59.326263
_cell_angle_gamma 90.000000
_cell_volume 1496.941386
_symmetry_space_group_name_H-M "C 2/C"
_symmetry_group_IT_number 15
_symmetry_cell_setting 'monoclinic'
loop_
_space_group_symop_operation_xyz
x,y,z
-x,y,1/2-z
-x,-y,-z
x,-y,1/2+z
1/2+x,1/2+y,z
1/2-x,1/2+y,1/2-z
1/2-x,1/2-y,-z
1/2+x,1/2-y,1/2+z
loop_
_atom_site_type_symbol
_atom_site_label
_atom_site_fract_x
_atom_site_fract_y
_atom_site_fract_z
Si Si1 0.000000 0.262147 0.750000
Si Si2 0.295569 0.688734 0.389905
Si Si3 0.838852 0.460215 0.702850
Si Si4 0.000000 0.354986 0.250000
Si Si5 0.083272 0.179094 0.576150
Si Si6 0.322387 0.981209 0.481193
O O1 0.848958 0.349972 0.749252
O O2 0.909729 0.191339 0.836522
O O3 0.295105 0.579519 0.335584
O O4 0.461860 0.772877 0.327658
O O5 0.260302 0.638206 0.479025
O O6 0.109284 0.759762 0.406943
O O7 0.822378 0.565954 0.760457
O O8 0.056999 0.487514 0.619744
O O9 0.250000 0.250000 0.500000
O O10 0.137541 0.059173 0.535914
O O11 0.500000 0.000000 0.500000
#
# Coordination Sequence:
#
# PCOD9265581 Si02
#       6
#     4   8   8   4   8   8
#     4   9  18  33  62  90 118 163 202 249 304 362
#     4  10  23  39  61  89 121 163 203 255 307 363
#     4   9  20  39  60  84 123 161 195 257 304 358
#     4  11  24  41  58  90 126 153 214 249 304 372
#     4  11  19  37  63  94 121 162 209 244 313 367
#     4  10  19  36  62  89 125 157 204 256 302 367
#
# _framework density 26.721153000000001
#
# number of rings (size 3 to 8) (size 9 to 14) (size 15 to 20)
#    0.000    2.000    6.000    0.000    0.000    9.600 
#    0.000    1.000    0.000    0.000    0.000    0.000 
#    0.000    0.000    0.000    0.000    0.000    0.000 
#
# Total GULP energy -111680.087808 kJ/mol
# GULP energy per Si atom -5584.004390 kJ/mol
# Density = 2.666033 g / cm^3
# Si number density = 26.721153 Si / 1000 Ang^3
#
#
#
# Elastic Constant Matrix: (Units=GPa)
#
#
# Indices 1 2 3 4 5 6 
#
# 1 47.4029 26.8950 21.1659 0.0000 10.2895 0.0000
# 2 26.8950 184.0762 46.2465 0.0000 -12.1994 0.0000
# 3 21.1659 46.2465 136.6151 0.0000 11.3184 0.0000
# 4 0.0000 0.0000 0.0000 57.1784 0.0000 1.4718
# 5 10.2895 -12.1994 11.3184 0.0000 33.4577 0.0000
# 6 0.0000 0.0000 0.0000 1.4718 0.0000 40.3358
#
#
#
# Elastic Compliance Matrix: (Units=1/GPa)
#
#
# Indices 1 2 3 4 5 6 
#
# 1 0.026101 -0.003892 -0.002000 0.000000 -0.008770 0.000000
# 2 -0.003892 0.006810 -0.002065 0.000000 0.004379 0.000000
# 3 -0.002000 -0.002065 0.008581 0.000000 -0.003041 0.000000
# 4 0.000000 0.000000 0.000000 0.017506 0.000000 -0.000639
# 5 -0.008770 0.004379 -0.003041 0.000000 0.035211 0.000000
# 6 0.000000 0.000000 0.000000 -0.000639 0.000000 0.024815
#
#
# Mechanical properties :
#
#
# Convention : Reuss Voigt Hill
#
# Bulk Modulus (GPa) = 39.09709 61.85653 50.47681
# Shear Modulus (GPa) = 34.85224 44.44686 39.64955
#
# Velocity S-wave (km/s) = 3.61542 4.08285 3.85623
# Velocity P-wave (km/s) = 5.66495 6.73984 6.22563
#
# Compressibility (1/GPa) = 0.02557735
#
# Stress axis : x y z
#
# Youngs Moduli (GPa) = 38.31337 146.83718 116.54142
#
# Poissons Ratio (x) = 0.57154 0.23304
# Poissons Ratio (y) = 0.14913 0.24067
# Poissons Ratio (z) = 0.07661 0.30324
#
# Static dielectric constant tensor:
#      x y z
#    x 2.223870 0.000000 0.002160 
#    y 0.000000 2.221130 0.000000 
#    z 0.002160 0.000000 2.164110 
# 
# From -- ./inp_files/141799.got.cif
#   From: 2010.05.17/outbox.cif.g08.bks.cpg/sg15_71_cif.got.tgz:141799.got - 2010.06.03 18:47:42.
