data_PCOD9265665
_publ_section_title
;
Structure prediction by ZEFSAII (Michael W. Deem and Ramdas Pophale) SiO2 
 PCOD9265665
Probable space group: C 2/C
;
_chemical_formula_sum "Si O2"
_cell_formula_units_Z 48
_cell_length_a 14.914499
_cell_length_b 15.629192
_cell_length_c 9.663914
_cell_angle_alpha 90.000000
_cell_angle_beta 82.163827
_cell_angle_gamma 90.000000
_cell_volume 2231.637957
_symmetry_space_group_name_H-M "C 2/C"
_symmetry_group_IT_number 15
_symmetry_cell_setting 'monoclinic'
loop_
_space_group_symop_operation_xyz
x,y,z
-x,y,1/2-z
-x,-y,-z
x,-y,1/2+z
1/2+x,1/2+y,z
1/2-x,1/2+y,1/2-z
1/2-x,1/2-y,-z
1/2+x,1/2-y,1/2+z
loop_
_atom_site_type_symbol
_atom_site_label
_atom_site_fract_x
_atom_site_fract_y
_atom_site_fract_z
Si Si1 0.792925 0.914449 0.606016
Si Si2 0.800168 0.637189 0.107633
Si Si3 0.137598 0.439323 0.414530
Si Si4 0.767957 0.111241 0.670248
Si Si5 0.913756 0.835604 0.354189
Si Si6 0.503471 0.156881 0.401324
O O1 0.765305 0.859290 0.746049
O O2 0.706174 0.910291 0.522329
O O3 0.878040 0.885057 0.496994
O O4 0.803770 0.013469 0.648200
O O5 0.841551 0.539917 0.100224
O O6 0.894619 0.686966 0.091014
O O7 0.745118 0.648601 0.978601
O O8 0.170906 0.398071 0.264852
O O9 0.040001 0.406082 0.478312
O O10 0.831831 0.160609 0.762424
O O11 0.941783 0.741049 0.396729
O O12 0.000000 0.870783 0.250000
O O13 0.500000 0.113755 0.250000
#
# Coordination Sequence:
#
# PCOD9265665 Si02
#       6
#     8   8   8   8   8   8
#     4   9  18  37  63  88 117 158 203 245 297 351
#     4  10  19  36  63  92 119 155 202 249 294 350
#     4   9  18  35  61  91 122 161 193 239 301 364
#     4   9  20  37  62  91 114 152 210 252 288 344
#     4  10  23  41  60  87 119 164 201 239 308 362
#     4  11  21  36  58  90 129 161 192 235 306 378
#
# _framework density 21.508865
#
# number of rings (size 3 to 8) (size 9 to 14) (size 15 to 20)
#    0.000    2.333    1.667    1.500    0.000    4.000 
#    0.000    4.167    7.333    0.000    0.000    0.000 
#    0.000    0.000    0.000    0.000    0.000    0.000 
#
# Total GULP energy -133989.443225 kJ/mol
# GULP energy per Si atom -5582.893468 kJ/mol
# Density = 2.145991 g / cm^3
# Si number density = 21.508865 Si / 1000 Ang^3
#
#
#
# Elastic Constant Matrix: (Units=GPa)
#
#
# Indices 1 2 3 4 5 6 
#
# 1 79.5435 35.1847 34.1193 0.0000 -25.2402 0.0000
# 2 35.1847 67.4926 35.4083 0.0000 -15.3029 0.0000
# 3 34.1193 35.4083 119.9247 0.0000 -28.3488 0.0000
# 4 0.0000 0.0000 0.0000 14.6544 0.0000 -2.0568
# 5 -25.2402 -15.3029 -28.3488 0.0000 51.9799 0.0000
# 6 0.0000 0.0000 0.0000 -2.0568 0.0000 26.5503
#
#
#
# Elastic Compliance Matrix: (Units=1/GPa)
#
#
# Indices 1 2 3 4 5 6 
#
# 1 0.018419 -0.007397 -0.001672 0.000000 0.005854 0.000000
# 2 -0.007397 0.020835 -0.003956 0.000000 0.000384 0.000000
# 3 -0.001672 -0.003956 0.010923 0.000000 0.003981 0.000000
# 4 0.000000 0.000000 0.000000 0.068989 0.000000 0.005345
# 5 0.005854 0.000384 0.003981 0.000000 0.024365 0.000000
# 6 0.000000 0.000000 0.000000 0.005345 0.000000 0.038078
#
#
# Mechanical properties :
#
#
# Convention : Reuss Voigt Hill
#
# Bulk Modulus (GPa) = 41.44969 52.93174 47.19072
# Shear Modulus (GPa) = 23.17998 29.45349 26.31674
#
# Velocity S-wave (km/s) = 3.28639 3.70451 3.50169
# Velocity P-wave (km/s) = 5.80631 6.55443 6.19168
#
# Compressibility (1/GPa) = 0.02412563
#
# Stress axis : x y z
#
# Youngs Moduli (GPa) = 54.29296 47.99517 91.54604
#
# Poissons Ratio (x) = 0.35503 0.15310
# Poissons Ratio (y) = 0.40162 0.36219
# Poissons Ratio (z) = 0.09080 0.18989
#
# Static dielectric constant tensor:
#      x y z
#    x 1.782790 0.000000 -0.011490 
#    y 0.000000 1.853780 0.000000 
#    z -0.011490 0.000000 1.786860 
# 
# From -- ./inp_files/39623.got.cif
#   From: 2010.05.17/outbox.cif.g08.bks.cpg/sg15_20_cif.got.tgz:39623.got - 2010.06.03 18:47:42.
