data_PCOD9265933
_publ_section_title
;
Structure prediction by ZEFSAII (Michael W. Deem and Ramdas Pophale) SiO2 
 PCOD9265933
Probable space group: C 2/C
;
_chemical_formula_sum "Si O2"
_cell_formula_units_Z 48
_cell_length_a 18.819308
_cell_length_b 25.996352
_cell_length_c 12.209658
_cell_angle_alpha 90.000000
_cell_angle_beta 153.178151
_cell_angle_gamma 90.000000
_cell_volume 2695.292250
_symmetry_space_group_name_H-M "C 2/C"
_symmetry_group_IT_number 15
_symmetry_cell_setting 'monoclinic'
loop_
_space_group_symop_operation_xyz
x,y,z
-x,y,1/2-z
-x,-y,-z
x,-y,1/2+z
1/2+x,1/2+y,z
1/2-x,1/2+y,1/2-z
1/2-x,1/2-y,-z
1/2+x,1/2-y,1/2+z
loop_
_atom_site_type_symbol
_atom_site_label
_atom_site_fract_x
_atom_site_fract_y
_atom_site_fract_z
Si Si1 0.186544 0.571601 0.478080
Si Si2 0.763773 0.398672 0.121457
Si Si3 0.865948 0.201443 0.155412
Si Si4 0.449398 0.383225 0.467638
Si Si5 0.732619 0.456992 0.854335
Si Si6 0.925613 0.556740 0.407080
O O1 0.301225 0.615820 0.681846
O O2 0.250132 0.518496 0.619922
O O3 0.193878 0.565526 0.356808
O O4 0.000000 0.576209 0.250000
O O5 0.623760 0.401612 0.016448
O O6 0.929001 0.404947 0.407877
O O7 0.744850 0.343943 0.040381
O O8 0.761437 0.439083 0.018838
O O9 0.000000 0.212884 0.250000
O O10 0.960043 0.171064 0.383874
O O11 0.750000 0.250000 0.000000
O O12 0.572267 0.427577 0.602640
O O13 0.854947 0.438055 0.930822
O O14 0.000000 0.500000 0.500000
#
# Coordination Sequence:
#
# PCOD9265933 Si02
#       6
#     8   8   8   8   8   8
#     4  12  21  34  54  75 117 164 192 227 273 336
#     4  10  19  37  58  82 113 147 189 236 283 336
#     4   9  20  37  61  87 108 136 180 241 298 338
#     4  10  22  38  55  83 113 148 192 235 290 334
#     4  11  21  34  52  80 115 154 196 240 266 320
#     4  12  21  33  52  81 115 157 200 222 273 335
#
# _framework density 17.80883
#
# number of rings (size 3 to 8) (size 9 to 14) (size 15 to 20)
#    0.000    1.333    5.000    2.500    0.000    3.333 
#    3.000    0.000    0.000    1.000    0.000    0.000 
#    0.000    4.000    0.000    0.000    0.000    0.000 
#
# Total GULP energy -133640.463249 kJ/mol
# GULP energy per Si atom -5568.352635 kJ/mol
# Density = 1.776830 g / cm^3
# Si number density = 17.808830 Si / 1000 Ang^3
#
#
#
# Elastic Constant Matrix: (Units=GPa)
#
#
# Indices 1 2 3 4 5 6 
#
# 1 48.6797 8.7233 12.1890 0.0000 2.6047 0.0000
# 2 8.7233 84.9071 49.2618 0.0000 10.4027 0.0000
# 3 12.1890 49.2618 100.9834 0.0000 0.7865 0.0000
# 4 0.0000 0.0000 0.0000 26.5057 0.0000 11.4005
# 5 2.6047 10.4027 0.7865 0.0000 31.1549 0.0000
# 6 0.0000 0.0000 0.0000 11.4005 0.0000 14.2513
#
#
#
# Elastic Compliance Matrix: (Units=1/GPa)
#
#
# Indices 1 2 3 4 5 6 
#
# 1 0.021304 -0.000728 -0.002205 0.000000 -0.001482 0.000000
# 2 -0.000728 0.017370 -0.008342 0.000000 -0.005528 0.000000
# 3 -0.002205 -0.008342 0.014218 0.000000 0.002611 0.000000
# 4 0.000000 0.000000 0.000000 0.057518 0.000000 -0.046012
# 5 -0.001482 -0.005528 0.002611 0.000000 0.034002 0.000000
# 6 0.000000 0.000000 0.000000 -0.046012 0.000000 0.106976
#
#
# Mechanical properties :
#
#
# Convention : Reuss Voigt Hill
#
# Bulk Modulus (GPa) = 32.95795 41.65761 37.30778
# Shear Modulus (GPa) = 17.60236 25.34213 21.47225
#
# Velocity S-wave (km/s) = 3.14730 3.77637 3.47610
# Velocity P-wave (km/s) = 5.63507 6.51590 6.09143
#
# Compressibility (1/GPa) = 0.03034169
#
# Stress axis : x y z
#
# Youngs Moduli (GPa) = 46.93894 57.57097 70.33322
#
# Poissons Ratio (x) = 0.04191 0.15507
# Poissons Ratio (y) = 0.03417 0.58675
# Poissons Ratio (z) = 0.10349 0.48028
#
# Static dielectric constant tensor:
#      x y z
#    x 1.658990 0.000000 0.008870 
#    y 0.000000 1.616990 0.000000 
#    z 0.008870 0.000000 1.696010 
# 
# From -- ./inp_files/90981.got.cif
#   From: 2010.05.17/outbox.cif.g08.bks.cpg/sg15_46_cif.got.tgz:90981.got - 2010.06.03 18:47:42.
