data_PCOD9265145
_publ_section_title
;
Structure prediction by ZEFSAII (Michael W. Deem and Ramdas Pophale) SiO2 
 PCOD9265145
Probable space group: C 2/C
;
_chemical_formula_sum "Si O2"
_cell_formula_units_Z 44
_cell_length_a 14.122053
_cell_length_b 29.291723
_cell_length_c 8.054060
_cell_angle_alpha 90.000000
_cell_angle_beta 38.951187
_cell_angle_gamma 90.000000
_cell_volume 2094.460213
_symmetry_space_group_name_H-M "C 2/C"
_symmetry_group_IT_number 15
_symmetry_cell_setting 'monoclinic'
loop_
_space_group_symop_operation_xyz
x,y,z
-x,y,1/2-z
-x,-y,-z
x,-y,1/2+z
1/2+x,1/2+y,z
1/2-x,1/2+y,1/2-z
1/2-x,1/2-y,-z
1/2+x,1/2-y,1/2+z
loop_
_atom_site_type_symbol
_atom_site_label
_atom_site_fract_x
_atom_site_fract_y
_atom_site_fract_z
Si Si1 0.115848 0.430922 0.856382
Si Si2 0.361085 0.146615 0.756804
Si Si3 0.416332 0.319148 0.042441
Si Si4 0.500000 0.998279 0.250000
Si Si5 0.923779 0.280725 0.670941
Si Si6 0.299752 0.352146 0.662324
O O1 0.976451 0.394675 0.061956
O O2 0.120956 0.463085 0.010199
O O3 0.078488 0.467674 0.769121
O O4 0.262154 0.400380 0.631265
O O5 0.451332 0.193915 0.611986
O O6 0.290751 0.144864 0.036550
O O7 0.228449 0.150423 0.802590
O O8 0.500000 0.313927 0.750000
O O9 0.531682 0.341408 0.014789
O O10 0.383898 0.268545 0.153687
O O11 0.000000 0.279049 0.750000
O O12 0.777991 0.313031 0.843287
#
# Coordination Sequence:
#
# PCOD9265145 Si02
#       6
#     8   8   8   4   8   8
#     4  10  19  36  58  85 103 134 175 225 265 319
#     4  10  20  36  56  79 110 143 184 219 261 316
#     4  10  21  36  55  76 109 153 183 215 259 315
#     4  10  20  34  62  82 104 130 176 224 272 318
#     4  11  22  34  52  80 111 146 187 224 257 304
#     4  10  20  36  56  79 110 143 184 219 261 316
#
# _framework density 21.007798000000001
#
# number of rings (size 3 to 8) (size 9 to 14) (size 15 to 20)
#    0.000    1.818    1.818    3.818    5.091    5.818 
#    0.000    0.000    0.000    6.545    0.000    0.000 
#    0.000    0.000    0.000    0.000    0.000    0.000 
#
# Total GULP energy -122913.655672 kJ/mol
# GULP energy per Si atom -5586.984349 kJ/mol
# Density = 2.095998 g / cm^3
# Si number density = 21.007798 Si / 1000 Ang^3
#
#
#
# Elastic Constant Matrix: (Units=GPa)
#
#
# Indices 1 2 3 4 5 6 
#
# 1 142.9324 59.7047 18.0781 0.0000 -22.2387 0.0000
# 2 59.7047 147.5968 24.3367 0.0000 -9.9353 0.0000
# 3 18.0781 24.3367 29.3623 0.0000 -4.5830 0.0000
# 4 0.0000 0.0000 0.0000 6.9644 0.0000 9.1761
# 5 -22.2387 -9.9353 -4.5830 0.0000 34.8386 0.0000
# 6 0.0000 0.0000 0.0000 9.1761 0.0000 36.0577
#
#
#
# Elastic Compliance Matrix: (Units=1/GPa)
#
#
# Indices 1 2 3 4 5 6 
#
# 1 0.009320 -0.003042 -0.002475 0.000000 0.004756 0.000000
# 2 -0.003042 0.008909 -0.005531 0.000000 -0.000129 0.000000
# 3 -0.002475 -0.005531 0.040505 0.000000 0.002171 0.000000
# 4 0.000000 0.000000 0.000000 0.216017 0.000000 -0.054973
# 5 0.004756 -0.000129 0.002171 0.000000 0.031989 0.000000
# 6 0.000000 0.000000 0.000000 -0.054973 0.000000 0.041723
#
#
# Mechanical properties :
#
#
# Convention : Reuss Voigt Hill
#
# Bulk Modulus (GPa) = 27.29431 58.23674 42.76552
# Shear Modulus (GPa) = 13.06265 30.09028 21.57646
#
# Velocity S-wave (km/s) = 2.49630 3.78873 3.20827
# Velocity P-wave (km/s) = 4.61837 6.84989 5.84167
#
# Compressibility (1/GPa) = 0.03663767
#
# Stress axis : x y z
#
# Youngs Moduli (GPa) = 107.29697 112.24507 24.68859
#
# Poissons Ratio (x) = 0.34143 0.06109
# Poissons Ratio (y) = 0.32638 0.13656
# Poissons Ratio (z) = 0.26552 0.62088
#
# Static dielectric constant tensor:
#      x y z
#    x 1.791040 0.000000 0.046220 
#    y 0.000000 1.692860 0.000000 
#    z 0.046220 0.000000 1.862120 
# 
# From -- ./inp_files/32766.got.cif
#   From: 2010.05.17/outbox.cif.g08.bks.cpg/sg15_17_cif.got.tgz:32766.got - 2010.06.03 18:47:42.
