data_PCOD9265756
_publ_section_title
;
Structure prediction by ZEFSAII (Michael W. Deem and Ramdas Pophale) SiO2 
 PCOD9265756
Probable space group: C 2/C
;
_chemical_formula_sum "Si O2"
_cell_formula_units_Z 64
_cell_length_a 17.301901
_cell_length_b 11.361376
_cell_length_c 28.407837
_cell_angle_alpha 90.000000
_cell_angle_beta 35.761431
_cell_angle_gamma 90.000000
_cell_volume 3263.485807
_symmetry_space_group_name_H-M "C 2/C"
_symmetry_group_IT_number 15
_symmetry_cell_setting 'monoclinic'
loop_
_space_group_symop_operation_xyz
x,y,z
-x,y,1/2-z
-x,-y,-z
x,-y,1/2+z
1/2+x,1/2+y,z
1/2-x,1/2+y,1/2-z
1/2-x,1/2-y,-z
1/2+x,1/2-y,1/2+z
loop_
_atom_site_type_symbol
_atom_site_label
_atom_site_fract_x
_atom_site_fract_y
_atom_site_fract_z
Si Si1 0.892638 0.324339 0.586946
Si Si2 0.704120 0.810773 0.238641
Si Si3 0.525061 0.994361 0.868351
Si Si4 0.210732 0.443536 0.956562
Si Si5 0.195359 0.694639 0.923875
Si Si6 0.430634 0.845081 0.829791
Si Si7 0.135764 0.856475 0.249372
Si Si8 0.006415 0.110167 0.304378
O O1 0.801343 0.215058 0.647015
O O2 0.829759 0.392917 0.574342
O O3 0.909360 0.415032 0.622785
O O4 0.039837 0.285632 0.500670
O O5 0.799934 0.799806 0.236298
O O6 0.589755 0.714592 0.286622
O O7 0.632729 0.933233 0.285501
O O8 0.449495 0.915357 0.867953
O O9 0.414047 0.076500 0.947680
O O10 0.221287 0.585229 0.946073
O O11 0.355327 0.395213 0.896982
O O12 0.280442 0.808303 0.895105
O O13 0.252792 0.652116 0.845694
O O14 0.500000 0.904489 0.750000
O O15 0.512962 0.724161 0.795024
O O16 0.081881 0.988649 0.279334
O O17 0.000000 0.119768 0.250000
#
# Coordination Sequence:
#
# PCOD9265756 Si02
#       8
#     8   8   8   8   8   8   8   8
#     4  11  22  39  63  97 125 162 216 267 324 374
#     4  12  24  37  62  88 131 166 209 261 321 382
#     4  11  24  40  59  95 129 167 205 270 324 385
#     4  11  21  39  66  96 123 160 217 268 318 369
#     4  10  19  36  65  92 124 159 212 272 312 372
#     4  10  21  38  62  89 125 168 206 254 322 387
#     4  11  20  39  63  95 122 164 211 262 315 378
#     4  12  22  40  66  95 124 170 218 260 317 381
#
# _framework density 19.610932999999999
#
# number of rings (size 3 to 8) (size 9 to 14) (size 15 to 20)
#    0.000    1.000    5.000    4.125    0.000    4.000 
#    0.000    0.000    0.000    1.500    0.000    0.000 
#    0.000    0.000    0.000    0.000    0.000    0.000 
#
# Total GULP energy -178645.738396 kJ/mol
# GULP energy per Si atom -5582.679325 kJ/mol
# Density = 1.956630 g / cm^3
# Si number density = 19.610933 Si / 1000 Ang^3
#
#
#
# Elastic Constant Matrix: (Units=GPa)
#
#
# Indices 1 2 3 4 5 6 
#
# 1 105.4451 32.9688 28.8015 0.0000 -8.5342 0.0000
# 2 32.9688 36.6097 35.9144 0.0000 3.8730 0.0000
# 3 28.8015 35.9144 117.7619 0.0000 -25.5441 0.0000
# 4 0.0000 0.0000 0.0000 16.7795 0.0000 8.7963
# 5 -8.5342 3.8730 -25.5441 0.0000 32.3787 0.0000
# 6 0.0000 0.0000 0.0000 8.7963 0.0000 22.3882
#
#
#
# Elastic Compliance Matrix: (Units=1/GPa)
#
#
# Indices 1 2 3 4 5 6 
#
# 1 0.014834 -0.018142 0.003889 0.000000 0.009148 0.000000
# 2 -0.018142 0.070759 -0.024148 0.000000 -0.032297 0.000000
# 3 0.003889 -0.024148 0.019007 0.000000 0.018908 0.000000
# 4 0.000000 0.000000 0.000000 0.075056 0.000000 -0.029489
# 5 0.009148 -0.032297 0.018908 0.000000 0.052076 0.000000
# 6 0.000000 0.000000 0.000000 -0.029489 0.000000 0.056252
#
#
# Mechanical properties :
#
#
# Convention : Reuss Voigt Hill
#
# Bulk Modulus (GPa) = 35.97409 50.57625 43.27517
# Shear Modulus (GPa) = 13.36710 25.11807 19.24259
#
# Velocity S-wave (km/s) = 2.61361 3.58274 3.13584
# Velocity P-wave (km/s) = 5.24325 6.55442 5.93515
#
# Compressibility (1/GPa) = 0.02779778
#
# Stress axis : x y z
#
# Youngs Moduli (GPa) = 67.41257 14.13239 52.61315
#
# Poissons Ratio (x) = 0.25639 -0.20462
# Poissons Ratio (y) = 1.22299 1.27053
# Poissons Ratio (z) = -0.26218 0.34128
#
# Static dielectric constant tensor:
#      x y z
#    x 1.699190 0.000000 -0.001750 
#    y 0.000000 1.687610 0.000000 
#    z -0.001750 0.000000 1.729370 
# 
# From -- ./inp_files/296127.got.cif
#   From: 2010.05.17/outbox.cif.g08.bks.cpg/sg15_149_cif.got.tgz:296127.got - 2010.06.03 18:47:42.
