data_PCOD9265013
_publ_section_title
;
Structure prediction by ZEFSAII (Michael W. Deem and Ramdas Pophale) SiO2 
 PCOD9265013
Probable space group: C 2/C
;
_chemical_formula_sum "Si O2"
_cell_formula_units_Z 56
_cell_length_a 10.850321
_cell_length_b 13.115185
_cell_length_c 19.258256
_cell_angle_alpha 90.000000
_cell_angle_beta 105.106480
_cell_angle_gamma 90.000000
_cell_volume 2645.822311
_symmetry_space_group_name_H-M "C 2/C"
_symmetry_group_IT_number 15
_symmetry_cell_setting 'monoclinic'
loop_
_space_group_symop_operation_xyz
x,y,z
-x,y,1/2-z
-x,-y,-z
x,-y,1/2+z
1/2+x,1/2+y,z
1/2-x,1/2+y,1/2-z
1/2-x,1/2-y,-z
1/2+x,1/2-y,1/2+z
loop_
_atom_site_type_symbol
_atom_site_label
_atom_site_fract_x
_atom_site_fract_y
_atom_site_fract_z
Si Si1 0.318419 0.317692 0.908540
Si Si2 0.842568 0.474741 0.928446
Si Si3 0.579226 0.168014 0.474308
Si Si4 0.429342 0.533776 0.920263
Si Si5 0.001437 0.735608 0.668587
Si Si6 0.910176 0.965102 0.671145
Si Si7 0.221471 0.651825 0.950326
O O1 0.182249 0.315770 0.927798
O O2 0.342975 0.434447 0.891224
O O3 0.359861 0.252903 0.846416
O O4 0.417670 0.274130 0.982062
O O5 0.741180 0.478007 0.851584
O O6 0.952349 0.390539 0.929709
O O7 0.881195 0.587059 0.959233
O O8 0.781276 0.435681 0.992077
O O9 0.535810 0.542537 0.877839
O O10 0.336486 0.628185 0.915641
O O11 0.500000 0.500000 0.000000
O O12 0.935057 0.847607 0.652391
O O13 0.910021 0.661990 0.610856
O O14 0.000000 0.709733 0.750000
O O15 0.000000 0.979689 0.750000
O O16 0.250000 0.750000 0.000000
#
# Coordination Sequence:
#
# PCOD9265013 Si02
#       7
#     8   8   8   8   8   8   8
#     4  10  19  36  56  87 121 154 196 246 307 363
#     4  11  20  36  57  90 123 156 205 243 310 377
#     4  10  21  33  58  90 122 158 194 251 302 374
#     4  11  20  34  61  88 113 149 206 260 300 361
#     4  10  21  37  60  84 119 158 201 252 312 368
#     4  10  21  39  60  86 119 159 202 265 317 360
#     4  12  20  35  60  90 114 150 203 257 295 359
#
# _framework density 21.165441999999999
#
# number of rings (size 3 to 8) (size 9 to 14) (size 15 to 20)
#    0.000    1.429    5.714    0.857    0.000    0.000 
#    2.571    0.000    0.000    6.857    0.000    0.000 
#    0.000    0.000    0.000    0.000    0.000    0.000 
#
# Total GULP energy -156060.358578 kJ/mol
# GULP energy per Si atom -5573.584235 kJ/mol
# Density = 2.111727 g / cm^3
# Si number density = 21.165442 Si / 1000 Ang^3
#
#
#
# Elastic Constant Matrix: (Units=GPa)
#
#
# Indices 1 2 3 4 5 6 
#
# 1 123.1975 15.0699 50.3919 0.0000 5.4204 0.0000
# 2 15.0699 64.6345 8.7274 0.0000 3.9272 0.0000
# 3 50.3919 8.7274 98.2577 0.0000 11.3559 0.0000
# 4 0.0000 0.0000 0.0000 16.0742 0.0000 -7.5362
# 5 5.4204 3.9272 11.3559 0.0000 31.4830 0.0000
# 6 0.0000 0.0000 0.0000 -7.5362 0.0000 33.2926
#
#
#
# Elastic Compliance Matrix: (Units=1/GPa)
#
#
# Indices 1 2 3 4 5 6 
#
# 1 0.010464 -0.001750 -0.005247 0.000000 0.000309 0.000000
# 2 -0.001750 0.016022 -0.000344 0.000000 -0.001573 0.000000
# 3 -0.005247 -0.000344 0.013346 0.000000 -0.003868 0.000000
# 4 0.000000 0.000000 0.000000 0.069598 0.000000 0.015754
# 5 0.000309 -0.001573 -0.003868 0.000000 0.033301 0.000000
# 6 0.000000 0.000000 0.000000 0.015754 0.000000 0.033603
#
#
# Mechanical properties :
#
#
# Convention : Reuss Voigt Hill
#
# Bulk Modulus (GPa) = 39.76125 48.27422 44.01773
# Shear Modulus (GPa) = 25.07566 30.29665 27.68616
#
# Velocity S-wave (km/s) = 3.44575 3.78752 3.62067
# Velocity P-wave (km/s) = 5.88707 6.47955 6.19040
#
# Compressibility (1/GPa) = 0.02515012
#
# Stress axis : x y z
#
# Youngs Moduli (GPa) = 95.57009 62.41558 74.93123
#
# Poissons Ratio (x) = 0.10923 0.39313
# Poissons Ratio (y) = 0.16725 0.02576
# Poissons Ratio (z) = 0.50142 0.02146
#
# Static dielectric constant tensor:
#      x y z
#    x 1.901670 0.000000 0.008970 
#    y 0.000000 1.865000 0.000000 
#    z 0.008970 0.000000 1.761690 
# 
# From -- ./inp_files/238430.got.cif
#   From: 2010.05.17/outbox.cif.g08.bks.cpg/sg15_120_cif.got.tgz:238430.got - 2010.06.03 18:47:42.
