data_PCOD9265786
_publ_section_title
;
Structure prediction by ZEFSAII (Michael W. Deem and Ramdas Pophale) SiO2 
 PCOD9265786
Probable space group: C 2/C
;
_chemical_formula_sum "Si O2"
_cell_formula_units_Z 36
_cell_length_a 7.336140
_cell_length_b 22.941079
_cell_length_c 12.511254
_cell_angle_alpha 90.000000
_cell_angle_beta 127.033882
_cell_angle_gamma 90.000000
_cell_volume 1680.882134
_symmetry_space_group_name_H-M "C 2/C"
_symmetry_group_IT_number 15
_symmetry_cell_setting 'monoclinic'
loop_
_space_group_symop_operation_xyz
x,y,z
-x,y,1/2-z
-x,-y,-z
x,-y,1/2+z
1/2+x,1/2+y,z
1/2-x,1/2+y,1/2-z
1/2-x,1/2-y,-z
1/2+x,1/2-y,1/2+z
loop_
_atom_site_type_symbol
_atom_site_label
_atom_site_fract_x
_atom_site_fract_y
_atom_site_fract_z
Si Si1 0.500000 0.621351 0.750000
Si Si2 0.516316 0.715394 0.944054
Si Si3 0.454182 0.052860 0.854444
Si Si4 0.243930 0.434544 0.654153
Si Si5 0.267212 0.809928 0.737980
O O1 0.510044 0.661564 0.859514
O O2 0.728200 0.583367 0.820833
O O3 0.308400 0.757944 0.837571
O O4 0.750000 0.750000 0.000000
O O5 0.556138 0.698595 0.081708
O O6 0.500000 0.070552 0.750000
O O7 0.417616 0.983124 0.849453
O O8 0.661420 0.070272 0.003669
O O9 0.500000 0.457461 0.750000
O O10 0.241319 0.372100 0.708639
O O11 0.500000 0.809703 0.750000
#
# Coordination Sequence:
#
# PCOD9265786 Si02
#       5
#     4   8   8   8   8
#     4  12  22  42  72 104 140 170 236 278 328 414
#     4  10  19  36  66  97 131 181 226 267 338 396
#     4  11  26  45  70 101 136 182 225 280 342 399
#     4  11  25  46  64 101 138 176 231 281 335 407
#     4  10  20  38  65  95 129 179 229 270 332 404
#
# _framework density 21.417327
#
# number of rings (size 3 to 8) (size 9 to 14) (size 15 to 20)
#    0.000    1.333    4.444    3.333    3.111    2.667 
#    0.000    2.222    0.000    0.000    0.000    0.000 
#    0.000    0.000    0.000    0.000    0.000    0.000 
#
# Total GULP energy -100595.000873 kJ/mol
# GULP energy per Si atom -5588.611160 kJ/mol
# Density = 2.136858 g / cm^3
# Si number density = 21.417327 Si / 1000 Ang^3
#
#
#
# Elastic Constant Matrix: (Units=GPa)
#
#
# Indices 1 2 3 4 5 6 
#
# 1 37.5874 7.1380 36.6335 0.0000 0.1352 0.0000
# 2 7.1380 131.0285 78.9006 0.0000 -13.2072 0.0000
# 3 36.6335 78.9006 224.7615 0.0000 -0.4997 0.0000
# 4 0.0000 0.0000 0.0000 20.4050 0.0000 1.3070
# 5 0.1352 -13.2072 -0.4997 0.0000 19.3460 0.0000
# 6 0.0000 0.0000 0.0000 1.3070 0.0000 26.1783
#
#
#
# Elastic Compliance Matrix: (Units=1/GPa)
#
#
# Indices 1 2 3 4 5 6 
#
# 1 0.031964 0.001885 -0.005869 0.000000 0.000912 0.000000
# 2 0.001885 0.010687 -0.004043 0.000000 0.007178 0.000000
# 3 -0.005869 -0.004043 0.006819 0.000000 -0.002543 0.000000
# 4 0.000000 0.000000 0.000000 0.049165 0.000000 -0.002455
# 5 0.000912 0.007178 -0.002543 0.000000 0.056519 0.000000
# 6 0.000000 0.000000 0.000000 -0.002455 0.000000 0.038322
#
#
# Mechanical properties :
#
#
# Convention : Reuss Voigt Hill
#
# Bulk Modulus (GPa) = 29.92598 70.96905 50.44752
# Shear Modulus (GPa) = 22.65830 31.23287 26.94558
#
# Velocity S-wave (km/s) = 3.25613 3.82291 3.55085
# Velocity P-wave (km/s) = 5.30468 7.25909 6.35744
#
# Compressibility (1/GPa) = 0.03341578
#
# Stress axis : x y z
#
# Youngs Moduli (GPa) = 31.28531 93.56877 146.64055
#
# Poissons Ratio (x) = -0.17637 0.86069
# Poissons Ratio (y) = -0.05897 0.59286
# Poissons Ratio (z) = 0.18363 0.37829
#
# Static dielectric constant tensor:
#      x y z
#    x 1.745570 0.000000 -0.001040 
#    y 0.000000 1.780840 0.000000 
#    z -0.001040 0.000000 1.783850 
# 
# From -- ./inp_files/23098.got.cif
#   From: 2010.05.17/outbox.cif.g08.bks.cpg/sg15_12_cif.got.tgz:23098.got - 2010.06.03 18:47:42.
