data_PCOD9265171
_publ_section_title
;
Structure prediction by ZEFSAII (Michael W. Deem and Ramdas Pophale) SiO2 
 PCOD9265171
Probable space group: C 2/C
;
_chemical_formula_sum "Si O2"
_cell_formula_units_Z 56
_cell_length_a 9.253825
_cell_length_b 15.417610
_cell_length_c 29.470018
_cell_angle_alpha 90.000000
_cell_angle_beta 39.062902
_cell_angle_gamma 90.000000
_cell_volume 2649.589951
_symmetry_space_group_name_H-M "C 2/C"
_symmetry_group_IT_number 15
_symmetry_cell_setting 'monoclinic'
loop_
_space_group_symop_operation_xyz
x,y,z
-x,y,1/2-z
-x,-y,-z
x,-y,1/2+z
1/2+x,1/2+y,z
1/2-x,1/2+y,1/2-z
1/2-x,1/2-y,-z
1/2+x,1/2-y,1/2+z
loop_
_atom_site_type_symbol
_atom_site_label
_atom_site_fract_x
_atom_site_fract_y
_atom_site_fract_z
Si Si1 0.089422 0.860300 0.890170
Si Si2 0.784577 0.469015 0.099009
Si Si3 0.082263 0.638804 0.472665
Si Si4 0.596159 0.329223 0.464017
Si Si5 0.387129 0.553762 0.622203
Si Si6 0.000000 0.079145 0.750000
Si Si7 0.000000 0.687229 0.750000
Si Si8 0.121054 0.711884 0.818394
O O1 0.209195 0.784444 0.832296
O O2 0.846947 0.861396 0.922525
O O3 0.202733 0.955308 0.861361
O O4 0.018167 0.840173 0.959073
O O5 0.936335 0.554859 0.054712
O O6 0.595378 0.455948 0.106133
O O7 0.649868 0.474067 0.178239
O O8 0.941786 0.384892 0.052277
O O9 0.024936 0.731777 0.466146
O O10 0.531161 0.405084 0.445286
O O11 0.875783 0.325602 0.396223
O O12 0.204895 0.622731 0.685382
O O13 0.815150 0.138671 0.769232
O O14 0.930793 0.739315 0.721262
#
# Coordination Sequence:
#
# PCOD9265171 Si02
#       8
#     8   8   8   8   8   4   4   8
#     4  10  19  36  58  88 108 152 200 248 286 364
#     4  10  20  35  56  84 117 151 197 251 298 348
#     4   9  19  36  56  81 116 151 195 247 296 352
#     4  10  19  36  59  84 112 156 198 240 301 360
#     4  10  21  35  56  80 120 153 192 248 296 348
#     4  12  20  35  61  88 112 158 198 254 284 368
#     4  10  20  41  55  82 118 168 188 240 302 366
#     4  10  21  35  62  82 119 153 199 238 303 353
#
# _framework density 21.135345000000001
#
# number of rings (size 3 to 8) (size 9 to 14) (size 15 to 20)
#    0.000    2.000    1.429    3.857    0.000    1.143 
#    0.000   11.429    0.000    0.000    0.000    0.000 
#    0.000    0.000    0.000    0.000    0.000    0.000 
#
# Total GULP energy -156086.095368 kJ/mol
# GULP energy per Si atom -5574.503406 kJ/mol
# Density = 2.108724 g / cm^3
# Si number density = 21.135345 Si / 1000 Ang^3
#
#
#
# Elastic Constant Matrix: (Units=GPa)
#
#
# Indices 1 2 3 4 5 6 
#
# 1 43.3027 10.1550 8.3482 -0.0004 24.9006 -0.0008
# 2 10.1550 76.9059 15.1616 0.0000 20.6188 0.0002
# 3 8.3482 15.1616 94.1719 0.0162 23.6279 0.0070
# 4 -0.0004 0.0000 0.0162 22.5011 -0.0056 0.6049
# 5 24.9006 20.6188 23.6279 -0.0056 39.6797 -0.0034
# 6 -0.0008 0.0002 0.0070 0.6049 -0.0034 13.8696
#
#
#
# Elastic Compliance Matrix: (Units=1/GPa)
#
#
# Indices 1 2 3 4 5 6 
#
# 1 0.036963 0.001427 0.002938 -0.000008 -0.025687 -0.000005
# 2 0.001427 0.015186 -0.000431 -0.000002 -0.008530 -0.000002
# 3 0.002938 -0.000431 0.012737 -0.000011 -0.009204 -0.000008
# 4 -0.000008 -0.000002 -0.000011 0.044494 0.000019 -0.001940
# 5 -0.025687 -0.008530 -0.009204 0.000019 0.051235 0.000015
# 6 -0.000005 -0.000002 -0.000008 -0.001940 0.000015 0.072185
#
#
# Mechanical properties :
#
#
# Convention : Reuss Voigt Hill
#
# Bulk Modulus (GPa) = 13.74487 31.30110 22.52299
# Shear Modulus (GPa) = 20.06547 27.25779 23.66163
#
# Velocity S-wave (km/s) = 3.08454 3.59510 3.34957
# Velocity P-wave (km/s) = 4.38215 5.66348 5.06351
#
# Compressibility (1/GPa) = 0.07275440
#
# Stress axis : x y z
#
# Youngs Moduli (GPa) = 27.05408 65.84828 78.50979
#
# Poissons Ratio (x) = -0.09395 -0.23070
# Poissons Ratio (y) = -0.03860 0.03386
# Poissons Ratio (z) = -0.07950 0.02840
#
# Static dielectric constant tensor:
#      x y z
#    x 1.769890 0.000000 0.009790 
#    y 0.000000 1.830270 -0.000010 
#    z 0.009790 -0.000010 1.861860 
# 
# From -- ./inp_files/238345.got.cif
#   From: 2010.05.17/outbox.cif.g08.bks.cpg/sg15_120_cif.got.tgz:238345.got - 2010.06.03 18:47:42.
