data_PCOD9265620
_publ_section_title
;
Structure prediction by ZEFSAII (Michael W. Deem and Ramdas Pophale) SiO2 
 PCOD9265620
Probable space group: C 2/C
;
_chemical_formula_sum "Si O2"
_cell_formula_units_Z 40
_cell_length_a 8.899266
_cell_length_b 18.423613
_cell_length_c 18.568763
_cell_angle_alpha 90.000000
_cell_angle_beta 35.053547
_cell_angle_gamma 90.000000
_cell_volume 1748.567269
_symmetry_space_group_name_H-M "C 2/C"
_symmetry_group_IT_number 15
_symmetry_cell_setting 'monoclinic'
loop_
_space_group_symop_operation_xyz
x,y,z
-x,y,1/2-z
-x,-y,-z
x,-y,1/2+z
1/2+x,1/2+y,z
1/2-x,1/2+y,1/2-z
1/2-x,1/2-y,-z
1/2+x,1/2-y,1/2+z
loop_
_atom_site_type_symbol
_atom_site_label
_atom_site_fract_x
_atom_site_fract_y
_atom_site_fract_z
Si Si1 0.986268 0.858348 0.168434
Si Si2 0.950127 0.520558 0.688552
Si Si3 0.035368 0.424952 0.942001
Si Si4 0.215933 0.865010 0.516278
Si Si5 0.906397 0.244574 0.204866
O O1 0.776092 0.918873 0.227060
O O2 0.878451 0.781136 0.184682
O O3 0.000000 0.858610 0.250000
O O4 0.266840 0.883766 0.031779
O O5 0.000000 0.498693 0.750000
O O6 0.856146 0.454718 0.675251
O O7 0.213549 0.560352 0.553095
O O8 0.190645 0.377504 0.938220
O O9 0.000000 0.500000 0.000000
O O10 0.402191 0.806314 0.403995
O O11 0.943142 0.824047 0.637256
O O12 0.000000 0.233836 0.250000
#
# Coordination Sequence:
#
# PCOD9265620 Si02
#       5
#     8   8   8   8   8
#     4  11  18  35  64  91 124 169 207 255 319 372
#     4  10  21  38  63  95 130 160 206 265 321 368
#     4  10  19  36  62  97 122 163 211 254 318 385
#     4   9  18  36  61  86 120 167 212 244 316 377
#     4  10  20  36  61  88 118 169 214 256 304 368
#
# _framework density 22.875871
#
# number of rings (size 3 to 8) (size 9 to 14) (size 15 to 20)
#    0.000    2.000    6.000    2.400    0.000    0.800 
#    7.200    1.000    8.800    0.000    0.000    0.000 
#    0.000    0.000    0.000    0.000    0.000    0.000 
#
# Total GULP energy -111551.239878 kJ/mol
# GULP energy per Si atom -5577.561994 kJ/mol
# Density = 2.282380 g / cm^3
# Si number density = 22.875871 Si / 1000 Ang^3
#
#
#
# Elastic Constant Matrix: (Units=GPa)
#
#
# Indices 1 2 3 4 5 6 
#
# 1 52.7634 -20.7618 32.8199 0.0094 34.7133 -0.0174
# 2 -20.7618 31.7219 67.7616 -0.0408 4.2534 -0.0155
# 3 32.8199 67.7616 22.6672 -0.0777 12.1222 -0.0251
# 4 0.0094 -0.0408 -0.0777 -3.0716 0.0026 4.8040
# 5 34.7133 4.2534 12.1222 0.0026 47.3357 0.0316
# 6 -0.0174 -0.0155 -0.0251 4.8040 0.0316 14.0865
#
#
#
# Elastic Compliance Matrix: (Units=1/GPa)
#
#
# Indices 1 2 3 4 5 6 
#
# 1 0.018253 -0.009825 0.011156 -0.000004 -0.015360 0.000067
# 2 -0.009825 0.000183 0.011394 -0.000208 0.004271 0.000070
# 3 0.011156 0.011394 -0.001360 -0.000014 -0.008857 0.000049
# 4 -0.000004 -0.000208 -0.000014 -0.212315 -0.000011 0.072407
# 5 -0.015360 0.004271 -0.008857 -0.000011 0.034274 -0.000103
# 6 0.000067 0.000070 0.000049 0.072407 -0.000103 0.046297
#
#
# Mechanical properties :
#
#
# Convention : Reuss Voigt Hill
#
# Bulk Modulus (GPa) = 23.51520 29.64356 26.57938
# Shear Modulus (GPa) = -39.70058 13.49232 -13.10413
#
# Velocity S-wave (km/s) = -4.17043 2.43123 -2.39600
# Velocity P-wave (km/s) = 3.59001 4.56812 1.99744
#
# Compressibility (1/GPa) = 0.04252569
#
# Stress axis : x y z
#
# Youngs Moduli (GPa) = 54.78672 5465.44340 -735.43334
#
# Poissons Ratio (x) = 53.69566 8.20443
# Poissons Ratio (y) = 0.53826 8.37923
# Poissons Ratio (z) = -0.61120 -62.27102
#
# Static dielectric constant tensor:
#      x y z
#    x 1.798680 -0.000080 -0.022810 
#    y -0.000080 1.866400 0.000060 
#    z -0.022810 0.000060 1.908880 
# 
# From -- ./inp_files/191902.got.cif
#   From: 2010.05.17/outbox.cif.g08.bks.cpg/sg15_96_cif.got.tgz:191902.got - 2010.06.03 18:47:42.
