data_PCOD9265487
_publ_section_title
;
Structure prediction by ZEFSAII (Michael W. Deem and Ramdas Pophale) SiO2 
 PCOD9265487
Probable space group: C 2/C
;
_chemical_formula_sum "Si O2"
_cell_formula_units_Z 56
_cell_length_a 13.769548
_cell_length_b 13.241752
_cell_length_c 18.582422
_cell_angle_alpha 90.000000
_cell_angle_beta 121.268390
_cell_angle_gamma 90.000000
_cell_volume 2896.037514
_symmetry_space_group_name_H-M "C 2/C"
_symmetry_group_IT_number 15
_symmetry_cell_setting 'monoclinic'
loop_
_space_group_symop_operation_xyz
x,y,z
-x,y,1/2-z
-x,-y,-z
x,-y,1/2+z
1/2+x,1/2+y,z
1/2-x,1/2+y,1/2-z
1/2-x,1/2-y,-z
1/2+x,1/2-y,1/2+z
loop_
_atom_site_type_symbol
_atom_site_label
_atom_site_fract_x
_atom_site_fract_y
_atom_site_fract_z
Si Si1 0.676956 0.693087 0.911854
Si Si2 0.269039 0.175650 0.208091
Si Si3 0.045269 0.660003 0.982042
Si Si4 0.445403 0.775179 0.301305
Si Si5 0.730731 0.047714 0.774364
Si Si6 0.182156 0.524772 0.588434
Si Si7 0.425022 0.707635 0.872613
O O1 0.702278 0.750621 0.846830
O O2 0.722302 0.580010 0.920676
O O3 0.545776 0.693665 0.881660
O O4 0.750000 0.750000 0.000000
O O5 0.146118 0.203972 0.193744
O O6 0.359647 0.203419 0.304633
O O7 0.276145 0.059175 0.188782
O O8 0.142725 0.580331 0.039723
O O9 0.055885 0.754773 0.039019
O O10 0.037482 0.693012 0.896388
O O11 0.927245 0.600179 0.952949
O O12 0.500000 0.731967 0.250000
O O13 0.373389 0.875526 0.252087
O O14 0.723526 0.019783 0.686756
O O15 0.844186 0.110478 0.834908
#
# Coordination Sequence:
#
# PCOD9265487 Si02
#       7
#     8   8   8   8   8   8   8
#     4  12  22  38  62  96 123 157 203 264 313 369
#     4  11  22  41  58  90 127 161 201 259 309 367
#     4  10  19  38  64  87 121 166 202 255 303 365
#     4  10  22  42  62  86 120 164 210 253 300 368
#     4  10  22  40  61  90 125 159 204 257 312 363
#     4  10  19  36  61  89 125 157 202 251 310 364
#     4  11  21  38  65  92 123 161 205 254 318 364
#
# _framework density 19.336766000000001
#
# number of rings (size 3 to 8) (size 9 to 14) (size 15 to 20)
#    0.000    1.429    7.143    0.429    0.000    2.286 
#    2.571    5.714    0.000    0.000    0.000    0.000 
#    0.000    0.000    0.000    0.000    0.000    0.000 
#
# Total GULP energy -156377.063129 kJ/mol
# GULP energy per Si atom -5584.895112 kJ/mol
# Density = 1.929275 g / cm^3
# Si number density = 19.336766 Si / 1000 Ang^3
#
#
#
# Elastic Constant Matrix: (Units=GPa)
#
#
# Indices 1 2 3 4 5 6 
#
# 1 71.8185 26.3375 43.2060 0.0000 0.6731 0.0000
# 2 26.3375 72.3216 14.1725 0.0000 12.4370 0.0000
# 3 43.2060 14.1725 96.4948 0.0000 -3.1201 0.0000
# 4 0.0000 0.0000 0.0000 20.9993 0.0000 -2.3926
# 5 0.6731 12.4370 -3.1201 0.0000 21.7819 0.0000
# 6 0.0000 0.0000 0.0000 -2.3926 0.0000 8.1561
#
#
#
# Elastic Compliance Matrix: (Units=1/GPa)
#
#
# Indices 1 2 3 4 5 6 
#
# 1 0.021436 -0.006427 -0.008597 0.000000 0.001776 0.000000
# 2 -0.006427 0.017909 -0.000077 0.000000 -0.010038 0.000000
# 3 -0.008597 -0.000077 0.014300 0.000000 0.002358 0.000000
# 4 0.000000 0.000000 0.000000 0.049267 0.000000 0.014453
# 5 0.001776 -0.010038 0.002358 0.000000 0.051924 0.000000
# 6 0.000000 0.000000 0.000000 0.014453 0.000000 0.126847
#
#
# Mechanical properties :
#
#
# Convention : Reuss Voigt Hill
#
# Bulk Modulus (GPa) = 42.65634 45.34077 43.99855
# Shear Modulus (GPa) = 15.63966 20.64871 18.14418
#
# Velocity S-wave (km/s) = 2.84703 3.27134 3.06653
# Velocity P-wave (km/s) = 5.73717 6.14555 5.94486
#
# Compressibility (1/GPa) = 0.02344317
#
# Stress axis : x y z
#
# Youngs Moduli (GPa) = 46.65028 55.83757 69.92983
#
# Poissons Ratio (x) = 0.35888 0.60117
# Poissons Ratio (y) = 0.29983 0.00540
# Poissons Ratio (z) = 0.40104 0.00431
#
# Static dielectric constant tensor:
#      x y z
#    x 1.657060 0.000000 0.002840 
#    y 0.000000 1.690180 0.000000 
#    z 0.002840 0.000000 1.691130 
# 
# From -- ./inp_files/198421.got.cif
#   From: 2010.05.17/outbox.cif.g08.bks.cpg/sg15_100_cif.got.tgz:198421.got - 2010.06.03 18:47:42.
