data_PCOD9265238
_publ_section_title
;
Structure prediction by ZEFSAII (Michael W. Deem and Ramdas Pophale) SiO2 
 PCOD9265238
Probable space group: C 2/C
;
_chemical_formula_sum "Si O2"
_cell_formula_units_Z 56
_cell_length_a 27.143314
_cell_length_b 12.281197
_cell_length_c 9.984034
_cell_angle_alpha 90.000000
_cell_angle_beta 133.956900
_cell_angle_gamma 90.000000
_cell_volume 2395.846312
_symmetry_space_group_name_H-M "C 2/C"
_symmetry_group_IT_number 15
_symmetry_cell_setting 'monoclinic'
loop_
_space_group_symop_operation_xyz
x,y,z
-x,y,1/2-z
-x,-y,-z
x,-y,1/2+z
1/2+x,1/2+y,z
1/2-x,1/2+y,1/2-z
1/2-x,1/2-y,-z
1/2+x,1/2-y,1/2+z
loop_
_atom_site_type_symbol
_atom_site_label
_atom_site_fract_x
_atom_site_fract_y
_atom_site_fract_z
Si Si1 0.424386 0.113774 0.451920
Si Si2 0.199218 0.005891 0.915627
Si Si3 0.328451 0.286821 0.278512
Si Si4 0.226208 0.203873 0.307976
Si Si5 0.574809 0.583286 0.335230
Si Si6 0.164134 0.589826 0.720000
Si Si7 0.065386 0.683871 0.726597
O O1 0.371190 0.194801 0.280936
O O2 0.500144 0.125584 0.536011
O O3 0.434377 0.166814 0.615475
O O4 0.390522 0.999632 0.423455
O O5 0.202330 0.917468 0.799059
O O6 0.126489 0.996586 0.854355
O O7 0.211599 0.128016 0.889124
O O8 0.261653 0.965674 0.128078
O O9 0.283490 0.223586 0.304413
O O10 0.380388 0.367515 0.457568
O O11 0.250000 0.250000 0.500000
O O12 0.169501 0.293840 0.158058
O O13 0.500000 0.548734 0.250000
O O14 0.563803 0.685716 0.211940
O O15 0.133455 0.625658 0.805052
#
# Coordination Sequence:
#
# PCOD9265238 Si02
#       7
#     8   8   8   8   8   8   8
#     4  10  21  37  58  85 114 153 199 244 299 354
#     4  11  23  37  60  92 122 155 202 250 303 360
#     4  11  22  36  60  89 119 156 200 248 303 358
#     4  10  19  36  59  84 116 154 201 243 285 358
#     4  11  19  39  61  83 115 159 209 245 288 356
#     4  11  21  34  60  87 118 151 194 249 306 350
#     4  10  19  37  61  84 109 155 207 250 283 356
#
# _framework density 23.373787
#
# number of rings (size 3 to 8) (size 9 to 14) (size 15 to 20)
#    0.000    1.429    7.143    3.000    4.000    1.143 
#    0.000    0.000    0.000    0.000    0.000    0.000 
#    0.000    0.000    0.000    0.000    0.000    0.000 
#
# Total GULP energy -156048.631828 kJ/mol
# GULP energy per Si atom -5573.165422 kJ/mol
# Density = 2.332059 g / cm^3
# Si number density = 23.373787 Si / 1000 Ang^3
#
#
#
# Elastic Constant Matrix: (Units=GPa)
#
#
# Indices 1 2 3 4 5 6 
#
# 1 93.9163 8.1610 23.1321 0.0000 30.3724 0.0000
# 2 8.1610 71.4027 12.4996 0.0000 8.9222 0.0000
# 3 23.1321 12.4996 47.4388 0.0000 22.2161 0.0000
# 4 0.0000 0.0000 0.0000 15.7693 0.0000 0.9480
# 5 30.3724 8.9222 22.2161 0.0000 29.1819 0.0000
# 6 0.0000 0.0000 0.0000 0.9480 0.0000 24.4466
#
#
#
# Elastic Compliance Matrix: (Units=1/GPa)
#
#
# Indices 1 2 3 4 5 6 
#
# 1 0.016055 0.000268 -0.000055 0.000000 -0.016750 0.000000
# 2 0.000268 0.014796 -0.002766 0.000000 -0.002696 0.000000
# 3 -0.000055 -0.002766 0.033276 0.000000 -0.024430 0.000000
# 4 0.000000 0.000000 0.000000 0.063563 0.000000 -0.002465
# 5 -0.016750 -0.002696 -0.024430 0.000000 0.071124 0.000000
# 6 0.000000 0.000000 0.000000 -0.002465 0.000000 0.041001
#
#
# Mechanical properties :
#
#
# Convention : Reuss Voigt Hill
#
# Bulk Modulus (GPa) = 16.94356 33.37147 25.15751
# Shear Modulus (GPa) = 18.89679 25.14391 22.02035
#
# Velocity S-wave (km/s) = 2.84643 3.28339 3.07269
# Velocity P-wave (km/s) = 4.25060 5.35561 4.83477
#
# Compressibility (1/GPa) = 0.05901948
#
# Stress axis : x y z
#
# Youngs Moduli (GPa) = 62.28607 67.58736 30.05133
#
# Poissons Ratio (x) = -0.01809 0.00166
# Poissons Ratio (y) = -0.01667 0.08313
# Poissons Ratio (z) = 0.00343 0.18697
#
# Static dielectric constant tensor:
#      x y z
#    x 1.946260 0.000000 0.065840 
#    y 0.000000 1.972240 0.000000 
#    z 0.065840 0.000000 2.076060 
# 
# From -- ./inp_files/181577.got.cif
#   From: 2010.05.17/outbox.cif.g08.bks.cpg/sg15_91_cif.got.tgz:181577.got - 2010.06.03 18:47:42.
