data_PCOD9265332
_publ_section_title
;
Structure prediction by ZEFSAII (Michael W. Deem and Ramdas Pophale) SiO2 
 PCOD9265332
Probable space group: C 2/C
;
_chemical_formula_sum "Si O2"
_cell_formula_units_Z 64
_cell_length_a 28.694527
_cell_length_b 10.315509
_cell_length_c 23.514842
_cell_angle_alpha 90.000000
_cell_angle_beta 151.818039
_cell_angle_gamma 90.000000
_cell_volume 3287.192710
_symmetry_space_group_name_H-M "C 2/C"
_symmetry_group_IT_number 15
_symmetry_cell_setting 'monoclinic'
loop_
_space_group_symop_operation_xyz
x,y,z
-x,y,1/2-z
-x,-y,-z
x,-y,1/2+z
1/2+x,1/2+y,z
1/2-x,1/2+y,1/2-z
1/2-x,1/2-y,-z
1/2+x,1/2-y,1/2+z
loop_
_atom_site_type_symbol
_atom_site_label
_atom_site_fract_x
_atom_site_fract_y
_atom_site_fract_z
Si Si1 0.101352 0.773083 0.002393
Si Si2 0.606911 0.686924 0.893213
Si Si3 0.732642 0.412773 0.429183
Si Si4 0.273914 0.209584 0.462095
Si Si5 0.251557 0.753167 0.255167
Si Si6 0.382809 0.263286 0.801494
Si Si7 0.383738 0.576033 0.809396
Si Si8 0.396526 0.418283 0.982446
O O1 0.127483 0.753046 0.964472
O O2 0.178339 0.700983 0.126965
O O3 0.992919 0.730579 0.902697
O O4 0.112210 0.926558 0.025912
O O5 0.500000 0.710218 0.750000
O O6 0.669007 0.592424 0.918460
O O7 0.595966 0.630652 0.944613
O O8 0.676519 0.813623 0.970612
O O9 0.772054 0.554994 0.459689
O O10 0.658394 0.382633 0.297464
O O11 0.250000 0.250000 0.500000
O O12 0.187908 0.261536 0.328071
O O13 0.340459 0.807463 0.311547
O O14 0.186831 0.853628 0.221587
O O15 0.304135 0.650231 0.352831
O O16 0.379350 0.419555 0.809142
O O17 0.499344 0.612919 0.936968
#
# Coordination Sequence:
#
# PCOD9265332 Si02
#       8
#     8   8   8   8   8   8   8   8
#     4  10  22  40  61  87 120 154 203 251 290 356
#     4  11  21  37  61  92 125 155 198 248 297 363
#     4  10  21  38  59  87 124 156 193 246 299 352
#     4  10  21  40  63  88 118 157 195 245 305 354
#     4  11  20  34  58  84 119 147 191 250 297 341
#     4   9  21  38  59  84 114 153 202 246 287 352
#     4  10  19  36  60  84 111 154 200 244 290 344
#     4  11  21  36  63  91 112 159 206 244 299 354
#
# _framework density 19.469498999999999
#
# number of rings (size 3 to 8) (size 9 to 14) (size 15 to 20)
#    0.000    1.750    2.500    2.250    0.000    2.500 
#    2.250    0.000    5.500   11.250    0.000    0.000 
#    0.000    0.000    0.000    0.000    0.000    0.000 
#
# Total GULP energy -178582.668212 kJ/mol
# GULP energy per Si atom -5580.708382 kJ/mol
# Density = 1.942519 g / cm^3
# Si number density = 19.469499 Si / 1000 Ang^3
#
#
#
# Elastic Constant Matrix: (Units=GPa)
#
#
# Indices 1 2 3 4 5 6 
#
# 1 172.9896 26.4461 52.7676 0.0000 8.8703 0.0000
# 2 26.4461 29.7276 22.7120 0.0000 8.8045 0.0000
# 3 52.7676 22.7120 75.5661 0.0000 6.5708 0.0000
# 4 0.0000 0.0000 0.0000 24.3086 0.0000 1.0547
# 5 8.8703 8.8045 6.5708 0.0000 44.2138 0.0000
# 6 0.0000 0.0000 0.0000 1.0547 0.0000 27.3923
#
#
#
# Elastic Compliance Matrix: (Units=1/GPa)
#
#
# Indices 1 2 3 4 5 6 
#
# 1 0.007621 -0.003461 -0.004263 0.000000 -0.000206 0.000000
# 2 -0.003461 0.047375 -0.011207 0.000000 -0.007074 0.000000
# 3 -0.004263 -0.011207 0.019563 0.000000 0.000180 0.000000
# 4 0.000000 0.000000 0.000000 0.041207 0.000000 -0.001587
# 5 -0.000206 -0.007074 0.000180 0.000000 0.024041 0.000000
# 6 0.000000 0.000000 0.000000 -0.001587 0.000000 0.036568
#
#
# Mechanical properties :
#
#
# Convention : Reuss Voigt Hill
#
# Bulk Modulus (GPa) = 27.25069 53.57049 40.41059
# Shear Modulus (GPa) = 22.07799 30.94011 26.50905
#
# Velocity S-wave (km/s) = 3.37111 3.99075 3.69395
# Velocity P-wave (km/s) = 5.40181 6.98639 6.24456
#
# Compressibility (1/GPa) = 0.03669632
#
# Stress axis : x y z
#
# Youngs Moduli (GPa) = 131.21807 21.10802 51.11628
#
# Poissons Ratio (x) = 0.07306 0.21793
# Poissons Ratio (y) = 0.45420 0.57285
# Poissons Ratio (z) = 0.55943 0.23655
#
# Static dielectric constant tensor:
#      x y z
#    x 1.716810 0.000000 -0.008970 
#    y 0.000000 1.665930 0.000000 
#    z -0.008970 0.000000 1.700150 
# 
# From -- ./inp_files/257514.got.cif
#   From: 2010.05.17/outbox.cif.g08.bks.cpg/sg15_129_cif.got.tgz:257514.got - 2010.06.03 18:47:42.
