data_PCOD9265750
_publ_section_title
;
Structure prediction by ZEFSAII (Michael W. Deem and Ramdas Pophale) SiO2 
 PCOD9265750
Probable space group: C 2/C
;
_chemical_formula_sum "Si O2"
_cell_formula_units_Z 48
_cell_length_a 14.268792
_cell_length_b 10.191421
_cell_length_c 16.798664
_cell_angle_alpha 90.000000
_cell_angle_beta 44.327446
_cell_angle_gamma 90.000000
_cell_volume 1706.960653
_symmetry_space_group_name_H-M "C 2/C"
_symmetry_group_IT_number 15
_symmetry_cell_setting 'monoclinic'
loop_
_space_group_symop_operation_xyz
x,y,z
-x,y,1/2-z
-x,-y,-z
x,-y,1/2+z
1/2+x,1/2+y,z
1/2-x,1/2+y,1/2-z
1/2-x,1/2-y,-z
1/2+x,1/2-y,1/2+z
loop_
_atom_site_type_symbol
_atom_site_label
_atom_site_fract_x
_atom_site_fract_y
_atom_site_fract_z
Si Si1 0.338444 0.261014 0.653765
Si Si2 0.586583 0.089282 0.122807
Si Si3 0.340226 0.589201 0.676103
Si Si4 0.843677 0.422660 0.659820
Si Si5 0.873416 0.863151 0.454509
Si Si6 0.144169 0.243800 0.992668
O O1 0.178845 0.254092 0.788573
O O2 0.298545 0.427403 0.698767
O O3 0.360917 0.287262 0.546724
O O4 0.484989 0.255856 0.609457
O O5 0.500000 0.037648 0.250000
O O6 0.490668 0.064575 0.107394
O O7 0.609648 0.246203 0.119136
O O8 0.741419 0.051430 0.020401
O O9 0.193236 0.589996 0.821257
O O10 0.485880 0.566336 0.626182
O O11 0.336560 0.624385 0.583088
O O12 0.830462 0.371317 0.578492
O O13 0.250000 0.250000 0.000000
#
# Coordination Sequence:
#
# PCOD9265750 Si02
#       6
#     8   8   8   8   8   8
#     4  10  19  42  64  85 133 172 221 275 349 393
#     4  11  19  36  62  95 128 166 219 275 348 404
#     4  10  22  40  65  97 131 175 223 288 332 398
#     4  11  22  40  65  98 133 169 228 285 332 402
#     4  10  19  36  65  89 128 172 211 276 354 402
#     4  10  23  45  68  91 132 190 224 267 347 412
#
# _framework density 28.120156999999999
#
# number of rings (size 3 to 8) (size 9 to 14) (size 15 to 20)
#    0.000    1.667    6.667    0.000    0.000    6.000 
#    3.000    0.000   18.333    0.000    0.000    0.000 
#    0.000    0.000    0.000    0.000    0.000    0.000 
#
# Total GULP energy -134113.048557 kJ/mol
# GULP energy per Si atom -5588.043690 kJ/mol
# Density = 2.805615 g / cm^3
# Si number density = 28.120157 Si / 1000 Ang^3
#
#
#
# Elastic Constant Matrix: (Units=GPa)
#
#
# Indices 1 2 3 4 5 6 
#
# 1 229.9712 47.6305 61.2500 0.0000 -44.2605 0.0000
# 2 47.6305 213.8903 63.7984 0.0000 -26.3501 0.0000
# 3 61.2500 63.7984 128.5221 0.0000 -32.9170 0.0000
# 4 0.0000 0.0000 0.0000 84.4836 0.0000 -4.1350
# 5 -44.2605 -26.3501 -32.9170 0.0000 42.8805 0.0000
# 6 0.0000 0.0000 0.0000 -4.1350 0.0000 29.6799
#
#
#
# Elastic Compliance Matrix: (Units=1/GPa)
#
#
# Indices 1 2 3 4 5 6 
#
# 1 0.005661 -0.000282 -0.001377 0.000000 0.004614 0.000000
# 2 -0.000282 0.005591 -0.002285 0.000000 0.001391 0.000000
# 3 -0.001377 -0.002285 0.011013 0.000000 0.005629 0.000000
# 4 0.000000 0.000000 0.000000 0.011918 0.000000 0.001660
# 5 0.004614 0.001391 0.005629 0.000000 0.033259 0.000000
# 6 0.000000 0.000000 0.000000 0.001660 0.000000 0.033924
#
#
# Mechanical properties :
#
#
# Convention : Reuss Voigt Hill
#
# Bulk Modulus (GPa) = 69.54728 101.97127 85.75928
# Shear Modulus (GPa) = 43.84256 58.05579 50.94918
#
# Velocity S-wave (km/s) = 3.95285 4.54867 4.26119
# Velocity P-wave (km/s) = 6.75420 7.99554 7.40094
#
# Compressibility (1/GPa) = 0.01437871
#
# Stress axis : x y z
#
# Youngs Moduli (GPa) = 176.63805 178.86248 90.80470
#
# Poissons Ratio (x) = 0.05039 0.12499
# Poissons Ratio (y) = 0.04977 0.20747
# Poissons Ratio (z) = 0.24314 0.40867
#
# Static dielectric constant tensor:
#      x y z
#    x 1.993190 0.000000 -0.022730 
#    y 0.000000 2.531240 0.000000 
#    z -0.022730 0.000000 2.142500 
# 
# From -- ./inp_files/205274.got.cif
#   From: 2010.05.17/outbox.cif.g08.bks.cpg/sg15_103_cif.got.tgz:205274.got - 2010.06.03 18:47:42.
