data_PCOD9265787
_publ_section_title
;
Structure prediction by ZEFSAII (Michael W. Deem and Ramdas Pophale) SiO2 
 PCOD9265787
Probable space group: C 2/C
;
_chemical_formula_sum "Si O2"
_cell_formula_units_Z 56
_cell_length_a 26.211994
_cell_length_b 20.370461
_cell_length_c 16.019500
_cell_angle_alpha 90.000000
_cell_angle_beta 160.441926
_cell_angle_gamma 90.000000
_cell_volume 2863.427556
_symmetry_space_group_name_H-M "C 2/C"
_symmetry_group_IT_number 15
_symmetry_cell_setting 'monoclinic'
loop_
_space_group_symop_operation_xyz
x,y,z
-x,y,1/2-z
-x,-y,-z
x,-y,1/2+z
1/2+x,1/2+y,z
1/2-x,1/2+y,1/2-z
1/2-x,1/2-y,-z
1/2+x,1/2-y,1/2+z
loop_
_atom_site_type_symbol
_atom_site_label
_atom_site_fract_x
_atom_site_fract_y
_atom_site_fract_z
Si Si1 0.649464 0.066068 0.537335
Si Si2 0.719865 0.449142 0.833866
Si Si3 0.000000 0.934114 0.750000
Si Si4 0.922819 0.270957 0.291988
Si Si5 0.778250 0.507116 0.099702
Si Si6 0.447654 0.630263 0.987028
Si Si7 0.500000 0.848339 0.250000
Si Si8 0.983485 0.600797 0.989035
O O1 0.594713 0.088592 0.542911
O O2 0.744375 0.997804 0.687047
O O3 0.500000 0.057387 0.250000
O O4 0.772637 0.118103 0.695226
O O5 0.559768 0.413644 0.602452
O O6 0.735626 0.498003 0.937592
O O7 0.851905 0.394285 0.033913
O O8 0.028443 0.891487 0.878230
O O9 0.858386 0.979817 0.555568
O O10 0.003080 0.204933 0.444824
O O11 0.938483 0.328570 0.384334
O O12 0.005181 0.301919 0.338379
O O13 0.750000 0.250000 0.000000
O O14 0.913136 0.453214 0.317988
O O15 0.842984 0.577231 0.228068
#
# Coordination Sequence:
#
# PCOD9265787 Si02
#       8
#     8   8   4   8   8   8   4   8
#     4  12  24  41  66  92 128 180 221 263 325 378
#     4  11  21  40  61  97 127 164 215 270 321 382
#     4  10  19  36  66  98 127 164 204 280 330 373
#     4  12  25  41  64  99 130 166 208 268 327 393
#     4  10  19  37  62  95 125 159 215 264 325 374
#     4  11  24  39  61  96 134 166 216 265 326 388
#     4  12  21  36  66  94 135 160 204 266 340 381
#     4  11  22  39  63  92 129 169 214 260 320 384
#
# _framework density 19.556982000000001
#
# number of rings (size 3 to 8) (size 9 to 14) (size 15 to 20)
#    0.000    0.857    6.429    1.714    4.000    0.000 
#    0.000    0.714    1.571    0.000    0.000    0.000 
#    0.000    0.000    0.000    0.000    0.000    0.000 
#
# Total GULP energy -156334.420286 kJ/mol
# GULP energy per Si atom -5583.372153 kJ/mol
# Density = 1.951247 g / cm^3
# Si number density = 19.556982 Si / 1000 Ang^3
#
#
#
# Elastic Constant Matrix: (Units=GPa)
#
#
# Indices 1 2 3 4 5 6 
#
# 1 100.1735 40.9266 14.6225 0.0000 5.3244 0.0000
# 2 40.9266 132.2517 33.2476 0.0000 -1.5270 0.0000
# 3 14.6225 33.2476 49.3814 0.0000 13.2342 0.0000
# 4 0.0000 0.0000 0.0000 27.5084 0.0000 -5.7824
# 5 5.3244 -1.5270 13.2342 0.0000 21.6628 0.0000
# 6 0.0000 0.0000 0.0000 -5.7824 0.0000 29.6616
#
#
#
# Elastic Compliance Matrix: (Units=1/GPa)
#
#
# Indices 1 2 3 4 5 6 
#
# 1 0.011636 -0.003573 -0.000246 0.000000 -0.002961 0.000000
# 2 -0.003573 0.010726 -0.007894 0.000000 0.006457 0.000000
# 3 -0.000246 -0.007894 0.030817 0.000000 -0.019323 0.000000
# 4 0.000000 0.000000 0.000000 0.037906 0.000000 0.007390
# 5 -0.002961 0.006457 -0.019323 0.000000 0.059150 0.000000
# 6 0.000000 0.000000 0.000000 0.007390 0.000000 0.035154
#
#
# Mechanical properties :
#
#
# Convention : Reuss Voigt Hill
#
# Bulk Modulus (GPa) = 33.61117 51.04444 42.32780
# Shear Modulus (GPa) = 22.85892 28.63388 25.74640
#
# Velocity S-wave (km/s) = 3.42253 3.83054 3.63227
# Velocity P-wave (km/s) = 5.73079 6.76174 6.26750
#
# Compressibility (1/GPa) = 0.02975202
#
# Stress axis : x y z
#
# Youngs Moduli (GPa) = 85.94130 93.22953 32.44970
#
# Poissons Ratio (x) = 0.33312 0.00799
# Poissons Ratio (y) = 0.30708 0.25616
# Poissons Ratio (z) = 0.02115 0.73597
#
# Static dielectric constant tensor:
#      x y z
#    x 1.733390 0.000000 -0.014120 
#    y 0.000000 1.685950 0.000000 
#    z -0.014120 0.000000 1.741620 
# 
# From -- ./inp_files/89064.got.cif
#   From: 2010.05.17/outbox.cif.g08.bks.cpg/sg15_45_cif.got.tgz:89064.got - 2010.06.03 18:47:42.
