data_PCOD9265781
_publ_section_title
;
Structure prediction by ZEFSAII (Michael W. Deem and Ramdas Pophale) SiO2 
 PCOD9265781
Probable space group: C 2/C
;
_chemical_formula_sum "Si O2"
_cell_formula_units_Z 40
_cell_length_a 13.478667
_cell_length_b 6.556647
_cell_length_c 18.514175
_cell_angle_alpha 90.000000
_cell_angle_beta 83.171112
_cell_angle_gamma 90.000000
_cell_volume 1624.580020
_symmetry_space_group_name_H-M "C 2/C"
_symmetry_group_IT_number 15
_symmetry_cell_setting 'monoclinic'
loop_
_space_group_symop_operation_xyz
x,y,z
-x,y,1/2-z
-x,-y,-z
x,-y,1/2+z
1/2+x,1/2+y,z
1/2-x,1/2+y,1/2-z
1/2-x,1/2-y,-z
1/2+x,1/2-y,1/2+z
loop_
_atom_site_type_symbol
_atom_site_label
_atom_site_fract_x
_atom_site_fract_y
_atom_site_fract_z
Si Si1 0.504490 0.551914 0.395200
Si Si2 0.170017 0.065202 0.493530
Si Si3 0.133388 0.921522 0.756665
Si Si4 0.452860 0.189502 0.322118
Si Si5 0.215086 0.406841 0.140202
O O1 0.576286 0.636342 0.451215
O O2 0.390724 0.536111 0.434435
O O3 0.541120 0.651296 0.316618
O O4 0.523000 0.312479 0.371204
O O5 0.250000 0.250000 0.500000
O O6 0.223203 0.896362 0.438677
O O7 0.104985 0.129717 0.716733
O O8 0.179639 0.777308 0.692554
O O9 0.217473 0.963448 0.809614
O O10 0.500000 0.075499 0.250000
O O11 0.381452 0.041119 0.370233
#
# Coordination Sequence:
#
# PCOD9265781 Si02
#       5
#     8   8   8   8   8
#     4   9  20  37  60  91 134 169 213 285 335 389
#     4  10  19  36  66  95 125 180 225 263 346 415
#     4  10  21  36  61  93 127 168 224 277 332 399
#     4  10  20  36  59  88 128 167 214 278 332 383
#     4  11  20  36  64  93 123 175 224 270 336 404
#
# _framework density 24.621749000000001
#
# number of rings (size 3 to 8) (size 9 to 14) (size 15 to 20)
#    0.000    2.000    4.000    0.000    0.000    2.400 
#    0.000    1.000    0.000    2.400    0.000    0.000 
#    0.000    0.000    0.000    0.000    0.000    0.000 
#
# Total GULP energy -111424.754661 kJ/mol
# GULP energy per Si atom -5571.237733 kJ/mol
# Density = 2.456571 g / cm^3
# Si number density = 24.621749 Si / 1000 Ang^3
#
#
#
# Elastic Constant Matrix: (Units=GPa)
#
#
# Indices 1 2 3 4 5 6 
#
# 1 109.5248 38.4198 57.0115 0.0000 -11.1229 0.0000
# 2 38.4198 59.1660 47.3138 0.0000 -12.7049 0.0000
# 3 57.0115 47.3138 220.9810 0.0000 -40.7369 0.0000
# 4 0.0000 0.0000 0.0000 36.9461 0.0000 -5.6393
# 5 -11.1229 -12.7049 -40.7369 0.0000 64.1545 0.0000
# 6 0.0000 0.0000 0.0000 -5.6393 0.0000 28.3271
#
#
#
# Elastic Compliance Matrix: (Units=1/GPa)
#
#
# Indices 1 2 3 4 5 6 
#
# 1 0.012382 -0.006646 -0.001833 0.000000 -0.000333 0.000000
# 2 -0.006646 0.024078 -0.003142 0.000000 0.001621 0.000000
# 3 -0.001833 -0.003142 0.006226 0.000000 0.003014 0.000000
# 4 0.000000 0.000000 0.000000 0.027915 0.000000 0.005557
# 5 -0.000333 0.001621 0.003014 0.000000 0.017764 0.000000
# 6 0.000000 0.000000 0.000000 0.005557 0.000000 0.036408
#
#
# Mechanical properties :
#
#
# Convention : Reuss Voigt Hill
#
# Bulk Modulus (GPa) = 51.42833 75.01800 63.22316
# Shear Modulus (GPa) = 32.36320 42.34731 37.35525
#
# Velocity S-wave (km/s) = 3.62942 4.15168 3.89931
# Velocity P-wave (km/s) = 6.20454 7.31548 6.78279
#
# Compressibility (1/GPa) = 0.01944454
#
# Stress axis : x y z
#
# Youngs Moduli (GPa) = 80.76248 41.53200 160.60677
#
# Poissons Ratio (x) = 0.27603 0.29438
# Poissons Ratio (y) = 0.53676 0.50459
# Poissons Ratio (z) = 0.14803 0.13048
#
# Static dielectric constant tensor:
#      x y z
#    x 2.152800 0.000000 -0.028190 
#    y 0.000000 1.974210 0.000000 
#    z -0.028190 0.000000 2.005660 
# 
# From -- ./inp_files/246198.got.cif
#   From: 2010.05.17/outbox.cif.g08.bks.cpg/sg15_124_cif.got.tgz:246198.got - 2010.06.03 18:47:42.
