data_PCOD9265106
_publ_section_title
;
Structure prediction by ZEFSAII (Michael W. Deem and Ramdas Pophale) SiO2 
 PCOD9265106
Probable space group: C 2/C
;
_chemical_formula_sum "Si O2"
_cell_formula_units_Z 48
_cell_length_a 31.738982
_cell_length_b 9.070354
_cell_length_c 8.436709
_cell_angle_alpha 90.000000
_cell_angle_beta 98.043117
_cell_angle_gamma 90.000000
_cell_volume 2404.899976
_symmetry_space_group_name_H-M "C 2/C"
_symmetry_group_IT_number 15
_symmetry_cell_setting 'monoclinic'
loop_
_space_group_symop_operation_xyz
x,y,z
-x,y,1/2-z
-x,-y,-z
x,-y,1/2+z
1/2+x,1/2+y,z
1/2-x,1/2+y,1/2-z
1/2-x,1/2-y,-z
1/2+x,1/2-y,1/2+z
loop_
_atom_site_type_symbol
_atom_site_label
_atom_site_fract_x
_atom_site_fract_y
_atom_site_fract_z
Si Si1 0.623609 0.289180 0.251750
Si Si2 0.630785 0.596852 0.397230
Si Si3 0.546665 0.109279 0.345990
Si Si4 0.669656 0.983382 0.672946
Si Si5 0.793780 0.696257 0.596803
Si Si6 0.083021 0.341001 0.196461
O O1 0.630249 0.423021 0.374666
O O2 0.578943 0.212909 0.266323
O O3 0.658813 0.159782 0.275244
O O4 0.624568 0.356153 0.075774
O O5 0.675833 0.663623 0.363874
O O6 0.595822 0.682985 0.272887
O O7 0.500000 0.120390 0.250000
O O8 0.550992 0.153568 0.531888
O O9 0.564366 0.944080 0.325471
O O10 0.681139 0.909620 0.513078
O O11 0.707029 0.091436 0.750586
O O12 0.626518 0.080690 0.655332
O O13 0.750000 0.750000 0.500000
#
# Coordination Sequence:
#
# PCOD9265106 Si02
#       6
#     8   8   8   8   8   8
#     4  10  20  37  56  79 109 147 185 221 271 335
#     4  10  21  37  58  81 108 147 186 221 272 334
#     4  11  21  35  56  84 110 141 183 231 274 319
#     4   9  19  37  57  77 107 146 180 215 268 331
#     4  10  21  36  56  84 111 139 182 230 270 315
#     4  10  19  36  58  79 108 144 183 222 270 334
#
# _framework density 19.959250000000001
#
# number of rings (size 3 to 8) (size 9 to 14) (size 15 to 20)
#    0.000    2.000    0.000    6.500    0.000    4.000 
#    0.000    5.833    0.000    0.000    0.000    0.000 
#    0.000    0.000    0.000    0.000    0.000    0.000 
#
# Total GULP energy -133982.832813 kJ/mol
# GULP energy per Si atom -5582.618034 kJ/mol
# Density = 1.991382 g / cm^3
# Si number density = 19.959250 Si / 1000 Ang^3
#
#
#
# Elastic Constant Matrix: (Units=GPa)
#
#
# Indices 1 2 3 4 5 6 
#
# 1 45.3984 17.2582 2.1826 0.0000 24.7993 0.0000
# 2 17.2582 80.7787 0.8949 0.0000 7.6794 0.0000
# 3 2.1826 0.8949 36.9699 0.0000 10.5381 0.0000
# 4 0.0000 0.0000 0.0000 39.2460 0.0000 7.4095
# 5 24.7993 7.6794 10.5381 0.0000 32.0325 0.0000
# 6 0.0000 0.0000 0.0000 7.4095 0.0000 14.7843
#
#
#
# Elastic Compliance Matrix: (Units=1/GPa)
#
#
# Indices 1 2 3 4 5 6 
#
# 1 0.042386 -0.005924 0.007272 0.000000 -0.033787 0.000000
# 2 -0.005924 0.013509 -0.000399 0.000000 0.001479 0.000000
# 3 0.007272 -0.000399 0.031126 0.000000 -0.015774 0.000000
# 4 0.000000 0.000000 0.000000 0.028143 0.000000 -0.014105
# 5 -0.033787 0.001479 -0.015774 0.000000 0.062211 0.000000
# 6 0.000000 0.000000 0.000000 -0.014105 0.000000 0.074708
#
#
# Mechanical properties :
#
#
# Convention : Reuss Voigt Hill
#
# Bulk Modulus (GPa) = 11.24625 22.64649 16.94637
# Shear Modulus (GPa) = 17.86834 26.73332 22.30083
#
# Velocity S-wave (km/s) = 2.99530 3.66375 3.34626
# Velocity P-wave (km/s) = 4.19634 5.41002 4.84137
#
# Compressibility (1/GPa) = 0.08891849
#
# Stress axis : x y z
#
# Youngs Moduli (GPa) = 23.59259 74.02466 32.12784
#
# Poissons Ratio (x) = 0.43854 -0.23363
# Poissons Ratio (y) = 0.13977 0.01281
# Poissons Ratio (z) = -0.17156 0.02952
#
# Static dielectric constant tensor:
#      x y z
#    x 1.685630 0.000000 -0.004980 
#    y 0.000000 1.690120 0.000000 
#    z -0.004980 0.000000 1.758240 
# 
# From -- ./inp_files/68542.got.cif
#   From: 2010.05.17/outbox.cif.g08.bks.cpg/sg15_35_cif.got.tgz:68542.got - 2010.06.03 18:47:42.
