data_PCOD9265071
_publ_section_title
;
Structure prediction by ZEFSAII (Michael W. Deem and Ramdas Pophale) SiO2 
 PCOD9265071
Probable space group: C 2/C
;
_chemical_formula_sum "Si O2"
_cell_formula_units_Z 40
_cell_length_a 18.828605
_cell_length_b 10.258412
_cell_length_c 20.796521
_cell_angle_alpha 90.000000
_cell_angle_beta 153.538252
_cell_angle_gamma 90.000000
_cell_volume 1789.923136
_symmetry_space_group_name_H-M "C 2/C"
_symmetry_group_IT_number 15
_symmetry_cell_setting 'monoclinic'
loop_
_space_group_symop_operation_xyz
x,y,z
-x,y,1/2-z
-x,-y,-z
x,-y,1/2+z
1/2+x,1/2+y,z
1/2-x,1/2+y,1/2-z
1/2-x,1/2-y,-z
1/2+x,1/2-y,1/2+z
loop_
_atom_site_type_symbol
_atom_site_label
_atom_site_fract_x
_atom_site_fract_y
_atom_site_fract_z
Si Si1 0.574953 0.492753 0.911253
Si Si2 0.937149 0.534791 0.877836
Si Si3 0.393081 0.376363 0.431732
Si Si4 0.246982 0.008263 0.416096
Si Si5 0.957108 0.723342 0.050942
O O1 0.399579 0.447930 0.746430
O O2 0.688699 0.493234 0.941709
O O3 0.633807 0.397501 0.014894
O O4 0.554573 0.641972 0.919976
O O5 0.776000 0.613072 0.740963
O O6 0.000000 0.500000 0.000000
O O7 0.091248 0.587971 0.965035
O O8 0.912169 0.389041 0.825293
O O9 0.500000 0.500000 0.500000
O O10 0.495352 0.261733 0.483269
O O11 0.298710 0.862270 0.434878
#
# Coordination Sequence:
#
# PCOD9265071 Si02
#       5
#     8   8   8   8   8
#     4  10  19  36  57  86 118 150 189 239 301 348
#     4  10  21  36  56  81 118 155 192 237 295 347
#     4  10  21  33  55  84 117 154 196 235 286 349
#     4   9  21  36  56  82 121 151 184 243 301 340
#     4   9  21  34  56  83 118 149 191 238 290 341
#
# _framework density 22.347328999999998
#
# number of rings (size 3 to 8) (size 9 to 14) (size 15 to 20)
#    1.200    1.200    0.000    3.000    5.600    0.800 
#    0.000    0.000    0.000    1.200    0.000    5.600 
#    0.000    0.000    0.000    0.000    0.000    0.000 
#
# Total GULP energy -111420.679274 kJ/mol
# GULP energy per Si atom -5571.033964 kJ/mol
# Density = 2.229646 g / cm^3
# Si number density = 22.347329 Si / 1000 Ang^3
#
#
#
# Elastic Constant Matrix: (Units=GPa)
#
#
# Indices 1 2 3 4 5 6 
#
# 1 133.6836 12.7153 79.3810 0.0012 4.1092 0.0006
# 2 12.7153 62.5974 14.6250 0.0015 0.2898 0.0008
# 3 79.3810 14.6250 128.5904 0.0012 7.8480 0.0006
# 4 0.0012 0.0015 0.0012 19.7658 0.0006 3.1897
# 5 4.1092 0.2898 7.8480 0.0006 33.9958 0.0002
# 6 0.0006 0.0008 0.0006 3.1897 0.0002 31.2031
#
#
#
# Elastic Compliance Matrix: (Units=1/GPa)
#
#
# Indices 1 2 3 4 5 6 
#
# 1 0.011842 -0.000714 -0.007244 0.000000 0.000247 0.000000
# 2 -0.000714 0.016457 -0.001448 -0.000001 0.000280 0.000000
# 3 -0.007244 -0.001448 0.012536 0.000000 -0.002006 0.000000
# 4 0.000000 -0.000001 0.000000 0.051441 -0.000001 -0.005258
# 5 0.000247 0.000280 -0.002006 -0.000001 0.029846 0.000000
# 6 0.000000 0.000000 0.000000 -0.005258 0.000000 0.032586
#
#
# Mechanical properties :
#
#
# Convention : Reuss Voigt Hill
#
# Bulk Modulus (GPa) = 45.40834 59.81268 52.61051
# Shear Modulus (GPa) = 27.64541 31.53628 29.59085
#
# Velocity S-wave (km/s) = 3.52103 3.76065 3.64281
# Velocity P-wave (km/s) = 6.07402 6.75868 6.42548
#
# Compressibility (1/GPa) = 0.02202239
#
# Stress axis : x y z
#
# Youngs Moduli (GPa) = 84.44268 60.76383 79.77157
#
# Poissons Ratio (x) = 0.04339 0.57789
# Poissons Ratio (y) = 0.06030 0.11551
# Poissons Ratio (z) = 0.61173 0.08799
#
# Static dielectric constant tensor:
#      x y z
#    x 1.882220 0.000000 -0.041180 
#    y 0.000000 1.903420 0.000000 
#    z -0.041180 0.000000 1.825550 
# 
# From -- ./inp_files/248710.got.cif
#   From: 2010.05.17/outbox.cif.g08.bks.cpg/sg15_125_cif.got.tgz:248710.got - 2010.06.03 18:47:42.
