data_PCOD9265619
_publ_section_title
;
Structure prediction by ZEFSAII (Michael W. Deem and Ramdas Pophale) SiO2 
 PCOD9265619
Probable space group: C 2/C
;
_chemical_formula_sum "Si O2"
_cell_formula_units_Z 60
_cell_length_a 8.878233
_cell_length_b 16.037846
_cell_length_c 21.730775
_cell_angle_alpha 90.000000
_cell_angle_beta 106.766517
_cell_angle_gamma 90.000000
_cell_volume 2962.656095
_symmetry_space_group_name_H-M "C 2/C"
_symmetry_group_IT_number 15
_symmetry_cell_setting 'monoclinic'
loop_
_space_group_symop_operation_xyz
x,y,z
-x,y,1/2-z
-x,-y,-z
x,-y,1/2+z
1/2+x,1/2+y,z
1/2-x,1/2+y,1/2-z
1/2-x,1/2-y,-z
1/2+x,1/2-y,1/2+z
loop_
_atom_site_type_symbol
_atom_site_label
_atom_site_fract_x
_atom_site_fract_y
_atom_site_fract_z
Si Si1 0.608578 0.553351 0.347401
Si Si2 0.376768 0.223311 0.065129
Si Si3 0.090843 0.472316 0.323766
Si Si4 0.672549 0.707620 0.278376
Si Si5 0.555533 0.953620 0.568131
Si Si6 0.359927 0.661762 0.852486
Si Si7 0.500000 0.405280 0.250000
Si Si8 0.777463 0.861485 0.837645
O O1 0.660234 0.612545 0.297715
O O2 0.577205 0.465714 0.310535
O O3 0.452889 0.597935 0.356566
O O4 0.755107 0.549434 0.409885
O O5 0.482062 0.140460 0.061580
O O6 0.482396 0.305130 0.095526
O O7 0.272052 0.188918 0.108793
O O8 0.250000 0.250000 0.000000
O O9 0.993889 0.494354 0.375134
O O10 0.241785 0.412862 0.357404
O O11 0.163101 0.561173 0.314472
O O12 0.000000 0.443354 0.250000
O O13 0.500000 0.743782 0.250000
O O14 0.756037 0.755530 0.341778
O O15 0.745753 0.702017 0.220651
O O16 0.500000 0.000000 0.500000
O O17 0.391697 0.646684 0.783360
#
# Coordination Sequence:
#
# PCOD9265619 Si02
#       8
#     8   8   8   8   8   8   4   8
#     4  11  20  42  66  99 128 172 220 265 335 416
#     4  11  27  46  62  93 129 176 233 275 331 404
#     4  11  23  42  70 104 135 170 229 277 343 415
#     4  10  19  36  62  96 129 159 208 262 342 395
#     4  11  26  46  70  92 133 186 226 272 332 416
#     4  12  23  39  62 101 136 168 212 291 340 387
#     4  12  22  36  68 102 132 166 220 274 338 406
#     4  10  21  41  69  89 130 178 208 275 331 406
#
# _framework density 20.252096999999999
#
# number of rings (size 3 to 8) (size 9 to 14) (size 15 to 20)
#    0.000    1.067    4.667    2.800    3.733    1.067 
#    7.200    4.000    0.000    0.000    0.000    0.000 
#    0.000    0.000    0.000    0.000    0.000    0.000 
#
# Total GULP energy -167054.358955 kJ/mol
# GULP energy per Si atom -5568.478632 kJ/mol
# Density = 2.020600 g / cm^3
# Si number density = 20.252097 Si / 1000 Ang^3
#
#
#
# Elastic Constant Matrix: (Units=GPa)
#
#
# Indices 1 2 3 4 5 6 
#
# 1 59.6012 24.3633 35.4515 0.0000 14.3964 0.0000
# 2 24.3633 95.4603 43.5943 0.0000 7.0489 0.0000
# 3 35.4515 43.5943 93.3442 0.0000 27.0251 0.0000
# 4 0.0000 0.0000 0.0000 30.3559 0.0000 4.1735
# 5 14.3964 7.0489 27.0251 0.0000 37.5973 0.0000
# 6 0.0000 0.0000 0.0000 4.1735 0.0000 17.1552
#
#
#
# Elastic Compliance Matrix: (Units=1/GPa)
#
#
# Indices 1 2 3 4 5 6 
#
# 1 0.022437 -0.002599 -0.006265 0.000000 -0.003601 0.000000
# 2 -0.002599 0.013804 -0.006312 0.000000 0.002945 0.000000
# 3 -0.006265 -0.006312 0.018946 0.000000 -0.010036 0.000000
# 4 0.000000 0.000000 0.000000 0.034082 0.000000 -0.008291
# 5 -0.003601 0.002945 -0.010036 0.000000 0.034638 0.000000
# 6 0.000000 0.000000 0.000000 -0.008291 0.000000 0.060308
#
#
# Mechanical properties :
#
#
# Convention : Reuss Voigt Hill
#
# Bulk Modulus (GPa) = 40.26719 50.58043 45.42381
# Shear Modulus (GPa) = 22.43687 26.68813 24.56250
#
# Velocity S-wave (km/s) = 3.33209 3.63408 3.48636
# Velocity P-wave (km/s) = 5.89321 6.52981 6.21966
#
# Compressibility (1/GPa) = 0.02483412
#
# Stress axis : x y z
#
# Youngs Moduli (GPa) = 44.56937 72.44183 52.78141
#
# Poissons Ratio (x) = 0.18831 0.33067
# Poissons Ratio (y) = 0.11586 0.33317
# Poissons Ratio (z) = 0.27922 0.45727
#
# Static dielectric constant tensor:
#      x y z
#    x 1.776520 0.000000 0.035820 
#    y 0.000000 1.720850 0.000000 
#    z 0.035820 0.000000 1.782900 
# 
# From -- ./inp_files/232756.got.cif
#   From: 2010.05.17/outbox.cif.g08.bks.cpg/sg15_117_cif.got.tgz:232756.got - 2010.06.03 18:47:42.
