data_PCOD9265034
_publ_section_title
;
Structure prediction by ZEFSAII (Michael W. Deem and Ramdas Pophale) SiO2 
 PCOD9265034
Probable space group: C 2/C
;
_chemical_formula_sum "Si O2"
_cell_formula_units_Z 56
_cell_length_a 19.994996
_cell_length_b 11.273059
_cell_length_c 16.582288
_cell_angle_alpha 90.000000
_cell_angle_beta 141.240906
_cell_angle_gamma 90.000000
_cell_volume 2339.993580
_symmetry_space_group_name_H-M "C 2/C"
_symmetry_group_IT_number 15
_symmetry_cell_setting 'monoclinic'
loop_
_space_group_symop_operation_xyz
x,y,z
-x,y,1/2-z
-x,-y,-z
x,-y,1/2+z
1/2+x,1/2+y,z
1/2-x,1/2+y,1/2-z
1/2-x,1/2-y,-z
1/2+x,1/2-y,1/2+z
loop_
_atom_site_type_symbol
_atom_site_label
_atom_site_fract_x
_atom_site_fract_y
_atom_site_fract_z
Si Si1 0.881193 0.283109 0.225581
Si Si2 0.624058 0.840490 0.764130
Si Si3 0.753205 0.538098 0.523085
Si Si4 0.682021 0.809956 0.638192
Si Si5 0.447412 0.390854 0.557877
Si Si6 0.473308 0.986334 0.067585
Si Si7 0.083756 0.932542 0.254623
O O1 0.826635 0.343078 0.095796
O O2 0.792386 0.236247 0.204798
O O3 0.939116 0.397480 0.315902
O O4 0.975393 0.187631 0.311647
O O5 0.683226 0.850760 0.732397
O O6 0.618643 0.702308 0.776687
O O7 0.682847 0.922527 0.885294
O O8 0.502653 0.891392 0.638804
O O9 0.661279 0.567207 0.502360
O O10 0.685656 0.506090 0.381057
O O11 0.594239 0.702835 0.547866
O O12 0.637269 0.917216 0.540799
O O13 0.523183 0.506729 0.621573
O O14 0.500000 0.000000 0.000000
O O15 0.000000 0.935090 0.250000
#
# Coordination Sequence:
#
# PCOD9265034 Si02
#       7
#     8   8   8   8   8   8   8
#     4   9  17  34  57  84 110 144 184 234 287 336
#     4  10  19  36  57  80 112 156 181 230 287 338
#     4   9  19  37  59  78 114 154 187 236 281 329
#     4   9  18  35  56  86 113 141 186 231 290 342
#     4   9  19  37  56  84 113 145 188 237 281 335
#     4   8  16  33  53  75 111 144 174 224 281 332
#     4  10  21  38  54  79 114 156 193 231 275 332
#
# _framework density 23.931688999999999
#
# number of rings (size 3 to 8) (size 9 to 14) (size 15 to 20)
#    0.000    2.857    0.000    0.429    0.000    1.143 
#   25.714    1.429    0.000   18.000    0.000    0.000 
#    0.000    0.000    0.000    0.000    0.000    0.000 
#
# Total GULP energy -156202.654377 kJ/mol
# GULP energy per Si atom -5578.666228 kJ/mol
# Density = 2.387722 g / cm^3
# Si number density = 23.931689 Si / 1000 Ang^3
#
#
#
# Elastic Constant Matrix: (Units=GPa)
#
#
# Indices 1 2 3 4 5 6 
#
# 1 70.2208 -2.4552 18.1893 0.0000 11.9676 0.0000
# 2 -2.4552 52.2730 -1.0783 0.0000 8.8249 0.0000
# 3 18.1893 -1.0783 60.9861 0.0000 5.0133 0.0000
# 4 0.0000 0.0000 0.0000 -1.3034 0.0000 -14.9743
# 5 11.9676 8.8249 5.0133 0.0000 21.0118 0.0000
# 6 0.0000 0.0000 0.0000 -14.9743 0.0000 27.0687
#
#
#
# Elastic Compliance Matrix: (Units=1/GPa)
#
#
# Indices 1 2 3 4 5 6 
#
# 1 0.017078 0.002352 -0.004255 0.000000 -0.009700 0.000000
# 2 0.002352 0.020986 0.000514 0.000000 -0.010276 0.000000
# 3 -0.004255 0.000514 0.017844 0.000000 -0.002050 0.000000
# 4 0.000000 0.000000 0.000000 -0.104307 0.000000 -0.057702
# 5 -0.009700 -0.010276 -0.002050 0.000000 0.057922 0.000000
# 6 0.000000 0.000000 0.000000 -0.057702 0.000000 0.005022
#
#
# Mechanical properties :
#
#
# Convention : Reuss Voigt Hill
#
# Bulk Modulus (GPa) = 18.82122 23.64350 21.23236
# Shear Modulus (GPa) = 142.71951 20.61036 81.66493
#
# Velocity S-wave (km/s) = 7.73083 2.93783 5.84793
# Velocity P-wave (km/s) = 9.35784 4.62697 7.38167
#
# Compressibility (1/GPa) = 0.05313152
#
# Stress axis : x y z
#
# Youngs Moduli (GPa) = 58.55401 47.65006 56.04197
#
# Poissons Ratio (x) = -0.11207 0.23844
# Poissons Ratio (y) = -0.13772 -0.02883
# Poissons Ratio (z) = 0.24913 -0.02451
#
# Static dielectric constant tensor:
#      x y z
#    x 1.921900 0.000000 0.024360 
#    y 0.000000 1.952790 0.000000 
#    z 0.024360 0.000000 1.888450 
# 
# From -- ./inp_files/257423.got.cif
#   From: 2010.05.17/outbox.cif.g08.bks.cpg/sg15_129_cif.got.tgz:257423.got - 2010.06.03 18:47:42.
