data_PCOD9265497
_publ_section_title
;
Structure prediction by ZEFSAII (Michael W. Deem and Ramdas Pophale) SiO2 
 PCOD9265497
Probable space group: C 2/C
;
_chemical_formula_sum "Si O2"
_cell_formula_units_Z 44
_cell_length_a 17.782804
_cell_length_b 17.312058
_cell_length_c 8.845061
_cell_angle_alpha 90.000000
_cell_angle_beta 56.923520
_cell_angle_gamma 90.000000
_cell_volume 2281.729501
_symmetry_space_group_name_H-M "C 2/C"
_symmetry_group_IT_number 15
_symmetry_cell_setting 'monoclinic'
loop_
_space_group_symop_operation_xyz
x,y,z
-x,y,1/2-z
-x,-y,-z
x,-y,1/2+z
1/2+x,1/2+y,z
1/2-x,1/2+y,1/2-z
1/2-x,1/2-y,-z
1/2+x,1/2-y,1/2+z
loop_
_atom_site_type_symbol
_atom_site_label
_atom_site_fract_x
_atom_site_fract_y
_atom_site_fract_z
Si Si1 0.446827 0.063541 0.461366
Si Si2 0.500000 0.419651 0.250000
Si Si3 0.956008 0.324216 0.461454
Si Si4 0.454853 0.644516 0.471452
Si Si5 0.704354 0.052899 0.356051
Si Si6 0.171612 0.022836 0.012392
O O1 0.500000 0.065265 0.250000
O O2 0.464490 0.145804 0.516736
O O3 0.500000 0.000000 0.500000
O O4 0.349239 0.027355 0.554069
O O5 0.496373 0.377536 0.420975
O O6 0.587578 0.473551 0.162724
O O7 0.933166 0.235024 0.507880
O O8 0.868764 0.378943 0.575460
O O9 0.000000 0.336492 0.250000
O O10 0.500000 0.636515 0.250000
O O11 0.370041 0.587519 0.551845
O O12 0.773385 0.064843 0.416314
O O13 0.761631 0.035549 0.145162
#
# Coordination Sequence:
#
# PCOD9265497 Si02
#       6
#     8   4   8   8   8   8
#     4  10  19  36  61  90 130 169 207 250 312 393
#     4  12  24  46  66  90 126 172 226 262 318 382
#     4  10  22  41  63  94 133 166 205 260 329 388
#     4  11  24  43  68  94 124 173 218 264 325 378
#     4  11  21  36  64  97 124 164 212 262 319 382
#     4  12  22  40  65  90 124 166 220 268 308 380
#
# _framework density 19.283618000000001
#
# number of rings (size 3 to 8) (size 9 to 14) (size 15 to 20)
#    0.000    1.091    2.727    7.091    1.273    0.727 
#    0.000    2.727    0.000    0.000    0.000    0.000 
#    0.000    0.000    0.000    0.000    0.000    0.000 
#
# Total GULP energy -122555.140255 kJ/mol
# GULP energy per Si atom -5570.688193 kJ/mol
# Density = 1.923973 g / cm^3
# Si number density = 19.283618 Si / 1000 Ang^3
#
#
#
# Elastic Constant Matrix: (Units=GPa)
#
#
# Indices 1 2 3 4 5 6 
#
# 1 97.8350 37.0024 22.4572 0.0000 9.7425 0.0000
# 2 37.0024 118.0301 42.2714 0.0000 -3.6290 0.0000
# 3 22.4572 42.2714 82.1443 0.0000 -1.0177 0.0000
# 4 0.0000 0.0000 0.0000 27.0500 0.0000 5.7081
# 5 9.7425 -3.6290 -1.0177 0.0000 41.7710 0.0000
# 6 0.0000 0.0000 0.0000 5.7081 0.0000 17.8343
#
#
#
# Elastic Compliance Matrix: (Units=1/GPa)
#
#
# Indices 1 2 3 4 5 6 
#
# 1 0.012173 -0.003320 -0.001659 0.000000 -0.003168 0.000000
# 2 -0.003320 0.011317 -0.004896 0.000000 0.001638 0.000000
# 3 -0.001659 -0.004896 0.015151 0.000000 0.000331 0.000000
# 4 0.000000 0.000000 0.000000 0.039646 0.000000 -0.012689
# 5 -0.003168 0.001638 0.000331 0.000000 0.024829 0.000000
# 6 0.000000 0.000000 0.000000 -0.012689 0.000000 0.060133
#
#
# Mechanical properties :
#
#
# Convention : Reuss Voigt Hill
#
# Bulk Modulus (GPa) = 52.93254 55.71905 54.32579
# Shear Modulus (GPa) = 26.41376 30.41630 28.41503
#
# Velocity S-wave (km/s) = 3.70503 3.97585 3.84283
# Velocity P-wave (km/s) = 6.76846 7.07345 6.92264
#
# Compressibility (1/GPa) = 0.01889197
#
# Stress axis : x y z
#
# Youngs Moduli (GPa) = 82.14875 88.36387 66.00345
#
# Poissons Ratio (x) = 0.29332 0.10950
# Poissons Ratio (y) = 0.27269 0.32314
# Poissons Ratio (z) = 0.13628 0.43261
#
# Static dielectric constant tensor:
#      x y z
#    x 1.700730 0.000000 0.018610 
#    y 0.000000 1.669330 0.000000 
#    z 0.018610 0.000000 1.703410 
# 
# From -- ./inp_files/39555.got.cif
#   From: 2010.05.17/outbox.cif.g08.bks.cpg/sg15_20_cif.got.tgz:39555.got - 2010.06.03 18:47:42.
