data_PCOD9265675
_publ_section_title
;
Structure prediction by ZEFSAII (Michael W. Deem and Ramdas Pophale) SiO2 
 PCOD9265675
Probable space group: C 2/C
;
_chemical_formula_sum "Si O2"
_cell_formula_units_Z 64
_cell_length_a 20.575095
_cell_length_b 10.572442
_cell_length_c 16.911045
_cell_angle_alpha 90.000000
_cell_angle_beta 56.788830
_cell_angle_gamma 90.000000
_cell_volume 3077.764168
_symmetry_space_group_name_H-M "C 2/C"
_symmetry_group_IT_number 15
_symmetry_cell_setting 'monoclinic'
loop_
_space_group_symop_operation_xyz
x,y,z
-x,y,1/2-z
-x,-y,-z
x,-y,1/2+z
1/2+x,1/2+y,z
1/2-x,1/2+y,1/2-z
1/2-x,1/2-y,-z
1/2+x,1/2-y,1/2+z
loop_
_atom_site_type_symbol
_atom_site_label
_atom_site_fract_x
_atom_site_fract_y
_atom_site_fract_z
Si Si1 0.189424 0.643584 0.407850
Si Si2 0.992425 0.015471 0.343075
Si Si3 0.958131 0.413043 0.590889
Si Si4 0.922014 0.610659 0.751358
Si Si5 0.143190 0.124931 0.228301
Si Si6 0.839078 0.894730 0.975053
Si Si7 0.558872 0.768968 0.640247
Si Si8 0.810711 0.532477 0.442801
O O1 0.115492 0.650564 0.400768
O O2 0.267615 0.623196 0.304982
O O3 0.192361 0.771020 0.459306
O O4 0.181639 0.525587 0.473985
O O5 0.950583 0.881508 0.355951
O O6 0.000000 0.075417 0.250000
O O7 0.929418 0.086302 0.438361
O O8 0.083634 0.020664 0.303528
O O9 0.932361 0.504374 0.678880
O O10 0.000000 0.500000 0.500000
O O11 0.020324 0.317796 0.585781
O O12 0.896184 0.740793 0.728629
O O13 0.858342 0.562782 0.855476
O O14 0.000000 0.627952 0.750000
O O15 0.154921 0.120025 0.124485
O O16 0.778741 0.011621 0.024076
O O17 0.500000 0.810700 0.750000
O O18 0.643150 0.834310 0.594127
#
# Coordination Sequence:
#
# PCOD9265675 Si02
#       8
#     8   8   8   8   8   8   8   8
#     4  11  21  37  59  93 126 149 203 266 314 353
#     4   9  21  36  59  88 119 155 196 245 309 364
#     4  12  24  36  59  88 123 159 201 257 310 358
#     4  12  19  35  65  93 114 155 213 254 303 364
#     4  10  20  37  63  90 118 158 206 257 304 369
#     4  10  19  36  63  94 117 150 202 266 310 352
#     4  11  21  40  61  86 120 162 204 242 301 384
#     4  11  18  35  65  90 115 152 206 256 297 360
#
# _framework density 20.794315000000001
#
# number of rings (size 3 to 8) (size 9 to 14) (size 15 to 20)
#    0.000    1.250    6.250    1.875    1.750    0.500 
#    2.250    0.625    2.750    0.000    0.000    0.000 
#    0.000    0.000    0.000    0.000    0.000    0.000 
#
# Total GULP energy -178355.201601 kJ/mol
# GULP energy per Si atom -5573.600050 kJ/mol
# Density = 2.074699 g / cm^3
# Si number density = 20.794315 Si / 1000 Ang^3
#
#
#
# Elastic Constant Matrix: (Units=GPa)
#
#
# Indices 1 2 3 4 5 6 
#
# 1 86.1800 14.4786 37.0076 0.0000 -31.2177 0.0000
# 2 14.4786 77.2318 24.6783 0.0000 -20.2202 0.0000
# 3 37.0076 24.6783 71.3137 0.0000 -38.9559 0.0000
# 4 0.0000 0.0000 0.0000 18.8728 0.0000 -14.5275
# 5 -31.2177 -20.2202 -38.9559 0.0000 43.2852 0.0000
# 6 0.0000 0.0000 0.0000 -14.5275 0.0000 18.2967
#
#
#
# Elastic Compliance Matrix: (Units=1/GPa)
#
#
# Indices 1 2 3 4 5 6 
#
# 1 0.016278 0.000415 -0.004076 0.000000 0.008266 0.000000
# 2 0.000415 0.015019 -0.002787 0.000000 0.004807 0.000000
# 3 -0.004076 -0.002787 0.029083 0.000000 0.021933 0.000000
# 4 0.000000 0.000000 0.000000 0.136276 0.000000 0.108203
# 5 0.008266 0.004807 0.021933 0.000000 0.051049 0.000000
# 6 0.000000 0.000000 0.000000 0.108203 0.000000 0.140567
#
#
# Mechanical properties :
#
#
# Convention : Reuss Voigt Hill
#
# Bulk Modulus (GPa) = 21.05910 43.00606 32.03258
# Shear Modulus (GPa) = 11.99048 26.66166 19.32607
#
# Velocity S-wave (km/s) = 2.40390 3.58461 3.05190
# Velocity P-wave (km/s) = 4.22544 6.15298 5.27795
#
# Compressibility (1/GPa) = 0.04748541
#
# Stress axis : x y z
#
# Youngs Moduli (GPa) = 61.43132 66.58086 34.38410
#
# Poissons Ratio (x) = -0.02761 0.14014
# Poissons Ratio (y) = -0.02548 0.09582
# Poissons Ratio (z) = 0.25038 0.18554
#
# Static dielectric constant tensor:
#      x y z
#    x 1.835130 0.000000 -0.076800 
#    y 0.000000 1.769450 0.000000 
#    z -0.076800 0.000000 1.733110 
# 
# From -- ./inp_files/215033.got.cif
#   From: 2010.05.17/outbox.cif.g08.bks.cpg/sg15_108_cif.got.tgz:215033.got - 2010.06.03 18:47:42.
