data_PCOD9265224
_publ_section_title
;
Structure prediction by ZEFSAII (Michael W. Deem and Ramdas Pophale) SiO2 
 PCOD9265224
Probable space group: C 2/C
;
_chemical_formula_sum "Si O2"
_cell_formula_units_Z 60
_cell_length_a 8.767543
_cell_length_b 11.082591
_cell_length_c 27.666010
_cell_angle_alpha 90.000000
_cell_angle_beta 89.869644
_cell_angle_gamma 90.000000
_cell_volume 2688.218813
_symmetry_space_group_name_H-M "C 2/C"
_symmetry_group_IT_number 15
_symmetry_cell_setting 'monoclinic'
loop_
_space_group_symop_operation_xyz
x,y,z
-x,y,1/2-z
-x,-y,-z
x,-y,1/2+z
1/2+x,1/2+y,z
1/2-x,1/2+y,1/2-z
1/2-x,1/2-y,-z
1/2+x,1/2-y,1/2+z
loop_
_atom_site_type_symbol
_atom_site_label
_atom_site_fract_x
_atom_site_fract_y
_atom_site_fract_z
Si Si1 0.930305 0.036266 0.392342
Si Si2 0.738583 0.268909 0.787273
Si Si3 0.282753 0.491864 0.167315
Si Si4 0.896464 0.247634 0.319558
Si Si5 0.363887 0.637193 0.498436
Si Si6 0.352954 0.074710 0.483956
Si Si7 0.840327 0.192856 0.938188
Si Si8 0.000000 0.899466 0.250000
O O1 0.868231 0.134121 0.354359
O O2 0.906377 0.099325 0.444098
O O3 0.850775 0.903753 0.395049
O O4 0.104865 0.013638 0.377300
O O5 0.800106 0.386914 0.815083
O O6 0.678585 0.284555 0.732091
O O7 0.579705 0.233537 0.814134
O O8 0.878328 0.177867 0.780736
O O9 0.180773 0.372529 0.163018
O O10 0.400652 0.472627 0.211944
O O11 0.250000 0.750000 0.500000
O O12 0.276503 0.524086 0.520547
O O13 0.511946 0.662049 0.529568
O O14 0.307754 0.157697 0.530256
O O15 0.355274 0.162505 0.437485
O O16 0.500000 0.000000 0.500000
#
# Coordination Sequence:
#
# PCOD9265224 Si02
#       8
#     8   8   8   8   8   8   8   4
#     4  10  21  36  59  86 119 154 205 245 306 354
#     4   9  19  37  59  89 115 151 195 226 291 362
#     4  10  20  37  60  82 118 153 188 246 292 348
#     4   9  19  36  59  86 118 154 192 241 294 353
#     4  11  22  39  62  82 116 163 206 253 309 367
#     4  10  19  36  59  83 105 143 200 244 299 351
#     4  10  22  38  58  82 114 153 197 254 295 358
#     4  10  20  36  64  86 114 154 188 232 292 358
#
# _framework density 22.319611999999999
#
# number of rings (size 3 to 8) (size 9 to 14) (size 15 to 20)
#    0.000    2.133    1.333    3.200    1.867    2.133 
#    0.000   10.667    0.000    0.000    0.000    0.000 
#    0.000    0.000    0.000    0.000    0.000    0.000 
#
# Total GULP energy -167525.266859 kJ/mol
# GULP energy per Si atom -5584.175562 kJ/mol
# Density = 2.226881 g / cm^3
# Si number density = 22.319612 Si / 1000 Ang^3
#
#
#
# Elastic Constant Matrix: (Units=GPa)
#
#
# Indices 1 2 3 4 5 6 
#
# 1 69.1905 32.0955 18.4599 0.0000 -10.6076 0.0000
# 2 32.0955 119.7922 36.3022 0.0000 -20.0146 0.0000
# 3 18.4599 36.3022 77.5471 0.0000 -18.4255 0.0000
# 4 0.0000 0.0000 0.0000 41.1555 0.0000 -9.2026
# 5 -10.6076 -20.0146 -18.4255 0.0000 19.1184 0.0000
# 6 0.0000 0.0000 0.0000 -9.2026 0.0000 45.8579
#
#
#
# Elastic Compliance Matrix: (Units=1/GPa)
#
#
# Indices 1 2 3 4 5 6 
#
# 1 0.017102 -0.003393 -0.001391 0.000000 0.004597 0.000000
# 2 -0.003393 0.011312 -0.002751 0.000000 0.007308 0.000000
# 3 -0.001391 -0.002751 0.017700 0.000000 0.013406 0.000000
# 4 0.000000 0.000000 0.000000 0.025440 0.000000 0.005105
# 5 0.004597 0.007308 0.013406 0.000000 0.075427 0.000000
# 6 0.000000 0.000000 0.000000 0.005105 0.000000 0.022831
#
#
# Mechanical properties :
#
#
# Convention : Reuss Voigt Hill
#
# Bulk Modulus (GPa) = 32.21187 48.91609 40.56398
# Shear Modulus (GPa) = 25.61095 33.20452 29.40773
#
# Velocity S-wave (km/s) = 3.39110 3.86123 3.63378
# Velocity P-wave (km/s) = 5.45859 6.46859 5.98493
#
# Compressibility (1/GPa) = 0.03104446
#
# Stress axis : x y z
#
# Youngs Moduli (GPa) = 58.47122 88.40550 56.49774
#
# Poissons Ratio (x) = 0.29993 0.07857
# Poissons Ratio (y) = 0.19837 0.15544
# Poissons Ratio (z) = 0.08131 0.24323
#
# Static dielectric constant tensor:
#      x y z
#    x 1.810390 0.000000 0.003080 
#    y 0.000000 1.882120 0.000000 
#    z 0.003080 0.000000 1.868360 
# 
# From -- ./inp_files/307124.got.cif
#   From: 2010.05.17/outbox.cif.g08.bks.cpg/sg15_154_cif.got.tgz:307124.got - 2010.06.03 18:47:42.
