data_PCOD9265648
_publ_section_title
;
Structure prediction by ZEFSAII (Michael W. Deem and Ramdas Pophale) SiO2 
 PCOD9265648
Probable space group: C 2/C
;
_chemical_formula_sum "Si O2"
_cell_formula_units_Z 60
_cell_length_a 11.358782
_cell_length_b 21.993550
_cell_length_c 16.672600
_cell_angle_alpha 90.000000
_cell_angle_beta 37.425659
_cell_angle_gamma 90.000000
_cell_volume 2531.291785
_symmetry_space_group_name_H-M "C 2/C"
_symmetry_group_IT_number 15
_symmetry_cell_setting 'monoclinic'
loop_
_space_group_symop_operation_xyz
x,y,z
-x,y,1/2-z
-x,-y,-z
x,-y,1/2+z
1/2+x,1/2+y,z
1/2-x,1/2+y,1/2-z
1/2-x,1/2-y,-z
1/2+x,1/2-y,1/2+z
loop_
_atom_site_type_symbol
_atom_site_label
_atom_site_fract_x
_atom_site_fract_y
_atom_site_fract_z
Si Si1 0.298198 0.489014 0.362546
Si Si2 0.915775 0.322730 0.922027
Si Si3 0.576760 0.945919 0.849998
Si Si4 0.500449 0.310520 0.089369
Si Si5 0.937162 0.783460 0.936744
Si Si6 0.000000 0.539999 0.750000
Si Si7 0.368549 0.832902 0.137649
Si Si8 0.747339 0.601369 0.003422
O O1 0.500000 0.454700 0.250000
O O2 0.247139 0.527153 0.311157
O O3 0.317764 0.540701 0.418929
O O4 0.113788 0.450463 0.489468
O O5 0.985613 0.253868 0.869506
O O6 0.072789 0.376139 0.823829
O O7 0.719390 0.335552 0.978886
O O8 0.867309 0.322694 0.043415
O O9 0.551527 0.994647 0.793718
O O10 0.440159 0.296479 0.030352
O O11 0.337954 0.353205 0.217198
O O12 0.921951 0.849082 0.904604
O O13 0.750000 0.750000 0.000000
O O14 0.100277 0.732999 0.836241
O O15 0.825093 0.582956 0.873558
O O16 0.557072 0.872461 0.059472
#
# Coordination Sequence:
#
# PCOD9265648 Si02
#       8
#     8   8   8   8   8   4   8   8
#     4  10  22  41  66  89 118 162 212 261 312 379
#     4  10  21  40  58  87 127 159 208 255 306 380
#     4  10  22  45  62  91 124 158 216 262 316 378
#     4  10  21  36  59  90 122 164 205 248 312 379
#     4   9  20  36  55  90 126 155 203 250 305 372
#     4  10  22  40  66  84 122 168 200 268 322 356
#     4  10  19  36  63  90 121 163 201 251 314 374
#     4  10  19  39  62  89 124 157 204 258 315 376
#
# _framework density 23.703312
#
# number of rings (size 3 to 8) (size 9 to 14) (size 15 to 20)
#    0.000    2.133    1.333    1.200    0.000    3.733 
#   12.000    1.333    0.000    0.000    0.000    0.000 
#    0.000    0.000    0.000    0.000    0.000    0.000 
#
# Total GULP energy -167522.824510 kJ/mol
# GULP energy per Si atom -5584.094150 kJ/mol
# Density = 2.364936 g / cm^3
# Si number density = 23.703312 Si / 1000 Ang^3
#
#
#
# Elastic Constant Matrix: (Units=GPa)
#
#
# Indices 1 2 3 4 5 6 
#
# 1 106.0085 6.3779 44.9479 0.0006 -11.0998 0.0007
# 2 6.3779 75.9440 -17.1947 -0.0010 0.2184 0.0001
# 3 44.9479 -17.1947 41.2783 -0.0025 -14.4169 0.0015
# 4 0.0006 -0.0010 -0.0025 11.6500 -0.0005 -0.7015
# 5 -11.0998 0.2184 -14.4169 -0.0005 26.7059 -0.0011
# 6 0.0007 0.0001 0.0015 -0.7015 -0.0011 33.2536
#
#
#
# Elastic Compliance Matrix: (Units=1/GPa)
#
#
# Indices 1 2 3 4 5 6 
#
# 1 0.021844 -0.008554 -0.029766 -0.000009 -0.006920 0.000001
# 2 -0.008554 0.018223 0.019239 0.000006 0.006682 0.000000
# 3 -0.029766 0.019239 0.074282 0.000020 0.027571 -0.000002
# 4 -0.000009 0.000006 0.000020 0.085946 0.000009 0.001813
# 5 -0.006920 0.006682 0.027571 0.000009 0.049398 0.000001
# 6 0.000001 0.000000 -0.000002 0.001813 0.000001 0.030110
#
#
# Mechanical properties :
#
#
# Convention : Reuss Voigt Hill
#
# Bulk Modulus (GPa) = 13.12577 32.38811 22.75694
# Shear Modulus (GPa) = 14.56190 26.92854 20.74522
#
# Velocity S-wave (km/s) = 2.48128 3.37422 2.96159
# Velocity P-wave (km/s) = 3.70925 5.37346 4.61696
#
# Compressibility (1/GPa) = 0.07618600
#
# Stress axis : x y z
#
# Youngs Moduli (GPa) = 45.77851 54.87652 13.46220
#
# Poissons Ratio (x) = 0.46942 0.40072
# Poissons Ratio (y) = 0.39159 -0.25900
# Poissons Ratio (z) = 1.36266 -1.05577
#
# Static dielectric constant tensor:
#      x y z
#    x 1.929880 0.000000 -0.010210 
#    y 0.000000 1.935010 0.000000 
#    z -0.010210 0.000000 1.916950 
# 
# From -- ./inp_files/90881.got.cif
#   From: 2010.05.17/outbox.cif.g08.bks.cpg/sg15_46_cif.got.tgz:90881.got - 2010.06.03 18:47:42.
