data_PCOD9265475
_publ_section_title
;
Structure prediction by ZEFSAII (Michael W. Deem and Ramdas Pophale) SiO2 
 PCOD9265475
Probable space group: C 2/C
;
_chemical_formula_sum "Si O2"
_cell_formula_units_Z 40
_cell_length_a 13.709292
_cell_length_b 7.601540
_cell_length_c 18.470434
_cell_angle_alpha 90.000000
_cell_angle_beta 108.175161
_cell_angle_gamma 90.000000
_cell_volume 1828.800776
_symmetry_space_group_name_H-M "C 2/C"
_symmetry_group_IT_number 15
_symmetry_cell_setting 'monoclinic'
loop_
_space_group_symop_operation_xyz
x,y,z
-x,y,1/2-z
-x,-y,-z
x,-y,1/2+z
1/2+x,1/2+y,z
1/2-x,1/2+y,1/2-z
1/2-x,1/2-y,-z
1/2+x,1/2-y,1/2+z
loop_
_atom_site_type_symbol
_atom_site_label
_atom_site_fract_x
_atom_site_fract_y
_atom_site_fract_z
Si Si1 0.091100 0.882079 0.720632
Si Si2 0.035172 0.766036 0.552078
Si Si3 0.841549 0.405513 0.934667
Si Si4 0.789310 0.936808 0.979764
Si Si5 0.246607 0.618479 0.819483
O O1 0.037499 0.843445 0.632016
O O2 0.141743 0.703878 0.765602
O O3 0.000000 0.952483 0.750000
O O4 0.185959 0.011903 0.723379
O O5 0.108376 0.592241 0.572677
O O6 0.092710 0.899578 0.511186
O O7 0.927088 0.699248 0.499350
O O8 0.743118 0.435284 0.963091
O O9 0.812423 0.286479 0.860629
O O10 0.750000 0.750000 0.000000
O O11 0.739129 0.000668 0.891690
#
# Coordination Sequence:
#
# PCOD9265475 Si02
#       5
#     8   8   8   8   8
#     4  11  24  42  61  87 126 168 205 252 310 368
#     4   9  20  37  58  87 119 155 204 249 303 374
#     4  10  19  36  61  88 118 155 200 257 310 358
#     4   9  19  35  58  86 115 150 196 253 306 355
#     4  11  23  39  61  90 124 163 211 256 306 377
#
# _framework density 21.872257999999999
#
# number of rings (size 3 to 8) (size 9 to 14) (size 15 to 20)
#    0.000    2.000    0.000    3.000    0.000    4.800 
#    0.000   12.000    0.000    0.000    0.000    0.000 
#    0.000    0.000    0.000    0.000    0.000    0.000 
#
# Total GULP energy -111724.518005 kJ/mol
# GULP energy per Si atom -5586.225900 kJ/mol
# Density = 2.182248 g / cm^3
# Si number density = 21.872258 Si / 1000 Ang^3
#
#
#
# Elastic Constant Matrix: (Units=GPa)
#
#
# Indices 1 2 3 4 5 6 
#
# 1 87.5369 26.8950 44.5753 0.0000 -22.7377 0.0000
# 2 26.8950 86.6685 24.0320 0.0000 -18.8374 0.0000
# 3 44.5753 24.0320 56.8086 0.0000 3.8854 0.0000
# 4 0.0000 0.0000 0.0000 40.2967 0.0000 0.2217
# 5 -22.7377 -18.8374 3.8854 0.0000 31.3753 0.0000
# 6 0.0000 0.0000 0.0000 0.2217 0.0000 28.5972
#
#
#
# Elastic Compliance Matrix: (Units=1/GPa)
#
#
# Indices 1 2 3 4 5 6 
#
# 1 0.033424 0.004741 -0.030340 0.000000 0.030826 0.000000
# 2 0.004741 0.016541 -0.011731 0.000000 0.014819 0.000000
# 3 -0.030340 -0.011731 0.048771 0.000000 -0.035070 0.000000
# 4 0.000000 0.000000 0.000000 0.024817 0.000000 -0.000192
# 5 0.030826 0.014819 -0.035070 0.000000 0.067452 0.000000
# 6 0.000000 0.000000 0.000000 -0.000192 0.000000 0.034970
#
#
# Mechanical properties :
#
#
# Convention : Reuss Voigt Hill
#
# Bulk Modulus (GPa) = 41.53663 46.89096 44.21380
# Shear Modulus (GPa) = 16.19912 29.08795 22.64353
#
# Velocity S-wave (km/s) = 2.72439 3.65074 3.22104
# Velocity P-wave (km/s) = 5.37849 6.26543 5.83883
#
# Compressibility (1/GPa) = 0.02407514
#
# Stress axis : x y z
#
# Youngs Moduli (GPa) = 29.91874 60.45669 20.50419
#
# Poissons Ratio (x) = -0.28661 0.62210
# Poissons Ratio (y) = -0.14184 0.24053
# Poissons Ratio (z) = 0.90774 0.70920
#
# Static dielectric constant tensor:
#      x y z
#    x 1.800520 0.000000 -0.010300 
#    y 0.000000 1.841320 0.000000 
#    z -0.010300 0.000000 1.763710 
# 
# From -- ./inp_files/150798.got.cif
#   From: 2010.05.17/outbox.cif.g08.bks.cpg/sg15_76_cif.got.tgz:150798.got - 2010.06.03 18:47:42.
