data_PCOD9265881
_publ_section_title
;
Structure prediction by ZEFSAII (Michael W. Deem and Ramdas Pophale) SiO2 
 PCOD9265881
Probable space group: C 2/C
;
_chemical_formula_sum "Si O2"
_cell_formula_units_Z 60
_cell_length_a 15.378704
_cell_length_b 15.737500
_cell_length_c 9.242705
_cell_angle_alpha 90.000000
_cell_angle_beta 86.604960
_cell_angle_gamma 90.000000
_cell_volume 2233.015298
_symmetry_space_group_name_H-M "C 2/C"
_symmetry_group_IT_number 15
_symmetry_cell_setting 'monoclinic'
loop_
_space_group_symop_operation_xyz
x,y,z
-x,y,1/2-z
-x,-y,-z
x,-y,1/2+z
1/2+x,1/2+y,z
1/2-x,1/2+y,1/2-z
1/2-x,1/2-y,-z
1/2+x,1/2-y,1/2+z
loop_
_atom_site_type_symbol
_atom_site_label
_atom_site_fract_x
_atom_site_fract_y
_atom_site_fract_z
Si Si1 0.593774 0.467695 0.786444
Si Si2 0.692524 0.294003 0.275270
Si Si3 0.500000 0.888740 0.250000
Si Si4 0.077280 0.149043 0.543264
Si Si5 0.898013 0.508301 0.965480
Si Si6 0.794088 0.414465 0.748596
Si Si7 0.103472 0.815134 0.562002
Si Si8 0.134574 0.709195 0.837722
O O1 0.500000 0.516029 0.750000
O O2 0.702091 0.468642 0.765849
O O3 0.585886 0.392098 0.671161
O O4 0.583484 0.439787 0.955901
O O5 0.612466 0.336546 0.198562
O O6 0.705305 0.190483 0.266301
O O7 0.682197 0.321102 0.442529
O O8 0.773727 0.333929 0.183412
O O9 0.583553 0.935861 0.179238
O O10 0.453279 0.840329 0.122860
O O11 0.138957 0.210939 0.441630
O O12 0.982170 0.186941 0.526392
O O13 0.845456 0.431806 0.894456
O O14 0.845622 0.552152 0.100782
O O15 0.000000 0.500000 0.000000
O O16 0.116918 0.740583 0.674470
#
# Coordination Sequence:
#
# PCOD9265881 Si02
#       8
#     8   8   4   8   8   8   8   8
#     4   9  21  43  70  95 135 171 216 287 348 424
#     4  12  24  34  64 103 133 171 222 283 334 415
#     4  12  24  42  68  90 140 178 224 270 328 422
#     4  10  20  36  55  97 132 164 206 263 356 400
#     4  12  28  48  64  98 133 191 239 277 325 398
#     4  12  26  46  69  91 137 182 245 283 329 398
#     4  10  19  37  56  95 133 166 208 261 356 406
#     4  11  21  36  61  91 125 170 214 264 346 394
#
# _framework density 26.869498
#
# number of rings (size 3 to 8) (size 9 to 14) (size 15 to 20)
#    0.000    1.067    5.333    2.800    3.733    1.067 
#    0.000    0.667    0.000    0.000    0.000    0.000 
#    0.000    0.000    0.000    0.000    0.000    0.000 
#
# Total GULP energy -167168.178102 kJ/mol
# GULP energy per Si atom -5572.272603 kJ/mol
# Density = 2.680834 g / cm^3
# Si number density = 26.869498 Si / 1000 Ang^3
#
#
#
# Elastic Constant Matrix: (Units=GPa)
#
#
# Indices 1 2 3 4 5 6 
#
# 1 162.4974 34.6571 44.2709 0.0000 5.7191 0.0000
# 2 34.6571 64.3931 21.8432 0.0000 -4.3333 0.0000
# 3 44.2709 21.8432 131.2377 0.0000 -12.6240 0.0000
# 4 0.0000 0.0000 0.0000 22.8249 0.0000 -6.9381
# 5 5.7191 -4.3333 -12.6240 0.0000 65.1193 0.0000
# 6 0.0000 0.0000 0.0000 -6.9381 0.0000 30.9629
#
#
#
# Elastic Compliance Matrix: (Units=1/GPa)
#
#
# Indices 1 2 3 4 5 6 
#
# 1 0.007495 -0.003414 -0.002084 0.000000 -0.001289 0.000000
# 2 -0.003414 0.018035 -0.001738 0.000000 0.001163 0.000000
# 3 -0.002084 -0.001738 0.008782 0.000000 0.001770 0.000000
# 4 0.000000 0.000000 0.000000 0.047014 0.000000 0.010535
# 5 -0.001289 0.001163 0.001770 0.000000 0.015890 0.000000
# 6 0.000000 0.000000 0.000000 0.010535 0.000000 0.034657
#
#
# Mechanical properties :
#
#
# Convention : Reuss Voigt Hill
#
# Bulk Modulus (GPa) = 50.40345 62.18561 56.29453
# Shear Modulus (GPa) = 32.68832 40.93857 36.81345
#
# Velocity S-wave (km/s) = 3.49170 3.90758 3.70548
# Velocity P-wave (km/s) = 5.92075 6.59945 6.26929
#
# Compressibility (1/GPa) = 0.01983991
#
# Stress axis : x y z
#
# Youngs Moduli (GPa) = 133.41794 55.44819 113.86385
#
# Poissons Ratio (x) = 0.18929 0.23732
# Poissons Ratio (y) = 0.45546 0.19793
# Poissons Ratio (z) = 0.27808 0.09638
#
# Static dielectric constant tensor:
#      x y z
#    x 2.146600 0.000000 0.026650 
#    y 0.000000 2.562010 0.000000 
#    z 0.026650 0.000000 2.121020 
# 
# From -- ./inp_files/42210.got.cif
#   From: 2010.05.17/outbox.cif.g08.bks.cpg/sg15_22_cif.got.tgz:42210.got - 2010.06.03 18:47:42.
