data_PCOD9265258
_publ_section_title
;
Structure prediction by ZEFSAII (Michael W. Deem and Ramdas Pophale) SiO2 
 PCOD9265258
Probable space group: C 2/C
;
_chemical_formula_sum "Si O2"
_cell_formula_units_Z 60
_cell_length_a 14.605714
_cell_length_b 9.357498
_cell_length_c 20.752524
_cell_angle_alpha 90.000000
_cell_angle_beta 106.203321
_cell_angle_gamma 90.000000
_cell_volume 2723.643232
_symmetry_space_group_name_H-M "C 2/C"
_symmetry_group_IT_number 15
_symmetry_cell_setting 'monoclinic'
loop_
_space_group_symop_operation_xyz
x,y,z
-x,y,1/2-z
-x,-y,-z
x,-y,1/2+z
1/2+x,1/2+y,z
1/2-x,1/2+y,1/2-z
1/2-x,1/2-y,-z
1/2+x,1/2-y,1/2+z
loop_
_atom_site_type_symbol
_atom_site_label
_atom_site_fract_x
_atom_site_fract_y
_atom_site_fract_z
Si Si1 0.142941 0.392486 0.282104
Si Si2 0.318300 0.049142 0.566863
Si Si3 0.000000 0.860286 0.750000
Si Si4 0.975528 0.009341 0.108555
Si Si5 0.427467 0.065030 0.349428
Si Si6 0.332168 0.664734 0.877748
Si Si7 0.400482 0.228692 0.066290
Si Si8 0.508029 0.816610 0.452665
O O1 0.106430 0.513159 0.226938
O O2 0.257261 0.381690 0.307272
O O3 0.876084 0.419014 0.145625
O O4 0.088636 0.246607 0.253874
O O5 0.311945 0.878629 0.556500
O O6 0.220510 0.126529 0.565498
O O7 0.387220 0.110665 0.525758
O O8 0.976859 0.954868 0.683938
O O9 0.975695 0.160306 0.073083
O O10 0.072417 0.927149 0.108137
O O11 0.892157 0.896935 0.075354
O O12 0.352104 0.169742 0.368949
O O13 0.521847 0.164733 0.367758
O O14 0.447360 0.924227 0.395985
O O15 0.453341 0.200419 0.008865
#
# Coordination Sequence:
#
# PCOD9265258 Si02
#       8
#     8   8   4   8   8   8   8   8
#     4  10  20  35  61  86 119 145 196 244 304 356
#     4   9  19  39  60  84 117 155 197 247 290 362
#     4  12  20  38  62  88 112 158 194 240 294 378
#     4  11  22  39  58  91 121 152 196 250 307 353
#     4  10  19  36  59  86 114 157 196 242 302 356
#     4   9  23  36  57  92 124 146 192 249 317 355
#     4  10  22  37  59  88 116 161 209 245 285 351
#     4  11  20  39  63  82 118 161 209 246 285 353
#
# _framework density 22.029316999999999
#
# number of rings (size 3 to 8) (size 9 to 14) (size 15 to 20)
#    0.800    1.067    2.667    2.800    1.867    2.133 
#    0.000    9.333    0.000    0.000    0.000    0.000 
#    0.000    0.000    0.000    0.000    0.000    0.000 
#
# Total GULP energy -167363.330619 kJ/mol
# GULP energy per Si atom -5578.777687 kJ/mol
# Density = 2.197918 g / cm^3
# Si number density = 22.029317 Si / 1000 Ang^3
#
#
#
# Elastic Constant Matrix: (Units=GPa)
#
#
# Indices 1 2 3 4 5 6 
#
# 1 38.9602 22.3028 4.0359 0.0000 -7.0809 0.0000
# 2 22.3028 154.4521 22.7941 0.0000 -9.4249 0.0000
# 3 4.0359 22.7941 62.6801 0.0000 -8.9409 0.0000
# 4 0.0000 0.0000 0.0000 24.8701 0.0000 -6.8114
# 5 -7.0809 -9.4249 -8.9409 0.0000 31.3760 0.0000
# 6 0.0000 0.0000 0.0000 -6.8114 0.0000 31.4627
#
#
#
# Elastic Compliance Matrix: (Units=1/GPa)
#
#
# Indices 1 2 3 4 5 6 
#
# 1 0.028843 -0.003882 0.000330 0.000000 0.005437 0.000000
# 2 -0.003882 0.007424 -0.002352 0.000000 0.000684 0.000000
# 3 0.000330 -0.002352 0.017406 0.000000 0.004328 0.000000
# 4 0.000000 0.000000 0.000000 0.042743 0.000000 0.009254
# 5 0.005437 0.000684 0.004328 0.000000 0.034537 0.000000
# 6 0.000000 0.000000 0.000000 0.009254 0.000000 0.033787
#
#
# Mechanical properties :
#
#
# Convention : Reuss Voigt Hill
#
# Bulk Modulus (GPa) = 23.88645 39.37312 31.62979
# Shear Modulus (GPa) = 26.24623 31.33905 28.79264
#
# Velocity S-wave (km/s) = 3.45544 3.77584 3.61919
# Velocity P-wave (km/s) = 5.17559 6.07628 5.64393
#
# Compressibility (1/GPa) = 0.04186473
#
# Stress axis : x y z
#
# Youngs Moduli (GPa) = 34.66988 134.69983 57.45302
#
# Poissons Ratio (x) = 0.52289 -0.01897
# Poissons Ratio (y) = 0.13459 0.13515
# Poissons Ratio (z) = -0.01144 0.31685
#
# Static dielectric constant tensor:
#      x y z
#    x 1.862040 0.000000 0.025660 
#    y 0.000000 1.815100 0.000000 
#    z 0.025660 0.000000 1.827620 
# 
# From -- ./inp_files/272791.got.cif
#   From: 2010.05.17/outbox.cif.g08.bks.cpg/sg15_137_cif.got.tgz:272791.got - 2010.06.03 18:47:42.
