data_PCOD9265067
_publ_section_title
;
Structure prediction by ZEFSAII (Michael W. Deem and Ramdas Pophale) SiO2 
 PCOD9265067
Probable space group: C 2/C
;
_chemical_formula_sum "Si O2"
_cell_formula_units_Z 52
_cell_length_a 21.266664
_cell_length_b 15.843178
_cell_length_c 8.875505
_cell_angle_alpha 90.000000
_cell_angle_beta 102.478132
_cell_angle_gamma 90.000000
_cell_volume 2919.799107
_symmetry_space_group_name_H-M "C 2/C"
_symmetry_group_IT_number 15
_symmetry_cell_setting 'monoclinic'
loop_
_space_group_symop_operation_xyz
x,y,z
-x,y,1/2-z
-x,-y,-z
x,-y,1/2+z
1/2+x,1/2+y,z
1/2-x,1/2+y,1/2-z
1/2-x,1/2-y,-z
1/2+x,1/2-y,1/2+z
loop_
_atom_site_type_symbol
_atom_site_label
_atom_site_fract_x
_atom_site_fract_y
_atom_site_fract_z
Si Si1 0.956667 0.753982 0.377400
Si Si2 0.154484 0.286880 0.897645
Si Si3 0.940870 0.933865 0.489605
Si Si4 0.549085 0.114534 0.519615
Si Si5 0.286231 0.614989 0.442941
Si Si6 0.500000 0.984780 0.250000
Si Si7 0.652471 0.513404 0.296546
O O1 0.886942 0.731462 0.274124
O O2 0.962064 0.838026 0.477679
O O3 0.000000 0.767206 0.250000
O O4 0.987049 0.675211 0.479193
O O5 0.213882 0.349418 0.896734
O O6 0.109340 0.331534 0.997733
O O7 0.175414 0.197006 0.977055
O O8 0.901880 0.946174 0.623739
O O9 0.888617 0.952112 0.332352
O O10 0.000000 0.000000 0.500000
O O11 0.549696 0.071237 0.681116
O O12 0.537131 0.043480 0.387164
O O13 0.312310 0.579030 0.297101
O O14 0.299667 0.540735 0.572295
#
# Coordination Sequence:
#
# PCOD9265067 Si02
#       7
#     8   8   8   8   8   4   8
#     4  10  19  36  57  86 112 149 188 232 295 348
#     4  10  20  39  60  79 109 159 188 232 291 341
#     4  11  21  35  59  87 119 152 182 235 292 348
#     4  10  21  36  60  81 113 144 186 243 289 346
#     4  10  22  39  59  78 115 151 196 230 280 337
#     4  10  20  38  54  86 110 138 184 242 294 326
#     4  10  22  37  55  86 114 149 191 238 271 352
#
# _framework density 17.809445
#
# number of rings (size 3 to 8) (size 9 to 14) (size 15 to 20)
#    0.000    1.846    3.846    1.385    6.462    2.462 
#    0.000    0.769    0.000    0.000    0.000    0.000 
#    0.000    0.000    0.000    0.000    0.000    0.000 
#
# Total GULP energy -144986.497431 kJ/mol
# GULP energy per Si atom -5576.403747 kJ/mol
# Density = 1.776891 g / cm^3
# Si number density = 17.809445 Si / 1000 Ang^3
#
#
#
# Elastic Constant Matrix: (Units=GPa)
#
#
# Indices 1 2 3 4 5 6 
#
# 1 90.9060 52.8327 36.0383 0.0000 10.1099 0.0000
# 2 52.8327 117.9467 46.4767 0.0000 -5.2749 0.0000
# 3 36.0383 46.4767 76.4195 0.0000 -13.6200 0.0000
# 4 0.0000 0.0000 0.0000 26.3218 0.0000 -8.6362
# 5 10.1099 -5.2749 -13.6200 0.0000 19.9716 0.0000
# 6 0.0000 0.0000 0.0000 -8.6362 0.0000 25.6293
#
#
#
# Elastic Compliance Matrix: (Units=1/GPa)
#
#
# Indices 1 2 3 4 5 6 
#
# 1 0.020207 -0.006364 -0.008858 0.000000 -0.017951 0.000000
# 2 -0.006364 0.013219 -0.004374 0.000000 0.003730 0.000000
# 3 -0.008858 -0.004374 0.023355 0.000000 0.019257 0.000000
# 4 0.000000 0.000000 0.000000 0.042714 0.000000 0.014393
# 5 -0.017951 0.003730 0.019257 0.000000 0.073276 0.000000
# 6 0.000000 0.000000 0.000000 0.014393 0.000000 0.043868
#
#
# Mechanical properties :
#
#
# Convention : Reuss Voigt Hill
#
# Bulk Modulus (GPa) = 56.85163 61.77416 59.31290
# Shear Modulus (GPa) = 19.10632 24.37951 21.74291
#
# Velocity S-wave (km/s) = 3.27895 3.70389 3.49788
# Velocity P-wave (km/s) = 6.80638 7.28376 7.04911
#
# Compressibility (1/GPa) = 0.01758964
#
# Stress axis : x y z
#
# Youngs Moduli (GPa) = 49.48799 75.64726 42.81685
#
# Poissons Ratio (x) = 0.48139 0.37929
# Poissons Ratio (y) = 0.31492 0.18728
# Poissons Ratio (z) = 0.43838 0.33087
#
# Static dielectric constant tensor:
#      x y z
#    x 1.610980 0.000000 0.008550 
#    y 0.000000 1.614760 0.000000 
#    z 0.008550 0.000000 1.612520 
# 
# From -- ./inp_files/55332.got.cif
#   From: 2010.05.17/outbox.cif.g08.bks.cpg/sg15_28_cif.got.tgz:55332.got - 2010.06.03 18:47:42.
