data_PCOD9265530
_publ_section_title
;
Structure prediction by ZEFSAII (Michael W. Deem and Ramdas Pophale) SiO2 
 PCOD9265530
Probable space group: C 2/C
;
_chemical_formula_sum "Si O2"
_cell_formula_units_Z 44
_cell_length_a 19.555556
_cell_length_b 14.533079
_cell_length_c 15.389093
_cell_angle_alpha 90.000000
_cell_angle_beta 151.485563
_cell_angle_gamma 90.000000
_cell_volume 2087.878460
_symmetry_space_group_name_H-M "C 2/C"
_symmetry_group_IT_number 15
_symmetry_cell_setting 'monoclinic'
loop_
_space_group_symop_operation_xyz
x,y,z
-x,y,1/2-z
-x,-y,-z
x,-y,1/2+z
1/2+x,1/2+y,z
1/2-x,1/2+y,1/2-z
1/2-x,1/2-y,-z
1/2+x,1/2-y,1/2+z
loop_
_atom_site_type_symbol
_atom_site_label
_atom_site_fract_x
_atom_site_fract_y
_atom_site_fract_z
Si Si1 0.000000 0.242431 0.750000
Si Si2 0.318383 0.943085 0.204275
Si Si3 0.445370 0.186991 0.493522
Si Si4 0.212077 0.659778 0.350689
Si Si5 0.004642 0.862426 0.856762
Si Si6 0.215872 0.649432 0.007490
O O1 0.903687 0.303374 0.708326
O O2 0.874974 0.183622 0.561465
O O3 0.437647 0.892131 0.395705
O O4 0.309973 0.051788 0.190974
O O5 0.157189 0.907258 0.043973
O O6 0.356532 0.905898 0.150675
O O7 0.334386 0.203993 0.292684
O O8 0.522521 0.281656 0.605172
O O9 0.363820 0.165410 0.492099
O O10 0.000000 0.831458 0.750000
O O11 0.853930 0.914124 0.687390
O O12 0.250000 0.750000 0.000000
#
# Coordination Sequence:
#
# PCOD9265530 Si02
#       6
#     4   8   8   8   8   8
#     4  10  28  56  66  80 118 190 226 280 334 356
#     4  11  23  40  65 102 137 165 210 261 325 396
#     4  12  21  39  66 104 132 163 211 263 326 395
#     4  11  28  48  71  87 124 175 235 276 314 381
#     4  10  19  36  62 100 140 165 192 252 339 396
#     4  11  20  36  63 103 138 170 192 251 341 399
#
# _framework density 21.074024999999999
#
# number of rings (size 3 to 8) (size 9 to 14) (size 15 to 20)
#    0.000    1.091    5.455    1.091   11.455    0.000 
#    0.000    0.909    0.000    0.000    0.000    0.000 
#    0.000    0.000    0.000    0.000    0.000    0.000 
#
# Total GULP energy -122485.102649 kJ/mol
# GULP energy per Si atom -5567.504666 kJ/mol
# Density = 2.102606 g / cm^3
# Si number density = 21.074025 Si / 1000 Ang^3
#
#
#
# Elastic Constant Matrix: (Units=GPa)
#
#
# Indices 1 2 3 4 5 6 
#
# 1 43.2606 -4.3072 30.4194 0.0000 22.9267 0.0000
# 2 -4.3072 74.4977 26.4720 0.0000 1.1951 0.0000
# 3 30.4194 26.4720 161.9045 0.0000 14.2344 0.0000
# 4 0.0000 0.0000 0.0000 21.1940 0.0000 3.6761
# 5 22.9267 1.1951 14.2344 0.0000 36.2660 0.0000
# 6 0.0000 0.0000 0.0000 3.6761 0.0000 10.3728
#
#
#
# Elastic Compliance Matrix: (Units=1/GPa)
#
#
# Indices 1 2 3 4 5 6 
#
# 1 0.040371 0.004965 -0.006358 0.000000 -0.023190 0.000000
# 2 0.004965 0.014869 -0.003154 0.000000 -0.002391 0.000000
# 3 -0.006358 -0.003154 0.007793 0.000000 0.001065 0.000000
# 4 0.000000 0.000000 0.000000 0.050273 0.000000 -0.017817
# 5 -0.023190 -0.002391 0.001065 0.000000 0.041895 0.000000
# 6 0.000000 0.000000 0.000000 -0.017817 0.000000 0.102720
#
#
# Mechanical properties :
#
#
# Convention : Reuss Voigt Hill
#
# Bulk Modulus (GPa) = 18.53909 42.75901 30.64905
# Shear Modulus (GPa) = 17.54417 28.70515 23.12466
#
# Velocity S-wave (km/s) = 2.88844 3.69468 3.31616
# Velocity P-wave (km/s) = 4.46546 6.20765 5.40718
#
# Compressibility (1/GPa) = 0.05394007
#
# Stress axis : x y z
#
# Youngs Moduli (GPa) = 24.77042 67.25224 128.31777
#
# Poissons Ratio (x) = -0.33394 0.81586
# Poissons Ratio (y) = -0.12300 0.40470
# Poissons Ratio (z) = 0.15749 0.21211
#
# Static dielectric constant tensor:
#      x y z
#    x 1.863020 0.000000 0.126150 
#    y 0.000000 1.909350 0.000000 
#    z 0.126150 0.000000 1.886330 
# 
# From -- ./inp_files/168548.got.cif
#   From: 2010.05.17/outbox.cif.g08.bks.cpg/sg15_85_cif.got.tgz:168548.got - 2010.06.03 18:47:42.
