data_PCOD9265363
_publ_section_title
;
Structure prediction by ZEFSAII (Michael W. Deem and Ramdas Pophale) SiO2 
 PCOD9265363
Probable space group: C 2/C
;
_chemical_formula_sum "Si O2"
_cell_formula_units_Z 48
_cell_length_a 29.622369
_cell_length_b 16.915898
_cell_length_c 14.198563
_cell_angle_alpha 90.000000
_cell_angle_beta 157.812302
_cell_angle_gamma 90.000000
_cell_volume 2686.825793
_symmetry_space_group_name_H-M "C 2/C"
_symmetry_group_IT_number 15
_symmetry_cell_setting 'monoclinic'
loop_
_space_group_symop_operation_xyz
x,y,z
-x,y,1/2-z
-x,-y,-z
x,-y,1/2+z
1/2+x,1/2+y,z
1/2-x,1/2+y,1/2-z
1/2-x,1/2-y,-z
1/2+x,1/2-y,1/2+z
loop_
_atom_site_type_symbol
_atom_site_label
_atom_site_fract_x
_atom_site_fract_y
_atom_site_fract_z
Si Si1 0.900150 0.538786 0.244352
Si Si2 0.337268 0.442877 0.758284
Si Si3 0.000000 0.490144 0.250000
Si Si4 0.263087 0.663218 0.486395
Si Si5 0.527758 0.399492 0.977255
Si Si6 0.299535 0.855962 0.847036
Si Si7 0.000000 0.777974 0.750000
O O1 0.955787 0.544681 0.248853
O O2 0.853271 0.617083 0.201904
O O3 0.000000 0.500000 0.500000
O O4 0.786029 0.482048 0.013961
O O5 0.405558 0.409712 0.799083
O O6 0.296247 0.380066 0.757922
O O7 0.421421 0.514974 0.959074
O O8 0.109450 0.431005 0.487201
O O9 0.250000 0.750000 0.500000
O O10 0.263836 0.658186 0.375369
O O11 0.376869 0.626443 0.758898
O O12 0.517023 0.335289 0.873450
O O13 0.384861 0.780733 0.035624
#
# Coordination Sequence:
#
# PCOD9265363 Si02
#       7
#     8   8   4   8   8   8   4
#     4  10  19  36  60  87 111 153 197 250 285 344
#     4   9  22  39  60  89 117 156 208 241 299 365
#     4   9  18  36  58  84 111 144 206 241 286 350
#     4  11  21  37  59  83 120 154 192 243 305 353
#     4  10  22  40  59  87 122 157 197 251 299 361
#     4  10  20  37  63  85 114 160 195 244 302 358
#     4  11  22  38  62  88 125 158 194 249 308 354
#
# _framework density 17.864947999999998
#
# number of rings (size 3 to 8) (size 9 to 14) (size 15 to 20)
#    0.000    2.000    3.333    0.000    0.000    5.333 
#    3.000    1.667    0.000    0.000    0.000    0.000 
#    0.000    0.000    0.000    0.000    0.000    0.000 
#
# Total GULP energy -133787.703595 kJ/mol
# GULP energy per Si atom -5574.487650 kJ/mol
# Density = 1.782429 g / cm^3
# Si number density = 17.864948 Si / 1000 Ang^3
#
#
#
# Elastic Constant Matrix: (Units=GPa)
#
#
# Indices 1 2 3 4 5 6 
#
# 1 142.5052 71.1780 69.7563 0.0000 9.9912 0.0000
# 2 71.1780 99.5179 29.2291 0.0000 3.5714 0.0000
# 3 69.7563 29.2291 72.1389 0.0000 3.3911 0.0000
# 4 0.0000 0.0000 0.0000 11.8811 0.0000 -0.1506
# 5 9.9912 3.5714 3.3911 0.0000 35.9622 0.0000
# 6 0.0000 0.0000 0.0000 -0.1506 0.0000 30.0545
#
#
#
# Elastic Compliance Matrix: (Units=1/GPa)
#
#
# Indices 1 2 3 4 5 6 
#
# 1 0.018812 -0.009133 -0.014350 0.000000 -0.002966 0.000000
# 2 -0.009133 0.015858 0.002372 0.000000 0.000739 0.000000
# 3 -0.014350 0.002372 0.026719 0.000000 0.001232 0.000000
# 4 0.000000 0.000000 0.000000 0.084173 0.000000 0.000422
# 5 -0.002966 0.000739 0.001232 0.000000 0.028442 0.000000
# 6 0.000000 0.000000 0.000000 0.000422 0.000000 0.033275
#
#
# Mechanical properties :
#
#
# Convention : Reuss Voigt Hill
#
# Bulk Modulus (GPa) = 52.17785 72.72097 62.44941
# Shear Modulus (GPa) = 19.53966 25.17947 22.35956
#
# Velocity S-wave (km/s) = 3.31077 3.75832 3.54162
# Velocity P-wave (km/s) = 6.62459 7.72189 7.19419
#
# Compressibility (1/GPa) = 0.01916522
#
# Stress axis : x y z
#
# Youngs Moduli (GPa) = 53.15879 63.06064 37.42586
#
# Poissons Ratio (x) = 0.57596 0.53707
# Poissons Ratio (y) = 0.48552 -0.08876
# Poissons Ratio (z) = 0.76284 -0.14956
#
# Static dielectric constant tensor:
#      x y z
#    x 1.602050 0.000000 -0.004350 
#    y 0.000000 1.615360 0.000000 
#    z -0.004350 0.000000 1.676500 
# 
# From -- ./inp_files/87312.got.cif
#   From: 2010.05.17/outbox.cif.g08.bks.cpg/sg15_44_cif.got.tgz:87312.got - 2010.06.03 18:47:42.
