data_PCOD9265417
_publ_section_title
;
Structure prediction by ZEFSAII (Michael W. Deem and Ramdas Pophale) SiO2 
 PCOD9265417
Probable space group: C 2/C
;
_chemical_formula_sum "Si O2"
_cell_formula_units_Z 56
_cell_length_a 14.142907
_cell_length_b 7.921637
_cell_length_c 25.156532
_cell_angle_alpha 90.000000
_cell_angle_beta 47.827833
_cell_angle_gamma 90.000000
_cell_volume 2088.811572
_symmetry_space_group_name_H-M "C 2/C"
_symmetry_group_IT_number 15
_symmetry_cell_setting 'monoclinic'
loop_
_space_group_symop_operation_xyz
x,y,z
-x,y,1/2-z
-x,-y,-z
x,-y,1/2+z
1/2+x,1/2+y,z
1/2-x,1/2+y,1/2-z
1/2-x,1/2-y,-z
1/2+x,1/2-y,1/2+z
loop_
_atom_site_type_symbol
_atom_site_label
_atom_site_fract_x
_atom_site_fract_y
_atom_site_fract_z
Si Si1 0.790729 0.670916 0.041954
Si Si2 0.714691 0.278466 0.089377
Si Si3 0.099888 0.016311 0.320715
Si Si4 0.043417 0.197941 0.552599
Si Si5 0.543525 0.046376 0.899317
Si Si6 0.552982 0.175427 0.672907
Si Si7 0.198542 0.257761 0.709568
O O1 0.743657 0.479442 0.072358
O O2 0.704823 0.786420 0.113701
O O3 0.750000 0.750000 0.000000
O O4 0.941186 0.644107 0.974808
O O5 0.630005 0.245018 0.070027
O O6 0.649459 0.221015 0.168512
O O7 0.850479 0.183372 0.032551
O O8 0.238698 0.084132 0.284574
O O9 0.021644 0.151671 0.316062
O O10 0.112037 0.848016 0.281719
O O11 0.025676 0.970133 0.402656
O O12 0.947591 0.354699 0.583725
O O13 0.488714 0.058267 0.860183
O O14 0.678136 0.137647 0.848140
O O15 0.500000 0.125054 0.750000
#
# Coordination Sequence:
#
# PCOD9265417 Si02
#       7
#     8   8   8   8   8   8   8
#     4   9  17  34  62  90 120 160 204 257 306 364
#     4  10  21  39  66  93 123 163 218 258 318 376
#     4  11  23  40  64  86 133 168 208 261 324 383
#     4  10  21  40  65  90 122 162 211 267 307 378
#     4   9  21  39  59  86 126 161 201 260 313 376
#     4  10  19  36  60  92 119 159 213 260 303 374
#     4  11  24  42  62  92 130 171 208 261 326 385
#
# _framework density 26.809504
#
# number of rings (size 3 to 8) (size 9 to 14) (size 15 to 20)
#    0.000    2.000    1.429    1.714    0.000    2.857 
#    7.714    2.857   12.571    0.000    0.000    0.000 
#    0.000    0.000    0.000    0.000    0.000    0.000 
#
# Total GULP energy -156777.483691 kJ/mol
# GULP energy per Si atom -5599.195846 kJ/mol
# Density = 2.674848 g / cm^3
# Si number density = 26.809504 Si / 1000 Ang^3
#
#
#
# Elastic Constant Matrix: (Units=GPa)
#
#
# Indices 1 2 3 4 5 6 
#
# 1 78.3137 13.3469 20.2661 0.0000 14.9971 0.0001
# 2 13.3469 61.7407 51.0315 0.0001 8.6232 0.0003
# 3 20.2661 51.0315 144.6218 0.0000 19.1206 0.0000
# 4 0.0000 0.0001 0.0000 48.0379 0.0000 -8.6676
# 5 14.9971 8.6232 19.1206 0.0000 47.0684 0.0000
# 6 0.0001 0.0003 0.0000 -8.6676 0.0000 21.4314
#
#
#
# Elastic Compliance Matrix: (Units=1/GPa)
#
#
# Indices 1 2 3 4 5 6 
#
# 1 0.014020 -0.001823 -0.000819 0.000000 -0.003800 0.000000
# 2 -0.001823 0.023144 -0.007849 0.000000 -0.000471 0.000000
# 3 -0.000819 -0.007849 0.010118 0.000000 -0.002411 0.000000
# 4 0.000000 0.000000 0.000000 0.022456 0.000000 0.009082
# 5 -0.003800 -0.000471 -0.002411 0.000000 0.023522 0.000000
# 6 0.000000 0.000000 0.000000 0.009082 0.000000 0.050333
#
#
# Mechanical properties :
#
#
# Convention : Reuss Voigt Hill
#
# Bulk Modulus (GPa) = 38.02341 50.44060 44.23201
# Shear Modulus (GPa) = 28.84486 36.64299 32.74393
#
# Velocity S-wave (km/s) = 3.28368 3.70102 3.49858
# Velocity P-wave (km/s) = 5.34699 6.09251 5.73189
#
# Compressibility (1/GPa) = 0.02629958
#
# Stress axis : x y z
#
# Youngs Moduli (GPa) = 71.32907 43.20739 98.83642
#
# Poissons Ratio (x) = 0.07877 0.08093
# Poissons Ratio (y) = 0.13004 0.77577
# Poissons Ratio (z) = 0.05841 0.33913
#
# Static dielectric constant tensor:
#      x y z
#    x 2.180750 0.000000 0.010750 
#    y 0.000000 2.085200 0.000000 
#    z 0.010750 0.000000 2.075560 
# 
# From -- ./inp_files/298514.got.cif
#   From: 2010.05.17/outbox.cif.g08.bks.cpg/sg15_150_cif.got.tgz:298514.got - 2010.06.03 18:47:42.
