data_PCOD9265791
_publ_section_title
;
Structure prediction by ZEFSAII (Michael W. Deem and Ramdas Pophale) SiO2 
 PCOD9265791
Probable space group: C 2/C
;
_chemical_formula_sum "Si O2"
_cell_formula_units_Z 48
_cell_length_a 16.462698
_cell_length_b 15.086080
_cell_length_c 13.493225
_cell_angle_alpha 90.000000
_cell_angle_beta 141.022117
_cell_angle_gamma 90.000000
_cell_volume 2107.938224
_symmetry_space_group_name_H-M "C 2/C"
_symmetry_group_IT_number 15
_symmetry_cell_setting 'monoclinic'
loop_
_space_group_symop_operation_xyz
x,y,z
-x,y,1/2-z
-x,-y,-z
x,-y,1/2+z
1/2+x,1/2+y,z
1/2-x,1/2+y,1/2-z
1/2-x,1/2-y,-z
1/2+x,1/2-y,1/2+z
loop_
_atom_site_type_symbol
_atom_site_label
_atom_site_fract_x
_atom_site_fract_y
_atom_site_fract_z
Si Si1 0.271001 0.859077 0.864509
Si Si2 0.303668 0.336959 0.385508
Si Si3 0.142717 0.977396 0.903825
Si Si4 0.274884 0.351702 0.915664
Si Si5 0.461268 0.901282 0.438095
Si Si6 0.462254 0.255466 0.353735
O O1 0.243583 0.756772 0.864840
O O2 0.200454 0.932827 0.860790
O O3 0.239322 0.868853 0.717160
O O4 0.424990 0.868823 0.026636
O O5 0.371405 0.396264 0.531905
O O6 0.182416 0.394339 0.236007
O O7 0.395606 0.310095 0.381147
O O8 0.000000 0.013230 0.750000
O O9 0.230605 0.056676 0.029662
O O10 0.158002 0.282491 0.823756
O O11 0.417148 0.312013 0.068095
O O12 0.473522 0.833656 0.540970
O O13 0.500000 0.000000 0.500000
#
# Coordination Sequence:
#
# PCOD9265791 Si02
#       6
#     8   8   8   8   8   8
#     4  10  23  41  66  98 136 171 216 276 344 393
#     4  10  20  38  64  98 135 166 213 280 344 400
#     4  12  26  40  63 100 134 173 225 274 329 405
#     4  10  22  43  70  98 130 179 222 273 341 392
#     4  10  19  36  67 101 127 170 221 273 336 400
#     4  10  19  40  69  96 130 175 219 273 338 397
#
# _framework density 22.771065
#
# number of rings (size 3 to 8) (size 9 to 14) (size 15 to 20)
#    0.000    2.000    3.333    3.500    2.333    4.667 
#    0.000    0.833    0.000    0.000    0.000    0.000 
#    0.000    0.000    0.000    0.000    0.000    0.000 
#
# Total GULP energy -134102.375212 kJ/mol
# GULP energy per Si atom -5587.598967 kJ/mol
# Density = 2.271924 g / cm^3
# Si number density = 22.771065 Si / 1000 Ang^3
#
#
#
# Elastic Constant Matrix: (Units=GPa)
#
#
# Indices 1 2 3 4 5 6 
#
# 1 59.0046 35.7939 31.3692 0.0000 -11.7056 0.0000
# 2 35.7939 116.3453 31.1683 0.0000 -7.5971 0.0000
# 3 31.3692 31.1683 105.4511 0.0000 3.3641 0.0000
# 4 0.0000 0.0000 0.0000 49.6273 0.0000 6.6588
# 5 -11.7056 -7.5971 3.3641 0.0000 23.7739 0.0000
# 6 0.0000 0.0000 0.0000 6.6588 0.0000 9.2945
#
#
#
# Elastic Compliance Matrix: (Units=1/GPa)
#
#
# Indices 1 2 3 4 5 6 
#
# 1 0.026153 -0.005509 -0.006536 0.000000 0.012042 0.000000
# 2 -0.005509 0.010774 -0.001576 0.000000 0.000954 0.000000
# 3 -0.006536 -0.001576 0.012066 0.000000 -0.005429 0.000000
# 4 0.000000 0.000000 0.000000 0.022293 0.000000 -0.015971
# 5 0.012042 0.000954 -0.005429 0.000000 0.049065 0.000000
# 6 0.000000 0.000000 0.000000 -0.015971 0.000000 0.119033
#
#
# Mechanical properties :
#
#
# Convention : Reuss Voigt Hill
#
# Bulk Modulus (GPa) = 45.97259 53.05155 49.51207
# Shear Modulus (GPa) = 18.25628 28.70376 23.48002
#
# Velocity S-wave (km/s) = 2.83456 3.55426 3.21461
# Velocity P-wave (km/s) = 5.56290 6.33972 5.96397
#
# Compressibility (1/GPa) = 0.02175209
#
# Stress axis : x y z
#
# Youngs Moduli (GPa) = 38.23615 92.81182 82.87451
#
# Poissons Ratio (x) = 0.51129 0.54166
# Poissons Ratio (y) = 0.21064 0.13063
# Poissons Ratio (z) = 0.24991 0.14630
#
# Static dielectric constant tensor:
#      x y z
#    x 1.876650 0.000000 -0.013400 
#    y 0.000000 1.763830 0.000000 
#    z -0.013400 0.000000 1.891250 
# 
# From -- ./inp_files/162360.got.cif
#   From: 2010.05.17/outbox.cif.g08.bks.cpg/sg15_82_cif.got.tgz:162360.got - 2010.06.03 18:47:42.
