data_PCOD9265757
_publ_section_title
;
Structure prediction by ZEFSAII (Michael W. Deem and Ramdas Pophale) SiO2 
 PCOD9265757
Probable space group: C 2/C
;
_chemical_formula_sum "Si O2"
_cell_formula_units_Z 64
_cell_length_a 21.534603
_cell_length_b 24.391740
_cell_length_c 10.920270
_cell_angle_alpha 90.000000
_cell_angle_beta 29.982774
_cell_angle_gamma 90.000000
_cell_volume 2866.532029
_symmetry_space_group_name_H-M "C 2/C"
_symmetry_group_IT_number 15
_symmetry_cell_setting 'monoclinic'
loop_
_space_group_symop_operation_xyz
x,y,z
-x,y,1/2-z
-x,-y,-z
x,-y,1/2+z
1/2+x,1/2+y,z
1/2-x,1/2+y,1/2-z
1/2-x,1/2-y,-z
1/2+x,1/2-y,1/2+z
loop_
_atom_site_type_symbol
_atom_site_label
_atom_site_fract_x
_atom_site_fract_y
_atom_site_fract_z
Si Si1 0.354022 0.331746 0.982523
Si Si2 0.879256 0.227047 0.842955
Si Si3 0.942540 0.675445 0.110736
Si Si4 0.336595 0.558888 0.354033
Si Si5 0.284181 0.212823 0.155316
Si Si6 0.455005 0.454941 0.203150
Si Si7 0.110076 0.609707 0.659941
Si Si8 0.299224 0.630556 0.844976
O O1 0.500000 0.321502 0.750000
O O2 0.348321 0.381091 0.894955
O O3 0.296442 0.270738 0.064761
O O4 0.295365 0.355393 0.209110
O O5 0.971580 0.276241 0.655957
O O6 0.900928 0.172485 0.729801
O O7 0.750000 0.250000 0.000000
O O8 0.838419 0.212937 0.049688
O O9 0.895669 0.705709 0.065912
O O10 0.829476 0.641919 0.364860
O O11 0.049718 0.635481 0.884837
O O12 0.390186 0.512372 0.352637
O O13 0.195122 0.558473 0.549487
O O14 0.424624 0.546968 0.088151
O O15 0.303818 0.158233 0.043614
O O16 0.500000 0.426032 0.250000
O O17 0.350107 0.427340 0.298399
O O18 0.000000 0.598554 0.750000
#
# Coordination Sequence:
#
# PCOD9265757 Si02
#       8
#     8   8   8   8   8   8   8   8
#     4  12  19  35  61  98 134 166 213 269 323 392
#     4   8  14  29  54  92 125 168 221 241 310 389
#     4   9  16  34  60  94 128 174 217 248 321 395
#     4  11  27  43  62  97 124 164 226 279 342 382
#     4   9  17  31  59  93 132 177 209 261 319 385
#     4  11  26  45  68  92 126 165 217 294 337 378
#     4  10  22  39  65  89 131 176 213 267 326 405
#     4  10  19  36  65  93 127 176 213 262 328 389
#
# _framework density 22.326630999999999
#
# number of rings (size 3 to 8) (size 9 to 14) (size 15 to 20)
#    0.000    2.250    5.000    1.500    7.000    0.500 
#    0.000    1.250    0.000    0.000    0.000    0.000 
#    0.000    0.000    0.000    0.000    0.000    0.000 
#
# Total GULP energy -178393.606296 kJ/mol
# GULP energy per Si atom -5574.800197 kJ/mol
# Density = 2.227581 g / cm^3
# Si number density = 22.326631 Si / 1000 Ang^3
#
#
#
# Elastic Constant Matrix: (Units=GPa)
#
#
# Indices 1 2 3 4 5 6 
#
# 1 67.6495 28.5978 27.3013 -0.0008 -3.9642 0.0004
# 2 28.5978 64.3264 26.1259 -0.0009 -7.6913 0.0002
# 3 27.3013 26.1259 102.5650 -0.0030 9.9508 0.0010
# 4 -0.0008 -0.0009 -0.0030 30.2644 0.0016 -1.4823
# 5 -3.9642 -7.6913 9.9508 0.0016 19.2676 -0.0006
# 6 0.0004 0.0002 0.0010 -1.4823 -0.0006 22.5840
#
#
#
# Elastic Compliance Matrix: (Units=1/GPa)
#
#
# Indices 1 2 3 4 5 6 
#
# 1 0.019308 -0.006670 -0.003756 0.000000 0.003250 0.000000
# 2 -0.006670 0.021550 -0.004648 -0.000001 0.009631 0.000000
# 3 -0.003756 -0.004648 0.012832 0.000001 -0.009255 -0.000001
# 4 0.000000 -0.000001 0.000001 0.033149 -0.000004 0.002176
# 5 0.003250 0.009631 -0.009255 -0.000004 0.061194 0.000002
# 6 0.000000 0.000000 -0.000001 0.002176 0.000002 0.044422
#
#
# Mechanical properties :
#
#
# Convention : Reuss Voigt Hill
#
# Bulk Modulus (GPa) = 42.47747 44.28787 43.38267
# Shear Modulus (GPa) = 21.69676 24.59093 23.14384
#
# Velocity S-wave (km/s) = 3.12073 3.32236 3.22312
# Velocity P-wave (km/s) = 5.66146 5.88191 5.77273
#
# Compressibility (1/GPa) = 0.02354189
#
# Stress axis : x y z
#
# Youngs Moduli (GPa) = 51.79263 46.40287 77.93224
#
# Poissons Ratio (x) = 0.30950 0.29270
# Poissons Ratio (y) = 0.34544 0.36226
# Poissons Ratio (z) = 0.19452 0.21570
#
# Static dielectric constant tensor:
#      x y z
#    x 1.925610 0.000000 -0.012620 
#    y 0.000000 1.918140 0.000000 
#    z -0.012620 0.000000 1.858020 
# 
# From -- ./inp_files/120215.got.cif
#   From: 2010.05.17/outbox.cif.g08.bks.cpg/sg15_61_cif.got.tgz:120215.got - 2010.06.03 18:47:42.
