data_PCOD9265300
_publ_section_title
;
Structure prediction by ZEFSAII (Michael W. Deem and Ramdas Pophale) SiO2 
 PCOD9265300
Probable space group: C 2/C
;
_chemical_formula_sum "Si O2"
_cell_formula_units_Z 40
_cell_length_a 16.873131
_cell_length_b 18.562701
_cell_length_c 8.411489
_cell_angle_alpha 90.000000
_cell_angle_beta 42.982723
_cell_angle_gamma 90.000000
_cell_volume 1796.191274
_symmetry_space_group_name_H-M "C 2/C"
_symmetry_group_IT_number 15
_symmetry_cell_setting 'monoclinic'
loop_
_space_group_symop_operation_xyz
x,y,z
-x,y,1/2-z
-x,-y,-z
x,-y,1/2+z
1/2+x,1/2+y,z
1/2-x,1/2+y,1/2-z
1/2-x,1/2-y,-z
1/2+x,1/2-y,1/2+z
loop_
_atom_site_type_symbol
_atom_site_label
_atom_site_fract_x
_atom_site_fract_y
_atom_site_fract_z
Si Si1 0.737903 0.566784 0.342694
Si Si2 0.000000 0.013553 0.250000
Si Si3 0.500000 0.728614 0.750000
Si Si4 0.041653 0.155543 0.020026
Si Si5 0.870706 0.502193 0.905774
Si Si6 0.703406 0.843412 0.469339
O O1 0.615163 0.534319 0.573977
O O2 0.772353 0.557808 0.110774
O O3 0.838318 0.515164 0.271378
O O4 0.756702 0.641335 0.406097
O O5 0.010545 0.070909 0.088876
O O6 0.508668 0.684403 0.572225
O O7 0.611263 0.780803 0.596964
O O8 0.000000 0.188703 0.250000
O O9 0.179796 0.165482 0.801899
O O10 0.852656 0.420162 0.996207
O O11 0.000000 0.528014 0.750000
#
# Coordination Sequence:
#
# PCOD9265300 Si02
#       6
#     8   4   4   8   8   8
#     4  10  21  37  66  95 134 166 211 283 343 403
#     4  10  20  43  62 102 135 162 228 272 346 404
#     4  12  24  45  70  90 137 182 230 274 318 404
#     4  10  24  45  66  98 130 180 227 273 327 403
#     4  10  19  36  59  90 131 167 211 267 337 398
#     4  10  22  40  65  96 129 171 223 274 339 392
#
# _framework density 22.269344
#
# number of rings (size 3 to 8) (size 9 to 14) (size 15 to 20)
#    1.800    0.000    3.000    1.200    0.000    6.400 
#    0.000    3.000    0.000    0.000    0.000    0.000 
#    0.000    0.000    0.000    0.000    0.000    0.000 
#
# Total GULP energy -111501.711424 kJ/mol
# GULP energy per Si atom -5575.085571 kJ/mol
# Density = 2.221866 g / cm^3
# Si number density = 22.269344 Si / 1000 Ang^3
#
#
#
# Elastic Constant Matrix: (Units=GPa)
#
#
# Indices 1 2 3 4 5 6 
#
# 1 88.0638 51.8408 40.0396 0.0000 -6.8702 0.0000
# 2 51.8408 101.2759 47.8776 0.0000 0.8232 0.0000
# 3 40.0396 47.8776 134.4894 0.0000 -5.1252 0.0000
# 4 0.0000 0.0000 0.0000 13.4317 0.0000 0.9129
# 5 -6.8702 0.8232 -5.1252 0.0000 45.4338 0.0000
# 6 0.0000 0.0000 0.0000 0.9129 0.0000 38.2735
#
#
#
# Elastic Compliance Matrix: (Units=1/GPa)
#
#
# Indices 1 2 3 4 5 6 
#
# 1 0.017115 -0.007715 -0.002255 0.000000 0.002473 0.000000
# 2 -0.007715 0.015372 -0.003244 0.000000 -0.001811 0.000000
# 3 -0.002255 -0.003244 0.009291 0.000000 0.000766 0.000000
# 4 0.000000 0.000000 0.000000 0.074572 0.000000 -0.001779
# 5 0.002473 -0.001811 0.000766 0.000000 0.022503 0.000000
# 6 0.000000 0.000000 0.000000 -0.001779 0.000000 0.026170
#
#
# Mechanical properties :
#
#
# Convention : Reuss Voigt Hill
#
# Bulk Modulus (GPa) = 65.14844 67.03836 66.09340
# Shear Modulus (GPa) = 25.43655 31.69922 28.56788
#
# Velocity S-wave (km/s) = 3.38334 3.77695 3.58555
# Velocity P-wave (km/s) = 6.67690 7.01351 6.84727
#
# Compressibility (1/GPa) = 0.01534956
#
# Stress axis : x y z
#
# Youngs Moduli (GPa) = 58.42770 65.05475 107.63178
#
# Poissons Ratio (x) = 0.50190 0.24267
# Poissons Ratio (y) = 0.45078 0.34920
# Poissons Ratio (z) = 0.13173 0.21106
#
# Static dielectric constant tensor:
#      x y z
#    x 1.902530 0.000000 0.023920 
#    y 0.000000 1.802560 0.000000 
#    z 0.023920 0.000000 1.806240 
# 
# From -- ./inp_files/51110.got.cif
#   From: 2010.05.17/outbox.cif.g08.bks.cpg/sg15_26_cif.got.tgz:51110.got - 2010.06.03 18:47:42.
