data_PCOD9265493
_publ_section_title
;
Structure prediction by ZEFSAII (Michael W. Deem and Ramdas Pophale) SiO2 
 PCOD9265493
Probable space group: C 2/C
;
_chemical_formula_sum "Si O2"
_cell_formula_units_Z 48
_cell_length_a 24.243815
_cell_length_b 16.771414
_cell_length_c 17.380780
_cell_angle_alpha 90.000000
_cell_angle_beta 19.045840
_cell_angle_gamma 90.000000
_cell_volume 2306.160941
_symmetry_space_group_name_H-M "C 2/C"
_symmetry_group_IT_number 15
_symmetry_cell_setting 'monoclinic'
loop_
_space_group_symop_operation_xyz
x,y,z
-x,y,1/2-z
-x,-y,-z
x,-y,1/2+z
1/2+x,1/2+y,z
1/2-x,1/2+y,1/2-z
1/2-x,1/2-y,-z
1/2+x,1/2-y,1/2+z
loop_
_atom_site_type_symbol
_atom_site_label
_atom_site_fract_x
_atom_site_fract_y
_atom_site_fract_z
Si Si1 0.855239 0.568306 0.287413
Si Si2 0.000000 0.440071 0.750000
Si Si3 0.847182 0.734846 0.792744
Si Si4 0.198257 0.989916 0.250192
Si Si5 0.882478 0.141646 0.530160
Si Si6 0.067634 0.593986 0.477297
Si Si7 0.000000 0.986979 0.750000
O O1 0.902723 0.617922 0.149817
O O2 0.661331 0.543077 0.549515
O O3 0.926857 0.603145 0.271802
O O4 0.948189 0.483236 0.147165
O O5 0.166635 0.486991 0.498163
O O6 0.728294 0.699929 0.880335
O O7 0.968422 0.811202 0.622474
O O8 0.977545 0.664154 0.639093
O O9 0.750000 0.750000 0.000000
O O10 0.222750 0.909535 0.268937
O O11 0.255235 0.065623 0.224343
O O12 0.000000 0.000000 0.500000
O O13 0.962574 0.073306 0.369758
#
# Coordination Sequence:
#
# PCOD9265493 Si02
#       7
#     8   4   8   8   8   8   4
#     4  10  19  36  61  90 122 171 225 281 338 387
#     4  10  22  36  61  97 126 164 222 292 338 398
#     4  12  23  40  61  97 137 183 220 274 357 435
#     4  11  24  43  68 102 133 182 242 298 343 409
#     4  12  24  40  62  93 142 179 224 285 352 421
#     4  10  20  39  64  86 132 177 222 277 350 406
#     4  12  18  38  61  91 130 178 224 286 328 416
#
# _framework density 20.813811999999999
#
# number of rings (size 3 to 8) (size 9 to 14) (size 15 to 20)
#    0.000    1.000    5.000    3.000    2.333    1.333 
#    6.000    0.000    0.000    5.000    0.000    0.000 
#    0.000    0.000    0.000    0.000    0.000    0.000 
#
# Total GULP energy -133806.320236 kJ/mol
# GULP energy per Si atom -5575.263343 kJ/mol
# Density = 2.076644 g / cm^3
# Si number density = 20.813812 Si / 1000 Ang^3
#
#
#
# Elastic Constant Matrix: (Units=GPa)
#
#
# Indices 1 2 3 4 5 6 
#
# 1 118.5744 25.4647 64.8178 -0.0006 -1.5750 0.0006
# 2 25.4647 55.5218 31.6925 -0.0011 4.3741 0.0005
# 3 64.8178 31.6925 147.6625 -0.0015 -13.7511 0.0008
# 4 -0.0006 -0.0011 -0.0015 44.0365 0.0006 4.8433
# 5 -1.5750 4.3741 -13.7511 0.0006 40.9583 -0.0006
# 6 0.0006 0.0005 0.0008 4.8433 -0.0006 21.6608
#
#
#
# Elastic Compliance Matrix: (Units=1/GPa)
#
#
# Indices 1 2 3 4 5 6 
#
# 1 0.011469 -0.002598 -0.004552 0.000000 -0.000810 0.000000
# 2 -0.002598 0.021700 -0.003863 0.000001 -0.003714 -0.000001
# 3 -0.004552 -0.003863 0.009932 0.000000 0.003572 0.000000
# 4 0.000000 0.000001 0.000000 0.023281 0.000000 -0.005206
# 5 -0.000810 -0.003714 0.003572 0.000000 0.025980 0.000001
# 6 0.000000 -0.000001 0.000000 -0.005206 0.000001 0.047330
#
#
# Mechanical properties :
#
#
# Convention : Reuss Voigt Hill
#
# Bulk Modulus (GPa) = 47.44940 62.85654 55.15297
# Shear Modulus (GPa) = 29.63067 34.65004 32.14036
#
# Velocity S-wave (km/s) = 3.77716 4.08458 3.93387
# Velocity P-wave (km/s) = 6.47064 7.24638 6.86947
#
# Compressibility (1/GPa) = 0.02107508
#
# Stress axis : x y z
#
# Youngs Moduli (GPa) = 87.19009 46.08270 100.68219
#
# Poissons Ratio (x) = 0.11972 0.45834
# Poissons Ratio (y) = 0.22651 0.38893
# Poissons Ratio (z) = 0.39692 0.17802
#
# Static dielectric constant tensor:
#      x y z
#    x 1.856200 0.000000 -0.027440 
#    y 0.000000 1.763950 0.000000 
#    z -0.027440 0.000000 1.805480 
# 
# From -- ./inp_files/219957.got.cif
#   From: 2010.05.17/outbox.cif.g08.bks.cpg/sg15_110_cif.got.tgz:219957.got - 2010.06.03 18:47:42.
