data_PCOD9265275
_publ_section_title
;
Structure prediction by ZEFSAII (Michael W. Deem and Ramdas Pophale) SiO2 
 PCOD9265275
Probable space group: C 2/C
;
_chemical_formula_sum "Si O2"
_cell_formula_units_Z 52
_cell_length_a 7.771780
_cell_length_b 29.544602
_cell_length_c 10.980929
_cell_angle_alpha 90.000000
_cell_angle_beta 103.247678
_cell_angle_gamma 90.000000
_cell_volume 2454.279147
_symmetry_space_group_name_H-M "C 2/C"
_symmetry_group_IT_number 15
_symmetry_cell_setting 'monoclinic'
loop_
_space_group_symop_operation_xyz
x,y,z
-x,y,1/2-z
-x,-y,-z
x,-y,1/2+z
1/2+x,1/2+y,z
1/2-x,1/2+y,1/2-z
1/2-x,1/2-y,-z
1/2+x,1/2-y,1/2+z
loop_
_atom_site_type_symbol
_atom_site_label
_atom_site_fract_x
_atom_site_fract_y
_atom_site_fract_z
Si Si1 0.193889 0.044957 0.154576
Si Si2 0.500000 0.018631 0.750000
Si Si3 0.829314 0.428488 0.411044
Si Si4 0.715651 0.826153 0.029382
Si Si5 0.500000 0.524894 0.750000
Si Si6 0.351683 0.219210 0.421267
Si Si7 0.713461 0.857432 0.764540
Si Si8 0.000000 0.216899 0.750000
O O1 0.190138 0.094290 0.215100
O O2 0.027819 0.011497 0.144553
O O3 0.340373 0.015366 0.246046
O O4 0.271824 0.051813 0.032361
O O5 0.501909 0.049990 0.629957
O O6 0.847238 0.375274 0.434242
O O7 0.663975 0.441673 0.298377
O O8 0.878130 0.810998 0.138320
O O9 0.546574 0.793299 0.003191
O O10 0.770518 0.831402 0.896741
O O11 0.250000 0.250000 0.500000
O O12 0.267547 0.172754 0.353612
O O13 0.376341 0.250317 0.307473
O O14 0.500000 0.864855 0.750000
#
# Coordination Sequence:
#
# PCOD9265275 Si02
#       8
#     8   4   8   8   4   8   8   4
#     4  10  19  36  59  87 122 161 205 255 304 368
#     4  10  20  33  60  90 114 158 208 253 302 366
#     4  10  21  37  59  84 124 164 203 252 309 372
#     4  10  22  42  66  89 127 170 207 264 326 389
#     4  10  21  36  54  92 128 164 206 252 311 370
#     4  11  24  42  67  96 122 165 218 273 323 386
#     4   9  18  40  65  88 126 167 214 260 320 380
#     4  12  23  43  64  90 126 166 212 263 333 386
#
# _framework density 21.187483
#
# number of rings (size 3 to 8) (size 9 to 14) (size 15 to 20)
#    0.000    1.846    3.077    1.846    0.000    1.846 
#    5.538    0.000    0.000    0.000    0.000    0.000 
#    0.000    0.000    0.000    0.000    0.000    0.000 
#
# Total GULP energy -144955.484369 kJ/mol
# GULP energy per Si atom -5575.210937 kJ/mol
# Density = 2.113926 g / cm^3
# Si number density = 21.187483 Si / 1000 Ang^3
#
#
#
# Elastic Constant Matrix: (Units=GPa)
#
#
# Indices 1 2 3 4 5 6 
#
# 1 30.1524 18.0306 14.1218 0.0000 -1.2834 0.0000
# 2 18.0306 86.2657 33.7179 0.0000 -3.2801 0.0000
# 3 14.1218 33.7179 84.1760 0.0000 4.2280 0.0000
# 4 0.0000 0.0000 0.0000 22.3400 0.0000 3.6580
# 5 -1.2834 -3.2801 4.2280 0.0000 41.8072 0.0000
# 6 0.0000 0.0000 0.0000 3.6580 0.0000 10.8773
#
#
#
# Elastic Compliance Matrix: (Units=1/GPa)
#
#
# Indices 1 2 3 4 5 6 
#
# 1 0.038991 -0.006557 -0.003969 0.000000 0.001084 0.000000
# 2 -0.006557 0.014960 -0.004966 0.000000 0.001475 0.000000
# 3 -0.003969 -0.004966 0.014635 0.000000 -0.001992 0.000000
# 4 0.000000 0.000000 0.000000 0.047371 0.000000 -0.015931
# 5 0.001084 0.001475 -0.001992 0.000000 0.024270 0.000000
# 6 0.000000 0.000000 0.000000 -0.015931 0.000000 0.097292
#
#
# Mechanical properties :
#
#
# Convention : Reuss Voigt Hill
#
# Bulk Modulus (GPa) = 26.59531 36.92609 31.76070
# Shear Modulus (GPa) = 17.79122 23.98650 20.88886
#
# Velocity S-wave (km/s) = 2.90091 3.36833 3.14332
# Velocity P-wave (km/s) = 4.87852 5.70908 5.31007
#
# Compressibility (1/GPa) = 0.03760061
#
# Stress axis : x y z
#
# Youngs Moduli (GPa) = 25.64704 66.84575 68.32851
#
# Poissons Ratio (x) = 0.43830 0.27122
# Poissons Ratio (y) = 0.16817 0.33935
# Poissons Ratio (z) = 0.10180 0.33198
#
# Static dielectric constant tensor:
#      x y z
#    x 1.875580 0.000000 -0.037190 
#    y 0.000000 1.765470 0.000000 
#    z -0.037190 0.000000 1.783820 
# 
# From -- ./inp_files/80831.got.cif
#   From: 2010.05.17/outbox.cif.g08.bks.cpg/sg15_41_cif.got.tgz:80831.got - 2010.06.03 18:47:42.
