data_PCOD9265174
_publ_section_title
;
Structure prediction by ZEFSAII (Michael W. Deem and Ramdas Pophale) SiO2 
 PCOD9265174
Probable space group: C 2/C
;
_chemical_formula_sum "Si O2"
_cell_formula_units_Z 60
_cell_length_a 13.016676
_cell_length_b 9.357099
_cell_length_c 20.834582
_cell_angle_alpha 90.000000
_cell_angle_beta 88.138545
_cell_angle_gamma 90.000000
_cell_volume 2536.278096
_symmetry_space_group_name_H-M "C 2/C"
_symmetry_group_IT_number 15
_symmetry_cell_setting 'monoclinic'
loop_
_space_group_symop_operation_xyz
x,y,z
-x,y,1/2-z
-x,-y,-z
x,-y,1/2+z
1/2+x,1/2+y,z
1/2-x,1/2+y,1/2-z
1/2-x,1/2-y,-z
1/2+x,1/2-y,1/2+z
loop_
_atom_site_type_symbol
_atom_site_label
_atom_site_fract_x
_atom_site_fract_y
_atom_site_fract_z
Si Si1 0.254053 0.839627 0.891235
Si Si2 0.811237 0.579373 0.176609
Si Si3 0.310577 0.100544 0.953246
Si Si4 0.678468 0.540420 0.567761
Si Si5 0.035859 0.018972 0.393445
Si Si6 0.797078 0.294811 0.245016
Si Si7 0.611459 0.216823 0.434466
Si Si8 0.000000 0.116756 0.250000
O O1 0.309876 0.712231 0.928810
O O2 0.239680 0.776453 0.820778
O O3 0.319416 0.985817 0.896536
O O4 0.134935 0.885369 0.910154
O O5 0.719846 0.515328 0.135320
O O6 0.819415 0.460901 0.231754
O O7 0.787762 0.737122 0.203908
O O8 0.898435 0.597619 0.120642
O O9 0.231236 0.224788 0.934596
O O10 0.405252 0.160060 0.993003
O O11 0.251627 0.008137 0.009023
O O12 0.569679 0.460204 0.565721
O O13 0.054922 0.855503 0.411784
O O14 0.019643 0.034026 0.316683
O O15 0.901480 0.216451 0.262742
#
# Coordination Sequence:
#
# PCOD9265174 Si02
#       8
#     8   8   8   8   8   8   8   4
#     4   9  20  33  55  85 117 150 199 247 302 356
#     4  10  21  36  59  83 117 150 197 242 296 361
#     4   9  18  36  58  81 120 159 197 248 307 354
#     4  10  19  36  58  88 111 155 202 247 294 367
#     4  10  20  35  60  87 118 159 207 247 302 365
#     4  10  21  36  59  86 112 155 195 244 299 360
#     4   9  20  35  57  84 117 158 200 245 300 358
#     4  10  20  38  56  84 120 156 192 248 304 360
#
# _framework density 23.656711999999999
#
# number of rings (size 3 to 8) (size 9 to 14) (size 15 to 20)
#    0.000    2.400    1.333    0.400    5.600    2.133 
#    0.000    4.000    0.000    4.800    0.000    0.000 
#    0.000    0.000    0.000    0.000    0.000    0.000 
#
# Total GULP energy -167136.588779 kJ/mol
# GULP energy per Si atom -5571.219626 kJ/mol
# Density = 2.360287 g / cm^3
# Si number density = 23.656712 Si / 1000 Ang^3
#
#
#
# Elastic Constant Matrix: (Units=GPa)
#
#
# Indices 1 2 3 4 5 6 
#
# 1 42.4185 6.7656 23.0818 0.0000 2.2777 0.0000
# 2 6.7656 100.2635 31.0895 0.0000 14.3396 0.0000
# 3 23.0818 31.0895 61.9263 0.0000 21.1656 0.0000
# 4 0.0000 0.0000 0.0000 45.5018 0.0000 2.9797
# 5 2.2777 14.3396 21.1656 0.0000 18.2506 0.0000
# 6 0.0000 0.0000 0.0000 2.9797 0.0000 17.0646
#
#
#
# Elastic Compliance Matrix: (Units=1/GPa)
#
#
# Indices 1 2 3 4 5 6 
#
# 1 0.032411 0.001139 -0.018164 0.000000 0.016125 0.000000
# 2 0.001139 0.012030 -0.005276 0.000000 -0.003475 0.000000
# 3 -0.018164 -0.005276 0.038725 0.000000 -0.038498 0.000000
# 4 0.000000 0.000000 0.000000 0.022231 0.000000 -0.003882
# 5 0.016125 -0.003475 -0.038498 0.000000 0.100158 0.000000
# 6 0.000000 0.000000 0.000000 -0.003882 0.000000 0.059279
#
#
# Mechanical properties :
#
#
# Convention : Reuss Voigt Hill
#
# Bulk Modulus (GPa) = 25.93067 36.27577 31.10322
# Shear Modulus (GPa) = 15.51395 25.74149 20.62772
#
# Velocity S-wave (km/s) = 2.56363 3.30225 2.95610
# Velocity P-wave (km/s) = 4.44387 5.46876 4.98274
#
# Compressibility (1/GPa) = 0.03856437
#
# Stress axis : x y z
#
# Youngs Moduli (GPa) = 30.85398 83.12596 25.82283
#
# Poissons Ratio (x) = -0.09467 0.46903
# Poissons Ratio (y) = -0.03514 0.13625
# Poissons Ratio (z) = 0.56042 0.43859
#
# Static dielectric constant tensor:
#      x y z
#    x 1.959040 0.000000 -0.002820 
#    y 0.000000 1.988030 0.000000 
#    z -0.002820 0.000000 1.991180 
# 
# From -- ./inp_files/272745.got.cif
#   From: 2010.05.17/outbox.cif.g08.bks.cpg/sg15_137_cif.got.tgz:272745.got - 2010.06.03 18:47:42.
