data_PCOD9265418
_publ_section_title
;
Structure prediction by ZEFSAII (Michael W. Deem and Ramdas Pophale) SiO2 
 PCOD9265418
Probable space group: C 2/C
;
_chemical_formula_sum "Si O2"
_cell_formula_units_Z 60
_cell_length_a 11.881772
_cell_length_b 14.914233
_cell_length_c 17.378064
_cell_angle_alpha 90.000000
_cell_angle_beta 102.606743
_cell_angle_gamma 90.000000
_cell_volume 3005.279576
_symmetry_space_group_name_H-M "C 2/C"
_symmetry_group_IT_number 15
_symmetry_cell_setting 'monoclinic'
loop_
_space_group_symop_operation_xyz
x,y,z
-x,y,1/2-z
-x,-y,-z
x,-y,1/2+z
1/2+x,1/2+y,z
1/2-x,1/2+y,1/2-z
1/2-x,1/2-y,-z
1/2+x,1/2-y,1/2+z
loop_
_atom_site_type_symbol
_atom_site_label
_atom_site_fract_x
_atom_site_fract_y
_atom_site_fract_z
Si Si1 0.873092 0.966574 0.696194
Si Si2 0.684683 0.831657 0.686220
Si Si3 0.528434 0.139815 0.026448
Si Si4 0.138029 0.832865 0.274277
Si Si5 0.378815 0.981219 0.083767
Si Si6 0.500000 0.050176 0.250000
Si Si7 0.374676 0.494004 0.020394
Si Si8 0.861644 0.786198 0.056264
O O1 0.818413 0.064660 0.710052
O O2 0.875439 0.958486 0.603922
O O3 0.000000 0.965351 0.750000
O O4 0.801635 0.884139 0.719009
O O5 0.644775 0.852758 0.593601
O O6 0.683083 0.727897 0.711080
O O7 0.586298 0.883672 0.718851
O O8 0.467520 0.233854 0.034248
O O9 0.438254 0.065816 0.047243
O O10 0.564098 0.105894 0.947832
O O11 0.154371 0.776138 0.354748
O O12 0.000000 0.841434 0.250000
O O13 0.424517 0.993855 0.177343
O O14 0.240607 0.982437 0.046721
O O15 0.367077 0.390308 0.041436
O O16 0.500000 0.500000 0.000000
O O17 0.750000 0.750000 0.000000
#
# Coordination Sequence:
#
# PCOD9265418 Si02
#       8
#     8   8   8   8   8   4   8   8
#     4  10  24  39  61  94 127 169 212 259 319 380
#     4  11  19  38  66  91 125 165 212 264 319 373
#     4  10  19  36  64  91 122 158 210 270 314 368
#     4  10  19  36  60  92 121 157 214 256 300 375
#     4  10  20  37  59  93 124 162 212 261 324 374
#     4  10  22  32  64  92 118 166 212 266 316 366
#     4  11  24  40  61  92 129 167 210 260 317 383
#     4  11  21  35  62  95 120 156 211 259 304 372
#
# _framework density 19.964863000000001
#
# number of rings (size 3 to 8) (size 9 to 14) (size 15 to 20)
#    0.000    1.600    4.667    0.800    1.867    0.000 
#    0.000    0.667    4.400    0.000    0.000    0.000 
#    0.000    0.000    0.000    0.000    0.000    0.000 
#
# Total GULP energy -167273.022090 kJ/mol
# GULP energy per Si atom -5575.767403 kJ/mol
# Density = 1.991942 g / cm^3
# Si number density = 19.964863 Si / 1000 Ang^3
#
#
#
# Elastic Constant Matrix: (Units=GPa)
#
#
# Indices 1 2 3 4 5 6 
#
# 1 84.1029 13.0632 13.8509 0.0000 17.1601 0.0000
# 2 13.0632 26.5335 -10.0261 0.0000 -1.7918 0.0000
# 3 13.8509 -10.0261 71.3284 0.0000 22.2222 0.0000
# 4 0.0000 0.0000 0.0000 17.5673 0.0000 -0.6826
# 5 17.1601 -1.7918 22.2222 0.0000 28.4743 0.0000
# 6 0.0000 0.0000 0.0000 -0.6826 0.0000 21.9801
#
#
#
# Elastic Compliance Matrix: (Units=1/GPa)
#
#
# Indices 1 2 3 4 5 6 
#
# 1 0.015224 -0.008643 -0.001511 0.000000 -0.008540 0.000000
# 2 -0.008643 0.044840 0.007240 0.000000 0.002380 0.000000
# 3 -0.001511 0.007240 0.019693 0.000000 -0.014003 0.000000
# 4 0.000000 0.000000 0.000000 0.056993 0.000000 0.001770
# 5 -0.008540 0.002380 -0.014003 0.000000 0.051344 0.000000
# 6 0.000000 0.000000 0.000000 0.001770 0.000000 0.045551
#
#
# Mechanical properties :
#
#
# Convention : Reuss Voigt Hill
#
# Bulk Modulus (GPa) = 13.52641 23.97118 18.74880
# Shear Modulus (GPa) = 18.93116 24.60945 21.77031
#
# Velocity S-wave (km/s) = 3.08267 3.51470 3.30575
# Velocity P-wave (km/s) = 4.41138 5.33888 4.89713
#
# Compressibility (1/GPa) = 0.07392943
#
# Stress axis : x y z
#
# Youngs Moduli (GPa) = 65.68681 22.30173 50.77868
#
# Poissons Ratio (x) = 0.19274 0.07670
# Poissons Ratio (y) = 0.56770 -0.36761
# Poissons Ratio (z) = 0.09922 -0.16145
#
# Static dielectric constant tensor:
#      x y z
#    x 1.759830 0.000000 -0.002790 
#    y 0.000000 1.726010 0.000000 
#    z -0.002790 0.000000 1.770990 
# 
# From -- ./inp_files/197917.got.cif
#   From: 2010.05.17/outbox.cif.g08.bks.cpg/sg15_99_cif.got.tgz:197917.got - 2010.06.03 18:47:42.
