data_PCOD9265068
_publ_section_title
;
Structure prediction by ZEFSAII (Michael W. Deem and Ramdas Pophale) SiO2 
 PCOD9265068
Probable space group: C 2/C
;
_chemical_formula_sum "Si O2"
_cell_formula_units_Z 48
_cell_length_a 16.055159
_cell_length_b 8.945420
_cell_length_c 25.684074
_cell_angle_alpha 90.000000
_cell_angle_beta 40.480413
_cell_angle_gamma 90.000000
_cell_volume 2394.692660
_symmetry_space_group_name_H-M "C 2/C"
_symmetry_group_IT_number 15
_symmetry_cell_setting 'monoclinic'
loop_
_space_group_symop_operation_xyz
x,y,z
-x,y,1/2-z
-x,-y,-z
x,-y,1/2+z
1/2+x,1/2+y,z
1/2-x,1/2+y,1/2-z
1/2-x,1/2-y,-z
1/2+x,1/2-y,1/2+z
loop_
_atom_site_type_symbol
_atom_site_label
_atom_site_fract_x
_atom_site_fract_y
_atom_site_fract_z
Si Si1 0.301187 0.324754 0.100035
Si Si2 0.736641 0.093414 0.073674
Si Si3 0.048687 0.778235 0.100667
Si Si4 0.878399 0.555661 0.117479
Si Si5 0.174581 0.008786 0.802876
Si Si6 0.919265 0.781064 0.574660
O O1 0.218974 0.420367 0.098234
O O2 0.296393 0.148379 0.113637
O O3 0.283850 0.400334 0.164945
O O4 0.447127 0.346730 0.010133
O O5 0.609143 0.177713 0.116911
O O6 0.805037 0.171976 0.090291
O O7 0.839088 0.121465 0.978518
O O8 0.991347 0.664806 0.084321
O O9 0.933320 0.886347 0.171544
O O10 0.787843 0.525438 0.209952
O O11 0.927350 0.396658 0.074915
O O12 0.112588 0.857521 0.855089
#
# Coordination Sequence:
#
# PCOD9265068 Si02
#       6
#     8   8   8   8   8   8
#     4  10  19  36  57  86 112 156 196 231 282 347
#     4  10  19  36  61  83 112 145 197 246 281 338
#     4  10  20  37  58  87 111 148 194 243 295 335
#     4  11  22  33  57  87 119 148 196 236 290 353
#     4  10  19  37  56  81 116 155 191 235 288 349
#     4  11  18  35  59  86 112 154 197 237 275 346
#
# _framework density 20.044326000000002
#
# number of rings (size 3 to 8) (size 9 to 14) (size 15 to 20)
#    0.000    1.667    5.000    3.500    0.000    0.000 
#    0.000   10.000    0.000    4.000    0.000    0.000 
#    0.000    0.000    0.000    0.000    0.000    0.000 
#
# Total GULP energy -133870.758621 kJ/mol
# GULP energy per Si atom -5577.948276 kJ/mol
# Density = 1.999870 g / cm^3
# Si number density = 20.044326 Si / 1000 Ang^3
#
#
#
# Elastic Constant Matrix: (Units=GPa)
#
#
# Indices 1 2 3 4 5 6 
#
# 1 63.8511 15.4940 2.8948 0.0000 -2.1010 0.0000
# 2 15.4940 104.6739 0.9566 0.0000 7.1765 0.0000
# 3 2.8948 0.9566 62.0305 0.0000 14.8264 0.0000
# 4 0.0000 0.0000 0.0000 26.8469 0.0000 -0.0344
# 5 -2.1010 7.1765 14.8264 0.0000 13.7432 0.0000
# 6 0.0000 0.0000 0.0000 -0.0344 0.0000 36.7945
#
#
#
# Elastic Compliance Matrix: (Units=1/GPa)
#
#
# Indices 1 2 3 4 5 6 
#
# 1 0.016684 -0.002897 -0.002298 0.000000 0.006542 0.000000
# 2 -0.002897 0.010510 0.001874 0.000000 -0.007953 0.000000
# 3 -0.002298 0.001874 0.022256 0.000000 -0.025340 0.000000
# 4 0.000000 0.000000 0.000000 0.037248 0.000000 0.000035
# 5 0.006542 -0.007953 -0.025340 0.000000 0.105254 0.000000
# 6 0.000000 0.000000 0.000000 0.000035 0.000000 0.027178
#
#
# Mechanical properties :
#
#
# Convention : Reuss Voigt Hill
#
# Bulk Modulus (GPa) = 23.35950 29.91627 26.63788
# Shear Modulus (GPa) = 20.82972 29.55759 25.19365
#
# Velocity S-wave (km/s) = 3.22713 3.84423 3.54912
# Velocity P-wave (km/s) = 5.05619 5.88741 5.48756
#
# Compressibility (1/GPa) = 0.04280914
#
# Stress axis : x y z
#
# Youngs Moduli (GPa) = 59.93814 95.14339 44.93140
#
# Poissons Ratio (x) = 0.27564 0.10323
# Poissons Ratio (y) = 0.17365 -0.08420
# Poissons Ratio (z) = 0.13771 -0.17830
#
# Static dielectric constant tensor:
#      x y z
#    x 1.715050 0.000000 0.020800 
#    y 0.000000 1.769380 0.000000 
#    z 0.020800 0.000000 1.695640 
# 
# From -- ./inp_files/209296.got.cif
#   From: 2010.05.17/outbox.cif.g08.bks.cpg/sg15_105_cif.got.tgz:209296.got - 2010.06.03 18:47:42.
