data_PCOD9265465
_publ_section_title
;
Structure prediction by ZEFSAII (Michael W. Deem and Ramdas Pophale) SiO2 
 PCOD9265465
Probable space group: C 2/C
;
_chemical_formula_sum "Si O2"
_cell_formula_units_Z 64
_cell_length_a 20.234082
_cell_length_b 10.001523
_cell_length_c 23.168966
_cell_angle_alpha 90.000000
_cell_angle_beta 52.902303
_cell_angle_gamma 90.000000
_cell_volume 3739.778599
_symmetry_space_group_name_H-M "C 2/C"
_symmetry_group_IT_number 15
_symmetry_cell_setting 'monoclinic'
loop_
_space_group_symop_operation_xyz
x,y,z
-x,y,1/2-z
-x,-y,-z
x,-y,1/2+z
1/2+x,1/2+y,z
1/2-x,1/2+y,1/2-z
1/2-x,1/2-y,-z
1/2+x,1/2-y,1/2+z
loop_
_atom_site_type_symbol
_atom_site_label
_atom_site_fract_x
_atom_site_fract_y
_atom_site_fract_z
Si Si1 0.457516 0.465791 0.834401
Si Si2 0.783807 0.385011 0.954360
Si Si3 0.773602 0.866704 0.944111
Si Si4 0.123069 0.050150 0.306920
Si Si5 0.743800 0.549581 0.347259
Si Si6 0.243940 0.236994 0.172116
Si Si7 0.635973 0.760350 0.788476
Si Si8 0.537755 0.217153 0.167419
O O1 0.500000 0.435902 0.750000
O O2 0.372384 0.388774 0.887900
O O3 0.525333 0.435389 0.848027
O O4 0.439448 0.625067 0.844059
O O5 0.737835 0.417779 0.918022
O O6 0.880951 0.366333 0.889345
O O7 0.750000 0.250000 0.000000
O O8 0.766996 0.500902 0.008792
O O9 0.743921 0.827525 0.896312
O O10 0.750000 0.750000 0.000000
O O11 0.160806 0.060553 0.351509
O O12 0.170664 0.159295 0.243587
O O13 0.142867 0.899517 0.273206
O O14 0.772550 0.395468 0.325320
O O15 0.809887 0.652239 0.284426
O O16 0.324060 0.218718 0.170201
O O17 0.539898 0.798168 0.834541
O O18 0.500000 0.184771 0.250000
#
# Coordination Sequence:
#
# PCOD9265465 Si02
#       8
#     8   8   8   8   8   8   8   8
#     4  10  19  36  62  88 109 149 205 237 274 341
#     4  12  24  38  58  86 119 155 192 235 292 349
#     4  12  24  40  56  84 124 157 185 234 302 347
#     4   9  19  36  63  86 111 149 199 243 278 335
#     4  10  20  37  56  89 118 149 190 240 293 337
#     4  10  20  37  57  86 118 153 187 237 296 343
#     4   9  19  36  63  85 112 147 199 245 277 334
#     4  10  19  36  61  88 111 146 201 245 274 334
#
# _framework density 17.113313999999999
#
# number of rings (size 3 to 8) (size 9 to 14) (size 15 to 20)
#    0.000    1.750    5.000    0.000    1.750    0.000 
#    2.250    4.375    0.000    0.000    0.000    0.000 
#    0.000    0.000    0.000    0.000    0.000    0.000 
#
# Total GULP energy -178492.767336 kJ/mol
# GULP energy per Si atom -5577.898979 kJ/mol
# Density = 1.707436 g / cm^3
# Si number density = 17.113314 Si / 1000 Ang^3
#
#
#
# Elastic Constant Matrix: (Units=GPa)
#
#
# Indices 1 2 3 4 5 6 
#
# 1 99.1627 39.9251 42.5558 0.0000 0.1101 0.0001
# 2 39.9251 89.3990 41.4199 0.0000 3.0032 0.0001
# 3 42.5558 41.4199 75.1119 0.0000 -1.9230 0.0000
# 4 0.0000 0.0000 0.0000 36.0005 0.0000 2.1225
# 5 0.1101 3.0032 -1.9230 0.0000 31.0577 0.0000
# 6 0.0001 0.0001 0.0000 2.1225 0.0000 24.1797
#
#
#
# Elastic Compliance Matrix: (Units=1/GPa)
#
#
# Indices 1 2 3 4 5 6 
#
# 1 0.014088 -0.003478 -0.006066 0.000000 -0.000089 0.000000
# 2 -0.003478 0.016004 -0.006905 0.000000 -0.001963 0.000000
# 3 -0.006066 -0.006905 0.020608 0.000000 0.001965 0.000000
# 4 0.000000 0.000000 0.000000 0.027922 0.000000 -0.002451
# 5 -0.000089 -0.001963 0.001965 0.000000 0.032510 0.000000
# 6 0.000000 0.000000 0.000000 -0.002451 0.000000 0.041572
#
#
# Mechanical properties :
#
#
# Convention : Reuss Voigt Hill
#
# Bulk Modulus (GPa) = 56.17322 56.83059 56.50191
# Shear Modulus (GPa) = 26.10448 27.56575 26.83511
#
# Velocity S-wave (km/s) = 3.90986 4.01780 3.96420
# Velocity P-wave (km/s) = 7.29919 7.40298 7.35127
#
# Compressibility (1/GPa) = 0.01780208
#
# Stress axis : x y z
#
# Youngs Moduli (GPa) = 70.98116 62.48314 48.52384
#
# Poissons Ratio (x) = 0.21733 0.29435
# Poissons Ratio (y) = 0.24689 0.33506
# Poissons Ratio (z) = 0.43058 0.43145
#
# Static dielectric constant tensor:
#      x y z
#    x 1.602750 0.000000 0.014900 
#    y 0.000000 1.564520 0.000000 
#    z 0.014900 0.000000 1.549880 
# 
# From -- ./inp_files/279554.got.cif
#   From: 2010.05.17/outbox.cif.g08.bks.cpg/sg15_140_cif.got.tgz:279554.got - 2010.06.03 18:47:42.
