data_PCOD9265462
_publ_section_title
;
Structure prediction by ZEFSAII (Michael W. Deem and Ramdas Pophale) SiO2 
 PCOD9265462
Probable space group: C 2/C
;
_chemical_formula_sum "Si O2"
_cell_formula_units_Z 48
_cell_length_a 27.366950
_cell_length_b 9.043687
_cell_length_c 9.087457
_cell_angle_alpha 90.000000
_cell_angle_beta 91.757930
_cell_angle_gamma 90.000000
_cell_volume 2248.070071
_symmetry_space_group_name_H-M "C 2/C"
_symmetry_group_IT_number 15
_symmetry_cell_setting 'monoclinic'
loop_
_space_group_symop_operation_xyz
x,y,z
-x,y,1/2-z
-x,-y,-z
x,-y,1/2+z
1/2+x,1/2+y,z
1/2-x,1/2+y,1/2-z
1/2-x,1/2-y,-z
1/2+x,1/2-y,1/2+z
loop_
_atom_site_type_symbol
_atom_site_label
_atom_site_fract_x
_atom_site_fract_y
_atom_site_fract_z
Si Si1 0.990834 0.346107 0.077832
Si Si2 0.471856 0.386157 0.103171
Si Si3 0.795932 0.664877 0.935314
Si Si4 0.738783 0.894056 0.397142
Si Si5 0.658473 0.564178 0.145475
Si Si6 0.600854 0.625348 0.420407
O O1 0.937558 0.261108 0.058086
O O2 0.000000 0.358665 0.250000
O O3 0.000000 0.500000 0.000000
O O4 0.033445 0.247164 0.008049
O O5 0.500000 0.333238 0.250000
O O6 0.429217 0.489357 0.152031
O O7 0.500000 0.500000 0.000000
O O8 0.784825 0.642816 0.762020
O O9 0.838808 0.786265 0.953705
O O10 0.750000 0.750000 0.000000
O O11 0.796235 0.507071 0.016014
O O12 0.750000 0.750000 0.500000
O O13 0.788883 0.982490 0.359598
O O14 0.644002 0.629374 0.303995
O O15 0.622444 0.442770 0.071780
#
# Coordination Sequence:
#
# PCOD9265462 Si02
#       6
#     8   8   8   8   8   8
#     4  11  23  41  63  90 124 166 205 247 313 393
#     4  10  19  36  61  87 117 162 204 243 305 385
#     4  10  21  38  59  87 122 169 215 252 307 385
#     4  11  21  39  63  88 125 174 212 251 313 387
#     4  11  22  38  61  92 123 158 210 268 311 357
#     4  11  21  38  62  90 121 155 205 265 308 357
#
# _framework density 21.351647
#
# number of rings (size 3 to 8) (size 9 to 14) (size 15 to 20)
#    0.000    1.333    0.000   10.500    0.000    0.000 
#    0.000    8.333    0.000    0.000    0.000    0.000 
#    0.000    0.000    0.000    0.000    0.000    0.000 
#
# Total GULP energy -133602.385468 kJ/mol
# GULP energy per Si atom -5566.766061 kJ/mol
# Density = 2.130305 g / cm^3
# Si number density = 21.351647 Si / 1000 Ang^3
#
#
#
# Elastic Constant Matrix: (Units=GPa)
#
#
# Indices 1 2 3 4 5 6 
#
# 1 69.0625 35.7749 26.7532 0.0000 -10.9146 0.0000
# 2 35.7749 151.3678 48.1259 0.0000 -11.6834 0.0000
# 3 26.7532 48.1259 142.4301 0.0000 -13.4034 0.0000
# 4 0.0000 0.0000 0.0000 33.4157 0.0000 11.7615
# 5 -10.9146 -11.6834 -13.4034 0.0000 33.7730 0.0000
# 6 0.0000 0.0000 0.0000 11.7615 0.0000 -13.0538
#
#
#
# Elastic Compliance Matrix: (Units=1/GPa)
#
#
# Indices 1 2 3 4 5 6 
#
# 1 0.017473 -0.003257 -0.001824 0.000000 0.003796 0.000000
# 2 -0.003257 0.008096 -0.002035 0.000000 0.000940 0.000000
# 3 -0.001824 -0.002035 0.008237 0.000000 0.001975 0.000000
# 4 0.000000 0.000000 0.000000 0.022721 0.000000 0.020471
# 5 0.003796 0.000940 0.001975 0.000000 0.031946 0.000000
# 6 0.000000 0.000000 0.000000 0.020471 0.000000 -0.058161
#
#
# Mechanical properties :
#
#
# Convention : Reuss Voigt Hill
#
# Bulk Modulus (GPa) = 51.08908 64.90759 57.99833
# Shear Modulus (GPa) = 97.90764 27.64074 62.77419
#
# Velocity S-wave (km/s) = 6.77897 3.60189 5.42807
# Velocity P-wave (km/s) = 9.23320 6.91111 8.15522
#
# Compressibility (1/GPa) = 0.01957366
#
# Stress axis : x y z
#
# Youngs Moduli (GPa) = 57.23019 123.52082 121.39922
#
# Poissons Ratio (x) = 0.40226 0.22148
# Poissons Ratio (y) = 0.18638 0.24708
# Poissons Ratio (z) = 0.10441 0.25140
#
# Static dielectric constant tensor:
#      x y z
#    x 1.887550 0.000000 -0.005880 
#    y 0.000000 2.144420 0.000000 
#    z -0.005880 0.000000 1.749610 
# 
# From -- ./inp_files/68583.got.cif
#   From: 2010.05.17/outbox.cif.g08.bks.cpg/sg15_35_cif.got.tgz:68583.got - 2010.06.03 18:47:42.
