data_PCOD9265874
_publ_section_title
;
Structure prediction by ZEFSAII (Michael W. Deem and Ramdas Pophale) SiO2 
 PCOD9265874
Probable space group: C 2/C
;
_chemical_formula_sum "Si O2"
_cell_formula_units_Z 52
_cell_length_a 29.982611
_cell_length_b 21.830678
_cell_length_c 5.315423
_cell_angle_alpha 90.000000
_cell_angle_beta 132.026023
_cell_angle_gamma 90.000000
_cell_volume 2584.462749
_symmetry_space_group_name_H-M "C 2/C"
_symmetry_group_IT_number 15
_symmetry_cell_setting 'monoclinic'
loop_
_space_group_symop_operation_xyz
x,y,z
-x,y,1/2-z
-x,-y,-z
x,-y,1/2+z
1/2+x,1/2+y,z
1/2-x,1/2+y,1/2-z
1/2-x,1/2-y,-z
1/2+x,1/2-y,1/2+z
loop_
_atom_site_type_symbol
_atom_site_label
_atom_site_fract_x
_atom_site_fract_y
_atom_site_fract_z
Si Si1 0.598750 0.371178 0.264269
Si Si2 0.560001 0.747433 0.363397
Si Si3 0.000000 0.544023 0.750000
Si Si4 0.293615 0.459527 0.787038
Si Si5 0.000000 0.040708 0.250000
Si Si6 0.000000 0.844683 0.250000
Si Si7 0.563202 0.867759 0.139727
Si Si8 0.653355 0.960135 0.246995
O O1 0.663122 0.401116 0.536889
O O2 0.557279 0.378174 0.354105
O O3 0.597314 0.299167 0.181058
O O4 0.557985 0.415142 0.935281
O O5 0.500000 0.778830 0.250000
O O6 0.590091 0.802434 0.326425
O O7 0.527916 0.699526 0.061208
O O8 0.949262 0.591172 0.658724
O O9 0.000000 0.500000 0.500000
O O10 0.304919 0.498015 0.574632
O O11 0.223356 0.441941 0.523638
O O12 0.000000 0.000000 0.500000
O O13 0.608403 0.904861 0.132421
O O14 0.500000 0.859910 0.750000
O O15 0.643548 0.007340 0.442096
#
# Coordination Sequence:
#
# PCOD9265874 Si02
#       8
#     8   8   4   8   4   4   8   8
#     4  11  22  37  60  85 126 162 207 256 313 362
#     4  10  21  37  57  89 123 169 201 250 315 367
#     4  12  24  36  56  93 123 154 194 250 306 364
#     4  10  23  43  65  89 122 170 209 252 315 377
#     4  12  23  31  52  87 114 145 194 254 300 358
#     4  10  19  37  56  84 127 159 200 254 312 350
#     4  12  24  38  65  94 128 163 211 251 314 377
#     4  10  24  43  64  91 127 162 204 258 314 370
#
# _framework density 20.120235000000001
#
# number of rings (size 3 to 8) (size 9 to 14) (size 15 to 20)
#    0.000    1.231    4.615    2.308    4.308    0.000 
#    0.000    0.769    0.000    0.923    0.000    0.000 
#    0.000    0.000    0.000    0.000    0.000    0.000 
#
# Total GULP energy -144943.494105 kJ/mol
# GULP energy per Si atom -5574.749773 kJ/mol
# Density = 2.007444 g / cm^3
# Si number density = 20.120235 Si / 1000 Ang^3
#
#
#
# Elastic Constant Matrix: (Units=GPa)
#
#
# Indices 1 2 3 4 5 6 
#
# 1 92.8363 47.1287 43.4906 0.0000 -6.1664 0.0000
# 2 47.1287 118.0948 43.9912 0.0000 8.7913 0.0000
# 3 43.4906 43.9912 76.2100 0.0000 -6.4116 0.0000
# 4 0.0000 0.0000 0.0000 711.4470 0.0000 -439.3076
# 5 -6.1664 8.7913 -6.4116 0.0000 40.5685 0.0000
# 6 0.0000 0.0000 0.0000 -439.3076 0.0000 306.9078
#
#
#
# Elastic Compliance Matrix: (Units=1/GPa)
#
#
# Indices 1 2 3 4 5 6 
#
# 1 0.016128 -0.004142 -0.006619 0.000000 0.002303 0.000000
# 2 -0.004142 0.012325 -0.005096 0.000000 -0.004106 0.000000
# 3 -0.006619 -0.005096 0.020116 0.000000 0.003277 0.000000
# 4 0.000000 0.000000 0.000000 0.012103 0.000000 0.017325
# 5 0.002303 -0.004106 0.003277 0.000000 0.026407 0.000000
# 6 0.000000 0.000000 0.000000 0.017325 0.000000 0.028057
#
#
# Mechanical properties :
#
#
# Convention : Reuss Voigt Hill
#
# Bulk Modulus (GPa) = 59.33015 61.81801 60.57408
# Shear Modulus (GPa) = 32.79351 221.95336 127.37344
#
# Velocity S-wave (km/s) = 4.04155 10.51442 7.96515
# Velocity P-wave (km/s) = 7.16454 13.34897 10.71274
#
# Compressibility (1/GPa) = 0.01685484
#
# Stress axis : x y z
#
# Youngs Moduli (GPa) = 62.00314 81.13777 49.71115
#
# Poissons Ratio (x) = 0.33608 0.32904
# Poissons Ratio (y) = 0.25683 0.25332
# Poissons Ratio (z) = 0.41040 0.41347
#
# Static dielectric constant tensor:
#      x y z
#    x 1.802540 0.000000 -0.060120 
#    y 0.000000 1.804990 0.000000 
#    z -0.060120 0.000000 1.816710 
# 
# From -- ./inp_files/18621.got.cif
#   From: 2010.05.17/outbox.cif.g08.bks.cpg/sg15_10_cif.got.tgz:18621.got - 2010.06.03 18:47:42.
