data_PCOD9265615
_publ_section_title
;
Structure prediction by ZEFSAII (Michael W. Deem and Ramdas Pophale) SiO2 
 PCOD9265615
Probable space group: C 2/C
;
_chemical_formula_sum "Si O2"
_cell_formula_units_Z 32
_cell_length_a 12.561659
_cell_length_b 19.777711
_cell_length_c 10.372309
_cell_angle_alpha 90.000000
_cell_angle_beta 140.764049
_cell_angle_gamma 90.000000
_cell_volume 1629.932410
_symmetry_space_group_name_H-M "C 2/C"
_symmetry_group_IT_number 15
_symmetry_cell_setting 'monoclinic'
loop_
_space_group_symop_operation_xyz
x,y,z
-x,y,1/2-z
-x,-y,-z
x,-y,1/2+z
1/2+x,1/2+y,z
1/2-x,1/2+y,1/2-z
1/2-x,1/2-y,-z
1/2+x,1/2-y,1/2+z
loop_
_atom_site_type_symbol
_atom_site_label
_atom_site_fract_x
_atom_site_fract_y
_atom_site_fract_z
Si Si1 0.384674 0.981385 0.268464
Si Si2 0.188090 0.896099 0.482059
Si Si3 0.108632 0.723459 0.218490
Si Si4 0.313675 0.852677 0.338467
O O1 0.500000 0.977355 0.250000
O O2 0.300780 0.908439 0.217041
O O3 0.500000 0.000000 0.500000
O O4 0.245140 0.039485 0.117291
O O5 0.237416 0.827035 0.602531
O O6 0.305391 0.893189 0.465590
O O7 0.000000 0.899366 0.250000
O O8 0.175529 0.794065 0.226986
O O9 0.000000 0.731073 0.250000
O O10 0.991099 0.685602 0.006357
#
# Coordination Sequence:
#
# PCOD9265615 Si02
#       4
#     8   8   8   8
#     4  12  23  45  65  90 127 171 208 253 320 375
#     4  11  21  37  65  98 124 159 214 265 305 365
#     4  10  19  36  62  95 126 160 209 262 306 365
#     4  11  21  38  65  91 125 165 210 259 309 368
#
# _framework density 19.632714
#
# number of rings (size 3 to 8) (size 9 to 14) (size 15 to 20)
#    0.000    1.000    5.000    6.000    0.000    1.000 
#    0.000    1.250    0.000    0.000    0.000    0.000 
#    0.000    0.000    0.000    0.000    0.000    0.000 
#
# Total GULP energy -89327.618384 kJ/mol
# GULP energy per Si atom -5582.976149 kJ/mol
# Density = 1.958803 g / cm^3
# Si number density = 19.632714 Si / 1000 Ang^3
#
#
#
# Elastic Constant Matrix: (Units=GPa)
#
#
# Indices 1 2 3 4 5 6 
#
# 1 57.1661 55.9920 27.1045 0.0000 -3.2460 0.0000
# 2 55.9920 189.4505 75.2183 0.0000 12.4475 0.0000
# 3 27.1045 75.2183 109.6974 0.0000 19.5184 0.0000
# 4 0.0000 0.0000 0.0000 35.0727 0.0000 -3.0915
# 5 -3.2460 12.4475 19.5184 0.0000 21.9798 0.0000
# 6 0.0000 0.0000 0.0000 -3.0915 0.0000 42.5075
#
#
#
# Elastic Compliance Matrix: (Units=1/GPa)
#
#
# Indices 1 2 3 4 5 6 
#
# 1 0.027013 -0.007251 -0.003732 0.000000 0.011410 0.000000
# 2 -0.007251 0.009202 -0.004038 0.000000 -0.002696 0.000000
# 3 -0.003732 -0.004038 0.014844 0.000000 -0.011446 0.000000
# 4 0.000000 0.000000 0.000000 0.028696 0.000000 0.002087
# 5 0.011410 -0.002696 -0.011446 0.000000 0.058872 0.000000
# 6 0.000000 0.000000 0.000000 0.002087 0.000000 0.023677
#
#
# Mechanical properties :
#
#
# Convention : Reuss Voigt Hill
#
# Bulk Modulus (GPa) = 47.58654 74.77151 61.17902
# Shear Modulus (GPa) = 25.08105 33.11197 29.09651
#
# Velocity S-wave (km/s) = 3.57811 4.11124 3.85391
# Velocity P-wave (km/s) = 6.43129 7.79129 7.14373
#
# Compressibility (1/GPa) = 0.02101434
#
# Stress axis : x y z
#
# Youngs Moduli (GPa) = 37.01917 108.67094 67.36809
#
# Poissons Ratio (x) = 0.78802 0.25145
# Poissons Ratio (y) = 0.26844 0.27206
# Poissons Ratio (z) = 0.13817 0.43885
#
# Static dielectric constant tensor:
#      x y z
#    x 1.695810 0.000000 0.039540 
#    y 0.000000 1.749410 0.000000 
#    z 0.039540 0.000000 1.736620 
# 
# From -- ./inp_files/28602.got.cif
#   From: 2010.05.17/outbox.cif.g08.bks.cpg/sg15_15_cif.got.tgz:28602.got - 2010.06.03 18:47:42.
