data_PCOD9265339
_publ_section_title
;
Structure prediction by ZEFSAII (Michael W. Deem and Ramdas Pophale) SiO2 
 PCOD9265339
Probable space group: C 2/C
;
_chemical_formula_sum "Si O2"
_cell_formula_units_Z 44
_cell_length_a 13.236751
_cell_length_b 7.107437
_cell_length_c 19.009061
_cell_angle_alpha 90.000000
_cell_angle_beta 97.794508
_cell_angle_gamma 90.000000
_cell_volume 1771.837615
_symmetry_space_group_name_H-M "C 2/C"
_symmetry_group_IT_number 15
_symmetry_cell_setting 'monoclinic'
loop_
_space_group_symop_operation_xyz
x,y,z
-x,y,1/2-z
-x,-y,-z
x,-y,1/2+z
1/2+x,1/2+y,z
1/2-x,1/2+y,1/2-z
1/2-x,1/2-y,-z
1/2+x,1/2-y,1/2+z
loop_
_atom_site_type_symbol
_atom_site_label
_atom_site_fract_x
_atom_site_fract_y
_atom_site_fract_z
Si Si1 0.928749 0.908727 0.887602
Si Si2 0.219765 0.601852 0.823560
Si Si3 0.000000 0.051568 0.250000
Si Si4 0.572639 0.278928 0.013365
Si Si5 0.239548 0.056601 0.432242
Si Si6 0.682403 0.721195 0.809990
O O1 0.813299 0.965954 0.857928
O O2 0.974727 0.840069 0.818488
O O3 0.963916 0.117481 0.919025
O O4 0.977803 0.775062 0.951436
O O5 0.211200 0.767548 0.878446
O O6 0.243191 0.695305 0.750779
O O7 0.139591 0.433506 0.811029
O O8 0.092336 0.917734 0.279238
O O9 0.644581 0.099328 0.032579
O O10 0.657647 0.422589 0.986895
O O11 0.227273 0.870557 0.385467
#
# Coordination Sequence:
#
# PCOD9265339 Si02
#       6
#     8   8   4   8   8   8
#     4   9  18  35  58  86 111 156 193 233 286 345
#     4  10  21  35  59  85 116 148 195 236 285 333
#     4  10  20  34  60  84 114 150 196 236 288 332
#     4   9  18  35  60  81 117 156 190 227 293 348
#     4  10  19  36  60  85 114 155 188 238 286 339
#     4  11  20  37  56  87 114 151 190 243 281 337
#
# _framework density 24.832975000000001
#
# number of rings (size 3 to 8) (size 9 to 14) (size 15 to 20)
#    0.000    2.182    3.636    0.000    0.000    0.000 
#    0.000   11.818    0.000    0.000    0.000    0.000 
#    0.000    0.000    0.000    0.000    0.000    0.000 
#
# Total GULP energy -122693.423525 kJ/mol
# GULP energy per Si atom -5576.973797 kJ/mol
# Density = 2.477645 g / cm^3
# Si number density = 24.832975 Si / 1000 Ang^3
#
#
#
# Elastic Constant Matrix: (Units=GPa)
#
#
# Indices 1 2 3 4 5 6 
#
# 1 45.7686 6.8146 8.5293 0.0000 14.2806 0.0000
# 2 6.8146 92.2942 13.3623 0.0000 -11.1553 0.0000
# 3 8.5293 13.3623 104.8102 0.0000 -16.0486 0.0000
# 4 0.0000 0.0000 0.0000 18.8765 0.0000 -6.8960
# 5 14.2806 -11.1553 -16.0486 0.0000 21.9492 0.0000
# 6 0.0000 0.0000 0.0000 -6.8960 0.0000 15.9039
#
#
#
# Elastic Compliance Matrix: (Units=1/GPa)
#
#
# Indices 1 2 3 4 5 6 
#
# 1 0.032627 -0.004917 -0.006375 0.000000 -0.028388 0.000000
# 2 -0.004917 0.012324 0.000313 0.000000 0.009692 0.000000
# 3 -0.006375 0.000313 0.012026 0.000000 0.013100 0.000000
# 4 0.000000 0.000000 0.000000 0.062947 0.000000 0.027294
# 5 -0.028388 0.009692 0.013100 0.000000 0.078533 0.000000
# 6 0.000000 0.000000 0.000000 0.027294 0.000000 0.074712
#
#
# Mechanical properties :
#
#
# Convention : Reuss Voigt Hill
#
# Bulk Modulus (GPa) = 28.55672 33.36504 30.96088
# Shear Modulus (GPa) = 16.29725 25.62371 20.96048
#
# Velocity S-wave (km/s) = 2.56456 3.21572 2.90842
# Velocity P-wave (km/s) = 4.50486 5.22041 4.87578
#
# Compressibility (1/GPa) = 0.03501802
#
# Stress axis : x y z
#
# Youngs Moduli (GPa) = 30.64974 81.14209 83.15482
#
# Poissons Ratio (x) = 0.39899 0.53011
# Poissons Ratio (y) = 0.15071 -0.02602
# Poissons Ratio (z) = 0.19539 -0.02539
#
# Static dielectric constant tensor:
#      x y z
#    x 2.130650 0.000000 0.045420 
#    y 0.000000 2.048650 0.000000 
#    z 0.045420 0.000000 2.052640 
# 
# From -- ./inp_files/202531.got.cif
#   From: 2010.05.17/outbox.cif.g08.bks.cpg/sg15_102_cif.got.tgz:202531.got - 2010.06.03 18:47:42.
