data_PCOD9265389
_publ_section_title
;
Structure prediction by ZEFSAII (Michael W. Deem and Ramdas Pophale) SiO2 
 PCOD9265389
Probable space group: C 2/C
;
_chemical_formula_sum "Si O2"
_cell_formula_units_Z 56
_cell_length_a 16.269798
_cell_length_b 8.203791
_cell_length_c 25.503099
_cell_angle_alpha 90.000000
_cell_angle_beta 48.947716
_cell_angle_gamma 90.000000
_cell_volume 2566.993372
_symmetry_space_group_name_H-M "C 2/C"
_symmetry_group_IT_number 15
_symmetry_cell_setting 'monoclinic'
loop_
_space_group_symop_operation_xyz
x,y,z
-x,y,1/2-z
-x,-y,-z
x,-y,1/2+z
1/2+x,1/2+y,z
1/2-x,1/2+y,1/2-z
1/2-x,1/2-y,-z
1/2+x,1/2-y,1/2+z
loop_
_atom_site_type_symbol
_atom_site_label
_atom_site_fract_x
_atom_site_fract_y
_atom_site_fract_z
Si Si1 0.908924 0.744699 0.048193
Si Si2 0.758654 0.966947 0.373887
Si Si3 0.058141 0.325946 0.082900
Si Si4 0.809678 0.319862 0.203558
Si Si5 0.348745 0.535438 0.655988
Si Si6 0.417776 0.525409 0.890675
Si Si7 0.617970 0.167187 0.024416
O O1 0.799286 0.640035 0.091920
O O2 0.883317 0.921117 0.082507
O O3 0.993602 0.670039 0.054533
O O4 0.961050 0.728103 0.969529
O O5 0.741161 0.931220 0.320635
O O6 0.878942 0.953820 0.347398
O O7 0.689802 0.848769 0.441880
O O8 0.123587 0.496266 0.054144
O O9 0.938211 0.353206 0.157509
O O10 0.112340 0.162452 0.083179
O O11 0.739833 0.339254 0.285010
O O12 0.799704 0.140740 0.184066
O O13 0.455371 0.541235 0.648350
O O14 0.365095 0.668532 0.949041
#
# Coordination Sequence:
#
# PCOD9265389 Si02
#       7
#     8   8   8   8   8   8   8
#     4  10  19  37  63  90 116 150 205 243 288 356
#     4  11  20  37  59  87 119 154 186 245 299 341
#     4  10  20  38  63  87 119 156 195 246 295 348
#     4  11  21  38  63  83 115 155 205 241 292 349
#     4  10  24  38  61  87 112 158 199 250 286 358
#     4  10  24  36  56  90 125 149 191 243 300 349
#     4  10  19  36  60  88 119 156 189 244 282 358
#
# _framework density 21.815404999999998
#
# number of rings (size 3 to 8) (size 9 to 14) (size 15 to 20)
#    0.000    1.714    2.857    2.143    4.000    4.571 
#    2.571    0.000    0.000    0.000    0.000    0.000 
#    0.000    0.000    0.000    0.000    0.000    0.000 
#
# Total GULP energy -156240.736161 kJ/mol
# GULP energy per Si atom -5580.026291 kJ/mol
# Density = 2.176575 g / cm^3
# Si number density = 21.815405 Si / 1000 Ang^3
#
#
#
# Elastic Constant Matrix: (Units=GPa)
#
#
# Indices 1 2 3 4 5 6 
#
# 1 69.3328 7.7947 -0.6598 -0.0003 0.6654 -0.0005
# 2 7.7947 80.9650 5.2092 -0.0011 -2.5491 -0.0007
# 3 -0.6598 5.2092 44.8002 -0.0001 -5.5223 -0.0002
# 4 -0.0003 -0.0011 -0.0001 28.9528 0.0001 2.3063
# 5 0.6654 -2.5491 -5.5223 0.0001 11.6790 0.0000
# 6 -0.0005 -0.0007 -0.0002 2.3063 0.0000 15.0400
#
#
#
# Elastic Compliance Matrix: (Units=1/GPa)
#
#
# Indices 1 2 3 4 5 6 
#
# 1 0.014599 -0.001454 0.000257 0.000000 -0.001028 0.000000
# 2 -0.001454 0.012640 -0.001212 0.000000 0.002269 0.000000
# 3 0.000257 -0.001212 0.023820 0.000000 0.010984 0.000000
# 4 0.000000 0.000000 0.000000 0.034966 0.000000 -0.005362
# 5 -0.001028 0.002269 0.010984 0.000000 0.091371 0.000000
# 6 0.000000 0.000000 0.000000 -0.005362 0.000000 0.067312
#
#
# Mechanical properties :
#
#
# Convention : Reuss Voigt Hill
#
# Bulk Modulus (GPa) = 21.62513 24.42068 23.02291
# Shear Modulus (GPa) = 18.87226 23.31797 21.09511
#
# Velocity S-wave (km/s) = 2.94443 3.27291 3.11301
# Velocity P-wave (km/s) = 4.63615 5.04987 4.84742
#
# Compressibility (1/GPa) = 0.04624249
#
# Stress axis : x y z
#
# Youngs Moduli (GPa) = 68.49776 79.11137 41.98161
#
# Poissons Ratio (x) = 0.11506 -0.01081
# Poissons Ratio (y) = 0.09962 0.05086
# Poissons Ratio (z) = -0.01764 0.09585
#
# Static dielectric constant tensor:
#      x y z
#    x 1.790780 0.000000 -0.028620 
#    y 0.000000 1.857510 0.000000 
#    z -0.028620 0.000000 1.796200 
# 
# From -- ./inp_files/298131.got.cif
#   From: 2010.05.17/outbox.cif.g08.bks.cpg/sg15_150_cif.got.tgz:298131.got - 2010.06.03 18:47:42.
