data_PCOD9265271
_publ_section_title
;
Structure prediction by ZEFSAII (Michael W. Deem and Ramdas Pophale) SiO2 
 PCOD9265271
Probable space group: C 2/C
;
_chemical_formula_sum "Si O2"
_cell_formula_units_Z 60
_cell_length_a 18.787238
_cell_length_b 21.239184
_cell_length_c 8.561499
_cell_angle_alpha 90.000000
_cell_angle_beta 126.257408
_cell_angle_gamma 90.000000
_cell_volume 2754.761074
_symmetry_space_group_name_H-M "C 2/C"
_symmetry_group_IT_number 15
_symmetry_cell_setting 'monoclinic'
loop_
_space_group_symop_operation_xyz
x,y,z
-x,y,1/2-z
-x,-y,-z
x,-y,1/2+z
1/2+x,1/2+y,z
1/2-x,1/2+y,1/2-z
1/2-x,1/2-y,-z
1/2+x,1/2-y,1/2+z
loop_
_atom_site_type_symbol
_atom_site_label
_atom_site_fract_x
_atom_site_fract_y
_atom_site_fract_z
Si Si1 0.493570 0.295667 0.431491
Si Si2 0.335208 0.209640 0.162093
Si Si3 0.500000 0.522513 0.750000
Si Si4 0.765292 0.584678 0.677897
Si Si5 0.077778 0.082042 0.571668
Si Si6 0.415587 0.094395 0.394451
Si Si7 0.648716 0.998828 0.443811
Si Si8 0.092757 0.323508 0.084700
O O1 0.500000 0.304490 0.250000
O O2 0.401006 0.259144 0.327548
O O3 0.490812 0.360586 0.519499
O O4 0.566271 0.247686 0.589807
O O5 0.336731 0.146222 0.268873
O O6 0.250000 0.250000 0.000000
O O7 0.381125 0.183159 0.063681
O O8 0.571681 0.562050 0.745390
O O9 0.450521 0.477493 0.565649
O O10 0.671213 0.602119 0.624998
O O11 0.771156 0.536740 0.541026
O O12 0.825010 0.645482 0.722673
O O13 0.814492 0.546133 0.879115
O O14 0.405346 0.056071 0.540791
O O15 0.507259 0.132098 0.496887
O O16 0.405634 0.040881 0.248781
#
# Coordination Sequence:
#
# PCOD9265271 Si02
#       8
#     8   8   4   8   8   8   8   8
#     4   9  19  35  59  86 117 154 205 245 296 361
#     4  10  19  36  59  87 117 160 207 257 293 346
#     4  10  24  40  68  90 122 154 200 246 314 378
#     4  11  22  37  60  90 128 157 203 248 308 354
#     4  11  21  43  64  92 118 158 195 257 307 370
#     4  10  21  39  59  89 128 162 210 243 304 369
#     4  10  23  37  58  92 126 170 195 250 300 367
#     4  10  21  37  59  91 121 161 210 249 290 372
#
# _framework density 21.780473000000001
#
# number of rings (size 3 to 8) (size 9 to 14) (size 15 to 20)
#    0.000    1.867    2.000    2.800    0.000    3.733 
#    0.000    5.333    0.000    4.800    0.000    0.000 
#    0.000    0.000    0.000    0.000    0.000    0.000 
#
# Total GULP energy -167427.705872 kJ/mol
# GULP energy per Si atom -5580.923529 kJ/mol
# Density = 2.173090 g / cm^3
# Si number density = 21.780473 Si / 1000 Ang^3
#
#
#
# Elastic Constant Matrix: (Units=GPa)
#
#
# Indices 1 2 3 4 5 6 
#
# 1 103.2329 55.5496 16.5955 0.0000 4.7820 0.0000
# 2 55.5496 121.0407 10.3658 0.0000 -0.1445 0.0000
# 3 16.5955 10.3658 18.2607 0.0000 0.0610 0.0000
# 4 0.0000 0.0000 0.0000 5.1362 0.0000 13.6284
# 5 4.7820 -0.1445 0.0610 0.0000 26.6232 0.0000
# 6 0.0000 0.0000 0.0000 13.6284 0.0000 12.7890
#
#
#
# Elastic Compliance Matrix: (Units=1/GPa)
#
#
# Indices 1 2 3 4 5 6 
#
# 1 0.014533 -0.005826 -0.009892 0.000000 -0.002619 0.000000
# 2 -0.005826 0.011019 -0.000964 0.000000 0.001108 0.000000
# 3 -0.009892 -0.000964 0.064294 0.000000 0.001624 0.000000
# 4 0.000000 0.000000 0.000000 -0.106534 0.000000 0.113526
# 5 -0.002619 0.001108 0.001624 0.000000 0.038034 0.000000
# 6 0.000000 0.000000 0.000000 0.113526 0.000000 -0.042785
#
#
# Mechanical properties :
#
#
# Convention : Reuss Voigt Hill
#
# Bulk Modulus (GPa) = 17.70462 45.28402 31.49432
# Shear Modulus (GPa) = 162.58014 19.57790 91.07902
#
# Velocity S-wave (km/s) = 8.64910 3.00138 6.47361
# Velocity P-wave (km/s) = 10.38696 5.73125 8.38857
#
# Compressibility (1/GPa) = 0.05648243
#
# Stress axis : x y z
#
# Youngs Moduli (GPa) = 68.80769 90.75037 15.55343
#
# Poissons Ratio (x) = 0.52869 0.15386
# Poissons Ratio (y) = 0.40086 0.01500
# Poissons Ratio (z) = 0.68066 0.08752
#
# Static dielectric constant tensor:
#      x y z
#    x 1.837520 0.000000 -0.021630 
#    y 0.000000 1.836460 0.000000 
#    z -0.021630 0.000000 1.826460 
# 
# From -- ./inp_files/58118.got.cif
#   From: 2010.05.17/outbox.cif.g08.bks.cpg/sg15_30_cif.got.tgz:58118.got - 2010.06.03 18:47:42.
