data_PCOD9265906
_publ_section_title
;
Structure prediction by ZEFSAII (Michael W. Deem and Ramdas Pophale) SiO2 
 PCOD9265906
Probable space group: C 2/C
;
_chemical_formula_sum "Si O2"
_cell_formula_units_Z 56
_cell_length_a 20.280693
_cell_length_b 12.663645
_cell_length_c 11.428815
_cell_angle_alpha 90.000000
_cell_angle_beta 122.636909
_cell_angle_gamma 90.000000
_cell_volume 2471.775636
_symmetry_space_group_name_H-M "C 2/C"
_symmetry_group_IT_number 15
_symmetry_cell_setting 'monoclinic'
loop_
_space_group_symop_operation_xyz
x,y,z
-x,y,1/2-z
-x,-y,-z
x,-y,1/2+z
1/2+x,1/2+y,z
1/2-x,1/2+y,1/2-z
1/2-x,1/2-y,-z
1/2+x,1/2-y,1/2+z
loop_
_atom_site_type_symbol
_atom_site_label
_atom_site_fract_x
_atom_site_fract_y
_atom_site_fract_z
Si Si1 0.183159 0.454893 0.177090
Si Si2 0.937036 0.961422 0.593233
Si Si3 0.226041 0.040360 0.436742
Si Si4 0.548430 0.661207 0.051654
Si Si5 0.192435 0.358409 0.828418
Si Si6 0.069985 0.663231 0.390795
Si Si7 0.286029 0.262874 0.707598
O O1 0.260691 0.488156 0.179325
O O2 0.147758 0.559813 0.200630
O O3 0.208901 0.363848 0.292556
O O4 0.119095 0.409751 0.026026
O O5 0.857805 0.943136 0.586080
O O6 0.000000 0.997563 0.750000
O O7 0.974698 0.860867 0.563894
O O8 0.928534 0.051528 0.487897
O O9 0.253709 0.159827 0.425596
O O10 0.261961 0.946040 0.550656
O O11 0.623751 0.701233 0.194419
O O12 0.534343 0.743937 0.934659
O O13 0.134885 0.296825 0.859416
O O14 0.245924 0.287624 0.795967
O O15 0.000000 0.611539 0.250000
#
# Coordination Sequence:
#
# PCOD9265906 Si02
#       7
#     8   8   8   8   8   8   8
#     4   9  22  37  63  88 115 155 206 245 294 357
#     4  11  20  33  55  86 131 160 188 240 300 356
#     4  10  20  35  59  87 121 160 195 238 302 354
#     4  10  21  33  55  91 120 161 197 237 294 369
#     4  10  21  39  61  86 117 162 200 249 297 347
#     4  10  22  41  62  85 116 150 208 248 299 349
#     4  10  19  37  57  86 122 154 206 240 291 364
#
# _framework density 22.655778000000002
#
# number of rings (size 3 to 8) (size 9 to 14) (size 15 to 20)
#    0.000    2.000    2.857    0.429    2.000    2.857 
#    2.571    0.000    6.286    0.000    0.000    0.000 
#    0.000    0.000    0.000    0.000    0.000    0.000 
#
# Total GULP energy -156116.524431 kJ/mol
# GULP energy per Si atom -5575.590158 kJ/mol
# Density = 2.260421 g / cm^3
# Si number density = 22.655778 Si / 1000 Ang^3
#
#
#
# Elastic Constant Matrix: (Units=GPa)
#
#
# Indices 1 2 3 4 5 6 
#
# 1 98.3878 9.7340 19.0823 0.0000 -11.1031 0.0000
# 2 9.7340 69.1855 2.0557 0.0000 -4.6244 0.0000
# 3 19.0823 2.0557 57.0573 0.0000 -2.9471 0.0000
# 4 0.0000 0.0000 0.0000 6.7679 0.0000 -5.4057
# 5 -11.1031 -4.6244 -2.9471 0.0000 21.4674 0.0000
# 6 0.0000 0.0000 0.0000 -5.4057 0.0000 19.2033
#
#
#
# Elastic Compliance Matrix: (Units=1/GPa)
#
#
# Indices 1 2 3 4 5 6 
#
# 1 0.011560 -0.001171 -0.003553 0.000000 0.005239 0.000000
# 2 -0.001171 0.014791 -0.000008 0.000000 0.002580 0.000000
# 3 -0.003553 -0.000008 0.018753 0.000000 0.000735 0.000000
# 4 0.000000 0.000000 0.000000 0.190611 0.000000 0.053656
# 5 0.005239 0.002580 0.000735 0.000000 0.049948 0.000000
# 6 0.000000 0.000000 0.000000 0.053656 0.000000 0.067178
#
#
# Mechanical properties :
#
#
# Convention : Reuss Voigt Hill
#
# Bulk Modulus (GPa) = 28.05851 31.81940 29.93895
# Shear Modulus (GPa) = 13.36232 22.40498 17.88365
#
# Velocity S-wave (km/s) = 2.43121 3.14814 2.81261
# Velocity P-wave (km/s) = 4.50473 5.22394 4.87761
#
# Compressibility (1/GPa) = 0.03563981
#
# Stress axis : x y z
#
# Youngs Moduli (GPa) = 86.50449 67.60743 53.32511
#
# Poissons Ratio (x) = 0.07915 0.18949
# Poissons Ratio (y) = 0.10127 0.00043
# Poissons Ratio (z) = 0.30738 0.00055
#
# Static dielectric constant tensor:
#      x y z
#    x 1.810960 0.000000 -0.009910 
#    y 0.000000 1.856930 0.000000 
#    z -0.009910 0.000000 1.937830 
# 
# From -- ./inp_files/105397.got.cif
#   From: 2010.05.17/outbox.cif.g08.bks.cpg/sg15_53_cif.got.tgz:105397.got - 2010.06.03 18:47:42.
