data_PCOD9265111
_publ_section_title
;
Structure prediction by ZEFSAII (Michael W. Deem and Ramdas Pophale) SiO2 
 PCOD9265111
Probable space group: C 2/C
;
_chemical_formula_sum "Si O2"
_cell_formula_units_Z 64
_cell_length_a 7.818318
_cell_length_b 15.863000
_cell_length_c 23.213063
_cell_angle_alpha 90.000000
_cell_angle_beta 77.612497
_cell_angle_gamma 90.000000
_cell_volume 2811.905894
_symmetry_space_group_name_H-M "C 2/C"
_symmetry_group_IT_number 15
_symmetry_cell_setting 'monoclinic'
loop_
_space_group_symop_operation_xyz
x,y,z
-x,y,1/2-z
-x,-y,-z
x,-y,1/2+z
1/2+x,1/2+y,z
1/2-x,1/2+y,1/2-z
1/2-x,1/2-y,-z
1/2+x,1/2-y,1/2+z
loop_
_atom_site_type_symbol
_atom_site_label
_atom_site_fract_x
_atom_site_fract_y
_atom_site_fract_z
Si Si1 0.084896 0.034368 0.935536
Si Si2 0.949267 0.893325 0.333019
Si Si3 0.587195 0.424964 0.800120
Si Si4 0.424953 0.289196 0.609828
Si Si5 0.098868 0.454367 0.659359
Si Si6 0.094568 0.208666 0.978231
Si Si7 0.992205 0.282563 0.866314
Si Si8 0.565059 0.863396 0.309922
O O1 0.168497 0.121718 0.948810
O O2 0.938237 0.071287 0.900500
O O3 0.237459 0.975848 0.896804
O O4 0.000000 0.000000 0.000000
O O5 0.051166 0.803284 0.328850
O O6 0.771947 0.877174 0.310205
O O7 0.048890 0.975458 0.303378
O O8 0.500000 0.388178 0.750000
O O9 0.510806 0.370165 0.858553
O O10 0.796416 0.422092 0.791658
O O11 0.457418 0.300863 0.539972
O O12 0.215988 0.282037 0.629622
O O13 0.494703 0.207171 0.639065
O O14 0.967039 0.379835 0.650797
O O15 0.013537 0.544197 0.674424
O O16 0.029648 0.263998 0.929994
O O17 0.250000 0.250000 0.000000
O O18 0.500000 0.838789 0.250000
#
# Coordination Sequence:
#
# PCOD9265111 Si02
#       8
#     8   8   8   8   8   8   8   8
#     4  10  20  37  58  82 113 149 184 226 279 338
#     4   9  20  36  56  80 110 146 185 225 276 336
#     4  10  19  36  58  80 105 144 189 230 271 324
#     4  10  21  37  57  80 107 145 185 222 272 339
#     4  10  21  36  56  82 111 145 188 229 272 330
#     4  11  21  35  55  82 111 140 176 227 279 327
#     4   9  20  37  55  77 111 147 179 218 273 338
#     4  11  22  38  56  81 113 146 185 237 281 320
#
# _framework density 22.760363000000002
#
# number of rings (size 3 to 8) (size 9 to 14) (size 15 to 20)
#    0.000    2.000    0.000    4.500    0.000    4.000 
#    0.000    2.500    0.000    0.000    0.000    0.000 
#    0.000    0.000    0.000    0.000    0.000    0.000 
#
# Total GULP energy -178186.749748 kJ/mol
# GULP energy per Si atom -5568.335930 kJ/mol
# Density = 2.270856 g / cm^3
# Si number density = 22.760363 Si / 1000 Ang^3
#
#
#
# Elastic Constant Matrix: (Units=GPa)
#
#
# Indices 1 2 3 4 5 6 
#
# 1 40.5745 19.1643 23.4324 0.0000 23.8730 0.0000
# 2 19.1643 155.0686 47.7745 0.0000 16.9527 0.0000
# 3 23.4324 47.7745 116.9627 0.0000 33.9668 0.0000
# 4 0.0000 0.0000 0.0000 26.0012 0.0000 -2.3666
# 5 23.8730 16.9527 33.9668 0.0000 36.9890 0.0000
# 6 0.0000 0.0000 0.0000 -2.3666 0.0000 26.8032
#
#
#
# Elastic Compliance Matrix: (Units=1/GPa)
#
#
# Indices 1 2 3 4 5 6 
#
# 1 0.040475 -0.002292 0.000148 0.000000 -0.025208 0.000000
# 2 -0.002292 0.007526 -0.002786 0.000000 0.000588 0.000000
# 3 0.000148 -0.002786 0.012702 0.000000 -0.010483 0.000000
# 4 0.000000 0.000000 0.000000 0.038771 0.000000 0.003423
# 5 -0.025208 0.000588 -0.010483 0.000000 0.052662 0.000000
# 6 0.000000 0.000000 0.000000 0.003423 0.000000 0.037611
#
#
# Mechanical properties :
#
#
# Convention : Reuss Voigt Hill
#
# Bulk Modulus (GPa) = 19.66786 54.81646 37.24216
# Shear Modulus (GPa) = 23.08884 32.77434 27.93159
#
# Velocity S-wave (km/s) = 3.18847 3.79882 3.50695
# Velocity P-wave (km/s) = 4.71330 6.58618 5.72682
#
# Compressibility (1/GPa) = 0.05084437
#
# Stress axis : x y z
#
# Youngs Moduli (GPa) = 24.70659 132.87374 78.72590
#
# Poissons Ratio (x) = 0.30453 -0.01165
# Poissons Ratio (y) = 0.05662 0.21930
# Poissons Ratio (z) = -0.00366 0.37014
#
# Static dielectric constant tensor:
#      x y z
#    x 1.846120 0.000000 0.036780 
#    y 0.000000 1.936720 0.000000 
#    z 0.036780 0.000000 1.836870 
# 
# From -- ./inp_files/264692.got.cif
#   From: 2010.05.17/outbox.cif.g08.bks.cpg/sg15_133_cif.got.tgz:264692.got - 2010.06.03 18:47:42.
