data_PCOD9265337
_publ_section_title
;
Structure prediction by ZEFSAII (Michael W. Deem and Ramdas Pophale) SiO2 
 PCOD9265337
Probable space group: C 2/C
;
_chemical_formula_sum "Si O2"
_cell_formula_units_Z 36
_cell_length_a 10.373742
_cell_length_b 10.075215
_cell_length_c 24.290034
_cell_angle_alpha 90.000000
_cell_angle_beta 145.487893
_cell_angle_gamma 90.000000
_cell_volume 1438.399124
_symmetry_space_group_name_H-M "C 2/C"
_symmetry_group_IT_number 15
_symmetry_cell_setting 'monoclinic'
loop_
_space_group_symop_operation_xyz
x,y,z
-x,y,1/2-z
-x,-y,-z
x,-y,1/2+z
1/2+x,1/2+y,z
1/2-x,1/2+y,1/2-z
1/2-x,1/2-y,-z
1/2+x,1/2-y,1/2+z
loop_
_atom_site_type_symbol
_atom_site_label
_atom_site_fract_x
_atom_site_fract_y
_atom_site_fract_z
Si Si1 0.866973 0.138554 0.446010
Si Si2 0.500000 0.975007 0.750000
Si Si3 0.128354 0.541786 0.464628
Si Si4 0.862864 0.692438 0.612665
Si Si5 0.855192 0.969263 0.650972
O O1 0.092317 0.225383 0.525605
O O2 0.715180 0.120509 0.338090
O O3 0.704989 0.138202 0.442236
O O4 0.000000 0.000000 0.500000
O O5 0.480706 0.079845 0.692948
O O6 0.136513 0.389482 0.444170
O O7 0.295802 0.552258 0.575826
O O8 0.876817 0.559780 0.397968
O O9 0.968635 0.833159 0.667727
O O10 0.000000 0.036605 0.750000
#
# Coordination Sequence:
#
# PCOD9265337 Si02
#       5
#     8   4   8   8   8
#     4   8  17  32  57  82 110 142 183 234 281 334
#     4   8  14  30  54  80 106 144 180 224 284 336
#     4   9  21  37  55  80 117 150 179 237 296 323
#     4  10  19  36  60  85 109 147 193 235 280 346
#     4  11  22  37  57  82 113 150 194 228 283 355
#
# _framework density 25.027823999999999
#
# number of rings (size 3 to 8) (size 9 to 14) (size 15 to 20)
#    0.000    3.111    1.111    0.667    0.000   11.556 
#    0.000    0.000    9.778    0.000    0.000    0.000 
#    0.000    0.000    0.000    0.000    0.000    0.000 
#
# Total GULP energy -100208.288897 kJ/mol
# GULP energy per Si atom -5567.127161 kJ/mol
# Density = 2.497086 g / cm^3
# Si number density = 25.027824 Si / 1000 Ang^3
#
#
#
# Elastic Constant Matrix: (Units=GPa)
#
#
# Indices 1 2 3 4 5 6 
#
# 1 113.5974 34.9913 24.7617 0.0000 -23.3936 0.0000
# 2 34.9913 58.9623 7.7656 0.0000 2.0485 0.0000
# 3 24.7617 7.7656 174.0403 0.0001 -38.1732 0.0000
# 4 0.0000 0.0000 0.0001 21.8523 0.0000 -12.2927
# 5 -23.3936 2.0485 -38.1732 0.0000 26.8700 0.0000
# 6 0.0000 0.0000 0.0000 -12.2927 0.0000 13.1623
#
#
#
# Elastic Compliance Matrix: (Units=1/GPa)
#
#
# Indices 1 2 3 4 5 6 
#
# 1 0.014644 -0.009500 0.001882 0.000000 0.016148 0.000000
# 2 -0.009500 0.023447 -0.002761 0.000000 -0.013981 0.000000
# 3 0.001882 -0.002761 0.008726 0.000000 0.014245 0.000000
# 4 0.000000 0.000000 0.000000 0.096416 0.000000 0.090047
# 5 0.016148 -0.013981 0.014245 0.000000 0.072578 0.000000
# 6 0.000000 0.000000 0.000000 0.090047 0.000000 0.160072
#
#
# Mechanical properties :
#
#
# Convention : Reuss Voigt Hill
#
# Bulk Modulus (GPa) = 38.37327 53.51526 45.94427
# Shear Modulus (GPa) = 12.33570 30.98233 21.65902
#
# Velocity S-wave (km/s) = 2.22250 3.52222 2.94496
# Velocity P-wave (km/s) = 4.68524 6.16199 5.47365
#
# Compressibility (1/GPa) = 0.02605980
#
# Stress axis : x y z
#
# Youngs Moduli (GPa) = 68.28613 42.64954 114.60352
#
# Poissons Ratio (x) = 0.40515 -0.21569
# Poissons Ratio (y) = 0.64869 0.31643
# Poissons Ratio (z) = -0.12852 0.11776
#
# Static dielectric constant tensor:
#      x y z
#    x 2.082690 0.000000 0.003400 
#    y 0.000000 2.259830 0.000000 
#    z 0.003400 0.000000 2.081660 
# 
# From -- ./inp_files/292608.got.cif
#   From: 2010.05.17/outbox.cif.g08.bks.cpg/sg15_147_cif.got.tgz:292608.got - 2010.06.03 18:47:42.
