data_PCOD9265997
_publ_section_title
;
Structure prediction by ZEFSAII (Michael W. Deem and Ramdas Pophale) SiO2 
 PCOD9265997
Probable space group: C 2/C
;
_chemical_formula_sum "Si O2"
_cell_formula_units_Z 56
_cell_length_a 24.045471
_cell_length_b 11.524183
_cell_length_c 20.669563
_cell_angle_alpha 90.000000
_cell_angle_beta 147.977683
_cell_angle_gamma 90.000000
_cell_volume 3037.071611
_symmetry_space_group_name_H-M "C 2/C"
_symmetry_group_IT_number 15
_symmetry_cell_setting 'monoclinic'
loop_
_space_group_symop_operation_xyz
x,y,z
-x,y,1/2-z
-x,-y,-z
x,-y,1/2+z
1/2+x,1/2+y,z
1/2-x,1/2+y,1/2-z
1/2-x,1/2-y,-z
1/2+x,1/2-y,1/2+z
loop_
_atom_site_type_symbol
_atom_site_label
_atom_site_fract_x
_atom_site_fract_y
_atom_site_fract_z
Si Si1 0.836617 0.948974 0.812717
Si Si2 0.909936 0.396630 0.078469
Si Si3 0.594710 0.087779 0.079582
Si Si4 0.977809 0.171533 0.932377
Si Si5 0.424600 0.323801 0.231473
Si Si6 0.678733 0.446890 0.855490
Si Si7 0.500000 0.694014 0.250000
Si Si8 0.000000 0.601027 0.250000
O O1 0.714628 0.950972 0.713797
O O2 0.838722 0.920066 0.737970
O O3 0.895583 0.072823 0.874634
O O4 0.909549 0.861271 0.925678
O O5 0.963883 0.282012 0.158449
O O6 0.962627 0.514322 0.157158
O O7 0.906976 0.394284 0.998885
O O8 0.791484 0.401652 0.986791
O O9 0.565698 0.206216 0.086781
O O10 0.500000 0.000000 0.000000
O O11 0.979348 0.173435 0.855752
O O12 0.500000 0.373747 0.250000
O O13 0.329106 0.413240 0.143943
O O14 0.414644 0.191106 0.196426
O O15 0.591829 0.384360 0.812214
#
# Coordination Sequence:
#
# PCOD9265997 Si02
#       8
#     8   8   8   8   8   8   4   4
#     4   9  22  39  60  88 117 154 193 250 295 342
#     4  10  22  36  56  85 118 150 187 244 284 338
#     4  11  23  38  62  86 116 158 200 239 295 353
#     4  10  20  40  62  84 121 151 194 247 295 349
#     4   9  19  37  60  81 113 151 184 240 283 347
#     4  10  19  37  59  84 112 151 194 231 294 341
#     4  11  19  36  58  82 117 149 190 234 284 349
#     4   9  19  38  54  82 121 147 188 232 286 335
#
# _framework density 18.438814000000001
#
# number of rings (size 3 to 8) (size 9 to 14) (size 15 to 20)
#    0.429    1.714    0.714    2.143    2.000    0.571 
#    2.571    2.857    0.000    0.000    0.000    0.000 
#    0.000    0.000    0.000    0.000    0.000    0.000 
#
# Total GULP energy -155962.823002 kJ/mol
# GULP energy per Si atom -5570.100822 kJ/mol
# Density = 1.839685 g / cm^3
# Si number density = 18.438814 Si / 1000 Ang^3
#
#
#
# Elastic Constant Matrix: (Units=GPa)
#
#
# Indices 1 2 3 4 5 6 
#
# 1 84.8051 29.3141 27.5786 0.0000 11.3289 0.0000
# 2 29.3141 94.7168 29.0681 0.0000 8.6447 0.0000
# 3 27.5786 29.0681 69.6427 0.0000 14.0012 0.0000
# 4 0.0000 0.0000 0.0000 5.2727 0.0000 5.7733
# 5 11.3289 8.6447 14.0012 0.0000 30.8731 0.0000
# 6 0.0000 0.0000 0.0000 5.7733 0.0000 12.4061
#
#
#
# Elastic Compliance Matrix: (Units=1/GPa)
#
#
# Indices 1 2 3 4 5 6 
#
# 1 0.014475 -0.003029 -0.003928 0.000000 -0.002682 0.000000
# 2 -0.003029 0.012784 -0.004005 0.000000 -0.000652 0.000000
# 3 -0.003928 -0.004005 0.018784 0.000000 -0.005956 0.000000
# 4 0.000000 0.000000 0.000000 0.386697 0.000000 -0.179952
# 5 -0.002682 -0.000652 -0.005956 0.000000 0.036258 0.000000
# 6 0.000000 0.000000 0.000000 -0.179952 0.000000 0.164348
#
#
# Mechanical properties :
#
#
# Convention : Reuss Voigt Hill
#
# Bulk Modulus (GPa) = 41.46588 46.78736 44.12662
# Shear Modulus (GPa) = 7.53796 20.59063 14.06429
#
# Velocity S-wave (km/s) = 2.02410 3.34533 2.76480
# Velocity P-wave (km/s) = 5.29148 6.35225 5.84598
#
# Compressibility (1/GPa) = 0.02411622
#
# Stress axis : x y z
#
# Youngs Moduli (GPa) = 69.08621 78.22260 53.23753
#
# Poissons Ratio (x) = 0.23697 0.20914
# Poissons Ratio (y) = 0.20929 0.21323
# Poissons Ratio (z) = 0.27140 0.31330
#
# Static dielectric constant tensor:
#      x y z
#    x 1.614160 0.000000 0.002070 
#    y 0.000000 1.626600 0.000000 
#    z 0.002070 0.000000 1.632840 
# 
# From -- ./inp_files/122493.got.cif
#   From: 2010.05.17/outbox.cif.g08.bks.cpg/sg15_62_cif.got.tgz:122493.got - 2010.06.03 18:47:42.
