data_PCOD9265664
_publ_section_title
;
Structure prediction by ZEFSAII (Michael W. Deem and Ramdas Pophale) SiO2 
 PCOD9265664
Probable space group: C 2/C
;
_chemical_formula_sum "Si O2"
_cell_formula_units_Z 44
_cell_length_a 10.760119
_cell_length_b 24.038876
_cell_length_c 6.630297
_cell_angle_alpha 90.000000
_cell_angle_beta 96.704447
_cell_angle_gamma 90.000000
_cell_volume 1703.272482
_symmetry_space_group_name_H-M "C 2/C"
_symmetry_group_IT_number 15
_symmetry_cell_setting 'monoclinic'
loop_
_space_group_symop_operation_xyz
x,y,z
-x,y,1/2-z
-x,-y,-z
x,-y,1/2+z
1/2+x,1/2+y,z
1/2-x,1/2+y,1/2-z
1/2-x,1/2-y,-z
1/2+x,1/2-y,1/2+z
loop_
_atom_site_type_symbol
_atom_site_label
_atom_site_fract_x
_atom_site_fract_y
_atom_site_fract_z
Si Si1 0.754425 0.844257 0.455933
Si Si2 0.371748 0.266404 0.159444
Si Si3 0.097164 0.483620 0.135072
Si Si4 0.000000 0.626108 0.750000
Si Si5 0.384335 0.365208 0.868941
Si Si6 0.354973 0.551905 0.711534
O O1 0.813751 0.793081 0.349227
O O2 0.607094 0.842196 0.384273
O O3 0.777712 0.844963 0.697023
O O4 0.815600 0.901348 0.372206
O O5 0.500000 0.234155 0.250000
O O6 0.250000 0.250000 0.000000
O O7 0.423356 0.316749 0.029454
O O8 0.068611 0.496753 0.386942
O O9 0.076611 0.416307 0.120939
O O10 0.246587 0.493915 0.179909
O O11 0.500000 0.379366 0.750000
O O12 0.345949 0.415606 0.999749
O O13 0.500000 0.533855 0.750000
#
# Coordination Sequence:
#
# PCOD9265664 Si02
#       6
#     8   8   8   4   8   8
#     4  10  19  39  61  89 119 155 211 258 306 360
#     4  11  24  40  58  88 131 163 203 258 315 376
#     4   9  20  38  58  84 129 165 193 254 324 371
#     4   8  20  36  62  84 120 160 206 260 296 378
#     4  11  19  36  66  91 115 160 207 263 317 358
#     4  10  19  36  63  92 118 154 214 265 300 370
#
# _framework density 25.832626000000001
#
# number of rings (size 3 to 8) (size 9 to 14) (size 15 to 20)
#    0.545    1.455    3.636    1.091    0.000    3.636 
#    1.636    7.273    0.000    0.000    0.000    0.000 
#    0.000    0.000    0.000    0.000    0.000    0.000 
#
# Total GULP energy -122769.748236 kJ/mol
# GULP energy per Si atom -5580.443102 kJ/mol
# Density = 2.577383 g / cm^3
# Si number density = 25.832626 Si / 1000 Ang^3
#
#
#
# Elastic Constant Matrix: (Units=GPa)
#
#
# Indices 1 2 3 4 5 6 
#
# 1 240.5770 28.0106 82.0580 0.0000 46.0039 0.0000
# 2 28.0106 27.1459 32.6103 0.0000 2.9135 0.0000
# 3 82.0580 32.6103 174.8425 0.0000 18.0889 0.0000
# 4 0.0000 0.0000 0.0000 38.9377 0.0000 3.3740
# 5 46.0039 2.9135 18.0889 0.0000 67.3252 0.0000
# 6 0.0000 0.0000 0.0000 3.3740 0.0000 22.5663
#
#
#
# Elastic Compliance Matrix: (Units=1/GPa)
#
#
# Indices 1 2 3 4 5 6 
#
# 1 0.005795 -0.003568 -0.001708 0.000000 -0.003346 0.000000
# 2 -0.003568 0.049680 -0.007839 0.000000 0.002395 0.000000
# 3 -0.001708 -0.007839 0.008051 0.000000 -0.000657 0.000000
# 4 0.000000 0.000000 0.000000 0.026019 0.000000 -0.003890
# 5 -0.003346 0.002395 -0.000657 0.000000 0.017213 0.000000
# 6 0.000000 0.000000 0.000000 -0.003890 0.000000 0.044896
#
#
# Mechanical properties :
#
#
# Convention : Reuss Voigt Hill
#
# Bulk Modulus (GPa) = 26.81307 80.88035 53.84671
# Shear Modulus (GPa) = 26.27227 45.75828 36.01527
#
# Velocity S-wave (km/s) = 3.19253 4.21329 3.73792
# Velocity P-wave (km/s) = 4.89814 7.41933 6.28642
#
# Compressibility (1/GPa) = 0.03729525
#
# Stress axis : x y z
#
# Youngs Moduli (GPa) = 172.57699 20.12882 124.20879
#
# Poissons Ratio (x) = 0.07183 0.21212
# Poissons Ratio (y) = 0.61583 0.97366
# Poissons Ratio (z) = 0.29472 0.15779
#
# Static dielectric constant tensor:
#      x y z
#    x 2.138590 0.000000 0.067010 
#    y 0.000000 1.971520 0.000000 
#    z 0.067010 0.000000 2.130510 
# 
# From -- ./inp_files/5858.got.cif
#   From: 2010.05.17/outbox.cif.g08.bks.cpg/sg15_3_cif.got.tgz:5858.got - 2010.06.03 18:47:42.
