data_PCOD9265669
_publ_section_title
;
Structure prediction by ZEFSAII (Michael W. Deem and Ramdas Pophale) SiO2 
 PCOD9265669
Probable space group: C 2/C
;
_chemical_formula_sum "Si O2"
_cell_formula_units_Z 40
_cell_length_a 9.652207
_cell_length_b 19.170329
_cell_length_c 15.943317
_cell_angle_alpha 90.000000
_cell_angle_beta 145.079004
_cell_angle_gamma 90.000000
_cell_volume 1688.766819
_symmetry_space_group_name_H-M "C 2/C"
_symmetry_group_IT_number 15
_symmetry_cell_setting 'monoclinic'
loop_
_space_group_symop_operation_xyz
x,y,z
-x,y,1/2-z
-x,-y,-z
x,-y,1/2+z
1/2+x,1/2+y,z
1/2-x,1/2+y,1/2-z
1/2-x,1/2-y,-z
1/2+x,1/2-y,1/2+z
loop_
_atom_site_type_symbol
_atom_site_label
_atom_site_fract_x
_atom_site_fract_y
_atom_site_fract_z
Si Si1 0.190676 0.581581 0.744670
Si Si2 0.945438 0.863447 0.932257
Si Si3 0.500000 0.037304 0.250000
Si Si4 0.500000 0.403149 0.250000
Si Si5 0.280110 0.177233 0.467116
Si Si6 0.364658 0.218875 0.973024
O O1 0.020091 0.517083 0.683621
O O2 0.384576 0.557875 0.771176
O O3 0.019667 0.640786 0.622406
O O4 0.336955 0.615619 0.895167
O O5 0.733134 0.915540 0.852403
O O6 0.844669 0.785421 0.900616
O O7 0.057681 0.867097 0.894398
O O8 0.294377 0.350296 0.115798
O O9 0.250000 0.250000 0.500000
O O10 0.357877 0.194848 0.409795
O O11 0.250000 0.250000 0.000000
#
# Coordination Sequence:
#
# PCOD9265669 Si02
#       6
#     8   8   4   4   8   8
#     4  11  21  38  62  89 122 174 209 269 323 385
#     4  11  21  40  61  92 128 165 220 265 320 394
#     4  12  25  38  64  88 129 182 220 260 316 394
#     4  10  21  38  58  90 125 158 210 264 334 384
#     4   9  20  36  61  92 123 155 208 267 324 380
#     4  10  19  36  63  92 122 159 200 271 331 386
#
# _framework density 23.685921
#
# number of rings (size 3 to 8) (size 9 to 14) (size 15 to 20)
#    0.000    1.600    4.000    1.200    0.000    0.000 
#    0.000    3.000    0.000    0.000    0.000    0.000 
#    0.000    0.000    0.000    0.000    0.000    0.000 
#
# Total GULP energy -111428.531831 kJ/mol
# GULP energy per Si atom -5571.426592 kJ/mol
# Density = 2.363201 g / cm^3
# Si number density = 23.685921 Si / 1000 Ang^3
#
#
#
# Elastic Constant Matrix: (Units=GPa)
#
#
# Indices 1 2 3 4 5 6 
#
# 1 263.5725 30.7334 22.6176 0.0008 44.0150 0.0005
# 2 30.7334 81.9347 18.6609 0.0006 20.6832 0.0007
# 3 22.6176 18.6609 58.2201 0.0132 15.6377 0.0075
# 4 0.0008 0.0006 0.0132 25.6413 0.0016 25.9468
# 5 44.0150 20.6832 15.6377 0.0016 25.1772 0.0007
# 6 0.0005 0.0007 0.0075 25.9468 0.0007 46.9706
#
#
#
# Elastic Compliance Matrix: (Units=1/GPa)
#
#
# Indices 1 2 3 4 5 6 
#
# 1 0.005382 0.000407 0.000475 0.000000 -0.010039 0.000000
# 2 0.000407 0.015596 -0.001830 0.000002 -0.012387 -0.000001
# 3 0.000475 -0.001830 0.020881 -0.000015 -0.012296 0.000005
# 4 0.000000 0.000002 -0.000015 0.088432 0.000003 -0.048850
# 5 -0.010039 -0.012387 -0.012296 0.000003 0.075082 0.000000
# 6 0.000000 -0.000001 0.000005 -0.048850 0.000000 0.048275
#
#
# Mechanical properties :
#
#
# Convention : Reuss Voigt Hill
#
# Bulk Modulus (GPa) = 25.02289 60.86123 42.94206
# Shear Modulus (GPa) = 18.59676 41.67218 30.13447
#
# Velocity S-wave (km/s) = 2.80507 4.19903 3.57073
# Velocity P-wave (km/s) = 4.59115 7.01855 5.93037
#
# Compressibility (1/GPa) = 0.03996341
#
# Stress axis : x y z
#
# Youngs Moduli (GPa) = 185.79817 64.11960 47.89061
#
# Poissons Ratio (x) = -0.02610 -0.02275
# Poissons Ratio (y) = -0.07564 0.08763
# Poissons Ratio (z) = -0.08825 0.11733
#
# Static dielectric constant tensor:
#      x y z
#    x 2.019380 0.000000 -0.041080 
#    y 0.000000 1.897270 0.000000 
#    z -0.041080 0.000000 1.623960 
# 
# From -- ./inp_files/77974.got.cif
#   From: 2010.05.17/outbox.cif.g08.bks.cpg/sg15_39_cif.got.tgz:77974.got - 2010.06.03 18:47:42.
