data_PCOD9265589
_publ_section_title
;
Structure prediction by ZEFSAII (Michael W. Deem and Ramdas Pophale) SiO2 
 PCOD9265589
Probable space group: C 2/C
;
_chemical_formula_sum "Si O2"
_cell_formula_units_Z 48
_cell_length_a 8.797339
_cell_length_b 25.436511
_cell_length_c 10.586373
_cell_angle_alpha 90.000000
_cell_angle_beta 121.477817
_cell_angle_gamma 90.000000
_cell_volume 2020.341762
_symmetry_space_group_name_H-M "C 2/C"
_symmetry_group_IT_number 15
_symmetry_cell_setting 'monoclinic'
loop_
_space_group_symop_operation_xyz
x,y,z
-x,y,1/2-z
-x,-y,-z
x,-y,1/2+z
1/2+x,1/2+y,z
1/2-x,1/2+y,1/2-z
1/2-x,1/2-y,-z
1/2+x,1/2-y,1/2+z
loop_
_atom_site_type_symbol
_atom_site_label
_atom_site_fract_x
_atom_site_fract_y
_atom_site_fract_z
Si Si1 0.118841 0.624056 0.644597
Si Si2 0.628420 0.561652 0.927529
Si Si3 0.908355 0.519819 0.585298
Si Si4 0.587908 0.636265 0.506816
Si Si5 0.175164 0.700718 0.046432
Si Si6 0.450276 0.729975 0.595668
O O1 0.222260 0.602206 0.565151
O O2 0.258630 0.630303 0.818659
O O3 0.967181 0.580287 0.606425
O O4 0.012140 0.677947 0.585783
O O5 0.500000 0.555408 0.750000
O O6 0.536255 0.586870 0.011134
O O7 0.713563 0.505107 0.996467
O O8 0.000000 0.497353 0.750000
O O9 0.000000 0.500000 0.500000
O O10 0.682193 0.653785 0.416175
O O11 0.475659 0.687094 0.498499
O O12 0.104502 0.725380 0.146197
O O13 0.250000 0.750000 0.000000
O O14 0.500000 0.703403 0.750000
O O15 0.250000 0.750000 0.500000
#
# Coordination Sequence:
#
# PCOD9265589 Si02
#       6
#     8   8   8   8   8   8
#     4  10  19  38  64  87 118 167 214 249 304 386
#     4   9  19  37  64  96 123 161 213 260 312 382
#     4  10  21  39  65  94 125 166 212 264 323 385
#     4  10  19  36  62  90 122 167 212 253 307 384
#     4  10  21  34  55  88 120 153 204 261 298 346
#     4  11  22  38  61  89 122 166 211 253 307 375
#
# _framework density 23.758355000000002
#
# number of rings (size 3 to 8) (size 9 to 14) (size 15 to 20)
#    0.000    2.000    0.000    5.000    0.000    1.333 
#    0.000   23.333    0.000    8.000    0.000    0.000 
#    0.000    0.000    0.000    2.167    0.000    0.000 
#
# Total GULP energy -133754.712073 kJ/mol
# GULP energy per Si atom -5573.113003 kJ/mol
# Density = 2.370428 g / cm^3
# Si number density = 23.758355 Si / 1000 Ang^3
#
#
#
# Elastic Constant Matrix: (Units=GPa)
#
#
# Indices 1 2 3 4 5 6 
#
# 1 142.6088 61.3698 21.5868 0.0000 3.0160 0.0000
# 2 61.3698 93.2295 17.5842 0.0000 20.5195 0.0000
# 3 21.5868 17.5842 38.7853 0.0000 5.3209 0.0000
# 4 0.0000 0.0000 0.0000 19.2623 0.0000 22.5025
# 5 3.0160 20.5195 5.3209 0.0000 35.8263 0.0000
# 6 0.0000 0.0000 0.0000 22.5025 0.0000 65.2841
#
#
#
# Elastic Compliance Matrix: (Units=1/GPa)
#
#
# Indices 1 2 3 4 5 6 
#
# 1 0.010462 -0.007105 -0.003102 0.000000 0.003649 0.000000
# 2 -0.007105 0.017998 -0.002933 0.000000 -0.009274 0.000000
# 3 -0.003102 -0.002933 0.029167 0.000000 -0.002391 0.000000
# 4 0.000000 0.000000 0.000000 0.086911 0.000000 -0.029957
# 5 0.003649 -0.009274 -0.002391 0.000000 0.033272 0.000000
# 6 0.000000 0.000000 0.000000 -0.029957 0.000000 0.025643
#
#
# Mechanical properties :
#
#
# Convention : Reuss Voigt Hill
#
# Bulk Modulus (GPa) = 31.90128 52.85612 42.37870
# Shear Modulus (GPa) = 20.81746 35.68007 28.24877
#
# Velocity S-wave (km/s) = 2.96331 3.87950 3.45193
# Velocity P-wave (km/s) = 5.01645 6.50869 5.81067
#
# Compressibility (1/GPa) = 0.03134670
#
# Stress axis : x y z
#
# Youngs Moduli (GPa) = 95.58280 55.56307 34.28493
#
# Poissons Ratio (x) = 0.39477 0.10637
# Poissons Ratio (y) = 0.67911 0.10055
# Poissons Ratio (z) = 0.29654 0.16296
#
# Static dielectric constant tensor:
#      x y z
#    x 2.386170 0.000000 -0.117040 
#    y 0.000000 1.983540 0.000000 
#    z -0.117040 0.000000 1.918000 
# 
# From -- ./inp_files/80928.got.cif
#   From: 2010.05.17/outbox.cif.g08.bks.cpg/sg15_41_cif.got.tgz:80928.got - 2010.06.03 18:47:42.
