data_PCOD9265050
_publ_section_title
;
Structure prediction by ZEFSAII (Michael W. Deem and Ramdas Pophale) SiO2 
 PCOD9265050
Probable space group: C 2/C
;
_chemical_formula_sum "Si O2"
_cell_formula_units_Z 44
_cell_length_a 12.797572
_cell_length_b 23.648929
_cell_length_c 7.877736
_cell_angle_alpha 90.000000
_cell_angle_beta 60.831450
_cell_angle_gamma 90.000000
_cell_volume 2081.848410
_symmetry_space_group_name_H-M "C 2/C"
_symmetry_group_IT_number 15
_symmetry_cell_setting 'monoclinic'
loop_
_space_group_symop_operation_xyz
x,y,z
-x,y,1/2-z
-x,-y,-z
x,-y,1/2+z
1/2+x,1/2+y,z
1/2-x,1/2+y,1/2-z
1/2-x,1/2-y,-z
1/2+x,1/2-y,1/2+z
loop_
_atom_site_type_symbol
_atom_site_label
_atom_site_fract_x
_atom_site_fract_y
_atom_site_fract_z
Si Si1 0.382518 0.672969 0.546538
Si Si2 0.500000 0.761647 0.250000
Si Si3 0.000000 0.467739 0.250000
Si Si4 0.366171 0.180727 0.556082
Si Si5 0.500000 0.735337 0.750000
Si Si6 0.344516 0.058098 0.572843
Si Si7 0.568861 0.445770 0.369785
O O1 0.395450 0.716163 0.379939
O O2 0.255245 0.679668 0.738856
O O3 0.476170 0.696990 0.608157
O O4 0.416678 0.606693 0.509345
O O5 0.533914 0.800813 0.383386
O O6 0.912145 0.508281 0.424644
O O7 0.913640 0.433503 0.195880
O O8 0.388449 0.224932 0.387548
O O9 0.364571 0.118791 0.472004
O O10 0.206596 0.042405 0.708770
O O11 0.500000 0.429225 0.250000
O O12 0.500000 0.500000 0.500000
#
# Coordination Sequence:
#
# PCOD9265050 Si02
#       7
#     8   4   4   8   4   8   8
#     4  10  21  37  56  82 114 150 189 239 282 346
#     4  10  21  36  57  83 116 151 188 238 292 340
#     4  10  20  38  58  84 118 144 198 240 300 340
#     4  10  20  35  58  82 113 146 191 232 291 343
#     4  10  19  36  57  83 110 147 184 240 288 340
#     4  10  21  37  60  85 116 154 191 247 288 349
#     4  11  23  39  59  84 120 156 201 238 291 352
#
# _framework density 21.135065000000001
#
# number of rings (size 3 to 8) (size 9 to 14) (size 15 to 20)
#    0.000    1.818    0.909    3.273    1.273    0.000 
#    0.000    0.000   12.000    0.000    0.000    0.000 
#    0.000    0.000    0.000    0.000    0.000    0.000 
#
# Total GULP energy -122585.731661 kJ/mol
# GULP energy per Si atom -5572.078712 kJ/mol
# Density = 2.108696 g / cm^3
# Si number density = 21.135065 Si / 1000 Ang^3
#
#
#
# Elastic Constant Matrix: (Units=GPa)
#
#
# Indices 1 2 3 4 5 6 
#
# 1 63.1266 9.2491 10.8968 0.0000 -23.1787 0.0000
# 2 9.2491 108.1809 24.7986 0.0000 -23.7803 0.0000
# 3 10.8968 24.7986 53.4286 0.0000 -21.5434 0.0000
# 4 0.0000 0.0000 0.0000 -26.2515 0.0000 -14.9314
# 5 -23.1787 -23.7803 -21.5434 0.0000 36.3815 0.0000
# 6 0.0000 0.0000 0.0000 -14.9314 0.0000 15.6739
#
#
#
# Elastic Compliance Matrix: (Units=1/GPa)
#
#
# Indices 1 2 3 4 5 6 
#
# 1 0.020891 0.001199 0.001137 0.000000 0.014767 0.000000
# 2 0.001199 0.011203 -0.002869 0.000000 0.006388 0.000000
# 3 0.001137 -0.002869 0.025422 0.000000 0.013903 0.000000
# 4 0.000000 0.000000 0.000000 -0.024706 0.000000 -0.023536
# 5 0.014767 0.006388 0.013903 0.000000 0.049303 0.000000
# 6 0.000000 0.000000 0.000000 -0.023536 0.000000 0.041379
#
#
# Mechanical properties :
#
#
# Convention : Reuss Voigt Hill
#
# Bulk Modulus (GPa) = 17.71428 34.95836 26.33632
# Shear Modulus (GPa) = 34.87371 17.14690 26.01030
#
# Velocity S-wave (km/s) = 4.06648 2.85142 3.51190
# Velocity P-wave (km/s) = 5.51797 5.23614 5.37890
#
# Compressibility (1/GPa) = 0.05645162
#
# Stress axis : x y z
#
# Youngs Moduli (GPa) = 47.86676 89.26135 39.33577
#
# Poissons Ratio (x) = -0.10705 -0.04472
# Poissons Ratio (y) = -0.05741 0.11284
# Poissons Ratio (z) = -0.05442 0.25606
#
# Static dielectric constant tensor:
#      x y z
#    x 1.791500 0.000000 0.025550 
#    y 0.000000 1.771450 0.000000 
#    z 0.025550 0.000000 1.799780 
# 
# From -- ./inp_files/30764.got.cif
#   From: 2010.05.17/outbox.cif.g08.bks.cpg/sg15_16_cif.got.tgz:30764.got - 2010.06.03 18:47:42.
