data_PCOD9265684
_publ_section_title
;
Structure prediction by ZEFSAII (Michael W. Deem and Ramdas Pophale) SiO2 
 PCOD9265684
Probable space group: C 2/C
;
_chemical_formula_sum "Si O2"
_cell_formula_units_Z 52
_cell_length_a 10.748325
_cell_length_b 12.876212
_cell_length_c 23.324253
_cell_angle_alpha 90.000000
_cell_angle_beta 52.451995
_cell_angle_gamma 90.000000
_cell_volume 2559.315670
_symmetry_space_group_name_H-M "C 2/C"
_symmetry_group_IT_number 15
_symmetry_cell_setting 'monoclinic'
loop_
_space_group_symop_operation_xyz
x,y,z
-x,y,1/2-z
-x,-y,-z
x,-y,1/2+z
1/2+x,1/2+y,z
1/2-x,1/2+y,1/2-z
1/2-x,1/2-y,-z
1/2+x,1/2-y,1/2+z
loop_
_atom_site_type_symbol
_atom_site_label
_atom_site_fract_x
_atom_site_fract_y
_atom_site_fract_z
Si Si1 0.487896 0.382444 0.522921
Si Si2 0.089484 0.190795 0.882901
Si Si3 0.288805 0.103106 0.206087
Si Si4 0.000000 0.663096 0.250000
Si Si5 0.213254 0.754403 0.097342
Si Si6 0.846349 0.471499 0.079560
Si Si7 0.993779 0.966363 0.641845
O O1 0.500000 0.500000 0.500000
O O2 0.601089 0.318768 0.448437
O O3 0.312419 0.347179 0.558479
O O4 0.502280 0.384634 0.587092
O O5 0.196078 0.280396 0.825009
O O6 0.912489 0.226768 0.916789
O O7 0.090459 0.074620 0.855404
O O8 0.399703 0.100763 0.231349
O O9 0.352248 0.022195 0.141001
O O10 0.114365 0.076101 0.276676
O O11 0.114526 0.736380 0.182293
O O12 0.330091 0.847921 0.077739
O O13 0.674191 0.509273 0.106098
O O14 0.000000 0.500000 0.000000
#
# Coordination Sequence:
#
# PCOD9265684 Si02
#       7
#     8   8   8   4   8   8   8
#     4  10  19  36  63  96 130 157 211 270 319 368
#     4   9  21  37  64  95 124 167 217 259 317 392
#     4  11  22  40  66  96 132 159 224 264 335 376
#     4  10  22  38  68  96 118 166 212 286 304 390
#     4  10  20  38  65  93 123 164 222 254 313 378
#     4  11  25  42  66  93 128 176 218 266 320 396
#     4  10  22  40  67  93 129 171 217 270 321 380
#
# _framework density 20.317931000000002
#
# number of rings (size 3 to 8) (size 9 to 14) (size 15 to 20)
#    0.000    1.846    1.538    1.846    6.462    6.154 
#    0.000    3.077    3.385    1.846    0.000    0.000 
#    0.000    0.000    0.000    0.000    0.000    0.000 
#
# Total GULP energy -144956.160565 kJ/mol
# GULP energy per Si atom -5575.236945 kJ/mol
# Density = 2.027169 g / cm^3
# Si number density = 20.317931 Si / 1000 Ang^3
#
#
#
# Elastic Constant Matrix: (Units=GPa)
#
#
# Indices 1 2 3 4 5 6 
#
# 1 40.7963 27.9379 36.3128 0.0000 0.5238 0.0000
# 2 27.9379 84.5761 49.5260 0.0000 -13.1628 0.0000
# 3 36.3128 49.5260 148.8954 0.0000 -16.2944 0.0000
# 4 0.0000 0.0000 0.0000 30.7381 0.0000 -8.3832
# 5 0.5238 -13.1628 -16.2944 0.0000 34.4040 0.0000
# 6 0.0000 0.0000 0.0000 -8.3832 0.0000 23.3225
#
#
#
# Elastic Compliance Matrix: (Units=1/GPa)
#
#
# Indices 1 2 3 4 5 6 
#
# 1 0.037042 -0.009462 -0.006691 0.000000 -0.007353 0.000000
# 2 -0.009462 0.017508 -0.002918 0.000000 0.005460 0.000000
# 3 -0.006691 -0.002918 0.009711 0.000000 0.003585 0.000000
# 4 0.000000 0.000000 0.000000 0.036069 0.000000 0.012965
# 5 -0.007353 0.005460 0.003585 0.000000 0.032965 0.000000
# 6 0.000000 0.000000 0.000000 0.012965 0.000000 0.047537
#
#
# Mechanical properties :
#
#
# Convention : Reuss Voigt Hill
#
# Bulk Modulus (GPa) = 38.28842 55.75791 47.02316
# Shear Modulus (GPa) = 21.96045 28.39234 25.17640
#
# Velocity S-wave (km/s) = 3.29118 3.74224 3.52394
# Velocity P-wave (km/s) = 5.77305 6.79520 6.30487
#
# Compressibility (1/GPa) = 0.02611756
#
# Stress axis : x y z
#
# Youngs Moduli (GPa) = 26.99620 57.11655 102.97599
#
# Poissons Ratio (x) = 0.54045 0.68904
# Poissons Ratio (y) = 0.25544 0.30052
# Poissons Ratio (z) = 0.18064 0.16669
#
# Static dielectric constant tensor:
#      x y z
#    x 1.750130 0.000000 0.051690 
#    y 0.000000 1.734070 0.000000 
#    z 0.051690 0.000000 1.772750 
# 
# From -- ./inp_files/269216.got.cif
#   From: 2010.05.17/outbox.cif.g08.bks.cpg/sg15_135_cif.got.tgz:269216.got - 2010.06.03 18:47:42.
