data_PCOD9265485
_publ_section_title
;
Structure prediction by ZEFSAII (Michael W. Deem and Ramdas Pophale) SiO2 
 PCOD9265485
Probable space group: C 2/C
;
_chemical_formula_sum "Si O2"
_cell_formula_units_Z 52
_cell_length_a 9.552502
_cell_length_b 10.118430
_cell_length_c 18.256780
_cell_angle_alpha 90.000000
_cell_angle_beta 100.923243
_cell_angle_gamma 90.000000
_cell_volume 1732.661459
_symmetry_space_group_name_H-M "C 2/C"
_symmetry_group_IT_number 15
_symmetry_cell_setting 'monoclinic'
loop_
_space_group_symop_operation_xyz
x,y,z
-x,y,1/2-z
-x,-y,-z
x,-y,1/2+z
1/2+x,1/2+y,z
1/2-x,1/2+y,1/2-z
1/2-x,1/2-y,-z
1/2+x,1/2-y,1/2+z
loop_
_atom_site_type_symbol
_atom_site_label
_atom_site_fract_x
_atom_site_fract_y
_atom_site_fract_z
Si Si1 0.500000 0.315626 0.250000
Si Si2 0.326398 0.115359 0.596989
Si Si3 0.651763 0.333272 0.406383
Si Si4 0.000000 0.367914 0.250000
Si Si5 0.208856 0.409992 0.708859
Si Si6 0.846867 0.129062 0.362881
Si Si7 0.904592 0.671003 0.447531
Si Si8 0.000000 0.000000 0.500000
O O1 0.572163 0.386945 0.325414
O O2 0.382414 0.219114 0.273988
O O3 0.415315 0.188504 0.670213
O O4 0.175259 0.184507 0.559026
O O5 0.409373 0.112099 0.528789
O O6 0.274844 0.980022 0.627856
O O7 0.792672 0.268342 0.388294
O O8 0.553332 0.210040 0.426144
O O9 0.640082 0.424873 0.475226
O O10 0.118749 0.462243 0.224134
O O11 0.345273 0.388294 0.774863
O O12 0.192867 0.407713 0.619772
O O13 0.979219 0.085052 0.422960
#
# Coordination Sequence:
#
# PCOD9265485 Si02
#       8
#     4   8   8   4   8   8   8   4
#     4   7  14  32  58  81 102 152 216 267 314 385
#     4  10  20  36  59  89 125 157 207 271 330 391
#     4  10  20  37  63  86 122 169 218 268 329 399
#     4   9  18  34  56  83 116 154 210 269 310 403
#     4   8  16  33  58  82 108 156 215 261 316 394
#     4  10  21  39  60  88 122 167 222 265 329 407
#     4  10  19  36  61  89 123 164 207 272 331 384
#     4  12  22  38  58  88 130 168 204 278 328 392
#
# _framework density 30.011634000000001
#
# number of rings (size 3 to 8) (size 9 to 14) (size 15 to 20)
#    0.000    2.462    1.538    3.231    0.000    2.462 
#    2.769    1.538    3.385    0.000    0.000    0.000 
#    0.000    0.000    0.000    0.000    0.000    0.000 
#
# Total GULP energy -145281.965908 kJ/mol
# GULP energy per Si atom -5587.767920 kJ/mol
# Density = 2.994333 g / cm^3
# Si number density = 30.011634 Si / 1000 Ang^3
#
#
#
# Elastic Constant Matrix: (Units=GPa)
#
#
# Indices 1 2 3 4 5 6 
#
# 1 92.4571 24.6185 45.2481 0.0000 6.5459 0.0000
# 2 24.6185 68.8153 53.5399 0.0000 -6.8294 0.0000
# 3 45.2481 53.5399 293.7383 0.0000 0.9111 0.0000
# 4 0.0000 0.0000 0.0000 64.3965 0.0000 -7.9202
# 5 6.5459 -6.8294 0.9111 0.0000 60.1831 0.0000
# 6 0.0000 0.0000 0.0000 -7.9202 0.0000 42.5276
#
#
#
# Elastic Compliance Matrix: (Units=1/GPa)
#
#
# Indices 1 2 3 4 5 6 
#
# 1 0.012535 -0.003684 -0.001254 0.000000 -0.001762 0.000000
# 2 -0.003684 0.018252 -0.002767 0.000000 0.002514 0.000000
# 3 -0.001254 -0.002767 0.004103 0.000000 -0.000240 0.000000
# 4 0.000000 0.000000 0.000000 0.015893 0.000000 0.002960
# 5 -0.001762 0.002514 -0.000240 0.000000 0.017097 0.000000
# 6 0.000000 0.000000 0.000000 0.002960 0.000000 0.024065
#
#
# Mechanical properties :
#
#
# Convention : Reuss Voigt Hill
#
# Bulk Modulus (GPa) = 51.33469 77.98039 64.65754
# Shear Modulus (GPa) = 43.91843 55.52839 49.72341
#
# Velocity S-wave (km/s) = 3.82957 4.30610 4.07480
# Velocity P-wave (km/s) = 6.05774 7.12482 6.61284
#
# Compressibility (1/GPa) = 0.01948000
#
# Stress axis : x y z
#
# Youngs Moduli (GPa) = 79.77549 54.78905 243.74314
#
# Poissons Ratio (x) = 0.20182 0.30567
# Poissons Ratio (y) = 0.29386 0.67447
# Poissons Ratio (z) = 0.10004 0.15161
#
# Static dielectric constant tensor:
#      x y z
#    x 2.545140 0.000000 -0.058310 
#    y 0.000000 1.910290 0.000000 
#    z -0.058310 0.000000 2.153460 
# 
# From -- ./inp_files/153571.got.cif
#   From: 2010.05.17/outbox.cif.g08.bks.cpg/sg15_77_cif.got.tgz:153571.got - 2010.06.03 18:47:42.
