data_PCOD9265950
_publ_section_title
;
Structure prediction by ZEFSAII (Michael W. Deem and Ramdas Pophale) SiO2 
 PCOD9265950
Probable space group: C 2/C
;
_chemical_formula_sum "Si O2"
_cell_formula_units_Z 52
_cell_length_a 17.874488
_cell_length_b 28.051877
_cell_length_c 5.449217
_cell_angle_alpha 90.000000
_cell_angle_beta 76.991284
_cell_angle_gamma 90.000000
_cell_volume 2662.185505
_symmetry_space_group_name_H-M "C 2/C"
_symmetry_group_IT_number 15
_symmetry_cell_setting 'monoclinic'
loop_
_space_group_symop_operation_xyz
x,y,z
-x,y,1/2-z
-x,-y,-z
x,-y,1/2+z
1/2+x,1/2+y,z
1/2-x,1/2+y,1/2-z
1/2-x,1/2-y,-z
1/2+x,1/2-y,1/2+z
loop_
_atom_site_type_symbol
_atom_site_label
_atom_site_fract_x
_atom_site_fract_y
_atom_site_fract_z
Si Si1 0.811685 0.796656 0.724466
Si Si2 0.340308 0.529614 0.985246
Si Si3 0.765387 0.878299 0.385287
Si Si4 0.500000 0.786667 0.250000
Si Si5 0.168310 0.308969 0.203971
Si Si6 0.908363 0.846232 0.037294
Si Si7 0.500000 0.727519 0.750000
Si Si8 0.000000 0.918363 0.250000
O O1 0.792875 0.835158 0.535481
O O2 0.822945 0.740984 0.650730
O O3 0.736319 0.801131 0.955955
O O4 0.887533 0.815108 0.815693
O O5 0.332567 0.495509 0.753828
O O6 0.277068 0.571645 0.007191
O O7 0.425861 0.552246 0.891142
O O8 0.687581 0.857648 0.332431
O O9 0.831395 0.877136 0.128697
O O10 0.582579 0.812030 0.163803
O O11 0.508829 0.758210 0.498913
O O12 0.929388 0.806856 0.228159
O O13 0.974894 0.884484 0.040536
#
# Coordination Sequence:
#
# PCOD9265950 Si02
#       8
#     8   8   8   4   8   8   4   4
#     4  10  19  37  58  84 120 167 206 248 290 362
#     4  11  25  43  63  89 120 160 208 263 311 357
#     4  10  22  37  61  82 119 156 212 251 306 358
#     4  12  24  36  56  83 124 156 201 244 298 352
#     4  10  22  35  58  88 120 163 199 251 299 368
#     4   9  19  35  53  84 117 168 209 244 287 346
#     4  11  22  36  50  82 120 166 202 244 278 347
#     4   9  20  38  56  87 124 164 205 258 298 355
#
# _framework density 19.532824999999999
#
# number of rings (size 3 to 8) (size 9 to 14) (size 15 to 20)
#    0.000    1.846    1.538    1.846    8.615    0.000 
#    2.769    0.000    0.000    0.000    0.000    1.077 
#    0.000    0.000    0.000    0.000    0.000    0.000 
#
# Total GULP energy -144858.832358 kJ/mol
# GULP energy per Si atom -5571.493552 kJ/mol
# Density = 1.948837 g / cm^3
# Si number density = 19.532825 Si / 1000 Ang^3
#
#
#
# Elastic Constant Matrix: (Units=GPa)
#
#
# Indices 1 2 3 4 5 6 
#
# 1 119.5957 45.0244 21.4133 0.0000 15.8975 0.0000
# 2 45.0244 77.0750 9.9225 0.0000 1.2309 0.0000
# 3 21.4133 9.9225 48.9497 0.0000 9.4949 0.0000
# 4 0.0000 0.0000 0.0000 12.3267 0.0000 6.2238
# 5 15.8975 1.2309 9.4949 0.0000 18.0094 0.0000
# 6 0.0000 0.0000 0.0000 6.2238 0.0000 38.8109
#
#
#
# Elastic Compliance Matrix: (Units=1/GPa)
#
#
# Indices 1 2 3 4 5 6 
#
# 1 0.012644 -0.006941 -0.002285 0.000000 -0.009482 0.000000
# 2 -0.006941 0.017137 -0.001558 0.000000 0.005777 0.000000
# 3 -0.002285 -0.001558 0.023763 0.000000 -0.010405 0.000000
# 4 0.000000 0.000000 0.000000 0.088272 0.000000 -0.014155
# 5 -0.009482 0.005777 -0.010405 0.000000 0.068988 0.000000
# 6 0.000000 0.000000 0.000000 -0.014155 0.000000 0.028036
#
#
# Mechanical properties :
#
#
# Convention : Reuss Voigt Hill
#
# Bulk Modulus (GPa) = 31.27304 44.26009 37.76656
# Shear Modulus (GPa) = 18.44573 25.11341 21.77957
#
# Velocity S-wave (km/s) = 3.07635 3.58956 3.34282
# Velocity P-wave (km/s) = 5.35386 6.31573 5.85458
#
# Compressibility (1/GPa) = 0.03197642
#
# Stress axis : x y z
#
# Youngs Moduli (GPa) = 79.08894 58.35274 42.08255
#
# Poissons Ratio (x) = 0.40500 0.09616
# Poissons Ratio (y) = 0.54892 0.06558
# Poissons Ratio (z) = 0.18071 0.09093
#
# Static dielectric constant tensor:
#      x y z
#    x 1.732040 0.000000 -0.041650 
#    y 0.000000 1.712690 0.000000 
#    z -0.041650 0.000000 1.818090 
# 
# From -- ./inp_files/11275.got.cif
#   From: 2010.05.17/outbox.cif.g08.bks.cpg/sg15_6_cif.got.tgz:11275.got - 2010.06.03 18:47:42.
