data_PCOD9265147
_publ_section_title
;
Structure prediction by ZEFSAII (Michael W. Deem and Ramdas Pophale) SiO2 
 PCOD9265147
Probable space group: C 2/C
;
_chemical_formula_sum "Si O2"
_cell_formula_units_Z 52
_cell_length_a 13.765860
_cell_length_b 21.423829
_cell_length_c 16.670505
_cell_angle_alpha 90.000000
_cell_angle_beta 147.298583
_cell_angle_gamma 90.000000
_cell_volume 2656.151987
_symmetry_space_group_name_H-M "C 2/C"
_symmetry_group_IT_number 15
_symmetry_cell_setting 'monoclinic'
loop_
_space_group_symop_operation_xyz
x,y,z
-x,y,1/2-z
-x,-y,-z
x,-y,1/2+z
1/2+x,1/2+y,z
1/2-x,1/2+y,1/2-z
1/2-x,1/2-y,-z
1/2+x,1/2-y,1/2+z
loop_
_atom_site_type_symbol
_atom_site_label
_atom_site_fract_x
_atom_site_fract_y
_atom_site_fract_z
Si Si1 0.323219 0.699981 0.177553
Si Si2 0.112008 0.898294 0.539007
Si Si3 0.873841 0.048416 0.731278
Si Si4 0.266378 0.924429 0.814437
Si Si5 0.500000 0.140100 0.250000
Si Si6 0.887804 0.652244 0.001462
Si Si7 0.034769 0.767242 0.553969
O O1 0.500000 0.714917 0.250000
O O2 0.291867 0.625340 0.157462
O O3 0.345055 0.715128 0.286883
O O4 0.151804 0.742210 0.037694
O O5 0.132256 0.923717 0.644035
O O6 0.316715 0.896193 0.646762
O O7 0.032878 0.828431 0.497021
O O8 0.985948 0.933612 0.388572
O O9 0.787432 0.110170 0.631796
O O10 0.000000 0.020523 0.750000
O O11 0.731094 0.994866 0.653570
O O12 0.451853 0.894619 0.912773
O O13 0.437084 0.174564 0.125412
O O14 0.886144 0.710448 0.941461
#
# Coordination Sequence:
#
# PCOD9265147 Si02
#       7
#     8   8   8   8   4   8   8
#     4  10  19  36  58  85 108 146 185 228 278 334
#     4  10  21  38  56  81 115 147 190 226 285 328
#     4  12  21  35  56  87 106 143 194 235 270 330
#     4   9  21  37  58  76 113 150 181 228 286 334
#     4  10  20  38  52  80 112 154 184 228 278 330
#     4  10  21  38  56  81 115 147 190 226 285 328
#     4  10  21  37  56  82 114 150 182 229 281 338
#
# _framework density 19.577193000000001
#
# number of rings (size 3 to 8) (size 9 to 14) (size 15 to 20)
#    0.000    1.846    1.538    3.692    0.000    0.615 
#    2.769    0.000    0.000    0.000    4.000    0.000 
#    0.000    0.000    0.000    0.000    0.000    0.000 
#
# Total GULP energy -144885.191327 kJ/mol
# GULP energy per Si atom -5572.507359 kJ/mol
# Density = 1.953263 g / cm^3
# Si number density = 19.577193 Si / 1000 Ang^3
#
#
#
# Elastic Constant Matrix: (Units=GPa)
#
#
# Indices 1 2 3 4 5 6 
#
# 1 55.8617 19.4800 -5.2015 -0.0004 5.8030 0.0005
# 2 19.4800 82.9996 15.9465 0.0001 -5.4254 0.0005
# 3 -5.2015 15.9465 48.9180 -0.0015 -0.7780 0.0018
# 4 -0.0004 0.0001 -0.0015 17.4423 -0.0011 3.7051
# 5 5.8030 -5.4254 -0.7780 -0.0011 28.9521 0.0009
# 6 0.0005 0.0005 0.0018 3.7051 0.0009 -2.9802
#
#
#
# Elastic Compliance Matrix: (Units=1/GPa)
#
#
# Indices 1 2 3 4 5 6 
#
# 1 0.020934 -0.006045 0.004113 0.000000 -0.005218 0.000003
# 2 -0.006045 0.014753 -0.005391 0.000000 0.003831 -0.000001
# 3 0.004113 -0.005391 0.022618 -0.000001 -0.001227 0.000012
# 4 0.000000 0.000000 -0.000001 0.045354 0.000000 0.056386
# 5 -0.005218 0.003831 -0.001227 0.000000 0.036271 0.000010
# 6 0.000003 -0.000001 0.000012 0.056386 0.000010 -0.265449
#
#
# Mechanical properties :
#
#
# Convention : Reuss Voigt Hill
#
# Bulk Modulus (GPa) = 22.90398 27.58101 25.24249
# Shear Modulus (GPa) = -51.90996 19.18647 -16.36175
#
# Velocity S-wave (km/s) = -5.15491 3.13396 -2.89408
# Velocity P-wave (km/s) = 4.86889 5.21675 1.32447
#
# Compressibility (1/GPa) = 0.04366054
#
# Stress axis : x y z
#
# Youngs Moduli (GPa) = 47.76837 67.78204 44.21320
#
# Poissons Ratio (x) = 0.40972 -0.18187
# Poissons Ratio (y) = 0.28875 0.23836
# Poissons Ratio (z) = -0.19649 0.36542
#
# Static dielectric constant tensor:
#      x y z
#    x 1.695060 0.000000 0.009280 
#    y 0.000000 1.688200 0.000000 
#    z 0.009280 0.000000 1.699740 
# 
# From -- ./inp_files/40834.got.cif
#   From: 2010.05.17/outbox.cif.g08.bks.cpg/sg15_21_cif.got.tgz:40834.got - 2010.06.03 18:47:42.
