data_PCOD9265381
_publ_section_title
;
Structure prediction by ZEFSAII (Michael W. Deem and Ramdas Pophale) SiO2 
 PCOD9265381
Probable space group: C 2/C
;
_chemical_formula_sum "Si O2"
_cell_formula_units_Z 64
_cell_length_a 8.514474
_cell_length_b 14.046965
_cell_length_c 20.908291
_cell_angle_alpha 90.000000
_cell_angle_beta 79.853979
_cell_angle_gamma 90.000000
_cell_volume 2461.578568
_symmetry_space_group_name_H-M "C 2/C"
_symmetry_group_IT_number 15
_symmetry_cell_setting 'monoclinic'
loop_
_space_group_symop_operation_xyz
x,y,z
-x,y,1/2-z
-x,-y,-z
x,-y,1/2+z
1/2+x,1/2+y,z
1/2-x,1/2+y,1/2-z
1/2-x,1/2-y,-z
1/2+x,1/2-y,1/2+z
loop_
_atom_site_type_symbol
_atom_site_label
_atom_site_fract_x
_atom_site_fract_y
_atom_site_fract_z
Si Si1 0.982306 0.632341 0.857110
Si Si2 0.257287 0.625206 0.748417
Si Si3 0.092863 0.966322 0.834670
Si Si4 0.072427 0.697664 0.402298
Si Si5 0.598196 0.330831 0.579409
Si Si6 0.829614 0.667032 0.244859
Si Si7 0.630192 0.338606 0.024169
Si Si8 0.674883 0.027222 0.059314
O O1 0.143504 0.589228 0.814367
O O2 0.860791 0.635779 0.805207
O O3 0.989548 0.739880 0.882022
O O4 0.919317 0.569979 0.921387
O O5 0.393583 0.560875 0.707501
O O6 0.317333 0.725629 0.770595
O O7 0.185493 0.891773 0.782948
O O8 0.199663 0.974654 0.891180
O O9 0.931432 0.920831 0.871783
O O10 0.216006 0.691605 0.442297
O O11 0.164242 0.682579 0.330342
O O12 0.973845 0.796562 0.410451
O O13 0.949781 0.611986 0.419558
O O14 0.503957 0.348034 0.520879
O O15 0.000000 0.621382 0.250000
O O16 0.730856 0.436353 0.010728
O O17 0.750000 0.250000 0.000000
#
# Coordination Sequence:
#
# PCOD9265381 Si02
#       8
#     8   8   8   8   8   8   8   8
#     4  10  19  36  60  88 116 157 195 254 295 358
#     4  10  21  36  54  87 124 154 198 241 302 359
#     4  10  21  38  60  85 120 164 195 243 300 362
#     4  11  21  37  62  90 119 155 201 251 297 351
#     4  11  21  38  64  87 122 152 203 253 305 347
#     4  12  22  37  59  88 121 161 198 238 301 367
#     4   9  21  40  64  85 114 164 205 244 296 365
#     4   9  19  39  63  84 117 161 206 236 298 362
#
# _framework density 25.999575
#
# number of rings (size 3 to 8) (size 9 to 14) (size 15 to 20)
#    0.000    1.750    3.750    1.125    1.750    0.500 
#    4.500    3.125    2.750    0.000    0.000    0.000 
#    0.000    0.000    0.000    0.000    0.000    0.000 
#
# Total GULP energy -178903.039945 kJ/mol
# GULP energy per Si atom -5590.719998 kJ/mol
# Density = 2.594040 g / cm^3
# Si number density = 25.999575 Si / 1000 Ang^3
#
#
#
# Elastic Constant Matrix: (Units=GPa)
#
#
# Indices 1 2 3 4 5 6 
#
# 1 55.8076 -13.9675 11.3623 0.0000 -1.7829 0.0000
# 2 -13.9675 64.9877 34.5854 0.0000 -24.5834 0.0000
# 3 11.3623 34.5854 57.9325 0.0000 -10.0963 0.0000
# 4 0.0000 0.0000 0.0000 146.7401 0.0000 -71.3245
# 5 -1.7829 -24.5834 -10.0963 0.0000 33.4298 0.0000
# 6 0.0000 0.0000 0.0000 -71.3245 0.0000 60.5642
#
#
#
# Elastic Compliance Matrix: (Units=1/GPa)
#
#
# Indices 1 2 3 4 5 6 
#
# 1 0.024477 0.015091 -0.012296 0.000000 0.008690 0.000000
# 2 0.015091 0.039184 -0.022368 0.000000 0.022864 0.000000
# 3 -0.012296 -0.022368 0.031715 0.000000 -0.007526 0.000000
# 4 0.000000 0.000000 0.000000 0.015938 0.000000 0.018770
# 5 0.008690 0.022864 -0.007526 0.000000 0.044918 0.000000
# 6 0.000000 0.000000 0.000000 0.018770 0.000000 0.038616
#
#
# Mechanical properties :
#
#
# Convention : Reuss Voigt Hill
#
# Bulk Modulus (GPa) = 17.78366 26.96537 22.37452
# Shear Modulus (GPa) = 19.78357 57.93000 38.85679
#
# Velocity S-wave (km/s) = 2.76147 4.72541 3.87009
# Velocity P-wave (km/s) = 4.12583 6.33772 5.34739
#
# Compressibility (1/GPa) = 0.05623140
#
# Stress axis : x y z
#
# Youngs Moduli (GPa) = 40.85502 25.52065 31.53093
#
# Poissons Ratio (x) = -0.38514 0.38770
# Poissons Ratio (y) = -0.61656 0.70528
# Poissons Ratio (z) = 0.50234 0.57084
#
# Static dielectric constant tensor:
#      x y z
#    x 2.297370 0.000000 -0.279680 
#    y 0.000000 2.070250 0.000000 
#    z -0.279680 0.000000 2.409380 
# 
# From -- ./inp_files/288776.got.cif
#   From: 2010.05.17/outbox.cif.g08.bks.cpg/sg15_145_cif.got.tgz:288776.got - 2010.06.03 18:47:42.
