data_PCOD9265002
_publ_section_title
;
Structure prediction by ZEFSAII (Michael W. Deem and Ramdas Pophale) SiO2 
 PCOD9265002
Probable space group: C 2/C
;
_chemical_formula_sum "Si O2"
_cell_formula_units_Z 64
_cell_length_a 27.929963
_cell_length_b 13.894273
_cell_length_c 8.239138
_cell_angle_alpha 90.000000
_cell_angle_beta 102.785856
_cell_angle_gamma 90.000000
_cell_volume 3118.052665
_symmetry_space_group_name_H-M "C 2/C"
_symmetry_group_IT_number 15
_symmetry_cell_setting 'monoclinic'
loop_
_space_group_symop_operation_xyz
x,y,z
-x,y,1/2-z
-x,-y,-z
x,-y,1/2+z
1/2+x,1/2+y,z
1/2-x,1/2+y,1/2-z
1/2-x,1/2-y,-z
1/2+x,1/2-y,1/2+z
loop_
_atom_site_type_symbol
_atom_site_label
_atom_site_fract_x
_atom_site_fract_y
_atom_site_fract_z
Si Si1 0.639594 0.643948 0.441441
Si Si2 0.244723 0.363589 0.954312
Si Si3 0.334474 0.103754 0.874410
Si Si4 0.384618 0.947813 0.099159
Si Si5 0.344361 0.193922 0.321574
Si Si6 0.344312 0.551408 0.390640
Si Si7 0.945734 0.280345 0.273010
Si Si8 0.391828 0.269564 0.033656
O O1 0.670196 0.727287 0.554720
O O2 0.658531 0.588895 0.296136
O O3 0.639031 0.558071 0.573001
O O4 0.591060 0.704231 0.345929
O O5 0.203110 0.357783 0.785722
O O6 0.293182 0.418764 0.937837
O O7 0.250000 0.250000 0.000000
O O8 0.218511 0.412249 0.089767
O O9 0.341800 0.069595 0.698453
O O10 0.348109 0.216108 0.898077
O O11 0.375797 0.054361 0.023483
O O12 0.429347 0.890942 0.218473
O O13 0.376340 0.886284 0.932312
O O14 0.377856 0.241445 0.206065
O O15 0.385295 0.617602 0.507478
O O16 0.938360 0.263491 0.461143
O O17 0.000000 0.264662 0.250000
#
# Coordination Sequence:
#
# PCOD9265002 Si02
#       8
#     8   8   8   8   8   8   8   8
#     4  10  23  38  61  83 122 158 194 244 310 339
#     4  11  22  36  58  83 119 155 212 238 275 341
#     4  10  19  36  56  82 118 160 191 241 287 344
#     4  10  21  37  60  85 119 159 193 236 309 345
#     4  10  20  38  55  84 118 162 194 242 288 347
#     4  11  21  38  55  87 116 160 197 248 286 344
#     4   9  20  42  67  91 113 147 195 248 300 369
#     4   9  18  36  59  81 121 152 186 239 305 337
#
# _framework density 20.525631000000001
#
# number of rings (size 3 to 8) (size 9 to 14) (size 15 to 20)
#    0.000    2.000    2.500    3.000    0.000    2.500 
#    0.000    7.500    0.000    0.000    0.000    0.000 
#    0.000    0.000    0.000    0.000    0.000    0.000 
#
# Total GULP energy -178139.510136 kJ/mol
# GULP energy per Si atom -5566.859692 kJ/mol
# Density = 2.047891 g / cm^3
# Si number density = 20.525631 Si / 1000 Ang^3
#
#
#
# Elastic Constant Matrix: (Units=GPa)
#
#
# Indices 1 2 3 4 5 6 
#
# 1 97.3328 4.3765 19.1379 0.0000 -22.5158 0.0000
# 2 4.3765 82.6738 -0.2161 0.0000 4.2385 0.0000
# 3 19.1379 -0.2161 75.5949 0.0000 -21.5118 0.0000
# 4 0.0000 0.0000 0.0000 34.3966 0.0000 -2.0041
# 5 -22.5158 4.2385 -21.5118 0.0000 18.8367 0.0000
# 6 0.0000 0.0000 0.0000 -2.0041 0.0000 15.1825
#
#
#
# Elastic Compliance Matrix: (Units=1/GPa)
#
#
# Indices 1 2 3 4 5 6 
#
# 1 0.014634 -0.001807 0.002050 0.000000 0.020240 0.000000
# 2 -0.001807 0.012523 -0.001368 0.000000 -0.006540 0.000000
# 3 0.002050 -0.001368 0.019985 0.000000 0.025581 0.000000
# 4 0.000000 0.000000 0.000000 0.029298 0.000000 0.003867
# 5 0.020240 -0.006540 0.025581 0.000000 0.107965 0.000000
# 6 0.000000 0.000000 0.000000 0.003867 0.000000 0.066376
#
#
# Mechanical properties :
#
#
# Convention : Reuss Voigt Hill
#
# Bulk Modulus (GPa) = 22.27565 33.57755 27.92660
# Shear Modulus (GPa) = 18.65700 29.17004 23.91352
#
# Velocity S-wave (km/s) = 3.01817 3.77391 3.41700
# Velocity P-wave (km/s) = 4.79812 5.94846 5.40399
#
# Compressibility (1/GPa) = 0.04489206
#
# Stress axis : x y z
#
# Youngs Moduli (GPa) = 68.33248 79.85252 50.03743
#
# Poissons Ratio (x) = 0.14429 -0.10255
# Poissons Ratio (y) = 0.12348 0.06844
# Poissons Ratio (z) = -0.14005 0.10922
#
# Static dielectric constant tensor:
#      x y z
#    x 1.760170 0.000000 -0.001510 
#    y 0.000000 1.793990 0.000000 
#    z -0.001510 0.000000 1.809270 
# 
# From -- ./inp_files/69753.got.cif
#   From: 2010.05.17/outbox.cif.g08.bks.cpg/sg15_35_cif.got.tgz:69753.got - 2010.06.03 18:47:42.
