data_PCOD9265469
_publ_section_title
;
Structure prediction by ZEFSAII (Michael W. Deem and Ramdas Pophale) SiO2 
 PCOD9265469
Probable space group: C 2/C
;
_chemical_formula_sum "Si O2"
_cell_formula_units_Z 36
_cell_length_a 10.351682
_cell_length_b 20.321480
_cell_length_c 10.091618
_cell_angle_alpha 90.000000
_cell_angle_beta 104.546815
_cell_angle_gamma 90.000000
_cell_volume 2054.833913
_symmetry_space_group_name_H-M "C 2/C"
_symmetry_group_IT_number 15
_symmetry_cell_setting 'monoclinic'
loop_
_space_group_symop_operation_xyz
x,y,z
-x,y,1/2-z
-x,-y,-z
x,-y,1/2+z
1/2+x,1/2+y,z
1/2-x,1/2+y,1/2-z
1/2-x,1/2-y,-z
1/2+x,1/2-y,1/2+z
loop_
_atom_site_type_symbol
_atom_site_label
_atom_site_fract_x
_atom_site_fract_y
_atom_site_fract_z
Si Si1 0.678381 0.564375 0.395190
Si Si2 0.148640 0.091117 0.844528
Si Si3 0.397559 0.632794 0.382899
Si Si4 0.642210 0.880712 0.331408
Si Si5 0.500000 0.246571 0.750000
O O1 0.667134 0.486391 0.378466
O O2 0.538402 0.592694 0.417249
O O3 0.689430 0.596988 0.252806
O O4 0.794248 0.586390 0.523776
O O5 0.254468 0.112522 0.762023
O O6 0.000000 0.101192 0.750000
O O7 0.162087 0.128679 0.987134
O O8 0.432352 0.705281 0.338971
O O9 0.500000 0.910847 0.250000
O O10 0.606009 0.803664 0.342038
#
# Coordination Sequence:
#
# PCOD9265469 Si02
#       5
#     8   8   8   8   4
#     4  10  19  36  61  88 117 142 189 242 296 322
#     4  12  20  36  63  93 109 141 202 244 277 333
#     4  10  20  34  64  88 109 149 194 248 273 324
#     4  10  23  40  56  82 124 158 178 229 294 348
#     4   8  22  42  52  80 126 154 190 216 296 346
#
# _framework density 17.519665
#
# number of rings (size 3 to 8) (size 9 to 14) (size 15 to 20)
#    0.667    1.333    4.444    2.000    0.000    5.333 
#    0.000    1.111    0.000    0.000    0.000    0.000 
#    0.000    0.000    0.000    0.000    0.000    0.000 
#
# Total GULP energy -100349.882540 kJ/mol
# GULP energy per Si atom -5574.993474 kJ/mol
# Density = 1.747979 g / cm^3
# Si number density = 17.519665 Si / 1000 Ang^3
#
#
#
# Elastic Constant Matrix: (Units=GPa)
#
#
# Indices 1 2 3 4 5 6 
#
# 1 78.8084 2.8142 55.8680 0.0000 7.7351 0.0000
# 2 2.8142 18.3769 1.6276 0.0000 3.0870 0.0000
# 3 55.8680 1.6276 144.4170 0.0000 6.8988 0.0000
# 4 0.0000 0.0000 0.0000 10.2864 0.0000 6.1291
# 5 7.7351 3.0870 6.8988 0.0000 27.1220 0.0000
# 6 0.0000 0.0000 0.0000 6.1291 0.0000 0.2571
#
#
#
# Elastic Compliance Matrix: (Units=1/GPa)
#
#
# Indices 1 2 3 4 5 6 
#
# 1 0.017828 -0.001598 -0.006726 0.000000 -0.003192 0.000000
# 2 -0.001598 0.055635 0.000275 0.000000 -0.005947 0.000000
# 3 -0.006726 0.000275 0.009549 0.000000 -0.000542 0.000000
# 4 0.000000 0.000000 0.000000 -0.007361 0.000000 0.175511
# 5 -0.003192 -0.005947 -0.000542 0.000000 0.038595 0.000000
# 6 0.000000 0.000000 0.000000 0.175511 0.000000 -0.294556
#
#
# Mechanical properties :
#
#
# Convention : Reuss Voigt Hill
#
# Bulk Modulus (GPa) = 14.94454 40.24688 27.59571
# Shear Modulus (GPa) = -35.23434 19.61924 -7.80755
#
# Velocity S-wave (km/s) = -4.48943 3.35003 -2.11332
# Velocity P-wave (km/s) = 4.28073 6.16327 3.13539
#
# Compressibility (1/GPa) = 0.06691406
#
# Stress axis : x y z
#
# Youngs Moduli (GPa) = 56.09288 17.97417 104.72067
#
# Poissons Ratio (x) = 0.02873 0.70437
# Poissons Ratio (y) = 0.08965 -0.02883
# Poissons Ratio (z) = 0.37729 -0.00495
#
# Static dielectric constant tensor:
#      x y z
#    x 1.584510 0.000000 0.007060 
#    y 0.000000 1.587040 0.000000 
#    z 0.007060 0.000000 1.601170 
# 
# From -- ./inp_files/23869.got.cif
#   From: 2010.05.17/outbox.cif.g08.bks.cpg/sg15_12_cif.got.tgz:23869.got - 2010.06.03 18:47:42.
