data_PCOD9265076
_publ_section_title
;
Structure prediction by ZEFSAII (Michael W. Deem and Ramdas Pophale) SiO2 
 PCOD9265076
Probable space group: C 2/C
;
_chemical_formula_sum "Si O2"
_cell_formula_units_Z 56
_cell_length_a 18.842551
_cell_length_b 13.473732
_cell_length_c 13.655848
_cell_angle_alpha 90.000000
_cell_angle_beta 43.843116
_cell_angle_gamma 90.000000
_cell_volume 2401.500934
_symmetry_space_group_name_H-M "C 2/C"
_symmetry_group_IT_number 15
_symmetry_cell_setting 'monoclinic'
loop_
_space_group_symop_operation_xyz
x,y,z
-x,y,1/2-z
-x,-y,-z
x,-y,1/2+z
1/2+x,1/2+y,z
1/2-x,1/2+y,1/2-z
1/2-x,1/2-y,-z
1/2+x,1/2-y,1/2+z
loop_
_atom_site_type_symbol
_atom_site_label
_atom_site_fract_x
_atom_site_fract_y
_atom_site_fract_z
Si Si1 0.280786 0.397234 0.895491
Si Si2 0.939247 0.802899 0.089251
Si Si3 0.152869 0.137117 0.373600
Si Si4 0.593606 0.245131 0.595747
Si Si5 0.286804 0.861154 0.188686
Si Si6 0.505381 0.919608 0.582718
Si Si7 0.301035 0.016787 0.352755
O O1 0.327646 0.424149 0.744659
O O2 0.353142 0.322284 0.883650
O O3 0.174601 0.338125 0.984362
O O4 0.254032 0.484988 0.994385
O O5 0.829091 0.843664 0.230399
O O6 0.960541 0.688986 0.098963
O O7 0.939633 0.799921 0.970172
O O8 0.036536 0.867536 0.025486
O O9 0.173280 0.251135 0.323722
O O10 0.236617 0.105169 0.368465
O O11 0.500000 0.200369 0.750000
O O12 0.290270 0.927196 0.283770
O O13 0.372659 0.902716 0.028302
O O14 0.500000 0.000000 0.500000
O O15 0.421190 0.959079 0.742752
#
# Coordination Sequence:
#
# PCOD9265076 Si02
#       7
#     8   8   8   8   8   8   8
#     4  11  21  35  56  88 127 160 203 256 317 385
#     4  11  19  35  59  85 127 163 198 261 327 383
#     4  11  22  37  58  92 127 165 206 260 323 380
#     4  11  20  32  55  86 125 158 194 257 332 385
#     4  10  19  36  57  86 124 163 205 259 321 382
#     4   9  20  32  54  82 121 162 208 252 301 377
#     4  11  21  37  58  88 128 163 214 259 315 385
#
# _framework density 23.318750000000001
#
# number of rings (size 3 to 8) (size 9 to 14) (size 15 to 20)
#    0.000    1.429    5.714    0.857    4.000    0.571 
#    0.000    0.000    0.000    0.857    0.000    0.000 
#    8.571    0.000    0.000    1.143    0.000    0.000 
#
# Total GULP energy -156588.380560 kJ/mol
# GULP energy per Si atom -5592.442163 kJ/mol
# Density = 2.326568 g / cm^3
# Si number density = 23.318750 Si / 1000 Ang^3
#
#
#
# Elastic Constant Matrix: (Units=GPa)
#
#
# Indices 1 2 3 4 5 6 
#
# 1 70.3532 26.5052 26.3576 0.0000 -29.6341 0.0000
# 2 26.5052 78.8958 36.6220 0.0000 -10.9238 0.0000
# 3 26.3576 36.6220 109.9240 0.0000 -47.3132 0.0000
# 4 0.0000 0.0000 0.0000 30.0803 0.0000 -1.4330
# 5 -29.6341 -10.9238 -47.3132 0.0000 43.0970 0.0000
# 6 0.0000 0.0000 0.0000 -1.4330 0.0000 6.7434
#
#
#
# Elastic Compliance Matrix: (Units=1/GPa)
#
#
# Indices 1 2 3 4 5 6 
#
# 1 0.023695 -0.007801 0.005837 0.000000 0.020725 0.000000
# 2 -0.007801 0.017797 -0.008391 0.000000 -0.010064 0.000000
# 3 0.005837 -0.008391 0.021433 0.000000 0.025416 0.000000
# 4 0.000000 0.000000 0.000000 0.033584 0.000000 0.007137
# 5 0.020725 -0.010064 0.025416 0.000000 0.062806 0.000000
# 6 0.000000 0.000000 0.000000 0.007137 0.000000 0.149810
#
#
# Mechanical properties :
#
#
# Convention : Reuss Voigt Hill
#
# Bulk Modulus (GPa) = 23.68702 48.68250 36.18476
# Shear Modulus (GPa) = 14.53890 27.29670 20.91780
#
# Velocity S-wave (km/s) = 2.49968 3.42510 2.99831
# Velocity P-wave (km/s) = 4.30246 6.04682 5.24763
#
# Compressibility (1/GPa) = 0.04221722
#
# Stress axis : x y z
#
# Youngs Moduli (GPa) = 42.20211 56.18973 46.65794
#
# Poissons Ratio (x) = 0.43832 -0.27236
# Poissons Ratio (y) = 0.32920 0.39149
# Poissons Ratio (z) = -0.24635 0.47146
#
# Static dielectric constant tensor:
#      x y z
#    x 1.892190 0.000000 -0.027170 
#    y 0.000000 1.886500 0.000000 
#    z -0.027170 0.000000 1.871990 
# 
# From -- ./inp_files/168437.got.cif
#   From: 2010.05.17/outbox.cif.g08.bks.cpg/sg15_85_cif.got.tgz:168437.got - 2010.06.03 18:47:42.
