data_PCOD9265406
_publ_section_title
;
Structure prediction by ZEFSAII (Michael W. Deem and Ramdas Pophale) SiO2 
 PCOD9265406
Probable space group: C 2/C
;
_chemical_formula_sum "Si O2"
_cell_formula_units_Z 56
_cell_length_a 27.703176
_cell_length_b 9.778336
_cell_length_c 13.884713
_cell_angle_alpha 90.000000
_cell_angle_beta 135.616139
_cell_angle_gamma 90.000000
_cell_volume 2630.846975
_symmetry_space_group_name_H-M "C 2/C"
_symmetry_group_IT_number 15
_symmetry_cell_setting 'monoclinic'
loop_
_space_group_symop_operation_xyz
x,y,z
-x,y,1/2-z
-x,-y,-z
x,-y,1/2+z
1/2+x,1/2+y,z
1/2-x,1/2+y,1/2-z
1/2-x,1/2-y,-z
1/2+x,1/2-y,1/2+z
loop_
_atom_site_type_symbol
_atom_site_label
_atom_site_fract_x
_atom_site_fract_y
_atom_site_fract_z
Si Si1 0.805427 0.369953 0.373395
Si Si2 0.446841 0.379461 0.599365
Si Si3 0.510555 0.224883 0.529513
Si Si4 0.065098 0.802997 0.402151
Si Si5 0.229428 0.478485 0.491601
Si Si6 0.887235 0.514310 0.322466
Si Si7 0.800272 0.800742 0.443416
O O1 0.861393 0.270140 0.502753
O O2 0.760559 0.432603 0.397222
O O3 0.850432 0.477195 0.372361
O O4 0.758049 0.302293 0.223017
O O5 0.500000 0.313858 0.750000
O O6 0.486320 0.352615 0.557323
O O7 0.432855 0.535024 0.609900
O O8 0.373372 0.309257 0.496995
O O9 0.543899 0.280523 0.481169
O O10 0.568880 0.118899 0.650417
O O11 0.442792 0.133331 0.413895
O O12 0.000000 0.744458 0.250000
O O13 0.170899 0.543247 0.339754
O O14 0.203572 0.334889 0.498742
O O15 0.288136 0.428496 0.499999
#
# Coordination Sequence:
#
# PCOD9265406 Si02
#       7
#     8   8   8   8   8   8   8
#     4  10  21  38  62  88 120 161 201 256 305 358
#     4  11  23  40  59  86 125 160 208 245 298 372
#     4  10  19  36  60  90 119 158 194 253 305 359
#     4  10  22  39  59  88 125 160 201 245 306 369
#     4  10  20  40  62  85 123 158 197 262 305 355
#     4   9  19  34  62  93 118 147 207 247 305 367
#     4  10  23  39  61  91 117 162 213 246 308 372
#
# _framework density 21.285920999999998
#
# number of rings (size 3 to 8) (size 9 to 14) (size 15 to 20)
#    0.000    2.000    0.000    3.000    2.000    1.143 
#    5.143    4.286    0.000    0.000    0.000    0.000 
#    0.000    0.000    0.000    0.000    0.000    0.000 
#
# Total GULP energy -156136.685004 kJ/mol
# GULP energy per Si atom -5576.310179 kJ/mol
# Density = 2.123747 g / cm^3
# Si number density = 21.285921 Si / 1000 Ang^3
#
#
#
# Elastic Constant Matrix: (Units=GPa)
#
#
# Indices 1 2 3 4 5 6 
#
# 1 54.5567 -2.6301 10.5680 0.0000 -5.8222 0.0000
# 2 -2.6301 11.7505 11.1546 0.0000 1.8978 0.0000
# 3 10.5680 11.1546 57.7343 0.0000 0.0113 0.0000
# 4 0.0000 0.0000 0.0000 1.2662 0.0000 -14.0698
# 5 -5.8222 1.8978 0.0113 0.0000 27.6706 0.0000
# 6 0.0000 0.0000 0.0000 -14.0698 0.0000 22.6029
#
#
#
# Elastic Compliance Matrix: (Units=1/GPa)
#
#
# Indices 1 2 3 4 5 6 
#
# 1 0.020215 0.009126 -0.005464 0.000000 0.003630 0.000000
# 2 0.009126 0.109766 -0.022877 0.000000 -0.005599 0.000000
# 3 -0.005464 -0.022877 0.022741 0.000000 0.000410 0.000000
# 4 0.000000 0.000000 0.000000 -0.133476 0.000000 -0.083086
# 5 0.003630 -0.005599 0.000410 0.000000 0.037287 0.000000
# 6 0.000000 0.000000 0.000000 -0.083086 0.000000 -0.007477
#
#
# Mechanical properties :
#
#
# Convention : Reuss Voigt Hill
#
# Bulk Modulus (GPa) = 8.74956 18.02517 13.38737
# Shear Modulus (GPa) = 39.81390 17.30453 28.55921
#
# Velocity S-wave (km/s) = 4.32954 2.85433 3.66689
# Velocity P-wave (km/s) = 5.39562 4.39880 4.92251
#
# Compressibility (1/GPa) = 0.11429143
#
# Stress axis : x y z
#
# Youngs Moduli (GPa) = 49.46751 9.11029 43.97393
#
# Poissons Ratio (x) = -0.08314 0.24028
# Poissons Ratio (y) = -0.45142 1.00598
# Poissons Ratio (z) = 0.27030 0.20841
#
# Static dielectric constant tensor:
#      x y z
#    x 1.765530 0.000000 -0.008130 
#    y 0.000000 1.808380 0.000000 
#    z -0.008130 0.000000 1.802230 
# 
# From -- ./inp_files/111130.got.cif
#   From: 2010.05.17/outbox.cif.g08.bks.cpg/sg15_56_cif.got.tgz:111130.got - 2010.06.03 18:47:42.
