data_PCOD9265912
_publ_section_title
;
Structure prediction by ZEFSAII (Michael W. Deem and Ramdas Pophale) SiO2 
 PCOD9265912
Probable space group: C 2/C
;
_chemical_formula_sum "Si O2"
_cell_formula_units_Z 44
_cell_length_a 11.375961
_cell_length_b 16.263708
_cell_length_c 9.071198
_cell_angle_alpha 90.000000
_cell_angle_beta 91.396431
_cell_angle_gamma 90.000000
_cell_volume 1677.812049
_symmetry_space_group_name_H-M "C 2/C"
_symmetry_group_IT_number 15
_symmetry_cell_setting 'monoclinic'
loop_
_space_group_symop_operation_xyz
x,y,z
-x,y,1/2-z
-x,-y,-z
x,-y,1/2+z
1/2+x,1/2+y,z
1/2-x,1/2+y,1/2-z
1/2-x,1/2-y,-z
1/2+x,1/2-y,1/2+z
loop_
_atom_site_type_symbol
_atom_site_label
_atom_site_fract_x
_atom_site_fract_y
_atom_site_fract_z
Si Si1 0.465564 0.394437 0.477410
Si Si2 0.447064 0.124540 0.096256
Si Si3 0.109553 0.549680 0.866356
Si Si4 0.223500 0.204010 0.651438
Si Si5 0.606547 0.730565 0.129593
Si Si6 0.500000 0.533874 0.250000
O O1 0.408133 0.323407 0.379678
O O2 0.586761 0.353921 0.539017
O O3 0.451839 0.472887 0.373094
O O4 0.412834 0.415076 0.639457
O O5 0.500000 0.156355 0.250000
O O6 0.359827 0.046808 0.120483
O O7 0.558248 0.080606 0.019661
O O8 0.405714 0.193949 0.982986
O O9 0.206914 0.617104 0.829074
O O10 0.000000 0.555233 0.750000
O O11 0.250000 0.250000 0.500000
O O12 0.270882 0.260358 0.782791
O O13 0.500000 0.739245 0.250000
#
# Coordination Sequence:
#
# PCOD9265912 Si02
#       6
#     8   8   8   8   8   4
#     4  11  24  44  73  94 130 177 225 277 335 400
#     4  10  20  33  59  91 128 174 199 266 346 385
#     4  10  19  37  57  88 132 174 209 259 328 396
#     4  12  21  37  70  97 124 178 232 260 324 409
#     4  12  21  42  64  94 131 173 213 269 335 400
#     4  10  24  50  68  94 132 176 222 284 336 388
#
# _framework density 26.224630000000001
#
# number of rings (size 3 to 8) (size 9 to 14) (size 15 to 20)
#    0.000    1.091    6.364    0.000    1.273    1.455 
#    0.000    0.909    8.000    0.000    0.000    0.000 
#    0.000    0.000    0.000    0.000    0.000    0.000 
#
# Total GULP energy -122867.960539 kJ/mol
# GULP energy per Si atom -5584.907297 kJ/mol
# Density = 2.616494 g / cm^3
# Si number density = 26.224630 Si / 1000 Ang^3
#
#
#
# Elastic Constant Matrix: (Units=GPa)
#
#
# Indices 1 2 3 4 5 6 
#
# 1 41.3316 15.5409 42.8177 0.0000 9.5502 0.0000
# 2 15.5409 165.3309 72.3673 0.0000 10.7297 0.0000
# 3 42.8177 72.3673 220.3198 0.0000 22.2214 0.0000
# 4 0.0000 0.0000 0.0000 59.1707 0.0000 -3.3091
# 5 9.5502 10.7297 22.2214 0.0000 35.7319 0.0000
# 6 0.0000 0.0000 0.0000 -3.3091 0.0000 18.8092
#
#
#
# Elastic Compliance Matrix: (Units=1/GPa)
#
#
# Indices 1 2 3 4 5 6 
#
# 1 0.031069 -0.000207 -0.005483 0.000000 -0.004832 0.000000
# 2 -0.000207 0.007083 -0.002216 0.000000 -0.000693 0.000000
# 3 -0.005483 -0.002216 0.006527 0.000000 -0.001928 0.000000
# 4 0.000000 0.000000 0.000000 0.017068 0.000000 0.003003
# 5 -0.004832 -0.000693 -0.001928 0.000000 0.030685 0.000000
# 6 0.000000 0.000000 0.000000 0.003003 0.000000 0.053694
#
#
# Mechanical properties :
#
#
# Convention : Reuss Voigt Hill
#
# Bulk Modulus (GPa) = 34.64224 76.49270 55.56747
# Shear Modulus (GPa) = 29.14436 42.49277 35.81857
#
# Velocity S-wave (km/s) = 3.33729 4.02971 3.69973
# Velocity P-wave (km/s) = 5.29986 7.13323 6.28377
#
# Compressibility (1/GPa) = 0.02886649
#
# Stress axis : x y z
#
# Youngs Moduli (GPa) = 32.18679 141.18186 153.21330
#
# Poissons Ratio (x) = 0.02923 0.84001
# Poissons Ratio (y) = 0.00666 0.33958
# Poissons Ratio (z) = 0.17647 0.31291
#
# Static dielectric constant tensor:
#      x y z
#    x 2.202380 0.000000 -0.008940 
#    y 0.000000 2.259160 0.000000 
#    z -0.008940 0.000000 2.080960 
# 
# From -- ./inp_files/39763.got.cif
#   From: 2010.05.17/outbox.cif.g08.bks.cpg/sg15_20_cif.got.tgz:39763.got - 2010.06.03 18:47:42.
