data_PCOD9265356
_publ_section_title
;
Structure prediction by ZEFSAII (Michael W. Deem and Ramdas Pophale) SiO2 
 PCOD9265356
Probable space group: C 2/C
;
_chemical_formula_sum "Si O2"
_cell_formula_units_Z 56
_cell_length_a 14.624879
_cell_length_b 17.354216
_cell_length_c 13.925692
_cell_angle_alpha 90.000000
_cell_angle_beta 37.882249
_cell_angle_gamma 90.000000
_cell_volume 2170.257297
_symmetry_space_group_name_H-M "C 2/C"
_symmetry_group_IT_number 15
_symmetry_cell_setting 'monoclinic'
loop_
_space_group_symop_operation_xyz
x,y,z
-x,y,1/2-z
-x,-y,-z
x,-y,1/2+z
1/2+x,1/2+y,z
1/2-x,1/2+y,1/2-z
1/2-x,1/2-y,-z
1/2+x,1/2-y,1/2+z
loop_
_atom_site_type_symbol
_atom_site_label
_atom_site_fract_x
_atom_site_fract_y
_atom_site_fract_z
Si Si1 0.662962 0.712609 0.162815
Si Si2 0.975052 0.930825 0.658909
Si Si3 0.742309 0.642194 0.813813
Si Si4 0.561476 0.998340 0.307799
Si Si5 0.683187 0.896652 0.452634
Si Si6 0.407515 0.739103 0.919345
Si Si7 0.645201 0.420686 0.988785
O O1 0.500000 0.715273 0.250000
O O2 0.333767 0.627230 0.290039
O O3 0.707503 0.771355 0.208886
O O4 0.750000 0.750000 0.000000
O O5 0.104716 0.883116 0.495603
O O6 0.000000 0.945664 0.750000
O O7 0.011915 0.017413 0.590535
O O8 0.882695 0.588162 0.725548
O O9 0.723823 0.629131 0.716146
O O10 0.500000 0.007702 0.250000
O O11 0.420720 0.030101 0.482926
O O12 0.714783 0.047542 0.188270
O O13 0.566120 0.825720 0.566440
O O14 0.785780 0.915167 0.459892
O O15 0.500000 0.717386 0.750000
O O16 0.399543 0.667080 0.997113
O O17 0.250000 0.750000 0.000000
#
# Coordination Sequence:
#
# PCOD9265356 Si02
#       7
#     8   8   8   8   8   8   8
#     4  11  21  41  65  88 121 166 216 259 306 387
#     4  10  20  39  65  84 120 164 215 251 308 381
#     4  11  21  37  61  94 124 157 205 269 311 362
#     4   9  18  36  61  87 118 163 208 244 301 377
#     4  10  20  36  58  94 128 156 205 263 315 360
#     4  10  19  36  60  86 118 162 204 243 302 375
#     4   9  19  36  63  87 119 165 209 251 304 383
#
# _framework density 25.803391999999999
#
# number of rings (size 3 to 8) (size 9 to 14) (size 15 to 20)
#    0.000    2.000    2.857    3.429    0.000    0.000 
#    7.714    0.714   12.571    0.000    0.000    0.000 
#    0.000    0.000    0.000    0.000    0.000    0.000 
#
# Total GULP energy -156110.489507 kJ/mol
# GULP energy per Si atom -5575.374625 kJ/mol
# Density = 2.574466 g / cm^3
# Si number density = 25.803392 Si / 1000 Ang^3
#
#
#
# Elastic Constant Matrix: (Units=GPa)
#
#
# Indices 1 2 3 4 5 6 
#
# 1 66.0193 25.3400 25.9019 -0.0007 20.4229 0.0008
# 2 25.3400 184.2696 23.5275 -0.0003 -15.4462 0.0003
# 3 25.9019 23.5275 88.3721 -0.0006 10.7561 0.0008
# 4 -0.0007 -0.0003 -0.0006 41.8731 0.0006 -12.5275
# 5 20.4229 -15.4462 10.7561 0.0006 33.0719 -0.0008
# 6 0.0008 0.0003 0.0008 -12.5275 -0.0008 23.6425
#
#
#
# Elastic Compliance Matrix: (Units=1/GPa)
#
#
# Indices 1 2 3 4 5 6 
#
# 1 0.022614 -0.003835 -0.003841 0.000000 -0.014507 -0.000001
# 2 -0.003835 0.006622 -0.001357 0.000000 0.005903 0.000000
# 3 -0.003841 -0.001357 0.013111 0.000000 -0.002526 0.000000
# 4 0.000000 0.000000 0.000000 0.028381 0.000000 0.015038
# 5 -0.014507 0.005903 -0.002526 0.000000 0.042774 0.000002
# 6 -0.000001 0.000000 0.000000 0.015038 0.000002 0.050265
#
#
# Mechanical properties :
#
#
# Convention : Reuss Voigt Hill
#
# Bulk Modulus (GPa) = 41.18867 54.24444 47.71655
# Shear Modulus (GPa) = 26.32587 37.31028 31.81807
#
# Velocity S-wave (km/s) = 3.19760 3.80668 3.51536
# Velocity P-wave (km/s) = 5.44334 6.35523 5.91688
#
# Compressibility (1/GPa) = 0.02427852
#
# Stress axis : x y z
#
# Youngs Moduli (GPa) = 44.22067 151.00353 76.27465
#
# Poissons Ratio (x) = 0.57914 0.29300
# Poissons Ratio (y) = 0.16960 0.10354
# Poissons Ratio (z) = 0.16987 0.20498
#
# Static dielectric constant tensor:
#      x y z
#    x 2.051700 0.000000 0.063760 
#    y 0.000000 2.163950 0.000000 
#    z 0.063760 0.000000 2.132950 
# 
# From -- ./inp_files/163055.got.cif
#   From: 2010.05.17/outbox.cif.g08.bks.cpg/sg15_82_cif.got.tgz:163055.got - 2010.06.03 18:47:42.
