data_PCOD9265815
_publ_section_title
;
Structure prediction by ZEFSAII (Michael W. Deem and Ramdas Pophale) SiO2 
 PCOD9265815
Probable space group: C 2/C
;
_chemical_formula_sum "Si O2"
_cell_formula_units_Z 40
_cell_length_a 13.686601
_cell_length_b 25.579572
_cell_length_c 5.144985
_cell_angle_alpha 90.000000
_cell_angle_beta 71.509542
_cell_angle_gamma 90.000000
_cell_volume 1708.259209
_symmetry_space_group_name_H-M "C 2/C"
_symmetry_group_IT_number 15
_symmetry_cell_setting 'monoclinic'
loop_
_space_group_symop_operation_xyz
x,y,z
-x,y,1/2-z
-x,-y,-z
x,-y,1/2+z
1/2+x,1/2+y,z
1/2-x,1/2+y,1/2-z
1/2-x,1/2-y,-z
1/2+x,1/2-y,1/2+z
loop_
_atom_site_type_symbol
_atom_site_label
_atom_site_fract_x
_atom_site_fract_y
_atom_site_fract_z
Si Si1 0.878578 0.858014 0.353303
Si Si2 0.431296 0.127286 0.055060
Si Si3 0.738709 0.311886 0.545226
Si Si4 0.124514 0.475177 0.661949
Si Si5 0.884796 0.022097 0.663037
O O1 0.829547 0.834981 0.658897
O O2 0.878472 0.920895 0.297842
O O3 0.000000 0.843436 0.250000
O O4 0.812492 0.834388 0.172749
O O5 0.500000 0.142681 0.250000
O O6 0.354874 0.169652 0.005474
O O7 0.359381 0.080661 0.223089
O O8 0.500000 0.109306 0.750000
O O9 0.750000 0.250000 0.500000
O O10 0.158350 0.481578 0.339913
O O11 0.000000 0.477971 0.750000
O O12 0.840564 0.018354 0.410597
O O13 0.000000 0.000000 0.500000
#
# Coordination Sequence:
#
# PCOD9265815 Si02
#       5
#     8   8   8   8   8
#     4  12  25  46  77 107 147 202 235 300 394 455
#     4  11  23  43  71  96 134 186 235 299 371 417
#     4  12  29  49  69 105 145 184 266 323 352 442
#     4   9  16  30  57  90 124 166 211 267 338 415
#     4  10  19  36  69 107 152 189 226 285 370 462
#
# _framework density 23.415649999999999
#
# number of rings (size 3 to 8) (size 9 to 14) (size 15 to 20)
#    0.000    1.200    2.000    6.600    2.800    2.400 
#    0.000    6.000    0.000    2.400    0.000    0.000 
#    0.000    0.000    0.000    0.000    0.000    0.000 
#
# Total GULP energy -111730.223652 kJ/mol
# GULP energy per Si atom -5586.511183 kJ/mol
# Density = 2.336236 g / cm^3
# Si number density = 23.415650 Si / 1000 Ang^3
#
#
#
# Elastic Constant Matrix: (Units=GPa)
#
#
# Indices 1 2 3 4 5 6 
#
# 1 111.6596 31.6109 23.8226 0.0000 16.0909 0.0000
# 2 31.6109 160.1110 36.4197 0.0000 9.2247 0.0000
# 3 23.8226 36.4197 153.0104 0.0000 4.9129 0.0000
# 4 0.0000 0.0000 0.0000 20.3170 0.0000 2.2114
# 5 16.0909 9.2247 4.9129 0.0000 52.3724 0.0000
# 6 0.0000 0.0000 0.0000 2.2114 0.0000 37.6877
#
#
#
# Elastic Compliance Matrix: (Units=1/GPa)
#
#
# Indices 1 2 3 4 5 6 
#
# 1 0.010025 -0.001574 -0.001100 0.000000 -0.002700 0.000000
# 2 -0.001574 0.006905 -0.001379 0.000000 -0.000603 0.000000
# 3 -0.001100 -0.001379 0.007038 0.000000 -0.000079 0.000000
# 4 0.000000 0.000000 0.000000 0.049536 0.000000 -0.002907
# 5 -0.002700 -0.000603 -0.000079 0.000000 0.020037 0.000000
# 6 0.000000 0.000000 0.000000 -0.002907 0.000000 0.026704
#
#
# Mechanical properties :
#
#
# Convention : Reuss Voigt Hill
#
# Bulk Modulus (GPa) = 63.04101 67.60970 65.32535
# Shear Modulus (GPa) = 37.41473 44.27061 40.84267
#
# Velocity S-wave (km/s) = 4.00165 4.35287 4.18095
# Velocity P-wave (km/s) = 6.95212 7.36204 7.16002
#
# Compressibility (1/GPa) = 0.01586269
#
# Stress axis : x y z
#
# Youngs Moduli (GPa) = 99.75144 144.82676 142.09572
#
# Poissons Ratio (x) = 0.22789 0.15625
# Poissons Ratio (y) = 0.15697 0.19597
# Poissons Ratio (z) = 0.10968 0.19973
#
# Static dielectric constant tensor:
#      x y z
#    x 2.260590 0.000000 -0.013190 
#    y 0.000000 1.889530 0.000000 
#    z -0.013190 0.000000 1.909410 
# 
# From -- ./inp_files/7477.got.cif
#   From: 2010.05.17/outbox.cif.g08.bks.cpg/sg15_4_cif.got.tgz:7477.got - 2010.06.03 18:47:42.
