data_PCOD9265240
_publ_section_title
;
Structure prediction by ZEFSAII (Michael W. Deem and Ramdas Pophale) SiO2 
 PCOD9265240
Probable space group: C 2/C
;
_chemical_formula_sum "Si O2"
_cell_formula_units_Z 64
_cell_length_a 13.034252
_cell_length_b 17.537812
_cell_length_c 15.244822
_cell_angle_alpha 90.000000
_cell_angle_beta 62.086321
_cell_angle_gamma 90.000000
_cell_volume 3079.399783
_symmetry_space_group_name_H-M "C 2/C"
_symmetry_group_IT_number 15
_symmetry_cell_setting 'monoclinic'
loop_
_space_group_symop_operation_xyz
x,y,z
-x,y,1/2-z
-x,-y,-z
x,-y,1/2+z
1/2+x,1/2+y,z
1/2-x,1/2+y,1/2-z
1/2-x,1/2-y,-z
1/2+x,1/2-y,1/2+z
loop_
_atom_site_type_symbol
_atom_site_label
_atom_site_fract_x
_atom_site_fract_y
_atom_site_fract_z
Si Si1 0.806010 0.078597 0.881646
Si Si2 0.819270 0.632733 0.730661
Si Si3 0.363908 0.022655 0.855784
Si Si4 0.447537 0.274918 0.368672
Si Si5 0.943184 0.652716 0.956212
Si Si6 0.928220 0.608639 0.434759
Si Si7 0.890109 0.971789 0.987953
Si Si8 0.355666 0.303509 0.064045
O O1 0.784781 0.098559 0.787937
O O2 0.859706 0.155061 0.901066
O O3 0.879474 0.009260 0.894685
O O4 0.674344 0.071805 0.966920
O O5 0.878518 0.562171 0.756640
O O6 0.760009 0.684252 0.830127
O O7 0.925612 0.670350 0.633601
O O8 0.386244 0.089665 0.917674
O O9 0.437023 0.949679 0.852838
O O10 0.227818 0.000298 0.916895
O O11 0.500000 0.268932 0.250000
O O12 0.396532 0.192909 0.414724
O O13 0.543897 0.293448 0.402885
O O14 0.867981 0.728637 0.999157
O O15 0.962944 0.617333 0.044834
O O16 0.881480 0.880258 0.998768
O O17 0.000000 0.000000 0.000000
#
# Coordination Sequence:
#
# PCOD9265240 Si02
#       8
#     8   8   8   8   8   8   8   8
#     4  10  19  36  59  84 119 158 203 246 311 370
#     4  10  21  37  62  89 122 166 207 252 311 368
#     4  10  21  39  61  84 123 163 204 252 312 370
#     4  11  19  32  57  87 122 152 196 254 304 364
#     4  10  21  39  65  89 125 164 207 257 309 373
#     4   9  21  36  58  91 113 157 204 256 308 363
#     4  10  20  36  60  87 115 156 205 247 306 370
#     4  10  21  38  62  93 120 164 208 252 308 372
#
# _framework density 20.783270999999999
#
# number of rings (size 3 to 8) (size 9 to 14) (size 15 to 20)
#    0.000    2.000    2.500    1.125    0.000    3.000 
#    0.000    2.500    2.750   10.500    0.000    0.000 
#    0.000    0.000    0.000    0.000    0.000    0.000 
#
# Total GULP energy -178400.024836 kJ/mol
# GULP energy per Si atom -5575.000776 kJ/mol
# Density = 2.073597 g / cm^3
# Si number density = 20.783271 Si / 1000 Ang^3
#
#
#
# Elastic Constant Matrix: (Units=GPa)
#
#
# Indices 1 2 3 4 5 6 
#
# 1 92.0865 47.2874 22.2080 0.0000 7.6319 0.0000
# 2 47.2874 121.5878 33.7716 0.0000 7.9707 0.0000
# 3 22.2080 33.7716 66.6037 0.0000 -2.0632 0.0000
# 4 0.0000 0.0000 0.0000 31.1765 0.0000 0.0310
# 5 7.6319 7.9707 -2.0632 0.0000 27.5050 0.0000
# 6 0.0000 0.0000 0.0000 0.0310 0.0000 30.2565
#
#
#
# Elastic Compliance Matrix: (Units=1/GPa)
#
#
# Indices 1 2 3 4 5 6 
#
# 1 0.014037 -0.004604 -0.002431 0.000000 -0.002743 0.000000
# 2 -0.004604 0.011362 -0.004298 0.000000 -0.002338 0.000000
# 3 -0.002431 -0.004298 0.018106 0.000000 0.003278 0.000000
# 4 0.000000 0.000000 0.000000 0.032075 0.000000 -0.000033
# 5 -0.002743 -0.002338 0.003278 0.000000 0.038041 0.000000
# 6 0.000000 0.000000 0.000000 -0.000033 0.000000 0.033051
#
#
# Mechanical properties :
#
#
# Convention : Reuss Voigt Hill
#
# Bulk Modulus (GPa) = 47.98894 54.09025 51.03960
# Shear Modulus (GPa) = 28.36290 29.58834 28.97562
#
# Velocity S-wave (km/s) = 3.69819 3.77724 3.73792
# Velocity P-wave (km/s) = 6.43240 6.71608 6.57577
#
# Compressibility (1/GPa) = 0.02083813
#
# Stress axis : x y z
#
# Youngs Moduli (GPa) = 71.23882 88.00984 55.23082
#
# Poissons Ratio (x) = 0.40523 0.13426
# Poissons Ratio (y) = 0.32801 0.23741
# Poissons Ratio (z) = 0.17317 0.37831
#
# Static dielectric constant tensor:
#      x y z
#    x 1.778350 0.000000 -0.005550 
#    y 0.000000 1.741430 0.000000 
#    z -0.005550 0.000000 1.846720 
# 
# From -- ./inp_files/155197.got.cif
#   From: 2010.05.17/outbox.cif.g08.bks.cpg/sg15_78_cif.got.tgz:155197.got - 2010.06.03 18:47:42.
