data_PCOD9265126
_publ_section_title
;
Structure prediction by ZEFSAII (Michael W. Deem and Ramdas Pophale) SiO2 
 PCOD9265126
Probable space group: C 2/C
;
_chemical_formula_sum "Si O2"
_cell_formula_units_Z 48
_cell_length_a 18.869475
_cell_length_b 17.805282
_cell_length_c 14.588221
_cell_angle_alpha 90.000000
_cell_angle_beta 24.241705
_cell_angle_gamma 90.000000
_cell_volume 2012.408028
_symmetry_space_group_name_H-M "C 2/C"
_symmetry_group_IT_number 15
_symmetry_cell_setting 'monoclinic'
loop_
_space_group_symop_operation_xyz
x,y,z
-x,y,1/2-z
-x,-y,-z
x,-y,1/2+z
1/2+x,1/2+y,z
1/2-x,1/2+y,1/2-z
1/2-x,1/2-y,-z
1/2+x,1/2-y,1/2+z
loop_
_atom_site_type_symbol
_atom_site_label
_atom_site_fract_x
_atom_site_fract_y
_atom_site_fract_z
Si Si1 0.962834 0.211356 0.684021
Si Si2 0.839300 0.929129 0.872951
Si Si3 0.205808 0.418712 0.513670
Si Si4 0.235051 0.782561 0.620745
Si Si5 0.057508 0.358198 0.336519
Si Si6 0.690078 0.138053 0.222947
O O1 0.906313 0.290922 0.710670
O O2 0.000000 0.218381 0.750000
O O3 0.135877 0.173315 0.439963
O O4 0.804628 0.153357 0.857803
O O5 0.674613 0.907164 0.131466
O O6 0.784863 0.003958 0.884024
O O7 0.875151 0.858082 0.764811
O O8 0.000000 0.940254 0.750000
O O9 0.244905 0.416577 0.576753
O O10 0.000000 0.415933 0.750000
O O11 0.250000 0.750000 0.500000
O O12 0.414249 0.811856 0.448546
O O13 0.170673 0.708440 0.748086
O O14 0.942402 0.397760 0.549352
#
# Coordination Sequence:
#
# PCOD9265126 Si02
#       6
#     8   8   8   8   8   8
#     4  10  20  36  58  85 114 151 193 228 272 337
#     4  11  22  39  60  82 111 150 195 235 277 338
#     4  11  22  39  61  82 111 152 193 231 277 340
#     4  10  19  36  58  82 111 148 192 228 272 334
#     4  11  22  36  59  88 117 148 184 238 290 329
#     4  11  21  36  59  87 119 146 184 237 286 333
#
# _framework density 23.852022000000002
#
# number of rings (size 3 to 8) (size 9 to 14) (size 15 to 20)
#    0.000    1.333    0.000   11.000    0.000    0.667 
#    0.000    1.667    0.000    7.000    0.000    0.000 
#    0.000    0.000    0.000    0.000    0.000    0.000 
#
# Total GULP energy -134169.016050 kJ/mol
# GULP energy per Si atom -5590.375669 kJ/mol
# Density = 2.379773 g / cm^3
# Si number density = 23.852022 Si / 1000 Ang^3
#
#
#
# Elastic Constant Matrix: (Units=GPa)
#
#
# Indices 1 2 3 4 5 6 
#
# 1 21.1132 -2.8961 7.1039 -0.0029 -5.5606 0.0002
# 2 -2.8961 81.7178 -5.9302 -0.0083 -11.4995 0.0011
# 3 7.1039 -5.9302 92.4109 -0.0191 -17.1956 0.0068
# 4 -0.0029 -0.0083 -0.0191 33.1855 0.0038 -7.3523
# 5 -5.5606 -11.4995 -17.1956 0.0038 51.5993 0.0008
# 6 0.0002 0.0011 0.0068 -7.3523 0.0008 20.6501
#
#
#
# Elastic Compliance Matrix: (Units=1/GPa)
#
#
# Indices 1 2 3 4 5 6 
#
# 1 0.049913 0.002266 -0.002768 0.000003 0.004961 0.000001
# 2 0.002266 0.012914 0.001317 0.000004 0.003561 0.000000
# 3 -0.002768 0.001317 0.011853 0.000006 0.003945 -0.000002
# 4 0.000003 0.000004 0.000006 0.032714 0.000001 0.011648
# 5 0.004961 0.003561 0.003945 0.000001 0.022023 -0.000002
# 6 0.000001 0.000000 -0.000002 0.011648 -0.000002 0.052573
#
#
# Mechanical properties :
#
#
# Convention : Reuss Voigt Hill
#
# Bulk Modulus (GPa) = 13.10447 21.31079 17.20763
# Shear Modulus (GPa) = 24.29584 34.21793 29.25688
#
# Velocity S-wave (km/s) = 3.19503 3.79171 3.50608
# Velocity P-wave (km/s) = 4.37229 5.30315 4.86006
#
# Compressibility (1/GPa) = 0.07630984
#
# Stress axis : x y z
#
# Youngs Moduli (GPa) = 20.03494 77.43361 84.36917
#
# Poissons Ratio (x) = -0.17548 0.23356
# Poissons Ratio (y) = -0.04540 -0.11113
# Poissons Ratio (z) = 0.05546 -0.10200
#
# Static dielectric constant tensor:
#      x y z
#    x 1.980420 0.000000 0.053030 
#    y 0.000000 1.923760 0.000010 
#    z 0.053030 0.000010 2.006340 
# 
# From -- ./inp_files/216533.got.cif
#   From: 2010.05.17/outbox.cif.g08.bks.cpg/sg15_109_cif.got.tgz:216533.got - 2010.06.03 18:47:42.
