data_PCOD9265785
_publ_section_title
;
Structure prediction by ZEFSAII (Michael W. Deem and Ramdas Pophale) SiO2 
 PCOD9265785
Probable space group: C 2/C
;
_chemical_formula_sum "Si O2"
_cell_formula_units_Z 44
_cell_length_a 8.989289
_cell_length_b 18.923968
_cell_length_c 11.929096
_cell_angle_alpha 90.000000
_cell_angle_beta 98.436760
_cell_angle_gamma 90.000000
_cell_volume 2007.334312
_symmetry_space_group_name_H-M "C 2/C"
_symmetry_group_IT_number 15
_symmetry_cell_setting 'monoclinic'
loop_
_space_group_symop_operation_xyz
x,y,z
-x,y,1/2-z
-x,-y,-z
x,-y,1/2+z
1/2+x,1/2+y,z
1/2-x,1/2+y,1/2-z
1/2-x,1/2-y,-z
1/2+x,1/2-y,1/2+z
loop_
_atom_site_type_symbol
_atom_site_label
_atom_site_fract_x
_atom_site_fract_y
_atom_site_fract_z
Si Si1 0.110800 0.573645 0.367909
Si Si2 0.041375 0.918302 0.379349
Si Si3 0.773478 0.047042 0.993993
Si Si4 0.816683 0.317792 0.440499
Si Si5 0.500000 0.761297 0.250000
Si Si6 0.167195 0.124471 0.284604
O O1 0.140974 0.493715 0.414338
O O2 0.092641 0.628152 0.468305
O O3 0.258110 0.606606 0.324496
O O4 0.000000 0.573253 0.250000
O O5 0.162527 0.856062 0.386125
O O6 0.000000 0.938649 0.250000
O O7 0.885346 0.907405 0.428725
O O8 0.129809 0.980766 0.450524
O O9 0.742779 0.090743 0.102808
O O10 0.750000 0.250000 0.500000
O O11 0.925374 0.300641 0.347215
O O12 0.632617 0.706798 0.302366
O O13 0.000000 0.093917 0.250000
#
# Coordination Sequence:
#
# PCOD9265785 Si02
#       6
#     8   8   8   8   4   8
#     4  11  24  40  64 100 141 184 218 286 350 408
#     4  10  20  35  64 100 121 165 221 285 331 404
#     4  10  19  36  66  97 130 168 223 280 343 410
#     4  11  21  43  65  95 141 178 233 285 339 405
#     4  10  22  40  70 100 136 186 224 286 344 416
#     4  10  19  39  67  96 129 175 224 275 346 405
#
# _framework density 21.919619000000001
#
# number of rings (size 3 to 8) (size 9 to 14) (size 15 to 20)
#    0.545    1.091    1.818    6.000    0.000    1.455 
#    3.273    0.909    8.000    0.000    0.000    0.000 
#    0.000    0.000    0.000    0.000    0.000    0.000 
#
# Total GULP energy -122657.438962 kJ/mol
# GULP energy per Si atom -5575.338135 kJ/mol
# Density = 2.186973 g / cm^3
# Si number density = 21.919619 Si / 1000 Ang^3
#
#
#
# Elastic Constant Matrix: (Units=GPa)
#
#
# Indices 1 2 3 4 5 6 
#
# 1 75.9871 54.1143 57.0245 0.0000 -18.6823 0.0000
# 2 54.1143 90.2382 68.7129 0.0000 -11.2344 0.0000
# 3 57.0245 68.7129 144.8346 0.0000 -21.7903 0.0000
# 4 0.0000 0.0000 0.0000 99.8599 0.0000 -35.8089
# 5 -18.6823 -11.2344 -21.7903 0.0000 56.8038 0.0000
# 6 0.0000 0.0000 0.0000 -35.8089 0.0000 27.3341
#
#
#
# Elastic Compliance Matrix: (Units=1/GPa)
#
#
# Indices 1 2 3 4 5 6 
#
# 1 0.025589 -0.011942 -0.003713 0.000000 0.004630 0.000000
# 2 -0.011942 0.022927 -0.006457 0.000000 -0.001870 0.000000
# 3 -0.003713 -0.006457 0.011731 0.000000 0.002002 0.000000
# 4 0.000000 0.000000 0.000000 0.018886 0.000000 0.024742
# 5 0.004630 -0.001870 0.002002 0.000000 0.019525 0.000000
# 6 0.000000 0.000000 0.000000 0.024742 0.000000 0.068997
#
#
# Mechanical properties :
#
#
# Convention : Reuss Voigt Hill
#
# Bulk Modulus (GPa) = 62.40667 74.52925 68.46796
# Shear Modulus (GPa) = 23.01830 45.54679 34.28255
#
# Velocity S-wave (km/s) = 3.24408 4.56334 3.95905
# Velocity P-wave (km/s) = 6.52415 7.86387 7.22513
#
# Compressibility (1/GPa) = 0.01602393
#
# Stress axis : x y z
#
# Youngs Moduli (GPa) = 39.07907 43.61755 85.24676
#
# Poissons Ratio (x) = 0.52086 0.31653
# Poissons Ratio (y) = 0.46667 0.55040
# Poissons Ratio (z) = 0.14510 0.28162
#
# Static dielectric constant tensor:
#      x y z
#    x 1.964020 0.000000 -0.008280 
#    y 0.000000 1.833500 0.000000 
#    z -0.008280 0.000000 1.794250 
# 
# From -- ./inp_files/78309.got.cif
#   From: 2010.05.17/outbox.cif.g08.bks.cpg/sg15_40_cif.got.tgz:78309.got - 2010.06.03 18:47:42.
