data_PCOD9265546
_publ_section_title
;
Structure prediction by ZEFSAII (Michael W. Deem and Ramdas Pophale) SiO2 
 PCOD9265546
Probable space group: C 2/C
;
_chemical_formula_sum "Si O2"
_cell_formula_units_Z 52
_cell_length_a 12.295518
_cell_length_b 13.867592
_cell_length_c 20.018254
_cell_angle_alpha 90.000000
_cell_angle_beta 123.093318
_cell_angle_gamma 90.000000
_cell_volume 2859.600163
_symmetry_space_group_name_H-M "C 2/C"
_symmetry_group_IT_number 15
_symmetry_cell_setting 'monoclinic'
loop_
_space_group_symop_operation_xyz
x,y,z
-x,y,1/2-z
-x,-y,-z
x,-y,1/2+z
1/2+x,1/2+y,z
1/2-x,1/2+y,1/2-z
1/2-x,1/2-y,-z
1/2+x,1/2-y,1/2+z
loop_
_atom_site_type_symbol
_atom_site_label
_atom_site_fract_x
_atom_site_fract_y
_atom_site_fract_z
Si Si1 0.611720 0.963951 0.141754
Si Si2 0.685224 0.450664 0.890173
Si Si3 0.313831 0.049472 0.571550
Si Si4 0.356381 0.234731 0.672889
Si Si5 0.765304 0.215753 0.725973
Si Si6 0.654738 0.077330 0.291206
Si Si7 0.000000 0.907884 0.250000
O O1 0.457497 0.973132 0.090919
O O2 0.653462 0.851979 0.157329
O O3 0.685073 0.018351 0.106954
O O4 0.664181 0.010029 0.228844
O O5 0.648024 0.342093 0.857684
O O6 0.576092 0.523537 0.826909
O O7 0.713057 0.458274 0.977814
O O8 0.320518 0.155805 0.605767
O O9 0.292501 0.977398 0.626269
O O10 0.500000 0.212636 0.750000
O O11 0.261466 0.226685 0.704514
O O12 0.775589 0.321767 0.698535
O O13 0.896946 0.158689 0.753578
O O14 0.500000 0.093731 0.250000
#
# Coordination Sequence:
#
# PCOD9265546 Si02
#       7
#     8   8   8   8   8   8   4
#     4  10  20  37  62  88 120 161 201 243 294 369
#     4  11  23  39  63  86 129 157 200 249 305 354
#     4  11  22  39  58  97 122 155 200 256 296 352
#     4  12  21  39  64  91 121 157 204 243 302 365
#     4  11  20  38  64  89 116 162 206 242 290 370
#     4  10  19  36  62  85 118 159 202 243 299 356
#     4  10  24  42  60  88 120 168 204 238 302 372
#
# _framework density 18.184360000000002
#
# number of rings (size 3 to 8) (size 9 to 14) (size 15 to 20)
#    0.000    1.231    6.154    1.385    0.000    0.000 
#    0.000    5.385    0.000    0.000    0.000    0.000 
#    0.000    0.000    0.000    0.000    0.000    0.000 
#
# Total GULP energy -145245.916457 kJ/mol
# GULP energy per Si atom -5586.381402 kJ/mol
# Density = 1.814297 g / cm^3
# Si number density = 18.184360 Si / 1000 Ang^3
#
#
#
# Elastic Constant Matrix: (Units=GPa)
#
#
# Indices 1 2 3 4 5 6 
#
# 1 53.1292 21.8842 30.1554 0.0000 -9.3345 0.0000
# 2 21.8842 107.4254 38.8899 0.0000 -3.6927 0.0000
# 3 30.1554 38.8899 121.3649 0.0000 -14.6265 0.0000
# 4 0.0000 0.0000 0.0000 10.0293 0.0000 -4.6745
# 5 -9.3345 -3.6927 -14.6265 0.0000 19.9010 0.0000
# 6 0.0000 0.0000 0.0000 -4.6745 0.0000 27.9175
#
#
#
# Elastic Compliance Matrix: (Units=1/GPa)
#
#
# Indices 1 2 3 4 5 6 
#
# 1 0.023702 -0.003130 -0.003968 0.000000 0.007620 0.000000
# 2 -0.003130 0.010950 -0.002922 0.000000 -0.001584 0.000000
# 3 -0.003968 -0.002922 0.010832 0.000000 0.005557 0.000000
# 4 0.000000 0.000000 0.000000 0.108148 0.000000 0.018108
# 5 0.007620 -0.001584 0.005557 0.000000 0.057614 0.000000
# 6 0.000000 0.000000 0.000000 0.018108 0.000000 0.038852
#
#
# Mechanical properties :
#
#
# Convention : Reuss Voigt Hill
#
# Bulk Modulus (GPa) = 39.30218 51.53095 45.41656
# Shear Modulus (GPa) = 17.94571 24.30222 21.12396
#
# Velocity S-wave (km/s) = 3.14487 3.65969 3.41200
# Velocity P-wave (km/s) = 5.90314 6.80128 6.36806
#
# Compressibility (1/GPa) = 0.02544388
#
# Stress axis : x y z
#
# Youngs Moduli (GPa) = 42.18990 91.32615 92.32279
#
# Poissons Ratio (x) = 0.28586 0.36633
# Poissons Ratio (y) = 0.13206 0.26975
# Poissons Ratio (z) = 0.16741 0.26684
#
# Static dielectric constant tensor:
#      x y z
#    x 1.637200 0.000000 0.007330 
#    y 0.000000 1.610600 0.000000 
#    z 0.007330 0.000000 1.594200 
# 
# From -- ./inp_files/198028.got.cif
#   From: 2010.05.17/outbox.cif.g08.bks.cpg/sg15_100_cif.got.tgz:198028.got - 2010.06.03 18:47:42.
