data_PCOD9265865
_publ_section_title
;
Structure prediction by ZEFSAII (Michael W. Deem and Ramdas Pophale) SiO2 
 PCOD9265865
Probable space group: C 2/C
;
_chemical_formula_sum "Si O2"
_cell_formula_units_Z 64
_cell_length_a 25.987500
_cell_length_b 14.203247
_cell_length_c 9.769921
_cell_angle_alpha 90.000000
_cell_angle_beta 74.477138
_cell_angle_gamma 90.000000
_cell_volume 3474.606400
_symmetry_space_group_name_H-M "C 2/C"
_symmetry_group_IT_number 15
_symmetry_cell_setting 'monoclinic'
loop_
_space_group_symop_operation_xyz
x,y,z
-x,y,1/2-z
-x,-y,-z
x,-y,1/2+z
1/2+x,1/2+y,z
1/2-x,1/2+y,1/2-z
1/2-x,1/2-y,-z
1/2+x,1/2-y,1/2+z
loop_
_atom_site_type_symbol
_atom_site_label
_atom_site_fract_x
_atom_site_fract_y
_atom_site_fract_z
Si Si1 0.539409 0.892744 0.095354
Si Si2 0.354348 0.219376 0.993564
Si Si3 0.822517 0.099622 0.160956
Si Si4 0.673733 0.427108 0.518817
Si Si5 0.777235 0.349717 0.311771
Si Si6 0.036507 0.611599 0.090009
Si Si7 0.151149 0.694830 0.962306
Si Si8 0.288669 0.188113 0.293610
O O1 0.500000 0.894104 0.250000
O O2 0.591370 0.831238 0.086137
O O3 0.552295 0.001974 0.053911
O O4 0.503657 0.854131 0.998122
O O5 0.357325 0.332261 0.004474
O O6 0.309084 0.202467 0.910540
O O7 0.334680 0.172357 0.149059
O O8 0.828424 0.070397 0.315186
O O9 0.759135 0.113521 0.178233
O O10 0.847255 0.202227 0.110260
O O11 0.845354 0.021094 0.042866
O O12 0.734782 0.414120 0.420639
O O13 0.740061 0.281661 0.245727
O O14 0.822468 0.377072 0.168181
O O15 0.091770 0.667242 0.047711
O O16 0.000000 0.616315 0.250000
O O17 0.187372 0.698074 0.072974
#
# Coordination Sequence:
#
# PCOD9265865 Si02
#       8
#     8   8   8   8   8   8   8   8
#     4  10  22  37  64  87 111 143 195 244 304 347
#     4  11  19  38  61  82 115 159 193 238 293 353
#     4  11  23  37  54  87 122 158 198 235 285 345
#     4  11  23  36  56  84 124 158 194 240 281 346
#     4  10  19  37  56  80 118 153 194 236 277 342
#     4  10  22  42  58  89 117 144 188 254 297 353
#     4  11  22  36  63  83 120 159 196 235 298 352
#     4  10  20  35  55  84 117 156 194 235 279 343
#
# _framework density 18.419353000000001
#
# number of rings (size 3 to 8) (size 9 to 14) (size 15 to 20)
#    0.000    1.500    3.750    3.750    5.250    2.000 
#    0.000    0.000    0.000    1.500    0.000    0.000 
#    0.000    0.000    0.000    0.000    0.000    0.000 
#
# Total GULP energy -178421.120621 kJ/mol
# GULP energy per Si atom -5575.660019 kJ/mol
# Density = 1.837743 g / cm^3
# Si number density = 18.419353 Si / 1000 Ang^3
#
#
#
# Elastic Constant Matrix: (Units=GPa)
#
#
# Indices 1 2 3 4 5 6 
#
# 1 73.1776 31.5800 28.2592 0.0000 -7.8377 0.0000
# 2 31.5800 62.2604 15.9590 0.0000 -6.2370 0.0000
# 3 28.2592 15.9590 99.7947 0.0000 12.2353 0.0000
# 4 0.0000 0.0000 0.0000 31.3043 0.0000 -7.7317
# 5 -7.8377 -6.2370 12.2353 0.0000 34.3917 0.0000
# 6 0.0000 0.0000 0.0000 -7.7317 0.0000 18.0856
#
#
#
# Elastic Compliance Matrix: (Units=1/GPa)
#
#
# Indices 1 2 3 4 5 6 
#
# 1 0.019570 -0.008228 -0.004799 0.000000 0.004675 0.000000
# 2 -0.008228 0.020800 -0.001285 0.000000 0.002354 0.000000
# 3 -0.004799 -0.001285 0.012284 0.000000 -0.005697 0.000000
# 4 0.000000 0.000000 0.000000 0.035716 0.000000 0.015269
# 5 0.004675 0.002354 -0.005697 0.000000 0.032596 0.000000
# 6 0.000000 0.000000 0.000000 0.015269 0.000000 0.061820
#
#
# Mechanical properties :
#
#
# Convention : Reuss Voigt Hill
#
# Bulk Modulus (GPa) = 41.61532 42.98102 42.29817
# Shear Modulus (GPa) = 22.78740 27.38529 25.08634
#
# Velocity S-wave (km/s) = 3.52112 3.86004 3.69447
# Velocity P-wave (km/s) = 6.25886 6.57662 6.41971
#
# Compressibility (1/GPa) = 0.02402961
#
# Stress axis : x y z
#
# Youngs Moduli (GPa) = 51.09798 48.07633 81.40996
#
# Poissons Ratio (x) = 0.39557 0.39070
# Poissons Ratio (y) = 0.42044 0.10461
# Poissons Ratio (z) = 0.24523 0.06178
#
# Static dielectric constant tensor:
#      x y z
#    x 1.617290 0.000000 -0.012100 
#    y 0.000000 1.675430 0.000000 
#    z -0.012100 0.000000 1.657340 
# 
# From -- ./inp_files/66192.got.cif
#   From: 2010.05.17/outbox.cif.g08.bks.cpg/sg15_34_cif.got.tgz:66192.got - 2010.06.03 18:47:42.
