data_PCOD9265155
_publ_section_title
;
Structure prediction by ZEFSAII (Michael W. Deem and Ramdas Pophale) SiO2 
 PCOD9265155
Probable space group: C 2/C
;
_chemical_formula_sum "Si O2"
_cell_formula_units_Z 56
_cell_length_a 33.254261
_cell_length_b 15.036926
_cell_length_c 7.604465
_cell_angle_alpha 90.000000
_cell_angle_beta 136.501242
_cell_angle_gamma 90.000000
_cell_volume 2617.443476
_symmetry_space_group_name_H-M "C 2/C"
_symmetry_group_IT_number 15
_symmetry_cell_setting 'monoclinic'
loop_
_space_group_symop_operation_xyz
x,y,z
-x,y,1/2-z
-x,-y,-z
x,-y,1/2+z
1/2+x,1/2+y,z
1/2-x,1/2+y,1/2-z
1/2-x,1/2-y,-z
1/2+x,1/2-y,1/2+z
loop_
_atom_site_type_symbol
_atom_site_label
_atom_site_fract_x
_atom_site_fract_y
_atom_site_fract_z
Si Si1 0.100916 0.433344 0.941555
Si Si2 0.071906 0.700297 0.068673
Si Si3 0.094493 0.630303 0.797872
Si Si4 0.811028 0.703630 0.885712
Si Si5 0.080664 0.930323 0.642679
Si Si6 0.677175 0.289350 0.947293
Si Si7 0.043095 0.110995 0.627354
O O1 0.074221 0.401888 0.041838
O O2 0.164940 0.388148 0.124342
O O3 0.064302 0.385114 0.671422
O O4 0.108151 0.537738 0.939553
O O5 0.143109 0.714981 0.310763
O O6 0.049816 0.790809 0.079081
O O7 0.054896 0.680801 0.814953
O O8 0.145575 0.700814 0.918534
O O9 0.743654 0.702027 0.719910
O O10 0.820239 0.775575 0.758082
O O11 0.137830 0.874486 0.870317
O O12 0.062309 0.896513 0.391450
O O13 0.025878 0.910810 0.596894
O O14 0.081729 0.037176 0.649515
#
# Coordination Sequence:
#
# PCOD9265155 Si02
#       7
#     8   8   8   8   8   8   8
#     4   9  18  36  54  88 118 158 190 242 289 358
#     4  10  20  37  58  87 117 154 200 243 294 357
#     4  11  19  33  62  83 119 156 195 234 302 350
#     4   8  18  36  55  80 123 150 197 247 288 349
#     4  10  21  39  61  85 123 154 200 245 301 359
#     4  10  19  36  58  85 116 160 194 249 295 352
#     4  10  21  39  60  89 117 158 197 251 297 353
#
# _framework density 21.394922000000001
#
# number of rings (size 3 to 8) (size 9 to 14) (size 15 to 20)
#    0.857    1.429    2.857    0.000    2.000    0.571 
#    2.571    1.429    0.000    0.857    7.429    0.000 
#    0.000    0.000    0.000    0.000    0.000    0.000 
#
# Total GULP energy -156094.862634 kJ/mol
# GULP energy per Si atom -5574.816523 kJ/mol
# Density = 2.134623 g / cm^3
# Si number density = 21.394922 Si / 1000 Ang^3
#
#
#
# Elastic Constant Matrix: (Units=GPa)
#
#
# Indices 1 2 3 4 5 6 
#
# 1 88.3131 48.7790 24.9530 0.0000 -15.2653 0.0000
# 2 48.7790 134.6623 14.8220 0.0000 5.1951 0.0000
# 3 24.9530 14.8220 61.8790 0.0000 -4.9241 0.0000
# 4 0.0000 0.0000 0.0000 13.9124 0.0000 -2.9886
# 5 -15.2653 5.1951 -4.9241 0.0000 28.8604 0.0000
# 6 0.0000 0.0000 0.0000 -2.9886 0.0000 26.8297
#
#
#
# Elastic Compliance Matrix: (Units=1/GPa)
#
#
# Indices 1 2 3 4 5 6 
#
# 1 0.017890 -0.006315 -0.004925 0.000000 0.009759 0.000000
# 2 -0.006315 0.009940 -0.000246 0.000000 -0.005171 0.000000
# 3 -0.004925 -0.000246 0.018250 0.000000 0.000553 0.000000
# 4 0.000000 0.000000 0.000000 0.073640 0.000000 0.008203
# 5 0.009759 -0.005171 0.000553 0.000000 0.040836 0.000000
# 6 0.000000 0.000000 0.000000 0.008203 0.000000 0.038186
#
#
# Mechanical properties :
#
#
# Convention : Reuss Voigt Hill
#
# Bulk Modulus (GPa) = 43.27532 51.32916 47.30224
# Shear Modulus (GPa) = 21.79453 27.00720 24.40086
#
# Velocity S-wave (km/s) = 3.19514 3.55677 3.38079
# Velocity P-wave (km/s) = 5.82088 6.39616 6.11529
#
# Compressibility (1/GPa) = 0.02310786
#
# Stress axis : x y z
#
# Youngs Moduli (GPa) = 55.89854 100.60449 54.79593
#
# Poissons Ratio (x) = 0.63528 0.26987
# Poissons Ratio (y) = 0.35298 0.01348
# Poissons Ratio (z) = 0.27530 0.02475
#
# Static dielectric constant tensor:
#      x y z
#    x 1.819180 0.000000 -0.014690 
#    y 0.000000 1.751490 0.000000 
#    z -0.014690 0.000000 1.804160 
# 
# From -- ./inp_files/69976.got.cif
#   From: 2010.05.17/outbox.cif.g08.bks.cpg/sg15_35_cif.got.tgz:69976.got - 2010.06.03 18:47:42.
