data_PCOD9265522
_publ_section_title
;
Structure prediction by ZEFSAII (Michael W. Deem and Ramdas Pophale) SiO2 
 PCOD9265522
Probable space group: C 2/C
;
_chemical_formula_sum "Si O2"
_cell_formula_units_Z 56
_cell_length_a 9.627606
_cell_length_b 16.739724
_cell_length_c 26.054677
_cell_angle_alpha 90.000000
_cell_angle_beta 39.923922
_cell_angle_gamma 90.000000
_cell_volume 2694.831572
_symmetry_space_group_name_H-M "C 2/C"
_symmetry_group_IT_number 15
_symmetry_cell_setting 'monoclinic'
loop_
_space_group_symop_operation_xyz
x,y,z
-x,y,1/2-z
-x,-y,-z
x,-y,1/2+z
1/2+x,1/2+y,z
1/2-x,1/2+y,1/2-z
1/2-x,1/2-y,-z
1/2+x,1/2-y,1/2+z
loop_
_atom_site_type_symbol
_atom_site_label
_atom_site_fract_x
_atom_site_fract_y
_atom_site_fract_z
Si Si1 0.995614 0.783831 0.421782
Si Si2 0.173070 0.374501 0.851869
Si Si3 0.190637 0.930903 0.983209
Si Si4 0.500000 0.489484 0.250000
Si Si5 0.500000 0.066982 0.750000
Si Si6 0.107675 0.955351 0.888603
Si Si7 0.788191 0.851911 0.241442
Si Si8 0.779808 0.320677 0.780572
O O1 0.750000 0.750000 0.500000
O O2 0.988472 0.861183 0.459360
O O3 0.168221 0.712442 0.380637
O O4 0.050378 0.819329 0.349531
O O5 0.330139 0.446804 0.821949
O O6 0.207386 0.353542 0.781456
O O7 0.930040 0.404038 0.927748
O O8 0.187023 0.950741 0.924670
O O9 0.118869 0.000488 0.041711
O O10 0.385848 0.428685 0.242709
O O11 0.439420 0.123386 0.719684
O O12 0.289635 0.011361 0.811951
O O13 0.103342 0.871768 0.861008
O O14 0.753482 0.774457 0.286646
O O15 0.000000 0.337325 0.750000
#
# Coordination Sequence:
#
# PCOD9265522 Si02
#       8
#     8   8   8   4   4   8   8   8
#     4   9  20  38  60  88 127 174 203 250 332 393
#     4  10  22  39  64  88 130 165 212 259 326 382
#     4  10  19  36  61  95 123 168 213 256 318 390
#     4  12  24  42  68 102 124 160 218 284 308 366
#     4  12  22  42  66 100 124 170 216 264 320 380
#     4  11  20  33  67  91 124 164 218 264 307 382
#     4  11  24  39  67  93 130 165 216 267 322 376
#     4  11  20  39  62  95 125 171 213 263 320 379
#
# _framework density 20.780519999999999
#
# number of rings (size 3 to 8) (size 9 to 14) (size 15 to 20)
#    0.000    1.429    4.286    1.714    0.000    2.286 
#    0.000    2.857    3.143    6.000    0.000    0.000 
#    0.000    0.000    0.000    0.000    0.000    0.000 
#
# Total GULP energy -156068.114495 kJ/mol
# GULP energy per Si atom -5573.861232 kJ/mol
# Density = 2.073322 g / cm^3
# Si number density = 20.780520 Si / 1000 Ang^3
#
#
#
# Elastic Constant Matrix: (Units=GPa)
#
#
# Indices 1 2 3 4 5 6 
#
# 1 44.6919 27.0357 -2.3204 -0.0014 -7.0936 0.0014
# 2 27.0357 151.5126 44.3661 -0.0008 -6.3770 -0.0002
# 3 -2.3204 44.3661 63.0706 0.0108 -0.8862 -0.0019
# 4 -0.0014 -0.0008 0.0108 25.6220 -0.0033 9.4505
# 5 -7.0936 -6.3770 -0.8862 -0.0033 17.7741 -0.0024
# 6 0.0014 -0.0002 -0.0019 9.4505 -0.0024 28.0675
#
#
#
# Elastic Compliance Matrix: (Units=1/GPa)
#
#
# Indices 1 2 3 4 5 6 
#
# 1 0.027870 -0.006203 0.005517 0.000000 0.009173 0.000000
# 2 -0.006203 0.009824 -0.007129 0.000004 0.000694 -0.000001
# 3 0.005517 -0.007129 0.021083 -0.000010 0.000695 0.000005
# 4 0.000000 0.000004 -0.000010 0.044563 0.000007 -0.015005
# 5 0.009173 0.000694 0.000695 0.000007 0.060206 0.000002
# 6 0.000000 -0.000001 0.000005 -0.015005 0.000002 0.040681
#
#
# Mechanical properties :
#
#
# Convention : Reuss Voigt Hill
#
# Bulk Modulus (GPa) = 23.17592 44.15978 33.66785
# Shear Modulus (GPa) = 21.34595 26.97230 24.15912
#
# Velocity S-wave (km/s) = 3.20849 3.60663 3.41337
# Velocity P-wave (km/s) = 4.99027 6.21614 5.63663
#
# Compressibility (1/GPa) = 0.04314824
#
# Stress axis : x y z
#
# Youngs Moduli (GPa) = 35.88091 101.79653 47.43253
#
# Poissons Ratio (x) = 0.63141 -0.26170
# Poissons Ratio (y) = 0.22256 0.33813
# Poissons Ratio (z) = -0.19797 0.72567
#
# Static dielectric constant tensor:
#      x y z
#    x 1.754400 0.000000 0.011440 
#    y 0.000000 1.814960 0.000000 
#    z 0.011440 0.000000 1.777200 
# 
# From -- ./inp_files/289740.got.cif
#   From: 2010.05.17/outbox.cif.g08.bks.cpg/sg15_145_cif.got.tgz:289740.got - 2010.06.03 18:47:42.
