data_PCOD9265816
_publ_section_title
;
Structure prediction by ZEFSAII (Michael W. Deem and Ramdas Pophale) SiO2 
 PCOD9265816
Probable space group: C 2/C
;
_chemical_formula_sum "Si O2"
_cell_formula_units_Z 48
_cell_length_a 31.856227
_cell_length_b 7.706846
_cell_length_c 19.172931
_cell_angle_alpha 90.000000
_cell_angle_beta 154.343098
_cell_angle_gamma 90.000000
_cell_volume 2038.114305
_symmetry_space_group_name_H-M "C 2/C"
_symmetry_group_IT_number 15
_symmetry_cell_setting 'monoclinic'
loop_
_space_group_symop_operation_xyz
x,y,z
-x,y,1/2-z
-x,-y,-z
x,-y,1/2+z
1/2+x,1/2+y,z
1/2-x,1/2+y,1/2-z
1/2-x,1/2-y,-z
1/2+x,1/2-y,1/2+z
loop_
_atom_site_type_symbol
_atom_site_label
_atom_site_fract_x
_atom_site_fract_y
_atom_site_fract_z
Si Si1 0.888242 0.241218 0.061969
Si Si2 0.342509 0.706947 0.730295
Si Si3 0.517898 0.198285 0.163708
Si Si4 0.150483 0.381254 0.995866
Si Si5 0.832379 0.108551 0.116751
Si Si6 0.537439 0.588514 0.462567
O O1 0.825327 0.414529 0.975723
O O2 0.856098 0.099061 0.070104
O O3 0.893237 0.170733 0.991893
O O4 0.000000 0.287852 0.250000
O O5 0.410215 0.849166 0.793109
O O6 0.245957 0.735902 0.630828
O O7 0.310119 0.574373 0.619923
O O8 0.412945 0.607127 0.889171
O O9 0.414463 0.119197 0.031042
O O10 0.582786 0.173841 0.329716
O O11 0.487866 0.395503 0.101069
O O12 0.932102 0.178838 0.300798
O O13 0.750000 0.250000 0.000000
#
# Coordination Sequence:
#
# PCOD9265816 Si02
#       6
#     8   8   8   8   8   8
#     4  10  20  39  65  92 121 172 218 259 306 390
#     4  11  23  43  64  97 132 169 214 269 320 384
#     4  10  22  40  64  95 126 170 209 269 313 379
#     4  11  22  38  66  93 131 163 216 270 317 367
#     4  10  19  36  69  92 119 166 224 256 306 381
#     4  10  24  41  66  91 132 167 212 265 326 377
#
# _framework density 23.551182000000001
#
# number of rings (size 3 to 8) (size 9 to 14) (size 15 to 20)
#    0.000    1.667    3.333    2.500   11.667    1.333 
#    3.000    0.833    3.667    0.000    0.000    0.000 
#    0.000    0.000    0.000    0.000    0.000    0.000 
#
# Total GULP energy -133878.749017 kJ/mol
# GULP energy per Si atom -5578.281209 kJ/mol
# Density = 2.349758 g / cm^3
# Si number density = 23.551182 Si / 1000 Ang^3
#
#
#
# Elastic Constant Matrix: (Units=GPa)
#
#
# Indices 1 2 3 4 5 6 
#
# 1 116.1700 12.9751 27.3224 0.0000 13.1629 0.0000
# 2 12.9751 53.8102 9.2655 0.0000 -12.9369 0.0000
# 3 27.3224 9.2655 65.3269 0.0000 11.2557 0.0000
# 4 0.0000 0.0000 0.0000 14.0051 0.0000 1.5869
# 5 13.1629 -12.9369 11.2557 0.0000 42.6190 0.0000
# 6 0.0000 0.0000 0.0000 1.5869 0.0000 33.3477
#
#
#
# Elastic Compliance Matrix: (Units=1/GPa)
#
#
# Indices 1 2 3 4 5 6 
#
# 1 0.010012 -0.002565 -0.003307 0.000000 -0.002998 0.000000
# 2 -0.002565 0.021797 -0.003452 0.000000 0.008321 0.000000
# 3 -0.003307 -0.003452 0.018004 0.000000 -0.004781 0.000000
# 4 0.000000 0.000000 0.000000 0.071789 0.000000 -0.003416
# 5 -0.002998 0.008321 -0.004781 0.000000 0.028178 0.000000
# 6 0.000000 0.000000 0.000000 -0.003416 0.000000 0.030150
#
#
# Mechanical properties :
#
#
# Convention : Reuss Voigt Hill
#
# Bulk Modulus (GPa) = 32.08819 37.15922 34.62371
# Shear Modulus (GPa) = 23.92710 30.37731 27.15221
#
# Velocity S-wave (km/s) = 3.19087 3.59533 3.39912
# Velocity P-wave (km/s) = 5.21824 5.74870 5.48988
#
# Compressibility (1/GPa) = 0.03116411
#
# Stress axis : x y z
#
# Youngs Moduli (GPa) = 99.87955 45.87736 55.54231
#
# Poissons Ratio (x) = 0.11769 0.18369
# Poissons Ratio (y) = 0.25623 0.19174
# Poissons Ratio (z) = 0.33032 0.15838
#
# Static dielectric constant tensor:
#      x y z
#    x 2.020650 0.000000 0.102310 
#    y 0.000000 1.919580 0.000000 
#    z 0.102310 0.000000 1.896880 
# 
# From -- ./inp_files/208917.got.cif
#   From: 2010.05.17/outbox.cif.g08.bks.cpg/sg15_105_cif.got.tgz:208917.got - 2010.06.03 18:47:42.
