data_PCOD9265893
_publ_section_title
;
Structure prediction by ZEFSAII (Michael W. Deem and Ramdas Pophale) SiO2 
 PCOD9265893
Probable space group: C 2/C
;
_chemical_formula_sum "Si O2"
_cell_formula_units_Z 56
_cell_length_a 14.419939
_cell_length_b 12.007504
_cell_length_c 26.504098
_cell_angle_alpha 90.000000
_cell_angle_beta 37.006974
_cell_angle_gamma 90.000000
_cell_volume 2762.246030
_symmetry_space_group_name_H-M "C 2/C"
_symmetry_group_IT_number 15
_symmetry_cell_setting 'monoclinic'
loop_
_space_group_symop_operation_xyz
x,y,z
-x,y,1/2-z
-x,-y,-z
x,-y,1/2+z
1/2+x,1/2+y,z
1/2-x,1/2+y,1/2-z
1/2-x,1/2-y,-z
1/2+x,1/2-y,1/2+z
loop_
_atom_site_type_symbol
_atom_site_label
_atom_site_fract_x
_atom_site_fract_y
_atom_site_fract_z
Si Si1 0.843159 0.233261 0.384197
Si Si2 0.714140 0.122078 0.002923
Si Si3 0.590482 0.142483 0.312156
Si Si4 0.371948 0.588653 0.471850
Si Si5 0.175158 0.019032 0.824548
Si Si6 0.812097 0.257073 0.289200
Si Si7 0.982250 0.875338 0.316113
O O1 0.717585 0.324967 0.454261
O O2 0.852982 0.142867 0.424170
O O3 0.807705 0.190634 0.343496
O O4 0.013514 0.284843 0.302593
O O5 0.806575 0.104213 0.910816
O O6 0.792097 0.032258 0.006219
O O7 0.750000 0.250000 0.000000
O O8 0.533546 0.109612 0.091240
O O9 0.659454 0.038946 0.252530
O O10 0.740063 0.188165 0.275497
O O11 0.522787 0.244547 0.308737
O O12 0.551231 0.563489 0.403543
O O13 0.207098 0.133378 0.839781
O O14 0.094691 0.057249 0.806103
O O15 0.000000 0.903350 0.250000
#
# Coordination Sequence:
#
# PCOD9265893 Si02
#       7
#     8   8   8   8   8   8   8
#     4  10  21  38  59  84 121 153 201 232 306 353
#     4   9  19  37  58  80 115 153 189 233 297 345
#     4  10  19  37  57  82 114 147 191 239 282 340
#     4  10  20  38  60  84 114 161 190 245 292 355
#     4  10  20  36  59  82 118 150 196 239 292 331
#     4  10  21  38  57  87 114 158 192 247 286 353
#     4   9  20  38  56  81 112 150 187 231 288 345
#
# _framework density 20.273356
#
# number of rings (size 3 to 8) (size 9 to 14) (size 15 to 20)
#    0.000    2.286    1.429    1.714    0.000    2.857 
#   10.286    1.429    0.000    0.000    0.000    0.000 
#    0.000    0.000    0.000    0.000    0.000    0.000 
#
# Total GULP energy -155972.408936 kJ/mol
# GULP energy per Si atom -5570.443176 kJ/mol
# Density = 2.022721 g / cm^3
# Si number density = 20.273356 Si / 1000 Ang^3
#
#
#
# Elastic Constant Matrix: (Units=GPa)
#
#
# Indices 1 2 3 4 5 6 
#
# 1 31.3664 -10.5100 11.0927 0.0000 -1.5058 0.0000
# 2 -10.5100 62.6765 8.6310 0.0000 -5.3422 0.0000
# 3 11.0927 8.6310 100.4720 0.0000 -10.8294 0.0000
# 4 0.0000 0.0000 0.0000 30.2956 0.0000 -10.5500
# 5 -1.5058 -5.3422 -10.8294 0.0000 24.6563 0.0000
# 6 0.0000 0.0000 0.0000 -10.5500 0.0000 6.0281
#
#
#
# Elastic Compliance Matrix: (Units=1/GPa)
#
#
# Indices 1 2 3 4 5 6 
#
# 1 0.035759 0.006742 -0.004340 0.000000 0.001738 0.000000
# 2 0.006742 0.017636 -0.001893 0.000000 0.003402 0.000000
# 3 -0.004340 -0.001893 0.011045 0.000000 0.004176 0.000000
# 4 0.000000 0.000000 0.000000 0.084520 0.000000 0.147922
# 5 0.001738 0.003402 0.004176 0.000000 0.043235 0.000000
# 6 0.000000 0.000000 0.000000 0.147922 0.000000 0.424774
#
#
# Mechanical properties :
#
#
# Convention : Reuss Voigt Hill
#
# Bulk Modulus (GPa) = 15.27683 23.66025 19.46854
# Shear Modulus (GPa) = 7.83984 24.54941 16.19463
#
# Velocity S-wave (km/s) = 1.96862 3.48360 2.82939
# Velocity P-wave (km/s) = 3.56638 5.27983 4.50531
#
# Compressibility (1/GPa) = 0.06545859
#
# Stress axis : x y z
#
# Youngs Moduli (GPa) = 27.96531 56.70200 90.53990
#
# Poissons Ratio (x) = -0.38229 0.39292
# Poissons Ratio (y) = -0.18854 0.17137
# Poissons Ratio (z) = 0.12136 0.10732
#
# Static dielectric constant tensor:
#      x y z
#    x 1.703680 0.000000 -0.009850 
#    y 0.000000 1.745100 0.000000 
#    z -0.009850 0.000000 1.750340 
# 
# From -- ./inp_files/178414.got.cif
#   From: 2010.05.17/outbox.cif.g08.bks.cpg/sg15_90_cif.got.tgz:178414.got - 2010.06.03 18:47:42.
