data_PCOD9265094
_publ_section_title
;
Structure prediction by ZEFSAII (Michael W. Deem and Ramdas Pophale) SiO2 
 PCOD9265094
Probable space group: C 2/C
;
_chemical_formula_sum "Si O2"
_cell_formula_units_Z 64
_cell_length_a 20.617232
_cell_length_b 21.395004
_cell_length_c 12.026440
_cell_angle_alpha 90.000000
_cell_angle_beta 140.401976
_cell_angle_gamma 90.000000
_cell_volume 3381.349930
_symmetry_space_group_name_H-M "C 2/C"
_symmetry_group_IT_number 15
_symmetry_cell_setting 'monoclinic'
loop_
_space_group_symop_operation_xyz
x,y,z
-x,y,1/2-z
-x,-y,-z
x,-y,1/2+z
1/2+x,1/2+y,z
1/2-x,1/2+y,1/2-z
1/2-x,1/2-y,-z
1/2+x,1/2-y,1/2+z
loop_
_atom_site_type_symbol
_atom_site_label
_atom_site_fract_x
_atom_site_fract_y
_atom_site_fract_z
Si Si1 0.360272 0.196512 0.282694
Si Si2 0.288528 0.575835 0.759616
Si Si3 0.349177 0.349771 0.966987
Si Si4 0.075434 0.835470 0.188980
Si Si5 0.032228 0.603137 0.920092
Si Si6 0.242545 0.556610 0.160457
Si Si7 0.385210 0.083891 0.141195
Si Si8 0.320211 0.050162 0.658626
O O1 0.240173 0.201433 0.150593
O O2 0.395639 0.263630 0.290115
O O3 0.421876 0.166112 0.466932
O O4 0.376601 0.143142 0.211003
O O5 0.379186 0.622497 0.850005
O O6 0.304998 0.506864 0.731676
O O7 0.188494 0.597690 0.560032
O O8 0.258248 0.561590 0.846092
O O9 0.297286 0.404143 0.827261
O O10 0.454886 0.336051 0.046993
O O11 0.375387 0.361536 0.130963
O O12 0.000000 0.611703 0.750000
O O13 0.928797 0.579009 0.838440
O O14 0.124119 0.552201 0.044587
O O15 0.225560 0.582347 0.013672
O O16 0.500000 0.074035 0.250000
O O17 0.345659 0.021044 0.152411
#
# Coordination Sequence:
#
# PCOD9265094 Si02
#       8
#     8   8   8   8   8   8   8   8
#     4  11  22  38  61  88 122 160 202 246 302 356
#     4  11  22  35  57  88 122 156 200 250 303 353
#     4  10  22  43  61  81 119 153 204 253 296 352
#     4  11  25  40  62  90 114 160 205 256 295 358
#     4   9  18  35  58  88 122 165 195 239 302 362
#     4   9  20  36  62  83 117 161 198 241 308 352
#     4  11  22  33  59  96 126 163 197 245 305 361
#     4  10  19  36  57  94 130 153 196 250 301 366
#
# _framework density 18.927351000000002
#
# number of rings (size 3 to 8) (size 9 to 14) (size 15 to 20)
#    0.000    1.750    1.250    4.500    3.500    3.000 
#    0.000    1.875    0.000    4.500    0.000    0.000 
#    0.000    0.000    0.000    0.000    0.000    0.000 
#
# Total GULP energy -178383.815410 kJ/mol
# GULP energy per Si atom -5574.494232 kJ/mol
# Density = 1.888427 g / cm^3
# Si number density = 18.927351 Si / 1000 Ang^3
#
#
#
# Elastic Constant Matrix: (Units=GPa)
#
#
# Indices 1 2 3 4 5 6 
#
# 1 126.5489 45.5141 32.9122 0.0000 12.2207 0.0000
# 2 45.5141 79.5507 34.0487 0.0000 4.0603 0.0000
# 3 32.9122 34.0487 69.8696 0.0000 9.4079 0.0000
# 4 0.0000 0.0000 0.0000 8.6841 0.0000 1.1976
# 5 12.2207 4.0603 9.4079 0.0000 25.1155 0.0000
# 6 0.0000 0.0000 0.0000 1.1976 0.0000 17.8259
#
#
#
# Elastic Compliance Matrix: (Units=1/GPa)
#
#
# Indices 1 2 3 4 5 6 
#
# 1 0.010578 -0.004982 -0.002075 0.000000 -0.003564 0.000000
# 2 -0.004982 0.018233 -0.006812 0.000000 0.002028 0.000000
# 3 -0.002075 -0.006812 0.019298 0.000000 -0.005118 0.000000
# 4 0.000000 0.000000 0.000000 0.116229 0.000000 -0.007809
# 5 -0.003564 0.002028 -0.005118 0.000000 0.043140 0.000000
# 6 0.000000 0.000000 0.000000 -0.007809 0.000000 0.056623
#
#
# Mechanical properties :
#
#
# Convention : Reuss Voigt Hill
#
# Bulk Modulus (GPa) = 49.08674 55.65770 52.37222
# Shear Modulus (GPa) = 16.74324 21.22472 18.98398
#
# Velocity S-wave (km/s) = 2.97746 3.35233 3.17044
# Velocity P-wave (km/s) = 6.14906 6.66738 6.41346
#
# Compressibility (1/GPa) = 0.02037210
#
# Stress axis : x y z
#
# Youngs Moduli (GPa) = 94.53864 54.84614 51.81802
#
# Poissons Ratio (x) = 0.27324 0.10752
# Poissons Ratio (y) = 0.47098 0.35296
# Poissons Ratio (z) = 0.19616 0.37359
#
# Static dielectric constant tensor:
#      x y z
#    x 1.703770 0.000000 -0.011420 
#    y 0.000000 1.656390 0.000000 
#    z -0.011420 0.000000 1.678780 
# 
# From -- ./inp_files/114271.got.cif
#   From: 2010.05.17/outbox.cif.g08.bks.cpg/sg15_58_cif.got.tgz:114271.got - 2010.06.03 18:47:42.
