data_PCOD9265414
_publ_section_title
;
Structure prediction by ZEFSAII (Michael W. Deem and Ramdas Pophale) SiO2 
 PCOD9265414
Probable space group: C 2/C
;
_chemical_formula_sum "Si O2"
_cell_formula_units_Z 48
_cell_length_a 11.743435
_cell_length_b 18.014616
_cell_length_c 15.913324
_cell_angle_alpha 90.000000
_cell_angle_beta 36.097543
_cell_angle_gamma 90.000000
_cell_volume 1983.424051
_symmetry_space_group_name_H-M "C 2/C"
_symmetry_group_IT_number 15
_symmetry_cell_setting 'monoclinic'
loop_
_space_group_symop_operation_xyz
x,y,z
-x,y,1/2-z
-x,-y,-z
x,-y,1/2+z
1/2+x,1/2+y,z
1/2-x,1/2+y,1/2-z
1/2-x,1/2-y,-z
1/2+x,1/2-y,1/2+z
loop_
_atom_site_type_symbol
_atom_site_label
_atom_site_fract_x
_atom_site_fract_y
_atom_site_fract_z
Si Si1 0.726904 0.954401 0.593273
Si Si2 0.772711 0.291603 0.897759
Si Si3 0.783320 0.516558 0.599674
Si Si4 0.806569 0.141357 0.391524
Si Si5 0.232178 0.387667 0.125244
Si Si6 0.154814 0.333772 0.344632
O O1 0.500000 0.949208 0.750000
O O2 0.816203 0.873901 0.555342
O O3 0.736420 0.969349 0.487900
O O4 0.797412 0.027003 0.600958
O O5 0.701623 0.239139 0.867067
O O6 0.000000 0.299968 0.750000
O O7 0.750000 0.250000 0.000000
O O8 0.681794 0.436403 0.669259
O O9 0.745931 0.593964 0.669491
O O10 0.000000 0.500000 0.500000
O O11 0.820540 0.136007 0.484280
O O12 0.580232 0.161637 0.514183
O O13 0.000000 0.185847 0.250000
O O14 0.242157 0.335244 0.199326
O O15 0.000000 0.394066 0.250000
#
# Coordination Sequence:
#
# PCOD9265414 Si02
#       6
#     8   8   8   8   8   8
#     4   9  16  31  55  86 128 166 208 261 320 385
#     4  11  23  40  62  92 134 176 213 261 323 405
#     4   9  16  28  52  84 130 166 206 253 323 387
#     4   9  18  33  57  94 129 164 215 278 323 376
#     4   8  16  33  59  90 129 166 207 268 327 384
#     4  10  19  36  60  91 131 175 216 261 337 391
#
# _framework density 24.200574
#
# number of rings (size 3 to 8) (size 9 to 14) (size 15 to 20)
#    0.000    2.667    1.667    3.000    0.000    0.667 
#    0.000    2.500    0.000    0.000    0.000   18.667 
#    0.000    0.000    0.000    0.000    0.000    0.000 
#
# Total GULP energy -133944.030377 kJ/mol
# GULP energy per Si atom -5581.001266 kJ/mol
# Density = 2.414549 g / cm^3
# Si number density = 24.200574 Si / 1000 Ang^3
#
#
#
# Elastic Constant Matrix: (Units=GPa)
#
#
# Indices 1 2 3 4 5 6 
#
# 1 80.1978 53.1148 34.8050 -0.0117 2.8353 0.0106
# 2 53.1148 103.0503 16.6660 -0.0183 25.6375 0.0179
# 3 34.8050 16.6660 117.6258 -0.0297 1.1048 0.0203
# 4 -0.0117 -0.0183 -0.0297 27.6358 0.0171 10.7963
# 5 2.8353 25.6375 1.1048 0.0171 44.8171 -0.0119
# 6 0.0106 0.0179 0.0203 10.7963 -0.0119 35.6709
#
#
#
# Elastic Compliance Matrix: (Units=1/GPa)
#
#
# Indices 1 2 3 4 5 6 
#
# 1 0.022524 -0.012218 -0.004987 -0.000010 0.005687 0.000007
# 2 -0.012218 0.018229 0.001123 0.000020 -0.009682 -0.000015
# 3 -0.004987 0.001123 0.009823 0.000013 -0.000569 -0.000009
# 4 -0.000010 0.000020 0.000013 0.041037 -0.000030 -0.012420
# 5 0.005687 -0.009682 -0.000569 -0.000030 0.027506 0.000022
# 6 0.000007 -0.000015 -0.000009 -0.012420 0.000022 0.031793
#
#
# Mechanical properties :
#
#
# Convention : Reuss Voigt Hill
#
# Bulk Modulus (GPa) = 54.30951 56.67170 55.49061
# Shear Modulus (GPa) = 26.42509 34.71065 30.56787
#
# Velocity S-wave (km/s) = 3.30801 3.79131 3.55787
# Velocity P-wave (km/s) = 6.08939 6.52945 6.31326
#
# Compressibility (1/GPa) = 0.01841298
#
# Stress axis : x y z
#
# Youngs Moduli (GPa) = 44.39613 54.85872 101.79770
#
# Poissons Ratio (x) = 0.67027 0.50769
# Poissons Ratio (y) = 0.54243 -0.11437
# Poissons Ratio (z) = 0.22141 -0.06163
#
# Static dielectric constant tensor:
#      x y z
#    x 1.943170 -0.000010 -0.069820 
#    y -0.000010 2.005710 0.000010 
#    z -0.069820 0.000010 1.921470 
# 
# From -- ./inp_files/147352.got.cif
#   From: 2010.05.17/outbox.cif.g08.bks.cpg/sg15_74_cif.got.tgz:147352.got - 2010.06.03 18:47:42.
