data_PCOD9265341
_publ_section_title
;
Structure prediction by ZEFSAII (Michael W. Deem and Ramdas Pophale) SiO2 
 PCOD9265341
Probable space group: C 2/C
;
_chemical_formula_sum "Si O2"
_cell_formula_units_Z 40
_cell_length_a 19.484543
_cell_length_b 9.197844
_cell_length_c 13.342414
_cell_angle_alpha 90.000000
_cell_angle_beta 137.867548
_cell_angle_gamma 90.000000
_cell_volume 1604.109474
_symmetry_space_group_name_H-M "C 2/C"
_symmetry_group_IT_number 15
_symmetry_cell_setting 'monoclinic'
loop_
_space_group_symop_operation_xyz
x,y,z
-x,y,1/2-z
-x,-y,-z
x,-y,1/2+z
1/2+x,1/2+y,z
1/2-x,1/2+y,1/2-z
1/2-x,1/2-y,-z
1/2+x,1/2-y,1/2+z
loop_
_atom_site_type_symbol
_atom_site_label
_atom_site_fract_x
_atom_site_fract_y
_atom_site_fract_z
Si Si1 0.294257 0.298698 0.668176
Si Si2 0.202254 0.990612 0.138876
Si Si3 0.991154 0.215225 0.041616
Si Si4 0.101172 0.555418 0.927482
Si Si5 0.911579 0.225597 0.573541
O O1 0.281141 0.135208 0.696159
O O2 0.272731 0.412073 0.737796
O O3 0.414707 0.321849 0.781435
O O4 0.196867 0.345661 0.494946
O O5 0.097556 0.902838 0.045944
O O6 0.176183 0.103876 0.022298
O O7 0.941118 0.367973 0.017957
O O8 0.035712 0.219486 0.978713
O O9 0.131730 0.387648 0.963533
O O10 0.000000 0.559655 0.750000
O O11 0.000000 0.199958 0.750000
#
# Coordination Sequence:
#
# PCOD9265341 Si02
#       5
#     8   8   8   8   8
#     4  10  19  36  60  85 117 150 192 235 288 342
#     4  10  21  36  60  87 114 153 191 236 286 341
#     4  10  21  39  62  85 114 155 191 235 290 341
#     4  10  22  38  59  87 118 152 193 239 284 340
#     4  10  20  37  59  84 116 152 191 236 285 337
#
# _framework density 24.935953999999999
#
# number of rings (size 3 to 8) (size 9 to 14) (size 15 to 20)
#    0.000    2.000    0.000    5.400    0.000    5.600 
#    0.000    4.000    0.000   40.800    0.000    0.000 
#    0.000    0.000    0.000    0.000    0.000    0.000 
#
# Total GULP energy -111883.622895 kJ/mol
# GULP energy per Si atom -5594.181145 kJ/mol
# Density = 2.487920 g / cm^3
# Si number density = 24.935954 Si / 1000 Ang^3
#
#
#
# Elastic Constant Matrix: (Units=GPa)
#
#
# Indices 1 2 3 4 5 6 
#
# 1 54.9334 9.3012 2.5060 0.0000 12.2614 0.0000
# 2 9.3012 145.0467 8.4248 0.0000 6.8237 0.0000
# 3 2.5060 8.4248 90.8567 0.0000 24.5331 0.0000
# 4 0.0000 0.0000 0.0000 49.4175 0.0000 9.7085
# 5 12.2614 6.8237 24.5331 0.0000 25.3432 0.0000
# 6 0.0000 0.0000 0.0000 9.7085 0.0000 15.2361
#
#
#
# Elastic Compliance Matrix: (Units=1/GPa)
#
#
# Indices 1 2 3 4 5 6 
#
# 1 0.021088 -0.000921 0.002967 0.000000 -0.012827 0.000000
# 2 -0.000921 0.007025 -0.000319 0.000000 -0.001137 0.000000
# 3 0.002967 -0.000319 0.015324 0.000000 -0.016184 0.000000
# 4 0.000000 0.000000 0.000000 0.023131 0.000000 -0.014739
# 5 -0.012827 -0.001137 -0.016184 0.000000 0.061637 0.000000
# 6 0.000000 0.000000 0.000000 -0.014739 0.000000 0.075026
#
#
# Mechanical properties :
#
#
# Convention : Reuss Voigt Hill
#
# Bulk Modulus (GPa) = 21.32588 36.81119 29.06853
# Shear Modulus (GPa) = 23.21180 36.03966 29.62573
#
# Velocity S-wave (km/s) = 3.05430 3.80582 3.45058
# Velocity P-wave (km/s) = 4.58358 5.84009 5.24957
#
# Compressibility (1/GPa) = 0.04689138
#
# Stress axis : x y z
#
# Youngs Moduli (GPa) = 47.42145 142.34016 65.25669
#
# Poissons Ratio (x) = 0.13112 -0.19364
# Poissons Ratio (y) = 0.04368 0.02082
# Poissons Ratio (z) = -0.14071 0.04540
#
# Static dielectric constant tensor:
#      x y z
#    x 2.036520 0.000000 -0.067400 
#    y 0.000000 2.002640 0.000000 
#    z -0.067400 0.000000 2.137370 
# 
# From -- ./inp_files/172144.got.cif
#   From: 2010.05.17/outbox.cif.g08.bks.cpg/sg15_87_cif.got.tgz:172144.got - 2010.06.03 18:47:42.
