data_PCOD9265427
_publ_section_title
;
Structure prediction by ZEFSAII (Michael W. Deem and Ramdas Pophale) SiO2 
 PCOD9265427
Probable space group: C 2/C
;
_chemical_formula_sum "Si O2"
_cell_formula_units_Z 44
_cell_length_a 5.643802
_cell_length_b 19.230094
_cell_length_c 18.459833
_cell_angle_alpha 90.000000
_cell_angle_beta 79.068906
_cell_angle_gamma 90.000000
_cell_volume 1967.110331
_symmetry_space_group_name_H-M "C 2/C"
_symmetry_group_IT_number 15
_symmetry_cell_setting 'monoclinic'
loop_
_space_group_symop_operation_xyz
x,y,z
-x,y,1/2-z
-x,-y,-z
x,-y,1/2+z
1/2+x,1/2+y,z
1/2-x,1/2+y,1/2-z
1/2-x,1/2-y,-z
1/2+x,1/2-y,1/2+z
loop_
_atom_site_type_symbol
_atom_site_label
_atom_site_fract_x
_atom_site_fract_y
_atom_site_fract_z
Si Si1 0.550534 0.101294 0.558698
Si Si2 0.728546 0.928135 0.780844
Si Si3 0.621371 0.363561 0.589447
Si Si4 0.424584 0.775237 0.169990
Si Si5 0.000000 0.707967 0.250000
Si Si6 0.728520 0.539238 0.452030
O O1 0.759838 0.135733 0.496657
O O2 0.468150 0.154743 0.623459
O O3 0.352985 0.079488 0.510655
O O4 0.628101 0.026910 0.586643
O O5 0.500000 0.959721 0.750000
O O6 0.132624 0.904431 0.901177
O O7 0.717310 0.913635 0.867928
O O8 0.000000 0.955417 0.750000
O O9 0.572927 0.287223 0.622960
O O10 0.791003 0.346860 0.742041
O O11 0.500000 0.783347 0.250000
O O12 0.139131 0.755538 0.184890
O O13 0.500000 0.500000 0.500000
#
# Coordination Sequence:
#
# PCOD9265427 Si02
#       6
#     8   8   8   8   4   8
#     4  10  24  41  69  96 135 184 231 292 353 428
#     4  10  19  36  60  97 147 175 213 279 362 409
#     4  11  20  39  71 102 129 175 232 298 351 420
#     4  12  23  41  67 101 141 174 227 297 365 418
#     4  10  20  36  58  92 146 176 212 276 364 414
#     4   9  22  44  65  91 136 178 236 280 347 420
#
# _framework density 22.367833999999998
#
# number of rings (size 3 to 8) (size 9 to 14) (size 15 to 20)
#    0.545    1.091    3.636    0.545    5.091    3.636 
#    0.000    0.000   26.000    0.000    0.000    0.000 
#    0.000    0.000    0.000    0.000    0.000    0.000 
#
# Total GULP energy -122608.687943 kJ/mol
# GULP energy per Si atom -5573.122179 kJ/mol
# Density = 2.231692 g / cm^3
# Si number density = 22.367834 Si / 1000 Ang^3
#
#
#
# Elastic Constant Matrix: (Units=GPa)
#
#
# Indices 1 2 3 4 5 6 
#
# 1 98.6248 36.6170 17.4405 0.0000 4.0831 0.0000
# 2 36.6170 139.8584 62.3540 0.0000 5.6609 0.0000
# 3 17.4405 62.3540 102.8872 0.0000 -5.0510 0.0000
# 4 0.0000 0.0000 0.0000 31.5614 0.0000 -3.7462
# 5 4.0831 5.6609 -5.0510 0.0000 30.0308 0.0000
# 6 0.0000 0.0000 0.0000 -3.7462 0.0000 15.4302
#
#
#
# Elastic Compliance Matrix: (Units=1/GPa)
#
#
# Indices 1 2 3 4 5 6 
#
# 1 0.011265 -0.002785 -0.000274 0.000000 -0.001053 0.000000
# 2 -0.002785 0.010737 -0.006167 0.000000 -0.002683 0.000000
# 3 -0.000274 -0.006167 0.013675 0.000000 0.003500 0.000000
# 4 0.000000 0.000000 0.000000 0.032624 0.000000 0.007921
# 5 -0.001053 -0.002683 0.003500 0.000000 0.034537 0.000000
# 6 0.000000 0.000000 0.000000 0.007921 0.000000 0.066731
#
#
# Mechanical properties :
#
#
# Convention : Reuss Voigt Hill
#
# Bulk Modulus (GPa) = 58.04838 63.79926 60.92382
# Shear Modulus (GPa) = 25.80481 30.40173 28.10327
#
# Velocity S-wave (km/s) = 3.40024 3.69069 3.54844
# Velocity P-wave (km/s) = 6.43611 6.83713 6.63965
#
# Compressibility (1/GPa) = 0.01722701
#
# Stress axis : x y z
#
# Youngs Moduli (GPa) = 88.76777 93.13417 73.12655
#
# Poissons Ratio (x) = 0.25937 0.02000
# Poissons Ratio (y) = 0.24721 0.45096
# Poissons Ratio (z) = 0.02428 0.57434
#
# Static dielectric constant tensor:
#      x y z
#    x 1.967930 0.000000 -0.026530 
#    y 0.000000 1.768110 0.000000 
#    z -0.026530 0.000000 1.872300 
# 
# From -- ./inp_files/184836.got.cif
#   From: 2010.05.17/outbox.cif.g08.bks.cpg/sg15_93_cif.got.tgz:184836.got - 2010.06.03 18:47:42.
