data_PCOD9265142
_publ_section_title
;
Structure prediction by ZEFSAII (Michael W. Deem and Ramdas Pophale) SiO2 
 PCOD9265142
Probable space group: C 2/C
;
_chemical_formula_sum "Si O2"
_cell_formula_units_Z 56
_cell_length_a 15.027573
_cell_length_b 15.003760
_cell_length_c 12.629401
_cell_angle_alpha 90.000000
_cell_angle_beta 126.227571
_cell_angle_gamma 90.000000
_cell_volume 2297.052138
_symmetry_space_group_name_H-M "C 2/C"
_symmetry_group_IT_number 15
_symmetry_cell_setting 'monoclinic'
loop_
_space_group_symop_operation_xyz
x,y,z
-x,y,1/2-z
-x,-y,-z
x,-y,1/2+z
1/2+x,1/2+y,z
1/2-x,1/2+y,1/2-z
1/2-x,1/2-y,-z
1/2+x,1/2-y,1/2+z
loop_
_atom_site_type_symbol
_atom_site_label
_atom_site_fract_x
_atom_site_fract_y
_atom_site_fract_z
Si Si1 0.104857 0.177327 0.890634
Si Si2 0.273655 0.203092 0.722716
Si Si3 0.732629 0.956418 0.578285
Si Si4 0.090688 0.318522 0.385569
Si Si5 0.339879 0.145922 0.970757
Si Si6 0.149562 0.101531 0.147728
Si Si7 0.592251 0.626100 0.466057
O O1 0.213329 0.181396 0.893785
O O2 0.000000 0.147493 0.750000
O O3 0.087357 0.278439 0.922515
O O4 0.137794 0.114578 0.013142
O O5 0.314043 0.203815 0.630984
O O6 0.355347 0.147580 0.855857
O O7 0.294860 0.303468 0.778831
O O8 0.157559 0.152864 0.620028
O O9 0.641825 0.879023 0.510729
O O10 0.778856 0.965447 0.729975
O O11 0.830942 0.925093 0.566363
O O12 0.670373 0.045645 0.497102
O O13 0.052478 0.222970 0.397199
O O14 0.000000 0.365497 0.250000
O O15 0.024606 0.081238 0.095645
#
# Coordination Sequence:
#
# PCOD9265142 Si02
#       7
#     8   8   8   8   8   8   8
#     4  10  23  45  66  85 118 178 221 245 294 373
#     4  10  19  36  58  84 117 160 205 250 305 367
#     4  11  22  37  58  96 130 154 198 260 323 362
#     4  11  19  35  61  92 124 157 200 251 318 374
#     4  10  24  42  60  87 127 164 211 253 301 368
#     4  11  20  35  65  92 118 160 211 260 304 367
#     4  11  19  35  62  94 123 157 198 258 318 374
#
# _framework density 24.379072000000001
#
# number of rings (size 3 to 8) (size 9 to 14) (size 15 to 20)
#    0.000    1.429    4.286    2.143    0.000    4.000 
#    0.000    2.857    0.000    0.000    0.000    0.000 
#    0.000    0.000    0.000    0.000    0.000    0.000 
#
# Total GULP energy -156149.004326 kJ/mol
# GULP energy per Si atom -5576.750155 kJ/mol
# Density = 2.432358 g / cm^3
# Si number density = 24.379072 Si / 1000 Ang^3
#
#
#
# Elastic Constant Matrix: (Units=GPa)
#
#
# Indices 1 2 3 4 5 6 
#
# 1 21.5435 4.1268 11.0669 0.0000 -10.0686 0.0000
# 2 4.1268 88.9067 19.5220 0.0000 -5.5285 0.0000
# 3 11.0669 19.5220 152.5172 0.0000 -7.0769 0.0000
# 4 0.0000 0.0000 0.0000 17.0647 0.0000 -7.2796
# 5 -10.0686 -5.5285 -7.0769 0.0000 22.9557 0.0000
# 6 0.0000 0.0000 0.0000 -7.2796 0.0000 6.4062
#
#
#
# Elastic Compliance Matrix: (Units=1/GPa)
#
#
# Indices 1 2 3 4 5 6 
#
# 1 0.059885 -0.000531 -0.003109 0.000000 0.025180 0.000000
# 2 -0.000531 0.011706 -0.001359 0.000000 0.002167 0.000000
# 3 -0.003109 -0.001359 0.006978 0.000000 0.000460 0.000000
# 4 0.000000 0.000000 0.000000 0.113733 0.000000 0.129239
# 5 0.025180 0.002167 0.000460 0.000000 0.055270 0.000000
# 6 0.000000 0.000000 0.000000 0.129239 0.000000 0.302958
#
#
# Mechanical properties :
#
#
# Convention : Reuss Voigt Hill
#
# Bulk Modulus (GPa) = 14.58387 36.93320 25.75854
# Shear Modulus (GPa) = 8.57068 24.50207 16.53638
#
# Velocity S-wave (km/s) = 1.87702 3.17368 2.60725
# Velocity P-wave (km/s) = 3.26998 5.34903 4.43311
#
# Compressibility (1/GPa) = 0.06856889
#
# Stress axis : x y z
#
# Youngs Moduli (GPa) = 16.69879 85.42908 143.31658
#
# Poissons Ratio (x) = 0.04538 0.44557
# Poissons Ratio (y) = 0.00887 0.19480
# Poissons Ratio (z) = 0.05192 0.11612
#
# Static dielectric constant tensor:
#      x y z
#    x 2.027500 0.000000 -0.034240 
#    y 0.000000 1.973150 0.000000 
#    z -0.034240 0.000000 1.974430 
# 
# From -- ./inp_files/162326.got.cif
#   From: 2010.05.17/outbox.cif.g08.bks.cpg/sg15_82_cif.got.tgz:162326.got - 2010.06.03 18:47:42.
