data_PCOD9265953
_publ_section_title
;
Structure prediction by ZEFSAII (Michael W. Deem and Ramdas Pophale) SiO2 
 PCOD9265953
Probable space group: C 2/C
;
_chemical_formula_sum "Si O2"
_cell_formula_units_Z 56
_cell_length_a 10.945147
_cell_length_b 34.820828
_cell_length_c 7.998453
_cell_angle_alpha 90.000000
_cell_angle_beta 100.987954
_cell_angle_gamma 90.000000
_cell_volume 2992.478265
_symmetry_space_group_name_H-M "C 2/C"
_symmetry_group_IT_number 15
_symmetry_cell_setting 'monoclinic'
loop_
_space_group_symop_operation_xyz
x,y,z
-x,y,1/2-z
-x,-y,-z
x,-y,1/2+z
1/2+x,1/2+y,z
1/2-x,1/2+y,1/2-z
1/2-x,1/2-y,-z
1/2+x,1/2-y,1/2+z
loop_
_atom_site_type_symbol
_atom_site_label
_atom_site_fract_x
_atom_site_fract_y
_atom_site_fract_z
Si Si1 0.725509 0.704546 0.520331
Si Si2 0.500000 0.286322 0.750000
Si Si3 0.740257 0.968802 0.762106
Si Si4 0.046214 0.578143 0.067863
Si Si5 0.411065 0.525774 0.593178
Si Si6 0.677922 0.774776 0.118773
Si Si7 0.974097 0.665525 0.441129
Si Si8 0.000000 0.477690 0.250000
O O1 0.750000 0.750000 0.500000
O O2 0.595220 0.692680 0.401094
O O3 0.733140 0.704210 0.723150
O O4 0.841718 0.682995 0.464592
O O5 0.410108 0.257866 0.826149
O O6 0.688662 0.934961 0.632036
O O7 0.827738 0.996424 0.677806
O O8 0.622933 0.995576 0.785599
O O9 0.816271 0.953506 0.942174
O O10 0.023920 0.621246 0.002029
O O11 0.000000 0.576383 0.250000
O O12 0.994252 0.548400 0.916183
O O13 0.500000 0.547173 0.750000
O O14 0.500000 0.500000 0.500000
O O15 0.750000 0.750000 0.000000
O O16 0.583411 0.807806 0.038103
O O17 0.000000 0.665644 0.250000
#
# Coordination Sequence:
#
# PCOD9265953 Si02
#       8
#     8   4   8   8   8   8   8   4
#     4  10  19  37  58  85 115 153 196 247 291 354
#     4  10  20  35  58  86 118 148 202 244 292 340
#     4  11  18  37  57  88 122 149 212 258 316 372
#     4  11  24  36  57  94 126 163 195 261 329 374
#     4   9  19  32  56  84 113 154 201 265 300 358
#     4  11  21  34  61  91 122 155 195 249 295 366
#     4  11  22  38  58  89 127 158 203 250 311 371
#     4  12  22  35  66  90 122 160 198 268 326 378
#
# _framework density 18.713587
#
# number of rings (size 3 to 8) (size 9 to 14) (size 15 to 20)
#    0.000    1.429    5.000    3.000    2.000    0.000 
#    0.000    0.000    4.714    0.000    0.000    0.000 
#    0.000    0.000    0.000    0.000    0.000    0.000 
#
# Total GULP energy -155873.947073 kJ/mol
# GULP energy per Si atom -5566.926681 kJ/mol
# Density = 1.867099 g / cm^3
# Si number density = 18.713587 Si / 1000 Ang^3
#
#
#
# Elastic Constant Matrix: (Units=GPa)
#
#
# Indices 1 2 3 4 5 6 
#
# 1 110.1619 31.0994 51.9675 0.0000 1.7061 0.0000
# 2 31.0994 74.5772 26.7490 0.0000 5.8526 0.0000
# 3 51.9675 26.7490 126.4014 0.0000 30.4276 0.0000
# 4 0.0000 0.0000 0.0000 17.5562 0.0000 -1.5726
# 5 1.7061 5.8526 30.4276 0.0000 48.4980 0.0000
# 6 0.0000 0.0000 0.0000 -1.5726 0.0000 8.6138
#
#
#
# Elastic Compliance Matrix: (Units=1/GPa)
#
#
# Indices 1 2 3 4 5 6 
#
# 1 0.012471 -0.003610 -0.005138 0.000000 0.003221 0.000000
# 2 -0.003610 0.015557 -0.001633 0.000000 -0.000726 0.000000
# 3 -0.005138 -0.001633 0.012107 0.000000 -0.007218 0.000000
# 4 0.000000 0.000000 0.000000 0.057907 0.000000 0.010572
# 5 0.003221 -0.000726 -0.007218 0.000000 0.025122 0.000000
# 6 0.000000 0.000000 0.000000 0.010572 0.000000 0.118023
#
#
# Mechanical properties :
#
#
# Convention : Reuss Voigt Hill
#
# Bulk Modulus (GPa) = 51.62291 58.97472 55.29881
# Shear Modulus (GPa) = 18.62836 28.35523 23.49180
#
# Velocity S-wave (km/s) = 3.15849 3.89681 3.54691
# Velocity P-wave (km/s) = 6.39899 7.19928 6.81090
#
# Compressibility (1/GPa) = 0.01937124
#
# Stress axis : x y z
#
# Youngs Moduli (GPa) = 80.18691 64.27902 82.59629
#
# Poissons Ratio (x) = 0.23206 0.42442
# Poissons Ratio (y) = 0.28949 0.13490
# Poissons Ratio (z) = 0.41204 0.10498
#
# Static dielectric constant tensor:
#      x y z
#    x 1.668210 0.000000 -0.013320 
#    y 0.000000 1.637960 0.000000 
#    z -0.013320 0.000000 1.930440 
# 
# From -- ./inp_files/35333.got.cif
#   From: 2010.05.17/outbox.cif.g08.bks.cpg/sg15_18_cif.got.tgz:35333.got - 2010.06.03 18:47:42.
