data_PCOD9265980
_publ_section_title
;
Structure prediction by ZEFSAII (Michael W. Deem and Ramdas Pophale) SiO2 
 PCOD9265980
Probable space group: C 2/C
;
_chemical_formula_sum "Si O2"
_cell_formula_units_Z 60
_cell_length_a 28.129750
_cell_length_b 8.987352
_cell_length_c 23.177877
_cell_angle_alpha 90.000000
_cell_angle_beta 147.181620
_cell_angle_gamma 90.000000
_cell_volume 3175.797474
_symmetry_space_group_name_H-M "C 2/C"
_symmetry_group_IT_number 15
_symmetry_cell_setting 'monoclinic'
loop_
_space_group_symop_operation_xyz
x,y,z
-x,y,1/2-z
-x,-y,-z
x,-y,1/2+z
1/2+x,1/2+y,z
1/2-x,1/2+y,1/2-z
1/2-x,1/2-y,-z
1/2+x,1/2-y,1/2+z
loop_
_atom_site_type_symbol
_atom_site_label
_atom_site_fract_x
_atom_site_fract_y
_atom_site_fract_z
Si Si1 0.063382 0.461911 0.116504
Si Si2 0.000000 0.275971 0.250000
Si Si3 0.823240 0.117635 0.080410
Si Si4 0.741505 0.149603 0.304153
Si Si5 0.827037 0.110882 0.950844
Si Si6 0.576520 0.903839 0.439204
Si Si7 0.183270 0.204216 0.242955
Si Si8 0.735933 0.556133 0.868460
O O1 0.150304 0.561365 0.204720
O O2 0.093808 0.291159 0.143954
O O3 0.005407 0.478026 0.113965
O O4 0.000000 0.500000 0.000000
O O5 0.920269 0.179627 0.195848
O O6 0.949129 0.376043 0.152494
O O7 0.794042 0.996899 0.098330
O O8 0.750000 0.250000 0.000000
O O9 0.831940 0.064128 0.022838
O O10 0.766498 0.212122 0.266794
O O11 0.732064 0.274682 0.343640
O O12 0.816527 0.032165 0.399991
O O13 0.738026 0.204246 0.847209
O O14 0.900692 0.236421 0.014629
O O15 0.663754 1.000000 0.535741
O O16 0.180609 0.039262 0.265242
#
# Coordination Sequence:
#
# PCOD9265980 Si02
#       8
#     8   4   8   8   8   8   8   8
#     4  11  22  37  58  86 119 153 205 258 294 359
#     4  10  20  34  62  94 108 152 212 256 280 354
#     4  11  19  38  62  89 118 157 210 255 295 366
#     4  11  23  37  59  87 123 157 195 253 318 365
#     4   9  20  37  58  83 114 152 195 246 295 358
#     4  10  20  36  61  86 112 152 207 249 291 367
#     4  10  19  37  59  79 113 162 202 234 294 376
#     4  11  21  38  62  89 118 163 201 246 317 369
#
# _framework density 18.892893000000001
#
# number of rings (size 3 to 8) (size 9 to 14) (size 15 to 20)
#    0.000    1.600    4.000    4.800    1.867    0.533 
#    0.000    9.333    0.000    0.800    0.000    0.000 
#    0.000    0.000    0.000    0.000    0.000    0.000 
#
# Total GULP energy -167211.175668 kJ/mol
# GULP energy per Si atom -5573.705856 kJ/mol
# Density = 1.884989 g / cm^3
# Si number density = 18.892893 Si / 1000 Ang^3
#
#
#
# Elastic Constant Matrix: (Units=GPa)
#
#
# Indices 1 2 3 4 5 6 
#
# 1 63.2221 -10.8104 8.3888 0.0000 4.0288 0.0000
# 2 -10.8104 45.7749 24.6381 0.0000 -6.8182 0.0000
# 3 8.3888 24.6381 84.4508 0.0000 1.8280 0.0000
# 4 0.0000 0.0000 0.0000 23.9309 0.0000 -4.3641
# 5 4.0288 -6.8182 1.8280 0.0000 33.1296 0.0000
# 6 0.0000 0.0000 0.0000 -4.3641 0.0000 19.5019
#
#
#
# Elastic Compliance Matrix: (Units=1/GPa)
#
#
# Indices 1 2 3 4 5 6 
#
# 1 0.017307 0.005809 -0.003398 0.000000 -0.000722 0.000000
# 2 0.005809 0.029011 -0.009166 0.000000 0.005770 0.000000
# 3 -0.003398 -0.009166 0.014903 0.000000 -0.002295 0.000000
# 4 0.000000 0.000000 0.000000 0.043565 0.000000 0.009749
# 5 -0.000722 0.005770 -0.002295 0.000000 0.031586 0.000000
# 6 0.000000 0.000000 0.000000 0.009749 0.000000 0.053459
#
#
# Mechanical properties :
#
#
# Convention : Reuss Voigt Hill
#
# Bulk Modulus (GPa) = 20.95963 26.43120 23.69541
# Shear Modulus (GPa) = 22.80563 26.72789 24.76676
#
# Velocity S-wave (km/s) = 3.47811 3.76534 3.62457
# Velocity P-wave (km/s) = 5.21993 5.73795 5.48506
#
# Compressibility (1/GPa) = 0.04771077
#
# Stress axis : x y z
#
# Youngs Moduli (GPa) = 57.77860 34.47001 67.10274
#
# Poissons Ratio (x) = -0.20024 0.22804
# Poissons Ratio (y) = -0.33564 0.61504
# Poissons Ratio (z) = 0.19635 0.31594
#
# Static dielectric constant tensor:
#      x y z
#    x 1.551330 0.000000 -0.061210 
#    y 0.000000 1.680820 0.000000 
#    z -0.061210 0.000000 1.639140 
# 
# From -- ./inp_files/283424.got.cif
#   From: 2010.05.17/outbox.cif.g08.bks.cpg/sg15_142_cif.got.tgz:283424.got - 2010.06.03 18:47:42.
