data_PCOD9265668
_publ_section_title
;
Structure prediction by ZEFSAII (Michael W. Deem and Ramdas Pophale) SiO2 
 PCOD9265668
Probable space group: C 2/C
;
_chemical_formula_sum "Si O2"
_cell_formula_units_Z 52
_cell_length_a 8.870838
_cell_length_b 20.264820
_cell_length_c 18.832376
_cell_angle_alpha 90.000000
_cell_angle_beta 130.520831
_cell_angle_gamma 90.000000
_cell_volume 2573.493791
_symmetry_space_group_name_H-M "C 2/C"
_symmetry_group_IT_number 15
_symmetry_cell_setting 'monoclinic'
loop_
_space_group_symop_operation_xyz
x,y,z
-x,y,1/2-z
-x,-y,-z
x,-y,1/2+z
1/2+x,1/2+y,z
1/2-x,1/2+y,1/2-z
1/2-x,1/2-y,-z
1/2+x,1/2-y,1/2+z
loop_
_atom_site_type_symbol
_atom_site_label
_atom_site_fract_x
_atom_site_fract_y
_atom_site_fract_z
Si Si1 0.823907 0.533621 0.246588
Si Si2 0.988558 0.048587 0.928730
Si Si3 0.767596 0.312223 0.697111
Si Si4 0.553608 0.943134 0.962880
Si Si5 0.000000 0.184991 0.250000
Si Si6 0.406846 0.317547 0.480936
Si Si7 0.320826 0.829707 0.945927
O O1 0.640361 0.486079 0.172394
O O2 0.774144 0.608604 0.208901
O O3 0.000000 0.508410 0.250000
O O4 0.923323 0.541505 0.353528
O O5 0.215580 0.056010 0.979164
O O6 0.913908 0.120693 0.930771
O O7 0.000000 0.000000 0.000000
O O8 0.648941 0.285198 0.732254
O O9 0.617487 0.303023 0.584880
O O10 0.000000 0.292355 0.750000
O O11 0.505841 0.872448 0.982184
O O12 0.500000 0.000000 0.000000
O O13 0.144880 0.142803 0.343198
O O14 0.340116 0.246871 0.430881
O O15 0.249497 0.333997 0.495059
#
# Coordination Sequence:
#
# PCOD9265668 Si02
#       7
#     8   8   8   8   4   8   8
#     4  11  22  39  65  94 129 175 221 265 328 397
#     4  12  22  40  65  98 131 171 218 268 334 390
#     4  10  19  36  63  92 120 166 224 263 317 399
#     4  12  26  41  68  99 132 172 222 276 327 394
#     4  10  20  36  64  88 116 174 220 262 318 400
#     4  10  22  42  65  91 131 173 211 276 327 396
#     4  10  23  42  63  93 128 171 221 266 331 390
#
# _framework density 20.205995000000001
#
# number of rings (size 3 to 8) (size 9 to 14) (size 15 to 20)
#    0.000    1.231    4.615    1.846    2.154    1.231 
#    1.385    1.538    0.000    0.000    0.000    0.000 
#    0.000    0.000    0.000    0.000    0.000    0.000 
#
# Total GULP energy -144862.533847 kJ/mol
# GULP energy per Si atom -5571.635917 kJ/mol
# Density = 2.016000 g / cm^3
# Si number density = 20.205995 Si / 1000 Ang^3
#
#
#
# Elastic Constant Matrix: (Units=GPa)
#
#
# Indices 1 2 3 4 5 6 
#
# 1 138.9068 58.9809 31.6583 0.0000 20.5534 0.0000
# 2 58.9809 91.5903 27.7375 0.0000 0.5755 0.0000
# 3 31.6583 27.7375 82.9404 0.0000 12.2783 0.0000
# 4 0.0000 0.0000 0.0000 12.0634 0.0000 3.9961
# 5 20.5534 0.5755 12.2783 0.0000 27.7152 0.0000
# 6 0.0000 0.0000 0.0000 3.9961 0.0000 19.1608
#
#
#
# Elastic Compliance Matrix: (Units=1/GPa)
#
#
# Indices 1 2 3 4 5 6 
#
# 1 0.011646 -0.007195 -0.000838 0.000000 -0.008116 0.000000
# 2 -0.007195 0.016665 -0.003816 0.000000 0.006680 0.000000
# 3 -0.000838 -0.003816 0.014500 0.000000 -0.005723 0.000000
# 4 0.000000 0.000000 0.000000 0.089048 0.000000 -0.018572
# 5 -0.008116 0.006680 -0.005723 0.000000 0.044497 0.000000
# 6 0.000000 0.000000 0.000000 -0.018572 0.000000 0.056063
#
#
# Mechanical properties :
#
#
# Convention : Reuss Voigt Hill
#
# Bulk Modulus (GPa) = 52.31707 61.13233 56.72470
# Shear Modulus (GPa) = 19.04861 24.79194 21.92028
#
# Velocity S-wave (km/s) = 3.07371 3.50660 3.29726
# Velocity P-wave (km/s) = 6.20846 6.83485 6.52917
#
# Compressibility (1/GPa) = 0.01911422
#
# Stress axis : x y z
#
# Youngs Moduli (GPa) = 85.86753 60.00579 68.96574
#
# Poissons Ratio (x) = 0.43173 0.05776
# Poissons Ratio (y) = 0.61780 0.26317
# Poissons Ratio (z) = 0.07192 0.22898
#
# Static dielectric constant tensor:
#      x y z
#    x 1.783050 0.000000 0.168380 
#    y 0.000000 1.694650 0.000000 
#    z 0.168380 0.000000 4.460400 
# 
# From -- ./inp_files/192603.got.cif
#   From: 2010.05.17/outbox.cif.g08.bks.cpg/sg15_97_cif.got.tgz:192603.got - 2010.06.03 18:47:42.
