data_PCOD9265880
_publ_section_title
;
Structure prediction by ZEFSAII (Michael W. Deem and Ramdas Pophale) SiO2 
 PCOD9265880
Probable space group: C 2/C
;
_chemical_formula_sum "Si O2"
_cell_formula_units_Z 64
_cell_length_a 13.752646
_cell_length_b 10.846512
_cell_length_c 28.066065
_cell_angle_alpha 90.000000
_cell_angle_beta 138.878013
_cell_angle_gamma 90.000000
_cell_volume 2753.354989
_symmetry_space_group_name_H-M "C 2/C"
_symmetry_group_IT_number 15
_symmetry_cell_setting 'monoclinic'
loop_
_space_group_symop_operation_xyz
x,y,z
-x,y,1/2-z
-x,-y,-z
x,-y,1/2+z
1/2+x,1/2+y,z
1/2-x,1/2+y,1/2-z
1/2-x,1/2-y,-z
1/2+x,1/2-y,1/2+z
loop_
_atom_site_type_symbol
_atom_site_label
_atom_site_fract_x
_atom_site_fract_y
_atom_site_fract_z
Si Si1 0.672800 0.675861 0.606394
Si Si2 0.858310 0.438180 0.087608
Si Si3 0.119931 0.537949 0.751920
Si Si4 0.563761 0.345711 0.339039
Si Si5 0.114255 0.921881 0.463982
Si Si6 0.116233 0.122287 0.333597
Si Si7 0.457791 0.295095 0.587861
Si Si8 0.790715 0.734353 0.192859
O O1 0.754503 0.603135 0.593719
O O2 0.747134 0.627153 0.683047
O O3 0.500370 0.645343 0.543490
O O4 0.726626 0.815231 0.619029
O O5 0.023961 0.446766 0.169047
O O6 0.860185 0.330534 0.048269
O O7 0.784853 0.563054 0.041500
O O8 0.181837 0.400864 0.776337
O O9 0.000000 0.550110 0.750000
O O10 0.594515 0.355928 0.405982
O O11 0.619743 0.476318 0.339299
O O12 0.391872 0.326237 0.261602
O O13 0.646562 0.243662 0.337775
O O14 0.067881 0.067995 0.443193
O O15 0.053864 0.176183 0.359967
O O16 0.000000 0.157755 0.250000
O O17 0.617356 0.249858 0.630042
#
# Coordination Sequence:
#
# PCOD9265880 Si02
#       8
#     8   8   8   8   8   8   8   8
#     4  10  20  36  64  94 123 159 211 256 313 365
#     4  10  22  38  61  97 132 161 205 263 318 373
#     4  10  19  37  63  89 120 159 207 262 305 362
#     4  10  23  38  61  87 129 162 209 257 321 368
#     4  11  22  40  62  97 128 166 207 257 318 387
#     4  10  19  37  56  92 128 150 199 275 307 357
#     4  10  22  36  66  90 125 166 209 250 314 384
#     4  11  20  40  62  90 118 168 216 258 306 376
#
# _framework density 23.244368999999999
#
# number of rings (size 3 to 8) (size 9 to 14) (size 15 to 20)
#    0.000    1.750    3.750    2.625    3.500    0.000 
#    0.000    1.250    0.000    0.000    0.000    0.000 
#    0.000    0.000    0.000    0.000    0.000    0.000 
#
# Total GULP energy -178743.436033 kJ/mol
# GULP energy per Si atom -5585.732376 kJ/mol
# Density = 2.319146 g / cm^3
# Si number density = 23.244369 Si / 1000 Ang^3
#
#
#
# Elastic Constant Matrix: (Units=GPa)
#
#
# Indices 1 2 3 4 5 6 
#
# 1 58.9222 10.6167 11.4770 0.0000 5.0451 0.0000
# 2 10.6167 76.9529 8.5021 0.0000 8.4044 0.0000
# 3 11.4770 8.5021 60.7457 0.0000 -1.3701 0.0000
# 4 0.0000 0.0000 0.0000 37.1372 0.0000 5.1964
# 5 5.0451 8.4044 -1.3701 0.0000 25.1282 0.0000
# 6 0.0000 0.0000 0.0000 5.1964 0.0000 11.8720
#
#
#
# Elastic Compliance Matrix: (Units=1/GPa)
#
#
# Indices 1 2 3 4 5 6 
#
# 1 0.018208 -0.001799 -0.003261 0.000000 -0.003232 0.000000
# 2 -0.001799 0.013910 -0.001706 0.000000 -0.004384 0.000000
# 3 -0.003261 -0.001706 0.017366 0.000000 0.002172 0.000000
# 4 0.000000 0.000000 0.000000 0.028684 0.000000 -0.012555
# 5 -0.003232 -0.004384 0.002172 0.000000 0.042030 0.000000
# 6 0.000000 0.000000 0.000000 -0.012555 0.000000 0.089727
#
#
# Mechanical properties :
#
#
# Convention : Reuss Voigt Hill
#
# Bulk Modulus (GPa) = 27.81469 28.64583 28.23026
# Shear Modulus (GPa) = 21.23680 25.89583 23.56631
#
# Velocity S-wave (km/s) = 3.02591 3.34139 3.18756
# Velocity P-wave (km/s) = 4.91939 5.21891 5.07136
#
# Compressibility (1/GPa) = 0.03595223
#
# Stress axis : x y z
#
# Youngs Moduli (GPa) = 54.92225 71.88849 57.58388
#
# Poissons Ratio (x) = 0.12931 0.18779
# Poissons Ratio (y) = 0.09879 0.09824
# Poissons Ratio (z) = 0.17911 0.12264
#
# Static dielectric constant tensor:
#      x y z
#    x 1.842700 0.000000 0.004930 
#    y 0.000000 1.924770 0.000000 
#    z 0.004930 0.000000 1.983390 
# 
# From -- ./inp_files/313624.got.cif
#   From: 2010.05.17/outbox.cif.g08.bks.cpg/sg15_157_cif.got.tgz:313624.got - 2010.06.03 18:47:42.
