data_PCOD9265286
_publ_section_title
;
Structure prediction by ZEFSAII (Michael W. Deem and Ramdas Pophale) SiO2 
 PCOD9265286
Probable space group: C 2/C
;
_chemical_formula_sum "Si O2"
_cell_formula_units_Z 56
_cell_length_a 11.396150
_cell_length_b 14.255605
_cell_length_c 15.280708
_cell_angle_alpha 90.000000
_cell_angle_beta 103.016393
_cell_angle_gamma 90.000000
_cell_volume 2418.702838
_symmetry_space_group_name_H-M "C 2/C"
_symmetry_group_IT_number 15
_symmetry_cell_setting 'monoclinic'
loop_
_space_group_symop_operation_xyz
x,y,z
-x,y,1/2-z
-x,-y,-z
x,-y,1/2+z
1/2+x,1/2+y,z
1/2-x,1/2+y,1/2-z
1/2-x,1/2-y,-z
1/2+x,1/2-y,1/2+z
loop_
_atom_site_type_symbol
_atom_site_label
_atom_site_fract_x
_atom_site_fract_y
_atom_site_fract_z
Si Si1 0.357122 0.984102 0.117214
Si Si2 0.454596 0.121750 0.411518
Si Si3 0.392858 0.275752 0.172374
Si Si4 0.742716 0.118034 0.252636
Si Si5 0.852780 0.065603 0.536001
Si Si6 0.511095 0.604275 0.121830
Si Si7 0.369119 0.212532 0.568552
O O1 0.482406 0.023889 0.101243
O O2 0.324621 0.040053 0.199493
O O3 0.343747 0.873426 0.129204
O O4 0.261590 0.016240 0.027101
O O5 0.533170 0.197804 0.370665
O O6 0.319113 0.117159 0.351612
O O7 0.448440 0.160554 0.507702
O O8 0.500000 0.319210 0.250000
O O9 0.295550 0.217940 0.211727
O O10 0.330716 0.349892 0.098637
O O11 0.882477 0.099123 0.289848
O O12 0.926162 0.105981 0.464645
O O13 0.929876 0.987805 0.599919
O O14 0.437105 0.699346 0.119286
O O15 0.250000 0.250000 0.500000
#
# Coordination Sequence:
#
# PCOD9265286 Si02
#       7
#     8   8   8   8   8   8   8
#     4  10  21  37  64  88 117 155 203 249 304 349
#     4  10  21  40  61  89 123 156 201 254 301 357
#     4   9  18  35  61  88 116 149 198 255 302 348
#     4   9  21  40  63  89 117 157 202 254 305 355
#     4  10  19  36  59  89 113 155 197 245 298 361
#     4  10  21  37  60  83 121 159 199 238 302 361
#     4  12  23  40  60  88 124 164 199 247 296 366
#
# _framework density 23.152906999999999
#
# number of rings (size 3 to 8) (size 9 to 14) (size 15 to 20)
#    0.000    2.000    2.857    1.714    2.000    1.714 
#    2.571    5.000    0.000    0.000    0.000    0.000 
#    0.000    0.000    0.000    0.000    0.000    0.000 
#
# Total GULP energy -156659.279305 kJ/mol
# GULP energy per Si atom -5594.974261 kJ/mol
# Density = 2.310021 g / cm^3
# Si number density = 23.152907 Si / 1000 Ang^3
#
#
#
# Elastic Constant Matrix: (Units=GPa)
#
#
# Indices 1 2 3 4 5 6 
#
# 1 59.0068 18.5730 10.2955 0.0000 16.8008 0.0000
# 2 18.5730 125.7951 24.5566 0.0000 7.9098 0.0000
# 3 10.2955 24.5566 52.5225 0.0000 6.6374 0.0000
# 4 0.0000 0.0000 0.0000 23.7403 0.0000 11.1143
# 5 16.8008 7.9098 6.6374 0.0000 30.1179 0.0000
# 6 0.0000 0.0000 0.0000 11.1143 0.0000 22.4105
#
#
#
# Elastic Compliance Matrix: (Units=1/GPa)
#
#
# Indices 1 2 3 4 5 6 
#
# 1 0.020975 -0.002072 -0.001783 0.000000 -0.010764 0.000000
# 2 -0.002072 0.009013 -0.003760 0.000000 -0.000383 0.000000
# 3 -0.001783 -0.003760 0.021495 0.000000 -0.002755 0.000000
# 4 0.000000 0.000000 0.000000 0.054860 0.000000 -0.027207
# 5 -0.010764 -0.000383 -0.002755 0.000000 0.039915 0.000000
# 6 0.000000 0.000000 0.000000 -0.027207 0.000000 0.058115
#
#
# Mechanical properties :
#
#
# Convention : Reuss Voigt Hill
#
# Bulk Modulus (GPa) = 27.58255 38.24163 32.91209
# Shear Modulus (GPa) = 21.58088 27.51369 24.54728
#
# Velocity S-wave (km/s) = 3.05635 3.45098 3.25964
# Velocity P-wave (km/s) = 4.93904 5.69490 5.33038
#
# Compressibility (1/GPa) = 0.03625481
#
# Stress axis : x y z
#
# Youngs Moduli (GPa) = 47.67560 110.94654 46.52277
#
# Poissons Ratio (x) = 0.22989 0.08293
# Poissons Ratio (y) = 0.09879 0.17491
# Poissons Ratio (z) = 0.08498 0.41711
#
# Static dielectric constant tensor:
#      x y z
#    x 1.886550 0.000000 -0.019950 
#    y 0.000000 1.834630 0.000000 
#    z -0.019950 0.000000 1.864600 
# 
# From -- ./inp_files/237638.got.cif
#   From: 2010.05.17/outbox.cif.g08.bks.cpg/sg15_119_cif.got.tgz:237638.got - 2010.06.03 18:47:42.
