data_PCOD9265566
_publ_section_title
;
Structure prediction by ZEFSAII (Michael W. Deem and Ramdas Pophale) SiO2 
 PCOD9265566
Probable space group: C 2/C
;
_chemical_formula_sum "Si O2"
_cell_formula_units_Z 56
_cell_length_a 8.206169
_cell_length_b 19.779424
_cell_length_c 17.088255
_cell_angle_alpha 90.000000
_cell_angle_beta 103.391040
_cell_angle_gamma 90.000000
_cell_volume 2698.241268
_symmetry_space_group_name_H-M "C 2/C"
_symmetry_group_IT_number 15
_symmetry_cell_setting 'monoclinic'
loop_
_space_group_symop_operation_xyz
x,y,z
-x,y,1/2-z
-x,-y,-z
x,-y,1/2+z
1/2+x,1/2+y,z
1/2-x,1/2+y,1/2-z
1/2-x,1/2-y,-z
1/2+x,1/2-y,1/2+z
loop_
_atom_site_type_symbol
_atom_site_label
_atom_site_fract_x
_atom_site_fract_y
_atom_site_fract_z
Si Si1 0.298767 0.561559 0.319733
Si Si2 0.230778 0.405181 0.352448
Si Si3 0.549421 0.922824 0.488393
Si Si4 0.675114 0.834049 0.930676
Si Si5 0.805340 0.948845 0.643401
Si Si6 0.313267 0.401405 0.193118
Si Si7 0.449571 0.691508 0.581542
O O1 0.272710 0.485718 0.350898
O O2 0.209506 0.616723 0.362566
O O3 0.499424 0.568640 0.340352
O O4 0.240206 0.568154 0.223256
O O5 0.090847 0.403695 0.403986
O O6 0.201001 0.388890 0.257306
O O7 0.382505 0.354634 0.395914
O O8 0.410435 0.876655 0.510721
O O9 0.713265 0.914647 0.561178
O O10 0.500000 0.000000 0.500000
O O11 0.552517 0.771137 0.900321
O O12 0.854547 0.812775 0.987669
O O13 0.779512 0.030335 0.641125
O O14 0.500000 0.414207 0.250000
O O15 0.334681 0.339889 0.137409
#
# Coordination Sequence:
#
# PCOD9265566 Si02
#       7
#     8   8   8   8   8   8   8
#     4  10  19  39  62  89 113 159 211 247 294 359
#     4  10  20  38  63  86 114 160 212 244 285 368
#     4  12  24  35  55  96 128 154 191 257 323 347
#     4  11  24  38  57  92 124 155 197 250 316 358
#     4  10  19  36  62  88 119 149 203 256 297 357
#     4   9  16  36  62  86 103 152 212 242 274 354
#     4  10  21  41  64  80 116 165 208 243 288 376
#
# _framework density 20.754258
#
# number of rings (size 3 to 8) (size 9 to 14) (size 15 to 20)
#    0.000    1.714    5.714    1.714    0.000    2.286 
#    7.714    2.143    6.286    0.000    0.000    0.000 
#    0.000    0.000    0.000    0.000    0.000    0.000 
#
# Total GULP energy -156166.823064 kJ/mol
# GULP energy per Si atom -5577.386538 kJ/mol
# Density = 2.070702 g / cm^3
# Si number density = 20.754258 Si / 1000 Ang^3
#
#
#
# Elastic Constant Matrix: (Units=GPa)
#
#
# Indices 1 2 3 4 5 6 
#
# 1 35.0054 21.9679 30.6489 0.0000 -23.3826 0.0000
# 2 21.9679 111.7112 35.8554 0.0000 -21.8699 0.0000
# 3 30.6489 35.8554 83.6065 0.0000 -24.7648 0.0000
# 4 0.0000 0.0000 0.0000 26.0548 0.0000 -4.1866
# 5 -23.3826 -21.8699 -24.7648 0.0000 51.3047 0.0000
# 6 0.0000 0.0000 0.0000 -4.1866 0.0000 23.1590
#
#
#
# Elastic Compliance Matrix: (Units=1/GPa)
#
#
# Indices 1 2 3 4 5 6 
#
# 1 0.053104 -0.002934 -0.013314 0.000000 0.016525 0.000000
# 2 -0.002934 0.010862 -0.003042 0.000000 0.001824 0.000000
# 3 -0.013314 -0.003042 0.018628 0.000000 0.001627 0.000000
# 4 0.000000 0.000000 0.000000 0.039529 0.000000 0.007146
# 5 0.016525 0.001824 0.001627 0.000000 0.028586 0.000000
# 6 0.000000 0.000000 0.000000 0.007146 0.000000 0.044472
#
#
# Mechanical properties :
#
#
# Convention : Reuss Voigt Hill
#
# Bulk Modulus (GPa) = 22.72043 45.25194 33.98619
# Shear Modulus (GPa) = 20.12619 29.56043 24.84331
#
# Velocity S-wave (km/s) = 3.11744 3.77809 3.46355
# Velocity P-wave (km/s) = 4.89173 6.39398 5.69263
#
# Compressibility (1/GPa) = 0.04401325
#
# Stress axis : x y z
#
# Youngs Moduli (GPa) = 18.83107 92.06118 53.68249
#
# Poissons Ratio (x) = 0.27015 0.71471
# Poissons Ratio (y) = 0.05526 0.16332
# Poissons Ratio (z) = 0.25071 0.28008
#
# Static dielectric constant tensor:
#      x y z
#    x 1.792030 0.000000 0.047340 
#    y 0.000000 1.721390 0.000000 
#    z 0.047340 0.000000 1.796200 
# 
# From -- ./inp_files/191652.got.cif
#   From: 2010.05.17/outbox.cif.g08.bks.cpg/sg15_96_cif.got.tgz:191652.got - 2010.06.03 18:47:42.
