data_PCOD9265134
_publ_section_title
;
Structure prediction by ZEFSAII (Michael W. Deem and Ramdas Pophale) SiO2 
 PCOD9265134
Probable space group: C 2/C
;
_chemical_formula_sum "Si O2"
_cell_formula_units_Z 64
_cell_length_a 19.619875
_cell_length_b 10.205029
_cell_length_c 23.463454
_cell_angle_alpha 90.000000
_cell_angle_beta 130.258949
_cell_angle_gamma 90.000000
_cell_volume 3585.104573
_symmetry_space_group_name_H-M "C 2/C"
_symmetry_group_IT_number 15
_symmetry_cell_setting 'monoclinic'
loop_
_space_group_symop_operation_xyz
x,y,z
-x,y,1/2-z
-x,-y,-z
x,-y,1/2+z
1/2+x,1/2+y,z
1/2-x,1/2+y,1/2-z
1/2-x,1/2-y,-z
1/2+x,1/2-y,1/2+z
loop_
_atom_site_type_symbol
_atom_site_label
_atom_site_fract_x
_atom_site_fract_y
_atom_site_fract_z
Si Si1 0.781896 0.152413 0.190439
Si Si2 0.915746 0.852803 0.667777
Si Si3 0.872436 0.846844 0.856069
Si Si4 0.131646 0.556813 0.606849
Si Si5 0.771738 0.941252 0.373675
Si Si6 0.585831 0.034896 0.832550
Si Si7 0.078892 0.151837 0.459970
Si Si8 0.566206 0.963756 0.452200
O O1 0.827195 0.114051 0.155098
O O2 0.856872 0.154918 0.279848
O O3 0.746006 0.299787 0.164330
O O4 0.705368 0.049210 0.163691
O O5 0.921115 0.693912 0.669021
O O6 0.914498 0.894353 0.601794
O O7 0.000000 0.900665 0.750000
O O8 0.844477 0.705285 0.865075
O O9 0.977097 0.869384 0.925167
O O10 0.811717 0.957481 0.850719
O O11 0.113214 0.539103 0.529428
O O12 0.039283 0.529644 0.590591
O O13 0.679135 0.990698 0.351281
O O14 0.846446 0.916993 0.462136
O O15 0.500000 0.988262 0.750000
O O16 0.584255 0.990253 0.897538
O O17 0.093120 0.309724 0.470410
#
# Coordination Sequence:
#
# PCOD9265134 Si02
#       8
#     8   8   8   8   8   8   8   8
#     4  11  21  35  60  84 110 143 189 234 274 333
#     4   9  17  32  56  85 107 139 178 234 288 310
#     4  11  23  37  55  81 120 150 180 225 283 330
#     4  10  21  36  58  82 112 149 185 228 272 336
#     4  11  23  36  58  87 109 147 188 228 282 330
#     4   9  20  33  57  83 112 141 185 239 275 321
#     4  10  19  36  58  83 114 142 186 236 273 331
#     4   9  19  36  57  82 109 147 190 228 274 321
#
# _framework density 17.851641999999998
#
# number of rings (size 3 to 8) (size 9 to 14) (size 15 to 20)
#    0.000    2.000    2.500    1.125    8.750    1.500 
#    0.000    0.625    0.000    0.750    0.000    0.000 
#    0.000    0.000    0.000    0.000    0.000    0.000 
#
# Total GULP energy -178545.819479 kJ/mol
# GULP energy per Si atom -5579.556859 kJ/mol
# Density = 1.781101 g / cm^3
# Si number density = 17.851642 Si / 1000 Ang^3
#
#
#
# Elastic Constant Matrix: (Units=GPa)
#
#
# Indices 1 2 3 4 5 6 
#
# 1 91.8678 43.4900 37.9000 0.0000 -6.0063 0.0000
# 2 43.4900 44.9652 17.2491 0.0000 4.7156 0.0000
# 3 37.9000 17.2491 81.8687 0.0000 -1.2953 0.0000
# 4 0.0000 0.0000 0.0000 13.6398 0.0000 1.6974
# 5 -6.0063 4.7156 -1.2953 0.0000 27.9187 0.0000
# 6 0.0000 0.0000 0.0000 1.6974 0.0000 15.4529
#
#
#
# Elastic Compliance Matrix: (Units=1/GPa)
#
#
# Indices 1 2 3 4 5 6 
#
# 1 0.024764 -0.022334 -0.006619 0.000000 0.008793 0.000000
# 2 -0.022334 0.044872 0.000690 0.000000 -0.012352 0.000000
# 3 -0.006619 0.000690 0.015120 0.000000 -0.000839 0.000000
# 4 0.000000 0.000000 0.000000 0.074331 0.000000 -0.008165
# 5 0.008793 -0.012352 -0.000839 0.000000 0.039757 0.000000
# 6 0.000000 0.000000 0.000000 -0.008165 0.000000 0.065610
#
#
# Mechanical properties :
#
#
# Convention : Reuss Voigt Hill
#
# Bulk Modulus (GPa) = 35.42531 46.21998 40.82265
# Shear Modulus (GPa) = 15.13356 19.40645 17.27000
#
# Velocity S-wave (km/s) = 2.91476 3.30069 3.11371
# Velocity P-wave (km/s) = 5.58705 6.36187 5.98701
#
# Compressibility (1/GPa) = 0.02822840
#
# Stress axis : x y z
#
# Youngs Moduli (GPa) = 40.38133 22.28568 66.13585
#
# Poissons Ratio (x) = 0.49774 0.43777
# Poissons Ratio (y) = 0.90189 -0.04562
# Poissons Ratio (z) = 0.26730 -0.01537
#
# Static dielectric constant tensor:
#      x y z
#    x 1.612190 0.000000 0.003220 
#    y 0.000000 1.570970 0.000000 
#    z 0.003220 0.000000 1.627900 
# 
# From -- ./inp_files/248396.got.cif
#   From: 2010.05.17/outbox.cif.g08.bks.cpg/sg15_125_cif.got.tgz:248396.got - 2010.06.03 18:47:42.
