data_PCOD9265556
_publ_section_title
;
Structure prediction by ZEFSAII (Michael W. Deem and Ramdas Pophale) SiO2 
 PCOD9265556
Probable space group: C 2/C
;
_chemical_formula_sum "Si O2"
_cell_formula_units_Z 56
_cell_length_a 22.506821
_cell_length_b 11.100497
_cell_length_c 17.429057
_cell_angle_alpha 90.000000
_cell_angle_beta 139.464429
_cell_angle_gamma 90.000000
_cell_volume 2830.025685
_symmetry_space_group_name_H-M "C 2/C"
_symmetry_group_IT_number 15
_symmetry_cell_setting 'monoclinic'
loop_
_space_group_symop_operation_xyz
x,y,z
-x,y,1/2-z
-x,-y,-z
x,-y,1/2+z
1/2+x,1/2+y,z
1/2-x,1/2+y,1/2-z
1/2-x,1/2-y,-z
1/2+x,1/2-y,1/2+z
loop_
_atom_site_type_symbol
_atom_site_label
_atom_site_fract_x
_atom_site_fract_y
_atom_site_fract_z
Si Si1 0.361132 0.056946 0.923130
Si Si2 0.580863 0.412584 0.481126
Si Si3 0.265465 0.726975 0.426397
Si Si4 0.091569 0.769897 0.161386
Si Si5 0.473541 0.633043 0.312245
Si Si6 0.167522 0.965519 0.722434
Si Si7 0.504716 0.132989 0.571275
O O1 0.319912 0.163837 0.935832
O O2 0.400968 0.102707 0.880560
O O3 0.276182 0.966424 0.827407
O O4 0.448539 0.984930 0.042521
O O5 0.668669 0.387012 0.516765
O O6 0.500333 0.316549 0.386604
O O7 0.539333 0.543311 0.424835
O O8 0.616386 0.397525 0.603160
O O9 0.250000 0.750000 0.500000
O O10 0.168300 0.709736 0.289208
O O11 0.137529 0.895992 0.181464
O O12 0.058104 0.692426 0.057123
O O13 0.500000 0.620969 0.250000
O O14 0.373613 0.583973 0.238608
O O15 0.482520 0.768640 0.350779
#
# Coordination Sequence:
#
# PCOD9265556 Si02
#       7
#     8   8   8   8   8   8   8
#     4  10  23  38  66  89 123 164 206 262 304 371
#     4  11  20  39  64  89 121 164 216 252 304 375
#     4  11  24  37  59  94 127 159 205 257 315 368
#     4  10  19  36  62  87 115 161 204 255 299 361
#     4  11  23  38  65  93 126 160 202 266 319 368
#     4  10  19  39  64  92 117 160 217 251 299 376
#     4  11  20  43  62  89 123 163 214 253 311 372
#
# _framework density 19.787804999999999
#
# number of rings (size 3 to 8) (size 9 to 14) (size 15 to 20)
#    0.000    1.429    4.286    1.714    6.000    1.143 
#    0.000    5.000    0.000    0.000    0.000    0.000 
#    0.000    0.000    0.000    0.000    0.000    0.000 
#
# Total GULP energy -156214.929782 kJ/mol
# GULP energy per Si atom -5579.104635 kJ/mol
# Density = 1.974277 g / cm^3
# Si number density = 19.787805 Si / 1000 Ang^3
#
#
#
# Elastic Constant Matrix: (Units=GPa)
#
#
# Indices 1 2 3 4 5 6 
#
# 1 137.9922 19.3962 49.8479 0.0000 10.0911 0.0000
# 2 19.3962 45.9461 0.5003 0.0000 8.7029 0.0000
# 3 49.8479 0.5003 49.9827 0.0000 19.3451 0.0000
# 4 0.0000 0.0000 0.0000 9.5214 0.0000 5.8666
# 5 10.0911 8.7029 19.3451 0.0000 30.5079 0.0000
# 6 0.0000 0.0000 0.0000 5.8666 0.0000 29.8779
#
#
#
# Elastic Compliance Matrix: (Units=1/GPa)
#
#
# Indices 1 2 3 4 5 6 
#
# 1 0.013702 -0.007139 -0.016735 0.000000 0.008116 0.000000
# 2 -0.007139 0.027087 0.011829 0.000000 -0.012866 0.000000
# 3 -0.016735 0.011829 0.047366 0.000000 -0.027874 0.000000
# 4 0.000000 0.000000 0.000000 0.119482 0.000000 -0.023461
# 5 0.008116 -0.012866 -0.027874 0.000000 0.051439 0.000000
# 6 0.000000 0.000000 0.000000 -0.023461 0.000000 0.038076
#
#
# Mechanical properties :
#
#
# Convention : Reuss Voigt Hill
#
# Bulk Modulus (GPa) = 15.60935 41.48999 28.54967
# Shear Modulus (GPa) = 14.59434 24.92653 19.76044
#
# Velocity S-wave (km/s) = 2.71872 3.55306 3.16352
# Velocity P-wave (km/s) = 4.21435 6.15186 5.27286
#
# Compressibility (1/GPa) = 0.06406416
#
# Stress axis : x y z
#
# Youngs Moduli (GPa) = 72.98191 36.91840 21.11200
#
# Poissons Ratio (x) = 0.26358 0.35330
# Poissons Ratio (y) = 0.52105 -0.24973
# Poissons Ratio (z) = 1.22134 -0.43669
#
# Static dielectric constant tensor:
#      x y z
#    x 1.736720 0.000000 0.014470 
#    y 0.000000 1.749690 0.000000 
#    z 0.014470 0.000000 1.700410 
# 
# From -- ./inp_files/219180.got.cif
#   From: 2010.05.17/outbox.cif.g08.bks.cpg/sg15_110_cif.got.tgz:219180.got - 2010.06.03 18:47:42.
