data_PCOD9265993
_publ_section_title
;
Structure prediction by ZEFSAII (Michael W. Deem and Ramdas Pophale) SiO2 
 PCOD9265993
Probable space group: C 2/C
;
_chemical_formula_sum "Si O2"
_cell_formula_units_Z 36
_cell_length_a 26.843954
_cell_length_b 7.816463
_cell_length_c 14.067142
_cell_angle_alpha 90.000000
_cell_angle_beta 33.564785
_cell_angle_gamma 90.000000
_cell_volume 1631.898466
_symmetry_space_group_name_H-M "C 2/C"
_symmetry_group_IT_number 15
_symmetry_cell_setting 'monoclinic'
loop_
_space_group_symop_operation_xyz
x,y,z
-x,y,1/2-z
-x,-y,-z
x,-y,1/2+z
1/2+x,1/2+y,z
1/2-x,1/2+y,1/2-z
1/2-x,1/2-y,-z
1/2+x,1/2-y,1/2+z
loop_
_atom_site_type_symbol
_atom_site_label
_atom_site_fract_x
_atom_site_fract_y
_atom_site_fract_z
Si Si1 0.190349 0.883014 0.204919
Si Si2 0.687471 0.412067 0.978477
Si Si3 0.501865 0.308520 0.950454
Si Si4 0.696658 0.768546 0.186465
Si Si5 0.000000 0.943335 0.750000
O O1 0.184816 0.904370 0.098939
O O2 0.102687 0.767488 0.368962
O O3 0.251034 0.927482 0.351419
O O4 0.273293 0.771576 0.107908
O O5 0.588546 0.443991 0.096128
O O6 0.699129 0.422213 0.727241
O O7 0.588310 0.204060 0.849124
O O8 0.517713 0.330864 0.813809
O O9 0.500000 0.500000 0.000000
O O10 0.750000 0.750000 0.000000
#
# Coordination Sequence:
#
# PCOD9265993 Si02
#       5
#     8   8   8   8   4
#     4   9  19  38  58  82 112 153 186 231 286 338
#     4  10  20  36  62  81 113 151 189 231 287 335
#     4  10  19  37  59  83 117 151 189 235 288 335
#     4   9  16  35  60  80 112 155 181 230 287 337
#     4  12  20  36  60  86 112 156 188 238 288 336
#
# _framework density 22.060195
#
# number of rings (size 3 to 8) (size 9 to 14) (size 15 to 20)
#    0.000    2.222    6.667    0.000    0.000    0.889 
#    8.000    1.111    0.000    0.000    0.000    0.000 
#    0.000    0.000    0.000    0.000    0.000    0.000 
#
# Total GULP energy -100311.970847 kJ/mol
# GULP energy per Si atom -5572.887269 kJ/mol
# Density = 2.200999 g / cm^3
# Si number density = 22.060195 Si / 1000 Ang^3
#
#
#
# Elastic Constant Matrix: (Units=GPa)
#
#
# Indices 1 2 3 4 5 6 
#
# 1 74.2782 42.3368 27.2392 0.0000 -29.6335 0.0000
# 2 42.3368 95.6259 37.1239 -0.0008 -27.9569 0.0002
# 3 27.2392 37.1239 97.6308 -0.0003 -25.7851 0.0001
# 4 0.0000 -0.0008 -0.0003 11.9731 0.0001 1.8850
# 5 -29.6335 -27.9569 -25.7851 0.0001 61.2541 0.0000
# 6 0.0000 0.0002 0.0001 1.8850 0.0000 17.9959
#
#
#
# Elastic Compliance Matrix: (Units=1/GPa)
#
#
# Indices 1 2 3 4 5 6 
#
# 1 0.020212 -0.006562 -0.001522 -0.000001 0.006143 0.000000
# 2 -0.006562 0.015383 -0.003378 0.000001 0.002424 0.000000
# 3 -0.001522 -0.003378 0.012770 0.000000 0.003098 0.000000
# 4 -0.000001 0.000001 0.000000 0.084921 0.000000 -0.008895
# 5 0.006143 0.002424 0.003098 0.000000 0.021707 0.000000
# 6 0.000000 0.000000 0.000000 -0.008895 0.000000 0.056500
#
#
# Mechanical properties :
#
#
# Convention : Reuss Voigt Hill
#
# Bulk Modulus (GPa) = 39.30689 53.43722 46.37205
# Shear Modulus (GPa) = 20.58492 28.96695 24.77594
#
# Velocity S-wave (km/s) = 3.05802 3.62759 3.35491
# Velocity P-wave (km/s) = 5.50685 6.46698 6.00613
#
# Compressibility (1/GPa) = 0.02544083
#
# Stress axis : x y z
#
# Youngs Moduli (GPa) = 49.47658 65.00767 78.30937
#
# Poissons Ratio (x) = 0.42657 0.11916
# Poissons Ratio (y) = 0.32466 0.26455
# Poissons Ratio (z) = 0.07529 0.21961
#
# Static dielectric constant tensor:
#      x y z
#    x 1.906330 0.000000 0.047410 
#    y 0.000000 1.787290 0.000000 
#    z 0.047410 0.000000 1.969360 
# 
# From -- ./inp_files/117085.got.cif
#   From: 2010.05.17/outbox.cif.g08.bks.cpg/sg15_59_cif.got.tgz:117085.got - 2010.06.03 18:47:42.
