data_PCOD9265194
_publ_section_title
;
Structure prediction by ZEFSAII (Michael W. Deem and Ramdas Pophale) SiO2 
 PCOD9265194
Probable space group: C 2/C
;
_chemical_formula_sum "Si O2"
_cell_formula_units_Z 48
_cell_length_a 12.810113
_cell_length_b 18.214096
_cell_length_c 15.540535
_cell_angle_alpha 90.000000
_cell_angle_beta 137.914464
_cell_angle_gamma 90.000000
_cell_volume 2430.280659
_symmetry_space_group_name_H-M "C 2/C"
_symmetry_group_IT_number 15
_symmetry_cell_setting 'monoclinic'
loop_
_space_group_symop_operation_xyz
x,y,z
-x,y,1/2-z
-x,-y,-z
x,-y,1/2+z
1/2+x,1/2+y,z
1/2-x,1/2+y,1/2-z
1/2-x,1/2-y,-z
1/2+x,1/2-y,1/2+z
loop_
_atom_site_type_symbol
_atom_site_label
_atom_site_fract_x
_atom_site_fract_y
_atom_site_fract_z
Si Si1 0.326808 0.804213 0.117121
Si Si2 0.205325 0.943889 0.962040
Si Si3 0.291392 0.246441 0.291308
Si Si4 0.662612 0.590769 0.251634
Si Si5 0.642432 0.728972 0.015532
Si Si6 0.640214 0.443823 0.557495
O O1 0.500000 0.782459 0.250000
O O2 0.234207 0.807385 0.150727
O O3 0.250000 0.750000 0.000000
O O4 0.320639 0.882993 0.068595
O O5 0.220526 0.952787 0.869657
O O6 0.026443 0.913768 0.864991
O O7 0.219713 0.016524 0.026445
O O8 0.213529 0.174923 0.286905
O O9 0.474757 0.236090 0.395068
O O10 0.214188 0.256749 0.150535
O O11 0.729156 0.562277 0.202224
O O12 0.750000 0.750000 0.000000
O O13 0.613441 0.640850 0.012325
O O14 0.500000 0.500000 0.500000
#
# Coordination Sequence:
#
# PCOD9265194 Si02
#       6
#     8   8   8   8   8   8
#     4  12  22  35  61  96 129 162 205 259 319 379
#     4  10  19  36  58  92 122 159 211 254 307 378
#     4  11  21  38  61  88 128 159 207 254 315 372
#     4   9  18  34  61  86 119 164 197 252 320 360
#     4  11  24  43  63  92 121 171 214 262 312 376
#     4   9  19  39  62  89 122 164 213 259 309 377
#
# _framework density 19.750806999999998
#
# number of rings (size 3 to 8) (size 9 to 14) (size 15 to 20)
#    0.000    1.667    1.667    5.500    0.000    0.000 
#   15.000    3.333    0.000    2.000    0.000    0.000 
#    0.000    0.000    0.000    0.000    0.000    0.000 
#
# Total GULP energy -133730.209778 kJ/mol
# GULP energy per Si atom -5572.092074 kJ/mol
# Density = 1.970585 g / cm^3
# Si number density = 19.750807 Si / 1000 Ang^3
#
#
#
# Elastic Constant Matrix: (Units=GPa)
#
#
# Indices 1 2 3 4 5 6 
#
# 1 79.0218 14.0465 36.0948 -0.0001 -10.9850 0.0000
# 2 14.0465 67.2214 36.8205 -0.0001 -19.7462 -0.0001
# 3 36.0948 36.8205 125.1975 -0.0001 -12.2281 -0.0001
# 4 -0.0001 -0.0001 -0.0001 18.8880 -0.0001 -12.1471
# 5 -10.9850 -19.7462 -12.2281 -0.0001 41.4364 -0.0001
# 6 0.0000 -0.0001 -0.0001 -12.1471 -0.0001 30.2572
#
#
#
# Elastic Compliance Matrix: (Units=1/GPa)
#
#
# Indices 1 2 3 4 5 6 
#
# 1 0.014875 -0.000130 -0.003986 0.000000 0.002705 0.000000
# 2 -0.000130 0.020037 -0.005072 0.000000 0.008017 0.000000
# 3 -0.003986 -0.005072 0.010594 0.000000 -0.000347 0.000000
# 4 0.000000 0.000000 0.000000 0.071370 0.000000 0.028652
# 5 0.002705 0.008017 -0.000347 0.000000 0.028568 0.000000
# 6 0.000000 0.000000 0.000000 0.028652 0.000000 0.044553
#
#
# Mechanical properties :
#
#
# Convention : Reuss Voigt Hill
#
# Bulk Modulus (GPa) = 36.86114 49.48493 43.17303
# Shear Modulus (GPa) = 22.99730 30.41491 26.70611
#
# Velocity S-wave (km/s) = 3.41599 3.92845 3.68115
# Velocity P-wave (km/s) = 5.85340 6.75914 6.32251
#
# Compressibility (1/GPa) = 0.02712884
#
# Stress axis : x y z
#
# Youngs Moduli (GPa) = 67.22896 49.90833 94.39023
#
# Poissons Ratio (x) = 0.00650 0.37623
# Poissons Ratio (y) = 0.00876 0.47877
# Poissons Ratio (z) = 0.26796 0.25315
#
# Static dielectric constant tensor:
#      x y z
#    x 1.788730 0.000000 -0.012410 
#    y 0.000000 1.768020 0.000000 
#    z -0.012410 0.000000 1.706400 
# 
# From -- ./inp_files/155275.got.cif
#   From: 2010.05.17/outbox.cif.g08.bks.cpg/sg15_78_cif.got.tgz:155275.got - 2010.06.03 18:47:42.
