data_PCOD9265293
_publ_section_title
;
Structure prediction by ZEFSAII (Michael W. Deem and Ramdas Pophale) SiO2 
 PCOD9265293
Probable space group: C 2/C
;
_chemical_formula_sum "Si O2"
_cell_formula_units_Z 56
_cell_length_a 16.512412
_cell_length_b 9.604007
_cell_length_c 16.802233
_cell_angle_alpha 90.000000
_cell_angle_beta 71.097930
_cell_angle_gamma 90.000000
_cell_volume 2520.896041
_symmetry_space_group_name_H-M "C 2/C"
_symmetry_group_IT_number 15
_symmetry_cell_setting 'monoclinic'
loop_
_space_group_symop_operation_xyz
x,y,z
-x,y,1/2-z
-x,-y,-z
x,-y,1/2+z
1/2+x,1/2+y,z
1/2-x,1/2+y,1/2-z
1/2-x,1/2-y,-z
1/2+x,1/2-y,1/2+z
loop_
_atom_site_type_symbol
_atom_site_label
_atom_site_fract_x
_atom_site_fract_y
_atom_site_fract_z
Si Si1 0.320056 0.030826 0.894801
Si Si2 0.119884 0.769677 0.876065
Si Si3 0.958127 0.846952 0.008561
Si Si4 0.192640 0.783493 0.140199
Si Si5 0.184409 0.937250 0.568234
Si Si6 0.904389 0.752162 0.786771
Si Si7 0.837821 0.091954 0.674383
O O1 0.400997 0.125443 0.849782
O O2 0.247396 0.079655 0.853187
O O3 0.338780 0.869624 0.872371
O O4 0.275244 0.062673 0.994083
O O5 0.204319 0.730168 0.896688
O O6 0.115564 0.692452 0.793717
O O7 0.035093 0.752323 0.954459
O O8 0.129208 0.931069 0.841715
O O9 0.883954 0.865583 0.967300
O O10 0.909329 0.817787 0.105630
O O11 0.000000 0.000000 0.000000
O O12 0.161685 0.901943 0.089991
O O13 0.174781 0.841094 0.235078
O O14 0.167645 0.858505 0.656724
O O15 0.000000 0.815552 0.750000
#
# Coordination Sequence:
#
# PCOD9265293 Si02
#       7
#     8   8   8   8   8   8   8
#     4  10  23  39  56  90 130 155 196 258 311 357
#     4  10  19  36  59  90 119 153 196 257 303 356
#     4   9  19  36  58  91 123 149 198 261 304 350
#     4  11  21  38  66  93 120 159 210 255 307 367
#     4  11  22  39  65  92 115 164 218 248 298 380
#     4  12  22  38  61  86 122 160 207 248 305 370
#     4   9  18  35  61  86 114 157 198 245 298 361
#
# _framework density 22.214324999999999
#
# number of rings (size 3 to 8) (size 9 to 14) (size 15 to 20)
#    0.000    1.714    4.286    1.714    0.000    0.000 
#    0.000    5.000    0.000    1.714    0.000    0.000 
#    0.000    0.000    0.000    0.000    0.000    0.000 
#
# Total GULP energy -156193.030330 kJ/mol
# GULP energy per Si atom -5578.322512 kJ/mol
# Density = 2.216376 g / cm^3
# Si number density = 22.214325 Si / 1000 Ang^3
#
#
#
# Elastic Constant Matrix: (Units=GPa)
#
#
# Indices 1 2 3 4 5 6 
#
# 1 18.0013 10.1688 16.1176 0.0000 -9.6427 0.0000
# 2 10.1688 90.5890 28.4955 0.0000 -17.4525 0.0000
# 3 16.1176 28.4955 123.6765 0.0000 -32.3387 0.0000
# 4 0.0000 0.0000 0.0000 22.2466 0.0000 -4.0727
# 5 -9.6427 -17.4525 -32.3387 0.0000 25.4740 0.0000
# 6 0.0000 0.0000 0.0000 -4.0727 0.0000 15.5159
#
#
#
# Elastic Compliance Matrix: (Units=1/GPa)
#
#
# Indices 1 2 3 4 5 6 
#
# 1 0.071261 -0.002977 -0.003115 0.000000 0.020980 0.000000
# 2 -0.002977 0.012921 -0.000852 0.000000 0.006644 0.000000
# 3 -0.003115 -0.000852 0.012315 0.000000 0.013870 0.000000
# 4 0.000000 0.000000 0.000000 0.047220 0.000000 0.012395
# 5 0.020980 0.006644 0.013870 0.000000 0.069357 0.000000
# 6 0.000000 0.000000 0.000000 0.012395 0.000000 0.067704
#
#
# Mechanical properties :
#
#
# Convention : Reuss Voigt Hill
#
# Bulk Modulus (GPa) = 12.10531 37.98118 25.04324
# Shear Modulus (GPa) = 15.51823 24.47962 19.99892
#
# Velocity S-wave (km/s) = 2.64591 3.32320 3.00371
# Velocity P-wave (km/s) = 3.84651 5.64443 4.82987
#
# Compressibility (1/GPa) = 0.08260838
#
# Stress axis : x y z
#
# Youngs Moduli (GPa) = 14.03294 77.39331 81.20428
#
# Poissons Ratio (x) = 0.23043 0.25294
# Poissons Ratio (y) = 0.04178 0.06917
# Poissons Ratio (z) = 0.04371 0.06592
#
# Static dielectric constant tensor:
#      x y z
#    x 1.841120 0.000000 0.012370 
#    y 0.000000 1.851130 0.000000 
#    z 0.012370 0.000000 1.891720 
# 
# From -- ./inp_files/213806.got.cif
#   From: 2010.05.17/outbox.cif.g08.bks.cpg/sg15_107_cif.got.tgz:213806.got - 2010.06.03 18:47:42.
