data_PCOD9265713
_publ_section_title
;
Structure prediction by ZEFSAII (Michael W. Deem and Ramdas Pophale) SiO2 
 PCOD9265713
Probable space group: C 2/C
;
_chemical_formula_sum "Si O2"
_cell_formula_units_Z 48
_cell_length_a 16.093684
_cell_length_b 9.979194
_cell_length_c 13.424307
_cell_angle_alpha 90.000000
_cell_angle_beta 71.837068
_cell_angle_gamma 90.000000
_cell_volume 2048.546926
_symmetry_space_group_name_H-M "C 2/C"
_symmetry_group_IT_number 15
_symmetry_cell_setting 'monoclinic'
loop_
_space_group_symop_operation_xyz
x,y,z
-x,y,1/2-z
-x,-y,-z
x,-y,1/2+z
1/2+x,1/2+y,z
1/2-x,1/2+y,1/2-z
1/2-x,1/2-y,-z
1/2+x,1/2-y,1/2+z
loop_
_atom_site_type_symbol
_atom_site_label
_atom_site_fract_x
_atom_site_fract_y
_atom_site_fract_z
Si Si1 0.885618 0.640737 0.953299
Si Si2 0.500000 0.734290 0.250000
Si Si3 0.112022 0.659927 0.052581
Si Si4 0.855006 0.985021 0.761921
Si Si5 0.500000 0.704111 0.750000
Si Si6 0.779425 0.164966 0.133026
Si Si7 0.256693 0.764455 0.636881
O O1 0.968082 0.683260 0.856850
O O2 0.898714 0.489635 0.982065
O O3 0.805857 0.670120 0.904737
O O4 0.854038 0.731055 0.057349
O O5 0.576711 0.637974 0.257750
O O6 0.193544 0.651495 0.099322
O O7 0.027549 0.707972 0.145078
O O8 0.144898 0.764223 0.958012
O O9 0.813342 0.974236 0.667894
O O10 0.779711 0.922088 0.861800
O O11 0.914406 0.110662 0.765523
O O12 0.754231 0.252065 0.240740
#
# Coordination Sequence:
#
# PCOD9265713 Si02
#       7
#     8   4   8   8   4   8   8
#     4  10  19  36  64  90 127 157 210 261 322 369
#     4   9  17  38  62  92 117 155 206 272 304 359
#     4  11  24  37  60  94 136 160 196 277 323 366
#     4   8  19  41  64  81 123 165 225 251 286 398
#     4  11  23  40  64  94 131 171 208 258 342 361
#     4   9  22  41  58  89 123 171 213 250 309 375
#     4   8  19  39  63  88 111 179 220 248 296 395
#
# _framework density 23.431242000000001
#
# number of rings (size 3 to 8) (size 9 to 14) (size 15 to 20)
#    1.000    1.667    0.000    0.500    4.667    3.333 
#    3.000    0.833    0.000    0.000    0.000    0.000 
#    0.000    0.000    0.000    0.000    0.000    0.000 
#
# Total GULP energy -133882.138219 kJ/mol
# GULP energy per Si atom -5578.422426 kJ/mol
# Density = 2.337791 g / cm^3
# Si number density = 23.431242 Si / 1000 Ang^3
#
#
#
# Elastic Constant Matrix: (Units=GPa)
#
#
# Indices 1 2 3 4 5 6 
#
# 1 58.2931 0.5517 3.0410 0.0000 5.8375 0.0000
# 2 0.5517 66.7286 7.0199 0.0000 -9.9223 0.0000
# 3 3.0410 7.0199 121.0749 0.0000 -19.2806 0.0000
# 4 0.0000 0.0000 0.0000 21.0222 0.0000 -5.6346
# 5 5.8375 -9.9223 -19.2806 0.0000 39.1361 0.0000
# 6 0.0000 0.0000 0.0000 -5.6346 0.0000 12.4088
#
#
#
# Elastic Compliance Matrix: (Units=1/GPa)
#
#
# Indices 1 2 3 4 5 6 
#
# 1 0.017528 -0.000524 -0.000920 0.000000 -0.003200 0.000000
# 2 -0.000524 0.015599 -0.000270 0.000000 0.003900 0.000000
# 3 -0.000920 -0.000270 0.009016 0.000000 0.004511 0.000000
# 4 0.000000 0.000000 0.000000 0.054160 0.000000 0.024593
# 5 -0.003200 0.003900 0.004511 0.000000 0.029240 0.000000
# 6 0.000000 0.000000 0.000000 0.024593 0.000000 0.091755
#
#
# Mechanical properties :
#
#
# Convention : Reuss Voigt Hill
#
# Bulk Modulus (GPa) = 25.82934 29.70243 27.76589
# Shear Modulus (GPa) = 21.40119 30.21234 25.80676
#
# Velocity S-wave (km/s) = 3.02547 3.59472 3.32231
# Velocity P-wave (km/s) = 4.82203 5.47114 5.15681
#
# Compressibility (1/GPa) = 0.03871566
#
# Stress axis : x y z
#
# Youngs Moduli (GPa) = 57.05126 64.10773 110.90899
#
# Poissons Ratio (x) = 0.03360 0.10198
# Poissons Ratio (y) = 0.02990 0.02997
# Poissons Ratio (z) = 0.05246 0.01732
#
# Static dielectric constant tensor:
#      x y z
#    x 1.959830 0.000000 0.005240 
#    y 0.000000 1.914870 0.000000 
#    z 0.005240 0.000000 1.880500 
# 
# From -- ./inp_files/167164.got.cif
#   From: 2010.05.17/outbox.cif.g08.bks.cpg/sg15_84_cif.got.tgz:167164.got - 2010.06.03 18:47:42.
