data_PCOD9265393
_publ_section_title
;
Structure prediction by ZEFSAII (Michael W. Deem and Ramdas Pophale) SiO2 
 PCOD9265393
Probable space group: C 2/C
;
_chemical_formula_sum "Si O2"
_cell_formula_units_Z 48
_cell_length_a 11.993474
_cell_length_b 19.886817
_cell_length_c 12.948442
_cell_angle_alpha 90.000000
_cell_angle_beta 128.795679
_cell_angle_gamma 90.000000
_cell_volume 2407.021425
_symmetry_space_group_name_H-M "C 2/C"
_symmetry_group_IT_number 15
_symmetry_cell_setting 'monoclinic'
loop_
_space_group_symop_operation_xyz
x,y,z
-x,y,1/2-z
-x,-y,-z
x,-y,1/2+z
1/2+x,1/2+y,z
1/2-x,1/2+y,1/2-z
1/2-x,1/2-y,-z
1/2+x,1/2-y,1/2+z
loop_
_atom_site_type_symbol
_atom_site_label
_atom_site_fract_x
_atom_site_fract_y
_atom_site_fract_z
Si Si1 0.030253 0.815485 0.971739
Si Si2 0.511920 0.547844 0.136294
Si Si3 0.637970 0.203359 0.497761
Si Si4 0.000000 0.395142 0.750000
Si Si5 0.302428 0.143880 0.755056
Si Si6 0.742434 0.006003 0.844219
Si Si7 0.500000 0.752201 0.250000
O O1 0.150501 0.843659 0.115628
O O2 0.956095 0.756766 0.992511
O O3 0.942413 0.882132 0.892177
O O4 0.078346 0.790263 0.885500
O O5 0.500000 0.557561 0.250000
O O6 0.644847 0.501305 0.184558
O O7 0.358291 0.521580 0.003328
O O8 0.750000 0.250000 0.500000
O O9 0.547947 0.155032 0.370068
O O10 0.702922 0.156305 0.625852
O O11 0.864527 0.443985 0.697278
O O12 0.349792 0.070907 0.742527
O O13 0.396899 0.200831 0.755570
#
# Coordination Sequence:
#
# PCOD9265393 Si02
#       7
#     8   8   8   4   8   8   4
#     4  10  20  39  62  91 117 159 215 256 312 380
#     4  10  21  42  67  91 125 174 213 268 317 390
#     4  11  24  41  63  92 128 169 209 264 329 383
#     4  12  25  44  66  98 133 170 216 278 320 392
#     4  10  22  39  59  89 123 165 204 260 318 377
#     4  10  24  42  62  95 129 166 223 256 326 392
#     4  10  19  36  60  88 123 156 202 264 316 370
#
# _framework density 19.941659000000001
#
# number of rings (size 3 to 8) (size 9 to 14) (size 15 to 20)
#    0.000    1.667    0.833    3.000    2.333    2.000 
#   12.000    0.000    0.000    0.000    0.000    0.000 
#    0.000    0.000    0.000    0.000    0.000    0.000 
#
# Total GULP energy -133668.650224 kJ/mol
# GULP energy per Si atom -5569.527093 kJ/mol
# Density = 1.989627 g / cm^3
# Si number density = 19.941659 Si / 1000 Ang^3
#
#
#
# Elastic Constant Matrix: (Units=GPa)
#
#
# Indices 1 2 3 4 5 6 
#
# 1 68.3501 37.6884 53.1866 0.0000 -16.3638 0.0000
# 2 37.6884 105.7481 53.7207 0.0000 -6.6376 0.0000
# 3 53.1866 53.7207 130.3517 0.0000 -28.5579 0.0000
# 4 0.0000 0.0000 0.0000 15.9684 0.0000 4.2913
# 5 -16.3638 -6.6376 -28.5579 0.0000 25.3191 0.0000
# 6 0.0000 0.0000 0.0000 4.2913 0.0000 34.9258
#
#
#
# Elastic Compliance Matrix: (Units=1/GPa)
#
#
# Indices 1 2 3 4 5 6 
#
# 1 0.023836 -0.004939 -0.006108 0.000000 0.007221 0.000000
# 2 -0.004939 0.013185 -0.004464 0.000000 -0.004770 0.000000
# 3 -0.006108 -0.004464 0.014454 0.000000 0.011185 0.000000
# 4 0.000000 0.000000 0.000000 0.064762 0.000000 -0.007957
# 5 0.007221 -0.004770 0.011185 0.000000 0.055528 0.000000
# 6 0.000000 0.000000 0.000000 -0.007957 0.000000 0.029610
#
#
# Mechanical properties :
#
#
# Convention : Reuss Voigt Hill
#
# Bulk Modulus (GPa) = 48.89248 65.96015 57.42631
# Shear Modulus (GPa) = 20.90191 25.89961 23.40076
#
# Velocity S-wave (km/s) = 3.24103 3.60775 3.42930
# Velocity P-wave (km/s) = 6.21101 7.10654 6.67381
#
# Compressibility (1/GPa) = 0.02045304
#
# Stress axis : x y z
#
# Youngs Moduli (GPa) = 41.95411 75.84535 69.18588
#
# Poissons Ratio (x) = 0.37458 0.42260
# Poissons Ratio (y) = 0.20720 0.30882
# Poissons Ratio (z) = 0.25626 0.33855
#
# Static dielectric constant tensor:
#      x y z
#    x 1.705580 0.000000 -0.004820 
#    y 0.000000 1.789230 0.000000 
#    z -0.004820 0.000000 1.694750 
# 
# From -- ./inp_files/87824.got.cif
#   From: 2010.05.17/outbox.cif.g08.bks.cpg/sg15_44_cif.got.tgz:87824.got - 2010.06.03 18:47:42.
