data_PCOD9265135
_publ_section_title
;
Structure prediction by ZEFSAII (Michael W. Deem and Ramdas Pophale) SiO2 
 PCOD9265135
Probable space group: C 2/C
;
_chemical_formula_sum "Si O2"
_cell_formula_units_Z 56
_cell_length_a 8.898163
_cell_length_b 19.175247
_cell_length_c 23.510178
_cell_angle_alpha 90.000000
_cell_angle_beta 47.041465
_cell_angle_gamma 90.000000
_cell_volume 2935.739940
_symmetry_space_group_name_H-M "C 2/C"
_symmetry_group_IT_number 15
_symmetry_cell_setting 'monoclinic'
loop_
_space_group_symop_operation_xyz
x,y,z
-x,y,1/2-z
-x,-y,-z
x,-y,1/2+z
1/2+x,1/2+y,z
1/2-x,1/2+y,1/2-z
1/2-x,1/2-y,-z
1/2+x,1/2-y,1/2+z
loop_
_atom_site_type_symbol
_atom_site_label
_atom_site_fract_x
_atom_site_fract_y
_atom_site_fract_z
Si Si1 0.141804 0.858540 0.422773
Si Si2 0.160749 0.972495 0.594160
Si Si3 0.471060 0.218767 0.456711
Si Si4 0.909667 0.356021 0.465558
Si Si5 0.773232 0.522428 0.801975
Si Si6 0.147161 0.472873 0.346204
Si Si7 0.693275 0.077288 0.037795
O O1 0.271680 0.843620 0.445743
O O2 0.245237 0.912893 0.352432
O O3 0.115369 0.782475 0.401058
O O4 0.918808 0.893264 0.496862
O O5 0.272508 0.905054 0.541512
O O6 0.208760 0.984147 0.647915
O O7 0.259590 0.037718 0.533890
O O8 0.921483 0.972543 0.640065
O O9 0.250000 0.250000 0.500000
O O10 0.509923 0.204344 0.513777
O O11 0.457174 0.143224 0.430923
O O12 0.093386 0.402118 0.392861
O O13 0.762722 0.543484 0.738357
O O14 0.000000 0.491447 0.750000
O O15 0.933398 0.517915 0.395770
#
# Coordination Sequence:
#
# PCOD9265135 Si02
#       7
#     8   8   8   8   8   8   8
#     4  10  22  34  56  87 116 155 191 235 288 346
#     4  10  20  34  58  87 111 145 195 245 293 337
#     4  10  19  36  58  83 114 146 192 237 286 335
#     4  11  19  35  60  88 113 144 200 248 284 340
#     4  11  23  36  53  85 119 155 183 234 301 358
#     4  11  19  35  60  83 118 145 191 244 301 345
#     4   9  18  34  59  89 108 145 194 249 285 333
#
# _framework density 19.075258000000002
#
# number of rings (size 3 to 8) (size 9 to 14) (size 15 to 20)
#    0.000    1.714    4.286    1.714    2.000    1.714 
#    0.000    0.000    3.143    0.000    0.000    0.000 
#    0.000    0.000    0.000    0.000    0.000    0.000 
#
# Total GULP energy -155914.988956 kJ/mol
# GULP energy per Si atom -5568.392463 kJ/mol
# Density = 1.903184 g / cm^3
# Si number density = 19.075258 Si / 1000 Ang^3
#
#
#
# Elastic Constant Matrix: (Units=GPa)
#
#
# Indices 1 2 3 4 5 6 
#
# 1 101.0203 22.0328 30.0722 0.0009 6.9946 -0.0009
# 2 22.0328 59.9572 16.0830 0.0009 0.6291 -0.0007
# 3 30.0722 16.0830 45.7447 0.0005 9.2620 -0.0007
# 4 0.0009 0.0009 0.0005 11.8776 -0.0011 2.0362
# 5 6.9946 0.6291 9.2620 -0.0011 28.8548 0.0008
# 6 -0.0009 -0.0007 -0.0007 2.0362 0.0008 31.4723
#
#
#
# Elastic Compliance Matrix: (Units=1/GPa)
#
#
# Indices 1 2 3 4 5 6 
#
# 1 0.012698 -0.002713 -0.007254 -0.000001 -0.000691 0.000000
# 2 -0.002713 0.019082 -0.005320 -0.000001 0.001949 0.000000
# 3 -0.007254 -0.005320 0.030075 -0.000001 -0.007779 0.000001
# 4 -0.000001 -0.000001 -0.000001 0.085136 0.000004 -0.005508
# 5 -0.000691 0.001949 -0.007779 0.000004 0.037278 -0.000001
# 6 0.000000 0.000000 0.000001 -0.005508 -0.000001 0.032130
#
#
# Mechanical properties :
#
#
# Convention : Reuss Voigt Hill
#
# Bulk Modulus (GPa) = 31.96864 38.12204 35.04534
# Shear Modulus (GPa) = 19.42501 23.67655 21.55078
#
# Velocity S-wave (km/s) = 3.19460 3.52691 3.36486
# Velocity P-wave (km/s) = 5.51388 6.05095 5.78865
#
# Compressibility (1/GPa) = 0.03128065
#
# Stress axis : x y z
#
# Youngs Moduli (GPa) = 78.75310 52.40490 33.25073
#
# Poissons Ratio (x) = 0.14218 0.24119
# Poissons Ratio (y) = 0.21367 0.17689
# Poissons Ratio (z) = 0.57126 0.27880
#
# Static dielectric constant tensor:
#      x y z
#    x 1.752770 0.000000 -0.012950 
#    y 0.000000 1.691400 0.000000 
#    z -0.012950 0.000000 1.653010 
# 
# From -- ./inp_files/191586.got.cif
#   From: 2010.05.17/outbox.cif.g08.bks.cpg/sg15_96_cif.got.tgz:191586.got - 2010.06.03 18:47:42.
