data_PCOD9265840
_publ_section_title
;
Structure prediction by ZEFSAII (Michael W. Deem and Ramdas Pophale) SiO2 
 PCOD9265840
Probable space group: C 2/C
;
_chemical_formula_sum "Si O2"
_cell_formula_units_Z 56
_cell_length_a 11.868227
_cell_length_b 20.525573
_cell_length_c 8.981777
_cell_angle_alpha 90.000000
_cell_angle_beta 96.654031
_cell_angle_gamma 90.000000
_cell_volume 2173.241900
_symmetry_space_group_name_H-M "C 2/C"
_symmetry_group_IT_number 15
_symmetry_cell_setting 'monoclinic'
loop_
_space_group_symop_operation_xyz
x,y,z
-x,y,1/2-z
-x,-y,-z
x,-y,1/2+z
1/2+x,1/2+y,z
1/2-x,1/2+y,1/2-z
1/2-x,1/2-y,-z
1/2+x,1/2-y,1/2+z
loop_
_atom_site_type_symbol
_atom_site_label
_atom_site_fract_x
_atom_site_fract_y
_atom_site_fract_z
Si Si1 0.206880 0.196951 0.106285
Si Si2 0.628383 0.629987 0.544588
Si Si3 0.000000 0.960907 0.250000
Si Si4 0.500000 0.322885 0.750000
Si Si5 0.357423 0.992931 0.244660
Si Si6 0.610493 0.903056 0.504143
Si Si7 0.147156 0.272865 0.594417
Si Si8 0.704061 0.555404 0.971356
O O1 0.093446 0.217476 0.176408
O O2 0.300554 0.193836 0.251142
O O3 0.180092 0.129295 0.018197
O O4 0.250000 0.250000 0.000000
O O5 0.578880 0.580778 0.654024
O O6 0.564908 0.632955 0.377758
O O7 0.758363 0.613081 0.522905
O O8 0.600810 0.700977 0.613918
O O9 0.097252 0.983728 0.383986
O O10 0.400701 0.054869 0.347279
O O11 0.257308 0.022795 0.125415
O O12 0.427349 0.951571 0.132395
O O13 0.301958 0.946555 0.361106
O O14 0.566601 0.829100 0.514645
O O15 0.250000 0.250000 0.500000
#
# Coordination Sequence:
#
# PCOD9265840 Si02
#       8
#     8   8   4   4   8   8   8   8
#     4  12  24  39  62  86 118 159 201 255 311 355
#     4  11  22  37  57  82 118 161 199 246 306 344
#     4  12  22  34  53  80 116 159 202 246 290 354
#     4  12  22  38  59  86 124 153 198 248 300 360
#     4  10  21  35  53  77 115 158 208 241 278 351
#     4  10  19  37  54  77 112 154 197 246 289 346
#     4  10  20  37  59  81 111 158 195 249 305 353
#     4  11  22  38  52  81 118 162 203 248 283 352
#
# _framework density 25.767954
#
# number of rings (size 3 to 8) (size 9 to 14) (size 15 to 20)
#    0.000    1.143    7.143    0.857    2.000    0.571 
#    0.000    0.000    0.000    0.000    0.000    0.000 
#    0.000   29.714    0.000    0.000    0.000    0.000 
#
# Total GULP energy -156430.974969 kJ/mol
# GULP energy per Si atom -5586.820535 kJ/mol
# Density = 2.570931 g / cm^3
# Si number density = 25.767954 Si / 1000 Ang^3
#
#
#
# Elastic Constant Matrix: (Units=GPa)
#
#
# Indices 1 2 3 4 5 6 
#
# 1 48.3048 26.2722 35.2949 0.0000 -7.0157 0.0000
# 2 26.2722 127.2725 53.7542 0.0000 -5.1830 0.0000
# 3 35.2949 53.7542 162.5705 0.0000 -0.1213 0.0000
# 4 0.0000 0.0000 0.0000 30.2200 0.0000 -2.6398
# 5 -7.0157 -5.1830 -0.1213 0.0000 56.4999 0.0000
# 6 0.0000 0.0000 0.0000 -2.6398 0.0000 16.2820
#
#
#
# Elastic Compliance Matrix: (Units=1/GPa)
#
#
# Indices 1 2 3 4 5 6 
#
# 1 0.026324 -0.003372 -0.004598 0.000000 0.002949 0.000000
# 2 -0.003372 0.009604 -0.002443 0.000000 0.000457 0.000000
# 3 -0.004598 -0.002443 0.007957 0.000000 -0.000778 0.000000
# 4 0.000000 0.000000 0.000000 0.033566 0.000000 0.005442
# 5 0.002949 0.000457 -0.000778 0.000000 0.018106 0.000000
# 6 0.000000 0.000000 0.000000 0.005442 0.000000 0.062300
#
#
# Mechanical properties :
#
#
# Convention : Reuss Voigt Hill
#
# Bulk Modulus (GPa) = 43.36822 63.19896 53.28359
# Shear Modulus (GPa) = 26.82872 35.45545 31.14209
#
# Velocity S-wave (km/s) = 3.23021 3.71341 3.48020
# Velocity P-wave (km/s) = 5.54790 6.55479 6.07225
#
# Compressibility (1/GPa) = 0.02305836
#
# Stress axis : x y z
#
# Youngs Moduli (GPa) = 37.98860 104.12717 125.68113
#
# Poissons Ratio (x) = 0.35110 0.57787
# Poissons Ratio (y) = 0.12809 0.30705
# Poissons Ratio (z) = 0.17467 0.25439
#
# Static dielectric constant tensor:
#      x y z
#    x 2.258190 0.000000 0.068960 
#    y 0.000000 2.097620 0.000000 
#    z 0.068960 0.000000 2.036700 
# 
# From -- ./inp_files/41284.got.cif
#   From: 2010.05.17/outbox.cif.g08.bks.cpg/sg15_21_cif.got.tgz:41284.got - 2010.06.03 18:47:42.
