data_PCOD9265910
_publ_section_title
;
Structure prediction by ZEFSAII (Michael W. Deem and Ramdas Pophale) SiO2 
 PCOD9265910
Probable space group: C 2/C
;
_chemical_formula_sum "Si O2"
_cell_formula_units_Z 64
_cell_length_a 11.825404
_cell_length_b 24.471225
_cell_length_c 11.789028
_cell_angle_alpha 90.000000
_cell_angle_beta 88.148964
_cell_angle_gamma 90.000000
_cell_volume 3409.753749
_symmetry_space_group_name_H-M "C 2/C"
_symmetry_group_IT_number 15
_symmetry_cell_setting 'monoclinic'
loop_
_space_group_symop_operation_xyz
x,y,z
-x,y,1/2-z
-x,-y,-z
x,-y,1/2+z
1/2+x,1/2+y,z
1/2-x,1/2+y,1/2-z
1/2-x,1/2-y,-z
1/2+x,1/2-y,1/2+z
loop_
_atom_site_type_symbol
_atom_site_label
_atom_site_fract_x
_atom_site_fract_y
_atom_site_fract_z
Si Si1 0.875258 0.447695 0.197386
Si Si2 0.411609 0.164240 0.063291
Si Si3 0.366961 0.737698 0.274118
Si Si4 0.225487 0.650044 0.661569
Si Si5 0.326299 0.699110 0.034461
Si Si6 0.088438 0.211266 0.970152
Si Si7 0.865078 0.430041 0.733545
Si Si8 0.653108 0.112702 0.028889
O O1 0.796275 0.405405 0.269568
O O2 0.831083 0.509809 0.194759
O O3 0.000000 0.446138 0.250000
O O4 0.885893 0.426562 0.069337
O O5 0.394227 0.228614 0.086113
O O6 0.352578 0.121217 0.149706
O O7 0.546074 0.151913 0.059813
O O8 0.363359 0.152255 0.940030
O O9 0.500000 0.748163 0.250000
O O10 0.306088 0.796094 0.265216
O O11 0.327947 0.699496 0.172351
O O12 0.359945 0.715616 0.403385
O O13 0.346419 0.664818 0.602002
O O14 0.261467 0.646959 0.989749
O O15 0.250000 0.750000 0.000000
O O16 0.454726 0.702842 0.988115
O O17 0.814985 0.418367 0.857798
O O18 0.000000 0.433230 0.750000
#
# Coordination Sequence:
#
# PCOD9265910 Si02
#       8
#     8   8   8   8   8   8   8   8
#     4  11  22  39  60  84 118 157 197 239 293 357
#     4  10  19  37  57  88 120 151 187 240 294 347
#     4   9  19  34  55  81 117 158 193 225 282 353
#     4  11  21  33  61  85 117 155 193 233 285 346
#     4  11  21  37  56  83 124 160 187 236 293 352
#     4  10  22  37  56  87 122 156 195 235 285 357
#     4   9  23  36  58  87 118 151 191 251 300 340
#     4  11  22  37  58  89 118 152 196 235 301 348
#
# _framework density 18.769684000000002
#
# number of rings (size 3 to 8) (size 9 to 14) (size 15 to 20)
#    0.000    1.750    2.500    2.625    7.000    1.500 
#    0.000    2.500    0.000    0.750    3.250    0.000 
#    0.000    0.000    0.000    0.000    0.000    0.000 
#
# Total GULP energy -178587.740313 kJ/mol
# GULP energy per Si atom -5580.866885 kJ/mol
# Density = 1.872696 g / cm^3
# Si number density = 18.769684 Si / 1000 Ang^3
#
#
#
# Elastic Constant Matrix: (Units=GPa)
#
#
# Indices 1 2 3 4 5 6 
#
# 1 79.9092 27.1951 12.3802 0.0000 -6.9966 0.0000
# 2 27.1951 84.2502 36.4600 0.0000 -11.7765 0.0000
# 3 12.3802 36.4600 66.6080 0.0000 -5.6110 0.0000
# 4 0.0000 0.0000 0.0000 20.5115 0.0000 0.3779
# 5 -6.9966 -11.7765 -5.6110 0.0000 21.8154 0.0000
# 6 0.0000 0.0000 0.0000 0.3779 0.0000 12.1077
#
#
#
# Elastic Compliance Matrix: (Units=1/GPa)
#
#
# Indices 1 2 3 4 5 6 
#
# 1 0.014160 -0.004194 -0.000148 0.000000 0.002240 0.000000
# 2 -0.004194 0.017705 -0.008402 0.000000 0.006052 0.000000
# 3 -0.000148 -0.008402 0.019680 0.000000 0.000479 0.000000
# 4 0.000000 0.000000 0.000000 0.048781 0.000000 -0.001523
# 5 0.002240 0.006052 0.000479 0.000000 0.049947 0.000000
# 6 0.000000 0.000000 0.000000 -0.001523 0.000000 0.082639
#
#
# Mechanical properties :
#
#
# Convention : Reuss Voigt Hill
#
# Bulk Modulus (GPa) = 38.37544 42.53755 40.45650
# Shear Modulus (GPa) = 18.72047 21.20240 19.96143
#
# Velocity S-wave (km/s) = 3.16156 3.36461 3.26466
# Velocity P-wave (km/s) = 5.81524 6.14868 5.98428
#
# Compressibility (1/GPa) = 0.02605834
#
# Stress axis : x y z
#
# Youngs Moduli (GPa) = 70.61922 56.48071 50.81252
#
# Poissons Ratio (x) = 0.23688 0.00750
# Poissons Ratio (y) = 0.29617 0.42694
# Poissons Ratio (z) = 0.01042 0.47456
#
# Static dielectric constant tensor:
#      x y z
#    x 1.645960 0.000000 -0.021770 
#    y 0.000000 1.666010 0.000000 
#    z -0.021770 0.000000 1.716240 
# 
# From -- ./inp_files/90829.got.cif
#   From: 2010.05.17/outbox.cif.g08.bks.cpg/sg15_46_cif.got.tgz:90829.got - 2010.06.03 18:47:42.
