data_PCOD9265239
_publ_section_title
;
Structure prediction by ZEFSAII (Michael W. Deem and Ramdas Pophale) SiO2 
 PCOD9265239
Probable space group: C 2/C
;
_chemical_formula_sum "Si O2"
_cell_formula_units_Z 56
_cell_length_a 8.203875
_cell_length_b 11.418258
_cell_length_c 29.631268
_cell_angle_alpha 90.000000
_cell_angle_beta 110.740293
_cell_angle_gamma 90.000000
_cell_volume 2595.801035
_symmetry_space_group_name_H-M "C 2/C"
_symmetry_group_IT_number 15
_symmetry_cell_setting 'monoclinic'
loop_
_space_group_symop_operation_xyz
x,y,z
-x,y,1/2-z
-x,-y,-z
x,-y,1/2+z
1/2+x,1/2+y,z
1/2-x,1/2+y,1/2-z
1/2-x,1/2-y,-z
1/2+x,1/2-y,1/2+z
loop_
_atom_site_type_symbol
_atom_site_label
_atom_site_fract_x
_atom_site_fract_y
_atom_site_fract_z
Si Si1 0.836074 0.369630 0.131604
Si Si2 0.754402 0.397852 0.319854
Si Si3 0.111432 0.882651 0.017458
Si Si4 0.296614 0.115614 0.725169
Si Si5 0.308738 0.115730 0.365778
Si Si6 0.917831 0.622363 0.476906
Si Si7 0.988025 0.686629 0.297786
O O1 0.727758 0.393380 0.075138
O O2 0.774699 0.434702 0.172277
O O3 0.796893 0.235202 0.141009
O O4 0.044118 0.377651 0.147057
O O5 0.743313 0.445278 0.267043
O O6 0.689152 0.503801 0.344300
O O7 0.644977 0.280053 0.315554
O O8 0.011130 0.756309 0.009580
O O9 0.236374 0.873831 0.986282
O O10 0.000000 0.000000 0.000000
O O11 0.500000 0.143623 0.750000
O O12 0.183990 0.232877 0.719687
O O13 0.399943 0.105853 0.422209
O O14 0.455781 0.118936 0.340841
O O15 0.000000 0.500000 0.500000
O O16 0.000000 0.624258 0.250000
#
# Coordination Sequence:
#
# PCOD9265239 Si02
#       7
#     8   8   8   8   8   8   8
#     4   9  19  38  58  83 118 152 196 250 301 356
#     4  10  19  36  59  84 118 152 190 243 295 357
#     4  10  22  41  65  90 119 161 211 259 310 370
#     4   8  16  33  56  83 120 153 183 240 299 353
#     4  10  21  37  59  84 115 158 198 238 303 366
#     4  10  22  41  61  88 124 157 200 260 313 366
#     4   9  19  36  56  86 119 150 199 245 286 358
#
# _framework density 21.573302000000002
#
# number of rings (size 3 to 8) (size 9 to 14) (size 15 to 20)
#    0.000    2.571    0.000    0.857    0.000    5.714 
#    0.000   35.714    0.000    0.000    0.000    0.000 
#    0.000    0.000    0.000    0.000    0.000    0.000 
#
# Total GULP energy -155918.460409 kJ/mol
# GULP energy per Si atom -5568.516443 kJ/mol
# Density = 2.152420 g / cm^3
# Si number density = 21.573302 Si / 1000 Ang^3
#
#
#
# Elastic Constant Matrix: (Units=GPa)
#
#
# Indices 1 2 3 4 5 6 
#
# 1 64.5397 39.3122 33.0049 0.0000 -7.2002 0.0000
# 2 39.3122 131.7235 58.8979 0.0000 6.7970 0.0000
# 3 33.0049 58.8979 124.5542 0.0000 -21.1563 0.0000
# 4 0.0000 0.0000 0.0000 39.5391 0.0000 -1.9422
# 5 -7.2002 6.7970 -21.1563 0.0000 24.5741 0.0000
# 6 0.0000 0.0000 0.0000 -1.9422 0.0000 26.2963
#
#
#
# Elastic Compliance Matrix: (Units=1/GPa)
#
#
# Indices 1 2 3 4 5 6 
#
# 1 0.020504 -0.005665 -0.001719 0.000000 0.006094 0.000000
# 2 -0.005665 0.012625 -0.006259 0.000000 -0.010540 0.000000
# 3 -0.001719 -0.006259 0.013648 0.000000 0.012978 0.000000
# 4 0.000000 0.000000 0.000000 0.025384 0.000000 0.001875
# 5 0.006094 -0.010540 0.012978 0.000000 0.056567 0.000000
# 6 0.000000 0.000000 0.000000 0.001875 0.000000 0.038167
#
#
# Mechanical properties :
#
#
# Convention : Reuss Voigt Hill
#
# Bulk Modulus (GPa) = 51.30731 64.80528 58.05630
# Shear Modulus (GPa) = 24.91550 30.72205 27.81878
#
# Velocity S-wave (km/s) = 3.40210 3.77779 3.59486
# Velocity P-wave (km/s) = 6.26632 7.00954 6.64833
#
# Compressibility (1/GPa) = 0.01949040
#
# Stress axis : x y z
#
# Youngs Moduli (GPa) = 48.77056 79.20826 73.26929
#
# Poissons Ratio (x) = 0.44872 0.12597
# Poissons Ratio (y) = 0.27629 0.45860
# Poissons Ratio (z) = 0.08385 0.49578
#
# Static dielectric constant tensor:
#      x y z
#    x 1.804680 0.000000 0.013760 
#    y 0.000000 1.658200 0.000000 
#    z 0.013760 0.000000 1.843980 
# 
# From -- ./inp_files/307230.got.cif
#   From: 2010.05.17/outbox.cif.g08.bks.cpg/sg15_154_cif.got.tgz:307230.got - 2010.06.03 18:47:42.
