data_PCOD9265850
_publ_section_title
;
Structure prediction by ZEFSAII (Michael W. Deem and Ramdas Pophale) SiO2 
 PCOD9265850
Probable space group: C 2/C
;
_chemical_formula_sum "Si O2"
_cell_formula_units_Z 32
_cell_length_a 13.129345
_cell_length_b 26.062522
_cell_length_c 11.731737
_cell_angle_alpha 90.000000
_cell_angle_beta 23.005500
_cell_angle_gamma 90.000000
_cell_volume 1568.909997
_symmetry_space_group_name_H-M "C 2/C"
_symmetry_group_IT_number 15
_symmetry_cell_setting 'monoclinic'
loop_
_space_group_symop_operation_xyz
x,y,z
-x,y,1/2-z
-x,-y,-z
x,-y,1/2+z
1/2+x,1/2+y,z
1/2-x,1/2+y,1/2-z
1/2-x,1/2-y,-z
1/2+x,1/2-y,1/2+z
loop_
_atom_site_type_symbol
_atom_site_label
_atom_site_fract_x
_atom_site_fract_y
_atom_site_fract_z
Si Si1 0.701027 0.446513 0.201590
Si Si2 0.936965 0.775942 0.449615
Si Si3 0.895060 0.057450 0.237802
Si Si4 0.703102 0.112349 0.227706
O O1 0.748031 0.502606 0.103400
O O2 0.639597 0.453659 0.400697
O O3 0.427030 0.423519 0.443009
O O4 0.929699 0.405205 0.958041
O O5 0.000000 0.771848 0.250000
O O6 0.721657 0.733886 0.708986
O O7 0.798175 0.830061 0.613010
O O8 0.000000 0.075830 0.250000
O O9 0.722701 0.096720 0.341348
#
# Coordination Sequence:
#
# PCOD9265850 Si02
#       4
#     8   8   8   8
#     4   9  20  35  53  82 112 148 181 219 269 323
#     4  10  21  37  59  83 107 140 183 232 284 331
#     4   9  20  35  55  81 114 148 183 222 267 326
#     4  10  19  37  55  79 112 145 180 223 278 325
#
# _framework density 20.396325999999998
#
# number of rings (size 3 to 8) (size 9 to 14) (size 15 to 20)
#    1.500    1.000    0.000    2.250    0.000    2.000 
#    0.000    2.500    0.000    1.500    0.000    0.000 
#    0.000    0.000    0.000    0.000    0.000    0.000 
#
# Total GULP energy -89116.230959 kJ/mol
# GULP energy per Si atom -5569.764435 kJ/mol
# Density = 2.034990 g / cm^3
# Si number density = 20.396326 Si / 1000 Ang^3
#
#
#
# Elastic Constant Matrix: (Units=GPa)
#
#
# Indices 1 2 3 4 5 6 
#
# 1 -0.0128 -44.2696 -23.7849 0.1791 25.0145 0.1298
# 2 -44.2696 66.6159 38.3966 0.1493 10.5447 0.1458
# 3 -23.7849 38.3966 69.7458 0.3524 -2.5609 0.2249
# 4 0.1791 0.1493 0.3524 23.0133 -0.0742 -7.1947
# 5 25.0145 10.5447 -2.5609 -0.0742 10.2554 -0.0499
# 6 0.1298 0.1458 0.2249 -7.1947 -0.0499 8.3301
#
#
#
# Elastic Compliance Matrix: (Units=1/GPa)
#
#
# Indices 1 2 3 4 5 6 
#
# 1 -0.005601 -0.010624 0.004883 0.000292 0.025810 0.000548
# 2 -0.010624 0.011683 -0.009636 0.000387 0.011501 0.000624
# 3 0.004883 -0.009636 0.021437 -0.000601 0.003341 -0.000985
# 4 0.000292 0.000387 -0.000601 0.059530 -0.000580 0.051418
# 5 0.025810 0.011501 0.003341 -0.000580 0.023554 -0.001054
# 6 0.000548 0.000624 -0.000985 0.051418 -0.001054 0.164456
#
#
# Mechanical properties :
#
#
# Convention : Reuss Voigt Hill
#
# Bulk Modulus (GPa) = -309.00320 8.55923 -150.22198
# Shear Modulus (GPa) = 16.40767 19.38688 17.89727
#
# Velocity S-wave (km/s) = 2.83935 3.08638 2.96543
# Velocity P-wave (km/s) = 11.87767 4.11175 7.87949
#
# Compressibility (1/GPa) = -0.00323621
#
# Stress axis : x y z
#
# Youngs Moduli (GPa) = -178.53490 85.59718 46.64851
#
# Poissons Ratio (x) = 0.90940 -0.22779
# Poissons Ratio (y) = -1.89678 0.44952
# Poissons Ratio (z) = 0.87181 0.82484
#
# Static dielectric constant tensor:
#      x y z
#    x 1.773650 0.000000 0.005040 
#    y 0.000000 1.730040 0.000000 
#    z 0.005040 0.000000 1.774780 
# 
# From -- ./inp_files/156949.got.cif
#   From: 2010.05.17/outbox.cif.g08.bks.cpg/sg15_79_cif.got.tgz:156949.got - 2010.06.03 18:47:42.
