data_PCOD9265252
_publ_section_title
;
Structure prediction by ZEFSAII (Michael W. Deem and Ramdas Pophale) SiO2 
 PCOD9265252
Probable space group: C 2/C
;
_chemical_formula_sum "Si O2"
_cell_formula_units_Z 48
_cell_length_a 28.749066
_cell_length_b 19.104417
_cell_length_c 8.596940
_cell_angle_alpha 90.000000
_cell_angle_beta 33.606595
_cell_angle_gamma 90.000000
_cell_volume 2613.419805
_symmetry_space_group_name_H-M "C 2/C"
_symmetry_group_IT_number 15
_symmetry_cell_setting 'monoclinic'
loop_
_space_group_symop_operation_xyz
x,y,z
-x,y,1/2-z
-x,-y,-z
x,-y,1/2+z
1/2+x,1/2+y,z
1/2-x,1/2+y,1/2-z
1/2-x,1/2-y,-z
1/2+x,1/2-y,1/2+z
loop_
_atom_site_type_symbol
_atom_site_label
_atom_site_fract_x
_atom_site_fract_y
_atom_site_fract_z
Si Si1 0.500000 0.793550 0.750000
Si Si2 0.920376 0.906873 0.380900
Si Si3 0.915991 0.408933 0.776857
Si Si4 0.000000 0.526648 0.750000
Si Si5 0.859549 0.967744 0.256529
Si Si6 0.281847 0.591798 0.675722
Si Si7 0.165605 0.794908 0.712459
O O1 0.465312 0.843346 0.709999
O O2 0.582108 0.752523 0.457158
O O3 0.922361 0.925920 0.194902
O O4 0.844952 0.852837 0.621298
O O5 0.000000 0.875966 0.250000
O O6 0.905712 0.978063 0.515737
O O7 0.939784 0.475641 0.818094
O O8 0.947201 0.427770 0.517997
O O9 0.817153 0.396388 0.058775
O O10 0.809027 0.918683 0.278842
O O11 0.804290 0.019222 0.521103
O O12 0.327592 0.656080 0.460173
O O13 0.250000 0.750000 0.500000
#
# Coordination Sequence:
#
# PCOD9265252 Si02
#       7
#     4   8   8   4   8   8   8
#     4  11  22  40  62  82 114 159 206 232 292 349
#     4  10  19  36  61  83 117 147 189 243 290 351
#     4  10  19  36  59  85 118 154 188 246 286 353
#     4   9  20  34  56  90 114 147 196 238 300 335
#     4   9  20  34  57  94 111 148 189 241 300 347
#     4  10  19  36  60  85 122 150 191 243 292 353
#     4  11  22  40  60  82 114 162 200 237 288 352
#
# _framework density 18.366738999999999
#
# number of rings (size 3 to 8) (size 9 to 14) (size 15 to 20)
#    0.000    2.000    2.500    1.500    0.000    0.000 
#    6.000    2.500    0.000    0.000    0.000    0.000 
#    0.000    0.000    0.000    0.000    0.000    0.000 
#
# Total GULP energy -133727.126585 kJ/mol
# GULP energy per Si atom -5571.963608 kJ/mol
# Density = 1.832494 g / cm^3
# Si number density = 18.366739 Si / 1000 Ang^3
#
#
#
# Elastic Constant Matrix: (Units=GPa)
#
#
# Indices 1 2 3 4 5 6 
#
# 1 111.2061 45.2252 51.6036 0.0000 9.7919 0.0000
# 2 45.2252 90.7996 51.9241 0.0000 -1.1803 0.0000
# 3 51.6036 51.9241 105.1829 0.0000 -6.1459 0.0000
# 4 0.0000 0.0000 0.0000 29.2131 0.0000 -9.6790
# 5 9.7919 -1.1803 -6.1459 0.0000 33.0843 0.0000
# 6 0.0000 0.0000 0.0000 -9.6790 0.0000 8.6217
#
#
#
# Elastic Compliance Matrix: (Units=1/GPa)
#
#
# Indices 1 2 3 4 5 6 
#
# 1 0.013278 -0.003883 -0.004888 0.000000 -0.004976 0.000000
# 2 -0.003883 0.016505 -0.006209 0.000000 0.000585 0.000000
# 3 -0.004888 -0.006209 0.015207 0.000000 0.004050 0.000000
# 4 0.000000 0.000000 0.000000 0.054505 0.000000 0.061189
# 5 -0.004976 0.000585 0.004050 0.000000 0.032472 0.000000
# 6 0.000000 0.000000 0.000000 0.061189 0.000000 0.184681
#
#
# Mechanical properties :
#
#
# Convention : Reuss Voigt Hill
#
# Bulk Modulus (GPa) = 66.53091 67.18827 66.85959
# Shear Modulus (GPa) = 14.21998 24.74618 19.48308
#
# Velocity S-wave (km/s) = 2.78551 3.67459 3.26050
# Velocity P-wave (km/s) = 6.82991 7.39354 7.11730
#
# Compressibility (1/GPa) = 0.01503061
#
# Stress axis : x y z
#
# Youngs Moduli (GPa) = 75.31341 60.58650 65.75831
#
# Poissons Ratio (x) = 0.23524 0.32145
# Poissons Ratio (y) = 0.29242 0.40829
# Poissons Ratio (z) = 0.36815 0.37618
#
# Static dielectric constant tensor:
#      x y z
#    x 1.645650 0.000000 -0.020240 
#    y 0.000000 1.647530 0.000000 
#    z -0.020240 0.000000 1.646780 
# 
# From -- ./inp_files/48752.got.cif
#   From: 2010.05.17/outbox.cif.g08.bks.cpg/sg15_25_cif.got.tgz:48752.got - 2010.06.03 18:47:42.
