data_PCOD9265353
_publ_section_title
;
Structure prediction by ZEFSAII (Michael W. Deem and Ramdas Pophale) SiO2 
 PCOD9265353
Probable space group: C 2/C
;
_chemical_formula_sum "Si O2"
_cell_formula_units_Z 40
_cell_length_a 8.276219
_cell_length_b 24.672792
_cell_length_c 11.201168
_cell_angle_alpha 90.000000
_cell_angle_beta 56.040465
_cell_angle_gamma 90.000000
_cell_volume 1897.118781
_symmetry_space_group_name_H-M "C 2/C"
_symmetry_group_IT_number 15
_symmetry_cell_setting 'monoclinic'
loop_
_space_group_symop_operation_xyz
x,y,z
-x,y,1/2-z
-x,-y,-z
x,-y,1/2+z
1/2+x,1/2+y,z
1/2-x,1/2+y,1/2-z
1/2-x,1/2-y,-z
1/2+x,1/2-y,1/2+z
loop_
_atom_site_type_symbol
_atom_site_label
_atom_site_fract_x
_atom_site_fract_y
_atom_site_fract_z
Si Si1 0.709647 0.907517 0.215429
Si Si2 0.085800 0.866245 0.920354
Si Si3 0.288376 0.320781 0.382469
Si Si4 0.520500 0.251549 0.612537
Si Si5 0.885600 0.981800 0.670003
O O1 0.500000 0.897032 0.250000
O O2 0.750833 0.872692 0.315429
O O3 0.727234 0.970843 0.240234
O O4 0.875478 0.887635 0.054210
O O5 0.178287 0.919553 0.823044
O O6 0.053568 0.813404 0.854155
O O7 0.195694 0.842851 0.990683
O O8 0.500000 0.298342 0.250000
O O9 0.113296 0.279423 0.428169
O O10 0.500000 0.224977 0.750000
O O11 0.750000 0.250000 0.500000
O O12 0.000000 0.984260 0.750000
O O13 0.000000 0.000000 0.500000
#
# Coordination Sequence:
#
# PCOD9265353 Si02
#       5
#     8   8   8   8   8
#     4  10  19  36  60  86 117 162 211 255 310 388
#     4  10  21  37  58  86 121 159 204 263 316 368
#     4  10  20  39  63  87 119 167 213 254 314 393
#     4  12  24  40  63  93 126 165 210 264 324 385
#     4  10  20  38  60  84 118 161 203 252 311 372
#
# _framework density 21.084603999999999
#
# number of rings (size 3 to 8) (size 9 to 14) (size 15 to 20)
#    0.000    1.600    0.000    8.400    0.000    0.000 
#    0.000   14.000    0.000    0.000    0.000    0.000 
#    0.000    0.000    0.000    0.000    0.000    0.000 
#
# Total GULP energy -111606.862281 kJ/mol
# GULP energy per Si atom -5580.343114 kJ/mol
# Density = 2.103661 g / cm^3
# Si number density = 21.084604 Si / 1000 Ang^3
#
#
#
# Elastic Constant Matrix: (Units=GPa)
#
#
# Indices 1 2 3 4 5 6 
#
# 1 147.3327 46.7283 41.7449 0.0000 6.2946 0.0000
# 2 46.7283 161.8222 10.0375 0.0000 -3.1900 0.0000
# 3 41.7449 10.0375 48.7858 0.0000 17.3589 0.0000
# 4 0.0000 0.0000 0.0000 13.0616 0.0000 -5.6105
# 5 6.2946 -3.1900 17.3589 0.0000 30.7885 0.0000
# 6 0.0000 0.0000 0.0000 -5.6105 0.0000 5.1499
#
#
#
# Elastic Compliance Matrix: (Units=1/GPa)
#
#
# Indices 1 2 3 4 5 6 
#
# 1 0.009948 -0.002255 -0.009059 0.000000 0.002840 0.000000
# 2 -0.002255 0.006844 0.000131 0.000000 0.001096 0.000000
# 3 -0.009059 0.000131 0.034475 0.000000 -0.017572 0.000000
# 4 0.000000 0.000000 0.000000 0.143901 0.000000 0.156771
# 5 0.002840 0.001096 -0.017572 0.000000 0.041920 0.000000
# 6 0.000000 0.000000 0.000000 0.156771 0.000000 0.364969
#
#
# Mechanical properties :
#
#
# Convention : Reuss Voigt Hill
#
# Bulk Modulus (GPa) = 34.60002 61.66246 48.13124
# Shear Modulus (GPa) = 7.88575 27.09534 17.49054
#
# Velocity S-wave (km/s) = 1.93602 3.58869 2.88330
# Velocity P-wave (km/s) = 4.63069 6.81765 5.82767
#
# Compressibility (1/GPa) = 0.02890172
#
# Stress axis : x y z
#
# Youngs Moduli (GPa) = 100.52457 146.10974 29.00694
#
# Poissons Ratio (x) = 0.32943 0.26277
# Poissons Ratio (y) = 0.22665 -0.00380
# Poissons Ratio (z) = 0.91063 -0.01915
#
# Static dielectric constant tensor:
#      x y z
#    x 1.735380 0.000000 0.042580 
#    y 0.000000 1.788140 0.000000 
#    z 0.042580 0.000000 1.870240 
# 
# From -- ./inp_files/78983.got.cif
#   From: 2010.05.17/outbox.cif.g08.bks.cpg/sg15_40_cif.got.tgz:78983.got - 2010.06.03 18:47:42.
