data_PCOD9265039
_publ_section_title
;
Structure prediction by ZEFSAII (Michael W. Deem and Ramdas Pophale) SiO2 
 PCOD9265039
Probable space group: C 2/C
;
_chemical_formula_sum "Si O2"
_cell_formula_units_Z 52
_cell_length_a 8.532462
_cell_length_b 11.153140
_cell_length_c 28.741080
_cell_angle_alpha 90.000000
_cell_angle_beta 118.860865
_cell_angle_gamma 90.000000
_cell_volume 2395.392991
_symmetry_space_group_name_H-M "C 2/C"
_symmetry_group_IT_number 15
_symmetry_cell_setting 'monoclinic'
loop_
_space_group_symop_operation_xyz
x,y,z
-x,y,1/2-z
-x,-y,-z
x,-y,1/2+z
1/2+x,1/2+y,z
1/2-x,1/2+y,1/2-z
1/2-x,1/2-y,-z
1/2+x,1/2-y,1/2+z
loop_
_atom_site_type_symbol
_atom_site_label
_atom_site_fract_x
_atom_site_fract_y
_atom_site_fract_z
Si Si1 0.105785 0.769316 0.678924
Si Si2 0.964117 0.269261 0.437952
Si Si3 0.978279 0.125787 0.934008
Si Si4 0.899501 0.038672 0.820461
Si Si5 0.270301 0.440745 0.492750
Si Si6 0.750000 0.750000 0.000000
Si Si7 0.500000 0.110364 0.750000
Si Si8 0.000000 0.800290 0.250000
O O1 0.086379 0.723718 0.623460
O O2 0.012232 0.689523 0.704816
O O3 0.315725 0.770905 0.721647
O O4 0.032490 0.903517 0.670403
O O5 0.803755 0.246389 0.450272
O O6 0.072932 0.389955 0.466393
O O7 0.100585 0.155228 0.462782
O O8 0.027460 0.259386 0.954689
O O9 0.936283 0.094128 0.876201
O O10 0.837329 0.067980 0.948921
O O11 0.176724 0.073391 0.980615
O O12 0.686806 0.041135 0.780208
O O13 0.991583 0.116464 0.794113
#
# Coordination Sequence:
#
# PCOD9265039 Si02
#       8
#     8   8   8   8   8   4   4   4
#     4  11  21  40  63  86 117 160 195 249 303 351
#     4  10  19  36  57  82 114 153 190 239 291 352
#     4  10  19  36  57  83 114 154 186 239 296 349
#     4  11  21  40  63  86 119 159 195 247 302 353
#     4   9  19  34  57  82 111 148 192 229 284 361
#     4  10  22  34  54  84 122 146 194 240 288 358
#     4  10  24  38  62  94 116 152 212 250 294 364
#     4  10  24  38  58  88 120 146 200 254 290 348
#
# _framework density 21.708337
#
# number of rings (size 3 to 8) (size 9 to 14) (size 15 to 20)
#    0.000    1.846    1.538    2.769    0.000    0.615 
#    0.000    0.000    6.769    0.000    0.000    0.000 
#    0.000    0.000    0.000    0.000    0.000    0.000 
#
# Total GULP energy -144832.958699 kJ/mol
# GULP energy per Si atom -5570.498412 kJ/mol
# Density = 2.165893 g / cm^3
# Si number density = 21.708337 Si / 1000 Ang^3
#
#
#
# Elastic Constant Matrix: (Units=GPa)
#
#
# Indices 1 2 3 4 5 6 
#
# 1 58.3946 21.8744 22.6741 0.0000 -24.8455 0.0000
# 2 21.8744 57.0965 28.0873 0.0000 -9.2108 0.0000
# 3 22.6741 28.0873 125.0645 0.0000 -41.9229 0.0000
# 4 0.0000 0.0000 0.0000 23.7774 0.0000 3.5522
# 5 -24.8455 -9.2108 -41.9229 0.0000 39.6696 0.0000
# 6 0.0000 0.0000 0.0000 3.5522 0.0000 8.7460
#
#
#
# Elastic Compliance Matrix: (Units=1/GPa)
#
#
# Indices 1 2 3 4 5 6 
#
# 1 0.026999 -0.008995 0.003242 0.000000 0.018248 0.000000
# 2 -0.008995 0.022687 -0.005555 0.000000 -0.006236 0.000000
# 3 0.003242 -0.005555 0.013788 0.000000 0.015312 0.000000
# 4 0.000000 0.000000 0.000000 0.044773 0.000000 -0.018185
# 5 0.018248 -0.006236 0.015312 0.000000 0.051371 0.000000
# 6 0.000000 0.000000 0.000000 -0.018185 0.000000 0.121724
#
#
# Mechanical properties :
#
#
# Convention : Reuss Voigt Hill
#
# Bulk Modulus (GPa) = 24.47431 42.86968 33.67200
# Shear Modulus (GPa) = 15.74415 25.63325 20.68870
#
# Velocity S-wave (km/s) = 2.69598 3.44001 3.09047
# Velocity P-wave (km/s) = 4.58146 5.96398 5.31784
#
# Compressibility (1/GPa) = 0.04085917
#
# Stress axis : x y z
#
# Youngs Moduli (GPa) = 37.03775 44.07854 72.52438
#
# Poissons Ratio (x) = 0.39648 -0.23512
# Poissons Ratio (y) = 0.33315 0.40285
# Poissons Ratio (z) = -0.12007 0.24484
#
# Static dielectric constant tensor:
#      x y z
#    x 1.695190 0.000000 -0.046940 
#    y 0.000000 0.244880 0.000000 
#    z -0.046940 0.000000 1.751380 
# 
# From -- ./inp_files/231253.got.cif
#   From: 2010.05.17/outbox.cif.g08.bks.cpg/sg15_116_cif.got.tgz:231253.got - 2010.06.03 18:47:42.
