data_PCOD9265154
_publ_section_title
;
Structure prediction by ZEFSAII (Michael W. Deem and Ramdas Pophale) SiO2 
 PCOD9265154
Probable space group: C 2/C
;
_chemical_formula_sum "Si O2"
_cell_formula_units_Z 64
_cell_length_a 28.903471
_cell_length_b 16.251696
_cell_length_c 10.886219
_cell_angle_alpha 90.000000
_cell_angle_beta 37.079470
_cell_angle_gamma 90.000000
_cell_volume 3083.095693
_symmetry_space_group_name_H-M "C 2/C"
_symmetry_group_IT_number 15
_symmetry_cell_setting 'monoclinic'
loop_
_space_group_symop_operation_xyz
x,y,z
-x,y,1/2-z
-x,-y,-z
x,-y,1/2+z
1/2+x,1/2+y,z
1/2-x,1/2+y,1/2-z
1/2-x,1/2-y,-z
1/2+x,1/2-y,1/2+z
loop_
_atom_site_type_symbol
_atom_site_label
_atom_site_fract_x
_atom_site_fract_y
_atom_site_fract_z
Si Si1 0.076097 0.885259 0.531535
Si Si2 0.842169 0.270801 0.527480
Si Si3 0.258910 0.541147 0.790931
Si Si4 0.189125 0.276644 0.438523
Si Si5 0.871109 0.285630 0.197625
Si Si6 0.959116 0.752697 0.083225
Si Si7 0.930798 0.400895 0.467252
Si Si8 0.184545 0.528232 0.686828
O O1 0.102466 0.804777 0.554055
O O2 0.151184 0.941730 0.374803
O O3 0.050717 0.841735 0.458822
O O4 0.000000 0.924182 0.750000
O O5 0.770980 0.268691 0.772752
O O6 0.828520 0.257475 0.412361
O O7 0.880660 0.358348 0.467241
O O8 0.213986 0.628287 0.898881
O O9 0.240058 0.517595 0.689274
O O10 0.227456 0.483969 0.966672
O O11 0.162223 0.253786 0.358759
O O12 0.118555 0.258663 0.675298
O O13 0.856637 0.383528 0.221019
O O14 0.960065 0.259326 0.019915
O O15 0.959463 0.677670 0.984132
O O16 0.880983 0.459925 0.656147
O O17 0.000000 0.444898 0.250000
#
# Coordination Sequence:
#
# PCOD9265154 Si02
#       8
#     8   8   8   8   8   8   8   8
#     4  10  20  39  66  86 112 153 208 262 300 351
#     4  10  19  36  58  85 113 155 206 250 303 354
#     4  10  23  40  62  89 121 163 208 249 300 362
#     4  10  22  34  57  87 120 160 198 256 298 352
#     4  11  21  37  55  85 129 156 193 245 306 370
#     4  11  20  36  58  90 120 152 203 250 304 356
#     4  11  21  35  58  83 116 160 201 241 298 366
#     4  11  24  40  59  90 126 165 203 242 298 375
#
# _framework density 20.758357
#
# number of rings (size 3 to 8) (size 9 to 14) (size 15 to 20)
#    0.000    1.500    3.750    2.250    1.750    4.000 
#    0.000    0.625    0.000    0.000    0.000    0.000 
#    0.000    0.000    0.000    0.000    0.000    0.000 
#
# Total GULP energy -178526.155187 kJ/mol
# GULP energy per Si atom -5578.942350 kJ/mol
# Density = 2.071111 g / cm^3
# Si number density = 20.758357 Si / 1000 Ang^3
#
#
#
# Elastic Constant Matrix: (Units=GPa)
#
#
# Indices 1 2 3 4 5 6 
#
# 1 68.1664 -0.1625 26.2842 0.0000 -6.5391 0.0000
# 2 -0.1625 12.3652 0.4541 0.0000 -5.2034 0.0000
# 3 26.2842 0.4541 140.6643 0.0000 -9.0398 0.0000
# 4 0.0000 0.0000 0.0000 17.7396 0.0000 0.1805
# 5 -6.5391 -5.2034 -9.0398 0.0000 31.6234 0.0000
# 6 0.0000 0.0000 0.0000 0.1805 0.0000 14.1131
#
#
#
# Elastic Compliance Matrix: (Units=1/GPa)
#
#
# Indices 1 2 3 4 5 6 
#
# 1 0.016026 0.001471 -0.002823 0.000000 0.002749 0.000000
# 2 0.001471 0.087082 0.000392 0.000000 0.014745 0.000000
# 3 -0.002823 0.000392 0.007744 0.000000 0.001695 0.000000
# 4 0.000000 0.000000 0.000000 0.056378 0.000000 -0.000721
# 5 0.002749 0.014745 0.001695 0.000000 0.035101 0.000000
# 6 0.000000 0.000000 0.000000 -0.000721 0.000000 0.070865
#
#
# Mechanical properties :
#
#
# Convention : Reuss Voigt Hill
#
# Bulk Modulus (GPa) = 9.18006 30.48302 19.83154
# Shear Modulus (GPa) = 16.05514 25.66991 20.86252
#
# Velocity S-wave (km/s) = 2.78408 3.52036 3.17364
# Velocity P-wave (km/s) = 3.84275 5.58932 4.79621
#
# Compressibility (1/GPa) = 0.10893176
#
# Stress axis : x y z
#
# Youngs Moduli (GPa) = 62.40031 11.48346 129.12923
#
# Poissons Ratio (x) = -0.01689 0.36448
# Poissons Ratio (y) = -0.09180 -0.05057
# Poissons Ratio (z) = 0.17613 -0.00450
#
# Static dielectric constant tensor:
#      x y z
#    x 1.795660 0.000000 -0.012590 
#    y 0.000000 1.719670 0.000000 
#    z -0.012590 0.000000 1.762960 
# 
# From -- ./inp_files/127298.got.cif
#   From: 2010.05.17/outbox.cif.g08.bks.cpg/sg15_64_cif.got.tgz:127298.got - 2010.06.03 18:47:42.
