data_PCOD9265511
_publ_section_title
;
Structure prediction by ZEFSAII (Michael W. Deem and Ramdas Pophale) SiO2 
 PCOD9265511
Probable space group: C 2/C
;
_chemical_formula_sum "Si O2"
_cell_formula_units_Z 52
_cell_length_a 11.627276
_cell_length_b 14.731950
_cell_length_c 19.545317
_cell_angle_alpha 90.000000
_cell_angle_beta 55.434615
_cell_angle_gamma 90.000000
_cell_volume 2756.979975
_symmetry_space_group_name_H-M "C 2/C"
_symmetry_group_IT_number 15
_symmetry_cell_setting 'monoclinic'
loop_
_space_group_symop_operation_xyz
x,y,z
-x,y,1/2-z
-x,-y,-z
x,-y,1/2+z
1/2+x,1/2+y,z
1/2-x,1/2+y,1/2-z
1/2-x,1/2-y,-z
1/2+x,1/2-y,1/2+z
loop_
_atom_site_type_symbol
_atom_site_label
_atom_site_fract_x
_atom_site_fract_y
_atom_site_fract_z
Si Si1 0.638524 0.266577 0.976331
Si Si2 0.211501 0.557020 0.069175
Si Si3 0.117461 0.438211 0.832655
Si Si4 0.500000 0.350404 0.250000
Si Si5 0.722869 0.924953 0.405206
Si Si6 0.834857 0.423441 0.301797
Si Si7 0.371425 0.263395 0.160105
O O1 0.694372 0.362803 0.929962
O O2 0.651519 0.175390 0.927260
O O3 0.750000 0.250000 0.000000
O O4 0.486863 0.272730 0.061238
O O5 0.222184 0.465041 0.108274
O O6 0.046348 0.580545 0.127119
O O7 0.244240 0.549632 0.977537
O O8 0.135521 0.500285 0.893685
O O9 0.178313 0.496972 0.750135
O O10 0.182241 0.339406 0.819838
O O11 0.372205 0.411090 0.319392
O O12 0.448547 0.288539 0.204803
O O13 0.749425 0.335978 0.309437
O O14 0.000000 0.404177 0.250000
#
# Coordination Sequence:
#
# PCOD9265511 Si02
#       7
#     8   8   8   4   8   8   8
#     4  10  19  36  61  92 120 148 206 268 298 359
#     4  10  20  39  62  89 122 165 205 252 311 370
#     4  11  22  37  66  88 123 167 209 254 310 372
#     4  12  22  38  66  92 126 154 208 280 306 350
#     4  11  21  38  61  97 123 159 213 261 306 369
#     4  10  25  42  61  90 129 170 207 253 311 384
#     4  12  23  40  62  93 123 164 207 262 318 360
#
# _framework density 18.861217
#
# number of rings (size 3 to 8) (size 9 to 14) (size 15 to 20)
#    0.000    1.231    7.692    0.462    5.385    0.615 
#    1.385    0.769    0.000    0.000    0.000    0.000 
#    0.000    0.000    0.000    0.000    0.000    0.000 
#
# Total GULP energy -145149.214703 kJ/mol
# GULP energy per Si atom -5582.662104 kJ/mol
# Density = 1.881829 g / cm^3
# Si number density = 18.861217 Si / 1000 Ang^3
#
#
#
# Elastic Constant Matrix: (Units=GPa)
#
#
# Indices 1 2 3 4 5 6 
#
# 1 58.9039 68.4791 25.8107 0.0000 2.0428 0.0000
# 2 68.4791 147.1521 46.1187 0.0000 -11.7747 0.0000
# 3 25.8107 46.1187 98.0468 0.0000 -8.9283 0.0000
# 4 0.0000 0.0000 0.0000 26.0214 0.0000 6.3177
# 5 2.0428 -11.7747 -8.9283 0.0000 21.5733 0.0000
# 6 0.0000 0.0000 0.0000 6.3177 0.0000 27.7944
#
#
#
# Elastic Compliance Matrix: (Units=1/GPa)
#
#
# Indices 1 2 3 4 5 6 
#
# 1 0.041986 -0.019827 -0.003194 0.000000 -0.016120 0.000000
# 2 -0.019827 0.017514 -0.002054 0.000000 0.010586 0.000000
# 3 -0.003194 -0.002054 0.012399 0.000000 0.004313 0.000000
# 4 0.000000 0.000000 0.000000 0.040675 0.000000 -0.009245
# 5 -0.016120 0.010586 0.004313 0.000000 0.055443 0.000000
# 6 0.000000 0.000000 0.000000 -0.009245 0.000000 0.038080
#
#
# Mechanical properties :
#
#
# Convention : Reuss Voigt Hill
#
# Bulk Modulus (GPa) = 45.98447 64.99107 55.48777
# Shear Modulus (GPa) = 18.97553 25.99077 22.48315
#
# Velocity S-wave (km/s) = 3.17529 3.71617 3.45633
# Velocity P-wave (km/s) = 6.15440 7.27637 6.73877
#
# Compressibility (1/GPa) = 0.02174647
#
# Stress axis : x y z
#
# Youngs Moduli (GPa) = 23.81742 57.09853 80.65059
#
# Poissons Ratio (x) = 1.13212 0.25762
# Poissons Ratio (y) = 0.47224 0.16569
# Poissons Ratio (z) = 0.07608 0.11730
#
# Static dielectric constant tensor:
#      x y z
#    x 1.647770 0.000000 0.017850 
#    y 0.000000 1.680090 0.000000 
#    z 0.017850 0.000000 1.683880 
# 
# From -- ./inp_files/225534.got.cif
#   From: 2010.05.17/outbox.cif.g08.bks.cpg/sg15_113_cif.got.tgz:225534.got - 2010.06.03 18:47:42.
