data_PCOD9265846
_publ_section_title
;
Structure prediction by ZEFSAII (Michael W. Deem and Ramdas Pophale) SiO2 
 PCOD9265846
Probable space group: C 2/C
;
_chemical_formula_sum "Si O2"
_cell_formula_units_Z 48
_cell_length_a 11.959483
_cell_length_b 9.197328
_cell_length_c 23.312020
_cell_angle_alpha 90.000000
_cell_angle_beta 107.028704
_cell_angle_gamma 90.000000
_cell_volume 2451.792573
_symmetry_space_group_name_H-M "C 2/C"
_symmetry_group_IT_number 15
_symmetry_cell_setting 'monoclinic'
loop_
_space_group_symop_operation_xyz
x,y,z
-x,y,1/2-z
-x,-y,-z
x,-y,1/2+z
1/2+x,1/2+y,z
1/2-x,1/2+y,1/2-z
1/2-x,1/2-y,-z
1/2+x,1/2-y,1/2+z
loop_
_atom_site_type_symbol
_atom_site_label
_atom_site_fract_x
_atom_site_fract_y
_atom_site_fract_z
Si Si1 0.333878 0.527909 0.683810
Si Si2 0.032672 0.810149 0.064861
Si Si3 0.705754 0.721177 0.112192
Si Si4 0.909843 0.004729 0.820962
Si Si5 0.811198 0.011552 0.491347
Si Si6 0.357874 0.023455 0.430088
O O1 0.311816 0.691414 0.656928
O O2 0.334081 0.527478 0.752376
O O3 0.458721 0.474575 0.680609
O O4 0.230828 0.441791 0.636244
O O5 0.038069 0.637408 0.057937
O O6 0.081478 0.860549 0.133928
O O7 0.117804 0.883423 0.029777
O O8 0.908131 0.888521 0.037927
O O9 0.638954 0.627274 0.149031
O O10 0.740201 0.615020 0.065942
O O11 0.622527 0.851122 0.075960
O O12 0.716546 0.961040 0.522929
#
# Coordination Sequence:
#
# PCOD9265846 Si02
#       6
#     8   8   8   8   8   8
#     4   9  21  35  60  80 111 148 193 231 282 336
#     4  10  20  33  61  84 110 156 185 231 283 340
#     4   9  21  35  60  83 112 152 184 239 282 336
#     4  10  19  39  59  79 115 152 186 238 285 331
#     4  10  19  37  54  84 120 143 192 229 284 336
#     4  10  20  34  56  86 110 147 189 230 278 340
#
# _framework density 19.577513
#
# number of rings (size 3 to 8) (size 9 to 14) (size 15 to 20)
#    1.000    1.333    1.667    1.000    2.333    0.667 
#    0.000    0.000    7.333    2.000    0.000    0.000 
#    0.000    0.000    0.000    0.000    0.000    0.000 
#
# Total GULP energy -133800.162438 kJ/mol
# GULP energy per Si atom -5575.006768 kJ/mol
# Density = 1.953295 g / cm^3
# Si number density = 19.577513 Si / 1000 Ang^3
#
#
#
# Elastic Constant Matrix: (Units=GPa)
#
#
# Indices 1 2 3 4 5 6 
#
# 1 45.2739 11.7255 28.4435 0.0000 -8.0236 0.0000
# 2 11.7255 45.0370 8.8451 0.0000 -7.0063 0.0000
# 3 28.4435 8.8451 124.2502 0.0000 -9.5926 0.0000
# 4 0.0000 0.0000 0.0000 14.6651 0.0000 2.2844
# 5 -8.0236 -7.0063 -9.5926 0.0000 26.5473 0.0000
# 6 0.0000 0.0000 0.0000 2.2844 0.0000 27.0943
#
#
#
# Elastic Compliance Matrix: (Units=1/GPa)
#
#
# Indices 1 2 3 4 5 6 
#
# 1 0.027894 -0.005384 -0.005618 0.000000 0.004980 0.000000
# 2 -0.005384 0.024372 -0.000135 0.000000 0.004756 0.000000
# 3 -0.005618 -0.000135 0.009474 0.000000 0.001690 0.000000
# 4 0.000000 0.000000 0.000000 0.069097 0.000000 -0.005826
# 5 0.004980 0.004756 0.001690 0.000000 0.041039 0.000000
# 6 0.000000 0.000000 0.000000 -0.005826 0.000000 0.037399
#
#
# Mechanical properties :
#
#
# Convention : Reuss Voigt Hill
#
# Bulk Modulus (GPa) = 25.33817 34.73212 30.03515
# Shear Modulus (GPa) = 20.43266 24.69781 22.56523
#
# Velocity S-wave (km/s) = 3.23411 3.55567 3.39869
# Velocity P-wave (km/s) = 5.18811 5.88527 5.54765
#
# Compressibility (1/GPa) = 0.03946614
#
# Stress axis : x y z
#
# Youngs Moduli (GPa) = 35.84975 41.03027 105.54758
#
# Poissons Ratio (x) = 0.22092 0.59295
# Poissons Ratio (y) = 0.19303 0.01427
# Poissons Ratio (z) = 0.20140 0.00555
#
# Static dielectric constant tensor:
#      x y z
#    x 1.670780 0.000000 0.027540 
#    y 0.000000 1.697860 0.000000 
#    z 0.027540 0.000000 1.717420 
# 
# From -- ./inp_files/272363.got.cif
#   From: 2010.05.17/outbox.cif.g08.bks.cpg/sg15_137_cif.got.tgz:272363.got - 2010.06.03 18:47:42.
