data_PCOD9265981
_publ_section_title
;
Structure prediction by ZEFSAII (Michael W. Deem and Ramdas Pophale) SiO2 
 PCOD9265981
Probable space group: C 2/C
;
_chemical_formula_sum "Si O2"
_cell_formula_units_Z 64
_cell_length_a 14.445374
_cell_length_b 21.126634
_cell_length_c 16.477302
_cell_angle_alpha 90.000000
_cell_angle_beta 142.851976
_cell_angle_gamma 90.000000
_cell_volume 3036.639106
_symmetry_space_group_name_H-M "C 2/C"
_symmetry_group_IT_number 15
_symmetry_cell_setting 'monoclinic'
loop_
_space_group_symop_operation_xyz
x,y,z
-x,y,1/2-z
-x,-y,-z
x,-y,1/2+z
1/2+x,1/2+y,z
1/2-x,1/2+y,1/2-z
1/2-x,1/2-y,-z
1/2+x,1/2-y,1/2+z
loop_
_atom_site_type_symbol
_atom_site_label
_atom_site_fract_x
_atom_site_fract_y
_atom_site_fract_z
Si Si1 0.743926 0.907842 0.062310
Si Si2 0.594659 0.289232 0.391829
Si Si3 0.782978 0.476790 0.604786
Si Si4 0.731568 0.394953 0.725781
Si Si5 0.022120 0.202484 0.510186
Si Si6 0.513160 0.848108 0.028380
Si Si7 0.079203 0.019312 0.677123
Si Si8 0.775950 0.600971 0.687916
O O1 0.642534 0.863871 0.050692
O O2 0.647376 0.946773 0.928157
O O3 0.855339 0.860466 0.092773
O O4 0.841392 0.954813 0.186466
O O5 0.500000 0.263772 0.250000
O O6 0.750000 0.250000 0.500000
O O7 0.496890 0.290053 0.405473
O O8 0.798972 0.430342 0.693200
O O9 0.601630 0.477099 0.457307
O O10 0.822153 0.549179 0.653233
O O11 0.624878 0.337257 0.622707
O O12 0.626842 0.447501 0.695079
O O13 0.860564 0.374755 0.879794
O O14 0.011180 0.274084 0.471664
O O15 0.176463 0.163411 0.596396
O O16 0.579318 0.880933 0.155229
O O17 0.155711 0.061629 0.659920
#
# Coordination Sequence:
#
# PCOD9265981 Si02
#       8
#     8   8   8   8   8   8   8   8
#     4  11  22  37  56  86 119 152 195 238 301 351
#     4  12  24  35  52  79 121 160 187 228 282 355
#     4  11  19  36  60  82 111 155 201 252 283 350
#     4  11  22  37  58  82 116 153 203 244 290 349
#     4  12  21  39  59  80 119 162 201 231 280 363
#     4  11  25  36  55  89 121 157 188 242 302 354
#     4  10  19  37  59  80 111 152 202 250 287 344
#     4  10  20  37  58  82 111 154 206 241 289 337
#
# _framework density 21.075931000000001
#
# number of rings (size 3 to 8) (size 9 to 14) (size 15 to 20)
#    0.000    1.000    5.000    4.125    1.750    5.000 
#    0.000    0.000    0.000    0.000    0.000    5.250 
#    0.000    0.000    0.000    0.000    0.000    0.000 
#
# Total GULP energy -178912.459401 kJ/mol
# GULP energy per Si atom -5591.014356 kJ/mol
# Density = 2.102796 g / cm^3
# Si number density = 21.075931 Si / 1000 Ang^3
#
#
#
# Elastic Constant Matrix: (Units=GPa)
#
#
# Indices 1 2 3 4 5 6 
#
# 1 16.4081 14.1813 16.1899 0.0000 0.8220 0.0001
# 2 14.1813 131.6751 61.5290 0.0000 -4.8649 0.0000
# 3 16.1899 61.5290 148.7270 -0.0001 9.4597 0.0001
# 4 0.0000 0.0000 -0.0001 24.0709 0.0000 -13.7413
# 5 0.8220 -4.8649 9.4597 0.0000 24.7947 0.0001
# 6 0.0001 0.0000 0.0001 -13.7413 0.0001 4.6753
#
#
#
# Elastic Compliance Matrix: (Units=1/GPa)
#
#
# Indices 1 2 3 4 5 6 
#
# 1 0.070865 -0.005095 -0.005527 0.000000 -0.001240 0.000001
# 2 -0.005095 0.010072 -0.003842 0.000000 0.003611 0.000000
# 3 -0.005527 -0.003842 0.009174 0.000000 -0.004070 0.000000
# 4 0.000000 0.000000 0.000000 -0.061288 0.000000 -0.180133
# 5 -0.001240 0.003611 -0.004070 0.000000 0.042634 0.000001
# 6 0.000001 0.000000 0.000000 -0.180133 0.000001 -0.315544
#
#
# Mechanical properties :
#
#
# Convention : Reuss Voigt Hill
#
# Bulk Modulus (GPa) = 16.34467 53.40116 34.87291
# Shear Modulus (GPa) = -25.67192 24.36885 -0.65154
#
# Velocity S-wave (km/s) = -3.49387 3.40404 -0.55660
# Velocity P-wave (km/s) = 2.91620 6.39082 4.02109
#
# Compressibility (1/GPa) = 0.06118203
#
# Stress axis : x y z
#
# Youngs Moduli (GPa) = 14.11134 99.28743 109.00765
#
# Poissons Ratio (x) = 0.50588 0.60252
# Poissons Ratio (y) = 0.07190 0.41878
# Poissons Ratio (z) = 0.07800 0.38144
#
# Static dielectric constant tensor:
#      x y z
#    x 1.799160 0.000000 0.010990 
#    y 0.000000 1.777270 0.000000 
#    z 0.010990 0.000000 1.799330 
# 
# From -- ./inp_files/212001.got.cif
#   From: 2010.05.17/outbox.cif.g08.bks.cpg/sg15_107_cif.got.tgz:212001.got - 2010.06.03 18:47:42.
