data_PCOD9265535
_publ_section_title
;
Structure prediction by ZEFSAII (Michael W. Deem and Ramdas Pophale) SiO2 
 PCOD9265535
Probable space group: C 2/C
;
_chemical_formula_sum "Si O2"
_cell_formula_units_Z 56
_cell_length_a 11.378509
_cell_length_b 28.963689
_cell_length_c 9.744036
_cell_angle_alpha 90.000000
_cell_angle_beta 117.967262
_cell_angle_gamma 90.000000
_cell_volume 2836.252504
_symmetry_space_group_name_H-M "C 2/C"
_symmetry_group_IT_number 15
_symmetry_cell_setting 'monoclinic'
loop_
_space_group_symop_operation_xyz
x,y,z
-x,y,1/2-z
-x,-y,-z
x,-y,1/2+z
1/2+x,1/2+y,z
1/2-x,1/2+y,1/2-z
1/2-x,1/2-y,-z
1/2+x,1/2-y,1/2+z
loop_
_atom_site_type_symbol
_atom_site_label
_atom_site_fract_x
_atom_site_fract_y
_atom_site_fract_z
Si Si1 0.241205 0.880344 0.050991
Si Si2 0.207675 0.338541 0.121764
Si Si3 0.402440 0.148851 0.383844
Si Si4 0.023553 0.046129 0.426100
Si Si5 0.977907 0.806246 0.595522
Si Si6 0.127053 0.247782 0.719122
Si Si7 0.179114 0.123697 0.080439
O O1 0.280561 0.860791 0.221275
O O2 0.357247 0.872001 0.005218
O O3 0.124599 0.847420 0.927450
O O4 0.169644 0.930029 0.022144
O O5 0.255557 0.284882 0.156407
O O6 0.303975 0.366044 0.070869
O O7 0.060445 0.344303 0.979915
O O8 0.350635 0.199563 0.310658
O O9 0.323856 0.117863 0.229752
O O10 0.916188 0.082102 0.428968
O O11 0.000000 0.039720 0.250000
O O12 0.000000 0.000000 0.500000
O O13 0.912726 0.775463 0.445363
O O14 0.000000 0.780207 0.750000
O O15 0.103612 0.831558 0.599611
O O16 0.000000 0.245415 0.750000
#
# Coordination Sequence:
#
# PCOD9265535 Si02
#       7
#     8   8   8   8   8   8   8
#     4  10  22  42  62  94 132 166 211 268 336 397
#     4  11  25  38  64  95 126 188 231 269 328 386
#     4  12  24  40  61  86 137 185 216 272 329 396
#     4  11  24  44  79 109 126 157 212 277 336 407
#     4  10  19  36  62  82 120 174 213 278 329 361
#     4  11  24  38  59  91 127 171 247 291 305 358
#     4  11  21  42  64  92 136 167 215 275 340 382
#
# _framework density 19.744361999999999
#
# number of rings (size 3 to 8) (size 9 to 14) (size 15 to 20)
#    0.000    1.143    4.286    2.571    4.000    4.571 
#    0.000    0.000    0.000    5.143    0.000    0.000 
#    0.000    0.000    0.000    0.000    0.000    0.000 
#
# Total GULP energy -156271.720327 kJ/mol
# GULP energy per Si atom -5581.132869 kJ/mol
# Density = 1.969942 g / cm^3
# Si number density = 19.744362 Si / 1000 Ang^3
#
#
#
# Elastic Constant Matrix: (Units=GPa)
#
#
# Indices 1 2 3 4 5 6 
#
# 1 92.1700 38.4108 28.0157 0.0000 -2.7774 0.0000
# 2 38.4108 76.7852 1.0602 0.0000 -4.7213 0.0000
# 3 28.0157 1.0602 55.1000 0.0000 -16.1888 0.0000
# 4 0.0000 0.0000 0.0000 18.0375 0.0000 -4.5083
# 5 -2.7774 -4.7213 -16.1888 0.0000 45.9740 0.0000
# 6 0.0000 0.0000 0.0000 -4.5083 0.0000 32.5077
#
#
#
# Elastic Compliance Matrix: (Units=1/GPa)
#
#
# Indices 1 2 3 4 5 6 
#
# 1 0.017295 -0.008717 -0.009572 0.000000 -0.003221 0.000000
# 2 -0.008717 0.017501 0.004985 0.000000 0.003026 0.000000
# 3 -0.009572 0.004985 0.025543 0.000000 0.008928 0.000000
# 4 0.000000 0.000000 0.000000 0.057431 0.000000 0.007965
# 5 -0.003221 0.003026 0.008928 0.000000 0.025011 0.000000
# 6 0.000000 0.000000 0.000000 0.007965 0.000000 0.031867
#
#
# Mechanical properties :
#
#
# Convention : Reuss Voigt Hill
#
# Bulk Modulus (GPa) = 29.64781 39.89207 34.76994
# Shear Modulus (GPa) = 23.52926 29.74173 26.63549
#
# Velocity S-wave (km/s) = 3.45584 3.88537 3.67688
# Velocity P-wave (km/s) = 5.56527 6.35423 5.97279
#
# Compressibility (1/GPa) = 0.03372930
#
# Stress axis : x y z
#
# Youngs Moduli (GPa) = 57.82044 57.13843 39.14954
#
# Poissons Ratio (x) = 0.49810 0.37475
# Poissons Ratio (y) = 0.50405 -0.19515
# Poissons Ratio (z) = 0.55347 -0.28482
#
# Static dielectric constant tensor:
#      x y z
#    x 1.760300 0.000000 0.017530 
#    y 0.000000 1.701190 0.000000 
#    z 0.017530 0.000000 1.715680 
# 
# From -- ./inp_files/35312.got.cif
#   From: 2010.05.17/outbox.cif.g08.bks.cpg/sg15_18_cif.got.tgz:35312.got - 2010.06.03 18:47:42.
