data_PCOD9265426
_publ_section_title
;
Structure prediction by ZEFSAII (Michael W. Deem and Ramdas Pophale) SiO2 
 PCOD9265426
Probable space group: C 2/C
;
_chemical_formula_sum "Si O2"
_cell_formula_units_Z 52
_cell_length_a 23.352709
_cell_length_b 6.913477
_cell_length_c 20.135439
_cell_angle_alpha 90.000000
_cell_angle_beta 131.086110
_cell_angle_gamma 90.000000
_cell_volume 2450.228054
_symmetry_space_group_name_H-M "C 2/C"
_symmetry_group_IT_number 15
_symmetry_cell_setting 'monoclinic'
loop_
_space_group_symop_operation_xyz
x,y,z
-x,y,1/2-z
-x,-y,-z
x,-y,1/2+z
1/2+x,1/2+y,z
1/2-x,1/2+y,1/2-z
1/2-x,1/2-y,-z
1/2+x,1/2-y,1/2+z
loop_
_atom_site_type_symbol
_atom_site_label
_atom_site_fract_x
_atom_site_fract_y
_atom_site_fract_z
Si Si1 0.500000 0.965868 0.250000
Si Si2 0.751316 0.471846 0.481546
Si Si3 0.990030 0.587336 0.386597
Si Si4 0.856401 0.456805 0.934614
Si Si5 0.580197 0.588923 0.584524
Si Si6 0.160432 0.266259 0.349829
Si Si7 0.356125 0.202462 0.814012
O O1 0.575363 0.839447 0.297119
O O2 0.510544 0.087382 0.325095
O O3 0.750000 0.250000 0.500000
O O4 0.806228 0.515938 0.461197
O O5 0.782877 0.590707 0.568139
O O6 0.672686 0.560103 0.394593
O O7 0.941262 0.772194 0.370291
O O8 0.937712 0.400077 0.361367
O O9 0.064736 0.567948 0.488398
O O10 0.880288 0.236416 0.936950
O O11 0.820901 0.558759 0.842259
O O12 0.500000 0.500000 0.500000
O O13 0.632463 0.411294 0.645104
O O14 0.179186 0.273456 0.285878
#
# Coordination Sequence:
#
# PCOD9265426 Si02
#       7
#     4   8   8   8   8   8   8
#     4  10  20  42  70  94 138 166 218 288 332 380
#     4  11  26  49  68  93 140 186 227 272 340 416
#     4  10  19  36  60  97 133 166 215 278 332 393
#     4  11  21  40  64  93 133 181 219 274 337 397
#     4  11  19  35  64  97 134 168 219 274 339 398
#     4  10  24  46  67 100 134 175 226 285 331 408
#     4  10  21  39  64 100 132 166 221 286 328 398
#
# _framework density 21.222515000000001
#
# number of rings (size 3 to 8) (size 9 to 14) (size 15 to 20)
#    0.000    1.538    4.615    0.923    0.000    6.154 
#   11.077    1.538    0.000    0.000    0.000    0.000 
#    0.000    0.000    0.000    0.000    0.000    0.000 
#
# Total GULP energy -145251.499919 kJ/mol
# GULP energy per Si atom -5586.596151 kJ/mol
# Density = 2.117421 g / cm^3
# Si number density = 21.222515 Si / 1000 Ang^3
#
#
#
# Elastic Constant Matrix: (Units=GPa)
#
#
# Indices 1 2 3 4 5 6 
#
# 1 77.1780 33.7897 30.2304 0.0000 -28.2882 0.0001
# 2 33.7897 138.9682 44.1803 0.0002 -21.6739 0.0001
# 3 30.2304 44.1803 123.5041 0.0000 -30.5276 0.0000
# 4 0.0000 0.0002 0.0000 21.4933 0.0000 -5.6611
# 5 -28.2882 -21.6739 -30.5276 0.0000 38.1100 0.0000
# 6 0.0001 0.0001 0.0000 -5.6611 0.0000 15.7192
#
#
#
# Elastic Compliance Matrix: (Units=1/GPa)
#
#
# Indices 1 2 3 4 5 6 
#
# 1 0.018674 -0.002448 -0.000764 0.000000 0.011857 0.000000
# 2 -0.002448 0.008698 -0.002168 0.000000 0.001393 0.000000
# 3 -0.000764 -0.002168 0.010741 0.000000 0.006804 0.000000
# 4 0.000000 0.000000 0.000000 0.051402 0.000000 0.018512
# 5 0.011857 0.001393 0.006804 0.000000 0.041283 0.000000
# 6 0.000000 0.000000 0.000000 0.018512 0.000000 0.070283
#
#
# Mechanical properties :
#
#
# Convention : Reuss Voigt Hill
#
# Bulk Modulus (GPa) = 36.56034 61.78346 49.17190
# Shear Modulus (GPa) = 22.62853 30.49450 26.56152
#
# Velocity S-wave (km/s) = 3.26889 3.79475 3.54160
# Velocity P-wave (km/s) = 5.61356 6.95526 6.32011
#
# Compressibility (1/GPa) = 0.02735204
#
# Stress axis : x y z
#
# Youngs Moduli (GPa) = 53.54958 114.97443 93.09897
#
# Poissons Ratio (x) = 0.28150 0.07116
# Poissons Ratio (y) = 0.13111 0.20182
# Poissons Ratio (z) = 0.04093 0.24924
#
# Static dielectric constant tensor:
#      x y z
#    x 1.787880 0.000000 0.006830 
#    y 0.000000 1.757700 0.000000 
#    z 0.006830 0.000000 1.802960 
# 
# From -- ./inp_files/256729.got.cif
#   From: 2010.05.17/outbox.cif.g08.bks.cpg/sg15_129_cif.got.tgz:256729.got - 2010.06.03 18:47:42.
