data_PCOD9265191
_publ_section_title
;
Structure prediction by ZEFSAII (Michael W. Deem and Ramdas Pophale) SiO2 
 PCOD9265191
Probable space group: C 2/C
;
_chemical_formula_sum "Si O2"
_cell_formula_units_Z 44
_cell_length_a 14.371208
_cell_length_b 22.263777
_cell_length_c 5.278388
_cell_angle_alpha 90.000000
_cell_angle_beta 67.562033
_cell_angle_gamma 90.000000
_cell_volume 1561.001215
_symmetry_space_group_name_H-M "C 2/C"
_symmetry_group_IT_number 15
_symmetry_cell_setting 'monoclinic'
loop_
_space_group_symop_operation_xyz
x,y,z
-x,y,1/2-z
-x,-y,-z
x,-y,1/2+z
1/2+x,1/2+y,z
1/2-x,1/2+y,1/2-z
1/2-x,1/2-y,-z
1/2+x,1/2-y,1/2+z
loop_
_atom_site_type_symbol
_atom_site_label
_atom_site_fract_x
_atom_site_fract_y
_atom_site_fract_z
Si Si1 0.658611 0.983081 0.202230
Si Si2 0.606162 0.671548 0.411568
Si Si3 0.119767 0.032660 0.493635
Si Si4 0.500000 0.863701 0.750000
Si Si5 0.622492 0.721568 0.899386
Si Si6 0.874170 0.353533 0.375553
O O1 0.685955 0.913368 0.137687
O O2 0.602804 0.988417 0.524120
O O3 0.759244 0.022918 0.126291
O O4 0.594116 0.601218 0.468472
O O5 0.663170 0.701412 0.587031
O O6 0.496434 0.703131 0.502390
O O7 0.661651 0.681013 0.088557
O O8 0.087579 0.011587 0.803069
O O9 0.433971 0.883860 0.565835
O O10 0.582379 0.835490 0.458281
O O11 0.636879 0.788602 0.982048
#
# Coordination Sequence:
#
# PCOD9265191 Si02
#       6
#     8   8   8   4   8   8
#     4  10  22  40  63  85 117 166 214 258 298 361
#     4  10  19  36  58  90 123 157 201 250 317 367
#     4  10  21  39  63  85 118 163 212 261 298 361
#     4  10  20  32  56  86 120 156 194 244 304 374
#     4  10  20  33  57  89 126 158 192 253 315 382
#     4  11  20  38  60  89 128 164 201 248 316 372
#
# _framework density 28.18704
#
# number of rings (size 3 to 8) (size 9 to 14) (size 15 to 20)
#    0.000    1.818    0.000    6.545    0.000    0.000 
#    0.000   20.000    0.000   26.182    0.000    0.000 
#    0.000    0.000    0.000    0.000    0.000    0.000 
#
# Total GULP energy -122527.022644 kJ/mol
# GULP energy per Si atom -5569.410120 kJ/mol
# Density = 2.812289 g / cm^3
# Si number density = 28.187040 Si / 1000 Ang^3
#
#
#
# Elastic Constant Matrix: (Units=GPa)
#
#
# Indices 1 2 3 4 5 6 
#
# 1 79.3065 47.9590 36.1740 0.0000 8.5293 0.0000
# 2 47.9590 227.8974 60.4928 0.0000 13.8473 0.0000
# 3 36.1740 60.4928 273.1666 0.0000 49.0258 0.0000
# 4 0.0000 0.0000 0.0000 59.1070 0.0000 41.1664
# 5 8.5293 13.8473 49.0258 0.0000 39.9692 0.0000
# 6 0.0000 0.0000 0.0000 41.1664 0.0000 7.8948
#
#
#
# Elastic Compliance Matrix: (Units=1/GPa)
#
#
# Indices 1 2 3 4 5 6 
#
# 1 0.014924 -0.002770 -0.001236 0.000000 -0.000710 0.000000
# 2 -0.002770 0.005182 -0.000724 0.000000 -0.000316 0.000000
# 3 -0.001236 -0.000724 0.004991 0.000000 -0.005608 0.000000
# 4 0.000000 0.000000 0.000000 -0.006429 0.000000 0.033522
# 5 -0.000710 -0.000316 -0.005608 0.000000 0.032158 0.000000
# 6 0.000000 0.000000 0.000000 0.033522 0.000000 -0.048131
#
#
# Mechanical properties :
#
#
# Convention : Reuss Voigt Hill
#
# Bulk Modulus (GPa) = 63.94331 96.62466 80.28398
# Shear Modulus (GPa) = 287.90115 50.44384 169.17250
#
# Velocity S-wave (km/s) = 10.11738 4.23497 7.75552
# Velocity P-wave (km/s) = 12.61809 7.63332 10.42794
#
# Compressibility (1/GPa) = 0.01563885
#
# Stress axis : x y z
#
# Youngs Moduli (GPa) = 67.00590 192.96909 200.35454
#
# Poissons Ratio (x) = 0.53443 0.24757
# Poissons Ratio (y) = 0.18557 0.14508
# Poissons Ratio (z) = 0.08280 0.13973
#
# Static dielectric constant tensor:
#      x y z
#    x 5.973290 0.000000 -2.097370 
#    y 0.000000 2.226580 0.000000 
#    z -2.097370 0.000000 3.566670 
# 
# From -- ./inp_files/13065.got.cif
#   From: 2010.05.17/outbox.cif.g08.bks.cpg/sg15_7_cif.got.tgz:13065.got - 2010.06.03 18:47:42.
