data_PCOD9265492
_publ_section_title
;
Structure prediction by ZEFSAII (Michael W. Deem and Ramdas Pophale) SiO2 
 PCOD9265492
Probable space group: C 2/C
;
_chemical_formula_sum "Si O2"
_cell_formula_units_Z 32
_cell_length_a 32.544211
_cell_length_b 9.226373
_cell_length_c 10.788612
_cell_angle_alpha 90.000000
_cell_angle_beta 159.981921
_cell_angle_gamma 90.000000
_cell_volume 1108.915194
_symmetry_space_group_name_H-M "C 2/C"
_symmetry_group_IT_number 15
_symmetry_cell_setting 'monoclinic'
loop_
_space_group_symop_operation_xyz
x,y,z
-x,y,1/2-z
-x,-y,-z
x,-y,1/2+z
1/2+x,1/2+y,z
1/2-x,1/2+y,1/2-z
1/2-x,1/2-y,-z
1/2+x,1/2-y,1/2+z
loop_
_atom_site_type_symbol
_atom_site_label
_atom_site_fract_x
_atom_site_fract_y
_atom_site_fract_z
Si Si1 0.350590 0.407071 0.735810
Si Si2 0.000000 0.656448 0.250000
Si Si3 0.351418 0.979528 0.659433
Si Si4 0.500000 0.651321 0.250000
Si Si5 0.292385 0.233645 0.325174
O O1 0.237459 0.484609 0.477701
O O2 0.335072 0.328088 0.563319
O O3 0.392253 0.274822 0.945707
O O4 0.447309 0.534898 0.003025
O O5 0.974090 0.552736 0.058084
O O6 0.296315 0.073576 0.390783
O O7 0.330268 0.811622 0.567253
O O8 0.605485 0.743767 0.488552
#
# Coordination Sequence:
#
# PCOD9265492 Si02
#       5
#     8   4   8   4   8
#     4   9  18  35  59  85 117 163 205 234 288 376
#     4   9  16  32  58  85 112 155 204 237 286 365
#     4  10  21  37  61  90 120 157 202 249 298 355
#     4   9  18  32  58  89 116 153 206 249 288 349
#     4  10  19  36  61  90 120 156 200 251 298 354
#
# _framework density 28.857030000000002
#
# number of rings (size 3 to 8) (size 9 to 14) (size 15 to 20)
#    0.000    2.500    0.000    3.750    0.000    2.000 
#    0.000   10.000    0.000   19.500    0.000    8.750 
#    0.000    0.000    0.000    0.000    0.000    0.000 
#
# Total GULP energy -89675.255131 kJ/mol
# GULP energy per Si atom -5604.703446 kJ/mol
# Density = 2.879135 g / cm^3
# Si number density = 28.857030 Si / 1000 Ang^3
#
#
#
# Elastic Constant Matrix: (Units=GPa)
#
#
# Indices 1 2 3 4 5 6 
#
# 1 123.2248 35.0637 32.1005 0.0000 -15.2104 0.0000
# 2 35.0637 183.5892 65.6423 0.0000 -27.1969 0.0000
# 3 32.1005 65.6423 89.0427 0.0000 -11.1863 0.0000
# 4 0.0000 0.0000 0.0000 70.4762 0.0000 -18.4070
# 5 -15.2104 -27.1969 -11.1863 0.0000 42.1663 0.0000
# 6 0.0000 0.0000 0.0000 -18.4070 0.0000 43.7754
#
#
#
# Elastic Compliance Matrix: (Units=1/GPa)
#
#
# Indices 1 2 3 4 5 6 
#
# 1 0.009235 -0.000453 -0.002704 0.000000 0.002322 0.000000
# 2 -0.000453 0.007934 -0.005238 0.000000 0.003565 0.000000
# 3 -0.002704 -0.005238 0.016055 0.000000 -0.000095 0.000000
# 4 0.000000 0.000000 0.000000 0.015940 0.000000 0.006702
# 5 0.002322 0.003565 -0.000095 0.000000 0.026827 0.000000
# 6 0.000000 0.000000 0.000000 0.006702 0.000000 0.025662
#
#
# Mechanical properties :
#
#
# Convention : Reuss Voigt Hill
#
# Bulk Modulus (GPa) = 60.84672 73.49662 67.17167
# Shear Modulus (GPa) = 40.34822 48.82027 44.58425
#
# Velocity S-wave (km/s) = 3.74332 4.11761 3.93492
# Velocity P-wave (km/s) = 6.30988 6.93764 6.63119
#
# Compressibility (1/GPa) = 0.01643474
#
# Stress axis : x y z
#
# Youngs Moduli (GPa) = 108.28275 126.03311 62.28664
#
# Poissons Ratio (x) = 0.05712 0.16839
# Poissons Ratio (y) = 0.04908 0.32626
# Poissons Ratio (z) = 0.29274 0.66017
#
# Static dielectric constant tensor:
#      x y z
#    x 2.181240 0.000000 -0.036110 
#    y 0.000000 2.188130 0.000000 
#    z -0.036110 0.000000 2.403020 
# 
# From -- ./inp_files/93266.got.cif
#   From: 2010.05.17/outbox.cif.g08.bks.cpg/sg15_47_cif.got.tgz:93266.got - 2010.06.03 18:47:42.
