data_PCOD9265282
_publ_section_title
;
Structure prediction by ZEFSAII (Michael W. Deem and Ramdas Pophale) SiO2 
 PCOD9265282
Probable space group: C 2/C
;
_chemical_formula_sum "Si O2"
_cell_formula_units_Z 44
_cell_length_a 19.279479
_cell_length_b 4.913501
_cell_length_c 16.410338
_cell_angle_alpha 90.000000
_cell_angle_beta 85.559023
_cell_angle_gamma 90.000000
_cell_volume 1549.879714
_symmetry_space_group_name_H-M "C 2/C"
_symmetry_group_IT_number 15
_symmetry_cell_setting 'monoclinic'
loop_
_space_group_symop_operation_xyz
x,y,z
-x,y,1/2-z
-x,-y,-z
x,-y,1/2+z
1/2+x,1/2+y,z
1/2-x,1/2+y,1/2-z
1/2-x,1/2-y,-z
1/2+x,1/2-y,1/2+z
loop_
_atom_site_type_symbol
_atom_site_label
_atom_site_fract_x
_atom_site_fract_y
_atom_site_fract_z
Si Si1 0.362492 0.896412 0.826098
Si Si2 0.334247 0.060012 0.653024
Si Si3 0.390842 0.579479 0.958986
Si Si4 0.965921 0.305583 0.581727
Si Si5 0.000000 0.684951 0.250000
Si Si6 0.729767 0.548564 0.914824
O O1 0.327531 0.931678 0.742441
O O2 0.374672 0.594893 0.863240
O O3 0.439765 0.995106 0.796520
O O4 0.312681 0.028846 0.898180
O O5 0.413759 0.048165 0.613125
O O6 0.293107 0.856142 0.597404
O O7 0.302341 0.356850 0.652791
O O8 0.452894 0.812553 0.952390
O O9 0.428704 0.358948 0.012692
O O10 0.314752 0.576476 0.007009
O O11 0.969722 0.162355 0.672683
#
# Coordination Sequence:
#
# PCOD9265282 Si02
#       6
#     8   8   8   8   4   8
#     4  10  19  36  59  88 119 156 199 244 295 350
#     4  10  22  39  62  86 119 159 199 241 289 349
#     4   9  18  34  60  89 122 155 194 246 296 347
#     4   8  16  34  58  87 120 157 198 240 292 349
#     4   8  16  32  60  84 118 158 200 242 290 352
#     4  11  22  39  61  88 120 157 197 244 293 348
#
# _framework density 28.389298
#
# number of rings (size 3 to 8) (size 9 to 14) (size 15 to 20)
#    0.000    2.545    0.000    1.636    0.000    0.727 
#    0.000   11.818    0.000  116.727    0.000    0.000 
#    0.000    0.000    0.000    0.000    0.000    0.000 
#
# Total GULP energy -122535.701684 kJ/mol
# GULP energy per Si atom -5569.804622 kJ/mol
# Density = 2.832468 g / cm^3
# Si number density = 28.389298 Si / 1000 Ang^3
#
#
#
# Elastic Constant Matrix: (Units=GPa)
#
#
# Indices 1 2 3 4 5 6 
#
# 1 188.3870 44.3997 64.8356 0.0000 -46.0741 0.0000
# 2 44.3997 97.5141 36.1106 0.0000 10.6462 0.0000
# 3 64.8356 36.1106 197.1096 0.0000 -12.3132 0.0000
# 4 0.0000 0.0000 0.0000 -12.2279 0.0000 -32.4373
# 5 -46.0741 10.6462 -12.3132 0.0000 56.2259 0.0000
# 6 0.0000 0.0000 0.0000 -32.4373 0.0000 -11.2271
#
#
#
# Elastic Compliance Matrix: (Units=1/GPa)
#
#
# Indices 1 2 3 4 5 6 
#
# 1 0.008706 -0.004190 -0.001623 0.000000 0.007572 0.000000
# 2 -0.004190 0.013393 -0.001468 0.000000 -0.006291 0.000000
# 3 -0.001623 -0.001468 0.005891 0.000000 0.000238 0.000000
# 4 0.000000 0.000000 0.000000 0.012271 0.000000 -0.035455
# 5 0.007572 -0.006291 0.000238 0.000000 0.025234 0.000000
# 6 0.000000 0.000000 0.000000 -0.035455 0.000000 0.013365
#
#
# Mechanical properties :
#
#
# Convention : Reuss Voigt Hill
#
# Bulk Modulus (GPa) = 74.47236 85.96695 80.21966
# Shear Modulus (GPa) = 51.07277 29.06517 40.06897
#
# Velocity S-wave (km/s) = 4.24608 3.20317 3.76095
# Velocity P-wave (km/s) = 7.09425 6.63533 6.86863
#
# Compressibility (1/GPa) = 0.01342780
#
# Stress axis : x y z
#
# Youngs Moduli (GPa) = 114.86051 74.66505 169.74658
#
# Poissons Ratio (x) = 0.31282 0.27553
# Poissons Ratio (y) = 0.48123 0.24927
# Poissons Ratio (z) = 0.18644 0.10964
#
# Static dielectric constant tensor:
#      x y z
#    x 2.310840 0.000000 0.108680 
#    y 0.000000 2.210940 0.000000 
#    z 0.108680 0.000000 2.299700 
# 
# From -- ./inp_files/212892.got.cif
#   From: 2010.05.17/outbox.cif.g08.bks.cpg/sg15_107_cif.got.tgz:212892.got - 2010.06.03 18:47:42.
