data_PCOD9265242
_publ_section_title
;
Structure prediction by ZEFSAII (Michael W. Deem and Ramdas Pophale) SiO2 
 PCOD9265242
Probable space group: C 2/C
;
_chemical_formula_sum "Si O2"
_cell_formula_units_Z 48
_cell_length_a 13.220102
_cell_length_b 20.423987
_cell_length_c 12.004509
_cell_angle_alpha 90.000000
_cell_angle_beta 52.446162
_cell_angle_gamma 90.000000
_cell_volume 2569.643929
_symmetry_space_group_name_H-M "C 2/C"
_symmetry_group_IT_number 15
_symmetry_cell_setting 'monoclinic'
loop_
_space_group_symop_operation_xyz
x,y,z
-x,y,1/2-z
-x,-y,-z
x,-y,1/2+z
1/2+x,1/2+y,z
1/2-x,1/2+y,1/2-z
1/2-x,1/2-y,-z
1/2+x,1/2-y,1/2+z
loop_
_atom_site_type_symbol
_atom_site_label
_atom_site_fract_x
_atom_site_fract_y
_atom_site_fract_z
Si Si1 0.921444 0.432952 0.648900
Si Si2 0.077474 0.772267 0.044516
Si Si3 0.989502 0.078561 0.883155
Si Si4 0.338485 0.791201 0.778264
Si Si5 0.701921 0.476297 0.382662
Si Si6 0.906821 0.453681 0.408635
O O1 0.872787 0.367681 0.741358
O O2 0.816250 0.489507 0.738576
O O3 0.927663 0.420650 0.512999
O O4 0.051508 0.469310 0.601179
O O5 0.062076 0.848031 0.086634
O O6 0.124672 0.731573 0.120986
O O7 0.933533 0.745008 0.127850
O O8 0.188143 0.772352 0.876318
O O9 0.000000 0.053651 0.750000
O O10 0.892396 0.033673 0.016229
O O11 0.123666 0.073061 0.857875
O O12 0.766771 0.448480 0.450908
O O13 0.000000 0.427638 0.250000
#
# Coordination Sequence:
#
# PCOD9265242 Si02
#       6
#     8   8   8   8   8   8
#     4  10  19  36  59  84 123 157 203 253 304 377
#     4  10  21  35  54  90 116 156 196 256 306 354
#     4  11  20  36  54  83 121 152 204 246 308 364
#     4  10  20  35  57  86 118 157 197 251 306 355
#     4  10  21  33  56  82 118 160 193 254 305 365
#     4   9  20  35  53  90 115 157 200 243 313 362
#
# _framework density 18.679631000000001
#
# number of rings (size 3 to 8) (size 9 to 14) (size 15 to 20)
#    0.000    2.000    3.333    1.000    7.000    0.000 
#    9.000    0.000    0.000    1.000    0.000    0.000 
#    0.000    0.000    0.000    0.000    0.000    0.000 
#
# Total GULP energy -133618.052969 kJ/mol
# GULP energy per Si atom -5567.418874 kJ/mol
# Density = 1.863712 g / cm^3
# Si number density = 18.679631 Si / 1000 Ang^3
#
#
#
# Elastic Constant Matrix: (Units=GPa)
#
#
# Indices 1 2 3 4 5 6 
#
# 1 92.1497 10.6783 31.7876 0.0000 3.2712 0.0000
# 2 10.6783 58.8147 23.2335 0.0000 3.2255 0.0000
# 3 31.7876 23.2335 87.1248 0.0000 -10.4982 0.0000
# 4 0.0000 0.0000 0.0000 23.7500 0.0000 0.5643
# 5 3.2712 3.2255 -10.4982 0.0000 37.5187 0.0000
# 6 0.0000 0.0000 0.0000 0.5643 0.0000 13.2517
#
#
#
# Elastic Compliance Matrix: (Units=1/GPa)
#
#
# Indices 1 2 3 4 5 6 
#
# 1 0.012636 -0.000250 -0.004837 0.000000 -0.002434 0.000000
# 2 -0.000250 0.019378 -0.005458 0.000000 -0.003172 0.000000
# 3 -0.004837 -0.005458 0.015322 0.000000 0.005178 0.000000
# 4 0.000000 0.000000 0.000000 0.042148 0.000000 -0.001795
# 5 -0.002434 -0.003172 0.005178 0.000000 0.028587 0.000000
# 6 0.000000 0.000000 0.000000 -0.001795 0.000000 0.075538
#
#
# Mechanical properties :
#
#
# Convention : Reuss Voigt Hill
#
# Bulk Modulus (GPa) = 38.10183 41.05422 39.57803
# Shear Modulus (GPa) = 22.37656 26.39674 24.38665
#
# Velocity S-wave (km/s) = 3.46484 3.76324 3.61712
# Velocity P-wave (km/s) = 6.03727 6.39597 6.21921
#
# Compressibility (1/GPa) = 0.02624546
#
# Stress axis : x y z
#
# Youngs Moduli (GPa) = 79.14065 51.60453 65.26543
#
# Poissons Ratio (x) = 0.01290 0.31567
# Poissons Ratio (y) = 0.01979 0.35625
# Poissons Ratio (z) = 0.38278 0.28168
#
# Static dielectric constant tensor:
#      x y z
#    x 1.728140 0.000000 -0.044230 
#    y 0.000000 1.636520 0.000000 
#    z -0.044230 0.000000 1.697010 
# 
# From -- ./inp_files/88773.got.cif
#   From: 2010.05.17/outbox.cif.g08.bks.cpg/sg15_45_cif.got.tgz:88773.got - 2010.06.03 18:47:42.
