data_PCOD9265081
_publ_section_title
;
Structure prediction by ZEFSAII (Michael W. Deem and Ramdas Pophale) SiO2 
 PCOD9265081
Probable space group: C 2/C
;
_chemical_formula_sum "Si O2"
_cell_formula_units_Z 56
_cell_length_a 13.819459
_cell_length_b 28.622795
_cell_length_c 13.090171
_cell_angle_alpha 90.000000
_cell_angle_beta 32.709232
_cell_angle_gamma 90.000000
_cell_volume 2797.978530
_symmetry_space_group_name_H-M "C 2/C"
_symmetry_group_IT_number 15
_symmetry_cell_setting 'monoclinic'
loop_
_space_group_symop_operation_xyz
x,y,z
-x,y,1/2-z
-x,-y,-z
x,-y,1/2+z
1/2+x,1/2+y,z
1/2-x,1/2+y,1/2-z
1/2-x,1/2-y,-z
1/2+x,1/2-y,1/2+z
loop_
_atom_site_type_symbol
_atom_site_label
_atom_site_fract_x
_atom_site_fract_y
_atom_site_fract_z
Si Si1 0.379809 0.044190 0.576853
Si Si2 0.199582 0.223564 0.939605
Si Si3 0.273052 0.906141 0.758116
Si Si4 0.696733 0.315643 0.723270
Si Si5 0.180550 0.957086 0.043635
Si Si6 0.692124 0.133158 0.584066
Si Si7 0.584711 0.446680 0.514197
O O1 0.523844 0.085937 0.459378
O O2 0.313664 0.037417 0.520056
O O3 0.208624 0.049874 0.802613
O O4 0.500000 0.000000 0.500000
O O5 0.204570 0.265796 0.855381
O O6 0.326361 0.178149 0.823675
O O7 0.250000 0.250000 0.000000
O O8 0.006086 0.200577 0.114242
O O9 0.218731 0.852341 0.794226
O O10 0.261057 0.925667 0.882970
O O11 0.121626 0.936308 0.831087
O O12 0.756904 0.344980 0.570143
O O13 0.000000 0.935116 0.250000
O O14 0.120543 0.006340 0.046134
O O15 0.500000 0.108730 0.750000
O O16 0.839630 0.097166 0.490392
#
# Coordination Sequence:
#
# PCOD9265081 Si02
#       7
#     8   8   8   8   8   8   8
#     4  12  26  45  65  94 130 177 233 274 329 386
#     4  10  19  36  57  87 129 169 207 258 337 387
#     4  12  25  45  65  96 132 180 223 270 328 395
#     4  11  23  39  62  93 134 175 214 271 330 408
#     4  12  26  44  67  94 136 181 219 279 331 384
#     4  11  22  35  59  94 132 175 217 264 326 400
#     4  12  26  41  65  99 132 181 223 267 327 396
#
# _framework density 20.01445
#
# number of rings (size 3 to 8) (size 9 to 14) (size 15 to 20)
#    0.000    0.571    4.286    6.000    6.000    0.000 
#    0.000    0.000    0.000    0.000    0.000   14.000 
#    0.000    0.000    0.000    0.000    0.000    0.000 
#
# Total GULP energy -156543.010780 kJ/mol
# GULP energy per Si atom -5590.821814 kJ/mol
# Density = 1.996890 g / cm^3
# Si number density = 20.014450 Si / 1000 Ang^3
#
#
#
# Elastic Constant Matrix: (Units=GPa)
#
#
# Indices 1 2 3 4 5 6 
#
# 1 106.7262 26.2940 35.1128 0.0000 -9.8508 0.0000
# 2 26.2940 80.1607 12.2272 0.0000 7.6588 0.0000
# 3 35.1128 12.2272 75.8014 -0.0001 -11.0787 0.0000
# 4 0.0000 0.0000 -0.0001 28.0513 0.0000 -8.3520
# 5 -9.8508 7.6588 -11.0787 0.0000 32.5474 0.0000
# 6 0.0000 0.0000 0.0000 -8.3520 0.0000 29.6792
#
#
#
# Elastic Compliance Matrix: (Units=1/GPa)
#
#
# Indices 1 2 3 4 5 6 
#
# 1 0.012009 -0.003520 -0.004570 0.000000 0.002907 0.000000
# 2 -0.003520 0.014311 -0.001395 0.000000 -0.004908 0.000000
# 3 -0.004570 -0.001395 0.016185 0.000000 0.004454 0.000000
# 4 0.000000 0.000000 0.000000 0.038909 0.000000 0.010949
# 5 0.002907 -0.004908 0.004454 0.000000 0.034275 0.000000
# 6 0.000000 0.000000 0.000000 0.010949 0.000000 0.036775
#
#
# Mechanical properties :
#
#
# Convention : Reuss Voigt Hill
#
# Bulk Modulus (GPa) = 42.48973 45.55071 44.02022
# Shear Modulus (GPa) = 27.88929 30.65920 29.27424
#
# Velocity S-wave (km/s) = 3.73695 3.91814 3.82862
# Velocity P-wave (km/s) = 6.31628 6.57855 6.44875
#
# Compressibility (1/GPa) = 0.02353510
#
# Stress axis : x y z
#
# Youngs Moduli (GPa) = 83.27218 69.87519 61.78400
#
# Poissons Ratio (x) = 0.24594 0.28236
# Poissons Ratio (y) = 0.29310 0.08621
# Poissons Ratio (z) = 0.38056 0.09750
#
# Static dielectric constant tensor:
#      x y z
#    x 1.730210 0.000000 -0.005240 
#    y 0.000000 1.760340 0.000000 
#    z -0.005240 0.000000 1.790880 
# 
# From -- ./inp_files/157191.got.cif
#   From: 2010.05.17/outbox.cif.g08.bks.cpg/sg15_79_cif.got.tgz:157191.got - 2010.06.03 18:47:42.
