data_PCOD9265268
_publ_section_title
;
Structure prediction by ZEFSAII (Michael W. Deem and Ramdas Pophale) SiO2 
 PCOD9265268
Probable space group: C 2/C
;
_chemical_formula_sum "Si O2"
_cell_formula_units_Z 56
_cell_length_a 14.393465
_cell_length_b 8.201670
_cell_length_c 21.763708
_cell_angle_alpha 90.000000
_cell_angle_beta 74.590047
_cell_angle_gamma 90.000000
_cell_volume 2476.850324
_symmetry_space_group_name_H-M "C 2/C"
_symmetry_group_IT_number 15
_symmetry_cell_setting 'monoclinic'
loop_
_space_group_symop_operation_xyz
x,y,z
-x,y,1/2-z
-x,-y,-z
x,-y,1/2+z
1/2+x,1/2+y,z
1/2-x,1/2+y,1/2-z
1/2-x,1/2-y,-z
1/2+x,1/2-y,1/2+z
loop_
_atom_site_type_symbol
_atom_site_label
_atom_site_fract_x
_atom_site_fract_y
_atom_site_fract_z
Si Si1 0.763618 0.610969 0.327825
Si Si2 0.073132 0.633139 0.293049
Si Si3 0.799336 0.628372 0.576620
Si Si4 0.421083 0.011128 0.894365
Si Si5 0.579600 0.575932 0.889348
Si Si6 0.611619 0.335109 0.033411
Si Si7 0.348964 0.204895 0.016420
O O1 0.823451 0.600375 0.254791
O O2 0.753617 0.796203 0.355119
O O3 0.828674 0.504696 0.364923
O O4 0.655497 0.546758 0.346663
O O5 0.078007 0.781379 0.338956
O O6 0.000000 0.675423 0.250000
O O7 0.018554 0.485866 0.337601
O O8 0.714605 0.611875 0.540752
O O9 0.870550 0.770791 0.538780
O O10 0.844353 0.449757 0.564592
O O11 0.416015 0.837112 0.929791
O O12 0.414427 0.144766 0.948330
O O13 0.469367 0.541187 0.928409
O O14 0.619630 0.646253 0.946892
O O15 0.250000 0.250000 0.000000
#
# Coordination Sequence:
#
# PCOD9265268 Si02
#       7
#     8   8   8   8   8   8   8
#     4  10  19  36  59  87 115 156 201 245 298 367
#     4   9  20  38  60  80 109 166 210 243 292 381
#     4   9  19  36  58  80 121 158 188 235 309 357
#     4   8  16  35  58  83 113 158 195 234 305 358
#     4  11  22  35  61  91 116 148 209 256 303 358
#     4   8  17  33  56  81 112 153 195 230 287 371
#     4  11  21  36  59  94 128 152 191 264 307 352
#
# _framework density 22.609359999999999
#
# number of rings (size 3 to 8) (size 9 to 14) (size 15 to 20)
#    0.000    2.571    1.429    1.714    0.000    6.857 
#    0.000    0.000    0.000    0.000    0.000    0.000 
#    0.000    0.000    0.000    0.000    0.000    0.000 
#
# Total GULP energy -156195.650127 kJ/mol
# GULP energy per Si atom -5578.416076 kJ/mol
# Density = 2.255790 g / cm^3
# Si number density = 22.609360 Si / 1000 Ang^3
#
#
#
# Elastic Constant Matrix: (Units=GPa)
#
#
# Indices 1 2 3 4 5 6 
#
# 1 69.3788 9.8715 32.3921 0.0000 -19.6694 0.0000
# 2 9.8715 57.1673 17.6837 0.0000 -11.4971 0.0000
# 3 32.3921 17.6837 123.4031 0.0000 -30.9833 0.0000
# 4 0.0000 0.0000 0.0000 20.7262 0.0000 3.6909
# 5 -19.6694 -11.4971 -30.9833 0.0000 45.4302 0.0000
# 6 0.0000 0.0000 0.0000 3.6909 0.0000 23.3442
#
#
#
# Elastic Compliance Matrix: (Units=1/GPa)
#
#
# Indices 1 2 3 4 5 6 
#
# 1 0.017493 -0.001007 -0.003149 0.000000 0.005171 0.000000
# 2 -0.001007 0.018816 -0.001624 0.000000 0.003218 0.000000
# 3 -0.003149 -0.001624 0.010518 0.000000 0.005399 0.000000
# 4 0.000000 0.000000 0.000000 0.049646 0.000000 -0.007849
# 5 0.005171 0.003218 0.005399 0.000000 0.028747 0.000000
# 6 0.000000 0.000000 0.000000 -0.007849 0.000000 0.044078
#
#
# Mechanical properties :
#
#
# Convention : Reuss Voigt Hill
#
# Bulk Modulus (GPa) = 28.35418 41.09375 34.72397
# Shear Modulus (GPa) = 25.95854 30.56692 28.26273
#
# Velocity S-wave (km/s) = 3.39209 3.68089 3.53943
# Velocity P-wave (km/s) = 5.28297 6.02331 5.66525
#
# Compressibility (1/GPa) = 0.03526817
#
# Stress axis : x y z
#
# Youngs Moduli (GPa) = 57.16479 53.14633 95.07112
#
# Poissons Ratio (x) = 0.05349 0.29940
# Poissons Ratio (y) = 0.05754 0.15440
# Poissons Ratio (z) = 0.18002 0.08631
#
# Static dielectric constant tensor:
#      x y z
#    x 1.903560 0.000000 -0.006490 
#    y 0.000000 1.866190 0.000000 
#    z -0.006490 0.000000 1.874850 
# 
# From -- ./inp_files/272655.got.cif
#   From: 2010.05.17/outbox.cif.g08.bks.cpg/sg15_137_cif.got.tgz:272655.got - 2010.06.03 18:47:42.
