data_PCOD9265983
_publ_section_title
;
Structure prediction by ZEFSAII (Michael W. Deem and Ramdas Pophale) SiO2 
 PCOD9265983
Probable space group: C 2/C
;
_chemical_formula_sum "Si O2"
_cell_formula_units_Z 40
_cell_length_a 9.184886
_cell_length_b 13.504233
_cell_length_c 23.873432
_cell_angle_alpha 90.000000
_cell_angle_beta 141.640166
_cell_angle_gamma 90.000000
_cell_volume 1837.676605
_symmetry_space_group_name_H-M "C 2/C"
_symmetry_group_IT_number 15
_symmetry_cell_setting 'monoclinic'
loop_
_space_group_symop_operation_xyz
x,y,z
-x,y,1/2-z
-x,-y,-z
x,-y,1/2+z
1/2+x,1/2+y,z
1/2-x,1/2+y,1/2-z
1/2-x,1/2-y,-z
1/2+x,1/2-y,1/2+z
loop_
_atom_site_type_symbol
_atom_site_label
_atom_site_fract_x
_atom_site_fract_y
_atom_site_fract_z
Si Si1 0.623242 0.616817 0.412058
Si Si2 0.590600 0.404488 0.148844
Si Si3 0.101176 0.111007 0.531763
Si Si4 0.388232 0.824197 0.465703
Si Si5 0.746908 0.712723 0.804087
O O1 0.467954 0.519113 0.357601
O O2 0.787842 0.880145 0.496315
O O3 0.450396 0.709210 0.352761
O O4 0.858806 0.626732 0.446598
O O5 0.721098 0.386179 0.129089
O O6 0.327770 0.358632 0.062276
O O7 0.703597 0.352238 0.236160
O O8 0.928517 0.205989 0.478607
O O9 0.000000 0.000000 0.500000
O O10 0.310168 0.849352 0.378637
O O11 0.500000 0.762186 0.750000
#
# Coordination Sequence:
#
# PCOD9265983 Si02
#       5
#     8   8   8   8   8
#     4  10  20  38  59  81 110 148 186 225 276 332
#     4  10  20  36  58  85 111 143 186 231 275 321
#     4   9  18  33  56  82 110 143 182 222 270 329
#     4  10  19  37  59  81 112 147 182 225 275 332
#     4   9  19  36  55  79 114 149 180 225 279 326
#
# _framework density 21.766615999999999
#
# number of rings (size 3 to 8) (size 9 to 14) (size 15 to 20)
#    0.000    2.400    0.000    3.600    0.000    0.000 
#    0.000   34.000    0.000    0.000    0.000    0.000 
#    0.000    0.000    0.000    0.000    0.000    0.000 
#
# Total GULP energy -111405.758096 kJ/mol
# GULP energy per Si atom -5570.287905 kJ/mol
# Density = 2.171707 g / cm^3
# Si number density = 21.766616 Si / 1000 Ang^3
#
#
#
# Elastic Constant Matrix: (Units=GPa)
#
#
# Indices 1 2 3 4 5 6 
#
# 1 68.1165 16.7728 35.1067 0.0000 -11.0853 0.0000
# 2 16.7728 93.4092 19.2925 0.0000 -11.6274 0.0000
# 3 35.1067 19.2925 70.4413 -0.0001 -13.0770 0.0000
# 4 0.0000 0.0000 -0.0001 8.7540 0.0000 -10.3904
# 5 -11.0853 -11.6274 -13.0770 0.0000 46.2021 0.0000
# 6 0.0000 0.0000 0.0000 -10.3904 0.0000 14.5666
#
#
#
# Elastic Compliance Matrix: (Units=1/GPa)
#
#
# Indices 1 2 3 4 5 6 
#
# 1 0.020128 -0.001468 -0.009290 0.000000 0.001831 0.000000
# 2 -0.001468 0.011648 -0.002090 0.000000 0.001988 0.000000
# 3 -0.009290 -0.002090 0.019934 0.000001 0.002887 0.000001
# 4 0.000000 0.000000 0.000001 0.744908 0.000000 0.531347
# 5 0.001831 0.001988 0.002887 0.000000 0.023401 0.000000
# 6 0.000000 0.000000 0.000001 0.531347 0.000000 0.447663
#
#
# Mechanical properties :
#
#
# Convention : Reuss Voigt Hill
#
# Bulk Modulus (GPa) = 38.43726 41.59011 40.01368
# Shear Modulus (GPa) = 3.84010 24.62420 14.23215
#
# Velocity S-wave (km/s) = 1.32968 3.36710 2.55983
# Velocity P-wave (km/s) = 4.47823 5.85366 5.21152
#
# Compressibility (1/GPa) = 0.02601642
#
# Stress axis : x y z
#
# Youngs Moduli (GPa) = 49.68252 85.85038 50.16474
#
# Poissons Ratio (x) = 0.12600 0.46601
# Poissons Ratio (y) = 0.07292 0.10483
# Poissons Ratio (z) = 0.46153 0.17940
#
# Static dielectric constant tensor:
#      x y z
#    x 1.856550 0.000000 0.022820 
#    y 0.000000 1.788430 0.000000 
#    z 0.022820 0.000000 1.824430 
# 
# From -- ./inp_files/288542.got.cif
#   From: 2010.05.17/outbox.cif.g08.bks.cpg/sg15_145_cif.got.tgz:288542.got - 2010.06.03 18:47:42.
