data_PCOD9265722
_publ_section_title
;
Structure prediction by ZEFSAII (Michael W. Deem and Ramdas Pophale) SiO2 
 PCOD9265722
Probable space group: C 2/C
;
_chemical_formula_sum "Si O2"
_cell_formula_units_Z 32
_cell_length_a 15.655636
_cell_length_b 11.789921
_cell_length_c 18.942824
_cell_angle_alpha 90.000000
_cell_angle_beta 28.184373
_cell_angle_gamma 90.000000
_cell_volume 1651.405867
_symmetry_space_group_name_H-M "C 2/C"
_symmetry_group_IT_number 15
_symmetry_cell_setting 'monoclinic'
loop_
_space_group_symop_operation_xyz
x,y,z
-x,y,1/2-z
-x,-y,-z
x,-y,1/2+z
1/2+x,1/2+y,z
1/2-x,1/2+y,1/2-z
1/2-x,1/2-y,-z
1/2+x,1/2-y,1/2+z
loop_
_atom_site_type_symbol
_atom_site_label
_atom_site_fract_x
_atom_site_fract_y
_atom_site_fract_z
Si Si1 0.642364 0.317723 0.974798
Si Si2 0.088778 0.593390 0.486866
Si Si3 0.742484 0.258549 0.751988
Si Si4 0.293671 0.419238 0.427178
O O1 0.722609 0.331750 0.838418
O O2 0.703921 0.192744 0.957149
O O3 0.425621 0.314570 0.127489
O O4 0.706767 0.402473 0.988382
O O5 0.228587 0.663521 0.336844
O O6 0.186268 0.527570 0.478412
O O7 0.000000 0.500000 0.500000
O O8 0.931094 0.678456 0.625303
O O9 0.500000 0.422813 0.250000
#
# Coordination Sequence:
#
# PCOD9265722 Si02
#       4
#     8   8   8   8
#     4  10  19  36  64  93 121 154 213 263 308 364
#     4  11  21  40  63  91 132 165 206 263 312 363
#     4  10  20  38  65  93 123 165 212 255 308 380
#     4  11  20  35  63  92 124 158 203 268 315 350
#
# _framework density 19.377428999999999
#
# number of rings (size 3 to 8) (size 9 to 14) (size 15 to 20)
#    0.000    1.500    7.500    0.000    0.000    0.000 
#    0.000   12.500    0.000    0.000    0.000    0.000 
#    0.000    0.000    0.000    0.000    0.000    0.000 
#
# Total GULP energy -89402.151917 kJ/mol
# GULP energy per Si atom -5587.634495 kJ/mol
# Density = 1.933332 g / cm^3
# Si number density = 19.377429 Si / 1000 Ang^3
#
#
#
# Elastic Constant Matrix: (Units=GPa)
#
#
# Indices 1 2 3 4 5 6 
#
# 1 106.2331 60.5265 45.1193 -0.0001 4.4320 -0.0001
# 2 60.5265 93.4437 48.7146 0.0009 3.5428 -0.0006
# 3 45.1193 48.7146 112.1291 0.0002 -1.0402 -0.0005
# 4 -0.0001 0.0009 0.0002 11.4250 0.0004 3.0124
# 5 4.4320 3.5428 -1.0402 0.0004 15.9620 -0.0001
# 6 -0.0001 -0.0006 -0.0005 3.0124 -0.0001 51.9574
#
#
#
# Elastic Compliance Matrix: (Units=1/GPa)
#
#
# Indices 1 2 3 4 5 6 
#
# 1 0.015509 -0.008640 -0.002511 0.000001 -0.002552 0.000000
# 2 -0.008640 0.018843 -0.004729 -0.000001 -0.002091 0.000000
# 3 -0.002511 -0.004729 0.012006 0.000000 0.002529 0.000000
# 4 0.000001 -0.000001 0.000000 0.088886 -0.000002 -0.005153
# 5 -0.002552 -0.002091 0.002529 -0.000002 0.063986 0.000000
# 6 0.000000 0.000000 0.000000 -0.005153 0.000000 0.019545
#
#
# Mechanical properties :
#
#
# Convention : Reuss Voigt Hill
#
# Bulk Modulus (GPa) = 68.49851 68.94739 68.72295
# Shear Modulus (GPa) = 19.57708 26.36524 22.97116
#
# Velocity S-wave (km/s) = 3.18198 3.69265 3.44679
# Velocity P-wave (km/s) = 6.99474 7.33754 7.16819
#
# Compressibility (1/GPa) = 0.01459886
#
# Stress axis : x y z
#
# Youngs Moduli (GPa) = 64.48041 53.07121 83.28826
#
# Poissons Ratio (x) = 0.45853 0.20910
# Poissons Ratio (y) = 0.55710 0.39387
# Poissons Ratio (z) = 0.16188 0.25098
#
# Static dielectric constant tensor:
#      x y z
#    x 1.675070 0.000000 0.003810 
#    y 0.000000 1.663030 0.000000 
#    z 0.003810 0.000000 1.673710 
# 
# From -- ./inp_files/36530.got.cif
#   From: 2010.05.17/outbox.cif.g08.bks.cpg/sg15_19_cif.got.tgz:36530.got - 2010.06.03 18:47:42.
