data_PCOD9265307
_publ_section_title
;
Structure prediction by ZEFSAII (Michael W. Deem and Ramdas Pophale) SiO2 
 PCOD9265307
Probable space group: C 2/C
;
_chemical_formula_sum "Si O2"
_cell_formula_units_Z 56
_cell_length_a 25.923216
_cell_length_b 7.580150
_cell_length_c 13.845037
_cell_angle_alpha 90.000000
_cell_angle_beta 61.466485
_cell_angle_gamma 90.000000
_cell_volume 2390.128639
_symmetry_space_group_name_H-M "C 2/C"
_symmetry_group_IT_number 15
_symmetry_cell_setting 'monoclinic'
loop_
_space_group_symop_operation_xyz
x,y,z
-x,y,1/2-z
-x,-y,-z
x,-y,1/2+z
1/2+x,1/2+y,z
1/2-x,1/2+y,1/2-z
1/2-x,1/2-y,-z
1/2+x,1/2-y,1/2+z
loop_
_atom_site_type_symbol
_atom_site_label
_atom_site_fract_x
_atom_site_fract_y
_atom_site_fract_z
Si Si1 0.567147 0.353395 0.169115
Si Si2 0.663227 0.516647 0.733277
Si Si3 0.433756 0.437289 0.541198
Si Si4 0.442001 0.931773 0.359052
Si Si5 0.165027 0.375791 0.169559
Si Si6 0.887815 0.443990 0.087374
Si Si7 0.277349 0.102189 0.544403
O O1 0.500000 0.407112 0.250000
O O2 0.620132 0.406780 0.190029
O O3 0.564270 0.141557 0.159905
O O4 0.579410 0.445127 0.058336
O O5 0.620048 0.536167 0.861171
O O6 0.679893 0.311341 0.702186
O O7 0.727059 0.597389 0.671196
O O8 0.500000 0.500000 0.500000
O O9 0.426164 0.230630 0.576824
O O10 0.500000 0.873688 0.250000
O O11 0.430057 0.926866 0.485704
O O12 0.390435 0.837383 0.348829
O O13 0.142563 0.493610 0.282487
O O14 0.210382 0.455083 0.050819
O O15 0.836809 0.391272 0.055232
O O16 0.250000 0.250000 0.500000
#
# Coordination Sequence:
#
# PCOD9265307 Si02
#       7
#     8   8   8   8   8   8   8
#     4  10  19  36  60  87 121 160 204 245 295 374
#     4  11  22  37  61  91 119 159 200 255 312 361
#     4  10  19  36  59  93 124 156 201 253 308 367
#     4   9  19  37  59  83 122 166 202 241 305 374
#     4  10  22  39  57  88 126 154 201 263 313 355
#     4   9  21  38  59  90 124 158 205 260 303 369
#     4  11  23  43  65  85 119 165 214 251 309 379
#
# _framework density 23.4297
#
# number of rings (size 3 to 8) (size 9 to 14) (size 15 to 20)
#    0.000    2.000    1.429    3.000    0.000    4.571 
#    0.000    5.714    0.000    0.000    0.000    0.000 
#    0.000    0.000    0.000    0.000    0.000    0.000 
#
# Total GULP energy -155969.065729 kJ/mol
# GULP energy per Si atom -5570.323776 kJ/mol
# Density = 2.337637 g / cm^3
# Si number density = 23.429700 Si / 1000 Ang^3
#
#
#
# Elastic Constant Matrix: (Units=GPa)
#
#
# Indices 1 2 3 4 5 6 
#
# 1 61.0276 7.2820 23.9443 0.0000 -25.6585 0.0000
# 2 7.2820 25.0344 0.6156 0.0000 -5.9160 0.0000
# 3 23.9443 0.6156 120.6433 0.0000 -21.8320 0.0000
# 4 0.0000 0.0000 0.0000 24.1413 0.0000 -4.1041
# 5 -25.6585 -5.9160 -21.8320 0.0000 51.5902 0.0000
# 6 0.0000 0.0000 0.0000 -4.1041 0.0000 21.6974
#
#
#
# Elastic Compliance Matrix: (Units=1/GPa)
#
#
# Indices 1 2 3 4 5 6 
#
# 1 0.021799 -0.004088 -0.002630 0.000000 0.009260 0.000000
# 2 -0.004088 0.041878 0.001190 0.000000 0.003273 0.000000
# 3 -0.002630 0.001190 0.009305 0.000000 0.002766 0.000000
# 4 0.000000 0.000000 0.000000 0.042799 0.000000 0.008095
# 5 0.009260 0.003273 0.002766 0.000000 0.025535 0.000000
# 6 0.000000 0.000000 0.000000 0.008095 0.000000 0.047620
#
#
# Mechanical properties :
#
#
# Convention : Reuss Voigt Hill
#
# Bulk Modulus (GPa) = 16.14809 30.04323 23.09566
# Shear Modulus (GPa) = 22.66192 31.14332 26.90262
#
# Velocity S-wave (km/s) = 3.11341 3.64981 3.39223
# Velocity P-wave (km/s) = 4.45326 5.53281 5.02213
#
# Compressibility (1/GPa) = 0.06192682
#
# Stress axis : x y z
#
# Youngs Moduli (GPa) = 45.87373 23.87874 107.46452
#
# Poissons Ratio (x) = 0.09761 0.28262
# Poissons Ratio (y) = 0.18753 -0.12787
# Poissons Ratio (z) = 0.12064 -0.02841
#
# Static dielectric constant tensor:
#      x y z
#    x 1.879080 0.000000 -0.057550 
#    y 0.000000 2.032960 0.000000 
#    z -0.057550 0.000000 1.910470 
# 
# From -- ./inp_files/180757.got.cif
#   From: 2010.05.17/outbox.cif.g08.bks.cpg/sg15_91_cif.got.tgz:180757.got - 2010.06.03 18:47:42.
