data_PCOD9265700
_publ_section_title
;
Structure prediction by ZEFSAII (Michael W. Deem and Ramdas Pophale) SiO2 
 PCOD9265700
Probable space group: C 2/C
;
_chemical_formula_sum "Si O2"
_cell_formula_units_Z 60
_cell_length_a 12.270995
_cell_length_b 18.425526
_cell_length_c 15.179713
_cell_angle_alpha 90.000000
_cell_angle_beta 69.845471
_cell_angle_gamma 90.000000
_cell_volume 3221.965895
_symmetry_space_group_name_H-M "C 2/C"
_symmetry_group_IT_number 15
_symmetry_cell_setting 'monoclinic'
loop_
_space_group_symop_operation_xyz
x,y,z
-x,y,1/2-z
-x,-y,-z
x,-y,1/2+z
1/2+x,1/2+y,z
1/2-x,1/2+y,1/2-z
1/2-x,1/2-y,-z
1/2+x,1/2-y,1/2+z
loop_
_atom_site_type_symbol
_atom_site_label
_atom_site_fract_x
_atom_site_fract_y
_atom_site_fract_z
Si Si1 0.310207 0.494469 0.057554
Si Si2 0.000000 0.354527 0.250000
Si Si3 0.425188 0.265825 0.905516
Si Si4 0.633398 0.023267 0.449253
Si Si5 0.192092 0.687849 0.394289
Si Si6 0.515720 0.620916 0.496743
Si Si7 0.726360 0.067312 0.759386
Si Si8 0.089149 0.195160 0.802723
O O1 0.405720 0.432269 0.009597
O O2 0.279499 0.484319 0.168797
O O3 0.202570 0.483739 0.022155
O O4 0.372151 0.571185 0.025814
O O5 0.028712 0.301754 0.161310
O O6 0.110092 0.401335 0.247203
O O7 0.329751 0.307130 0.872915
O O8 0.362522 0.233063 0.009056
O O9 0.519334 0.321739 0.916393
O O10 0.645851 0.106317 0.413198
O O11 0.500000 0.000000 0.500000
O O12 0.693814 0.973071 0.358328
O O13 0.154316 0.733114 0.319342
O O14 0.484481 0.661986 0.595419
O O15 0.816278 0.133572 0.748178
O O16 0.000000 0.210418 0.750000
#
# Coordination Sequence:
#
# PCOD9265700 Si02
#       8
#     8   4   8   8   8   8   8   8
#     4  10  20  39  59  87 126 152 199 249 305 358
#     4  12  22  38  60  90 114 154 208 254 288 364
#     4  10  19  36  64  85 115 148 204 253 296 348
#     4  12  24  39  61  88 126 166 200 244 307 374
#     4  10  20  39  60  85 116 162 199 241 302 358
#     4   9  19  36  63  90 115 155 196 256 304 348
#     4  11  23  38  61  87 120 161 203 250 308 363
#     4  10  20  39  62  87 120 161 202 247 305 365
#
# _framework density 18.622171999999999
#
# number of rings (size 3 to 8) (size 9 to 14) (size 15 to 20)
#    0.000    1.600    2.667    3.200    0.000    1.067 
#    3.600    0.000    0.000    4.800    0.000    0.000 
#    0.000    0.000    0.000    0.000    0.000    0.000 
#
# Total GULP energy -167518.280186 kJ/mol
# GULP energy per Si atom -5583.942673 kJ/mol
# Density = 1.857979 g / cm^3
# Si number density = 18.622172 Si / 1000 Ang^3
#
#
#
# Elastic Constant Matrix: (Units=GPa)
#
#
# Indices 1 2 3 4 5 6 
#
# 1 92.5115 37.7928 23.4381 0.0000 18.3097 0.0000
# 2 37.7928 92.9061 20.2822 0.0000 11.8387 0.0000
# 3 23.4381 20.2822 56.0891 0.0000 12.2193 0.0000
# 4 0.0000 0.0000 0.0000 21.7027 0.0000 3.1526
# 5 18.3097 11.8387 12.2193 0.0000 28.3926 0.0000
# 6 0.0000 0.0000 0.0000 3.1526 0.0000 22.7519
#
#
#
# Elastic Compliance Matrix: (Units=1/GPa)
#
#
# Indices 1 2 3 4 5 6 
#
# 1 0.014675 -0.004487 -0.003151 0.000000 -0.006237 0.000000
# 2 -0.004487 0.013358 -0.002618 0.000000 -0.001550 0.000000
# 3 -0.003151 -0.002618 0.021420 0.000000 -0.006095 0.000000
# 4 0.000000 0.000000 0.000000 0.047024 0.000000 -0.006516
# 5 -0.006237 -0.001550 -0.006095 0.000000 0.042511 0.000000
# 6 0.000000 0.000000 0.000000 -0.006516 0.000000 0.044855
#
#
# Mechanical properties :
#
#
# Convention : Reuss Voigt Hill
#
# Bulk Modulus (GPa) = 34.55284 44.94811 39.75047
# Shear Modulus (GPa) = 23.36428 25.23568 24.29998
#
# Velocity S-wave (km/s) = 3.54594 3.68522 3.61625
# Velocity P-wave (km/s) = 5.94642 6.50362 6.23125
#
# Compressibility (1/GPa) = 0.02894118
#
# Stress axis : x y z
#
# Youngs Moduli (GPa) = 68.14223 74.86316 46.68554
#
# Poissons Ratio (x) = 0.33591 0.14711
# Poissons Ratio (y) = 0.30575 0.12221
# Poissons Ratio (z) = 0.21473 0.19596
#
# Static dielectric constant tensor:
#      x y z
#    x 1.621690 0.000000 -0.009010 
#    y 0.000000 1.633450 0.000000 
#    z -0.009010 0.000000 1.668990 
# 
# From -- ./inp_files/146049.got.cif
#   From: 2010.05.17/outbox.cif.g08.bks.cpg/sg15_74_cif.got.tgz:146049.got - 2010.06.03 18:47:42.
