data_PCOD9265690
_publ_section_title
;
Structure prediction by ZEFSAII (Michael W. Deem and Ramdas Pophale) SiO2 
 PCOD9265690
Probable space group: C 2/C
;
_chemical_formula_sum "Si O2"
_cell_formula_units_Z 64
_cell_length_a 17.136889
_cell_length_b 5.530903
_cell_length_c 31.281842
_cell_angle_alpha 90.000000
_cell_angle_beta 97.086072
_cell_angle_gamma 90.000000
_cell_volume 2942.323698
_symmetry_space_group_name_H-M "C 2/C"
_symmetry_group_IT_number 15
_symmetry_cell_setting 'monoclinic'
loop_
_space_group_symop_operation_xyz
x,y,z
-x,y,1/2-z
-x,-y,-z
x,-y,1/2+z
1/2+x,1/2+y,z
1/2-x,1/2+y,1/2-z
1/2-x,1/2-y,-z
1/2+x,1/2-y,1/2+z
loop_
_atom_site_type_symbol
_atom_site_label
_atom_site_fract_x
_atom_site_fract_y
_atom_site_fract_z
Si Si1 0.996980 0.866580 0.569337
Si Si2 0.024475 0.361857 0.848590
Si Si3 0.577759 0.261064 0.496791
Si Si4 0.859531 0.883713 0.853489
Si Si5 0.863079 0.476867 0.075865
Si Si6 0.798056 0.841554 0.461842
Si Si7 0.353118 0.116004 0.382340
Si Si8 0.009597 0.141557 0.200152
O O1 0.029079 0.684778 0.535005
O O2 0.065600 0.897384 0.608155
O O3 0.915714 0.766347 0.582417
O O4 0.978844 0.103113 0.540646
O O5 0.097144 0.355651 0.886075
O O6 0.027320 0.608574 0.820889
O O7 0.944156 0.391581 0.871565
O O8 0.020878 0.113312 0.821751
O O9 0.640424 0.458640 0.518313
O O10 0.622349 0.070439 0.471197
O O11 0.817141 0.638602 0.864836
O O12 0.899808 0.851969 0.810195
O O13 0.820727 0.144585 0.856302
O O14 0.770818 0.450206 0.072501
O O15 0.750000 0.750000 0.500000
O O16 0.839879 0.655123 0.432097
O O17 0.000000 0.137172 0.250000
#
# Coordination Sequence:
#
# PCOD9265690 Si02
#       8
#     8   8   8   8   8   8   8   8
#     4  11  21  36  58  83 111 161 210 257 302 357
#     4  10  22  38  64  88 126 162 202 237 313 390
#     4  11  24  37  56  79 116 166 219 261 304 346
#     4  10  20  36  63  83 117 156 199 239 304 375
#     4  12  24  37  57  84 120 164 209 263 309 352
#     4  12  26  38  52  85 124 163 221 267 302 332
#     4  10  21  39  57  80 116 163 203 246 291 363
#     4  10  19  36  64 101 124 143 186 263 317 368
#
# _framework density 21.751518000000001
#
# number of rings (size 3 to 8) (size 9 to 14) (size 15 to 20)
#    0.000    1.250    5.000    2.625    3.500    1.000 
#    0.000    0.000    0.000    0.000    0.000   14.000 
#    0.000    0.000    0.000    0.000    0.000    0.000 
#
# Total GULP energy -178670.134892 kJ/mol
# GULP energy per Si atom -5583.441715 kJ/mol
# Density = 2.170201 g / cm^3
# Si number density = 21.751518 Si / 1000 Ang^3
#
#
#
# Elastic Constant Matrix: (Units=GPa)
#
#
# Indices 1 2 3 4 5 6 
#
# 1 62.3988 20.5044 28.1542 0.0000 -4.5338 0.0000
# 2 20.5044 150.5512 45.3002 0.0000 -4.9614 0.0000
# 3 28.1542 45.3002 142.2010 0.0000 -26.8871 0.0000
# 4 0.0000 0.0000 0.0000 37.1211 0.0000 -3.5838
# 5 -4.5338 -4.9614 -26.8871 0.0000 22.0425 0.0000
# 6 0.0000 0.0000 0.0000 -3.5838 0.0000 21.0595
#
#
#
# Elastic Compliance Matrix: (Units=1/GPa)
#
#
# Indices 1 2 3 4 5 6 
#
# 1 0.017911 -0.001504 -0.003164 0.000000 -0.000514 0.000000
# 2 -0.001504 0.007514 -0.002385 0.000000 -0.001527 0.000000
# 3 -0.003164 -0.002385 0.010650 0.000000 0.011803 0.000000
# 4 0.000000 0.000000 0.000000 0.027389 0.000000 0.004661
# 5 -0.000514 -0.001527 0.011803 0.000000 0.059315 0.000000
# 6 0.000000 0.000000 0.000000 0.004661 0.000000 0.048278
#
#
# Mechanical properties :
#
#
# Convention : Reuss Voigt Hill
#
# Bulk Modulus (GPa) = 45.51855 60.34092 52.92973
# Shear Modulus (GPa) = 25.97592 33.45742 29.71667
#
# Velocity S-wave (km/s) = 3.45949 3.92620 3.70021
# Velocity P-wave (km/s) = 6.07696 6.95375 6.53009
#
# Compressibility (1/GPa) = 0.02196906
#
# Stress axis : x y z
#
# Youngs Moduli (GPa) = 55.83309 133.07872 93.89485
#
# Poissons Ratio (x) = 0.20018 0.29709
# Poissons Ratio (y) = 0.08398 0.22391
# Poissons Ratio (z) = 0.17666 0.31735
#
# Static dielectric constant tensor:
#      x y z
#    x 1.817970 0.000000 -0.028150 
#    y 0.000000 1.941660 0.000000 
#    z -0.028150 0.000000 1.793420 
# 
# From -- ./inp_files/315106.got.cif
#   From: 2010.05.17/outbox.cif.g08.bks.cpg/sg15_158_cif.got.tgz:315106.got - 2010.06.03 18:47:42.
