data_PCOD9265079
_publ_section_title
;
Structure prediction by ZEFSAII (Michael W. Deem and Ramdas Pophale) SiO2 
 PCOD9265079
Probable space group: C 2/C
;
_chemical_formula_sum "Si O2"
_cell_formula_units_Z 64
_cell_length_a 5.248047
_cell_length_b 24.246473
_cell_length_c 26.212908
_cell_angle_alpha 90.000000
_cell_angle_beta 85.363185
_cell_angle_gamma 90.000000
_cell_volume 3324.587569
_symmetry_space_group_name_H-M "C 2/C"
_symmetry_group_IT_number 15
_symmetry_cell_setting 'monoclinic'
loop_
_space_group_symop_operation_xyz
x,y,z
-x,y,1/2-z
-x,-y,-z
x,-y,1/2+z
1/2+x,1/2+y,z
1/2-x,1/2+y,1/2-z
1/2-x,1/2-y,-z
1/2+x,1/2-y,1/2+z
loop_
_atom_site_type_symbol
_atom_site_label
_atom_site_fract_x
_atom_site_fract_y
_atom_site_fract_z
Si Si1 0.635582 0.484358 0.898232
Si Si2 0.167038 0.674546 0.381248
Si Si3 0.220135 0.844276 0.041419
Si Si4 0.735469 0.551963 0.279945
Si Si5 0.595359 0.969675 0.446064
Si Si6 0.848942 0.134766 0.071436
Si Si7 0.248021 0.675088 0.263351
Si Si8 0.780552 0.279934 0.443616
O O1 0.686874 0.465860 0.838861
O O2 0.344470 0.500986 0.916430
O O3 0.697937 0.429998 0.930266
O O4 0.848296 0.527874 0.913019
O O5 0.360349 0.640474 0.414334
O O6 0.240063 0.660993 0.322551
O O7 0.226255 0.735555 0.400405
O O8 0.868571 0.660521 0.389526
O O9 0.310317 0.907000 0.047684
O O10 0.435140 0.804642 0.061467
O O11 0.932835 0.827289 0.060730
O O12 0.208343 0.836256 0.980721
O O13 0.500000 0.531559 0.250000
O O14 0.740453 0.618892 0.270947
O O15 0.000000 0.532694 0.250000
O O16 0.500000 0.000000 0.500000
O O17 0.500000 0.708936 0.250000
O O18 0.000000 0.706450 0.250000
O O19 0.750000 0.250000 0.500000
#
# Coordination Sequence:
#
# PCOD9265079 Si02
#       8
#     8   8   8   8   8   8   8   8
#     4  12  24  38  63  91 125 176 204 252 327 386
#     4  12  23  36  61  91 126 168 196 248 321 384
#     4  12  24  40  58  84 126 169 205 271 283 357
#     4  10  19  36  57  87 125 150 195 255 315 382
#     4  12  26  42  59  89 128 174 223 255 307 381
#     4  12  21  34  59  88 123 164 209 240 308 358
#     4  10  20  36  54  84 125 150 189 246 309 377
#     4  12  23  40  59  90 123 166 216 251 306 372
#
# _framework density 19.250509000000001
#
# number of rings (size 3 to 8) (size 9 to 14) (size 15 to 20)
#    0.000    0.500    3.750    7.500    1.750    0.000 
#    0.000    0.000    0.000    0.000    0.000   17.500 
#    0.000    0.000    0.000    0.000    0.000    0.000 
#
# Total GULP energy -178513.495684 kJ/mol
# GULP energy per Si atom -5578.546740 kJ/mol
# Density = 1.920669 g / cm^3
# Si number density = 19.250509 Si / 1000 Ang^3
#
#
#
# Elastic Constant Matrix: (Units=GPa)
#
#
# Indices 1 2 3 4 5 6 
#
# 1 132.6335 14.1804 32.5030 0.0000 0.9480 0.0000
# 2 14.1804 63.8842 17.5599 0.0000 2.6818 0.0000
# 3 32.5030 17.5599 79.3537 0.0000 -3.4436 0.0000
# 4 0.0000 0.0000 0.0000 6.3346 0.0000 0.9283
# 5 0.9480 2.6818 -3.4436 0.0000 33.1976 0.0000
# 6 0.0000 0.0000 0.0000 0.9283 0.0000 33.3173
#
#
#
# Elastic Compliance Matrix: (Units=1/GPa)
#
#
# Indices 1 2 3 4 5 6 
#
# 1 0.008447 -0.000955 -0.003270 0.000000 -0.000503 0.000000
# 2 -0.000955 0.016875 -0.003417 0.000000 -0.001690 0.000000
# 3 -0.003270 -0.003417 0.014780 0.000000 0.001902 0.000000
# 4 0.000000 0.000000 0.000000 0.158511 0.000000 -0.004417
# 5 -0.000503 -0.001690 0.001902 0.000000 0.030471 0.000000
# 6 0.000000 0.000000 0.000000 -0.004417 0.000000 0.030137
#
#
# Mechanical properties :
#
#
# Convention : Reuss Voigt Hill
#
# Bulk Modulus (GPa) = 40.29246 44.92869 42.61057
# Shear Modulus (GPa) = 17.68174 28.67844 23.18009
#
# Velocity S-wave (km/s) = 3.03398 3.86391 3.47382
# Velocity P-wave (km/s) = 5.76623 6.57998 6.18650
#
# Compressibility (1/GPa) = 0.02481854
#
# Stress axis : x y z
#
# Youngs Moduli (GPa) = 118.38987 59.25807 67.65957
#
# Poissons Ratio (x) = 0.05658 0.22126
# Poissons Ratio (y) = 0.11305 0.23116
# Poissons Ratio (z) = 0.38717 0.20246
#
# Static dielectric constant tensor:
#      x y z
#    x 1.773410 0.000000 -0.023160 
#    y 0.000000 1.682460 0.000000 
#    z -0.023160 0.000000 1.690820 
# 
# From -- ./inp_files/286614.got.cif
#   From: 2010.05.17/outbox.cif.g08.bks.cpg/sg15_144_cif.got.tgz:286614.got - 2010.06.03 18:47:42.
