data_PCOD9265727
_publ_section_title
;
Structure prediction by ZEFSAII (Michael W. Deem and Ramdas Pophale) SiO2 
 PCOD9265727
Probable space group: C 2/C
;
_chemical_formula_sum "Si O2"
_cell_formula_units_Z 48
_cell_length_a 12.964243
_cell_length_b 29.389700
_cell_length_c 10.717932
_cell_angle_alpha 90.000000
_cell_angle_beta 34.958410
_cell_angle_gamma 90.000000
_cell_volume 2339.882490
_symmetry_space_group_name_H-M "C 2/C"
_symmetry_group_IT_number 15
_symmetry_cell_setting 'monoclinic'
loop_
_space_group_symop_operation_xyz
x,y,z
-x,y,1/2-z
-x,-y,-z
x,-y,1/2+z
1/2+x,1/2+y,z
1/2-x,1/2+y,1/2-z
1/2-x,1/2-y,-z
1/2+x,1/2-y,1/2+z
loop_
_atom_site_type_symbol
_atom_site_label
_atom_site_fract_x
_atom_site_fract_y
_atom_site_fract_z
Si Si1 0.746546 0.796632 0.265010
Si Si2 0.200004 0.067169 0.569589
Si Si3 0.602720 0.293899 0.774807
Si Si4 0.482385 0.949486 0.568858
Si Si5 0.110731 0.351990 0.930379
Si Si6 0.288865 0.166971 0.441482
O O1 0.693711 0.749138 0.252942
O O2 0.586120 0.830085 0.383638
O O3 0.754558 0.795770 0.409377
O O4 0.939139 0.811324 0.023062
O O5 0.317278 0.059166 0.576538
O O6 0.333210 0.051581 0.326754
O O7 0.186211 0.121593 0.579054
O O8 0.000000 0.047681 0.750000
O O9 0.500000 0.279711 0.750000
O O10 0.758335 0.331318 0.594620
O O11 0.417863 0.906276 0.549168
O O12 0.500000 0.000000 0.500000
O O13 0.215076 0.331505 0.703848
O O14 0.500000 0.156592 0.250000
#
# Coordination Sequence:
#
# PCOD9265727 Si02
#       6
#     8   8   8   8   8   8
#     4  11  22  39  63  87 123 169 214 263 322 379
#     4  10  19  36  64  94 125 161 201 262 327 387
#     4  12  26  41  59  88 128 182 223 257 316 385
#     4  10  21  41  64  90 129 169 209 258 332 392
#     4  10  22  41  62  94 126 162 215 273 321 389
#     4   9  18  38  61  94 124 155 204 262 334 377
#
# _framework density 20.513850999999999
#
# number of rings (size 3 to 8) (size 9 to 14) (size 15 to 20)
#    0.000    1.667    6.667    0.500    4.667    1.333 
#    3.000    4.167    0.000    0.000    0.000    0.000 
#    0.000    0.000    0.000    0.000    0.000    0.000 
#
# Total GULP energy -133659.209204 kJ/mol
# GULP energy per Si atom -5569.133717 kJ/mol
# Density = 2.046716 g / cm^3
# Si number density = 20.513851 Si / 1000 Ang^3
#
#
#
# Elastic Constant Matrix: (Units=GPa)
#
#
# Indices 1 2 3 4 5 6 
#
# 1 58.0950 37.0195 27.7514 0.0000 -15.0156 0.0000
# 2 37.0195 123.1081 24.3178 0.0000 -2.3635 0.0000
# 3 27.7514 24.3178 78.0593 0.0000 -25.2567 0.0000
# 4 0.0000 0.0000 0.0000 16.2304 0.0000 12.2100
# 5 -15.0156 -2.3635 -25.2567 0.0000 28.2108 0.0000
# 6 0.0000 0.0000 0.0000 12.2100 0.0000 5.3892
#
#
#
# Elastic Compliance Matrix: (Units=1/GPa)
#
#
# Indices 1 2 3 4 5 6 
#
# 1 0.025974 -0.006841 -0.003963 0.000000 0.009704 0.000000
# 2 -0.006841 0.010572 -0.002468 0.000000 -0.004965 0.000000
# 3 -0.003963 -0.002468 0.020046 0.000000 0.015631 0.000000
# 4 0.000000 0.000000 0.000000 -0.087465 0.000000 0.198165
# 5 0.009704 -0.004965 0.015631 0.000000 0.054190 0.000000
# 6 0.000000 0.000000 0.000000 0.198165 0.000000 -0.263416
#
#
# Mechanical properties :
#
#
# Convention : Reuss Voigt Hill
#
# Bulk Modulus (GPa) = 33.28080 48.60442 40.94261
# Shear Modulus (GPa) = -24.56545 21.31099 -1.62723
#
# Velocity S-wave (km/s) = -3.46425 3.22663 -0.89160
# Velocity P-wave (km/s) = 0.50734 6.13404 4.35223
#
# Compressibility (1/GPa) = 0.03004736
#
# Stress axis : x y z
#
# Youngs Moduli (GPa) = 38.50015 94.58620 49.88527
#
# Poissons Ratio (x) = 0.64710 0.19770
# Poissons Ratio (y) = 0.26340 0.12311
# Poissons Ratio (z) = 0.15258 0.23343
#
# Static dielectric constant tensor:
#      x y z
#    x 2.451510 0.000000 -0.134630 
#    y 0.000000 1.747940 0.000000 
#    z -0.134630 0.000000 1.835810 
# 
# From -- ./inp_files/101239.got.cif
#   From: 2010.05.17/outbox.cif.g08.bks.cpg/sg15_51_cif.got.tgz:101239.got - 2010.06.03 18:47:42.
