data_PCOD9265281
_publ_section_title
;
Structure prediction by ZEFSAII (Michael W. Deem and Ramdas Pophale) SiO2 
 PCOD9265281
Probable space group: C 2/C
;
_chemical_formula_sum "Si O2"
_cell_formula_units_Z 44
_cell_length_a 11.903078
_cell_length_b 17.085763
_cell_length_c 11.619443
_cell_angle_alpha 90.000000
_cell_angle_beta 109.242301
_cell_angle_gamma 90.000000
_cell_volume 2231.065338
_symmetry_space_group_name_H-M "C 2/C"
_symmetry_group_IT_number 15
_symmetry_cell_setting 'monoclinic'
loop_
_space_group_symop_operation_xyz
x,y,z
-x,y,1/2-z
-x,-y,-z
x,-y,1/2+z
1/2+x,1/2+y,z
1/2-x,1/2+y,1/2-z
1/2-x,1/2-y,-z
1/2+x,1/2-y,1/2+z
loop_
_atom_site_type_symbol
_atom_site_label
_atom_site_fract_x
_atom_site_fract_y
_atom_site_fract_z
Si Si1 0.000000 0.445420 0.250000
Si Si2 0.462604 0.907537 0.997917
Si Si3 0.931698 0.911712 0.108831
Si Si4 0.474302 0.582207 0.365871
Si Si5 0.201665 0.570666 0.251238
Si Si6 0.305731 0.835277 0.527090
O O1 0.042242 0.393687 0.369586
O O2 0.888474 0.501651 0.242868
O O3 0.341289 0.901040 0.887346
O O4 0.565811 0.853553 0.981333
O O5 0.500000 0.000000 0.000000
O O6 0.000000 0.887100 0.250000
O O7 0.977228 0.880979 0.996806
O O8 0.793050 0.889908 0.067188
O O9 0.944058 0.005314 0.104093
O O10 0.500000 0.623674 0.250000
O O11 0.339193 0.550215 0.307315
O O12 0.184273 0.639375 0.337304
O O13 0.250000 0.750000 0.500000
#
# Coordination Sequence:
#
# PCOD9265281 Si02
#       6
#     4   8   8   8   8   8
#     4  10  20  32  62  92 118 146 204 266 308 350
#     4  10  20  35  60  91 118 155 210 259 309 357
#     4   9  20  33  51  83 113 148 192 244 294 352
#     4   9  19  32  54  84 119 147 188 248 307 355
#     4  10  19  36  59  88 118 154 201 251 311 358
#     4  11  22  38  59  85 122 163 203 246 306 380
#
# _framework density 19.721519000000001
#
# number of rings (size 3 to 8) (size 9 to 14) (size 15 to 20)
#    0.000    2.182    3.636    0.000   10.182    2.909 
#    0.000    0.000    8.000    1.091    0.000    0.000 
#    0.000    0.000    0.000    0.000    0.000    0.000 
#
# Total GULP energy -122468.486725 kJ/mol
# GULP energy per Si atom -5566.749397 kJ/mol
# Density = 1.967663 g / cm^3
# Si number density = 19.721519 Si / 1000 Ang^3
#
#
#
# Elastic Constant Matrix: (Units=GPa)
#
#
# Indices 1 2 3 4 5 6 
#
# 1 54.1885 12.5588 9.3049 0.0000 12.2740 0.0000
# 2 12.5588 38.3332 6.9039 0.0000 8.4579 0.0000
# 3 9.3049 6.9039 174.8937 0.0000 3.3431 0.0000
# 4 0.0000 0.0000 0.0000 3.3779 0.0000 6.9839
# 5 12.2740 8.4579 3.3431 0.0000 39.3127 0.0000
# 6 0.0000 0.0000 0.0000 6.9839 0.0000 18.0949
#
#
#
# Elastic Compliance Matrix: (Units=1/GPa)
#
#
# Indices 1 2 3 4 5 6 
#
# 1 0.021091 -0.005594 -0.000800 0.000000 -0.005314 0.000000
# 2 -0.005594 0.029036 -0.000764 0.000000 -0.004436 0.000000
# 3 -0.000800 -0.000764 0.005792 0.000000 -0.000079 0.000000
# 4 0.000000 0.000000 0.000000 1.465431 0.000000 -0.565598
# 5 -0.005314 -0.004436 -0.000079 0.000000 0.028057 0.000000
# 6 0.000000 0.000000 0.000000 -0.565598 0.000000 0.273563
#
#
# Mechanical properties :
#
#
# Convention : Reuss Voigt Hill
#
# Bulk Modulus (GPa) = 24.03563 36.10564 30.07064
# Shear Modulus (GPa) = 2.70102 28.06695 15.38398
#
# Velocity S-wave (km/s) = 1.17156 3.77658 2.79599
# Velocity P-wave (km/s) = 3.74754 6.11263 5.06992
#
# Compressibility (1/GPa) = 0.04160490
#
# Stress axis : x y z
#
# Youngs Moduli (GPa) = 47.41283 34.44016 172.65307
#
# Poissons Ratio (x) = 0.19264 0.13808
# Poissons Ratio (y) = 0.26521 0.13187
# Poissons Ratio (z) = 0.03792 0.02631
#
# Static dielectric constant tensor:
#      x y z
#    x 1.775430 0.000000 -0.056480 
#    y 0.000000 1.663280 0.000000 
#    z -0.056480 0.000000 1.785870 
# 
# From -- ./inp_files/87563.got.cif
#   From: 2010.05.17/outbox.cif.g08.bks.cpg/sg15_44_cif.got.tgz:87563.got - 2010.06.03 18:47:42.
