data_PCOD9265587
_publ_section_title
;
Structure prediction by ZEFSAII (Michael W. Deem and Ramdas Pophale) SiO2 
 PCOD9265587
Probable space group: C 2/C
;
_chemical_formula_sum "Si O2"
_cell_formula_units_Z 56
_cell_length_a 8.830086
_cell_length_b 22.057020
_cell_length_c 17.553108
_cell_angle_alpha 90.000000
_cell_angle_beta 128.481894
_cell_angle_gamma 90.000000
_cell_volume 2676.204499
_symmetry_space_group_name_H-M "C 2/C"
_symmetry_group_IT_number 15
_symmetry_cell_setting 'monoclinic'
loop_
_space_group_symop_operation_xyz
x,y,z
-x,y,1/2-z
-x,-y,-z
x,-y,1/2+z
1/2+x,1/2+y,z
1/2-x,1/2+y,1/2-z
1/2-x,1/2-y,-z
1/2+x,1/2-y,1/2+z
loop_
_atom_site_type_symbol
_atom_site_label
_atom_site_fract_x
_atom_site_fract_y
_atom_site_fract_z
Si Si1 0.441365 0.920538 0.649929
Si Si2 0.706844 0.080493 0.774116
Si Si3 0.646107 0.213131 0.725384
Si Si4 0.329871 0.993805 0.883230
Si Si5 0.818711 0.682649 0.929915
Si Si6 0.990949 0.713605 0.139969
Si Si7 0.376505 0.557036 0.565643
O O1 0.500000 0.946176 0.750000
O O2 0.412135 0.849107 0.648768
O O3 0.254125 0.948999 0.550603
O O4 0.617695 0.933661 0.646798
O O5 0.500000 0.079249 0.750000
O O6 0.759111 0.151021 0.778984
O O7 0.680180 0.044654 0.686220
O O8 0.896333 0.059125 0.878292
O O9 0.500000 0.221810 0.750000
O O10 0.577725 0.194244 0.618936
O O11 0.792638 0.269118 0.769979
O O12 0.147290 0.003342 0.879923
O O13 0.500000 0.000000 0.000000
O O14 0.643695 0.730632 0.878241
O O15 0.722746 0.617076 0.923260
O O16 0.965061 0.702586 0.041910
#
# Coordination Sequence:
#
# PCOD9265587 Si02
#       7
#     8   8   8   8   8   8   8
#     4  10  21  39  62  92 130 164 206 263 319 389
#     4  11  22  38  62  93 125 158 210 270 311 368
#     4  11  22  35  58  91 126 162 205 261 319 370
#     4  10  21  38  61  87 120 163 208 255 314 375
#     4  10  19  36  62  90 121 158 212 259 312 381
#     4  10  21  36  62  91 122 165 206 256 318 378
#     4  10  20  38  65  92 119 164 213 261 319 378
#
# _framework density 20.925158
#
# number of rings (size 3 to 8) (size 9 to 14) (size 15 to 20)
#    0.000    1.714    2.857    2.143    0.000    0.571 
#    0.000    9.286    0.000    0.000    0.000    0.000 
#    0.000    0.000    0.000    0.000    0.000    0.000 
#
# Total GULP energy -155894.263203 kJ/mol
# GULP energy per Si atom -5567.652257 kJ/mol
# Density = 2.087753 g / cm^3
# Si number density = 20.925158 Si / 1000 Ang^3
#
#
#
# Elastic Constant Matrix: (Units=GPa)
#
#
# Indices 1 2 3 4 5 6 
#
# 1 57.5570 4.5744 60.2099 0.0000 -13.6995 0.0000
# 2 4.5744 55.3479 2.8491 0.0000 4.4893 0.0000
# 3 60.2099 2.8491 131.2918 0.0000 -19.0216 0.0000
# 4 0.0000 0.0000 0.0000 22.8066 0.0000 -3.5652
# 5 -13.6995 4.4893 -19.0216 0.0000 30.3124 0.0000
# 6 0.0000 0.0000 0.0000 -3.5652 0.0000 18.2353
#
#
#
# Elastic Compliance Matrix: (Units=1/GPa)
#
#
# Indices 1 2 3 4 5 6 
#
# 1 0.034808 -0.002657 -0.014926 0.000000 0.006758 0.000000
# 2 -0.002657 0.018580 0.000267 0.000000 -0.003785 0.000000
# 3 -0.014926 0.000267 0.014820 0.000000 0.002515 0.000000
# 4 0.000000 0.000000 0.000000 0.045229 0.000000 0.008843
# 5 0.006758 -0.003785 0.002515 0.000000 0.038183 0.000000
# 6 0.000000 0.000000 0.000000 0.008843 0.000000 0.056568
#
#
# Mechanical properties :
#
#
# Convention : Reuss Voigt Hill
#
# Bulk Modulus (GPa) = 29.78263 42.16261 35.97262
# Shear Modulus (GPa) = 19.68413 26.04172 22.86293
#
# Velocity S-wave (km/s) = 3.07040 3.53160 3.30904
# Velocity P-wave (km/s) = 5.18012 6.06816 5.64164
#
# Compressibility (1/GPa) = 0.03357662
#
# Stress axis : x y z
#
# Youngs Moduli (GPa) = 28.72933 53.82023 67.47584
#
# Poissons Ratio (x) = 0.14298 1.00714
# Poissons Ratio (y) = 0.07632 -0.01800
# Poissons Ratio (z) = 0.42881 -0.01436
#
# Static dielectric constant tensor:
#      x y z
#    x 1.772750 0.000000 -0.039640 
#    y 0.000000 1.783750 0.000000 
#    z -0.039640 0.000000 1.791000 
# 
# From -- ./inp_files/193299.got.cif
#   From: 2010.05.17/outbox.cif.g08.bks.cpg/sg15_97_cif.got.tgz:193299.got - 2010.06.03 18:47:42.
