data_PCOD9265117
_publ_section_title
;
Structure prediction by ZEFSAII (Michael W. Deem and Ramdas Pophale) SiO2 
 PCOD9265117
Probable space group: C 2/C
;
_chemical_formula_sum "Si O2"
_cell_formula_units_Z 48
_cell_length_a 16.975600
_cell_length_b 13.446026
_cell_length_c 10.417778
_cell_angle_alpha 90.000000
_cell_angle_beta 116.950248
_cell_angle_gamma 90.000000
_cell_volume 2119.663910
_symmetry_space_group_name_H-M "C 2/C"
_symmetry_group_IT_number 15
_symmetry_cell_setting 'monoclinic'
loop_
_space_group_symop_operation_xyz
x,y,z
-x,y,1/2-z
-x,-y,-z
x,-y,1/2+z
1/2+x,1/2+y,z
1/2-x,1/2+y,1/2-z
1/2-x,1/2-y,-z
1/2+x,1/2-y,1/2+z
loop_
_atom_site_type_symbol
_atom_site_label
_atom_site_fract_x
_atom_site_fract_y
_atom_site_fract_z
Si Si1 0.356377 0.143370 0.715988
Si Si2 0.888108 0.861688 0.056185
Si Si3 0.170078 0.862598 0.773243
Si Si4 0.240890 0.437657 0.127358
Si Si5 0.000000 0.028004 0.250000
Si Si6 0.057500 0.649629 0.458141
Si Si7 0.000000 0.509862 0.750000
O O1 0.322243 0.253110 0.661782
O O2 0.279790 0.086015 0.738117
O O3 0.413338 0.076506 0.663669
O O4 0.433094 0.159207 0.882496
O O5 0.823161 0.877820 0.128942
O O6 0.942950 0.759908 0.096985
O O7 0.953510 0.955317 0.112539
O O8 0.831236 0.857341 0.882882
O O9 0.238842 0.945731 0.870783
O O10 0.074889 0.905272 0.742341
O O11 0.153801 0.395973 0.993966
O O12 0.987565 0.569348 0.357386
#
# Coordination Sequence:
#
# PCOD9265117 Si02
#       7
#     8   8   8   8   4   8   4
#     4   9  22  35  54  79 108 143 179 219 269 318
#     4  10  19  36  58  81 110 141 179 226 265 309
#     4  10  20  37  58  75 114 145 174 225 271 312
#     4   9  21  34  56  82 105 139 189 217 265 316
#     4  10  20  34  56  88 108 140 186 208 270 334
#     4   9  21  35  55  83 106 142 181 222 263 321
#     4  12  20  36  58  76 116 144 174 218 280 316
#
# _framework density 22.645098999999998
#
# number of rings (size 3 to 8) (size 9 to 14) (size 15 to 20)
#    1.000    1.333    0.000    2.500    2.333    0.000 
#    0.000    0.833    3.667    0.000    0.000    0.000 
#    0.000    0.000    0.000    0.000    0.000    0.000 
#
# Total GULP energy -133755.245721 kJ/mol
# GULP energy per Si atom -5573.135238 kJ/mol
# Density = 2.259356 g / cm^3
# Si number density = 22.645099 Si / 1000 Ang^3
#
#
#
# Elastic Constant Matrix: (Units=GPa)
#
#
# Indices 1 2 3 4 5 6 
#
# 1 81.1880 28.2232 -6.6185 0.0000 -14.0443 0.0000
# 2 28.2232 133.1799 -6.7792 0.0000 -14.7949 0.0000
# 3 -6.6185 -6.7792 46.1601 0.0000 3.1769 0.0000
# 4 0.0000 0.0000 0.0000 27.8924 0.0000 4.1178
# 5 -14.0443 -14.7949 3.1769 0.0000 19.6877 0.0000
# 6 0.0000 0.0000 0.0000 4.1178 0.0000 12.0578
#
#
#
# Elastic Compliance Matrix: (Units=1/GPa)
#
#
# Indices 1 2 3 4 5 6 
#
# 1 0.014640 -0.002076 0.001196 0.000000 0.008690 0.000000
# 2 -0.002076 0.008515 0.000621 0.000000 0.004818 0.000000
# 3 0.001196 0.000621 0.022081 0.000000 -0.002243 0.000000
# 4 0.000000 0.000000 0.000000 0.037756 0.000000 -0.012894
# 5 0.008690 0.004818 -0.002243 0.000000 0.060975 0.000000
# 6 0.000000 0.000000 0.000000 -0.012894 0.000000 0.087337
#
#
# Mechanical properties :
#
#
# Convention : Reuss Voigt Hill
#
# Bulk Modulus (GPa) = 22.36215 32.24211 27.30213
# Shear Modulus (GPa) = 20.26536 28.30777 24.28656
#
# Velocity S-wave (km/s) = 2.99475 3.53946 3.27844
# Velocity P-wave (km/s) = 4.67488 5.56530 5.13941
#
# Compressibility (1/GPa) = 0.04471841
#
# Stress axis : x y z
#
# Youngs Moduli (GPa) = 68.30808 117.43342 45.28815
#
# Poissons Ratio (x) = 0.24381 -0.05417
# Poissons Ratio (y) = 0.14182 -0.02814
# Poissons Ratio (z) = -0.08170 -0.07297
#
# Static dielectric constant tensor:
#      x y z
#    x 1.801070 0.000000 0.001180 
#    y 0.000000 1.846660 0.000000 
#    z 0.001180 0.000000 1.935720 
# 
# From -- ./inp_files/104298.got.cif
#   From: 2010.05.17/outbox.cif.g08.bks.cpg/sg15_53_cif.got.tgz:104298.got - 2010.06.03 18:47:42.
