data_PCOD9265641
_publ_section_title
;
Structure prediction by ZEFSAII (Michael W. Deem and Ramdas Pophale) SiO2 
 PCOD9265641
Probable space group: C 2/C
;
_chemical_formula_sum "Si O2"
_cell_formula_units_Z 60
_cell_length_a 22.147227
_cell_length_b 7.824424
_cell_length_c 24.592589
_cell_angle_alpha 90.000000
_cell_angle_beta 39.268765
_cell_angle_gamma 90.000000
_cell_volume 2697.438226
_symmetry_space_group_name_H-M "C 2/C"
_symmetry_group_IT_number 15
_symmetry_cell_setting 'monoclinic'
loop_
_space_group_symop_operation_xyz
x,y,z
-x,y,1/2-z
-x,-y,-z
x,-y,1/2+z
1/2+x,1/2+y,z
1/2-x,1/2+y,1/2-z
1/2-x,1/2-y,-z
1/2+x,1/2-y,1/2+z
loop_
_atom_site_type_symbol
_atom_site_label
_atom_site_fract_x
_atom_site_fract_y
_atom_site_fract_z
Si Si1 0.500000 0.402531 0.750000
Si Si2 0.725211 0.438672 0.850019
Si Si3 0.702954 0.045868 0.856809
Si Si4 0.422255 0.927813 0.648662
Si Si5 0.396499 0.545005 0.654545
Si Si6 0.475685 0.256391 0.886108
Si Si7 0.733464 0.412902 0.458596
Si Si8 0.293589 0.549056 0.404338
O O1 0.503810 0.296585 0.803801
O O2 0.597842 0.513061 0.679686
O O3 0.692381 0.248374 0.859471
O O4 0.828479 0.466684 0.750984
O O5 0.646853 0.557984 0.875881
O O6 0.733069 0.463006 0.908364
O O7 0.801935 0.006034 0.756298
O O8 0.615486 0.961189 0.886291
O O9 0.724477 0.998220 0.903604
O O10 0.442230 0.725941 0.639607
O O11 0.500604 0.063948 0.612496
O O12 0.465416 0.387863 0.617272
O O13 0.367202 0.314072 0.968299
O O14 0.745783 0.497455 0.508772
O O15 0.804603 0.256286 0.397767
#
# Coordination Sequence:
#
# PCOD9265641 Si02
#       8
#     4   8   8   8   8   8   8   8
#     4  10  20  36  72  82 120 164 204 264 286 362
#     4  10  20  36  58  90 120 157 201 257 306 359
#     4  10  19  36  63  89 115 157 209 257 305 356
#     4  10  21  37  64  92 117 158 211 258 296 364
#     4  10  20  36  62  89 119 154 207 254 302 354
#     4  11  21  40  59  91 121 164 203 247 311 364
#     4  10  23  37  58  86 124 164 197 248 313 373
#     4  10  20  39  60  86 117 162 209 241 310 364
#
# _framework density 22.243327000000001
#
# number of rings (size 3 to 8) (size 9 to 14) (size 15 to 20)
#    0.000    1.867    2.667    1.600    1.867    1.067 
#    2.400    2.000    8.800    0.000    0.000    0.000 
#    0.000    0.000    0.000    0.000    0.000    0.000 
#
# Total GULP energy -167622.385866 kJ/mol
# GULP energy per Si atom -5587.412862 kJ/mol
# Density = 2.219270 g / cm^3
# Si number density = 22.243327 Si / 1000 Ang^3
#
#
#
# Elastic Constant Matrix: (Units=GPa)
#
#
# Indices 1 2 3 4 5 6 
#
# 1 80.4199 -9.0349 35.4291 0.0003 31.5589 -0.0012
# 2 -9.0349 19.7230 4.0565 0.0005 -9.1918 -0.0011
# 3 35.4291 4.0565 62.6709 0.0000 16.8210 0.0000
# 4 0.0003 0.0005 0.0000 13.8782 0.0000 5.3300
# 5 31.5589 -9.1918 16.8210 0.0000 30.7248 0.0005
# 6 -0.0012 -0.0011 0.0000 5.3300 0.0005 30.0872
#
#
#
# Elastic Compliance Matrix: (Units=1/GPa)
#
#
# Indices 1 2 3 4 5 6 
#
# 1 0.024169 0.004197 -0.008919 -0.000001 -0.018686 0.000002
# 2 0.004197 0.065546 -0.012568 -0.000003 0.022179 0.000003
# 3 -0.008919 -0.012568 0.023870 0.000001 -0.007667 -0.000001
# 4 -0.000001 -0.000003 0.000001 0.077316 0.000000 -0.013697
# 5 -0.018686 0.022179 -0.007667 0.000000 0.062573 -0.000001
# 6 0.000002 0.000003 -0.000001 -0.013697 -0.000001 0.035663
#
#
# Mechanical properties :
#
#
# Convention : Reuss Voigt Hill
#
# Bulk Modulus (GPa) = 12.65757 24.85726 18.75742
# Shear Modulus (GPa) = 14.28360 23.76223 19.02292
#
# Velocity S-wave (km/s) = 2.53682 3.27201 2.92759
# Velocity P-wave (km/s) = 3.77935 5.04719 4.45857
#
# Compressibility (1/GPa) = 0.07900412
#
# Stress axis : x y z
#
# Youngs Moduli (GPa) = 41.37613 15.25639 41.89370
#
# Poissons Ratio (x) = -0.06404 0.37366
# Poissons Ratio (y) = -0.17367 0.52653
# Poissons Ratio (z) = 0.36905 0.19175
#
# Static dielectric constant tensor:
#      x y z
#    x 1.858280 0.000000 -0.004530 
#    y 0.000000 1.804680 0.000000 
#    z -0.004530 0.000000 1.861090 
# 
# From -- ./inp_files/218213.got.cif
#   From: 2010.05.17/outbox.cif.g08.bks.cpg/sg15_110_cif.got.tgz:218213.got - 2010.06.03 18:47:42.
