data_PCOD9265297
_publ_section_title
;
Structure prediction by ZEFSAII (Michael W. Deem and Ramdas Pophale) SiO2 
 PCOD9265297
Probable space group: C 2/C
;
_chemical_formula_sum "Si O2"
_cell_formula_units_Z 64
_cell_length_a 9.526266
_cell_length_b 22.548609
_cell_length_c 23.830963
_cell_angle_alpha 90.000000
_cell_angle_beta 144.088350
_cell_angle_gamma 90.000000
_cell_volume 3002.475717
_symmetry_space_group_name_H-M "C 2/C"
_symmetry_group_IT_number 15
_symmetry_cell_setting 'monoclinic'
loop_
_space_group_symop_operation_xyz
x,y,z
-x,y,1/2-z
-x,-y,-z
x,-y,1/2+z
1/2+x,1/2+y,z
1/2-x,1/2+y,1/2-z
1/2-x,1/2-y,-z
1/2+x,1/2-y,1/2+z
loop_
_atom_site_type_symbol
_atom_site_label
_atom_site_fract_x
_atom_site_fract_y
_atom_site_fract_z
Si Si1 0.224156 0.446763 0.362186
Si Si2 0.370445 0.117717 0.013998
Si Si3 0.107753 0.720203 0.402169
Si Si4 0.447872 0.299940 0.790985
Si Si5 0.256235 0.867068 0.961433
Si Si6 0.763948 0.003081 0.997657
Si Si7 0.990286 0.167315 0.810318
Si Si8 0.076627 0.326177 0.363149
O O1 0.472544 0.473396 0.420198
O O2 0.189700 0.477642 0.411256
O O3 0.217434 0.375992 0.373585
O O4 0.000000 0.459270 0.250000
O O5 0.406656 0.048464 0.035386
O O6 0.132301 0.128002 0.900458
O O7 0.343083 0.151531 0.065169
O O8 0.575730 0.142625 0.038732
O O9 0.250000 0.750000 0.500000
O O10 0.821970 0.719504 0.305901
O O11 0.134542 0.768628 0.360517
O O12 0.500000 0.333094 0.750000
O O13 0.500887 0.339998 0.861507
O O14 0.609102 0.240708 0.851546
O O15 0.240237 0.936602 0.968662
O O16 0.350869 0.835032 0.048305
O O17 0.709241 0.164866 0.733949
O O18 0.000000 0.145748 0.750000
#
# Coordination Sequence:
#
# PCOD9265297 Si02
#       8
#     8   8   8   8   8   8   8   8
#     4  10  21  43  62  86 114 155 215 261 306 370
#     4  11  20  39  60  86 123 164 203 252 311 374
#     4   9  21  37  57  86 123 162 198 248 312 372
#     4  11  21  37  60  91 123 158 201 251 314 378
#     4  11  22  39  58  89 126 162 204 254 312 373
#     4  10  24  40  61  87 121 163 209 257 306 372
#     4  10  19  36  59  90 124 154 205 259 314 380
#     4  10  21  37  63  88 117 159 201 257 315 372
#
# _framework density 21.315743999999999
#
# number of rings (size 3 to 8) (size 9 to 14) (size 15 to 20)
#    0.000    1.750    2.500    1.875    0.000    3.000 
#    0.000    6.250    0.000    0.000    0.000    0.000 
#    0.000    0.000    0.000    0.000    0.000    0.000 
#
# Total GULP energy -178203.035658 kJ/mol
# GULP energy per Si atom -5568.844864 kJ/mol
# Density = 2.126723 g / cm^3
# Si number density = 21.315744 Si / 1000 Ang^3
#
#
#
# Elastic Constant Matrix: (Units=GPa)
#
#
# Indices 1 2 3 4 5 6 
#
# 1 34.9569 8.4184 18.7534 0.0007 -4.4094 -0.0005
# 2 8.4184 106.6269 47.1678 0.0006 -16.1441 0.0000
# 3 18.7534 47.1678 126.3901 0.0021 -11.9385 -0.0002
# 4 0.0007 0.0006 0.0021 1.4495 0.0010 0.4743
# 5 -4.4094 -16.1441 -11.9385 0.0010 18.7437 -0.0001
# 6 -0.0005 0.0000 -0.0002 0.4743 -0.0001 16.5320
#
#
#
# Elastic Compliance Matrix: (Units=1/GPa)
#
#
# Indices 1 2 3 4 5 6 
#
# 1 0.031468 0.000128 -0.004264 -0.000013 0.004797 0.000001
# 2 0.000128 0.012305 -0.003838 -0.000006 0.008184 0.000000
# 3 -0.004264 -0.003838 0.010183 -0.000013 0.002177 0.000000
# 4 -0.000013 -0.000006 -0.000013 0.696434 -0.000055 -0.019981
# 5 0.004797 0.008184 0.002177 -0.000055 0.062915 0.000002
# 6 0.000001 0.000000 0.000000 -0.019981 0.000002 0.061062
#
#
# Mechanical properties :
#
#
# Convention : Reuss Voigt Hill
#
# Bulk Modulus (GPa) = 26.30999 46.29481 36.30240
# Shear Modulus (GPa) = 5.53719 20.25398 12.89558
#
# Velocity S-wave (km/s) = 1.61349 3.08586 2.46230
# Velocity P-wave (km/s) = 3.98006 5.87047 5.01514
#
# Compressibility (1/GPa) = 0.03800838
#
# Stress axis : x y z
#
# Youngs Moduli (GPa) = 31.77791 81.26502 98.20601
#
# Poissons Ratio (x) = -0.01040 0.41873
# Poissons Ratio (y) = -0.00407 0.37694
# Poissons Ratio (z) = 0.13550 0.31191
#
# Static dielectric constant tensor:
#      x y z
#    x 1.823960 0.000000 0.023710 
#    y 0.000000 1.821800 0.000000 
#    z 0.023710 0.000000 1.752340 
# 
# From -- ./inp_files/293795.got.cif
#   From: 2010.05.17/outbox.cif.g08.bks.cpg/sg15_147_cif.got.tgz:293795.got - 2010.06.03 18:47:42.
