data_PCOD9265833
_publ_section_title
;
Structure prediction by ZEFSAII (Michael W. Deem and Ramdas Pophale) SiO2 
 PCOD9265833
Probable space group: C 2/C
;
_chemical_formula_sum "Si O2"
_cell_formula_units_Z 64
_cell_length_a 23.181990
_cell_length_b 21.708393
_cell_length_c 10.039134
_cell_angle_alpha 90.000000
_cell_angle_beta 129.725414
_cell_angle_gamma 90.000000
_cell_volume 3885.675873
_symmetry_space_group_name_H-M "C 2/C"
_symmetry_group_IT_number 15
_symmetry_cell_setting 'monoclinic'
loop_
_space_group_symop_operation_xyz
x,y,z
-x,y,1/2-z
-x,-y,-z
x,-y,1/2+z
1/2+x,1/2+y,z
1/2-x,1/2+y,1/2-z
1/2-x,1/2-y,-z
1/2+x,1/2-y,1/2+z
loop_
_atom_site_type_symbol
_atom_site_label
_atom_site_fract_x
_atom_site_fract_y
_atom_site_fract_z
Si Si1 0.497768 0.248144 0.905196
Si Si2 0.158862 0.801625 0.759482
Si Si3 0.163097 0.562651 0.341436
Si Si4 0.359956 0.054161 0.881484
Si Si5 0.239327 0.669569 0.843912
Si Si6 0.162722 0.778568 0.238962
Si Si7 0.006603 0.367587 0.608508
Si Si8 0.727686 0.335307 0.592557
O O1 0.500000 0.236698 0.750000
O O2 0.428419 0.292819 0.837342
O O3 0.577415 0.275166 0.068442
O O4 0.489265 0.184822 0.975464
O O5 0.189898 0.731627 0.786154
O O6 0.181379 0.838290 0.660272
O O7 0.204947 0.830939 0.948930
O O8 0.163358 0.544684 0.498298
O O9 0.152680 0.504984 0.228526
O O10 0.089884 0.605965 0.215657
O O11 0.235970 0.602072 0.407643
O O12 0.312303 0.110577 0.750551
O O13 0.446080 0.077526 0.008774
O O14 0.289320 0.677957 0.786558
O O15 0.202435 0.711865 0.283765
O O16 0.175347 0.802547 0.406089
O O17 0.000000 0.341889 0.750000
#
# Coordination Sequence:
#
# PCOD9265833 Si02
#       8
#     8   8   8   8   8   8   8   8
#     4  12  22  34  55  89 117 155 182 227 289 349
#     4  10  22  33  56  84 113 143 188 228 290 337
#     4  11  23  39  56  82 112 156 197 231 279 330
#     4  11  23  38  58  79 115 157 196 234 275 329
#     4  10  19  37  53  81 114 145 182 240 279 329
#     4  10  20  35  57  80 114 145 185 233 287 336
#     4  10  23  37  54  80 118 154 196 227 269 335
#     4  10  21  35  57  83 108 148 189 238 277 334
#
# _framework density 16.470751
#
# number of rings (size 3 to 8) (size 9 to 14) (size 15 to 20)
#    0.000    1.500    5.000    0.375    3.500    1.000 
#    0.000    0.000    0.000    0.000    0.000    5.250 
#    0.000    0.000    0.000    0.000    0.000    0.000 
#
# Total GULP energy -178588.516458 kJ/mol
# GULP energy per Si atom -5580.891139 kJ/mol
# Density = 1.643326 g / cm^3
# Si number density = 16.470751 Si / 1000 Ang^3
#
#
#
# Elastic Constant Matrix: (Units=GPa)
#
#
# Indices 1 2 3 4 5 6 
#
# 1 65.0084 27.2287 48.3914 0.0000 -2.6739 0.0000
# 2 27.2287 40.5714 18.4773 0.0000 -7.9188 0.0000
# 3 48.3914 18.4773 91.1382 0.0000 -0.4707 0.0000
# 4 0.0000 0.0000 0.0000 20.2982 0.0000 -3.7680
# 5 -2.6739 -7.9188 -0.4707 0.0000 29.1299 0.0000
# 6 0.0000 0.0000 0.0000 -3.7680 0.0000 13.8743
#
#
#
# Elastic Compliance Matrix: (Units=1/GPa)
#
#
# Indices 1 2 3 4 5 6 
#
# 1 0.032241 -0.015568 -0.013970 0.000000 -0.001498 0.000000
# 2 -0.015568 0.036316 0.000947 0.000000 0.008458 0.000000
# 3 -0.013970 0.000947 0.018194 0.000000 -0.000731 0.000000
# 4 0.000000 0.000000 0.000000 0.051881 0.000000 0.014090
# 5 -0.001498 0.008458 -0.000731 0.000000 0.036479 0.000000
# 6 0.000000 0.000000 0.000000 0.014090 0.000000 0.075902
#
#
# Mechanical properties :
#
#
# Convention : Reuss Voigt Hill
#
# Bulk Modulus (GPa) = 33.81963 42.76807 38.29385
# Shear Modulus (GPa) = 15.72072 19.50187 17.61129
#
# Velocity S-wave (km/s) = 3.09279 3.44471 3.27348
# Velocity P-wave (km/s) = 5.77335 6.46868 6.13088
#
# Compressibility (1/GPa) = 0.02956862
#
# Stress axis : x y z
#
# Youngs Moduli (GPa) = 31.01638 27.53637 54.96198
#
# Poissons Ratio (x) = 0.42868 0.76784
# Poissons Ratio (y) = 0.48286 -0.05206
# Poissons Ratio (z) = 0.43331 -0.02608
#
# Static dielectric constant tensor:
#      x y z
#    x 1.559370 0.000000 -0.010630 
#    y 0.000000 1.525130 0.000000 
#    z -0.010630 0.000000 1.554050 
# 
# From -- ./inp_files/58616.got.cif
#   From: 2010.05.17/outbox.cif.g08.bks.cpg/sg15_30_cif.got.tgz:58616.got - 2010.06.03 18:47:42.
