data_PCOD9265811
_publ_section_title
;
Structure prediction by ZEFSAII (Michael W. Deem and Ramdas Pophale) SiO2 
 PCOD9265811
Probable space group: C 2/C
;
_chemical_formula_sum "Si O2"
_cell_formula_units_Z 48
_cell_length_a 7.481459
_cell_length_b 23.122082
_cell_length_c 11.414082
_cell_angle_alpha 90.000000
_cell_angle_beta 95.059047
_cell_angle_gamma 90.000000
_cell_volume 1966.794848
_symmetry_space_group_name_H-M "C 2/C"
_symmetry_group_IT_number 15
_symmetry_cell_setting 'monoclinic'
loop_
_space_group_symop_operation_xyz
x,y,z
-x,y,1/2-z
-x,-y,-z
x,-y,1/2+z
1/2+x,1/2+y,z
1/2-x,1/2+y,1/2-z
1/2-x,1/2-y,-z
1/2+x,1/2-y,1/2+z
loop_
_atom_site_type_symbol
_atom_site_label
_atom_site_fract_x
_atom_site_fract_y
_atom_site_fract_z
Si Si1 0.521231 0.147917 0.614143
Si Si2 0.139024 0.568785 0.423729
Si Si3 0.500000 0.450025 0.250000
Si Si4 0.730799 0.527106 0.416670
Si Si5 0.893568 0.873280 0.461550
Si Si6 0.500000 0.838853 0.750000
Si Si7 0.544775 0.246046 0.029798
O O1 0.500000 0.139592 0.750000
O O2 0.642401 0.104891 0.546337
O O3 0.319445 0.138372 0.556294
O O4 0.567008 0.213043 0.577166
O O5 0.259657 0.513108 0.464400
O O6 0.935476 0.544686 0.402813
O O7 0.145358 0.616488 0.319123
O O8 0.657372 0.490368 0.306103
O O9 0.440245 0.408904 0.350305
O O10 0.601252 0.582071 0.430511
O O11 0.001912 0.813600 0.464597
O O12 0.457212 0.794525 0.854524
O O13 0.750000 0.250000 0.000000
#
# Coordination Sequence:
#
# PCOD9265811 Si02
#       7
#     8   8   4   8   8   4   8
#     4   9  17  35  61  86 112 150 200 257 308 357
#     4   9  20  37  62  93 118 150 210 264 304 358
#     4  12  23  36  56  80 120 169 196 238 310 378
#     4  10  22  39  56  88 121 159 202 251 306 370
#     4  10  21  37  54  78 121 157 195 241 304 372
#     4  10  19  36  68  92 118 161 208 264 308 366
#     4   9  19  37  58  87 120 159 205 255 314 365
#
# _framework density 24.405189
#
# number of rings (size 3 to 8) (size 9 to 14) (size 15 to 20)
#    0.000    2.333    0.000    3.000    2.333    0.000 
#    4.500    3.333    0.000   12.000    0.000    0.000 
#    0.000    0.000    0.000    0.000    0.000    0.000 
#
# Total GULP energy -133929.555433 kJ/mol
# GULP energy per Si atom -5580.398143 kJ/mol
# Density = 2.434964 g / cm^3
# Si number density = 24.405189 Si / 1000 Ang^3
#
#
#
# Elastic Constant Matrix: (Units=GPa)
#
#
# Indices 1 2 3 4 5 6 
#
# 1 40.7913 25.1106 0.3636 0.0000 5.1696 0.0000
# 2 25.1106 153.1505 34.6986 0.0000 5.4751 0.0000
# 3 0.3636 34.6986 90.4037 0.0000 -8.6676 0.0000
# 4 0.0000 0.0000 0.0000 28.0555 0.0000 -6.2399
# 5 5.1696 5.4751 -8.6676 0.0000 23.7709 0.0000
# 6 0.0000 0.0000 0.0000 -6.2399 0.0000 27.1497
#
#
#
# Elastic Compliance Matrix: (Units=1/GPa)
#
#
# Indices 1 2 3 4 5 6 
#
# 1 0.027979 -0.004711 0.001260 0.000000 -0.004540 0.000000
# 2 -0.004711 0.008122 -0.003295 0.000000 -0.002047 0.000000
# 3 0.001260 -0.003295 0.012815 0.000000 0.005158 0.000000
# 4 0.000000 0.000000 0.000000 0.037564 0.000000 0.008633
# 5 -0.004540 -0.002047 0.005158 0.000000 0.045408 0.000000
# 6 0.000000 0.000000 0.000000 0.008633 0.000000 0.038817
#
#
# Mechanical properties :
#
#
# Convention : Reuss Voigt Hill
#
# Bulk Modulus (GPa) = 28.22789 44.96569 36.59679
# Shear Modulus (GPa) = 25.50980 30.74009 28.12494
#
# Velocity S-wave (km/s) = 3.23656 3.55289 3.39841
# Velocity P-wave (km/s) = 5.05554 5.94099 5.51606
#
# Compressibility (1/GPa) = 0.03542596
#
# Stress axis : x y z
#
# Youngs Moduli (GPa) = 35.74111 123.12984 78.03094
#
# Poissons Ratio (x) = 0.58002 -0.09833
# Poissons Ratio (y) = 0.16836 0.25708
# Poissons Ratio (z) = -0.04504 0.40566
#
# Static dielectric constant tensor:
#      x y z
#    x 1.992660 0.000000 -0.021120 
#    y 0.000000 2.124870 0.000000 
#    z -0.021120 0.000000 1.950210 
# 
# From -- ./inp_files/79422.got.cif
#   From: 2010.05.17/outbox.cif.g08.bks.cpg/sg15_40_cif.got.tgz:79422.got - 2010.06.03 18:47:42.
