data_PCOD9265102
_publ_section_title
;
Structure prediction by ZEFSAII (Michael W. Deem and Ramdas Pophale) SiO2 
 PCOD9265102
Probable space group: C 2/C
;
_chemical_formula_sum "Si O2"
_cell_formula_units_Z 56
_cell_length_a 14.581094
_cell_length_b 11.507126
_cell_length_c 18.672021
_cell_angle_alpha 90.000000
_cell_angle_beta 36.609820
_cell_angle_gamma 90.000000
_cell_volume 1868.351584
_symmetry_space_group_name_H-M "C 2/C"
_symmetry_group_IT_number 15
_symmetry_cell_setting 'monoclinic'
loop_
_space_group_symop_operation_xyz
x,y,z
-x,y,1/2-z
-x,-y,-z
x,-y,1/2+z
1/2+x,1/2+y,z
1/2-x,1/2+y,1/2-z
1/2-x,1/2-y,-z
1/2+x,1/2-y,1/2+z
loop_
_atom_site_type_symbol
_atom_site_label
_atom_site_fract_x
_atom_site_fract_y
_atom_site_fract_z
Si Si1 0.814552 0.200763 0.776520
Si Si2 0.948636 0.671554 0.008119
Si Si3 0.000000 0.983192 0.250000
Si Si4 0.500000 0.147063 0.750000
Si Si5 0.020949 0.159869 0.121430
Si Si6 0.795251 0.425760 0.889998
Si Si7 0.174314 0.983793 0.343332
Si Si8 0.979834 0.448475 0.900813
O O1 0.630930 0.195213 0.887543
O O2 0.845003 0.319116 0.804873
O O3 0.861790 0.139163 0.670136
O O4 0.881759 0.100855 0.785458
O O5 0.880371 0.775056 0.002166
O O6 0.910303 0.549460 0.994192
O O7 0.939214 0.645428 0.097790
O O8 0.082453 0.066010 0.139870
O O9 0.535576 0.235239 0.792323
O O10 0.376440 0.052318 0.854640
O O11 0.885732 0.086311 0.169592
O O12 0.641048 0.472335 0.946431
O O13 0.851304 0.382195 0.933176
O O14 0.362831 0.991439 0.228957
#
# Coordination Sequence:
#
# PCOD9265102 Si02
#       8
#     8   8   4   4   8   8   8   8
#     4  10  21  35  54  83 111 144 179 230 279 325
#     4  10  19  38  57  79 117 147 181 225 281 332
#     4   9  21  34  58  82 111 145 186 232 280 317
#     4  11  19  32  56  86 105 135 196 222 278 317
#     4  10  19  36  58  78 112 147 181 237 267 332
#     4  12  19  31  58  82 110 138 184 236 261 327
#     4  10  20  36  54  82 110 144 188 225 279 325
#     4  10  21  34  58  84 112 148 182 229 276 333
#
# _framework density 29.972946
#
# number of rings (size 3 to 8) (size 9 to 14) (size 15 to 20)
#    0.000    1.714    4.286    1.286    0.000    0.571 
#    0.000    0.000    3.143    5.143    0.000    0.000 
#    0.000    0.000    0.000    0.000    0.000    0.000 
#
# Total GULP energy -156056.389858 kJ/mol
# GULP energy per Si atom -5573.442495 kJ/mol
# Density = 2.990473 g / cm^3
# Si number density = 29.972946 Si / 1000 Ang^3
#
#
#
# Elastic Constant Matrix: (Units=GPa)
#
#
# Indices 1 2 3 4 5 6 
#
# 1 146.4324 77.0727 42.9735 0.0000 48.7155 0.0000
# 2 77.0727 246.1874 20.9696 0.0000 15.2882 0.0000
# 3 42.9735 20.9696 71.1047 0.0001 24.2917 0.0000
# 4 0.0000 0.0000 0.0001 5.9839 0.0000 13.2509
# 5 48.7155 15.2882 24.2917 0.0000 61.4962 0.0000
# 6 0.0000 0.0000 0.0000 13.2509 0.0000 35.8661
#
#
#
# Elastic Compliance Matrix: (Units=1/GPa)
#
#
# Indices 1 2 3 4 5 6 
#
# 1 0.011904 -0.002952 -0.003876 0.000000 -0.007165 0.000000
# 2 -0.002952 0.004920 -0.000056 0.000000 0.001137 0.000000
# 3 -0.003876 -0.000056 0.017767 -0.000001 -0.003934 0.000000
# 4 0.000000 0.000000 -0.000001 0.918812 0.000001 -0.339458
# 5 -0.007165 0.001137 -0.003934 0.000001 0.023208 0.000000
# 6 0.000000 0.000000 0.000000 -0.339458 0.000000 0.153295
#
#
# Mechanical properties :
#
#
# Convention : Reuss Voigt Hill
#
# Bulk Modulus (GPa) = 48.02119 82.86177 65.44148
# Shear Modulus (GPa) = 4.34551 42.18317 23.26434
#
# Velocity S-wave (km/s) = 1.20539 3.75557 2.78902
# Velocity P-wave (km/s) = 4.24188 6.81992 5.67912
#
# Compressibility (1/GPa) = 0.02082414
#
# Stress axis : x y z
#
# Youngs Moduli (GPa) = 84.00708 203.24760 56.28536
#
# Poissons Ratio (x) = 0.59990 0.21816
# Poissons Ratio (y) = 0.24795 0.00313
# Poissons Ratio (z) = 0.32561 0.01130
#
# Static dielectric constant tensor:
#      x y z
#    x 2.553930 0.000000 0.198660 
#    y 0.000000 2.317720 0.000000 
#    z 0.198660 0.000000 2.959910 
# 
# From -- ./inp_files/243350.got.cif
#   From: 2010.05.17/outbox.cif.g08.bks.cpg/sg15_122_cif.got.tgz:243350.got - 2010.06.03 18:47:42.
