data_PCOD9265582
_publ_section_title
;
Structure prediction by ZEFSAII (Michael W. Deem and Ramdas Pophale) SiO2 
 PCOD9265582
Probable space group: C 2/C
;
_chemical_formula_sum "Si O2"
_cell_formula_units_Z 48
_cell_length_a 10.709417
_cell_length_b 25.419203
_cell_length_c 12.856989
_cell_angle_alpha 90.000000
_cell_angle_beta 145.004230
_cell_angle_gamma 90.000000
_cell_volume 2007.301173
_symmetry_space_group_name_H-M "C 2/C"
_symmetry_group_IT_number 15
_symmetry_cell_setting 'monoclinic'
loop_
_space_group_symop_operation_xyz
x,y,z
-x,y,1/2-z
-x,-y,-z
x,-y,1/2+z
1/2+x,1/2+y,z
1/2-x,1/2+y,1/2-z
1/2-x,1/2-y,-z
1/2+x,1/2-y,1/2+z
loop_
_atom_site_type_symbol
_atom_site_label
_atom_site_fract_x
_atom_site_fract_y
_atom_site_fract_z
Si Si1 0.734257 0.296415 0.904551
Si Si2 0.077544 0.445977 0.681670
Si Si3 0.242278 0.807879 0.450043
Si Si4 0.682819 0.803520 0.232822
Si Si5 0.341370 0.467446 0.233144
Si Si6 0.403075 0.625456 0.475980
O O1 0.500000 0.323938 0.750000
O O2 0.719697 0.257504 0.792318
O O3 0.750000 0.250000 0.000000
O O4 0.943827 0.327592 0.092016
O O5 0.223951 0.493441 0.734278
O O6 0.000000 0.453769 0.750000
O O7 0.859931 0.440914 0.465442
O O8 0.240178 0.396493 0.778667
O O9 0.250000 0.750000 0.500000
O O10 0.354441 0.806008 0.416881
O O11 0.266605 0.846968 0.561126
O O12 0.000000 0.821951 0.250000
O O13 0.897513 0.835368 0.412296
O O14 0.500000 0.490379 0.250000
O O15 0.483157 0.424501 0.391410
#
# Coordination Sequence:
#
# PCOD9265582 Si02
#       6
#     8   8   8   8   8   8
#     4   9  19  38  61  83 122 185 242 279 339 405
#     4  11  25  42  74 105 138 188 224 295 369 438
#     4  10  21  36  56  93 131 173 217 274 334 409
#     4  10  19  36  62  89 126 173 222 288 338 408
#     4  11  23  46  73 103 138 181 239 286 364 450
#     4  11  23  42  66 102 139 174 227 290 360 426
#
# _framework density 23.912704999999999
#
# number of rings (size 3 to 8) (size 9 to 14) (size 15 to 20)
#    0.000    1.667    1.667    4.000    0.000    0.667 
#    9.000    2.500    0.000    0.000    0.000    0.000 
#    0.000    0.000    0.000    0.000    0.000    0.000 
#
# Total GULP energy -133640.342810 kJ/mol
# GULP energy per Si atom -5568.347617 kJ/mol
# Density = 2.385828 g / cm^3
# Si number density = 23.912705 Si / 1000 Ang^3
#
#
#
# Elastic Constant Matrix: (Units=GPa)
#
#
# Indices 1 2 3 4 5 6 
#
# 1 62.2798 16.7460 33.2981 0.0000 14.4443 0.0000
# 2 16.7460 54.4799 28.7308 0.0000 3.8792 0.0000
# 3 33.2981 28.7308 173.8287 0.0000 33.4524 0.0000
# 4 0.0000 0.0000 0.0000 42.9505 0.0000 7.7875
# 5 14.4443 3.8792 33.4524 0.0000 33.4601 0.0000
# 6 0.0000 0.0000 0.0000 7.7875 0.0000 27.8410
#
#
#
# Elastic Compliance Matrix: (Units=1/GPa)
#
#
# Indices 1 2 3 4 5 6 
#
# 1 0.019709 -0.004659 -0.001823 0.000000 -0.006146 0.000000
# 2 -0.004659 0.021250 -0.003136 0.000000 0.002683 0.000000
# 3 -0.001823 -0.003136 0.007923 0.000000 -0.006771 0.000000
# 4 0.000000 0.000000 0.000000 0.024527 0.000000 -0.006860
# 5 -0.006146 0.002683 -0.006771 0.000000 0.038998 0.000000
# 6 0.000000 0.000000 0.000000 -0.006860 0.000000 0.037837
#
#
# Mechanical properties :
#
#
# Convention : Reuss Voigt Hill
#
# Bulk Modulus (GPa) = 33.73054 49.79313 41.76184
# Shear Modulus (GPa) = 27.87637 34.97119 31.42378
#
# Velocity S-wave (km/s) = 3.41802 3.82835 3.62899
# Velocity P-wave (km/s) = 5.45101 6.35687 5.92129
#
# Compressibility (1/GPa) = 0.02964673
#
# Stress axis : x y z
#
# Youngs Moduli (GPa) = 50.73754 47.05778 126.20953
#
# Poissons Ratio (x) = 0.21926 0.23003
# Poissons Ratio (y) = 0.23641 0.39581
# Poissons Ratio (z) = 0.09247 0.14758
#
# Static dielectric constant tensor:
#      x y z
#    x 1.213410 0.000000 -0.152410 
#    y 0.000000 1.659280 0.000000 
#    z -0.152410 0.000000 1.858490 
# 
# From -- ./inp_files/148823.got.cif
#   From: 2010.05.17/outbox.cif.g08.bks.cpg/sg15_75_cif.got.tgz:148823.got - 2010.06.03 18:47:42.
