data_PCOD9265645
_publ_section_title
;
Structure prediction by ZEFSAII (Michael W. Deem and Ramdas Pophale) SiO2 
 PCOD9265645
Probable space group: C 2/C
;
_chemical_formula_sum "Si O2"
_cell_formula_units_Z 56
_cell_length_a 19.766862
_cell_length_b 19.199666
_cell_length_c 15.682737
_cell_angle_alpha 90.000000
_cell_angle_beta 152.794503
_cell_angle_gamma 90.000000
_cell_volume 2721.094221
_symmetry_space_group_name_H-M "C 2/C"
_symmetry_group_IT_number 15
_symmetry_cell_setting 'monoclinic'
loop_
_space_group_symop_operation_xyz
x,y,z
-x,y,1/2-z
-x,-y,-z
x,-y,1/2+z
1/2+x,1/2+y,z
1/2-x,1/2+y,1/2-z
1/2-x,1/2-y,-z
1/2+x,1/2-y,1/2+z
loop_
_atom_site_type_symbol
_atom_site_label
_atom_site_fract_x
_atom_site_fract_y
_atom_site_fract_z
Si Si1 0.032187 0.132756 0.131259
Si Si2 0.757788 0.549174 0.761341
Si Si3 0.217245 0.190228 0.178823
Si Si4 0.316337 0.440436 0.959725
Si Si5 0.564729 0.823805 0.070306
Si Si6 0.349150 0.495264 0.174860
Si Si7 0.098391 0.726031 0.788486
O O1 0.137501 0.151487 0.169045
O O2 0.012065 0.204571 0.159281
O O3 0.115282 0.077391 0.284749
O O4 0.883803 0.096239 0.928842
O O5 0.766180 0.485204 0.705215
O O6 0.898376 0.599359 0.919106
O O7 0.727007 0.522237 0.821501
O O8 0.195606 0.141271 0.072546
O O9 0.392776 0.194124 0.385931
O O10 0.145078 0.266571 0.101052
O O11 0.271790 0.466908 0.003350
O O12 0.489299 0.459438 0.142614
O O13 0.627312 0.817536 0.236327
O O14 0.000000 0.689552 0.750000
O O15 0.250000 0.750000 0.000000
#
# Coordination Sequence:
#
# PCOD9265645 Si02
#       7
#     8   8   8   8   8   8   8
#     4  10  19  36  63  89 125 160 197 250 307 368
#     4  11  20  41  64  94 121 166 206 256 308 376
#     4  11  21  43  60  91 121 166 205 256 306 375
#     4  10  21  37  66  94 126 159 214 254 312 362
#     4  11  25  38  65  85 126 169 205 250 322 366
#     4  10  20  36  66  96 120 163 205 261 304 374
#     4  11  22  35  55  89 126 156 201 247 301 379
#
# _framework density 20.579955999999999
#
# number of rings (size 3 to 8) (size 9 to 14) (size 15 to 20)
#    0.000    1.429    2.857    5.143    6.000    0.571 
#    0.000    1.429    0.000    0.000    0.000    0.000 
#    0.000    0.000    0.000    0.000    0.000    0.000 
#
# Total GULP energy -156439.107392 kJ/mol
# GULP energy per Si atom -5587.110978 kJ/mol
# Density = 2.053312 g / cm^3
# Si number density = 20.579956 Si / 1000 Ang^3
#
#
#
# Elastic Constant Matrix: (Units=GPa)
#
#
# Indices 1 2 3 4 5 6 
#
# 1 89.0181 30.8659 20.6257 0.0000 -21.4072 0.0000
# 2 30.8659 63.8691 0.1760 0.0000 -8.7113 0.0000
# 3 20.6257 0.1760 42.3032 0.0000 11.6308 0.0000
# 4 0.0000 0.0000 0.0000 26.2945 0.0000 6.6925
# 5 -21.4072 -8.7113 11.6308 0.0000 37.3661 0.0000
# 6 0.0000 0.0000 0.0000 6.6925 0.0000 15.4791
#
#
#
# Elastic Compliance Matrix: (Units=1/GPa)
#
#
# Indices 1 2 3 4 5 6 
#
# 1 0.020712 -0.008012 -0.014013 0.000000 0.014360 0.000000
# 2 -0.008012 0.019327 0.004210 0.000000 -0.001395 0.000000
# 3 -0.014013 0.004210 0.035423 0.000000 -0.018073 0.000000
# 4 0.000000 0.000000 0.000000 0.042733 0.000000 -0.018476
# 5 0.014360 -0.001395 -0.018073 0.000000 0.040289 0.000000
# 6 0.000000 0.000000 0.000000 -0.018476 0.000000 0.072591
#
#
# Mechanical properties :
#
#
# Convention : Reuss Voigt Hill
#
# Bulk Modulus (GPa) = 25.10672 33.16950 29.13811
# Shear Modulus (GPa) = 17.85815 25.39614 21.62715
#
# Velocity S-wave (km/s) = 2.94895 3.51668 3.24525
# Velocity P-wave (km/s) = 4.88069 5.71329 5.31333
#
# Compressibility (1/GPa) = 0.03982998
#
# Stress axis : x y z
#
# Youngs Moduli (GPa) = 48.28128 51.74043 28.23060
#
# Poissons Ratio (x) = 0.41456 0.39560
# Poissons Ratio (y) = 0.38684 -0.11884
# Poissons Ratio (z) = 0.67658 -0.21780
#
# Static dielectric constant tensor:
#      x y z
#    x 1.745090 0.000000 -0.008500 
#    y 0.000000 1.740950 0.000000 
#    z -0.008500 0.000000 1.757880 
# 
# From -- ./inp_files/57797.got.cif
#   From: 2010.05.17/outbox.cif.g08.bks.cpg/sg15_29_cif.got.tgz:57797.got - 2010.06.03 18:47:42.
