data_PCOD9265672
_publ_section_title
;
Structure prediction by ZEFSAII (Michael W. Deem and Ramdas Pophale) SiO2 
 PCOD9265672
Probable space group: C 2/C
;
_chemical_formula_sum "Si O2"
_cell_formula_units_Z 48
_cell_length_a 9.528387
_cell_length_b 24.611152
_cell_length_c 9.750377
_cell_angle_alpha 90.000000
_cell_angle_beta 67.227529
_cell_angle_gamma 90.000000
_cell_volume 2108.273018
_symmetry_space_group_name_H-M "C 2/C"
_symmetry_group_IT_number 15
_symmetry_cell_setting 'monoclinic'
loop_
_space_group_symop_operation_xyz
x,y,z
-x,y,1/2-z
-x,-y,-z
x,-y,1/2+z
1/2+x,1/2+y,z
1/2-x,1/2+y,1/2-z
1/2-x,1/2-y,-z
1/2+x,1/2-y,1/2+z
loop_
_atom_site_type_symbol
_atom_site_label
_atom_site_fract_x
_atom_site_fract_y
_atom_site_fract_z
Si Si1 0.329630 0.393450 0.763279
Si Si2 0.072396 0.271692 0.576177
Si Si3 0.164731 0.377314 0.402228
Si Si4 0.445695 0.656296 0.969059
Si Si5 0.260824 0.591757 0.576075
Si Si6 0.160157 0.527712 0.121932
O O1 0.500000 0.407556 0.750000
O O2 0.347024 0.345149 0.647076
O O3 0.255483 0.440613 0.701474
O O4 0.237255 0.381392 0.936244
O O5 0.250000 0.250000 0.500000
O O6 0.069354 0.324658 0.482856
O O7 0.985260 0.216105 0.570049
O O8 0.000000 0.287244 0.750000
O O9 0.335552 0.359835 0.386472
O O10 0.161314 0.391053 0.243969
O O11 0.133252 0.430968 0.505611
O O12 0.571390 0.610319 0.941089
O O13 0.244054 0.527868 0.554048
O O14 0.000000 0.513551 0.250000
#
# Coordination Sequence:
#
# PCOD9265672 Si02
#       6
#     8   8   8   8   8   8
#     4   9  21  38  59  89 126 163 209 268 326 382
#     4  10  19  36  63  93 126 168 223 275 318 383
#     4  10  21  36  61  93 124 168 218 264 319 388
#     4   9  19  37  60  90 125 165 213 266 321 385
#     4  11  21  36  60  90 126 165 211 266 327 388
#     4  11  24  41  60  86 126 174 216 260 319 396
#
# _framework density 22.767448999999999
#
# number of rings (size 3 to 8) (size 9 to 14) (size 15 to 20)
#    0.000    2.000    0.000    4.000    0.000   10.000 
#    0.000    0.833    0.000   13.000    0.000    0.000 
#    0.000    0.000    0.000    0.000    0.000    0.000 
#
# Total GULP energy -134003.670540 kJ/mol
# GULP energy per Si atom -5583.486272 kJ/mol
# Density = 2.271563 g / cm^3
# Si number density = 22.767449 Si / 1000 Ang^3
#
#
#
# Elastic Constant Matrix: (Units=GPa)
#
#
# Indices 1 2 3 4 5 6 
#
# 1 73.9501 6.6089 18.9739 0.0000 -6.6908 0.0000
# 2 6.6089 115.1565 48.9336 0.0000 -7.1729 0.0000
# 3 18.9739 48.9336 170.1103 0.0000 37.8312 0.0000
# 4 0.0000 0.0000 0.0000 32.5671 0.0000 -5.6873
# 5 -6.6908 -7.1729 37.8312 0.0000 35.6978 0.0000
# 6 0.0000 0.0000 0.0000 -5.6873 0.0000 8.7082
#
#
#
# Elastic Compliance Matrix: (Units=1/GPa)
#
#
# Indices 1 2 3 4 5 6 
#
# 1 0.014913 0.001015 -0.003431 0.000000 0.006635 0.000000
# 2 0.001015 0.011288 -0.005112 0.000000 0.007876 0.000000
# 3 -0.003431 -0.005112 0.010602 0.000000 -0.012906 0.000000
# 4 0.000000 0.000000 0.000000 0.034659 0.000000 0.022635
# 5 0.006635 0.007876 -0.012906 0.000000 0.044516 0.000000
# 6 0.000000 0.000000 0.000000 0.022635 0.000000 0.129618
#
#
# Mechanical properties :
#
#
# Convention : Reuss Voigt Hill
#
# Bulk Modulus (GPa) = 45.98223 56.47216 51.22720
# Shear Modulus (GPa) = 18.66369 34.37467 26.51918
#
# Velocity S-wave (km/s) = 2.86624 3.88985 3.41660
# Velocity P-wave (km/s) = 5.58517 6.71061 6.17359
#
# Compressibility (1/GPa) = 0.02174753
#
# Stress axis : x y z
#
# Youngs Moduli (GPa) = 67.05765 88.58643 94.32290
#
# Poissons Ratio (x) = -0.08995 0.32362
# Poissons Ratio (y) = -0.06809 0.48218
# Poissons Ratio (z) = 0.23008 0.45286
#
# Static dielectric constant tensor:
#      x y z
#    x 1.896960 0.000000 -0.045950 
#    y 0.000000 1.838350 0.000000 
#    z -0.045950 0.000000 1.952660 
# 
# From -- ./inp_files/90630.got.cif
#   From: 2010.05.17/outbox.cif.g08.bks.cpg/sg15_46_cif.got.tgz:90630.got - 2010.06.03 18:47:42.
