data_PCOD9265085
_publ_section_title
;
Structure prediction by ZEFSAII (Michael W. Deem and Ramdas Pophale) SiO2 
 PCOD9265085
Probable space group: C 2/C
;
_chemical_formula_sum "Si O2"
_cell_formula_units_Z 56
_cell_length_a 22.318500
_cell_length_b 11.537456
_cell_length_c 12.945386
_cell_angle_alpha 90.000000
_cell_angle_beta 68.267260
_cell_angle_gamma 90.000000
_cell_volume 3096.484505
_symmetry_space_group_name_H-M "C 2/C"
_symmetry_group_IT_number 15
_symmetry_cell_setting 'monoclinic'
loop_
_space_group_symop_operation_xyz
x,y,z
-x,y,1/2-z
-x,-y,-z
x,-y,1/2+z
1/2+x,1/2+y,z
1/2-x,1/2+y,1/2-z
1/2-x,1/2-y,-z
1/2+x,1/2-y,1/2+z
loop_
_atom_site_type_symbol
_atom_site_label
_atom_site_fract_x
_atom_site_fract_y
_atom_site_fract_z
Si Si1 0.650952 0.989247 0.243994
Si Si2 0.304453 0.360886 0.351559
Si Si3 0.185420 0.874689 0.603823
Si Si4 0.268798 0.318064 0.153110
Si Si5 0.663275 0.846313 0.542998
Si Si6 0.073517 0.476754 0.986738
Si Si7 0.428676 0.194317 0.822325
O O1 0.710148 0.902753 0.223084
O O2 0.592999 0.907044 0.241804
O O3 0.671622 0.074043 0.139192
O O4 0.621965 0.050432 0.362052
O O5 0.320799 0.495622 0.352088
O O6 0.311248 0.316808 0.229353
O O7 0.229414 0.347697 0.435374
O O8 0.240135 0.805602 0.634369
O O9 0.202931 0.870920 0.470900
O O10 0.121631 0.797777 0.654826
O O11 0.344778 0.282173 0.406046
O O12 0.605248 0.907842 0.518422
O O13 0.075234 0.370281 0.065293
O O14 0.000000 0.500000 0.000000
O O15 0.500000 0.232772 0.750000
#
# Coordination Sequence:
#
# PCOD9265085 Si02
#       7
#     8   8   8   8   8   8   8
#     4  10  19  36  57  88 116 147 194 247 299 350
#     4  11  22  37  57  88 125 154 185 250 307 362
#     4  10  23  38  57  88 117 155 201 238 296 370
#     4  10  21  35  60  85 116 156 193 239 303 362
#     4  10  23  34  57  90 120 150 195 246 303 363
#     4  11  21  37  63  86 115 156 199 250 301 347
#     4  10  21  38  59  86 116 154 204 249 286 353
#
# _framework density 18.085025999999999
#
# number of rings (size 3 to 8) (size 9 to 14) (size 15 to 20)
#    0.000    1.714    4.286    0.000    6.000    0.000 
#    0.000    0.000    3.143    1.714    0.000    0.000 
#    0.000    0.000    0.000    0.000    0.000    0.000 
#
# Total GULP energy -156207.053332 kJ/mol
# GULP energy per Si atom -5578.823333 kJ/mol
# Density = 1.804386 g / cm^3
# Si number density = 18.085026 Si / 1000 Ang^3
#
#
#
# Elastic Constant Matrix: (Units=GPa)
#
#
# Indices 1 2 3 4 5 6 
#
# 1 47.7889 25.6426 24.3898 0.0000 7.2714 0.0000
# 2 25.6426 103.5440 35.4581 0.0000 14.8360 0.0000
# 3 24.3898 35.4581 118.5405 0.0000 4.0721 0.0000
# 4 0.0000 0.0000 0.0000 18.8741 0.0000 0.5427
# 5 7.2714 14.8360 4.0721 0.0000 22.0275 0.0000
# 6 0.0000 0.0000 0.0000 0.5427 0.0000 16.1146
#
#
#
# Elastic Compliance Matrix: (Units=1/GPa)
#
#
# Indices 1 2 3 4 5 6 
#
# 1 0.026012 -0.004418 -0.003862 0.000000 -0.004897 0.000000
# 2 -0.004418 0.012589 -0.002632 0.000000 -0.006534 0.000000
# 3 -0.003862 -0.002632 0.009977 0.000000 0.001204 0.000000
# 4 0.000000 0.000000 0.000000 0.053034 0.000000 -0.001786
# 5 -0.004897 -0.006534 0.001204 0.000000 0.051193 0.000000
# 6 0.000000 0.000000 0.000000 -0.001786 0.000000 0.062116
#
#
# Mechanical properties :
#
#
# Convention : Reuss Voigt Hill
#
# Bulk Modulus (GPa) = 37.37815 48.98382 43.18099
# Shear Modulus (GPa) = 20.35307 23.69545 22.02426
#
# Velocity S-wave (km/s) = 3.35835 3.62363 3.49351
# Velocity P-wave (km/s) = 5.97921 6.68219 6.34045
#
# Compressibility (1/GPa) = 0.02675360
#
# Stress axis : x y z
#
# Youngs Moduli (GPa) = 38.44359 79.43168 100.23370
#
# Poissons Ratio (x) = 0.35089 0.38714
# Poissons Ratio (y) = 0.16983 0.26385
# Poissons Ratio (z) = 0.14848 0.20910
#
# Static dielectric constant tensor:
#      x y z
#    x 1.623620 0.000000 0.026200 
#    y 0.000000 1.608950 0.000000 
#    z 0.026200 0.000000 1.643250 
# 
# From -- ./inp_files/110983.got.cif
#   From: 2010.05.17/outbox.cif.g08.bks.cpg/sg15_56_cif.got.tgz:110983.got - 2010.06.03 18:47:42.
