data_PCOD9265372
_publ_section_title
;
Structure prediction by ZEFSAII (Michael W. Deem and Ramdas Pophale) SiO2 
 PCOD9265372
Probable space group: C 2/C
;
_chemical_formula_sum "Si O2"
_cell_formula_units_Z 40
_cell_length_a 20.230078
_cell_length_b 16.231303
_cell_length_c 13.160474
_cell_angle_alpha 90.000000
_cell_angle_beta 22.931308
_cell_angle_gamma 90.000000
_cell_volume 1683.727482
_symmetry_space_group_name_H-M "C 2/C"
_symmetry_group_IT_number 15
_symmetry_cell_setting 'monoclinic'
loop_
_space_group_symop_operation_xyz
x,y,z
-x,y,1/2-z
-x,-y,-z
x,-y,1/2+z
1/2+x,1/2+y,z
1/2-x,1/2+y,1/2-z
1/2-x,1/2-y,-z
1/2+x,1/2-y,1/2+z
loop_
_atom_site_type_symbol
_atom_site_label
_atom_site_fract_x
_atom_site_fract_y
_atom_site_fract_z
Si Si1 0.026604 0.607772 0.835124
Si Si2 0.530034 0.719939 0.443242
Si Si3 0.630714 0.451560 0.698772
Si Si4 0.758550 0.017079 0.742421
Si Si5 0.653538 0.190830 0.954362
O O1 0.202988 0.558897 0.605631
O O2 0.000000 0.610390 0.750000
O O3 0.039081 0.699538 0.859936
O O4 0.868547 0.556671 0.102830
O O5 0.596094 0.640914 0.289631
O O6 0.631166 0.738300 0.402214
O O7 0.335046 0.704127 0.748474
O O8 0.691641 0.505185 0.708243
O O9 0.444878 0.482093 0.928819
O O10 0.664959 0.104885 0.876628
O O11 0.500000 0.189097 0.250000
#
# Coordination Sequence:
#
# PCOD9265372 Si02
#       5
#     8   8   8   8   8
#     4  10  19  36  60  87 119 153 191 242 293 345
#     4  11  23  37  60  89 118 152 200 243 290 354
#     4   9  18  35  58  84 117 155 189 237 296 346
#     4   9  19  35  57  83 115 155 197 234 287 353
#     4  11  22  39  59  83 117 158 198 245 292 342
#
# _framework density 23.756813999999999
#
# number of rings (size 3 to 8) (size 9 to 14) (size 15 to 20)
#    0.000    2.000    0.000    5.400    0.000    0.800 
#    0.000    5.000    0.000    4.800    0.000    0.000 
#    0.000    0.000    0.000    0.000    0.000    0.000 
#
# Total GULP energy -111926.174670 kJ/mol
# GULP energy per Si atom -5596.308734 kJ/mol
# Density = 2.370274 g / cm^3
# Si number density = 23.756814 Si / 1000 Ang^3
#
#
#
# Elastic Constant Matrix: (Units=GPa)
#
#
# Indices 1 2 3 4 5 6 
#
# 1 49.2841 12.9648 24.6087 -0.0004 -9.8066 0.0003
# 2 12.9648 81.4960 35.4751 -0.0024 -4.2170 0.0017
# 3 24.6087 35.4751 163.7513 -0.0019 -9.9224 0.0014
# 4 -0.0004 -0.0024 -0.0019 30.2842 0.0009 -17.0612
# 5 -9.8066 -4.2170 -9.9224 0.0009 42.2575 -0.0006
# 6 0.0003 0.0017 0.0014 -17.0612 -0.0006 28.8858
#
#
#
# Elastic Compliance Matrix: (Units=1/GPa)
#
#
# Indices 1 2 3 4 5 6 
#
# 1 0.023138 -0.002267 -0.002713 0.000000 0.004506 0.000000
# 2 -0.002267 0.013789 -0.002633 0.000001 0.000232 0.000000
# 3 -0.002713 -0.002633 0.007132 0.000000 0.000782 0.000000
# 4 0.000000 0.000001 0.000000 0.049488 -0.000001 0.029230
# 5 0.004506 0.000232 0.000782 -0.000001 0.024917 0.000000
# 6 0.000000 0.000000 0.000000 0.029230 0.000000 0.051883
#
#
# Mechanical properties :
#
#
# Convention : Reuss Voigt Hill
#
# Bulk Modulus (GPa) = 34.68039 48.95875 41.81957
# Shear Modulus (GPa) = 25.61685 35.05102 30.33394
#
# Velocity S-wave (km/s) = 3.28730 3.84527 3.57718
# Velocity P-wave (km/s) = 5.38872 6.35357 5.89093
#
# Compressibility (1/GPa) = 0.02883474
#
# Stress axis : x y z
#
# Youngs Moduli (GPa) = 43.21849 72.52106 140.20770
#
# Poissons Ratio (x) = 0.16439 0.38040
# Poissons Ratio (y) = 0.09797 0.36911
# Poissons Ratio (z) = 0.11726 0.19092
#
# Static dielectric constant tensor:
#      x y z
#    x 1.936330 0.000000 -0.006730 
#    y 0.000000 1.856420 0.000000 
#    z -0.006730 0.000000 1.891160 
# 
# From -- ./inp_files/85492.got.cif
#   From: 2010.05.17/outbox.cif.g08.bks.cpg/sg15_43_cif.got.tgz:85492.got - 2010.06.03 18:47:42.
