data_PCOD9265780
_publ_section_title
;
Structure prediction by ZEFSAII (Michael W. Deem and Ramdas Pophale) SiO2 
 PCOD9265780
Probable space group: C 2/C
;
_chemical_formula_sum "Si O2"
_cell_formula_units_Z 40
_cell_length_a 21.505741
_cell_length_b 8.433346
_cell_length_c 26.495725
_cell_angle_alpha 90.000000
_cell_angle_beta 22.960745
_cell_angle_gamma 90.000000
_cell_volume 1874.590890
_symmetry_space_group_name_H-M "C 2/C"
_symmetry_group_IT_number 15
_symmetry_cell_setting 'monoclinic'
loop_
_space_group_symop_operation_xyz
x,y,z
-x,y,1/2-z
-x,-y,-z
x,-y,1/2+z
1/2+x,1/2+y,z
1/2-x,1/2+y,1/2-z
1/2-x,1/2-y,-z
1/2+x,1/2-y,1/2+z
loop_
_atom_site_type_symbol
_atom_site_label
_atom_site_fract_x
_atom_site_fract_y
_atom_site_fract_z
Si Si1 0.097592 0.906771 0.250091
Si Si2 0.680603 0.431609 0.363113
Si Si3 0.730999 0.571950 0.538369
Si Si4 0.663129 0.062482 0.352708
Si Si5 0.942952 0.461904 0.734411
O O1 0.184543 0.920505 0.131335
O O2 0.080209 0.717622 0.268224
O O3 0.924822 0.988045 0.374252
O O4 0.196933 0.982251 0.219826
O O5 0.500000 0.500000 0.500000
O O6 0.666421 0.250096 0.357476
O O7 0.793819 0.516767 0.236863
O O8 0.781241 0.449467 0.340053
O O9 0.750000 0.750000 0.500000
O O10 0.894486 0.477005 0.412349
O O11 0.500000 0.000000 0.500000
O O12 0.000000 0.454697 0.750000
#
# Coordination Sequence:
#
# PCOD9265780 Si02
#       5
#     8   8   8   8   8
#     4  10  19  36  66  94 133 177 229 278 336 424
#     4  12  28  47  72 103 143 189 239 299 356 422
#     4   9  17  34  58  96 131 170 221 266 338 414
#     4  12  26  48  71 102 141 188 243 294 359 422
#     4  11  21  38  64  99 135 178 225 276 347 423
#
# _framework density 21.337987999999999
#
# number of rings (size 3 to 8) (size 9 to 14) (size 15 to 20)
#    0.000    1.200    4.000    4.800    2.800    1.600 
#    3.600    1.000    0.000    0.000    0.000    0.000 
#    0.000    0.000    0.000    0.000    0.000    0.000 
#
# Total GULP energy -111604.777045 kJ/mol
# GULP energy per Si atom -5580.238852 kJ/mol
# Density = 2.128942 g / cm^3
# Si number density = 21.337988 Si / 1000 Ang^3
#
#
#
# Elastic Constant Matrix: (Units=GPa)
#
#
# Indices 1 2 3 4 5 6 
#
# 1 118.9737 28.6716 41.3064 0.0003 -18.4660 -0.0002
# 2 28.6716 93.6245 23.2327 0.0018 0.8287 0.0001
# 3 41.3064 23.2327 132.2642 0.0033 -12.7900 0.0001
# 4 0.0003 0.0018 0.0033 22.5280 0.0013 -4.0853
# 5 -18.4660 0.8287 -12.7900 0.0013 20.9036 -0.0002
# 6 -0.0002 0.0001 0.0001 -4.0853 -0.0002 25.0229
#
#
#
# Elastic Compliance Matrix: (Units=1/GPa)
#
#
# Indices 1 2 3 4 5 6 
#
# 1 0.011220 -0.002983 -0.002136 0.000000 0.008722 0.000000
# 2 -0.002983 0.012021 -0.001574 0.000000 -0.004075 0.000000
# 3 -0.002136 -0.001574 0.008852 -0.000001 0.003591 0.000000
# 4 0.000000 0.000000 -0.000001 0.045744 -0.000004 0.007468
# 5 0.008722 -0.004075 0.003591 -0.000004 0.057902 0.000000
# 6 0.000000 0.000000 0.000000 0.007468 0.000000 0.041183
#
#
# Mechanical properties :
#
#
# Convention : Reuss Voigt Hill
#
# Bulk Modulus (GPa) = 53.46037 59.03155 56.24596
# Shear Modulus (GPa) = 25.43970 30.46767 27.95369
#
# Velocity S-wave (km/s) = 3.45661 3.78280 3.62338
# Velocity P-wave (km/s) = 6.40619 6.84138 6.62736
#
# Compressibility (1/GPa) = 0.01870545
#
# Stress axis : x y z
#
# Youngs Moduli (GPa) = 89.12932 83.18693 112.97417
#
# Poissons Ratio (x) = 0.24814 0.24137
# Poissons Ratio (y) = 0.26587 0.17782
# Poissons Ratio (z) = 0.19042 0.13094
#
# Static dielectric constant tensor:
#      x y z
#    x 1.874160 0.000000 0.027090 
#    y 0.000000 1.771560 0.000000 
#    z 0.027090 0.000000 1.893570 
# 
# From -- ./inp_files/318446.got.cif
#   From: 2010.05.17/outbox.cif.g08.bks.cpg/sg15_160_cif.got.tgz:318446.got - 2010.06.03 18:47:42.
