data_PCOD9265139
_publ_section_title
;
Structure prediction by ZEFSAII (Michael W. Deem and Ramdas Pophale) SiO2 
 PCOD9265139
Probable space group: C 2/C
;
_chemical_formula_sum "Si O2"
_cell_formula_units_Z 56
_cell_length_a 25.080691
_cell_length_b 6.970586
_cell_length_c 15.765015
_cell_angle_alpha 90.000000
_cell_angle_beta 109.225294
_cell_angle_gamma 90.000000
_cell_volume 2602.444486
_symmetry_space_group_name_H-M "C 2/C"
_symmetry_group_IT_number 15
_symmetry_cell_setting 'monoclinic'
loop_
_space_group_symop_operation_xyz
x,y,z
-x,y,1/2-z
-x,-y,-z
x,-y,1/2+z
1/2+x,1/2+y,z
1/2-x,1/2+y,1/2-z
1/2-x,1/2-y,-z
1/2+x,1/2-y,1/2+z
loop_
_atom_site_type_symbol
_atom_site_label
_atom_site_fract_x
_atom_site_fract_y
_atom_site_fract_z
Si Si1 0.896493 0.263285 0.490777
Si Si2 0.620016 0.076185 0.140276
Si Si3 0.785620 0.939652 0.993997
Si Si4 0.724247 0.896770 0.796155
Si Si5 0.091968 0.006187 0.659698
Si Si6 0.303118 0.544380 0.180779
Si Si7 0.492715 0.182787 0.343264
O O1 0.869560 0.457761 0.438913
O O2 0.848883 0.136480 0.510222
O O3 0.948483 0.314179 0.577613
O O4 0.916859 0.145716 0.418722
O O5 0.665614 0.012452 0.233895
O O6 0.623821 0.307161 0.134980
O O7 0.555319 0.052765 0.137281
O O8 0.757499 0.999142 0.889723
O O9 0.750000 0.750000 0.000000
O O10 0.788683 0.083754 0.075278
O O11 0.707805 0.684692 0.817930
O O12 0.763299 0.873775 0.733713
O O13 0.132502 0.928467 0.754843
O O14 0.035517 0.104650 0.665606
O O15 0.500000 0.127833 0.250000
#
# Coordination Sequence:
#
# PCOD9265139 Si02
#       7
#     8   8   8   8   8   8   8
#     4  12  20  40  69  82 115 168 198 240 304 355
#     4   9  22  37  61  87 117 153 201 245 297 352
#     4  10  21  33  63  89 115 162 200 237 304 359
#     4  10  19  36  58  83 122 153 193 245 296 355
#     4   9  21  37  60  89 118 152 201 247 296 353
#     4  10  19  37  57  85 122 155 198 244 297 356
#     4  10  22  40  62  86 121 156 197 256 297 347
#
# _framework density 21.518229999999999
#
# number of rings (size 3 to 8) (size 9 to 14) (size 15 to 20)
#    0.857    1.143    1.429    3.429    2.000    0.000 
#    0.000    1.429    9.429    0.000    0.000    0.000 
#    0.000    0.000    0.000    0.000    0.000    0.000 
#
# Total GULP energy -156155.540191 kJ/mol
# GULP energy per Si atom -5576.983578 kJ/mol
# Density = 2.146925 g / cm^3
# Si number density = 21.518230 Si / 1000 Ang^3
#
#
#
# Elastic Constant Matrix: (Units=GPa)
#
#
# Indices 1 2 3 4 5 6 
#
# 1 73.8057 -3.2446 44.8265 0.0000 13.7051 0.0000
# 2 -3.2446 46.6356 19.4934 0.0000 1.6918 0.0000
# 3 44.8265 19.4934 184.8391 0.0000 21.3308 0.0000
# 4 0.0000 0.0000 0.0000 20.0031 0.0000 -18.1017
# 5 13.7051 1.6918 21.3308 0.0000 26.9366 0.0000
# 6 0.0000 0.0000 0.0000 -18.1017 0.0000 22.3674
#
#
#
# Elastic Compliance Matrix: (Units=1/GPa)
#
#
# Indices 1 2 3 4 5 6 
#
# 1 0.017064 0.002978 -0.003774 0.000000 -0.005881 0.000000
# 2 0.002978 0.022958 -0.003084 0.000000 -0.000515 0.000000
# 3 -0.003774 -0.003084 0.007051 0.000000 -0.003470 0.000000
# 4 0.000000 0.000000 0.000000 0.186789 0.000000 0.151166
# 5 -0.005881 -0.000515 -0.003470 0.000000 0.042896 0.000000
# 6 0.000000 0.000000 0.000000 0.151166 0.000000 0.167044
#
#
# Mechanical properties :
#
#
# Convention : Reuss Voigt Hill
#
# Bulk Modulus (GPa) = 25.43671 47.49235 36.46453
# Shear Modulus (GPa) = 10.76042 30.14175 20.45108
#
# Velocity S-wave (km/s) = 2.23863 3.74673 3.08621
# Velocity P-wave (km/s) = 4.30449 6.39030 5.44814
#
# Compressibility (1/GPa) = 0.03931326
#
# Stress axis : x y z
#
# Youngs Moduli (GPa) = 58.60290 43.55823 141.82452
#
# Poissons Ratio (x) = -0.12971 0.53521
# Poissons Ratio (y) = -0.17451 0.43738
# Poissons Ratio (z) = 0.22115 0.13433
#
# Static dielectric constant tensor:
#      x y z
#    x 1.745250 0.000000 -0.005400 
#    y 0.000000 1.835520 0.000000 
#    z -0.005400 0.000000 1.803670 
# 
# From -- ./inp_files/176233.got.cif
#   From: 2010.05.17/outbox.cif.g08.bks.cpg/sg15_89_cif.got.tgz:176233.got - 2010.06.03 18:47:42.
