data_PCOD9265491
_publ_section_title
;
Structure prediction by ZEFSAII (Michael W. Deem and Ramdas Pophale) SiO2 
 PCOD9265491
Probable space group: C 2/C
;
_chemical_formula_sum "Si O2"
_cell_formula_units_Z 60
_cell_length_a 11.068475
_cell_length_b 16.055472
_cell_length_c 14.464082
_cell_angle_alpha 90.000000
_cell_angle_beta 76.065143
_cell_angle_gamma 90.000000
_cell_volume 2494.759434
_symmetry_space_group_name_H-M "C 2/C"
_symmetry_group_IT_number 15
_symmetry_cell_setting 'monoclinic'
loop_
_space_group_symop_operation_xyz
x,y,z
-x,y,1/2-z
-x,-y,-z
x,-y,1/2+z
1/2+x,1/2+y,z
1/2-x,1/2+y,1/2-z
1/2-x,1/2-y,-z
1/2+x,1/2-y,1/2+z
loop_
_atom_site_type_symbol
_atom_site_label
_atom_site_fract_x
_atom_site_fract_y
_atom_site_fract_z
Si Si1 0.457361 0.507913 0.612941
Si Si2 0.500000 0.863118 0.250000
Si Si3 0.939962 0.795855 0.122327
Si Si4 0.409256 0.939732 0.959634
Si Si5 0.304957 0.283992 0.322202
Si Si6 0.321711 0.981684 0.787705
Si Si7 0.282718 0.482184 0.371390
Si Si8 0.045956 0.725691 0.933090
O O1 0.500000 0.500000 0.500000
O O2 0.439270 0.605504 0.635819
O O3 0.322940 0.470658 0.658535
O O4 0.578911 0.481910 0.649298
O O5 0.617899 0.925365 0.218368
O O6 0.495765 0.808129 0.158667
O O7 0.831644 0.762641 0.209895
O O8 0.070551 0.766895 0.143331
O O9 0.949752 0.779175 0.011072
O O10 0.404889 0.936254 0.849704
O O11 0.275516 0.975826 0.016522
O O12 0.432324 0.852669 0.003927
O O13 0.500000 0.000000 0.000000
O O14 0.286668 0.384859 0.337274
O O15 0.184502 0.239152 0.387344
O O16 0.309559 0.967931 0.679824
#
# Coordination Sequence:
#
# PCOD9265491 Si02
#       8
#     8   4   8   8   8   8   8   8
#     4  11  21  36  64  94 120 161 212 257 318 370
#     4  12  22  38  66  86 120 180 200 246 324 396
#     4  10  20  37  65  88 121 161 210 264 302 383
#     4  11  21  36  62  92 120 158 209 261 310 377
#     4   9  18  37  60  86 116 162 211 245 319 375
#     4  12  20  38  63  89 123 157 215 255 312 387
#     4  10  19  36  61  90 119 164 203 257 308 387
#     4  11  22  39  63  88 125 166 217 254 314 381
#
# _framework density 24.050415000000001
#
# number of rings (size 3 to 8) (size 9 to 14) (size 15 to 20)
#    0.000    1.333    6.667    0.800    0.000    0.000 
#    0.000    6.667    2.933    0.000    0.000    0.000 
#    0.000    0.000    0.000    0.000    0.000    0.000 
#
# Total GULP energy -167386.627788 kJ/mol
# GULP energy per Si atom -5579.554260 kJ/mol
# Density = 2.399567 g / cm^3
# Si number density = 24.050415 Si / 1000 Ang^3
#
#
#
# Elastic Constant Matrix: (Units=GPa)
#
#
# Indices 1 2 3 4 5 6 
#
# 1 81.3991 6.7698 12.4087 0.0000 11.3901 0.0000
# 2 6.7698 29.2819 11.8990 0.0000 5.1782 0.0000
# 3 12.4087 11.8990 151.0350 0.0000 11.8638 0.0000
# 4 0.0000 0.0000 0.0000 32.1905 0.0000 2.1607
# 5 11.3901 5.1782 11.8638 0.0000 53.3321 0.0000
# 6 0.0000 0.0000 0.0000 2.1607 0.0000 5.5932
#
#
#
# Elastic Compliance Matrix: (Units=1/GPa)
#
#
# Indices 1 2 3 4 5 6 
#
# 1 0.012914 -0.002282 -0.000694 0.000000 -0.002382 0.000000
# 2 -0.002282 0.036117 -0.002464 0.000000 -0.002471 0.000000
# 3 -0.000694 -0.002464 0.006963 0.000000 -0.001162 0.000000
# 4 0.000000 0.000000 0.000000 0.031892 0.000000 -0.012320
# 5 -0.002382 -0.002471 -0.001162 0.000000 0.019757 0.000000
# 6 0.000000 0.000000 0.000000 -0.012320 0.000000 0.183549
#
#
# Mechanical properties :
#
#
# Convention : Reuss Voigt Hill
#
# Bulk Modulus (GPa) = 22.16621 35.98564 29.07592
# Shear Modulus (GPa) = 15.76736 33.59906 24.68321
#
# Velocity S-wave (km/s) = 2.56324 3.74174 3.20708
# Velocity P-wave (km/s) = 4.24227 5.80194 5.08229
#
# Compressibility (1/GPa) = 0.04511372
#
# Stress axis : x y z
#
# Youngs Moduli (GPa) = 77.43476 27.68806 143.60909
#
# Poissons Ratio (x) = 0.06319 0.09968
# Poissons Ratio (y) = 0.17673 0.35382
# Poissons Ratio (z) = 0.05375 0.06822
#
# Static dielectric constant tensor:
#      x y z
#    x 1.976860 0.000000 -0.047000 
#    y 0.000000 1.955440 0.000000 
#    z -0.047000 0.000000 2.032620 
# 
# From -- ./inp_files/146720.got.cif
#   From: 2010.05.17/outbox.cif.g08.bks.cpg/sg15_74_cif.got.tgz:146720.got - 2010.06.03 18:47:42.
