data_PCOD9265676
_publ_section_title
;
Structure prediction by ZEFSAII (Michael W. Deem and Ramdas Pophale) SiO2 
 PCOD9265676
Probable space group: C 2/C
;
_chemical_formula_sum "Si O2"
_cell_formula_units_Z 56
_cell_length_a 25.799959
_cell_length_b 17.070031
_cell_length_c 8.983213
_cell_angle_alpha 90.000000
_cell_angle_beta 43.098119
_cell_angle_gamma 90.000000
_cell_volume 2703.115094
_symmetry_space_group_name_H-M "C 2/C"
_symmetry_group_IT_number 15
_symmetry_cell_setting 'monoclinic'
loop_
_space_group_symop_operation_xyz
x,y,z
-x,y,1/2-z
-x,-y,-z
x,-y,1/2+z
1/2+x,1/2+y,z
1/2-x,1/2+y,1/2-z
1/2-x,1/2-y,-z
1/2+x,1/2-y,1/2+z
loop_
_atom_site_type_symbol
_atom_site_label
_atom_site_fract_x
_atom_site_fract_y
_atom_site_fract_z
Si Si1 0.101875 0.402232 0.698250
Si Si2 0.581516 0.532491 0.278846
Si Si3 0.836567 0.543601 0.107087
Si Si4 0.016924 0.199812 0.384275
Si Si5 0.834765 0.928248 0.622107
Si Si6 0.916604 0.222950 0.847261
Si Si7 0.042292 0.628160 0.824234
O O1 0.131000 0.457561 0.504009
O O2 0.143055 0.425597 0.769004
O O3 0.110561 0.311548 0.628364
O O4 0.013124 0.410060 0.935865
O O5 0.500000 0.500000 0.500000
O O6 0.567451 0.623945 0.283611
O O7 0.652342 0.536069 0.242266
O O8 0.604130 0.478992 0.095760
O O9 0.747887 0.554330 0.266281
O O10 0.878191 0.592193 0.887437
O O11 0.052022 0.282767 0.358486
O O12 0.000000 0.212806 0.250000
O O13 0.939230 0.188221 0.638059
O O14 0.860535 0.837432 0.546904
O O15 0.000000 0.221621 0.750000
O O16 0.000000 0.623483 0.750000
#
# Coordination Sequence:
#
# PCOD9265676 Si02
#       7
#     8   8   8   8   8   8   8
#     4  10  23  42  70  91 127 172 220 267 312 392
#     4  12  22  40  64  90 124 173 220 262 313 381
#     4  11  23  44  61  98 132 167 217 259 340 381
#     4  10  19  36  63  94 117 156 223 263 308 366
#     4  12  25  41  63  95 138 168 210 273 326 396
#     4  11  22  43  66  97 127 168 219 268 325 379
#     4   8  18  37  64  90 119 160 210 266 304 375
#
# _framework density 20.716840999999999
#
# number of rings (size 3 to 8) (size 9 to 14) (size 15 to 20)
#    0.000    1.429    2.857    3.429    0.000    4.571 
#    2.571    0.714    0.000    0.000    0.000    0.000 
#    0.000    0.000    0.000    0.000    0.000    0.000 
#
# Total GULP energy -156035.108111 kJ/mol
# GULP energy per Si atom -5572.682433 kJ/mol
# Density = 2.066969 g / cm^3
# Si number density = 20.716841 Si / 1000 Ang^3
#
#
#
# Elastic Constant Matrix: (Units=GPa)
#
#
# Indices 1 2 3 4 5 6 
#
# 1 62.7411 19.2412 11.6357 0.0000 -9.2105 0.0000
# 2 19.2412 118.1772 20.5938 0.0000 -8.3199 0.0000
# 3 11.6357 20.5938 50.4994 0.0000 -11.1781 0.0000
# 4 0.0000 0.0000 0.0000 23.0746 0.0000 11.7800
# 5 -9.2105 -8.3199 -11.1781 0.0000 30.2727 0.0000
# 6 0.0000 0.0000 0.0000 11.7800 0.0000 18.9148
#
#
#
# Elastic Compliance Matrix: (Units=1/GPa)
#
#
# Indices 1 2 3 4 5 6 
#
# 1 0.017611 -0.002192 -0.002299 0.000000 0.003907 0.000000
# 2 -0.002192 0.009424 -0.003172 0.000000 0.000752 0.000000
# 3 -0.002299 -0.003172 0.023172 0.000000 0.006985 0.000000
# 4 0.000000 0.000000 0.000000 0.063540 0.000000 -0.039573
# 5 0.003907 0.000752 0.006985 0.000000 0.037008 0.000000
# 6 0.000000 0.000000 0.000000 -0.039573 0.000000 0.077514
#
#
# Mechanical properties :
#
#
# Convention : Reuss Voigt Hill
#
# Bulk Modulus (GPa) = 28.66871 37.15103 32.90987
# Shear Modulus (GPa) = 19.59087 26.44887 23.01987
#
# Velocity S-wave (km/s) = 3.07848 3.57695 3.33703
# Velocity P-wave (km/s) = 5.14825 5.91871 5.54687
#
# Compressibility (1/GPa) = 0.03488123
#
# Stress axis : x y z
#
# Youngs Moduli (GPa) = 56.78421 106.10780 43.15637
#
# Poissons Ratio (x) = 0.23254 0.09923
# Poissons Ratio (y) = 0.12445 0.13688
# Poissons Ratio (z) = 0.13056 0.33656
#
# Static dielectric constant tensor:
#      x y z
#    x 1.767070 0.000000 0.064290 
#    y 0.000000 2.024720 0.000000 
#    z 0.064290 0.000000 1.747820 
# 
# From -- ./inp_files/62683.got.cif
#   From: 2010.05.17/outbox.cif.g08.bks.cpg/sg15_32_cif.got.tgz:62683.got - 2010.06.03 18:47:42.
