data_PCOD9265903
_publ_section_title
;
Structure prediction by ZEFSAII (Michael W. Deem and Ramdas Pophale) SiO2 
 PCOD9265903
Probable space group: C 2/C
;
_chemical_formula_sum "Si O2"
_cell_formula_units_Z 56
_cell_length_a 15.618501
_cell_length_b 9.510861
_cell_length_c 20.916508
_cell_angle_alpha 90.000000
_cell_angle_beta 85.061570
_cell_angle_gamma 90.000000
_cell_volume 3095.516826
_symmetry_space_group_name_H-M "C 2/C"
_symmetry_group_IT_number 15
_symmetry_cell_setting 'monoclinic'
loop_
_space_group_symop_operation_xyz
x,y,z
-x,y,1/2-z
-x,-y,-z
x,-y,1/2+z
1/2+x,1/2+y,z
1/2-x,1/2+y,1/2-z
1/2-x,1/2-y,-z
1/2+x,1/2-y,1/2+z
loop_
_atom_site_type_symbol
_atom_site_label
_atom_site_fract_x
_atom_site_fract_y
_atom_site_fract_z
Si Si1 0.099992 0.511430 0.731655
Si Si2 0.708228 0.031053 0.597234
Si Si3 0.747938 0.539350 0.683909
Si Si4 0.713120 0.757106 0.430296
Si Si5 0.094045 0.182261 0.763634
Si Si6 0.677295 0.218175 0.381059
Si Si7 0.598029 0.983176 0.477120
O O1 0.144390 0.549580 0.661566
O O2 0.163348 0.568361 0.783143
O O3 0.102688 0.340444 0.734464
O O4 0.000000 0.551169 0.750000
O O5 0.768108 0.166434 0.585635
O O6 0.652455 0.003125 0.538079
O O7 0.770309 0.894984 0.601204
O O8 0.741231 0.631407 0.619842
O O9 0.668337 0.582067 0.732543
O O10 0.756452 0.375992 0.665080
O O11 0.750000 0.750000 0.500000
O O12 0.620540 0.830549 0.445660
O O13 0.111195 0.205818 0.837516
O O14 0.000000 0.130890 0.750000
O O15 0.628247 0.104738 0.426926
O O16 0.500000 0.000000 0.500000
#
# Coordination Sequence:
#
# PCOD9265903 Si02
#       7
#     8   8   8   8   8   8   8
#     4  10  21  33  59  88 114 153 198 239 288 352
#     4  11  20  38  60  83 116 158 191 234 301 349
#     4  10  19  37  57  84 120 148 195 241 289 349
#     4   9  20  36  58  83 110 155 194 228 285 346
#     4  10  20  34  58  83 114 151 195 235 285 352
#     4  10  22  38  57  84 118 152 188 241 304 338
#     4  10  23  38  61  86 114 148 202 248 284 351
#
# _framework density 18.090678
#
# number of rings (size 3 to 8) (size 9 to 14) (size 15 to 20)
#    0.000    2.000    2.857    0.429    8.000    0.000 
#    0.000    2.857    0.000    0.000    0.000    0.000 
#    0.000    0.000    0.000    0.000    0.000    0.000 
#
# Total GULP energy -156007.919454 kJ/mol
# GULP energy per Si atom -5571.711409 kJ/mol
# Density = 1.804950 g / cm^3
# Si number density = 18.090678 Si / 1000 Ang^3
#
#
#
# Elastic Constant Matrix: (Units=GPa)
#
#
# Indices 1 2 3 4 5 6 
#
# 1 136.5553 56.6826 31.1983 0.0000 -8.3116 0.0000
# 2 56.6826 70.1482 19.3253 0.0000 -4.2832 0.0000
# 3 31.1983 19.3253 77.9372 0.0000 -2.6567 0.0000
# 4 0.0000 0.0000 0.0000 28.1508 0.0000 -2.3846
# 5 -8.3116 -4.2832 -2.6567 0.0000 28.4905 0.0000
# 6 0.0000 0.0000 0.0000 -2.3846 0.0000 17.6885
#
#
#
# Elastic Compliance Matrix: (Units=1/GPa)
#
#
# Indices 1 2 3 4 5 6 
#
# 1 0.011537 -0.008537 -0.002438 0.000000 0.001855 0.000000
# 2 -0.008537 0.021727 -0.001950 0.000000 0.000594 0.000000
# 3 -0.002438 -0.001950 0.014301 0.000000 0.000329 0.000000
# 4 0.000000 0.000000 0.000000 0.035933 0.000000 0.004844
# 5 0.001855 0.000594 0.000329 0.000000 0.035761 0.000000
# 6 0.000000 0.000000 0.000000 0.004844 0.000000 0.057187
#
#
# Mechanical properties :
#
#
# Convention : Reuss Voigt Hill
#
# Bulk Modulus (GPa) = 46.05022 55.45038 50.75030
# Shear Modulus (GPa) = 23.86239 26.69492 25.27866
#
# Velocity S-wave (km/s) = 3.63580 3.84554 3.74214
# Velocity P-wave (km/s) = 6.56779 7.10180 6.84001
#
# Compressibility (1/GPa) = 0.02171542
#
# Stress axis : x y z
#
# Youngs Moduli (GPa) = 86.68053 46.02499 69.92283
#
# Poissons Ratio (x) = 0.39292 0.17047
# Poissons Ratio (y) = 0.74000 0.13634
# Poissons Ratio (z) = 0.21133 0.08974
#
# Static dielectric constant tensor:
#      x y z
#    x 1.604630 0.000000 0.004080 
#    y 0.000000 1.645370 0.000000 
#    z 0.004080 0.000000 1.652710 
# 
# From -- ./inp_files/242798.got.cif
#   From: 2010.05.17/outbox.cif.g08.bks.cpg/sg15_122_cif.got.tgz:242798.got - 2010.06.03 18:47:42.
