data_PCOD9265895
_publ_section_title
;
Structure prediction by ZEFSAII (Michael W. Deem and Ramdas Pophale) SiO2 
 PCOD9265895
Probable space group: C 2/C
;
_chemical_formula_sum "Si O2"
_cell_formula_units_Z 64
_cell_length_a 18.774634
_cell_length_b 18.581500
_cell_length_c 12.174959
_cell_angle_alpha 90.000000
_cell_angle_beta 131.839143
_cell_angle_gamma 90.000000
_cell_volume 3164.375117
_symmetry_space_group_name_H-M "C 2/C"
_symmetry_group_IT_number 15
_symmetry_cell_setting 'monoclinic'
loop_
_space_group_symop_operation_xyz
x,y,z
-x,y,1/2-z
-x,-y,-z
x,-y,1/2+z
1/2+x,1/2+y,z
1/2-x,1/2+y,1/2-z
1/2-x,1/2-y,-z
1/2+x,1/2-y,1/2+z
loop_
_atom_site_type_symbol
_atom_site_label
_atom_site_fract_x
_atom_site_fract_y
_atom_site_fract_z
Si Si1 0.235302 0.062016 0.594104
Si Si2 0.799640 0.427224 0.780860
Si Si3 0.890646 0.402871 0.641728
Si Si4 0.386939 0.654267 0.448193
Si Si5 0.771311 0.713967 0.905048
Si Si6 0.103752 0.137671 0.622857
Si Si7 0.603126 0.452399 0.337564
Si Si8 0.395766 0.075013 0.607600
O O1 0.153564 0.109255 0.564783
O O2 0.315421 0.103465 0.608479
O O3 0.285581 0.011660 0.738070
O O4 0.185459 0.005330 0.460434
O O5 0.844688 0.394292 0.715634
O O6 0.694185 0.394611 0.692283
O O7 0.866534 0.412057 0.952525
O O8 0.824783 0.360446 0.488315
O O9 0.894189 0.487942 0.621010
O O10 0.000000 0.375675 0.750000
O O11 0.342151 0.732742 0.414992
O O12 0.491520 0.654832 0.502404
O O13 0.396590 0.616253 0.578882
O O14 0.672411 0.699998 0.740442
O O15 0.750000 0.750000 0.000000
O O16 0.111239 0.074814 0.722667
O O17 0.500000 0.487886 0.250000
O O18 0.500000 0.100635 0.750000
#
# Coordination Sequence:
#
# PCOD9265895 Si02
#       8
#     8   8   8   8   8   8   8   8
#     4  10  20  34  55  83 116 154 195 240 290 346
#     4  10  19  37  57  82 120 156 194 236 297 352
#     4  10  22  34  56  91 120 157 196 237 293 350
#     4  10  22  35  55  85 116 154 191 236 288 349
#     4  12  21  35  57  83 120 154 192 241 283 343
#     4  11  22  36  56  86 122 153 192 239 294 346
#     4   9  18  32  53  82 118 152 188 231 287 350
#     4  10  22  38  57  84 119 154 191 240 289 357
#
# _framework density 20.225162999999998
#
# number of rings (size 3 to 8) (size 9 to 14) (size 15 to 20)
#    0.000    1.750    2.500    3.000    1.750   11.000 
#    0.000    0.000    0.000    0.750    0.000    2.625 
#    0.000    0.000    0.000    0.000    0.000    0.000 
#
# Total GULP energy -178732.681656 kJ/mol
# GULP energy per Si atom -5585.396302 kJ/mol
# Density = 2.017913 g / cm^3
# Si number density = 20.225163 Si / 1000 Ang^3
#
#
#
# Elastic Constant Matrix: (Units=GPa)
#
#
# Indices 1 2 3 4 5 6 
#
# 1 125.5470 24.8919 41.1592 0.0000 27.4390 0.0000
# 2 24.8919 26.2251 6.3390 0.0000 1.6571 0.0000
# 3 41.1592 6.3390 103.5311 0.0000 19.2880 0.0000
# 4 0.0000 0.0000 0.0000 14.2583 0.0000 4.8979
# 5 27.4390 1.6571 19.2880 0.0000 32.9112 0.0000
# 6 0.0000 0.0000 0.0000 4.8979 0.0000 23.7353
#
#
#
# Elastic Compliance Matrix: (Units=1/GPa)
#
#
# Indices 1 2 3 4 5 6 
#
# 1 0.012983 -0.011083 -0.002885 0.000000 -0.008575 0.000000
# 2 -0.011083 0.048178 0.000210 0.000000 0.006692 0.000000
# 3 -0.002885 0.000210 0.011615 0.000000 -0.004412 0.000000
# 4 0.000000 0.000000 0.000000 0.075486 0.000000 -0.015577
# 5 -0.008575 0.006692 -0.004412 0.000000 0.039783 0.000000
# 6 0.000000 0.000000 0.000000 -0.015577 0.000000 0.045346
#
#
# Mechanical properties :
#
#
# Convention : Reuss Voigt Hill
#
# Bulk Modulus (GPa) = 22.09562 44.45373 33.27468
# Shear Modulus (GPa) = 18.11638 26.37516 22.24577
#
# Velocity S-wave (km/s) = 2.99613 3.61512 3.32008
# Velocity P-wave (km/s) = 4.78723 6.28113 5.58436
#
# Compressibility (1/GPa) = 0.04525784
#
# Stress axis : x y z
#
# Youngs Moduli (GPa) = 77.02616 20.75648 86.09483
#
# Poissons Ratio (x) = 0.23005 0.24839
# Poissons Ratio (y) = 0.85371 -0.01805
# Poissons Ratio (z) = 0.22223 -0.00435
#
# Static dielectric constant tensor:
#      x y z
#    x 1.738810 0.000000 0.019640 
#    y 0.000000 1.730240 0.000000 
#    z 0.019640 0.000000 1.727620 
# 
# From -- ./inp_files/107532.got.cif
#   From: 2010.05.17/outbox.cif.g08.bks.cpg/sg15_54_cif.got.tgz:107532.got - 2010.06.03 18:47:42.
