data_PCOD9265388
_publ_section_title
;
Structure prediction by ZEFSAII (Michael W. Deem and Ramdas Pophale) SiO2 
 PCOD9265388
Probable space group: C 2/C
;
_chemical_formula_sum "Si O2"
_cell_formula_units_Z 56
_cell_length_a 19.842869
_cell_length_b 9.539554
_cell_length_c 15.114498
_cell_angle_alpha 90.000000
_cell_angle_beta 57.708072
_cell_angle_gamma 90.000000
_cell_volume 2418.556270
_symmetry_space_group_name_H-M "C 2/C"
_symmetry_group_IT_number 15
_symmetry_cell_setting 'monoclinic'
loop_
_space_group_symop_operation_xyz
x,y,z
-x,y,1/2-z
-x,-y,-z
x,-y,1/2+z
1/2+x,1/2+y,z
1/2-x,1/2+y,1/2-z
1/2-x,1/2-y,-z
1/2+x,1/2-y,1/2+z
loop_
_atom_site_type_symbol
_atom_site_label
_atom_site_fract_x
_atom_site_fract_y
_atom_site_fract_z
Si Si1 0.334671 0.221894 0.894516
Si Si2 0.803083 0.914031 0.511308
Si Si3 0.126948 0.358909 0.323888
Si Si4 0.409514 0.534087 0.093642
Si Si5 0.819282 0.388798 0.039338
Si Si6 0.408175 0.523128 0.790504
Si Si7 0.467011 0.985452 0.369542
O O1 0.330720 0.147712 0.800980
O O2 0.370811 0.373853 0.844059
O O3 0.404838 0.144233 0.900549
O O4 0.250000 0.250000 0.000000
O O5 0.849494 0.998675 0.554498
O O6 0.782338 0.765513 0.568459
O O7 0.727155 0.964260 0.507973
O O8 0.865246 0.876374 0.389560
O O9 0.104312 0.199609 0.371580
O O10 0.181139 0.437048 0.359029
O O11 0.043545 0.438652 0.370421
O O12 0.394678 0.453631 0.196270
O O13 0.500000 0.500000 0.000000
O O14 0.912609 0.395474 0.950369
O O15 0.500000 0.519885 0.750000
O O16 0.500000 0.024730 0.250000
#
# Coordination Sequence:
#
# PCOD9265388 Si02
#       7
#     8   8   8   8   8   8   8
#     4  10  20  36  61  88 118 154 200 251 301 346
#     4  10  22  38  60  84 120 161 194 247 300 361
#     4   9  20  38  62  86 117 159 203 245 297 357
#     4  10  19  36  60  88 119 155 193 245 305 356
#     4  10  21  41  59  82 124 159 197 243 303 357
#     4  11  20  36  60  88 119 151 198 248 300 352
#     4  10  20  37  60  87 117 160 200 246 293 359
#
# _framework density 23.154309999999999
#
# number of rings (size 3 to 8) (size 9 to 14) (size 15 to 20)
#    0.000    2.000    1.429    3.429    0.000    0.571 
#    7.714    0.000   12.571    0.000    0.000    0.000 
#    0.000    0.000    0.000    0.000    0.000    0.000 
#
# Total GULP energy -156193.437065 kJ/mol
# GULP energy per Si atom -5578.337038 kJ/mol
# Density = 2.310161 g / cm^3
# Si number density = 23.154310 Si / 1000 Ang^3
#
#
#
# Elastic Constant Matrix: (Units=GPa)
#
#
# Indices 1 2 3 4 5 6 
#
# 1 192.2379 6.1568 84.9204 0.0000 30.2072 0.0000
# 2 6.1568 22.2059 -1.5981 0.0000 8.2184 0.0000
# 3 84.9204 -1.5981 118.6180 0.0000 13.9384 0.0000
# 4 0.0000 0.0000 0.0000 25.7947 0.0000 -4.8787
# 5 30.2072 8.2184 13.9384 0.0000 55.3338 0.0000
# 6 0.0000 0.0000 0.0000 -4.8787 0.0000 21.1044
#
#
#
# Elastic Compliance Matrix: (Units=1/GPa)
#
#
# Indices 1 2 3 4 5 6 
#
# 1 0.008130 -0.001611 -0.005512 0.000000 -0.002811 0.000000
# 2 -0.001611 0.048238 0.002619 0.000000 -0.006945 0.000000
# 3 -0.005512 0.002619 0.012473 0.000000 -0.000522 0.000000
# 4 0.000000 0.000000 0.000000 0.040540 0.000000 0.009372
# 5 -0.002811 -0.006945 -0.000522 0.000000 0.020769 0.000000
# 6 0.000000 0.000000 0.000000 0.009372 0.000000 0.049550
#
#
# Mechanical properties :
#
#
# Convention : Reuss Voigt Hill
#
# Bulk Modulus (GPa) = 16.71271 56.89110 36.80190
# Shear Modulus (GPa) = 23.96329 36.68542 30.32435
#
# Velocity S-wave (km/s) = 3.22054 3.98476 3.62285
# Velocity P-wave (km/s) = 4.58942 6.76718 5.78176
#
# Compressibility (1/GPa) = 0.05983471
#
# Stress axis : x y z
#
# Youngs Moduli (GPa) = 123.00267 20.73036 80.17324
#
# Poissons Ratio (x) = 0.03339 0.44190
# Poissons Ratio (y) = 0.19810 -0.20997
# Poissons Ratio (z) = 0.67796 -0.05429
#
# Static dielectric constant tensor:
#      x y z
#    x 1.893540 0.000000 0.053620 
#    y 0.000000 1.949890 0.000000 
#    z 0.053620 0.000000 1.904790 
# 
# From -- ./inp_files/160827.got.cif
#   From: 2010.05.17/outbox.cif.g08.bks.cpg/sg15_81_cif.got.tgz:160827.got - 2010.06.03 18:47:42.
