data_PCOD9265306
_publ_section_title
;
Structure prediction by ZEFSAII (Michael W. Deem and Ramdas Pophale) SiO2 
 PCOD9265306
Probable space group: C 2/C
;
_chemical_formula_sum "Si O2"
_cell_formula_units_Z 60
_cell_length_a 32.154033
_cell_length_b 10.513186
_cell_length_c 8.946207
_cell_angle_alpha 90.000000
_cell_angle_beta 87.064970
_cell_angle_gamma 90.000000
_cell_volume 3020.220696
_symmetry_space_group_name_H-M "C 2/C"
_symmetry_group_IT_number 15
_symmetry_cell_setting 'monoclinic'
loop_
_space_group_symop_operation_xyz
x,y,z
-x,y,1/2-z
-x,-y,-z
x,-y,1/2+z
1/2+x,1/2+y,z
1/2-x,1/2+y,1/2-z
1/2-x,1/2-y,-z
1/2+x,1/2-y,1/2+z
loop_
_atom_site_type_symbol
_atom_site_label
_atom_site_fract_x
_atom_site_fract_y
_atom_site_fract_z
Si Si1 0.942739 0.399803 0.520463
Si Si2 0.827879 0.820407 0.631490
Si Si3 0.171611 0.040860 0.666712
Si Si4 0.633354 0.906029 0.524869
Si Si5 0.375263 0.252424 0.168373
Si Si6 0.500000 0.040164 0.750000
Si Si7 0.751356 0.785018 0.244552
Si Si8 0.801927 0.375433 0.527297
O O1 0.906571 0.505503 0.497221
O O2 0.919139 0.276134 0.585239
O O3 0.969286 0.383277 0.365115
O O4 0.972390 0.454004 0.644530
O O5 0.831588 0.929448 0.506605
O O6 0.861565 0.711934 0.590288
O O7 0.782831 0.754249 0.628523
O O8 0.828413 0.895445 0.786064
O O9 0.133705 0.112812 0.756118
O O10 0.213124 0.117450 0.710820
O O11 0.631027 0.847814 0.692215
O O12 0.674588 0.991453 0.494851
O O13 0.340041 0.220603 0.053052
O O14 0.772624 0.656591 0.174351
O O15 0.725278 0.846634 0.113089
#
# Coordination Sequence:
#
# PCOD9265306 Si02
#       8
#     8   8   8   8   8   4   8   8
#     4  10  19  36  59  93 124 148 179 225 295 367
#     4  11  25  38  58  78 111 156 209 252 299 339
#     4  10  24  41  53  79 110 154 210 253 297 339
#     4  10  21  37  57  83 115 159 193 237 293 359
#     4   9  19  37  55  78 115 152 188 234 282 350
#     4  10  20  32  60  98 128 140 170 226 294 372
#     4  10  22  36  55  77 110 153 195 268 306 340
#     4   9  21  34  53  81 109 145 199 242 303 346
#
# _framework density 19.866097
#
# number of rings (size 3 to 8) (size 9 to 14) (size 15 to 20)
#    0.000    2.133    1.333    0.400   11.200    2.133 
#    0.000    0.000    0.000    0.000    0.000    5.600 
#    0.000    0.000    0.000    0.000    0.000    0.000 
#
# Total GULP energy -167502.380691 kJ/mol
# GULP energy per Si atom -5583.412690 kJ/mol
# Density = 1.982088 g / cm^3
# Si number density = 19.866097 Si / 1000 Ang^3
#
#
#
# Elastic Constant Matrix: (Units=GPa)
#
#
# Indices 1 2 3 4 5 6 
#
# 1 86.9626 23.2652 30.3371 0.0000 -18.6659 0.0000
# 2 23.2652 60.1916 31.1031 0.0000 -10.5954 0.0000
# 3 30.3371 31.1031 69.4808 0.0000 -12.1732 0.0000
# 4 0.0000 0.0000 0.0000 22.9359 0.0000 -5.5573
# 5 -18.6659 -10.5954 -12.1732 0.0000 41.2665 0.0000
# 6 0.0000 0.0000 0.0000 -5.5573 0.0000 20.9134
#
#
#
# Elastic Compliance Matrix: (Units=1/GPa)
#
#
# Indices 1 2 3 4 5 6 
#
# 1 0.014753 -0.002566 -0.004470 0.000000 0.004696 0.000000
# 2 -0.002566 0.022380 -0.008536 0.000000 0.002068 0.000000
# 3 -0.004470 -0.008536 0.020486 0.000000 0.001829 0.000000
# 4 0.000000 0.000000 0.000000 0.046600 0.000000 0.012383
# 5 0.004696 0.002068 0.001829 0.000000 0.027427 0.000000
# 6 0.000000 0.000000 0.000000 0.012383 0.000000 0.051107
#
#
# Mechanical properties :
#
#
# Convention : Reuss Voigt Hill
#
# Bulk Modulus (GPa) = 37.77136 42.89396 40.33266
# Shear Modulus (GPa) = 22.44951 25.81847 24.13399
#
# Velocity S-wave (km/s) = 3.36526 3.60894 3.48923
# Velocity P-wave (km/s) = 5.84416 6.24535 6.04808
#
# Compressibility (1/GPa) = 0.02647508
#
# Stress axis : x y z
#
# Youngs Moduli (GPa) = 67.78297 44.68261 48.81402
#
# Poissons Ratio (x) = 0.11465 0.21821
# Poissons Ratio (y) = 0.17392 0.41667
# Poissons Ratio (z) = 0.30301 0.38141
#
# Static dielectric constant tensor:
#      x y z
#    x 1.694530 0.000000 -0.018180 
#    y 0.000000 1.708760 0.000000 
#    z -0.018180 0.000000 1.738970 
# 
# From -- ./inp_files/69113.got.cif
#   From: 2010.05.17/outbox.cif.g08.bks.cpg/sg15_35_cif.got.tgz:69113.got - 2010.06.03 18:47:42.
