data_PCOD9265217
_publ_section_title
;
Structure prediction by ZEFSAII (Michael W. Deem and Ramdas Pophale) SiO2 
 PCOD9265217
Probable space group: C 2/C
;
_chemical_formula_sum "Si O2"
_cell_formula_units_Z 64
_cell_length_a 23.469292
_cell_length_b 9.154003
_cell_length_c 25.900619
_cell_angle_alpha 90.000000
_cell_angle_beta 145.074219
_cell_angle_gamma 90.000000
_cell_volume 3185.722487
_symmetry_space_group_name_H-M "C 2/C"
_symmetry_group_IT_number 15
_symmetry_cell_setting 'monoclinic'
loop_
_space_group_symop_operation_xyz
x,y,z
-x,y,1/2-z
-x,-y,-z
x,-y,1/2+z
1/2+x,1/2+y,z
1/2-x,1/2+y,1/2-z
1/2-x,1/2-y,-z
1/2+x,1/2-y,1/2+z
loop_
_atom_site_type_symbol
_atom_site_label
_atom_site_fract_x
_atom_site_fract_y
_atom_site_fract_z
Si Si1 0.182627 0.192096 0.074809
Si Si2 0.878263 0.786621 0.506176
Si Si3 0.206973 0.508209 0.538021
Si Si4 0.221608 0.521995 0.934598
Si Si5 0.227021 0.049915 0.217850
Si Si6 0.513194 0.477470 0.070485
Si Si7 0.216036 0.283070 0.294235
Si Si8 0.893225 0.206473 0.191203
O O1 0.198684 0.359098 0.071222
O O2 0.200301 0.149468 0.147742
O O3 0.256051 0.094406 0.093657
O O4 0.069632 0.141891 0.976243
O O5 0.876797 0.615586 0.514940
O O6 0.819871 0.873048 0.508014
O O7 0.978841 0.870531 0.570241
O O8 0.805700 0.812171 0.402124
O O9 0.202950 0.553738 0.475242
O O10 0.309620 0.417412 0.620250
O O11 0.136880 0.640341 0.858552
O O12 0.251493 0.153783 0.283393
O O13 0.129770 0.957809 0.164269
O O14 0.301717 0.927896 0.252401
O O15 0.500000 0.500000 0.000000
O O16 0.122141 0.241431 0.259676
O O17 0.000000 0.160962 0.250000
#
# Coordination Sequence:
#
# PCOD9265217 Si02
#       8
#     8   8   8   8   8   8   8   8
#     4  10  19  36  59  81 119 144 185 240 292 334
#     4   9  17  35  55  81 112 140 188 229 281 335
#     4  10  20  32  59  88 106 147 194 238 285 332
#     4   9  17  36  57  75 109 151 186 228 287 337
#     4  11  21  37  60  81 116 153 191 226 291 348
#     4   9  17  36  58  77 107 152 180 230 282 337
#     4  10  21  36  57  85 112 157 183 227 289 346
#     4  10  21  39  58  81 117 151 195 236 277 341
#
# _framework density 20.089635000000001
#
# number of rings (size 3 to 8) (size 9 to 14) (size 15 to 20)
#    0.000    2.500    5.000    1.875    3.500    3.000 
#    0.000    5.625    0.000    0.000    0.000    0.000 
#    0.000    0.000    0.000    0.000    0.000    0.000 
#
# Total GULP energy -178328.405185 kJ/mol
# GULP energy per Si atom -5572.762662 kJ/mol
# Density = 2.004391 g / cm^3
# Si number density = 20.089635 Si / 1000 Ang^3
#
#
#
# Elastic Constant Matrix: (Units=GPa)
#
#
# Indices 1 2 3 4 5 6 
#
# 1 104.4492 36.8603 24.4613 0.0000 -3.1868 0.0000
# 2 36.8603 74.0813 4.3565 0.0000 0.4785 0.0000
# 3 24.4613 4.3565 25.8035 0.0000 1.1709 0.0000
# 4 0.0000 0.0000 0.0000 17.7491 0.0000 -9.0018
# 5 -3.1868 0.4785 1.1709 0.0000 22.8298 0.0000
# 6 0.0000 0.0000 0.0000 -9.0018 0.0000 35.3681
#
#
#
# Elastic Compliance Matrix: (Units=1/GPa)
#
#
# Indices 1 2 3 4 5 6 
#
# 1 0.015199 -0.006794 -0.013395 0.000000 0.002951 0.000000
# 2 -0.006794 0.016671 0.003693 0.000000 -0.001487 0.000000
# 3 -0.013395 0.003693 0.051036 0.000000 -0.004565 0.000000
# 4 0.000000 0.000000 0.000000 0.064691 0.000000 0.016465
# 5 0.002951 -0.001487 -0.004565 0.000000 0.044480 0.000000
# 6 0.000000 0.000000 0.000000 0.016465 0.000000 0.032465
#
#
# Mechanical properties :
#
#
# Convention : Reuss Voigt Hill
#
# Bulk Modulus (GPa) = 20.03396 37.29889 28.66643
# Shear Modulus (GPa) = 18.23679 24.43313 21.33496
#
# Velocity S-wave (km/s) = 3.01619 3.49120 3.26235
# Velocity P-wave (km/s) = 4.70360 5.90405 5.33768
#
# Compressibility (1/GPa) = 0.04991524
#
# Stress axis : x y z
#
# Youngs Moduli (GPa) = 65.79585 59.98299 19.59393
#
# Poissons Ratio (x) = 0.40750 0.26246
# Poissons Ratio (y) = 0.44699 -0.07236
# Poissons Ratio (z) = 0.88133 -0.22152
#
# Static dielectric constant tensor:
#      x y z
#    x 1.749360 0.000000 -0.013590 
#    y 0.000000 1.723850 0.000000 
#    z -0.013590 0.000000 1.758240 
# 
# From -- ./inp_files/300370.got.cif
#   From: 2010.05.17/outbox.cif.g08.bks.cpg/sg15_151_cif.got.tgz:300370.got - 2010.06.03 18:47:42.
