data_PCOD9265321
_publ_section_title
;
Structure prediction by ZEFSAII (Michael W. Deem and Ramdas Pophale) SiO2 
 PCOD9265321
Probable space group: C 2/C
;
_chemical_formula_sum "Si O2"
_cell_formula_units_Z 60
_cell_length_a 20.806536
_cell_length_b 17.580873
_cell_length_c 9.621369
_cell_angle_alpha 90.000000
_cell_angle_beta 63.501047
_cell_angle_gamma 90.000000
_cell_volume 3149.722045
_symmetry_space_group_name_H-M "C 2/C"
_symmetry_group_IT_number 15
_symmetry_cell_setting 'monoclinic'
loop_
_space_group_symop_operation_xyz
x,y,z
-x,y,1/2-z
-x,-y,-z
x,-y,1/2+z
1/2+x,1/2+y,z
1/2-x,1/2+y,1/2-z
1/2-x,1/2-y,-z
1/2+x,1/2-y,1/2+z
loop_
_atom_site_type_symbol
_atom_site_label
_atom_site_fract_x
_atom_site_fract_y
_atom_site_fract_z
Si Si1 0.500000 0.974535 0.250000
Si Si2 0.849365 0.830061 0.549000
Si Si3 0.996173 0.233483 0.914242
Si Si4 0.783262 0.712800 0.833092
Si Si5 0.210548 0.410447 0.722735
Si Si6 0.910178 0.637159 0.653274
Si Si7 0.660639 0.267458 0.254173
Si Si8 0.647754 0.970661 0.501076
O O1 0.539386 0.924666 0.327446
O O2 0.436123 0.018950 0.383501
O O3 0.936045 0.833514 0.472967
O O4 0.824809 0.770984 0.691138
O O5 0.796831 0.900294 0.630570
O O6 0.831486 0.795540 0.413293
O O7 0.000000 0.260837 0.750000
O O8 0.077982 0.217415 0.875486
O O9 0.961957 0.299026 0.041437
O O10 0.849580 0.661786 0.822055
O O11 0.715934 0.688852 0.801868
O O12 0.750000 0.750000 0.000000
O O13 0.178123 0.323694 0.749298
O O14 0.186785 0.454277 0.607000
O O15 0.181018 0.460213 0.879809
O O16 0.856404 0.604699 0.588292
#
# Coordination Sequence:
#
# PCOD9265321 Si02
#       8
#     4   8   8   8   8   8   8   8
#     4  12  26  34  48  78 112 152 188 210 258 322
#     4   9  19  37  55  81 105 141 186 230 271 322
#     4   9  18  33  60  83 102 137 181 232 282 315
#     4  10  21  33  53  79 108 144 182 224 275 326
#     4  11  22  36  56  77 118 145 185 221 262 326
#     4  11  23  36  50  75 116 148 183 219 267 325
#     4  10  19  36  60  83 106 143 180 232 280 318
#     4  12  24  37  51  78 109 157 186 213 260 325
#
# _framework density 19.049299000000001
#
# number of rings (size 3 to 8) (size 9 to 14) (size 15 to 20)
#    0.000    1.600    1.333    6.000    8.400    0.000 
#    0.000    0.000    0.000    0.000    0.000   14.933 
#    0.000    0.000    0.000    0.133    0.000    0.000 
#
# Total GULP energy -167146.144770 kJ/mol
# GULP energy per Si atom -5571.538159 kJ/mol
# Density = 1.900594 g / cm^3
# Si number density = 19.049299 Si / 1000 Ang^3
#
#
#
# Elastic Constant Matrix: (Units=GPa)
#
#
# Indices 1 2 3 4 5 6 
#
# 1 97.6076 10.0683 26.1965 0.0000 -24.4933 0.0000
# 2 10.0683 28.7691 10.0697 0.0000 -12.8250 0.0000
# 3 26.1965 10.0697 77.6194 0.0000 -22.2031 0.0000
# 4 0.0000 0.0000 0.0000 15.7950 0.0000 -3.0839
# 5 -24.4933 -12.8250 -22.2031 0.0000 40.6672 0.0000
# 6 0.0000 0.0000 0.0000 -3.0839 0.0000 27.8855
#
#
#
# Elastic Compliance Matrix: (Units=1/GPa)
#
#
# Indices 1 2 3 4 5 6 
#
# 1 0.012466 -0.000884 -0.002399 0.000000 0.005919 0.000000
# 2 -0.000884 0.040745 -0.001735 0.000000 0.011370 0.000000
# 3 -0.002399 -0.001735 0.015819 0.000000 0.006644 0.000000
# 4 0.000000 0.000000 0.000000 0.064708 0.000000 0.007156
# 5 0.005919 0.011370 0.006644 0.000000 0.035368 0.000000
# 6 0.000000 0.000000 0.000000 0.007156 0.000000 0.036652
#
#
# Mechanical properties :
#
#
# Convention : Reuss Voigt Hill
#
# Bulk Modulus (GPa) = 16.95145 32.96279 24.95712
# Shear Modulus (GPa) = 21.23511 27.38030 24.30771
#
# Velocity S-wave (km/s) = 3.34240 3.79534 3.57605
# Velocity P-wave (km/s) = 4.87992 6.04546 5.49369
#
# Compressibility (1/GPa) = 0.05899199
#
# Stress axis : x y z
#
# Youngs Moduli (GPa) = 80.22112 24.54306 63.21566
#
# Poissons Ratio (x) = 0.02170 0.15167
# Poissons Ratio (y) = 0.07092 0.10969
# Poissons Ratio (z) = 0.19247 0.04259
#
# Static dielectric constant tensor:
#      x y z
#    x 1.697120 0.000000 0.017490 
#    y 0.000000 1.728170 0.000000 
#    z 0.017490 0.000000 1.637230 
# 
# From -- ./inp_files/57571.got.cif
#   From: 2010.05.17/outbox.cif.g08.bks.cpg/sg15_29_cif.got.tgz:57571.got - 2010.06.03 18:47:42.
