data_PCOD9265451
_publ_section_title
;
Structure prediction by ZEFSAII (Michael W. Deem and Ramdas Pophale) SiO2 
 PCOD9265451
Probable space group: C 2/C
;
_chemical_formula_sum "Si O2"
_cell_formula_units_Z 56
_cell_length_a 17.516534
_cell_length_b 11.339727
_cell_length_c 16.939180
_cell_angle_alpha 90.000000
_cell_angle_beta 124.424384
_cell_angle_gamma 90.000000
_cell_volume 2775.429747
_symmetry_space_group_name_H-M "C 2/C"
_symmetry_group_IT_number 15
_symmetry_cell_setting 'monoclinic'
loop_
_space_group_symop_operation_xyz
x,y,z
-x,y,1/2-z
-x,-y,-z
x,-y,1/2+z
1/2+x,1/2+y,z
1/2-x,1/2+y,1/2-z
1/2-x,1/2-y,-z
1/2+x,1/2-y,1/2+z
loop_
_atom_site_type_symbol
_atom_site_label
_atom_site_fract_x
_atom_site_fract_y
_atom_site_fract_z
Si Si1 0.512426 0.625627 0.424023
Si Si2 0.105237 0.478694 0.533205
Si Si3 0.337344 0.828910 0.782832
Si Si4 0.325368 0.935082 0.218144
Si Si5 0.418394 0.166141 0.639396
Si Si6 0.614984 0.420127 0.139394
Si Si7 0.644540 0.787724 0.120124
O O1 0.558122 0.706017 0.383411
O O2 0.448068 0.518901 0.356496
O O3 0.585918 0.581388 0.530440
O O4 0.442236 0.702399 0.437854
O O5 0.155300 0.393373 0.626870
O O6 0.097140 0.417688 0.444346
O O7 0.152531 0.608256 0.561014
O O8 0.000000 0.500000 0.500000
O O9 0.394326 0.708364 0.826522
O O10 0.236680 0.784405 0.694616
O O11 0.365548 0.932835 0.738966
O O12 0.328487 0.857580 0.141484
O O13 0.223875 0.947503 0.197669
O O14 0.379655 0.860311 0.314824
O O15 0.500000 0.135628 0.750000
#
# Coordination Sequence:
#
# PCOD9265451 Si02
#       7
#     8   8   8   8   8   8   8
#     4  11  20  37  59  88 123 164 215 255 325 388
#     4  11  20  37  62  91 118 168 219 265 324 389
#     4  10  19  38  61  90 123 162 217 266 312 390
#     4  10  21  35  61  93 122 159 215 272 322 367
#     4  12  22  37  61  97 126 163 212 280 326 375
#     4  10  21  36  62  88 121 173 208 258 320 396
#     4  10  19  36  61  86 121 164 214 272 308 388
#
# _framework density 20.177056
#
# number of rings (size 3 to 8) (size 9 to 14) (size 15 to 20)
#    0.000    1.429    5.714    0.857    0.000    0.571 
#    0.000    0.714    0.000    4.286    0.000    0.000 
#    0.000    0.000    0.000    0.000    0.000    0.000 
#
# Total GULP energy -155926.026527 kJ/mol
# GULP energy per Si atom -5568.786662 kJ/mol
# Density = 2.013113 g / cm^3
# Si number density = 20.177056 Si / 1000 Ang^3
#
#
#
# Elastic Constant Matrix: (Units=GPa)
#
#
# Indices 1 2 3 4 5 6 
#
# 1 32.8012 24.3381 15.1515 0.0000 -5.7395 0.0000
# 2 24.3381 136.3547 16.5003 0.0000 -8.6097 0.0000
# 3 15.1515 16.5003 83.7378 0.0000 2.8175 0.0000
# 4 0.0000 0.0000 0.0000 39.5142 0.0000 6.1189
# 5 -5.7395 -8.6097 2.8175 0.0000 25.4390 0.0000
# 6 0.0000 0.0000 0.0000 6.1189 0.0000 29.6540
#
#
#
# Elastic Compliance Matrix: (Units=1/GPa)
#
#
# Indices 1 2 3 4 5 6 
#
# 1 0.038895 -0.005722 -0.006163 0.000000 0.007522 0.000000
# 2 -0.005722 0.008546 -0.000705 0.000000 0.001680 0.000000
# 3 -0.006163 -0.000705 0.013301 0.000000 -0.003102 0.000000
# 4 0.000000 0.000000 0.000000 0.026143 0.000000 -0.005394
# 5 0.007522 0.001680 -0.003102 0.000000 0.041919 0.000000
# 6 0.000000 0.000000 0.000000 -0.005394 0.000000 0.034835
#
#
# Mechanical properties :
#
#
# Convention : Reuss Voigt Hill
#
# Bulk Modulus (GPa) = 28.12017 40.54150 34.33083
# Shear Modulus (GPa) = 24.91609 32.04836 28.48222
#
# Velocity S-wave (km/s) = 3.51789 3.98974 3.76122
# Velocity P-wave (km/s) = 5.51975 6.43122 5.99284
#
# Compressibility (1/GPa) = 0.03556166
#
# Stress axis : x y z
#
# Youngs Moduli (GPa) = 25.71014 117.00703 75.18473
#
# Poissons Ratio (x) = 0.66948 0.46339
# Poissons Ratio (y) = 0.14711 0.05303
# Poissons Ratio (z) = 0.15846 0.08252
#
# Static dielectric constant tensor:
#      x y z
#    x 1.753590 0.000000 0.025250 
#    y 0.000000 1.816370 0.000000 
#    z 0.025250 0.000000 1.713320 
# 
# From -- ./inp_files/210415.got.cif
#   From: 2010.05.17/outbox.cif.g08.bks.cpg/sg15_106_cif.got.tgz:210415.got - 2010.06.03 18:47:42.
