data_PCOD9265776
_publ_section_title
;
Structure prediction by ZEFSAII (Michael W. Deem and Ramdas Pophale) SiO2 
 PCOD9265776
Probable space group: C 2/C
;
_chemical_formula_sum "Si O2"
_cell_formula_units_Z 52
_cell_length_a 9.430893
_cell_length_b 13.826737
_cell_length_c 21.208628
_cell_angle_alpha 90.000000
_cell_angle_beta 102.514757
_cell_angle_gamma 90.000000
_cell_volume 2699.863418
_symmetry_space_group_name_H-M "C 2/C"
_symmetry_group_IT_number 15
_symmetry_cell_setting 'monoclinic'
loop_
_space_group_symop_operation_xyz
x,y,z
-x,y,1/2-z
-x,-y,-z
x,-y,1/2+z
1/2+x,1/2+y,z
1/2-x,1/2+y,1/2-z
1/2-x,1/2-y,-z
1/2+x,1/2-y,1/2+z
loop_
_atom_site_type_symbol
_atom_site_label
_atom_site_fract_x
_atom_site_fract_y
_atom_site_fract_z
Si Si1 0.082428 0.735430 0.967951
Si Si2 0.496668 0.553577 0.433522
Si Si3 0.000000 0.526613 0.750000
Si Si4 0.887922 0.679894 0.842181
Si Si5 0.059025 0.398665 0.941484
Si Si6 0.233432 0.383948 0.836576
Si Si7 0.790220 0.528783 0.923726
O O1 0.002331 0.836225 0.955169
O O2 0.039809 0.690425 0.896203
O O3 0.250000 0.750000 0.000000
O O4 0.013429 0.676547 0.018172
O O5 0.500000 0.500000 0.500000
O O6 0.357602 0.544837 0.375962
O O7 0.640765 0.527944 0.408452
O O8 0.077066 0.602944 0.709154
O O9 0.125875 0.451511 0.785418
O O10 0.814471 0.785241 0.819063
O O11 0.784675 0.627224 0.883780
O O12 0.138510 0.355890 0.889080
O O13 0.927531 0.469525 0.910016
O O14 0.170008 0.454502 0.998700
#
# Coordination Sequence:
#
# PCOD9265776 Si02
#       7
#     8   8   4   8   8   8   8
#     4  10  21  36  63 102 134 167 214 277 347 412
#     4  11  22  35  62 104 136 162 217 279 344 408
#     4  12  26  54  70  86 144 194 228 290 338 408
#     4  10  25  45  68  96 133 178 234 278 340 413
#     4  10  19  36  66  93 133 172 210 260 348 407
#     4  11  25  46  67  97 127 181 230 274 344 410
#     4  10  19  37  65  98 132 169 207 275 341 400
#
# _framework density 19.260232999999999
#
# number of rings (size 3 to 8) (size 9 to 14) (size 15 to 20)
#    0.000    1.538    4.615    0.000    4.308    1.846 
#   11.077    0.000    0.000    0.000    0.000    0.000 
#    0.000    0.000    0.000    0.000    0.000    0.000 
#
# Total GULP energy -144790.063518 kJ/mol
# GULP energy per Si atom -5568.848597 kJ/mol
# Density = 1.921640 g / cm^3
# Si number density = 19.260233 Si / 1000 Ang^3
#
#
#
# Elastic Constant Matrix: (Units=GPa)
#
#
# Indices 1 2 3 4 5 6 
#
# 1 103.2695 41.4787 50.3540 0.0000 26.4344 0.0000
# 2 41.4787 91.0456 50.7257 0.0000 12.4466 0.0000
# 3 50.3540 50.7257 80.4996 0.0000 15.4467 0.0000
# 4 0.0000 0.0000 0.0000 31.4546 0.0000 1.3204
# 5 26.4344 12.4466 15.4467 0.0000 32.4730 0.0000
# 6 0.0000 0.0000 0.0000 1.3204 0.0000 24.5588
#
#
#
# Elastic Compliance Matrix: (Units=1/GPa)
#
#
# Indices 1 2 3 4 5 6 
#
# 1 0.016368 -0.002283 -0.007055 0.000000 -0.009093 0.000000
# 2 -0.002283 0.017316 -0.009427 0.000000 -0.000294 0.000000
# 3 -0.007055 -0.009427 0.023088 0.000000 -0.001626 0.000000
# 4 0.000000 0.000000 0.000000 0.031864 0.000000 -0.001713
# 5 -0.009093 -0.000294 -0.001626 0.000000 0.039083 0.000000
# 6 0.000000 0.000000 0.000000 -0.001713 0.000000 0.040811
#
#
# Mechanical properties :
#
#
# Convention : Reuss Voigt Hill
#
# Bulk Modulus (GPa) = 51.97009 62.21459 57.09234
# Shear Modulus (GPa) = 23.53236 26.51438 25.02337
#
# Velocity S-wave (km/s) = 3.49923 3.71433 3.60839
# Velocity P-wave (km/s) = 6.58543 7.12511 6.86058
#
# Compressibility (1/GPa) = 0.01924184
#
# Stress axis : x y z
#
# Youngs Moduli (GPa) = 61.09449 57.74997 43.31340
#
# Poissons Ratio (x) = 0.13186 0.30557
# Poissons Ratio (y) = 0.13949 0.40830
# Poissons Ratio (z) = 0.43102 0.54439
#
# Static dielectric constant tensor:
#      x y z
#    x 1.713110 0.000000 0.050640 
#    y 0.000000 1.786870 0.000000 
#    z 0.050640 0.000000 1.750570 
# 
# From -- ./inp_files/231315.got.cif
#   From: 2010.05.17/outbox.cif.g08.bks.cpg/sg15_116_cif.got.tgz:231315.got - 2010.06.03 18:47:42.
