data_PCOD9265152
_publ_section_title
;
Structure prediction by ZEFSAII (Michael W. Deem and Ramdas Pophale) SiO2 
 PCOD9265152
Probable space group: C 2/C
;
_chemical_formula_sum "Si O2"
_cell_formula_units_Z 48
_cell_length_a 10.136029
_cell_length_b 16.233231
_cell_length_c 16.082192
_cell_angle_alpha 90.000000
_cell_angle_beta 81.574412
_cell_angle_gamma 90.000000
_cell_volume 2617.611767
_symmetry_space_group_name_H-M "C 2/C"
_symmetry_group_IT_number 15
_symmetry_cell_setting 'monoclinic'
loop_
_space_group_symop_operation_xyz
x,y,z
-x,y,1/2-z
-x,-y,-z
x,-y,1/2+z
1/2+x,1/2+y,z
1/2-x,1/2+y,1/2-z
1/2-x,1/2-y,-z
1/2+x,1/2-y,1/2+z
loop_
_atom_site_type_symbol
_atom_site_label
_atom_site_fract_x
_atom_site_fract_y
_atom_site_fract_z
Si Si1 0.340871 0.308299 0.607145
Si Si2 0.071048 0.265581 0.569838
Si Si3 0.053785 0.080398 0.150122
Si Si4 0.883930 0.899202 0.329301
Si Si5 0.150668 0.674533 0.751419
Si Si6 0.764816 0.723849 0.094568
O O1 0.186809 0.322047 0.598133
O O2 0.400079 0.249248 0.529899
O O3 0.429843 0.389229 0.606086
O O4 0.353354 0.257197 0.691291
O O5 0.095832 0.176623 0.610180
O O6 0.920399 0.293108 0.597720
O O7 0.170420 0.146470 0.123674
O O8 0.000000 0.082798 0.250000
O O9 0.102328 0.987926 0.129960
O O10 0.744761 0.887330 0.293525
O O11 0.000000 0.892061 0.250000
O O12 0.217522 0.702099 0.658911
O O13 0.000000 0.646349 0.750000
O O14 0.750000 0.750000 0.000000
#
# Coordination Sequence:
#
# PCOD9265152 Si02
#       6
#     8   8   8   8   8   8
#     4  10  19  36  58  85 112 150 187 238 283 338
#     4  10  21  35  59  88 111 146 199 234 275 346
#     4  11  21  38  56  86 118 152 185 236 292 339
#     4  10  22  36  57  84 118 151 192 234 289 343
#     4  11  19  37  60  83 112 158 189 237 289 346
#     4  12  20  35  61  88 109 149 199 240 276 344
#
# _framework density 18.337325
#
# number of rings (size 3 to 8) (size 9 to 14) (size 15 to 20)
#    0.000    1.333    6.667    0.000    0.000    0.667 
#    0.000    3.333    0.000   10.000    0.000    0.000 
#    0.000    0.000    0.000    0.000    0.000    0.000 
#
# Total GULP energy -133953.309339 kJ/mol
# GULP energy per Si atom -5581.387889 kJ/mol
# Density = 1.829559 g / cm^3
# Si number density = 18.337325 Si / 1000 Ang^3
#
#
#
# Elastic Constant Matrix: (Units=GPa)
#
#
# Indices 1 2 3 4 5 6 
#
# 1 179.1237 43.1167 27.9294 0.0000 1.0136 0.0000
# 2 43.1167 75.3854 20.0180 0.0000 10.0011 0.0000
# 3 27.9294 20.0180 76.7030 0.0000 2.0742 0.0000
# 4 0.0000 0.0000 0.0000 11.6534 0.0000 4.0029
# 5 1.0136 10.0011 2.0742 0.0000 28.6556 0.0000
# 6 0.0000 0.0000 0.0000 4.0029 0.0000 20.5921
#
#
#
# Elastic Compliance Matrix: (Units=1/GPa)
#
#
# Indices 1 2 3 4 5 6 
#
# 1 0.006671 -0.003557 -0.001531 0.000000 0.001116 0.000000
# 2 -0.003557 0.016815 -0.002944 0.000000 -0.005530 0.000000
# 3 -0.001531 -0.002944 0.014362 0.000000 0.000042 0.000000
# 4 0.000000 0.000000 0.000000 0.091952 0.000000 -0.017874
# 5 0.001116 -0.005530 0.000042 0.000000 0.036785 0.000000
# 6 0.000000 0.000000 0.000000 -0.017874 0.000000 0.052037
#
#
# Mechanical properties :
#
#
# Convention : Reuss Voigt Hill
#
# Bulk Modulus (GPa) = 45.90413 57.03782 51.47098
# Shear Modulus (GPa) = 20.66572 28.19009 24.42791
#
# Velocity S-wave (km/s) = 3.36069 3.92510 3.65381
# Velocity P-wave (km/s) = 6.33612 7.19126 6.77719
#
# Compressibility (1/GPa) = 0.02178453
#
# Stress axis : x y z
#
# Youngs Moduli (GPa) = 149.89353 59.47080 69.62888
#
# Poissons Ratio (x) = 0.21155 0.10660
# Poissons Ratio (y) = 0.53321 0.20496
# Poissons Ratio (z) = 0.22949 0.17506
#
# Static dielectric constant tensor:
#      x y z
#    x 1.654370 0.000000 0.004110 
#    y 0.000000 1.608100 0.000000 
#    z 0.004110 0.000000 1.641270 
# 
# From -- ./inp_files/189714.got.cif
#   From: 2010.05.17/outbox.cif.g08.bks.cpg/sg15_95_cif.got.tgz:189714.got - 2010.06.03 18:47:42.
