data_PCOD9265371
_publ_section_title
;
Structure prediction by ZEFSAII (Michael W. Deem and Ramdas Pophale) SiO2 
 PCOD9265371
Probable space group: C 2/C
;
_chemical_formula_sum "Si O2"
_cell_formula_units_Z 56
_cell_length_a 32.453757
_cell_length_b 11.732475
_cell_length_c 15.996814
_cell_angle_alpha 90.000000
_cell_angle_beta 22.524045
_cell_angle_gamma 90.000000
_cell_volume 2333.283564
_symmetry_space_group_name_H-M "C 2/C"
_symmetry_group_IT_number 15
_symmetry_cell_setting 'monoclinic'
loop_
_space_group_symop_operation_xyz
x,y,z
-x,y,1/2-z
-x,-y,-z
x,-y,1/2+z
1/2+x,1/2+y,z
1/2-x,1/2+y,1/2-z
1/2-x,1/2-y,-z
1/2+x,1/2-y,1/2+z
loop_
_atom_site_type_symbol
_atom_site_label
_atom_site_fract_x
_atom_site_fract_y
_atom_site_fract_z
Si Si1 0.769119 0.341101 0.306888
Si Si2 0.046932 0.764013 0.299487
Si Si3 0.230423 0.925313 0.920905
Si Si4 0.412905 0.379579 0.982291
Si Si5 0.497795 0.961925 0.662937
Si Si6 0.841193 0.111600 0.138033
Si Si7 0.532586 0.825936 0.004454
O O1 0.719976 0.439490 0.457832
O O2 0.692068 0.338188 0.370666
O O3 0.778316 0.206943 0.309897
O O4 0.884858 0.402285 0.070649
O O5 0.001520 0.723187 0.473620
O O6 0.081356 0.645725 0.191542
O O7 0.955966 0.826206 0.417074
O O8 0.142651 0.850841 0.131887
O O9 0.209388 0.907026 0.859741
O O10 0.345741 0.874114 0.727121
O O11 0.500000 0.420717 0.750000
O O12 0.370479 0.486285 0.115964
O O13 0.466393 0.276643 0.931885
O O14 0.500000 0.016120 0.750000
O O15 0.469865 0.061205 0.650966
#
# Coordination Sequence:
#
# PCOD9265371 Si02
#       7
#     8   8   8   8   8   8   8
#     4   9  19  36  61  89 113 148 214 265 292 358
#     4  11  21  36  61  90 123 162 208 254 316 373
#     4  10  19  36  60  87 118 161 206 259 306 373
#     4  11  22  38  61  88 122 165 207 256 310 378
#     4  10  21  38  64  90 120 162 211 257 306 375
#     4  10  19  37  61  82 115 160 214 248 297 374
#     4  11  23  37  55  91 132 158 198 266 319 361
#
# _framework density 24.000512000000001
#
# number of rings (size 3 to 8) (size 9 to 14) (size 15 to 20)
#    0.000    1.714    1.429    5.143    0.000    1.143 
#    0.000    0.000    0.000    4.286    0.000    0.000 
#    0.000    0.000    0.000    0.000    0.000    0.000 
#
# Total GULP energy -156274.718180 kJ/mol
# GULP energy per Si atom -5581.239935 kJ/mol
# Density = 2.394589 g / cm^3
# Si number density = 24.000512 Si / 1000 Ang^3
#
#
#
# Elastic Constant Matrix: (Units=GPa)
#
#
# Indices 1 2 3 4 5 6 
#
# 1 65.7744 7.7448 2.5542 0.0000 -3.9256 0.0000
# 2 7.7448 162.2148 20.1874 0.0000 -4.0437 0.0000
# 3 2.5542 20.1874 21.9547 0.0000 -8.5180 0.0000
# 4 0.0000 0.0000 0.0000 50.7759 0.0000 -74.2472
# 5 -3.9256 -4.0437 -8.5180 0.0000 20.5205 0.0000
# 6 0.0000 0.0000 0.0000 -74.2472 0.0000 270.4969
#
#
#
# Elastic Compliance Matrix: (Units=1/GPa)
#
#
# Indices 1 2 3 4 5 6 
#
# 1 0.015451 -0.000654 -0.000119 0.000000 0.002778 0.000000
# 2 -0.000654 0.007030 -0.007031 0.000000 -0.001658 0.000000
# 3 -0.000119 -0.007031 0.061364 0.000000 0.024064 0.000000
# 4 0.000000 0.000000 0.000000 0.032899 0.000000 0.009030
# 5 0.002778 -0.001658 0.024064 0.000000 0.058925 0.000000
# 6 0.000000 0.000000 0.000000 0.009030 0.000000 0.006176
#
#
# Mechanical properties :
#
#
# Convention : Reuss Voigt Hill
#
# Bulk Modulus (GPa) = 14.65485 34.54629 24.60057
# Shear Modulus (GPa) = 22.70700 82.98915 52.84808
#
# Velocity S-wave (km/s) = 3.07922 5.88669 4.69759
# Velocity P-wave (km/s) = 4.33145 7.78649 6.30043
#
# Compressibility (1/GPa) = 0.06823681
#
# Stress axis : x y z
#
# Youngs Moduli (GPa) = 64.72139 142.25677 16.29630
#
# Poissons Ratio (x) = 0.09299 0.00194
# Poissons Ratio (y) = 0.04231 0.11458
# Poissons Ratio (z) = 0.00769 1.00022
#
# Static dielectric constant tensor:
#      x y z
#    x 1.897250 0.000000 -0.000920 
#    y 0.000000 1.993190 0.000000 
#    z -0.000920 0.000000 1.987480 
# 
# From -- ./inp_files/181915.got.cif
#   From: 2010.05.17/outbox.cif.g08.bks.cpg/sg15_91_cif.got.tgz:181915.got - 2010.06.03 18:47:42.
