data_PCOD9265408
_publ_section_title
;
Structure prediction by ZEFSAII (Michael W. Deem and Ramdas Pophale) SiO2 
 PCOD9265408
Probable space group: C 2/C
;
_chemical_formula_sum "Si O2"
_cell_formula_units_Z 44
_cell_length_a 23.641081
_cell_length_b 10.059307
_cell_length_c 12.166304
_cell_angle_alpha 90.000000
_cell_angle_beta 35.558280
_cell_angle_gamma 90.000000
_cell_volume 1682.545223
_symmetry_space_group_name_H-M "C 2/C"
_symmetry_group_IT_number 15
_symmetry_cell_setting 'monoclinic'
loop_
_space_group_symop_operation_xyz
x,y,z
-x,y,1/2-z
-x,-y,-z
x,-y,1/2+z
1/2+x,1/2+y,z
1/2-x,1/2+y,1/2-z
1/2-x,1/2-y,-z
1/2+x,1/2-y,1/2+z
loop_
_atom_site_type_symbol
_atom_site_label
_atom_site_fract_x
_atom_site_fract_y
_atom_site_fract_z
Si Si1 0.684607 0.859255 0.044443
Si Si2 0.500000 0.131315 0.250000
Si Si3 0.108068 0.222854 0.958241
Si Si4 0.700207 0.724622 0.464216
Si Si5 0.147002 0.940223 0.870453
Si Si6 0.948738 0.657490 0.556737
O O1 0.623036 0.913118 0.243619
O O2 0.750000 0.750000 0.000000
O O3 0.611480 0.786847 0.074114
O O4 0.759152 0.951022 0.858702
O O5 0.406161 0.213122 0.360084
O O6 0.461622 0.073087 0.425026
O O7 0.222951 0.220806 0.746380
O O8 0.079476 0.069024 0.984390
O O9 0.045442 0.304649 0.970365
O O10 0.750000 0.750000 0.500000
O O11 0.682702 0.579486 0.440104
O O12 0.094693 0.802291 0.915280
#
# Coordination Sequence:
#
# PCOD9265408 Si02
#       6
#     8   4   8   8   8   8
#     4   9  20  38  55  85 124 162 192 246 309 364
#     4  10  20  38  60  84 122 158 204 244 304 360
#     4  11  20  36  63  90 117 157 206 251 307 365
#     4  10  20  37  58  83 119 160 193 243 306 363
#     4   9  21  36  58  91 122 153 198 253 310 363
#     4  10  19  36  60  90 122 156 196 255 311 367
#
# _framework density 26.150856999999998
#
# number of rings (size 3 to 8) (size 9 to 14) (size 15 to 20)
#    0.000    2.182    1.818    2.182    0.000    2.909 
#   13.091    0.000    8.000    2.182    0.000    0.000 
#    0.000    0.000    0.000    0.000    0.000    0.000 
#
# Total GULP energy -122878.737296 kJ/mol
# GULP energy per Si atom -5585.397150 kJ/mol
# Density = 2.609134 g / cm^3
# Si number density = 26.150857 Si / 1000 Ang^3
#
#
#
# Elastic Constant Matrix: (Units=GPa)
#
#
# Indices 1 2 3 4 5 6 
#
# 1 185.4798 29.9831 63.9751 0.0000 14.1464 0.0000
# 2 29.9831 89.7535 15.8798 0.0000 12.7134 0.0000
# 3 63.9751 15.8798 143.5890 0.0000 31.7768 0.0000
# 4 0.0000 0.0000 0.0000 4.0682 0.0000 -18.7686
# 5 14.1464 12.7134 31.7768 0.0000 63.7360 0.0000
# 6 0.0000 0.0000 0.0000 -18.7686 0.0000 22.9147
#
#
#
# Elastic Compliance Matrix: (Units=1/GPa)
#
#
# Indices 1 2 3 4 5 6 
#
# 1 0.006627 -0.001755 -0.002822 0.000000 0.000286 0.000000
# 2 -0.001755 0.012025 -0.000116 0.000000 -0.001951 0.000000
# 3 -0.002822 -0.000116 0.009094 0.000000 -0.003885 0.000000
# 4 0.000000 0.000000 0.000000 -0.088461 0.000000 -0.072455
# 5 0.000286 -0.001951 -0.003885 0.000000 0.017952 0.000000
# 6 0.000000 0.000000 0.000000 -0.072455 0.000000 -0.015705
#
#
# Mechanical properties :
#
#
# Convention : Reuss Voigt Hill
#
# Bulk Modulus (GPa) = 54.46657 70.94424 62.70541
# Shear Modulus (GPa) = -116.38016 38.74272 -38.81872
#
# Velocity S-wave (km/s) = -6.67832 3.85321 -3.85699
# Velocity P-wave (km/s) = 6.21238 6.85449 2.04823
#
# Compressibility (1/GPa) = 0.01835988
#
# Stress axis : x y z
#
# Youngs Moduli (GPa) = 150.90870 83.16131 109.96280
#
# Poissons Ratio (x) = 0.14594 0.31027
# Poissons Ratio (y) = 0.26484 0.01277
# Poissons Ratio (z) = 0.42581 0.00966
#
# Static dielectric constant tensor:
#      x y z
#    x 2.048360 0.000000 0.025290 
#    y 0.000000 2.104710 0.000000 
#    z 0.025290 0.000000 2.098880 
# 
# From -- ./inp_files/117891.got.cif
#   From: 2010.05.17/outbox.cif.g08.bks.cpg/sg15_59_cif.got.tgz:117891.got - 2010.06.03 18:47:42.
