data_PCOD9265159
_publ_section_title
;
Structure prediction by ZEFSAII (Michael W. Deem and Ramdas Pophale) SiO2 
 PCOD9265159
Probable space group: C 2/C
;
_chemical_formula_sum "Si O2"
_cell_formula_units_Z 56
_cell_length_a 7.374179
_cell_length_b 19.581376
_cell_length_c 23.739999
_cell_angle_alpha 90.000000
_cell_angle_beta 60.773126
_cell_angle_gamma 90.000000
_cell_volume 2991.569856
_symmetry_space_group_name_H-M "C 2/C"
_symmetry_group_IT_number 15
_symmetry_cell_setting 'monoclinic'
loop_
_space_group_symop_operation_xyz
x,y,z
-x,y,1/2-z
-x,-y,-z
x,-y,1/2+z
1/2+x,1/2+y,z
1/2-x,1/2+y,1/2-z
1/2-x,1/2-y,-z
1/2+x,1/2-y,1/2+z
loop_
_atom_site_type_symbol
_atom_site_label
_atom_site_fract_x
_atom_site_fract_y
_atom_site_fract_z
Si Si1 0.525510 0.068654 0.894464
Si Si2 0.961204 0.137915 0.818737
Si Si3 0.791939 0.827483 0.009139
Si Si4 0.707152 0.968044 0.185625
Si Si5 0.652883 0.316082 0.044705
Si Si6 0.022140 0.061071 0.417365
Si Si7 0.198227 0.546879 0.018610
O O1 0.760637 0.087874 0.844890
O O2 0.411140 0.132127 0.941016
O O3 0.383277 0.054742 0.861228
O O4 0.498482 0.000965 0.937471
O O5 0.907066 0.187322 0.880045
O O6 0.000000 0.167145 0.750000
O O7 0.160897 0.093308 0.807025
O O8 0.948626 0.831649 0.038435
O O9 0.750000 0.750000 0.000000
O O10 0.895726 0.868918 0.941417
O O11 0.500000 0.986731 0.250000
O O12 0.865423 0.031311 0.154146
O O13 0.750000 0.250000 0.000000
O O14 0.802734 0.382001 0.014014
O O15 0.204118 0.067254 0.435999
O O16 0.867937 0.002020 0.463349
#
# Coordination Sequence:
#
# PCOD9265159 Si02
#       7
#     8   8   8   8   8   8   8
#     4  10  20  35  59  85 116 152 196 248 303 355
#     4  12  23  36  57  93 119 153 207 251 302 380
#     4  10  19  36  58  85 122 155 198 252 311 356
#     4  11  19  36  58  83 119 157 193 246 304 363
#     4  11  21  36  57  87 125 157 202 256 303 364
#     4   8  15  31  56  82 112 150 190 244 295 350
#     4   8  15  32  55  81 116 146 185 245 306 342
#
# _framework density 18.719269000000001
#
# number of rings (size 3 to 8) (size 9 to 14) (size 15 to 20)
#    0.000    2.000    4.286    2.571    0.000    0.571 
#    2.571    0.000    0.000   13.714    0.000    2.000 
#    0.000    0.000    0.000    0.000    0.000    0.000 
#
# Total GULP energy -156090.210221 kJ/mol
# GULP energy per Si atom -5574.650365 kJ/mol
# Density = 1.867666 g / cm^3
# Si number density = 18.719269 Si / 1000 Ang^3
#
#
#
# Elastic Constant Matrix: (Units=GPa)
#
#
# Indices 1 2 3 4 5 6 
#
# 1 72.7228 3.7105 14.0252 0.0000 8.3227 0.0000
# 2 3.7105 112.9918 47.7650 0.0000 -1.7031 0.0000
# 3 14.0252 47.7650 117.1204 0.0000 1.5774 0.0000
# 4 0.0000 0.0000 0.0000 21.5191 0.0000 -3.5797
# 5 8.3227 -1.7031 1.5774 0.0000 35.0172 0.0000
# 6 0.0000 0.0000 0.0000 -3.5797 0.0000 23.3682
#
#
#
# Elastic Compliance Matrix: (Units=1/GPa)
#
#
# Indices 1 2 3 4 5 6 
#
# 1 0.014466 0.000227 -0.001780 0.000000 -0.003347 0.000000
# 2 0.000227 0.010715 -0.004406 0.000000 0.000666 0.000000
# 3 -0.001780 -0.004406 0.010552 0.000000 -0.000267 0.000000
# 4 0.000000 0.000000 0.000000 0.047685 0.000000 0.007305
# 5 -0.003347 0.000666 -0.000267 0.000000 0.029397 0.000000
# 6 0.000000 0.000000 0.000000 0.007305 0.000000 0.043912
#
#
# Mechanical properties :
#
#
# Convention : Reuss Voigt Hill
#
# Bulk Modulus (GPa) = 41.99069 48.20403 45.09736
# Shear Modulus (GPa) = 28.31514 31.80320 30.05917
#
# Velocity S-wave (km/s) = 3.89346 4.12631 4.01158
# Velocity P-wave (km/s) = 6.53395 6.96483 6.75283
#
# Compressibility (1/GPa) = 0.02381480
#
# Stress axis : x y z
#
# Youngs Moduli (GPa) = 69.12986 93.32354 94.76969
#
# Poissons Ratio (x) = -0.02117 0.16866
# Poissons Ratio (y) = -0.01568 0.41757
# Poissons Ratio (z) = 0.12303 0.41120
#
# Static dielectric constant tensor:
#      x y z
#    x 1.702860 0.000000 0.030820 
#    y 0.000000 1.645620 0.000000 
#    z 0.030820 0.000000 1.698220 
# 
# From -- ./inp_files/265157.got.cif
#   From: 2010.05.17/outbox.cif.g08.bks.cpg/sg15_133_cif.got.tgz:265157.got - 2010.06.03 18:47:42.
