data_PCOD9265841
_publ_section_title
;
Structure prediction by ZEFSAII (Michael W. Deem and Ramdas Pophale) SiO2 
 PCOD9265841
Probable space group: C 2/C
;
_chemical_formula_sum "Si O2"
_cell_formula_units_Z 48
_cell_length_a 11.231283
_cell_length_b 10.093835
_cell_length_c 19.668875
_cell_angle_alpha 90.000000
_cell_angle_beta 92.422214
_cell_angle_gamma 90.000000
_cell_volume 2227.803515
_symmetry_space_group_name_H-M "C 2/C"
_symmetry_group_IT_number 15
_symmetry_cell_setting 'monoclinic'
loop_
_space_group_symop_operation_xyz
x,y,z
-x,y,1/2-z
-x,-y,-z
x,-y,1/2+z
1/2+x,1/2+y,z
1/2-x,1/2+y,1/2-z
1/2-x,1/2-y,-z
1/2+x,1/2-y,1/2+z
loop_
_atom_site_type_symbol
_atom_site_label
_atom_site_fract_x
_atom_site_fract_y
_atom_site_fract_z
Si Si1 0.477660 0.493783 0.615452
Si Si2 0.674778 0.875345 0.927778
Si Si3 0.244803 0.869054 0.331535
Si Si4 0.112860 0.816372 0.201859
Si Si5 0.471145 0.035652 0.330271
Si Si6 0.424930 0.334117 0.983977
O O1 0.355936 0.520144 0.653173
O O2 0.588668 0.547655 0.661690
O O3 0.495590 0.352449 0.580971
O O4 0.476268 0.593036 0.551066
O O5 0.711081 0.753947 0.878409
O O6 0.588758 0.965161 0.880150
O O7 0.801796 0.912066 0.962742
O O8 0.604312 0.811622 0.989859
O O9 0.226215 0.824793 0.253038
O O10 0.374681 0.925673 0.345998
O O11 0.093719 0.679948 0.160826
O O12 0.000000 0.810138 0.250000
O O13 0.500000 0.025504 0.250000
#
# Coordination Sequence:
#
# PCOD9265841 Si02
#       6
#     8   8   8   8   8   8
#     4   9  17  34  55  82 103 143 190 219 275 330
#     4  10  19  37  54  79 111 145 180 226 274 329
#     4  10  20  34  57  82 106 142 186 226 276 330
#     4   9  16  33  54  75 106 140 178 227 271 321
#     4  11  20  36  57  81 109 150 180 224 285 328
#     4   9  18  32  60  76 107 150 179 221 276 328
#
# _framework density 21.545885999999999
#
# number of rings (size 3 to 8) (size 9 to 14) (size 15 to 20)
#    0.000    2.333    6.667    0.000    2.333    0.000 
#    0.000   10.000    0.000    0.000    0.000    0.000 
#    0.000    0.000    0.000    0.000    0.000    0.000 
#
# Total GULP energy -133677.971429 kJ/mol
# GULP energy per Si atom -5569.915476 kJ/mol
# Density = 2.149685 g / cm^3
# Si number density = 21.545886 Si / 1000 Ang^3
#
#
#
# Elastic Constant Matrix: (Units=GPa)
#
#
# Indices 1 2 3 4 5 6 
#
# 1 57.9675 18.4361 15.2165 0.0000 20.9701 0.0000
# 2 18.4361 19.3647 10.0233 0.0000 1.2482 0.0000
# 3 15.2165 10.0233 70.5901 0.0000 27.0583 0.0000
# 4 0.0000 0.0000 0.0000 7.4587 0.0000 5.3465
# 5 20.9701 1.2482 27.0583 0.0000 34.3479 0.0000
# 6 0.0000 0.0000 0.0000 5.3465 0.0000 29.5897
#
#
#
# Elastic Compliance Matrix: (Units=1/GPa)
#
#
# Indices 1 2 3 4 5 6 
#
# 1 0.037090 -0.037620 0.007883 0.000000 -0.027487 0.000000
# 2 -0.037620 0.094780 -0.018383 0.000000 0.034005 0.000000
# 3 0.007883 -0.018383 0.023876 0.000000 -0.022953 0.000000
# 4 0.000000 0.000000 0.000000 0.154020 0.000000 -0.027830
# 5 -0.027487 0.034005 -0.022953 0.000000 0.062741 0.000000
# 6 0.000000 0.000000 0.000000 -0.027830 0.000000 0.038824
#
#
# Mechanical properties :
#
#
# Convention : Reuss Voigt Hill
#
# Bulk Modulus (GPa) = 16.80553 26.14159 21.47356
# Shear Modulus (GPa) = 9.48034 21.22901 15.35468
#
# Velocity S-wave (km/s) = 2.09991 3.14234 2.67245
# Velocity P-wave (km/s) = 3.70085 5.03240 4.41709
#
# Compressibility (1/GPa) = 0.05950423
#
# Stress axis : x y z
#
# Youngs Moduli (GPa) = 26.96142 10.55080 41.88355
#
# Poissons Ratio (x) = 0.39692 -0.33016
# Poissons Ratio (y) = 1.01428 0.76996
# Poissons Ratio (z) = -0.21253 0.19396
#
# Static dielectric constant tensor:
#      x y z
#    x 1.812820 0.000000 0.002330 
#    y 0.000000 1.853050 0.000000 
#    z 0.002330 0.000000 1.843870 
# 
# From -- ./inp_files/236616.got.cif
#   From: 2010.05.17/outbox.cif.g08.bks.cpg/sg15_119_cif.got.tgz:236616.got - 2010.06.03 18:47:42.
