data_PCOD9265385
_publ_section_title
;
Structure prediction by ZEFSAII (Michael W. Deem and Ramdas Pophale) SiO2 
 PCOD9265385
Probable space group: C 2/C
;
_chemical_formula_sum "Si O2"
_cell_formula_units_Z 52
_cell_length_a 11.536886
_cell_length_b 15.750328
_cell_length_c 19.476753
_cell_angle_alpha 90.000000
_cell_angle_beta 47.225242
_cell_angle_gamma 90.000000
_cell_volume 2597.813999
_symmetry_space_group_name_H-M "C 2/C"
_symmetry_group_IT_number 15
_symmetry_cell_setting 'monoclinic'
loop_
_space_group_symop_operation_xyz
x,y,z
-x,y,1/2-z
-x,-y,-z
x,-y,1/2+z
1/2+x,1/2+y,z
1/2-x,1/2+y,1/2-z
1/2-x,1/2-y,-z
1/2+x,1/2-y,1/2+z
loop_
_atom_site_type_symbol
_atom_site_label
_atom_site_fract_x
_atom_site_fract_y
_atom_site_fract_z
Si Si1 0.676458 0.028686 0.349691
Si Si2 0.500000 0.451624 0.250000
Si Si3 0.190348 0.056451 0.353189
Si Si4 0.312822 0.468312 0.005565
Si Si5 0.621179 0.357524 0.083552
Si Si6 0.560702 0.123929 0.522816
Si Si7 0.137416 0.769817 0.941109
O O1 0.712794 0.045184 0.255491
O O2 0.602237 0.102303 0.426564
O O3 0.568341 0.945939 0.402593
O O4 0.845410 0.007809 0.315385
O O5 0.489278 0.392755 0.187466
O O6 0.216007 0.151674 0.370537
O O7 0.999672 0.048796 0.420780
O O8 0.225095 0.987966 0.399381
O O9 0.283035 0.559568 0.980885
O O10 0.209022 0.396390 0.011672
O O11 0.733594 0.295687 0.081268
O O12 0.559811 0.311555 0.040281
O O13 0.485575 0.216808 0.554260
#
# Coordination Sequence:
#
# PCOD9265385 Si02
#       7
#     8   4   8   8   8   8   8
#     4  11  21  36  64  88 118 161 211 243 297 371
#     4  12  18  36  66  88 108 164 212 242 280 380
#     4  10  22  39  61  90 121 162 207 250 299 373
#     4  10  20  39  63  84 122 168 206 241 300 376
#     4  10  19  36  60  88 118 155 202 249 293 363
#     4  11  21  38  60  90 124 159 199 259 307 357
#     4  10  22  37  57  93 127 148 194 262 319 338
#
# _framework density 20.016831
#
# number of rings (size 3 to 8) (size 9 to 14) (size 15 to 20)
#    0.000    1.538    4.615    0.923    0.000    2.462 
#    0.000    0.000    0.000    1.846    0.000    0.000 
#    0.000    0.000    0.000    0.000    0.000    0.000 
#
# Total GULP energy -145130.105336 kJ/mol
# GULP energy per Si atom -5581.927128 kJ/mol
# Density = 1.997127 g / cm^3
# Si number density = 20.016831 Si / 1000 Ang^3
#
#
#
# Elastic Constant Matrix: (Units=GPa)
#
#
# Indices 1 2 3 4 5 6 
#
# 1 66.4626 12.7050 15.1397 0.0000 14.2218 0.0000
# 2 12.7050 50.7195 6.3841 0.0001 11.6680 0.0000
# 3 15.1397 6.3841 109.3665 0.0003 27.9788 -0.0001
# 4 0.0000 0.0001 0.0003 16.4799 -0.0001 6.4854
# 5 14.2218 11.6680 27.9788 -0.0001 30.5211 0.0000
# 6 0.0000 0.0000 -0.0001 6.4854 0.0000 36.7607
#
#
#
# Elastic Compliance Matrix: (Units=1/GPa)
#
#
# Indices 1 2 3 4 5 6 
#
# 1 0.017065 -0.002734 -0.000569 0.000000 -0.006384 0.000000
# 2 -0.002734 0.022160 0.001210 0.000000 -0.008307 0.000000
# 3 -0.000569 0.001210 0.012021 0.000000 -0.011217 0.000000
# 4 0.000000 0.000000 0.000000 0.065207 0.000001 -0.011504
# 5 -0.006384 -0.008307 -0.011217 0.000001 0.049198 0.000000
# 6 0.000000 0.000000 0.000000 -0.011504 0.000000 0.029233
#
#
# Mechanical properties :
#
#
# Convention : Reuss Voigt Hill
#
# Bulk Modulus (GPa) = 21.25003 32.77848 27.01425
# Shear Modulus (GPa) = 23.28214 29.57364 26.42789
#
# Velocity S-wave (km/s) = 3.41417 3.84792 3.63751
# Velocity P-wave (km/s) = 5.11675 6.01273 5.58275
#
# Compressibility (1/GPa) = 0.04705875
#
# Stress axis : x y z
#
# Youngs Moduli (GPa) = 58.60101 45.12664 83.18447
#
# Poissons Ratio (x) = 0.12339 0.04737
# Poissons Ratio (y) = 0.16023 -0.10066
# Poissons Ratio (z) = 0.03337 -0.05461
#
# Static dielectric constant tensor:
#      x y z
#    x 1.755180 0.000000 0.023380 
#    y 0.000000 1.727910 0.000000 
#    z 0.023380 0.000000 1.712610 
# 
# From -- ./inp_files/238663.got.cif
#   From: 2010.05.17/outbox.cif.g08.bks.cpg/sg15_120_cif.got.tgz:238663.got - 2010.06.03 18:47:42.
