data_PCOD9265528
_publ_section_title
;
Structure prediction by ZEFSAII (Michael W. Deem and Ramdas Pophale) SiO2 
 PCOD9265528
Probable space group: C 2/C
;
_chemical_formula_sum "Si O2"
_cell_formula_units_Z 60
_cell_length_a 19.628554
_cell_length_b 22.732291
_cell_length_c 10.621215
_cell_angle_alpha 90.000000
_cell_angle_beta 33.808690
_cell_angle_gamma 90.000000
_cell_volume 2636.997567
_symmetry_space_group_name_H-M "C 2/C"
_symmetry_group_IT_number 15
_symmetry_cell_setting 'monoclinic'
loop_
_space_group_symop_operation_xyz
x,y,z
-x,y,1/2-z
-x,-y,-z
x,-y,1/2+z
1/2+x,1/2+y,z
1/2-x,1/2+y,1/2-z
1/2-x,1/2-y,-z
1/2+x,1/2-y,1/2+z
loop_
_atom_site_type_symbol
_atom_site_label
_atom_site_fract_x
_atom_site_fract_y
_atom_site_fract_z
Si Si1 0.987205 0.908668 0.508409
Si Si2 0.710788 0.267340 0.344242
Si Si3 0.000000 0.843347 0.750000
Si Si4 0.118952 0.808445 0.209503
Si Si5 0.641685 0.990281 0.819736
Si Si6 0.328285 0.146525 0.201952
Si Si7 0.516666 0.809423 0.596432
Si Si8 0.785946 0.005287 0.837816
O O1 0.002500 0.851447 0.398490
O O2 0.996013 0.885223 0.636224
O O3 0.868493 0.948439 0.674657
O O4 0.109930 0.946027 0.297227
O O5 0.617623 0.300780 0.578308
O O6 0.669235 0.293507 0.271539
O O7 0.692544 0.196787 0.371473
O O8 0.850128 0.286660 0.144003
O O9 0.073747 0.745330 0.234896
O O10 0.222915 0.837131 0.965125
O O11 0.665096 0.922747 0.826650
O O12 0.697880 0.023390 0.856231
O O13 0.715374 0.003513 0.577623
O O14 0.500000 0.000000 0.000000
O O15 0.458235 0.159915 0.066866
O O16 0.500000 0.846947 0.750000
#
# Coordination Sequence:
#
# PCOD9265528 Si02
#       8
#     8   8   4   8   8   8   8   8
#     4  10  22  41  71 100 130 181 231 305 349 410
#     4  10  21  39  60  98 134 177 220 279 345 423
#     4  10  22  42  66  98 152 182 228 286 364 428
#     4  10  19  36  61  98 126 163 228 281 342 407
#     4  12  28  48  69 101 140 190 234 292 353 428
#     4  11  22  40  62  98 134 171 228 282 340 415
#     4  11  19  32  63  96 128 166 215 276 344 412
#     4  11  25  47  72 103 137 179 249 295 354 413
#
# _framework density 22.753150000000002
#
# number of rings (size 3 to 8) (size 9 to 14) (size 15 to 20)
#    0.000    1.333    4.000    2.000    1.867    5.867 
#    2.400    6.000    0.000    0.000    0.000    0.000 
#    0.000    0.000    0.000    0.000    0.000    0.000 
#
# Total GULP energy -167611.209488 kJ/mol
# GULP energy per Si atom -5587.040316 kJ/mol
# Density = 2.270136 g / cm^3
# Si number density = 22.753150 Si / 1000 Ang^3
#
#
#
# Elastic Constant Matrix: (Units=GPa)
#
#
# Indices 1 2 3 4 5 6 
#
# 1 87.9690 -8.2558 21.1194 0.0000 -19.8198 0.0001
# 2 -8.2558 52.2161 13.1032 0.0000 -11.1991 0.0000
# 3 21.1194 13.1032 104.6109 -0.0001 -19.3507 0.0005
# 4 0.0000 0.0000 -0.0001 10.0788 0.0001 -4.3970
# 5 -19.8198 -11.1991 -19.3507 0.0001 32.9494 -0.0002
# 6 0.0001 0.0000 0.0005 -4.3970 -0.0002 -2.6033
#
#
#
# Elastic Compliance Matrix: (Units=1/GPa)
#
#
# Indices 1 2 3 4 5 6 
#
# 1 0.014291 0.004666 -0.001779 0.000000 0.009137 0.000000
# 2 0.004666 0.022377 -0.002040 0.000000 0.009214 -0.000001
# 3 -0.001779 -0.002040 0.011048 0.000000 0.004724 0.000001
# 4 0.000000 0.000000 0.000000 0.057126 -0.000001 -0.096485
# 5 0.009137 0.009214 0.004724 -0.000001 0.041752 -0.000001
# 6 0.000000 -0.000001 0.000001 -0.096485 -0.000001 -0.221163
#
#
# Mechanical properties :
#
#
# Convention : Reuss Voigt Hill
#
# Bulk Modulus (GPa) = 20.23947 32.96997 26.60472
# Shear Modulus (GPa) = -83.62437 22.67359 -30.47539
#
# Velocity S-wave (km/s) = -6.06899 3.16017 -3.66374
# Velocity P-wave (km/s) = 6.34001 5.27611 2.48580
#
# Compressibility (1/GPa) = 0.04940841
#
# Stress axis : x y z
#
# Youngs Moduli (GPa) = 69.97206 44.68856 90.51447
#
# Poissons Ratio (x) = -0.20851 0.16106
# Poissons Ratio (y) = -0.32648 0.18469
# Poissons Ratio (z) = 0.12451 0.09119
#
# Static dielectric constant tensor:
#      x y z
#    x 1.929260 0.000000 0.000030 
#    y 0.000000 1.885200 0.000000 
#    z 0.000030 0.000000 1.834620 
# 
# From -- ./inp_files/114812.got.cif
#   From: 2010.05.17/outbox.cif.g08.bks.cpg/sg15_58_cif.got.tgz:114812.got - 2010.06.03 18:47:42.
