data_PCOD9265368
_publ_section_title
;
Structure prediction by ZEFSAII (Michael W. Deem and Ramdas Pophale) SiO2 
 PCOD9265368
Probable space group: C 2/C
;
_chemical_formula_sum "Si O2"
_cell_formula_units_Z 56
_cell_length_a 22.632944
_cell_length_b 11.535842
_cell_length_c 13.053938
_cell_angle_alpha 90.000000
_cell_angle_beta 124.721745
_cell_angle_gamma 90.000000
_cell_volume 2801.338764
_symmetry_space_group_name_H-M "C 2/C"
_symmetry_group_IT_number 15
_symmetry_cell_setting 'monoclinic'
loop_
_space_group_symop_operation_xyz
x,y,z
-x,y,1/2-z
-x,-y,-z
x,-y,1/2+z
1/2+x,1/2+y,z
1/2-x,1/2+y,1/2-z
1/2-x,1/2-y,-z
1/2+x,1/2-y,1/2+z
loop_
_atom_site_type_symbol
_atom_site_label
_atom_site_fract_x
_atom_site_fract_y
_atom_site_fract_z
Si Si1 0.653722 0.553655 0.701842
Si Si2 0.874351 0.808203 0.913243
Si Si3 0.651141 0.920893 0.797105
Si Si4 0.698141 0.017136 0.046131
Si Si5 0.573118 0.927972 0.069214
Si Si6 0.416398 0.303645 0.184881
Si Si7 0.782662 0.730365 0.322483
O O1 0.617766 0.437049 0.623895
O O2 0.732546 0.522946 0.822579
O O3 0.611556 0.612235 0.753622
O O4 0.671946 0.652209 0.636456
O O5 0.933934 0.710391 0.947267
O O6 0.801167 0.757166 0.789827
O O7 0.873095 0.816998 0.035349
O O8 0.596178 0.827742 0.789616
O O9 0.689577 0.851388 0.743776
O O10 0.613281 0.032073 0.711651
O O11 0.702000 0.964459 0.937467
O O12 0.625414 0.970213 0.028365
O O13 0.702086 0.155896 0.061093
O O14 0.500000 0.000000 0.000000
O O15 0.500000 0.324915 0.250000
#
# Coordination Sequence:
#
# PCOD9265368 Si02
#       7
#     8   8   8   8   8   8   8
#     4  10  21  39  61  89 117 160 199 243 297 358
#     4  11  21  39  63  86 125 157 197 247 299 354
#     4  10  20  35  61  87 117 154 203 251 294 356
#     4  10  19  36  60  87 117 152 195 247 300 346
#     4  11  22  36  58  89 119 151 198 247 296 346
#     4  11  22  38  61  85 115 161 205 244 296 360
#     4   9  19  36  60  91 119 152 200 248 297 354
#
# _framework density 19.990442999999999
#
# number of rings (size 3 to 8) (size 9 to 14) (size 15 to 20)
#    0.000    1.714    2.857    1.714    0.000    2.857 
#    2.571    1.429    0.000    0.000    0.000    0.000 
#    0.000    0.000    0.000    0.000    0.000    0.000 
#
# Total GULP energy -156262.286013 kJ/mol
# GULP energy per Si atom -5580.795929 kJ/mol
# Density = 1.994494 g / cm^3
# Si number density = 19.990443 Si / 1000 Ang^3
#
#
#
# Elastic Constant Matrix: (Units=GPa)
#
#
# Indices 1 2 3 4 5 6 
#
# 1 67.8869 25.9222 -9.6457 0.0000 6.2740 0.0000
# 2 25.9222 152.3524 24.3688 0.0000 -10.1928 0.0000
# 3 -9.6457 24.3688 26.5263 0.0000 -5.4590 0.0000
# 4 0.0000 0.0000 0.0000 30.0656 0.0000 -3.1082
# 5 6.2740 -10.1928 -5.4590 0.0000 16.7093 0.0000
# 6 0.0000 0.0000 0.0000 -3.1082 0.0000 21.5498
#
#
#
# Elastic Compliance Matrix: (Units=1/GPa)
#
#
# Indices 1 2 3 4 5 6 
#
# 1 0.018876 -0.005329 0.010327 0.000000 -0.006965 0.000000
# 2 -0.005329 0.009302 -0.009546 0.000000 0.004557 0.000000
# 3 0.010327 -0.009546 0.051703 0.000000 0.007191 0.000000
# 4 0.000000 0.000000 0.000000 0.033764 0.000000 0.004870
# 5 -0.006965 0.004557 0.007191 0.000000 0.067591 0.000000
# 6 0.000000 0.000000 0.000000 0.004870 0.000000 0.047107
#
#
# Mechanical properties :
#
#
# Convention : Reuss Voigt Hill
#
# Bulk Modulus (GPa) = 14.12749 36.45069 25.28909
# Shear Modulus (GPa) = 19.15452 27.40630 23.28041
#
# Velocity S-wave (km/s) = 3.09881 3.70668 3.41629
# Velocity P-wave (km/s) = 4.45937 6.04921 5.31408
#
# Compressibility (1/GPa) = 0.07078400
#
# Stress axis : x y z
#
# Youngs Moduli (GPa) = 52.97639 107.50098 19.34134
#
# Poissons Ratio (x) = 0.57292 -0.19973
# Poissons Ratio (y) = 0.28234 0.18463
# Poissons Ratio (z) = -0.54707 1.02618
#
# Static dielectric constant tensor:
#      x y z
#    x 1.728100 0.000000 -0.005550 
#    y 0.000000 1.755440 0.000000 
#    z -0.005550 0.000000 1.719370 
# 
# From -- ./inp_files/111662.got.cif
#   From: 2010.05.17/outbox.cif.g08.bks.cpg/sg15_56_cif.got.tgz:111662.got - 2010.06.03 18:47:42.
