data_PCOD9265488
_publ_section_title
;
Structure prediction by ZEFSAII (Michael W. Deem and Ramdas Pophale) SiO2 
 PCOD9265488
Probable space group: C 2/C
;
_chemical_formula_sum "Si O2"
_cell_formula_units_Z 40
_cell_length_a 8.593436
_cell_length_b 17.664927
_cell_length_c 18.163283
_cell_angle_alpha 90.000000
_cell_angle_beta 50.523988
_cell_angle_gamma 90.000000
_cell_volume 2128.280770
_symmetry_space_group_name_H-M "C 2/C"
_symmetry_group_IT_number 15
_symmetry_cell_setting 'monoclinic'
loop_
_space_group_symop_operation_xyz
x,y,z
-x,y,1/2-z
-x,-y,-z
x,-y,1/2+z
1/2+x,1/2+y,z
1/2-x,1/2+y,1/2-z
1/2-x,1/2-y,-z
1/2+x,1/2-y,1/2+z
loop_
_atom_site_type_symbol
_atom_site_label
_atom_site_fract_x
_atom_site_fract_y
_atom_site_fract_z
Si Si1 0.500000 0.143869 0.250000
Si Si2 0.566574 0.586205 0.898351
Si Si3 0.000000 0.649488 0.750000
Si Si4 0.533435 0.745141 0.602825
Si Si5 0.943987 0.915142 0.607320
Si Si6 0.660547 0.272691 0.605040
O O1 0.479547 0.198838 0.325656
O O2 0.294418 0.096264 0.309575
O O3 0.486999 0.655955 0.874269
O O4 0.501678 0.502549 0.894833
O O5 0.806371 0.597567 0.819920
O O6 0.499725 0.598710 0.003988
O O7 0.002487 0.709067 0.680884
O O8 0.750000 0.750000 0.500000
O O9 0.347575 0.767597 0.605150
O O10 0.057285 0.853936 0.624177
O O11 0.750000 0.250000 0.500000
#
# Coordination Sequence:
#
# PCOD9265488 Si02
#       6
#     4   8   4   8   8   8
#     4  12  23  40  65  86 124 164 204 244 317 358
#     4  10  21  37  62  89 127 153 205 247 312 360
#     4  10  19  36  61  90 116 166 200 248 297 374
#     4  11  22  41  63  90 122 162 207 253 302 371
#     4  11  21  38  62  93 121 163 197 257 303 367
#     4  11  20  38  64  91 120 158 213 247 299 370
#
# _framework density 18.794512999999998
#
# number of rings (size 3 to 8) (size 9 to 14) (size 15 to 20)
#    0.000    1.200    6.000    3.000    0.000    0.000 
#    0.000    4.000    0.000    0.000    0.000    0.000 
#    0.000    0.000    0.000    0.000    0.000    0.000 
#
# Total GULP energy -111565.942305 kJ/mol
# GULP energy per Si atom -5578.297115 kJ/mol
# Density = 1.875174 g / cm^3
# Si number density = 18.794513 Si / 1000 Ang^3
#
#
#
# Elastic Constant Matrix: (Units=GPa)
#
#
# Indices 1 2 3 4 5 6 
#
# 1 58.0170 24.4068 13.6844 0.0000 -12.1052 0.0000
# 2 24.4068 123.6154 5.2024 0.0000 -4.1771 0.0000
# 3 13.6844 5.2024 109.3574 -0.0001 -18.2438 0.0000
# 4 0.0000 0.0000 -0.0001 19.3625 0.0000 -8.4549
# 5 -12.1052 -4.1771 -18.2438 0.0000 36.2433 0.0000
# 6 0.0000 0.0000 0.0000 -8.4549 0.0000 22.2078
#
#
#
# Elastic Compliance Matrix: (Units=1/GPa)
#
#
# Indices 1 2 3 4 5 6 
#
# 1 0.020333 -0.003764 -0.001424 0.000000 0.005640 0.000000
# 2 -0.003764 0.008824 0.000012 0.000000 -0.000234 0.000000
# 3 -0.001424 0.000012 0.010090 0.000000 0.004605 0.000000
# 4 0.000000 0.000000 0.000000 0.061944 0.000000 0.023583
# 5 0.005640 -0.000234 0.004605 0.000000 0.031766 0.000000
# 6 0.000000 0.000000 0.000000 0.023583 0.000000 0.054008
#
#
# Mechanical properties :
#
#
# Convention : Reuss Voigt Hill
#
# Bulk Modulus (GPa) = 34.60813 41.95299 38.28056
# Shear Modulus (GPa) = 24.16052 32.07579 28.11816
#
# Velocity S-wave (km/s) = 3.58929 4.13565 3.87212
# Velocity P-wave (km/s) = 5.96919 6.72125 6.35635
#
# Compressibility (1/GPa) = 0.02889495
#
# Stress axis : x y z
#
# Youngs Moduli (GPa) = 49.18218 113.32282 99.10624
#
# Poissons Ratio (x) = 0.42654 0.14116
# Poissons Ratio (y) = 0.18512 -0.00121
# Poissons Ratio (z) = 0.07005 -0.00138
#
# Static dielectric constant tensor:
#      x y z
#    x 1.663560 0.000000 -0.015170 
#    y 0.000000 1.651260 0.000000 
#    z -0.015170 0.000000 1.665400 
# 
# From -- ./inp_files/133842.got.cif
#   From: 2010.05.17/outbox.cif.g08.bks.cpg/sg15_67_cif.got.tgz:133842.got - 2010.06.03 18:47:42.
