data_PCOD9265601
_publ_section_title
;
Structure prediction by ZEFSAII (Michael W. Deem and Ramdas Pophale) SiO2 
 PCOD9265601
Probable space group: C 2/C
;
_chemical_formula_sum "Si O2"
_cell_formula_units_Z 64
_cell_length_a 20.599053
_cell_length_b 5.834470
_cell_length_c 31.056498
_cell_angle_alpha 90.000000
_cell_angle_beta 139.499988
_cell_angle_gamma 90.000000
_cell_volume 2424.072869
_symmetry_space_group_name_H-M "C 2/C"
_symmetry_group_IT_number 15
_symmetry_cell_setting 'monoclinic'
loop_
_space_group_symop_operation_xyz
x,y,z
-x,y,1/2-z
-x,-y,-z
x,-y,1/2+z
1/2+x,1/2+y,z
1/2-x,1/2+y,1/2-z
1/2-x,1/2-y,-z
1/2+x,1/2-y,1/2+z
loop_
_atom_site_type_symbol
_atom_site_label
_atom_site_fract_x
_atom_site_fract_y
_atom_site_fract_z
Si Si1 0.706810 0.515554 0.592653
Si Si2 0.559833 0.429840 0.593060
Si Si3 0.849399 0.656649 0.235158
Si Si4 0.864708 0.845135 0.780184
Si Si5 0.617780 0.292574 0.471054
Si Si6 0.061441 0.178657 0.325049
Si Si7 0.591859 0.816687 0.859217
Si Si8 0.091581 0.591537 0.017485
O O1 0.610092 0.426273 0.571753
O O2 0.795167 0.393286 0.662609
O O3 0.686533 0.470673 0.532045
O O4 0.681589 0.782357 0.587967
O O5 0.635877 0.367774 0.668777
O O6 0.499625 0.656468 0.577055
O O7 0.471348 0.250114 0.546584
O O8 0.828089 0.409951 0.248399
O O9 0.970290 0.665757 0.292779
O O10 0.823397 0.912750 0.240031
O O11 0.980845 0.842761 0.823012
O O12 0.624383 0.238717 0.424604
O O13 0.645797 0.078034 0.513550
O O14 0.119912 0.416878 0.361996
O O15 0.000000 0.207591 0.250000
O O16 0.114423 0.931499 0.348692
O O17 0.000000 0.500000 0.000000
#
# Coordination Sequence:
#
# PCOD9265601 Si02
#       8
#     8   8   8   8   8   8   8   8
#     4  11  24  32  53  84 111 162 209 233 269 349
#     4  11  20  35  52  79 112 152 200 240 287 322
#     4  10  22  39  53  81 119 156 196 233 289 340
#     4  10  22  38  58  80 117 152 180 246 302 335
#     4  11  20  37  54  79 115 154 191 244 289 325
#     4  10  19  36  62  93 112 139 189 240 297 362
#     4  10  21  38  61  86 121 149 180 243 305 336
#     4  11  19  32  52  75 108 150 198 250 277 316
#
# _framework density 26.401848000000001
#
# number of rings (size 3 to 8) (size 9 to 14) (size 15 to 20)
#    0.000    1.500    5.000    2.625    3.500    1.000 
#    0.000    0.000    0.000    0.000    0.000   21.000 
#    0.000    0.000    0.000    0.000    0.000    0.000 
#
# Total GULP energy -178430.572800 kJ/mol
# GULP energy per Si atom -5575.955400 kJ/mol
# Density = 2.634176 g / cm^3
# Si number density = 26.401848 Si / 1000 Ang^3
#
#
#
# Elastic Constant Matrix: (Units=GPa)
#
#
# Indices 1 2 3 4 5 6 
#
# 1 52.1427 36.9710 32.5712 -0.0058 6.4426 0.0125
# 2 36.9710 208.1224 83.7531 -0.0085 4.5185 0.0178
# 3 32.5712 83.7531 152.9778 -0.0030 -4.7360 0.0033
# 4 -0.0058 -0.0085 -0.0030 44.7566 0.0023 2.7895
# 5 6.4426 4.5185 -4.7360 0.0023 37.5412 -0.0039
# 6 0.0125 0.0178 0.0033 2.7895 -0.0039 23.2792
#
#
#
# Elastic Compliance Matrix: (Units=1/GPa)
#
#
# Indices 1 2 3 4 5 6 
#
# 1 0.023940 -0.002637 -0.003786 0.000003 -0.004269 -0.000011
# 2 -0.002637 0.006505 -0.003022 0.000001 -0.000712 -0.000003
# 3 -0.003786 -0.003022 0.009064 -0.000001 0.002157 0.000004
# 4 0.000003 0.000001 -0.000001 0.022511 -0.000002 -0.002697
# 5 -0.004269 -0.000712 0.002157 -0.000002 0.027728 0.000007
# 6 -0.000011 -0.000003 0.000004 -0.002697 0.000007 0.043280
#
#
# Mechanical properties :
#
#
# Convention : Reuss Voigt Hill
#
# Bulk Modulus (GPa) = 48.49613 79.98150 64.23881
# Shear Modulus (GPa) = 31.48819 38.44524 34.96671
#
# Velocity S-wave (km/s) = 3.45722 3.82010 3.64318
# Velocity P-wave (km/s) = 5.86045 7.05813 6.48699
#
# Compressibility (1/GPa) = 0.02062020
#
# Stress axis : x y z
#
# Youngs Moduli (GPa) = 41.77143 153.73338 110.32403
#
# Poissons Ratio (x) = 0.40532 0.41767
# Poissons Ratio (y) = 0.11013 0.33339
# Poissons Ratio (z) = 0.15814 0.46457
#
# Static dielectric constant tensor:
#      x y z
#    x 2.624020 0.000230 -0.062280 
#    y 0.000230 2.585920 -0.000040 
#    z -0.062280 -0.000040 2.045330 
# 
# From -- ./inp_files/319982.got.cif
#   From: 2010.05.17/outbox.cif.g08.bks.cpg/sg15_160_cif.got.tgz:319982.got - 2010.06.03 18:47:42.
