data_PCOD9265004
_publ_section_title
;
Structure prediction by ZEFSAII (Michael W. Deem and Ramdas Pophale) SiO2 
 PCOD9265004
Probable space group: C 2/C
;
_chemical_formula_sum "Si O2"
_cell_formula_units_Z 60
_cell_length_a 24.284103
_cell_length_b 20.003671
_cell_length_c 16.166078
_cell_angle_alpha 90.000000
_cell_angle_beta 26.337107
_cell_angle_gamma 90.000000
_cell_volume 3484.003535
_symmetry_space_group_name_H-M "C 2/C"
_symmetry_group_IT_number 15
_symmetry_cell_setting 'monoclinic'
loop_
_space_group_symop_operation_xyz
x,y,z
-x,y,1/2-z
-x,-y,-z
x,-y,1/2+z
1/2+x,1/2+y,z
1/2-x,1/2+y,1/2-z
1/2-x,1/2-y,-z
1/2+x,1/2-y,1/2+z
loop_
_atom_site_type_symbol
_atom_site_label
_atom_site_fract_x
_atom_site_fract_y
_atom_site_fract_z
Si Si1 0.500000 0.032495 0.250000
Si Si2 0.500507 0.472252 0.347323
Si Si3 0.730578 0.557403 0.647930
Si Si4 0.907031 0.881690 0.015657
Si Si5 0.777790 0.343474 0.380421
Si Si6 0.270024 0.582970 0.254228
Si Si7 0.849402 0.809019 0.775526
Si Si8 0.500483 0.949805 0.421202
O O1 0.370670 0.072178 0.431808
O O2 0.511694 0.988664 0.318277
O O3 0.500000 0.471209 0.250000
O O4 0.626206 0.443336 0.217685
O O5 0.481827 0.548874 0.402182
O O6 0.381140 0.432757 0.541931
O O7 0.685075 0.603951 0.784156
O O8 0.732108 0.481604 0.682014
O O9 0.830475 0.864808 0.036740
O O10 0.006653 0.825360 0.902799
O O11 0.825261 0.269100 0.296434
O O12 0.723993 0.336689 0.545339
O O13 0.887083 0.397552 0.226154
O O14 0.301539 0.648559 0.262869
O O15 0.133877 0.585463 0.398355
O O16 0.500000 0.000000 0.500000
#
# Coordination Sequence:
#
# PCOD9265004 Si02
#       8
#     4   8   8   8   8   8   8   8
#     4  10  22  34  58  84 124 146 176 248 300 328
#     4  11  20  32  60  86 112 145 194 236 281 334
#     4  10  19  36  56  83 114 150 188 234 290 332
#     4  11  21  38  56  83 116 151 192 229 280 343
#     4  11  24  35  58  86 115 158 191 224 284 355
#     4  10  20  37  53  81 117 152 182 238 288 331
#     4  11  22  38  55  84 123 152 187 230 282 354
#     4  11  23  38  58  85 119 150 196 241 296 346
#
# _framework density 17.221568000000001
#
# number of rings (size 3 to 8) (size 9 to 14) (size 15 to 20)
#    0.000    1.333    2.667    6.000    5.600    0.000 
#    0.000    0.000    0.000    0.000    6.933    5.600 
#    0.000    0.000    0.000    0.000    0.000    0.000 
#
# Total GULP energy -167529.966495 kJ/mol
# GULP energy per Si atom -5584.332217 kJ/mol
# Density = 1.718237 g / cm^3
# Si number density = 17.221568 Si / 1000 Ang^3
#
#
#
# Elastic Constant Matrix: (Units=GPa)
#
#
# Indices 1 2 3 4 5 6 
#
# 1 65.6079 7.2453 29.7544 0.0000 -10.5940 0.0000
# 2 7.2453 53.5648 25.8164 -0.0003 -1.4422 0.0000
# 3 29.7544 25.8164 104.7842 -0.0005 -7.3715 0.0001
# 4 0.0000 -0.0003 -0.0005 12.8337 0.0000 14.7713
# 5 -10.5940 -1.4422 -7.3715 0.0000 35.9068 0.0000
# 6 0.0000 0.0000 0.0001 14.7713 0.0000 10.8522
#
#
#
# Elastic Compliance Matrix: (Units=1/GPa)
#
#
# Indices 1 2 3 4 5 6 
#
# 1 0.018143 -0.000002 -0.004845 0.000000 0.004358 0.000000
# 2 -0.000002 0.021186 -0.005235 -0.000001 -0.000224 0.000001
# 3 -0.004845 -0.005235 0.012271 -0.000001 0.000879 0.000001
# 4 0.000000 -0.000001 -0.000001 -0.137511 0.000000 0.187171
# 5 0.004358 -0.000224 0.000879 0.000000 0.029307 0.000000
# 6 0.000000 0.000001 0.000001 0.187171 0.000000 -0.162619
#
#
# Mechanical properties :
#
#
# Convention : Reuss Voigt Hill
#
# Bulk Modulus (GPa) = 31.80962 38.84325 35.32643
# Shear Modulus (GPa) = -26.51407 22.66124 -1.92641
#
# Velocity S-wave (km/s) = -3.92801 3.63142 -1.05879
# Velocity P-wave (km/s) = 1.43578 6.33931 4.36609
#
# Compressibility (1/GPa) = 0.03143703
#
# Stress axis : x y z
#
# Youngs Moduli (GPa) = 55.11682 47.20026 81.49377
#
# Poissons Ratio (x) = 0.00008 0.39483
# Poissons Ratio (y) = 0.00009 0.42663
# Poissons Ratio (z) = 0.26704 0.24710
#
# Static dielectric constant tensor:
#      x y z
#    x 1.577720 0.000000 -0.005110 
#    y 0.000000 1.553210 0.000000 
#    z -0.005110 0.000000 1.602440 
# 
# From -- ./inp_files/98288.got.cif
#   From: 2010.05.17/outbox.cif.g08.bks.cpg/sg15_50_cif.got.tgz:98288.got - 2010.06.03 18:47:42.
