data_PCOD9265012
_publ_section_title
;
Structure prediction by ZEFSAII (Michael W. Deem and Ramdas Pophale) SiO2 
 PCOD9265012
Probable space group: C 2/C
;
_chemical_formula_sum "Si O2"
_cell_formula_units_Z 60
_cell_length_a 13.734073
_cell_length_b 27.995737
_cell_length_c 8.353486
_cell_angle_alpha 90.000000
_cell_angle_beta 118.304336
_cell_angle_gamma 90.000000
_cell_volume 2827.870369
_symmetry_space_group_name_H-M "C 2/C"
_symmetry_group_IT_number 15
_symmetry_cell_setting 'monoclinic'
loop_
_space_group_symop_operation_xyz
x,y,z
-x,y,1/2-z
-x,-y,-z
x,-y,1/2+z
1/2+x,1/2+y,z
1/2-x,1/2+y,1/2-z
1/2-x,1/2-y,-z
1/2+x,1/2-y,1/2+z
loop_
_atom_site_type_symbol
_atom_site_label
_atom_site_fract_x
_atom_site_fract_y
_atom_site_fract_z
Si Si1 0.374471 0.027821 0.583119
Si Si2 0.674379 0.157117 0.149582
Si Si3 0.354174 0.721868 0.226872
Si Si4 0.744283 0.113618 0.862728
Si Si5 0.000000 0.251003 0.750000
Si Si6 0.074910 0.183674 0.538293
Si Si7 0.080877 0.317620 0.070324
Si Si8 0.878621 0.569066 0.223049
O O1 0.500000 0.031380 0.750000
O O2 0.293663 0.059708 0.631228
O O3 0.381390 0.045767 0.404771
O O4 0.338473 0.972743 0.574495
O O5 0.743550 0.204905 0.226044
O O6 0.685901 0.118193 0.298912
O O7 0.722007 0.135281 0.022449
O O8 0.545182 0.165277 0.017832
O O9 0.449968 0.687080 0.373758
O O10 0.390503 0.775802 0.282660
O O11 0.354656 0.712573 0.038781
O O12 0.866150 0.132199 0.907290
O O13 0.661345 0.138952 0.672503
O O14 0.068450 0.215295 0.691240
O O15 0.918940 0.286866 0.592231
O O16 0.000000 0.581754 0.250000
#
# Coordination Sequence:
#
# PCOD9265012 Si02
#       8
#     8   8   8   8   4   8   8   8
#     4  10  19  36  56  87 112 146 180 227 287 331
#     4  10  22  37  57  87 105 150 197 231 274 329
#     4   9  21  38  61  72 108 153 196 234 266 330
#     4  10  21  35  62  79 111 146 193 230 271 342
#     4  10  24  36  46  76 118 144 186 230 284 326
#     4   9  20  40  53  79 105 153 190 229 281 322
#     4  11  23  36  53  79 113 146 187 234 274 335
#     4  10  20  36  58  81 120 144 181 230 278 342
#
# _framework density 21.217379000000001
#
# number of rings (size 3 to 8) (size 9 to 14) (size 15 to 20)
#    0.000    2.133    0.000    3.600   12.133    1.600 
#    2.400    0.000    0.000    0.800    0.000    1.867 
#    0.000    0.000    0.000    0.000    0.000    0.000 
#
# Total GULP energy -167436.124857 kJ/mol
# GULP energy per Si atom -5581.204162 kJ/mol
# Density = 2.116909 g / cm^3
# Si number density = 21.217379 Si / 1000 Ang^3
#
#
#
# Elastic Constant Matrix: (Units=GPa)
#
#
# Indices 1 2 3 4 5 6 
#
# 1 79.5710 45.7799 24.1121 0.0000 -6.4012 0.0000
# 2 45.7799 95.6370 9.1619 0.0000 -6.1388 0.0000
# 3 24.1121 9.1619 35.5684 0.0000 -16.2059 0.0000
# 4 0.0000 0.0000 0.0000 19.8766 0.0000 -4.5963
# 5 -6.4012 -6.1388 -16.2059 0.0000 37.6156 0.0000
# 6 0.0000 0.0000 0.0000 -4.5963 0.0000 22.5642
#
#
#
# Elastic Compliance Matrix: (Units=1/GPa)
#
#
# Indices 1 2 3 4 5 6 
#
# 1 0.021994 -0.009413 -0.014284 0.000000 -0.003947 0.000000
# 2 -0.009413 0.014764 0.003666 0.000000 0.002387 0.000000
# 3 -0.014284 0.003666 0.044816 0.000000 0.017476 0.000000
# 4 0.000000 0.000000 0.000000 0.052797 0.000000 0.010755
# 5 -0.003947 0.002387 0.017476 0.000000 0.033832 0.000000
# 6 0.000000 0.000000 0.000000 0.010755 0.000000 0.046509
#
#
# Mechanical properties :
#
#
# Convention : Reuss Voigt Hill
#
# Bulk Modulus (GPa) = 24.08945 40.98714 32.53830
# Shear Modulus (GPa) = 18.61430 24.79277 21.70354
#
# Velocity S-wave (km/s) = 2.96516 3.42206 3.20177
# Velocity P-wave (km/s) = 4.80637 5.91385 5.38864
#
# Compressibility (1/GPa) = 0.04151195
#
# Stress axis : x y z
#
# Youngs Moduli (GPa) = 45.46732 67.73166 22.31354
#
# Poissons Ratio (x) = 0.63757 0.31872
# Poissons Ratio (y) = 0.42799 -0.08180
# Poissons Ratio (z) = 0.64944 -0.24829
#
# Static dielectric constant tensor:
#      x y z
#    x 1.792640 0.000000 -0.016120 
#    y 0.000000 1.812500 0.000000 
#    z -0.016120 0.000000 1.867610 
# 
# From -- ./inp_files/35720.got.cif
#   From: 2010.05.17/outbox.cif.g08.bks.cpg/sg15_18_cif.got.tgz:35720.got - 2010.06.03 18:47:42.
