data_PCOD9265445
_publ_section_title
;
Structure prediction by ZEFSAII (Michael W. Deem and Ramdas Pophale) SiO2 
 PCOD9265445
Probable space group: C 2/C
;
_chemical_formula_sum "Si O2"
_cell_formula_units_Z 44
_cell_length_a 5.597510
_cell_length_b 19.732912
_cell_length_c 21.894082
_cell_angle_alpha 90.000000
_cell_angle_beta 124.507823
_cell_angle_gamma 90.000000
_cell_volume 1992.809353
_symmetry_space_group_name_H-M "C 2/C"
_symmetry_group_IT_number 15
_symmetry_cell_setting 'monoclinic'
loop_
_space_group_symop_operation_xyz
x,y,z
-x,y,1/2-z
-x,-y,-z
x,-y,1/2+z
1/2+x,1/2+y,z
1/2-x,1/2+y,1/2-z
1/2-x,1/2-y,-z
1/2+x,1/2-y,1/2+z
loop_
_atom_site_type_symbol
_atom_site_label
_atom_site_fract_x
_atom_site_fract_y
_atom_site_fract_z
Si Si1 0.014598 0.855245 0.964928
Si Si2 0.820285 0.086408 0.552129
Si Si3 0.096379 0.282418 0.070357
Si Si4 0.291490 0.554795 0.105274
Si Si5 0.000000 0.869697 0.750000
Si Si6 0.322145 0.764656 0.281249
O O1 0.978744 0.903697 0.902810
O O2 0.798642 0.791105 0.938783
O O3 0.310035 0.813467 0.998079
O O4 0.042564 0.901074 0.028958
O O5 0.815561 0.156952 0.587915
O O6 0.523336 0.070396 0.470571
O O7 0.855940 0.023907 0.602731
O O8 0.026369 0.273469 0.131676
O O9 0.321614 0.583822 0.177330
O O10 0.809963 0.814877 0.760495
O O11 0.500000 0.795801 0.250000
O O12 0.000000 0.789379 0.250000
#
# Coordination Sequence:
#
# PCOD9265445 Si02
#       6
#     8   8   8   8   4   8
#     4  10  19  36  61  85 119 156 209 262 318 383
#     4  10  22  35  63  84 125 158 211 266 325 380
#     4  10  21  36  57  93 118 160 209 261 325 374
#     4  10  21  40  55  90 116 167 211 262 319 392
#     4  10  22  38  62  82 126 160 218 252 322 380
#     4  10  23  39  62  92 127 169 212 266 319 382
#
# _framework density 22.079384999999998
#
# number of rings (size 3 to 8) (size 9 to 14) (size 15 to 20)
#    0.545    1.455    1.818    1.091    5.091    0.000 
#    1.636    0.000    0.000    0.000    0.000    0.000 
#    0.000    0.000    0.000    0.000    0.000    0.000 
#
# Total GULP energy -122503.474959 kJ/mol
# GULP energy per Si atom -5568.339771 kJ/mol
# Density = 2.202913 g / cm^3
# Si number density = 22.079385 Si / 1000 Ang^3
#
#
#
# Elastic Constant Matrix: (Units=GPa)
#
#
# Indices 1 2 3 4 5 6 
#
# 1 51.6415 1.1840 9.4155 0.0000 -8.5905 0.0000
# 2 1.1840 77.5116 16.1281 0.0000 2.2904 0.0000
# 3 9.4155 16.1281 97.3463 0.0000 -20.3879 0.0000
# 4 0.0000 0.0000 0.0000 32.8400 0.0000 -15.7684
# 5 -8.5905 2.2904 -20.3879 0.0000 22.1444 0.0000
# 6 0.0000 0.0000 0.0000 -15.7684 0.0000 15.6683
#
#
#
# Elastic Compliance Matrix: (Units=1/GPa)
#
#
# Indices 1 2 3 4 5 6 
#
# 1 0.020730 -0.000489 -0.000284 0.000000 0.007831 0.000000
# 2 -0.000489 0.013702 -0.003171 0.000000 -0.004526 0.000000
# 3 -0.000284 -0.003171 0.013468 0.000000 0.012617 0.000000
# 4 0.000000 0.000000 0.000000 0.058925 0.000000 0.059301
# 5 0.007831 -0.004526 0.012617 0.000000 0.060281 0.000000
# 6 0.000000 0.000000 0.000000 0.059301 0.000000 0.123503
#
#
# Mechanical properties :
#
#
# Convention : Reuss Voigt Hill
#
# Bulk Modulus (GPa) = 24.99207 31.10606 28.04907
# Shear Modulus (GPa) = 16.03419 27.44865 21.74142
#
# Velocity S-wave (km/s) = 2.69774 3.52970 3.14139
# Velocity P-wave (km/s) = 4.58776 5.54352 5.08813
#
# Compressibility (1/GPa) = 0.04001269
#
# Stress axis : x y z
#
# Youngs Moduli (GPa) = 48.23948 72.98058 74.25019
#
# Poissons Ratio (x) = 0.03569 0.02108
# Poissons Ratio (y) = 0.02359 0.23543
# Poissons Ratio (z) = 0.01370 0.23141
#
# Static dielectric constant tensor:
#      x y z
#    x 1.946590 0.000000 0.048860 
#    y 0.000000 1.875880 0.000000 
#    z 0.048860 0.000000 1.843720 
# 
# From -- ./inp_files/227259.got.cif
#   From: 2010.05.17/outbox.cif.g08.bks.cpg/sg15_114_cif.got.tgz:227259.got - 2010.06.03 18:47:42.
