data_PCOD9265639
_publ_section_title
;
Structure prediction by ZEFSAII (Michael W. Deem and Ramdas Pophale) SiO2 
 PCOD9265639
Probable space group: C 2/C
;
_chemical_formula_sum "Si O2"
_cell_formula_units_Z 64
_cell_length_a 26.163291
_cell_length_b 19.101468
_cell_length_c 9.941061
_cell_angle_alpha 90.000000
_cell_angle_beta 44.158733
_cell_angle_gamma 90.000000
_cell_volume 3461.031931
_symmetry_space_group_name_H-M "C 2/C"
_symmetry_group_IT_number 15
_symmetry_cell_setting 'monoclinic'
loop_
_space_group_symop_operation_xyz
x,y,z
-x,y,1/2-z
-x,-y,-z
x,-y,1/2+z
1/2+x,1/2+y,z
1/2-x,1/2+y,1/2-z
1/2-x,1/2-y,-z
1/2+x,1/2-y,1/2+z
loop_
_atom_site_type_symbol
_atom_site_label
_atom_site_fract_x
_atom_site_fract_y
_atom_site_fract_z
Si Si1 0.335685 0.186770 0.736430
Si Si2 0.972872 0.783303 0.450636
Si Si3 0.780685 0.095706 0.110890
Si Si4 0.256613 0.437106 0.162244
Si Si5 0.701857 0.217849 0.386662
Si Si6 0.563927 0.704251 0.024908
Si Si7 0.368381 0.570253 0.690654
Si Si8 0.127748 0.087558 0.287023
O O1 0.414146 0.220429 0.556719
O O2 0.314870 0.110495 0.718970
O O3 0.274219 0.237550 0.786626
O O4 0.325157 0.188294 0.918104
O O5 0.931015 0.850649 0.594390
O O6 0.000000 0.800227 0.250000
O O7 0.039040 0.766940 0.427112
O O8 0.723130 0.157047 0.242231
O O9 0.825012 0.093996 0.166631
O O10 0.746101 0.019109 0.150757
O O11 0.839409 0.105615 0.881729
O O12 0.297055 0.435012 0.229308
O O13 0.316366 0.406604 0.943168
O O14 0.639353 0.265166 0.438958
O O15 0.500000 0.720700 0.250000
O O16 0.574816 0.621063 0.987921
O O17 0.399175 0.492941 0.662794
#
# Coordination Sequence:
#
# PCOD9265639 Si02
#       8
#     8   8   8   8   8   8   8   8
#     4  11  20  39  65  85 113 166 203 236 302 361
#     4  12  25  38  59  87 124 163 200 244 296 356
#     4  10  20  35  61  91 117 147 201 258 294 338
#     4  10  19  36  63  89 113 152 203 249 294 352
#     4  11  21  38  65  86 115 160 204 248 294 358
#     4  12  24  38  55  88 122 160 201 242 300 353
#     4  10  22  34  55  89 124 152 196 251 289 350
#     4  10  19  38  57  82 120 167 197 225 300 368
#
# _framework density 18.491595
#
# number of rings (size 3 to 8) (size 9 to 14) (size 15 to 20)
#    0.000    1.250    5.000    2.250    0.000    2.500 
#    0.000    0.000    0.000    1.500    0.000    0.000 
#    0.000    0.000    0.000    0.000    0.000    0.000 
#
# Total GULP energy -178705.014815 kJ/mol
# GULP energy per Si atom -5584.531713 kJ/mol
# Density = 1.844951 g / cm^3
# Si number density = 18.491595 Si / 1000 Ang^3
#
#
#
# Elastic Constant Matrix: (Units=GPa)
#
#
# Indices 1 2 3 4 5 6 
#
# 1 79.2059 14.0490 5.9015 0.0000 4.2725 0.0000
# 2 14.0490 66.0448 14.4775 0.0000 -5.5451 0.0000
# 3 5.9015 14.4775 49.6853 0.0000 14.9471 0.0000
# 4 0.0000 0.0000 0.0000 26.7433 0.0000 2.1244
# 5 4.2725 -5.5451 14.9471 0.0000 25.5371 0.0000
# 6 0.0000 0.0000 0.0000 2.1244 0.0000 16.6661
#
#
#
# Elastic Compliance Matrix: (Units=1/GPa)
#
#
# Indices 1 2 3 4 5 6 
#
# 1 0.013330 -0.003149 0.000256 0.000000 -0.003064 0.000000
# 2 -0.003149 0.018236 -0.007634 0.000000 0.008955 0.000000
# 3 0.000256 -0.007634 0.027712 0.000000 -0.017920 0.000000
# 4 0.000000 0.000000 0.000000 0.037775 0.000000 -0.004815
# 5 -0.003064 0.008955 -0.017920 0.000000 0.052104 0.000000
# 6 0.000000 0.000000 0.000000 -0.004815 0.000000 0.060616
#
#
# Mechanical properties :
#
#
# Convention : Reuss Voigt Hill
#
# Bulk Modulus (GPa) = 26.16107 29.31023 27.73565
# Shear Modulus (GPa) = 20.52814 24.48983 22.50899
#
# Velocity S-wave (km/s) = 3.33548 3.64315 3.49270
# Velocity P-wave (km/s) = 5.38630 5.79497 5.59436
#
# Compressibility (1/GPa) = 0.03822474
#
# Stress axis : x y z
#
# Youngs Moduli (GPa) = 75.01853 54.83589 36.08597
#
# Poissons Ratio (x) = 0.17267 -0.00923
# Poissons Ratio (y) = 0.23622 0.27547
# Poissons Ratio (z) = -0.01920 0.41859
#
# Static dielectric constant tensor:
#      x y z
#    x 1.638960 0.000000 0.012590 
#    y 0.000000 1.679510 0.000000 
#    z 0.012590 0.000000 1.641060 
# 
# From -- ./inp_files/63386.got.cif
#   From: 2010.05.17/outbox.cif.g08.bks.cpg/sg15_32_cif.got.tgz:63386.got - 2010.06.03 18:47:42.
