data_PCOD9265709
_publ_section_title
;
Structure prediction by ZEFSAII (Michael W. Deem and Ramdas Pophale) SiO2 
 PCOD9265709
Probable space group: C 2/C
;
_chemical_formula_sum "Si O2"
_cell_formula_units_Z 64
_cell_length_a 9.799521
_cell_length_b 20.513431
_cell_length_c 24.201531
_cell_angle_alpha 90.000000
_cell_angle_beta 134.482138
_cell_angle_gamma 90.000000
_cell_volume 3471.051479
_symmetry_space_group_name_H-M "C 2/C"
_symmetry_group_IT_number 15
_symmetry_cell_setting 'monoclinic'
loop_
_space_group_symop_operation_xyz
x,y,z
-x,y,1/2-z
-x,-y,-z
x,-y,1/2+z
1/2+x,1/2+y,z
1/2-x,1/2+y,1/2-z
1/2-x,1/2-y,-z
1/2+x,1/2-y,1/2+z
loop_
_atom_site_type_symbol
_atom_site_label
_atom_site_fract_x
_atom_site_fract_y
_atom_site_fract_z
Si Si1 0.724978 0.993620 0.069493
Si Si2 0.447913 0.625055 0.116200
Si Si3 0.496579 0.759821 0.314154
Si Si4 0.368154 0.669871 0.766484
Si Si5 0.254068 0.371018 0.444235
Si Si6 0.701010 0.033680 0.277436
Si Si7 0.874599 0.449763 0.343994
Si Si8 0.035068 0.914361 0.104641
O O1 0.742621 0.957560 0.132947
O O2 0.832380 0.950901 0.053899
O O3 0.819924 0.064227 0.099572
O O4 0.500000 0.000000 0.000000
O O5 0.438629 0.687199 0.152899
O O6 0.660674 0.595002 0.175930
O O7 0.368812 0.642936 0.032913
O O8 0.500000 0.775054 0.250000
O O9 0.275060 0.769607 0.268247
O O10 0.633066 0.809924 0.386188
O O11 0.500000 0.677119 0.750000
O O12 0.224643 0.610102 0.714605
O O13 0.462750 0.645943 0.851013
O O14 0.399129 0.392425 0.437058
O O15 0.096243 0.427908 0.412074
O O16 0.500000 0.041879 0.250000
O O17 0.655965 0.013650 0.201564
O O18 0.813654 0.970954 0.334625
#
# Coordination Sequence:
#
# PCOD9265709 Si02
#       8
#     8   8   8   8   8   8   8   8
#     4  11  22  38  59  94 129 160 194 251 321 371
#     4  11  26  38  61  93 129 163 200 249 322 369
#     4  11  24  41  65  88 117 167 214 257 301 359
#     4  10  19  36  64  89 112 153 212 266 285 352
#     4  11  21  42  65  86 123 162 210 255 295 369
#     4  10  21  36  59  90 128 159 198 251 306 368
#     4  10  20  34  61  89 121 159 202 251 304 357
#     4  10  20  35  62  94 117 154 211 247 300 361
#
# _framework density 18.438217000000002
#
# number of rings (size 3 to 8) (size 9 to 14) (size 15 to 20)
#    0.000    1.500    5.000    0.375    1.750    3.500 
#    0.000    0.000    2.750    1.500    0.000    0.000 
#    0.000    0.000    0.000    0.000    0.000    0.000 
#
# Total GULP energy -178422.972087 kJ/mol
# GULP energy per Si atom -5575.717878 kJ/mol
# Density = 1.839625 g / cm^3
# Si number density = 18.438217 Si / 1000 Ang^3
#
#
#
# Elastic Constant Matrix: (Units=GPa)
#
#
# Indices 1 2 3 4 5 6 
#
# 1 102.9656 9.1800 6.3752 0.0000 19.5251 0.0000
# 2 9.1800 50.9672 7.5717 0.0000 7.1516 0.0000
# 3 6.3752 7.5717 45.3567 0.0001 11.9998 0.0001
# 4 0.0000 0.0000 0.0001 19.0686 0.0001 -6.5957
# 5 19.5251 7.1516 11.9998 0.0001 32.3242 0.0000
# 6 0.0000 0.0000 0.0001 -6.5957 0.0000 12.9711
#
#
#
# Elastic Compliance Matrix: (Units=1/GPa)
#
#
# Indices 1 2 3 4 5 6 
#
# 1 0.011032 -0.001123 0.000370 0.000000 -0.006553 0.000000
# 2 -0.001123 0.020609 -0.002501 0.000000 -0.002953 0.000000
# 3 0.000370 -0.002501 0.024757 0.000000 -0.008861 0.000000
# 4 0.000000 0.000000 0.000000 0.063635 0.000000 0.032358
# 5 -0.006553 -0.002953 -0.008861 0.000000 0.038838 0.000000
# 6 0.000000 0.000000 0.000000 0.032358 0.000000 0.093548
#
#
# Mechanical properties :
#
#
# Convention : Reuss Voigt Hill
#
# Bulk Modulus (GPa) = 20.04380 27.28260 23.66320
# Shear Modulus (GPa) = 18.14522 24.61695 21.38108
#
# Velocity S-wave (km/s) = 3.14045 3.65787 3.40899
# Velocity P-wave (km/s) = 4.90350 5.71567 5.32509
#
# Compressibility (1/GPa) = 0.04989073
#
# Stress axis : x y z
#
# Youngs Moduli (GPa) = 90.64775 48.52341 40.39217
#
# Poissons Ratio (x) = 0.05447 -0.01496
# Poissons Ratio (y) = 0.10176 0.10103
# Poissons Ratio (z) = -0.03358 0.12137
#
# Static dielectric constant tensor:
#      x y z
#    x 1.636710 0.000000 -0.010300 
#    y 0.000000 1.631780 0.000000 
#    z -0.010300 0.000000 1.689290 
# 
# From -- ./inp_files/266148.got.cif
#   From: 2010.05.17/outbox.cif.g08.bks.cpg/sg15_134_cif.got.tgz:266148.got - 2010.06.03 18:47:42.
