data_PCOD9265329
_publ_section_title
;
Structure prediction by ZEFSAII (Michael W. Deem and Ramdas Pophale) SiO2 
 PCOD9265329
Probable space group: C 2/C
;
_chemical_formula_sum "Si O2"
_cell_formula_units_Z 36
_cell_length_a 21.737957
_cell_length_b 15.906167
_cell_length_c 5.212310
_cell_angle_alpha 90.000000
_cell_angle_beta 88.693866
_cell_angle_gamma 90.000000
_cell_volume 1801.779516
_symmetry_space_group_name_H-M "C 2/C"
_symmetry_group_IT_number 15
_symmetry_cell_setting 'monoclinic'
loop_
_space_group_symop_operation_xyz
x,y,z
-x,y,1/2-z
-x,-y,-z
x,-y,1/2+z
1/2+x,1/2+y,z
1/2-x,1/2+y,1/2-z
1/2-x,1/2-y,-z
1/2+x,1/2-y,1/2+z
loop_
_atom_site_type_symbol
_atom_site_label
_atom_site_fract_x
_atom_site_fract_y
_atom_site_fract_z
Si Si1 0.614212 0.314880 0.239044
Si Si2 0.000000 0.941518 0.250000
Si Si3 0.250404 0.691323 0.749182
Si Si4 0.615518 0.198551 0.739289
Si Si5 0.431354 0.032512 0.566775
O O1 0.560176 0.382327 0.254117
O O2 0.683378 0.353642 0.258389
O O3 0.606943 0.246713 0.470959
O O4 0.612090 0.266831 0.967223
O O5 0.000000 0.000000 0.500000
O O6 0.250000 0.750000 0.500000
O O7 0.182519 0.652299 0.746276
O O8 0.250000 0.750000 0.000000
O O9 0.569197 0.124872 0.815455
O O10 0.500000 0.000000 0.500000
O O11 0.401697 0.027029 0.287240
#
# Coordination Sequence:
#
# PCOD9265329 Si02
#       5
#     8   4   8   8   8
#     4  10  21  38  61  82 103 144 190 233 281 331
#     4  12  26  42  56  82 118 148 186 240 292 342
#     4   8  16  32  56  83 106 130 180 240 277 316
#     4  10  19  36  60  84 108 144 190 228 269 336
#     4  10  21  34  48  75 117 150 172 212 263 313
#
# _framework density 19.980246999999999
#
# number of rings (size 3 to 8) (size 9 to 14) (size 15 to 20)
#    0.000    2.222    0.000    2.667    0.000    5.333 
#    0.000    2.222    0.000    0.000    0.000    0.000 
#    0.000    0.000    0.000    0.000    0.000    0.000 
#
# Total GULP energy -100239.977478 kJ/mol
# GULP energy per Si atom -5568.887638 kJ/mol
# Density = 1.993477 g / cm^3
# Si number density = 19.980247 Si / 1000 Ang^3
#
#
#
# Elastic Constant Matrix: (Units=GPa)
#
#
# Indices 1 2 3 4 5 6 
#
# 1 163.3644 59.1586 14.3614 0.0000 -13.2713 0.0000
# 2 59.1586 58.8542 11.8003 0.0000 -9.5758 0.0000
# 3 14.3614 11.8003 146.6048 0.0000 0.9074 0.0000
# 4 0.0000 0.0000 0.0000 30.9097 0.0000 4.1350
# 5 -13.2713 -9.5758 0.9074 0.0000 23.5296 0.0000
# 6 0.0000 0.0000 0.0000 4.1350 0.0000 -1.3758
#
#
#
# Elastic Compliance Matrix: (Units=1/GPa)
#
#
# Indices 1 2 3 4 5 6 
#
# 1 0.009687 -0.009431 -0.000200 0.000000 0.001633 0.000000
# 2 -0.009431 0.027719 -0.001344 0.000000 0.006013 0.000000
# 3 -0.000200 -0.001344 0.006955 0.000000 -0.000928 0.000000
# 4 0.000000 0.000000 0.000000 0.023075 0.000000 0.069351
# 5 0.001633 0.006013 -0.000928 0.000000 0.045904 0.000000
# 6 0.000000 0.000000 0.000000 0.069351 0.000000 -0.518405
#
#
# Mechanical properties :
#
#
# Convention : Reuss Voigt Hill
#
# Bulk Modulus (GPa) = 44.62411 59.94042 52.28226
# Shear Modulus (GPa) = -13.31040 29.51289 8.10125
#
# Velocity S-wave (km/s) = -2.58384 3.84748 2.01579
# Velocity P-wave (km/s) = 3.67164 7.05708 5.62509
#
# Compressibility (1/GPa) = 0.02240941
#
# Stress axis : x y z
#
# Youngs Moduli (GPa) = 103.23356 36.07646 143.78963
#
# Poissons Ratio (x) = 0.34024 0.02875
# Poissons Ratio (y) = 0.97360 0.19332
# Poissons Ratio (z) = 0.02064 0.04850
#
# Static dielectric constant tensor:
#      x y z
#    x 1.832410 0.000000 0.038260 
#    y 0.000000 1.674930 0.000000 
#    z 0.038260 0.000000 1.774430 
# 
# From -- ./inp_files/12572.got.cif
#   From: 2010.05.17/outbox.cif.g08.bks.cpg/sg15_7_cif.got.tgz:12572.got - 2010.06.03 18:47:42.
