data_PCOD9265387
_publ_section_title
;
Structure prediction by ZEFSAII (Michael W. Deem and Ramdas Pophale) SiO2 
 PCOD9265387
Probable space group: C 2/C
;
_chemical_formula_sum "Si O2"
_cell_formula_units_Z 48
_cell_length_a 6.277358
_cell_length_b 22.246565
_cell_length_c 16.847432
_cell_angle_alpha 90.000000
_cell_angle_beta 107.290895
_cell_angle_gamma 90.000000
_cell_volume 2246.413195
_symmetry_space_group_name_H-M "C 2/C"
_symmetry_group_IT_number 15
_symmetry_cell_setting 'monoclinic'
loop_
_space_group_symop_operation_xyz
x,y,z
-x,y,1/2-z
-x,-y,-z
x,-y,1/2+z
1/2+x,1/2+y,z
1/2-x,1/2+y,1/2-z
1/2-x,1/2-y,-z
1/2+x,1/2-y,1/2+z
loop_
_atom_site_type_symbol
_atom_site_label
_atom_site_fract_x
_atom_site_fract_y
_atom_site_fract_z
Si Si1 0.691125 0.985489 0.335593
Si Si2 0.576745 0.122859 0.613946
Si Si3 0.950546 0.559556 0.043678
Si Si4 0.500000 0.797898 0.750000
Si Si5 0.452127 0.749741 0.338500
Si Si6 0.816714 0.131014 0.167223
Si Si7 0.500000 0.424710 0.250000
O O1 0.500000 0.001633 0.250000
O O2 0.597803 0.926364 0.371320
O O3 0.907382 0.966020 0.310995
O O4 0.704502 0.039598 0.400030
O O5 0.637623 0.106826 0.530203
O O6 0.482599 0.189949 0.609799
O O7 0.793846 0.113945 0.693764
O O8 0.187433 0.582698 0.102295
O O9 0.000000 0.500000 0.000000
O O10 0.312615 0.759721 0.684532
O O11 0.370950 0.838192 0.798794
O O12 0.500000 0.759819 0.250000
O O13 0.571149 0.686113 0.369067
O O14 0.000000 0.107436 0.250000
#
# Coordination Sequence:
#
# PCOD9265387 Si02
#       7
#     8   8   8   4   8   8   4
#     4   9  20  38  58  86 117 164 210 254 304 364
#     4  10  20  36  60  91 130 154 204 256 312 366
#     4  10  22  41  58  89 129 156 201 268 299 358
#     4   8  17  34  58  88 118 152 208 245 288 362
#     4   9  17  33  60  90 117 163 203 249 301 367
#     4   9  20  39  62  87 114 164 207 245 307 366
#     4  10  19  36  60  88 118 172 208 243 320 372
#
# _framework density 21.367395999999999
#
# number of rings (size 3 to 8) (size 9 to 14) (size 15 to 20)
#    0.000    3.000    0.000    2.000    1.167    2.667 
#   13.500    7.500    0.000    0.000    0.000    0.000 
#    0.000    0.000    0.000    0.000    0.000    0.000 
#
# Total GULP energy -133974.245174 kJ/mol
# GULP energy per Si atom -5582.260216 kJ/mol
# Density = 2.131876 g / cm^3
# Si number density = 21.367396 Si / 1000 Ang^3
#
#
#
# Elastic Constant Matrix: (Units=GPa)
#
#
# Indices 1 2 3 4 5 6 
#
# 1 80.9853 23.3459 12.7272 0.0000 -4.5931 0.0000
# 2 23.3459 112.7593 51.0065 0.0000 4.0367 0.0000
# 3 12.7272 51.0065 75.4567 0.0000 -3.6784 0.0000
# 4 0.0000 0.0000 0.0000 12.4984 0.0000 8.5538
# 5 -4.5931 4.0367 -3.6784 0.0000 22.2605 0.0000
# 6 0.0000 0.0000 0.0000 8.5538 0.0000 7.2164
#
#
#
# Elastic Compliance Matrix: (Units=1/GPa)
#
#
# Indices 1 2 3 4 5 6 
#
# 1 0.013368 -0.002787 -0.000214 0.000000 0.003228 0.000000
# 2 -0.002787 0.013678 -0.008997 0.000000 -0.004542 0.000000
# 3 -0.000214 -0.008997 0.019606 0.000000 0.004827 0.000000
# 4 0.000000 0.000000 0.000000 0.423871 0.000000 -0.502430
# 5 0.003228 -0.004542 0.004827 0.000000 0.047210 0.000000
# 6 0.000000 0.000000 0.000000 -0.502430 0.000000 0.734122
#
#
# Mechanical properties :
#
#
# Convention : Reuss Voigt Hill
#
# Bulk Modulus (GPa) = 44.13743 49.26230 46.69986
# Shear Modulus (GPa) = 3.89590 20.53650 12.21620
#
# Velocity S-wave (km/s) = 1.35176 3.10355 2.39366
# Velocity P-wave (km/s) = 4.81016 5.99563 5.43531
#
# Compressibility (1/GPa) = 0.02265651
#
# Stress axis : x y z
#
# Youngs Moduli (GPa) = 74.80601 73.11073 51.00516
#
# Poissons Ratio (x) = 0.20373 0.01090
# Poissons Ratio (y) = 0.20846 0.45891
# Poissons Ratio (z) = 0.01599 0.65779
#
# Static dielectric constant tensor:
#      x y z
#    x 1.787600 0.000000 -0.003050 
#    y 0.000000 1.809260 0.000000 
#    z -0.003050 0.000000 1.795290 
# 
# From -- ./inp_files/185325.got.cif
#   From: 2010.05.17/outbox.cif.g08.bks.cpg/sg15_93_cif.got.tgz:185325.got - 2010.06.03 18:47:42.
