data_PCOD9265204
_publ_section_title
;
Structure prediction by ZEFSAII (Michael W. Deem and Ramdas Pophale) SiO2 
 PCOD9265204
Probable space group: C 2/C
;
_chemical_formula_sum "Si O2"
_cell_formula_units_Z 64
_cell_length_a 19.674775
_cell_length_b 10.752774
_cell_length_c 16.959009
_cell_angle_alpha 90.000000
_cell_angle_beta 67.007428
_cell_angle_gamma 90.000000
_cell_volume 3302.788326
_symmetry_space_group_name_H-M "C 2/C"
_symmetry_group_IT_number 15
_symmetry_cell_setting 'monoclinic'
loop_
_space_group_symop_operation_xyz
x,y,z
-x,y,1/2-z
-x,-y,-z
x,-y,1/2+z
1/2+x,1/2+y,z
1/2-x,1/2+y,1/2-z
1/2-x,1/2-y,-z
1/2+x,1/2-y,1/2+z
loop_
_atom_site_type_symbol
_atom_site_label
_atom_site_fract_x
_atom_site_fract_y
_atom_site_fract_z
Si Si1 0.563030 0.040430 0.407952
Si Si2 0.305832 0.420591 0.953235
Si Si3 0.256322 0.811779 0.371296
Si Si4 0.121470 0.519737 0.215693
Si Si5 0.684808 0.092739 0.943285
Si Si6 0.077172 0.933171 0.189887
Si Si7 0.944677 0.321590 0.889710
Si Si8 0.802768 0.783906 0.276745
O O1 0.579115 0.978008 0.314985
O O2 0.524431 0.166193 0.394756
O O3 0.500000 0.000000 0.500000
O O4 0.639300 0.016141 0.418612
O O5 0.285504 0.311645 0.901097
O O6 0.242711 0.526208 0.974421
O O7 0.380654 0.480354 0.890126
O O8 0.303879 0.367594 0.041503
O O9 0.222465 0.787303 0.301605
O O10 0.322744 0.911010 0.333462
O O11 0.071211 0.565995 0.165205
O O12 0.166734 0.646565 0.216662
O O13 0.732971 0.176999 0.862752
O O14 0.622853 0.169248 0.018311
O O15 0.057834 0.804732 0.155843
O O16 0.134939 0.887949 0.230874
O O17 0.000000 0.991183 0.250000
#
# Coordination Sequence:
#
# PCOD9265204 Si02
#       8
#     8   8   8   8   8   8   8   8
#     4  10  20  34  55  88 127 151 194 257 299 358
#     4  10  23  39  61  84 126 158 203 250 301 371
#     4  11  22  39  61  89 115 162 202 248 309 356
#     4  11  20  36  60  85 118 157 207 246 304 365
#     4  10  19  36  58  96 118 155 199 261 300 348
#     4  10  22  41  62  89 122 160 199 250 304 364
#     4  10  20  34  61  89 123 157 201 248 310 353
#     4  10  22  35  65  88 121 152 206 261 299 356
#
# _framework density 19.377566999999999
#
# number of rings (size 3 to 8) (size 9 to 14) (size 15 to 20)
#    0.000    1.750    2.500    2.625    3.500    1.500 
#    0.000    1.875    0.000    0.000    0.000    0.000 
#    0.000    0.000    0.000    0.000    0.000    0.000 
#
# Total GULP energy -178395.443495 kJ/mol
# GULP energy per Si atom -5574.857609 kJ/mol
# Density = 1.933346 g / cm^3
# Si number density = 19.377567 Si / 1000 Ang^3
#
#
#
# Elastic Constant Matrix: (Units=GPa)
#
#
# Indices 1 2 3 4 5 6 
#
# 1 54.1094 -2.7297 22.4454 0.0000 -14.3918 0.0000
# 2 -2.7297 37.1654 9.8964 0.0000 -8.1657 0.0000
# 3 22.4454 9.8964 111.8971 0.0000 -10.7703 0.0000
# 4 0.0000 0.0000 0.0000 20.6096 0.0000 -2.7022
# 5 -14.3918 -8.1657 -10.7703 0.0000 38.8160 0.0000
# 6 0.0000 0.0000 0.0000 -2.7022 0.0000 -0.6070
#
#
#
# Elastic Compliance Matrix: (Units=1/GPa)
#
#
# Indices 1 2 3 4 5 6 
#
# 1 0.022612 0.004566 -0.004151 0.000000 0.008193 0.000000
# 2 0.004566 0.029565 -0.002845 0.000000 0.007123 0.000000
# 3 -0.004151 -0.002845 0.010085 0.000000 0.000661 0.000000
# 4 0.000000 0.000000 0.000000 0.030638 0.000000 -0.136390
# 5 0.008193 0.007123 0.000661 0.000000 0.030482 0.000000
# 6 0.000000 0.000000 0.000000 -0.136390 0.000000 -1.040250
#
#
# Mechanical properties :
#
#
# Convention : Reuss Voigt Hill
#
# Bulk Modulus (GPa) = 17.42099 29.15511 23.28805
# Shear Modulus (GPa) = -5.59990 23.33438 8.86724
#
# Velocity S-wave (km/s) = -1.70181 3.47392 2.14149
# Velocity P-wave (km/s) = 2.26898 5.58294 4.26131
#
# Compressibility (1/GPa) = 0.05740201
#
# Stress axis : x y z
#
# Youngs Moduli (GPa) = 44.22339 33.82405 99.16059
#
# Poissons Ratio (x) = -0.15445 0.41162
# Poissons Ratio (y) = -0.20193 0.28212
# Poissons Ratio (z) = 0.18358 0.09623
#
# Static dielectric constant tensor:
#      x y z
#    x 1.704930 0.000000 -0.017160 
#    y 0.000000 1.661660 0.000000 
#    z -0.017160 0.000000 1.707120 
# 
# From -- ./inp_files/214814.got.cif
#   From: 2010.05.17/outbox.cif.g08.bks.cpg/sg15_108_cif.got.tgz:214814.got - 2010.06.03 18:47:42.
