data_PCOD9265688
_publ_section_title
;
Structure prediction by ZEFSAII (Michael W. Deem and Ramdas Pophale) SiO2 
 PCOD9265688
Probable space group: C 2/C
;
_chemical_formula_sum "Si O2"
_cell_formula_units_Z 56
_cell_length_a 12.654865
_cell_length_b 27.072529
_cell_length_c 10.048017
_cell_angle_alpha 90.000000
_cell_angle_beta 131.420106
_cell_angle_gamma 90.000000
_cell_volume 2581.415259
_symmetry_space_group_name_H-M "C 2/C"
_symmetry_group_IT_number 15
_symmetry_cell_setting 'monoclinic'
loop_
_space_group_symop_operation_xyz
x,y,z
-x,y,1/2-z
-x,-y,-z
x,-y,1/2+z
1/2+x,1/2+y,z
1/2-x,1/2+y,1/2-z
1/2-x,1/2-y,-z
1/2+x,1/2-y,1/2+z
loop_
_atom_site_type_symbol
_atom_site_label
_atom_site_fract_x
_atom_site_fract_y
_atom_site_fract_z
Si Si1 0.766498 0.488874 0.849355
Si Si2 0.517045 0.246663 0.420951
Si Si3 0.244633 0.182048 0.196891
Si Si4 0.503788 0.934112 0.898142
Si Si5 0.303412 0.150243 0.940807
Si Si6 0.433400 0.578487 0.839038
Si Si7 0.617220 0.602075 0.248014
O O1 0.663283 0.530848 0.708248
O O2 0.682650 0.448175 0.862812
O O3 0.856328 0.455376 0.822184
O O4 0.888456 0.520047 0.021806
O O5 0.500000 0.258971 0.250000
O O6 0.367514 0.221618 0.330273
O O7 0.590914 0.292581 0.553908
O O8 0.634244 0.203733 0.536827
O O9 0.232303 0.142197 0.303150
O O10 0.278331 0.156087 0.081411
O O11 0.500000 0.912410 0.750000
O O12 0.583658 0.888435 0.031544
O O13 0.159834 0.127886 0.761853
O O14 0.500000 0.567645 0.750000
O O15 0.544434 0.586375 0.048141
O O16 0.500000 0.621790 0.250000
#
# Coordination Sequence:
#
# PCOD9265688 Si02
#       7
#     8   8   8   8   8   8   8
#     4  10  23  38  57  90 122 166 212 257 307 371
#     4  10  21  35  66  99 130 154 203 267 322 370
#     4  11  23  39  64  94 128 164 209 259 323 371
#     4  10  20  35  61  86 125 164 207 253 313 378
#     4  10  19  36  63  97 124 156 203 265 316 369
#     4  11  23  38  66  92 121 165 212 260 308 368
#     4  12  26  41  61  85 131 166 211 255 318 370
#
# _framework density 21.693525999999999
#
# number of rings (size 3 to 8) (size 9 to 14) (size 15 to 20)
#    0.000    1.429    1.429    5.571    8.000    0.000 
#    0.000    0.714    0.000    0.000    0.000    0.000 
#    0.000    0.000    0.000    0.000    0.000    0.000 
#
# Total GULP energy -156073.382275 kJ/mol
# GULP energy per Si atom -5574.049367 kJ/mol
# Density = 2.164415 g / cm^3
# Si number density = 21.693526 Si / 1000 Ang^3
#
#
#
# Elastic Constant Matrix: (Units=GPa)
#
#
# Indices 1 2 3 4 5 6 
#
# 1 68.2860 16.3193 25.6946 0.0000 17.1204 0.0000
# 2 16.3193 83.6330 29.3283 0.0000 14.2374 0.0000
# 3 25.6946 29.3283 38.3202 0.0000 20.1065 0.0000
# 4 0.0000 0.0000 0.0000 35.2350 0.0000 19.3311
# 5 17.1204 14.2374 20.1065 0.0000 23.7751 0.0000
# 6 0.0000 0.0000 0.0000 19.3311 0.0000 32.1543
#
#
#
# Elastic Compliance Matrix: (Units=1/GPa)
#
#
# Indices 1 2 3 4 5 6 
#
# 1 0.020038 0.000994 -0.011349 0.000000 -0.005426 0.000000
# 2 0.000994 0.016420 -0.013839 0.000000 0.001156 0.000000
# 3 -0.011349 -0.013839 0.064108 0.000000 -0.037756 0.000000
# 4 0.000000 0.000000 0.000000 0.042349 0.000000 -0.025460
# 5 -0.005426 0.001156 -0.037756 0.000000 0.077206 0.000000
# 6 0.000000 0.000000 0.000000 -0.025460 0.000000 0.046407
#
#
# Mechanical properties :
#
#
# Convention : Reuss Voigt Hill
#
# Bulk Modulus (GPa) = 19.16599 36.99151 28.07875
# Shear Modulus (GPa) = 15.04628 26.15934 20.60281
#
# Velocity S-wave (km/s) = 2.63645 3.47632 3.08510
# Velocity P-wave (km/s) = 4.25699 5.76211 5.06576
#
# Compressibility (1/GPa) = 0.05217574
#
# Stress axis : x y z
#
# Youngs Moduli (GPa) = 49.90593 60.90319 15.59872
#
# Poissons Ratio (x) = -0.06052 0.17703
# Poissons Ratio (y) = -0.04959 0.21587
# Poissons Ratio (z) = 0.56638 0.84285
#
# Static dielectric constant tensor:
#      x y z
#    x 1.812800 0.000000 0.057810 
#    y 0.000000 1.809780 0.000000 
#    z 0.057810 0.000000 1.803750 
# 
# From -- ./inp_files/92099.got.cif
#   From: 2010.05.17/outbox.cif.g08.bks.cpg/sg15_47_cif.got.tgz:92099.got - 2010.06.03 18:47:42.
