data_PCOD9265400
_publ_section_title
;
Structure prediction by ZEFSAII (Michael W. Deem and Ramdas Pophale) SiO2 
 PCOD9265400
Probable space group: C 2/C
;
_chemical_formula_sum "Si O2"
_cell_formula_units_Z 28
_cell_length_a 5.627115
_cell_length_b 29.776911
_cell_length_c 7.524433
_cell_angle_alpha 90.000000
_cell_angle_beta 119.099836
_cell_angle_gamma 90.000000
_cell_volume 1101.636050
_symmetry_space_group_name_H-M "C 2/C"
_symmetry_group_IT_number 15
_symmetry_cell_setting 'monoclinic'
loop_
_space_group_symop_operation_xyz
x,y,z
-x,y,1/2-z
-x,-y,-z
x,-y,1/2+z
1/2+x,1/2+y,z
1/2-x,1/2+y,1/2-z
1/2-x,1/2-y,-z
1/2+x,1/2-y,1/2+z
loop_
_atom_site_type_symbol
_atom_site_label
_atom_site_fract_x
_atom_site_fract_y
_atom_site_fract_z
Si Si1 0.434056 0.447579 0.982612
Si Si2 0.490449 0.190732 0.459346
Si Si3 0.062043 0.413998 0.513938
Si Si4 0.500000 0.747263 0.250000
O O1 0.249351 0.429764 0.750071
O O2 0.722662 0.422312 0.065138
O O3 0.221247 0.440330 0.065148
O O4 0.500000 0.500000 0.000000
O O5 0.500000 0.195924 0.250000
O O6 0.511984 0.138352 0.503730
O O7 0.653787 0.222003 0.657506
O O8 0.200252 0.210962 0.412600
#
# Coordination Sequence:
#
# PCOD9265400 Si02
#       4
#     8   8   8   4
#     4  10  19  36  60  89 120 167 222 265 334 395
#     4  11  21  42  66  93 137 170 224 272 340 394
#     4  10  21  37  63  90 126 174 214 276 332 395
#     4  10  24  38  66 102 124 180 224 270 334 410
#
# _framework density 25.416741999999999
#
# number of rings (size 3 to 8) (size 9 to 14) (size 15 to 20)
#    0.000    1.714    2.857    3.429    0.000    0.000 
#    0.000    8.571    0.000    0.000    0.000    0.000 
#    0.000    0.000    0.000    0.000    0.000    0.000 
#
# Total GULP energy -78075.275811 kJ/mol
# GULP energy per Si atom -5576.805415 kJ/mol
# Density = 2.535889 g / cm^3
# Si number density = 25.416742 Si / 1000 Ang^3
#
#
#
# Elastic Constant Matrix: (Units=GPa)
#
#
# Indices 1 2 3 4 5 6 
#
# 1 193.6421 48.3776 54.3229 0.0000 10.7084 0.0000
# 2 48.3776 196.4503 11.6573 0.0000 11.4659 0.0000
# 3 54.3229 11.6573 88.7169 0.0000 -43.0690 0.0000
# 4 0.0000 0.0000 0.0000 46.7419 0.0000 -11.4207
# 5 10.7084 11.4659 -43.0690 0.0000 57.5679 0.0000
# 6 0.0000 0.0000 0.0000 -11.4207 0.0000 33.8958
#
#
#
# Elastic Compliance Matrix: (Units=1/GPa)
#
#
# Indices 1 2 3 4 5 6 
#
# 1 0.008346 -0.001068 -0.008826 0.000000 -0.007943 0.000000
# 2 -0.001068 0.005487 -0.000787 0.000000 -0.001483 0.000000
# 3 -0.008826 -0.000787 0.027721 0.000000 0.022538 0.000000
# 4 0.000000 0.000000 0.000000 0.023313 0.000000 0.007855
# 5 -0.007943 -0.001483 0.022538 0.000000 0.036005 0.000000
# 6 0.000000 0.000000 0.000000 0.007855 0.000000 0.032149
#
#
# Mechanical properties :
#
#
# Convention : Reuss Voigt Hill
#
# Bulk Modulus (GPa) = 49.52554 78.61389 64.06971
# Shear Modulus (GPa) = 31.03376 51.93788 41.48582
#
# Velocity S-wave (km/s) = 3.49807 4.52536 4.04446
# Velocity P-wave (km/s) = 5.98690 7.63559 6.86095
#
# Compressibility (1/GPa) = 0.02019160
#
# Stress axis : x y z
#
# Youngs Moduli (GPa) = 119.81264 182.26301 36.07342
#
# Poissons Ratio (x) = 0.19465 0.31840
# Poissons Ratio (y) = 0.12796 0.02838
# Poissons Ratio (z) = 1.05753 0.14341
#
# Static dielectric constant tensor:
#      x y z
#    x 1.943980 0.000000 0.360330 
#    y 0.000000 1.850780 0.000000 
#    z 0.360330 0.000000 8.454300 
# 
# From -- ./inp_files/19747.got.cif
#   From: 2010.05.17/outbox.cif.g08.bks.cpg/sg15_10_cif.got.tgz:19747.got - 2010.06.03 18:47:42.
