data_PCOD9265416
_publ_section_title
;
Structure prediction by ZEFSAII (Michael W. Deem and Ramdas Pophale) SiO2 
 PCOD9265416
Probable space group: C 2/C
;
_chemical_formula_sum "Si O2"
_cell_formula_units_Z 48
_cell_length_a 9.354240
_cell_length_b 14.539260
_cell_length_c 15.022334
_cell_angle_alpha 90.000000
_cell_angle_beta 84.325656
_cell_angle_gamma 90.000000
_cell_volume 2033.082147
_symmetry_space_group_name_H-M "C 2/C"
_symmetry_group_IT_number 15
_symmetry_cell_setting 'monoclinic'
loop_
_space_group_symop_operation_xyz
x,y,z
-x,y,1/2-z
-x,-y,-z
x,-y,1/2+z
1/2+x,1/2+y,z
1/2-x,1/2+y,1/2-z
1/2-x,1/2-y,-z
1/2+x,1/2-y,1/2+z
loop_
_atom_site_type_symbol
_atom_site_label
_atom_site_fract_x
_atom_site_fract_y
_atom_site_fract_z
Si Si1 0.084871 0.248335 0.617792
Si Si2 0.231203 0.298412 0.233987
Si Si3 0.198093 0.884160 0.980493
Si Si4 0.797622 0.368534 0.633678
Si Si5 0.591840 0.064582 0.870614
Si Si6 0.257402 0.924012 0.434944
O O1 0.134965 0.205381 0.707010
O O2 0.076856 0.171148 0.541265
O O3 0.222943 0.312814 0.587959
O O4 0.947876 0.313215 0.625285
O O5 0.196890 0.196002 0.200165
O O6 0.115903 0.354307 0.298987
O O7 0.272327 0.355497 0.143572
O O8 0.166632 0.981754 0.938167
O O9 0.317767 0.907934 0.048050
O O10 0.836353 0.469782 0.667638
O O11 0.747698 0.380884 0.534531
O O12 0.426731 0.051085 0.907747
#
# Coordination Sequence:
#
# PCOD9265416 Si02
#       6
#     8   8   8   8   8   8
#     4  10  19  36  60  92 114 154 197 244 291 358
#     4  11  25  32  55  94 128 148 198 249 297 345
#     4   9  18  35  63  89 115 148 198 246 298 354
#     4  11  21  40  64  86 120 161 198 245 300 356
#     4  10  20  39  62  90 113 156 204 249 297 351
#     4  11  20  39  60  90 121 156 194 252 299 355
#
# _framework density 23.609475
#
# number of rings (size 3 to 8) (size 9 to 14) (size 15 to 20)
#    0.000    1.667    3.333    2.500    2.333    1.333 
#    0.000    0.833    0.000   14.000    0.000    0.000 
#    0.000    0.000    0.000    0.000    0.000    0.000 
#
# Total GULP energy -134180.443765 kJ/mol
# GULP energy per Si atom -5590.851824 kJ/mol
# Density = 2.355574 g / cm^3
# Si number density = 23.609475 Si / 1000 Ang^3
#
#
#
# Elastic Constant Matrix: (Units=GPa)
#
#
# Indices 1 2 3 4 5 6 
#
# 1 29.8913 12.2078 8.9370 0.0000 -1.1189 0.0000
# 2 12.2078 129.8621 37.8435 0.0000 -2.9232 0.0000
# 3 8.9370 37.8435 79.9899 0.0000 -1.2864 0.0000
# 4 0.0000 0.0000 0.0000 37.8365 0.0000 -13.6422
# 5 -1.1189 -2.9232 -1.2864 0.0000 27.7246 0.0000
# 6 0.0000 0.0000 0.0000 -13.6422 0.0000 30.7430
#
#
#
# Elastic Compliance Matrix: (Units=1/GPa)
#
#
# Indices 1 2 3 4 5 6 
#
# 1 0.035335 -0.002497 -0.002750 0.000000 0.001035 0.000000
# 2 -0.002497 0.009124 -0.004027 0.000000 0.000674 0.000000
# 3 -0.002750 -0.004027 0.014716 0.000000 0.000147 0.000000
# 4 0.000000 0.000000 0.000000 0.031464 0.000000 0.013962
# 5 0.001035 0.000674 0.000147 0.000000 0.036189 0.000000
# 6 0.000000 0.000000 0.000000 0.013962 0.000000 0.038723
#
#
# Mechanical properties :
#
#
# Convention : Reuss Voigt Hill
#
# Bulk Modulus (GPa) = 24.61352 39.74666 32.18009
# Shear Modulus (GPa) = 25.29840 31.31114 28.30477
#
# Velocity S-wave (km/s) = 3.27698 3.64567 3.46623
# Velocity P-wave (km/s) = 4.97655 5.88156 5.44788
#
# Compressibility (1/GPa) = 0.04062809
#
# Stress axis : x y z
#
# Youngs Moduli (GPa) = 28.30028 109.60316 67.95223
#
# Poissons Ratio (x) = 0.27369 0.18686
# Poissons Ratio (y) = 0.07067 0.27362
# Poissons Ratio (z) = 0.07782 0.44134
#
# Static dielectric constant tensor:
#      x y z
#    x 1.925630 0.000000 -0.043140 
#    y 0.000000 1.956680 0.000000 
#    z -0.043140 0.000000 1.919790 
# 
# From -- ./inp_files/143519.got.cif
#   From: 2010.05.17/outbox.cif.g08.bks.cpg/sg15_72_cif.got.tgz:143519.got - 2010.06.03 18:47:42.
