data_PCOD9265706
_publ_section_title
;
Structure prediction by ZEFSAII (Michael W. Deem and Ramdas Pophale) SiO2 
 PCOD9265706
Probable space group: C 2/C
;
_chemical_formula_sum "Si O2"
_cell_formula_units_Z 56
_cell_length_a 21.116737
_cell_length_b 10.672746
_cell_length_c 14.572459
_cell_angle_alpha 90.000000
_cell_angle_beta 68.923255
_cell_angle_gamma 90.000000
_cell_volume 3064.529577
_symmetry_space_group_name_H-M "C 2/C"
_symmetry_group_IT_number 15
_symmetry_cell_setting 'monoclinic'
loop_
_space_group_symop_operation_xyz
x,y,z
-x,y,1/2-z
-x,-y,-z
x,-y,1/2+z
1/2+x,1/2+y,z
1/2-x,1/2+y,1/2-z
1/2-x,1/2-y,-z
1/2+x,1/2-y,1/2+z
loop_
_atom_site_type_symbol
_atom_site_label
_atom_site_fract_x
_atom_site_fract_y
_atom_site_fract_z
Si Si1 0.526592 0.013679 0.634604
Si Si2 0.203045 0.679190 0.782475
Si Si3 0.313970 0.535039 0.246284
Si Si4 0.681444 0.416621 0.540791
Si Si5 0.432122 0.839800 0.049541
Si Si6 0.423309 0.544617 0.042904
Si Si7 0.328293 0.866321 0.411069
O O1 0.500000 0.980599 0.750000
O O2 0.476989 0.115625 0.613098
O O3 0.602417 0.065881 0.602704
O O4 0.534196 0.903163 0.556648
O O5 0.266531 0.585830 0.756072
O O6 0.214643 0.831104 0.780339
O O7 0.146382 0.631205 0.884130
O O8 0.173354 0.661763 0.696057
O O9 0.324322 0.552622 0.349038
O O10 0.384602 0.513404 0.157569
O O11 0.625648 0.487944 0.509978
O O12 0.672899 0.266362 0.534956
O O13 0.759295 0.440835 0.470238
O O14 0.429292 0.693173 0.035244
O O15 0.500000 0.500000 0.000000
#
# Coordination Sequence:
#
# PCOD9265706 Si02
#       7
#     8   8   8   8   8   8   8
#     4  11  21  39  61  88 121 161 201 245 304 357
#     4  10  19  40  61  90 123 155 209 251 301 365
#     4  10  22  39  62  91 121 162 203 254 307 365
#     4  10  21  38  62  89 119 151 203 248 301 363
#     4  10  23  40  60  88 126 158 202 252 302 368
#     4  11  23  43  61  87 125 158 201 255 313 367
#     4  10  19  36  64  88 114 157 201 243 297 369
#
# _framework density 18.273603999999999
#
# number of rings (size 3 to 8) (size 9 to 14) (size 15 to 20)
#    0.000    1.714    2.857    1.714    0.000    0.571 
#   10.286    2.143    0.000    0.000    0.000    0.000 
#    0.000    0.000    0.000    0.000    0.000    0.000 
#
# Total GULP energy -156098.130540 kJ/mol
# GULP energy per Si atom -5574.933234 kJ/mol
# Density = 1.823201 g / cm^3
# Si number density = 18.273604 Si / 1000 Ang^3
#
#
#
# Elastic Constant Matrix: (Units=GPa)
#
#
# Indices 1 2 3 4 5 6 
#
# 1 333.9808 95.7425 13.2666 0.0000 104.2884 0.0000
# 2 95.7425 69.8968 38.1366 0.0000 8.9293 0.0000
# 3 13.2666 38.1366 127.9738 0.0000 -36.2048 0.0000
# 4 0.0000 0.0000 0.0000 19.9184 0.0000 -4.6833
# 5 104.2884 8.9293 -36.2048 0.0000 112.8874 0.0000
# 6 0.0000 0.0000 0.0000 -4.6833 0.0000 25.7383
#
#
#
# Elastic Compliance Matrix: (Units=1/GPa)
#
#
# Indices 1 2 3 4 5 6 
#
# 1 0.007892 -0.010240 0.000440 0.000000 -0.006340 0.000000
# 2 -0.010240 0.031554 -0.007007 0.000000 0.004717 0.000000
# 3 0.000440 -0.007007 0.010886 0.000000 0.003639 0.000000
# 4 0.000000 0.000000 0.000000 0.052449 0.000000 0.009543
# 5 -0.006340 0.004717 0.003639 0.000000 0.015509 0.000000
# 6 0.000000 0.000000 0.000000 0.009543 0.000000 0.040589
#
#
# Mechanical properties :
#
#
# Convention : Reuss Voigt Hill
#
# Bulk Modulus (GPa) = 59.81812 91.79364 75.80588
# Shear Modulus (GPa) = 25.24402 57.35586 41.29994
#
# Velocity S-wave (km/s) = 3.72082 5.60851 4.75920
# Velocity P-wave (km/s) = 7.15996 9.60638 8.47194
#
# Compressibility (1/GPa) = 0.01671734
#
# Stress axis : x y z
#
# Youngs Moduli (GPa) = 126.71238 31.69151 91.85929
#
# Poissons Ratio (x) = 0.32453 -0.04041
# Poissons Ratio (y) = 1.29756 0.64368
# Poissons Ratio (z) = -0.05575 0.22207
#
# Static dielectric constant tensor:
#      x y z
#    x 1.619120 0.000000 -0.027850 
#    y 0.000000 1.640050 0.000000 
#    z -0.027850 0.000000 1.660470 
# 
# From -- ./inp_files/160834.got.cif
#   From: 2010.05.17/outbox.cif.g08.bks.cpg/sg15_81_cif.got.tgz:160834.got - 2010.06.03 18:47:42.
