data_PCOD9265760
_publ_section_title
;
Structure prediction by ZEFSAII (Michael W. Deem and Ramdas Pophale) SiO2 
 PCOD9265760
Probable space group: C 2/C
;
_chemical_formula_sum "Si O2"
_cell_formula_units_Z 60
_cell_length_a 14.802514
_cell_length_b 19.758035
_cell_length_c 9.612187
_cell_angle_alpha 90.000000
_cell_angle_beta 111.421364
_cell_angle_gamma 90.000000
_cell_volume 2617.059896
_symmetry_space_group_name_H-M "C 2/C"
_symmetry_group_IT_number 15
_symmetry_cell_setting 'monoclinic'
loop_
_space_group_symop_operation_xyz
x,y,z
-x,y,1/2-z
-x,-y,-z
x,-y,1/2+z
1/2+x,1/2+y,z
1/2-x,1/2+y,1/2-z
1/2-x,1/2-y,-z
1/2+x,1/2-y,1/2+z
loop_
_atom_site_type_symbol
_atom_site_label
_atom_site_fract_x
_atom_site_fract_y
_atom_site_fract_z
Si Si1 0.814568 0.584975 0.776212
Si Si2 0.834448 0.290244 0.464655
Si Si3 0.458779 0.761682 0.953376
Si Si4 0.000000 0.651133 0.750000
Si Si5 0.400119 0.501145 0.671234
Si Si6 0.240768 0.808267 0.787423
Si Si7 0.633411 0.365832 0.997152
Si Si8 0.220930 0.953130 0.645741
O O1 0.825287 0.629869 0.923742
O O2 0.713774 0.611295 0.653262
O O3 0.805494 0.503633 0.749530
O O4 0.906939 0.606700 0.737555
O O5 0.750000 0.250000 0.500000
O O6 0.824509 0.251659 0.310623
O O7 0.943272 0.275373 0.578066
O O8 0.474004 0.803621 0.103355
O O9 0.445860 0.683181 0.982706
O O10 0.351902 0.784171 0.845646
O O11 0.500000 0.540551 0.750000
O O12 0.415921 0.431385 0.596604
O O13 0.364779 0.478300 0.801593
O O14 0.316218 0.535844 0.532257
O O15 0.196191 0.828349 0.911726
O O16 0.237651 0.875561 0.691923
#
# Coordination Sequence:
#
# PCOD9265760 Si02
#       8
#     8   8   8   4   8   8   8   8
#     4  10  20  42  61  92 127 164 210 273 326 380
#     4  11  26  41  60  91 136 173 217 262 328 402
#     4  11  21  38  66  97 124 167 213 277 330 379
#     4  10  20  34  66  94 122 156 218 270 330 380
#     4  10  22  39  63  95 134 170 222 258 332 396
#     4  11  22  41  66  95 131 164 219 272 326 392
#     4  10  19  36  65  95 122 155 210 278 324 372
#     4  10  24  40  66  94 134 176 213 277 325 395
#
# _framework density 22.926490999999999
#
# number of rings (size 3 to 8) (size 9 to 14) (size 15 to 20)
#    0.000    1.600    2.667    2.400    6.533    0.533 
#    0.000    4.000    0.000    0.000    0.000    0.000 
#    0.000    0.000    0.000    0.000    0.000    0.000 
#
# Total GULP energy -167554.621847 kJ/mol
# GULP energy per Si atom -5585.154062 kJ/mol
# Density = 2.287431 g / cm^3
# Si number density = 22.926491 Si / 1000 Ang^3
#
#
#
# Elastic Constant Matrix: (Units=GPa)
#
#
# Indices 1 2 3 4 5 6 
#
# 1 105.7006 25.4953 24.7559 0.0000 20.2148 0.0000
# 2 25.4953 100.6449 4.5930 0.0000 14.4644 0.0000
# 3 24.7559 4.5930 50.7465 0.0000 18.1776 0.0000
# 4 0.0000 0.0000 0.0000 5.8989 0.0000 -7.3189
# 5 20.2148 14.4644 18.1776 0.0000 32.2700 0.0000
# 6 0.0000 0.0000 0.0000 -7.3189 0.0000 28.0905
#
#
#
# Elastic Compliance Matrix: (Units=1/GPa)
#
#
# Indices 1 2 3 4 5 6 
#
# 1 0.011720 -0.002199 -0.004061 0.000000 -0.004069 0.000000
# 2 -0.002199 0.011068 0.001697 0.000000 -0.004539 0.000000
# 3 -0.004061 0.001697 0.026176 0.000000 -0.012962 0.000000
# 4 0.000000 0.000000 0.000000 0.250500 0.000000 0.065267
# 5 -0.004069 -0.004539 -0.012962 0.000000 0.042873 0.000000
# 6 0.000000 0.000000 0.000000 0.065267 0.000000 0.052604
#
#
# Mechanical properties :
#
#
# Convention : Reuss Voigt Hill
#
# Bulk Modulus (GPa) = 25.10138 40.75337 32.92738
# Shear Modulus (GPa) = 11.98041 26.73508 19.35775
#
# Velocity S-wave (km/s) = 2.28843 3.41856 2.90890
# Velocity P-wave (km/s) = 4.23733 5.77895 5.06711
#
# Compressibility (1/GPa) = 0.03983845
#
# Stress axis : x y z
#
# Youngs Moduli (GPa) = 85.32177 90.35139 38.20254
#
# Poissons Ratio (x) = 0.19867 0.15515
# Poissons Ratio (y) = 0.18761 -0.06483
# Poissons Ratio (z) = 0.34650 -0.15333
#
# Static dielectric constant tensor:
#      x y z
#    x 1.875880 0.000000 -0.030810 
#    y 0.000000 1.859650 0.000000 
#    z -0.030810 0.000000 1.874510 
# 
# From -- ./inp_files/99837.got.cif
#   From: 2010.05.17/outbox.cif.g08.bks.cpg/sg15_50_cif.got.tgz:99837.got - 2010.06.03 18:47:42.
