data_PCOD9265274
_publ_section_title
;
Structure prediction by ZEFSAII (Michael W. Deem and Ramdas Pophale) SiO2 
 PCOD9265274
Probable space group: C 2/C
;
_chemical_formula_sum "Si O2"
_cell_formula_units_Z 60
_cell_length_a 12.732885
_cell_length_b 15.486544
_cell_length_c 15.247948
_cell_angle_alpha 90.000000
_cell_angle_beta 91.582286
_cell_angle_gamma 90.000000
_cell_volume 3005.571760
_symmetry_space_group_name_H-M "C 2/C"
_symmetry_group_IT_number 15
_symmetry_cell_setting 'monoclinic'
loop_
_space_group_symop_operation_xyz
x,y,z
-x,y,1/2-z
-x,-y,-z
x,-y,1/2+z
1/2+x,1/2+y,z
1/2-x,1/2+y,1/2-z
1/2-x,1/2-y,-z
1/2+x,1/2-y,1/2+z
loop_
_atom_site_type_symbol
_atom_site_label
_atom_site_fract_x
_atom_site_fract_y
_atom_site_fract_z
Si Si1 0.500000 0.530115 0.250000
Si Si2 0.029908 0.882132 0.568544
Si Si3 0.614411 0.759345 0.791453
Si Si4 0.131090 0.720269 0.497312
Si Si5 0.830442 0.956451 0.470998
Si Si6 0.378360 0.953850 0.723185
Si Si7 0.302341 0.417576 0.263749
Si Si8 0.881408 0.472498 0.513729
O O1 0.473356 0.589059 0.331505
O O2 0.401685 0.468711 0.226023
O O3 0.064167 0.784965 0.554000
O O4 0.917232 0.900060 0.522273
O O5 0.117166 0.947456 0.529416
O O6 0.500000 0.738447 0.750000
O O7 0.597367 0.769958 0.895080
O O8 0.649198 0.853743 0.756420
O O9 0.691393 0.680570 0.769473
O O10 0.250000 0.750000 0.500000
O O11 0.128482 0.621969 0.527290
O O12 0.819203 0.922980 0.370250
O O13 0.715662 0.965087 0.512328
O O14 0.500000 0.967114 0.750000
O O15 0.367429 0.961485 0.618060
O O16 0.301085 0.026298 0.759650
O O17 0.000000 0.500000 0.500000
#
# Coordination Sequence:
#
# PCOD9265274 Si02
#       8
#     4   8   8   8   8   8   8   8
#     4  10  22  32  56  88 120 150 186 250 304 340
#     4  10  20  36  58  88 120 147 197 246 298 347
#     4  10  20  36  61  89 113 154 206 237 285 357
#     4  11  22  37  62  90 115 156 205 244 290 356
#     4   9  19  35  60  88 116 153 194 246 293 351
#     4   9  21  38  57  84 119 155 193 242 286 349
#     4  10  19  36  59  87 121 151 198 240 300 346
#     4  10  21  39  60  83 119 156 197 241 295 357
#
# _framework density 19.962924999999998
#
# number of rings (size 3 to 8) (size 9 to 14) (size 15 to 20)
#    0.000    2.133    2.000    0.800    5.600    2.133 
#    0.000    3.333    2.933    0.000    0.000    0.000 
#    0.000    0.000    0.000    0.000    0.000    0.000 
#
# Total GULP energy -167475.289264 kJ/mol
# GULP energy per Si atom -5582.509642 kJ/mol
# Density = 1.991749 g / cm^3
# Si number density = 19.962925 Si / 1000 Ang^3
#
#
#
# Elastic Constant Matrix: (Units=GPa)
#
#
# Indices 1 2 3 4 5 6 
#
# 1 121.0398 53.4187 -0.1214 0.0000 -10.5056 0.0000
# 2 53.4187 104.7112 3.2678 0.0000 -16.5829 0.0000
# 3 -0.1214 3.2678 21.2277 0.0000 1.8003 0.0000
# 4 0.0000 0.0000 0.0000 8.5832 0.0000 5.2111
# 5 -10.5056 -16.5829 1.8003 0.0000 24.1656 0.0000
# 6 0.0000 0.0000 0.0000 5.2111 0.0000 24.3813
#
#
#
# Elastic Compliance Matrix: (Units=1/GPa)
#
#
# Indices 1 2 3 4 5 6 
#
# 1 0.010698 -0.005335 0.000804 0.000000 0.000930 0.000000
# 2 -0.005335 0.013487 -0.002712 0.000000 0.007138 0.000000
# 3 0.000804 -0.002712 0.047962 0.000000 -0.005085 0.000000
# 4 0.000000 0.000000 0.000000 0.133880 0.000000 -0.028615
# 5 0.000930 0.007138 -0.005085 0.000000 0.047062 0.000000
# 6 0.000000 0.000000 0.000000 -0.028615 0.000000 0.047131
#
#
# Mechanical properties :
#
#
# Convention : Reuss Voigt Hill
#
# Bulk Modulus (GPa) = 17.34338 40.01212 28.67775
# Shear Modulus (GPa) = 14.97334 24.12025 19.54679
#
# Velocity S-wave (km/s) = 2.74169 3.47976 3.13254
# Velocity P-wave (km/s) = 4.32772 6.01928 5.24218
#
# Compressibility (1/GPa) = 0.05765890
#
# Stress axis : x y z
#
# Youngs Moduli (GPa) = 93.47595 74.14562 20.85000
#
# Poissons Ratio (x) = 0.39560 -0.01676
# Poissons Ratio (y) = 0.49874 0.05655
# Poissons Ratio (z) = -0.07513 0.20109
#
# Static dielectric constant tensor:
#      x y z
#    x 1.715860 0.000000 0.018890 
#    y 0.000000 1.441430 0.000000 
#    z 0.018890 0.000000 1.711090 
# 
# From -- ./inp_files/197864.got.cif
#   From: 2010.05.17/outbox.cif.g08.bks.cpg/sg15_99_cif.got.tgz:197864.got - 2010.06.03 18:47:42.
