data_PCOD9265543
_publ_section_title
;
Structure prediction by ZEFSAII (Michael W. Deem and Ramdas Pophale) SiO2 
 PCOD9265543
Probable space group: C 2/C
;
_chemical_formula_sum "Si O2"
_cell_formula_units_Z 40
_cell_length_a 12.818401
_cell_length_b 7.081731
_cell_length_c 15.862422
_cell_angle_alpha 90.000000
_cell_angle_beta 78.424306
_cell_angle_gamma 90.000000
_cell_volume 1410.647035
_symmetry_space_group_name_H-M "C 2/C"
_symmetry_group_IT_number 15
_symmetry_cell_setting 'monoclinic'
loop_
_space_group_symop_operation_xyz
x,y,z
-x,y,1/2-z
-x,-y,-z
x,-y,1/2+z
1/2+x,1/2+y,z
1/2-x,1/2+y,1/2-z
1/2-x,1/2-y,-z
1/2+x,1/2-y,1/2+z
loop_
_atom_site_type_symbol
_atom_site_label
_atom_site_fract_x
_atom_site_fract_y
_atom_site_fract_z
Si Si1 0.396509 0.124013 0.915048
Si Si2 0.711373 0.504536 0.323535
Si Si3 0.980512 0.720902 0.109705
Si Si4 0.399259 0.474912 0.819581
Si Si5 0.846904 0.320081 0.043948
O O1 0.318579 0.055055 0.852144
O O2 0.506064 0.005141 0.880802
O O3 0.391915 0.345699 0.902431
O O4 0.353305 0.040243 0.011312
O O5 0.623966 0.342726 0.359419
O O6 0.702518 0.525348 0.224244
O O7 0.674863 0.704383 0.368397
O O8 0.065313 0.817016 0.160265
O O9 0.040193 0.753656 0.011164
O O10 0.500000 0.396813 0.750000
O O11 0.750000 0.250000 0.000000
#
# Coordination Sequence:
#
# PCOD9265543 Si02
#       5
#     8   8   8   8   8
#     4   9  21  37  59  83 118 149 199 237 298 353
#     4  10  19  36  62  85 110 159 194 240 296 352
#     4   9  20  38  60  77 123 151 188 244 301 339
#     4  10  22  38  56  84 115 145 197 241 284 360
#     4   8  17  36  60  80 115 154 193 237 293 354
#
# _framework density 28.355782999999999
#
# number of rings (size 3 to 8) (size 9 to 14) (size 15 to 20)
#    1.200    1.600    0.000    0.600    2.800    2.400 
#    0.000    8.000    4.400    0.000    0.000    0.000 
#    0.000    0.000    0.000    0.000    0.000    0.000 
#
# Total GULP energy -111802.747064 kJ/mol
# GULP energy per Si atom -5590.137353 kJ/mol
# Density = 2.829124 g / cm^3
# Si number density = 28.355783 Si / 1000 Ang^3
#
#
#
# Elastic Constant Matrix: (Units=GPa)
#
#
# Indices 1 2 3 4 5 6 
#
# 1 107.9203 18.4774 7.5751 0.0000 9.0254 0.0000
# 2 18.4774 150.8046 41.3852 0.0000 -11.7013 0.0000
# 3 7.5751 41.3852 78.8727 0.0000 28.9808 0.0000
# 4 0.0000 0.0000 0.0000 54.1733 0.0000 -9.8869
# 5 9.0254 -11.7013 28.9808 0.0000 50.6209 0.0000
# 6 0.0000 0.0000 0.0000 -9.8869 0.0000 47.6729
#
#
#
# Elastic Compliance Matrix: (Units=1/GPa)
#
#
# Indices 1 2 3 4 5 6 
#
# 1 0.009703 -0.001635 0.000887 0.000000 -0.002616 0.000000
# 2 -0.001635 0.009287 -0.007107 0.000000 0.006507 0.000000
# 3 0.000887 -0.007107 0.021509 0.000000 -0.014115 0.000000
# 4 0.000000 0.000000 0.000000 0.019185 0.000000 0.003979
# 5 -0.002616 0.006507 -0.014115 0.000000 0.029806 0.000000
# 6 0.000000 0.000000 0.000000 0.003979 0.000000 0.021801
#
#
# Mechanical properties :
#
#
# Convention : Reuss Voigt Hill
#
# Bulk Modulus (GPa) = 40.34063 52.49700 46.41882
# Shear Modulus (GPa) = 36.96519 48.50408 42.73463
#
# Velocity S-wave (km/s) = 3.61449 4.14037 3.88633
# Velocity P-wave (km/s) = 5.62822 6.43512 6.04515
#
# Compressibility (1/GPa) = 0.02478891
#
# Stress axis : x y z
#
# Youngs Moduli (GPa) = 103.06541 107.68225 46.49310
#
# Poissons Ratio (x) = 0.17610 -0.04126
# Poissons Ratio (y) = 0.16855 0.33040
# Poissons Ratio (z) = -0.09146 0.76525
#
# Static dielectric constant tensor:
#      x y z
#    x 2.297730 0.000000 0.079560 
#    y 0.000000 2.150470 0.000000 
#    z 0.079560 0.000000 2.211720 
# 
# From -- ./inp_files/202256.got.cif
#   From: 2010.05.17/outbox.cif.g08.bks.cpg/sg15_102_cif.got.tgz:202256.got - 2010.06.03 18:47:42.
