data_PCOD9265537
_publ_section_title
;
Structure prediction by ZEFSAII (Michael W. Deem and Ramdas Pophale) SiO2 
 PCOD9265537
Probable space group: C 2/C
;
_chemical_formula_sum "Si O2"
_cell_formula_units_Z 56
_cell_length_a 13.985987
_cell_length_b 12.634222
_cell_length_c 24.397353
_cell_angle_alpha 90.000000
_cell_angle_beta 33.964818
_cell_angle_gamma 90.000000
_cell_volume 2408.520579
_symmetry_space_group_name_H-M "C 2/C"
_symmetry_group_IT_number 15
_symmetry_cell_setting 'monoclinic'
loop_
_space_group_symop_operation_xyz
x,y,z
-x,y,1/2-z
-x,-y,-z
x,-y,1/2+z
1/2+x,1/2+y,z
1/2-x,1/2+y,1/2-z
1/2-x,1/2-y,-z
1/2+x,1/2-y,1/2+z
loop_
_atom_site_type_symbol
_atom_site_label
_atom_site_fract_x
_atom_site_fract_y
_atom_site_fract_z
Si Si1 0.732145 0.140186 0.267574
Si Si2 0.070789 0.198719 0.153988
Si Si3 0.310898 0.446960 0.311001
Si Si4 0.963122 0.836467 0.139569
Si Si5 0.234088 0.475118 0.460062
Si Si6 0.118405 0.425706 0.119308
Si Si7 0.249639 0.979876 0.334902
O O1 0.567718 0.213270 0.356291
O O2 0.905803 0.205763 0.193635
O O3 0.757358 0.049346 0.301582
O O4 0.741879 0.087910 0.203191
O O5 0.164489 0.087439 0.098228
O O6 0.179858 0.304151 0.090482
O O7 0.000000 0.200695 0.250000
O O8 0.500000 0.453972 0.250000
O O9 0.338803 0.359497 0.251208
O O10 0.186459 0.434946 0.422100
O O11 0.897616 0.906529 0.119911
O O12 0.142934 0.885417 0.072466
O O13 0.107334 0.513462 0.567355
O O14 0.239012 0.487029 0.105235
O O15 0.926996 0.423946 0.233434
#
# Coordination Sequence:
#
# PCOD9265537 Si02
#       7
#     8   8   8   8   8   8   8
#     4  11  18  35  64  84 110 152 202 227 278 352
#     4  12  17  36  65  87 112 147 197 235 288 344
#     4   9  17  35  59  84 110 146 192 238 281 340
#     4  10  19  36  62  83 114 152 191 238 289 339
#     4  11  21  37  57  91 116 148 191 243 285 340
#     4  11  23  37  57  83 124 153 187 235 296 337
#     4  10  21  39  57  83 114 162 190 233 282 356
#
# _framework density 23.250786999999999
#
# number of rings (size 3 to 8) (size 9 to 14) (size 15 to 20)
#    0.000    1.429    8.571    0.429    0.000    0.571 
#    7.714    3.571    0.000    0.000    0.000    0.000 
#    0.000    0.000    0.000    0.000    0.000    0.000 
#
# Total GULP energy -156247.663132 kJ/mol
# GULP energy per Si atom -5580.273683 kJ/mol
# Density = 2.319787 g / cm^3
# Si number density = 23.250787 Si / 1000 Ang^3
#
#
#
# Elastic Constant Matrix: (Units=GPa)
#
#
# Indices 1 2 3 4 5 6 
#
# 1 63.2673 0.1745 11.5748 0.0000 5.2115 0.0000
# 2 0.1745 62.3902 -3.7613 -0.0001 -11.1357 0.0000
# 3 11.5748 -3.7613 39.6073 -0.0003 13.0207 0.0001
# 4 0.0000 -0.0001 -0.0003 16.7247 0.0001 0.4001
# 5 5.2115 -11.1357 13.0207 0.0001 19.6602 0.0000
# 6 0.0000 0.0000 0.0001 0.4001 0.0000 20.0925
#
#
#
# Elastic Compliance Matrix: (Units=1/GPa)
#
#
# Indices 1 2 3 4 5 6 
#
# 1 0.016759 -0.000656 -0.004317 0.000000 -0.001955 0.000000
# 2 -0.000656 0.017991 -0.001926 0.000000 0.011640 0.000000
# 3 -0.004317 -0.001926 0.033631 0.000001 -0.022220 0.000000
# 4 0.000000 0.000000 0.000001 0.059820 -0.000001 -0.001191
# 5 -0.001955 0.011640 -0.022220 -0.000001 0.072692 0.000000
# 6 0.000000 0.000000 0.000000 -0.001191 0.000000 0.049794
#
#
# Mechanical properties :
#
#
# Convention : Reuss Voigt Hill
#
# Bulk Modulus (GPa) = 18.32100 20.13788 19.22944
# Shear Modulus (GPa) = 17.68780 21.78060 19.73420
#
# Velocity S-wave (km/s) = 2.76114 3.06399 2.91650
# Velocity P-wave (km/s) = 4.24995 4.60405 4.43054
#
# Compressibility (1/GPa) = 0.05458217
#
# Stress axis : x y z
#
# Youngs Moduli (GPa) = 59.67079 55.58191 29.73406
#
# Poissons Ratio (x) = 0.03646 0.12837
# Poissons Ratio (y) = 0.03915 0.05728
# Poissons Ratio (z) = 0.25761 0.10707
#
# Static dielectric constant tensor:
#      x y z
#    x 1.905310 0.000000 -0.014320 
#    y 0.000000 1.888650 0.000000 
#    z -0.014320 0.000000 1.982630 
# 
# From -- ./inp_files/274154.got.cif
#   From: 2010.05.17/outbox.cif.g08.bks.cpg/sg15_138_cif.got.tgz:274154.got - 2010.06.03 18:47:42.
