data_PCOD9265932
_publ_section_title
;
Structure prediction by ZEFSAII (Michael W. Deem and Ramdas Pophale) SiO2 
 PCOD9265932
Probable space group: C 2/C
;
_chemical_formula_sum "Si O2"
_cell_formula_units_Z 60
_cell_length_a 6.744220
_cell_length_b 29.090216
_cell_length_c 17.318088
_cell_angle_alpha 90.000000
_cell_angle_beta 76.632400
_cell_angle_gamma 90.000000
_cell_volume 3305.596528
_symmetry_space_group_name_H-M "C 2/C"
_symmetry_group_IT_number 15
_symmetry_cell_setting 'monoclinic'
loop_
_space_group_symop_operation_xyz
x,y,z
-x,y,1/2-z
-x,-y,-z
x,-y,1/2+z
1/2+x,1/2+y,z
1/2-x,1/2+y,1/2-z
1/2-x,1/2-y,-z
1/2+x,1/2-y,1/2+z
loop_
_atom_site_type_symbol
_atom_site_label
_atom_site_fract_x
_atom_site_fract_y
_atom_site_fract_z
Si Si1 0.698289 0.979153 0.386145
Si Si2 0.315791 0.219036 0.565979
Si Si3 0.800697 0.666015 0.025571
Si Si4 0.113759 0.819368 0.374533
Si Si5 0.897821 0.234063 0.336996
Si Si6 0.000000 0.477014 0.250000
Si Si7 0.387959 0.425237 0.146439
Si Si8 0.797831 0.438190 0.500250
O O1 0.590355 0.000042 0.319111
O O2 0.522340 0.949239 0.444610
O O3 0.895971 0.947850 0.350456
O O4 0.756227 0.020749 0.437360
O O5 0.250000 0.250000 0.500000
O O6 0.475179 0.181381 0.521257
O O7 0.429944 0.249212 0.619135
O O8 0.115427 0.196289 0.617791
O O9 0.733667 0.696933 0.103816
O O10 0.794993 0.611737 0.039673
O O11 0.661186 0.677473 0.962783
O O12 0.264077 0.779680 0.330767
O O13 0.132804 0.870600 0.340243
O O14 0.000000 0.216094 0.250000
O O15 0.193401 0.447696 0.204639
O O16 0.355319 0.435236 0.058226
#
# Coordination Sequence:
#
# PCOD9265932 Si02
#       8
#     8   8   8   8   8   4   8   8
#     4  10  19  38  57  84 113 146 180 233 280 332
#     4  11  18  36  61  78 103 151 191 224 271 333
#     4  10  19  37  58  82 109 145 187 234 274 326
#     4  10  20  36  58  81 106 148 189 225 277 332
#     4  11  23  36  52  80 121 146 180 235 283 326
#     4  10  22  36  54  80 124 146 170 222 290 336
#     4  10  20  35  58  85 108 143 186 230 279 332
#     4   9  20  35  62  83 106 140 194 236 270 326
#
# _framework density 18.151036999999999
#
# number of rings (size 3 to 8) (size 9 to 14) (size 15 to 20)
#    0.000    1.867    2.667    2.400    0.933    1.600 
#    2.400    1.333    2.933    0.000    0.000    0.000 
#    0.000    0.000    0.000    0.000    0.000    0.000 
#
# Total GULP energy -167345.361911 kJ/mol
# GULP energy per Si atom -5578.178730 kJ/mol
# Density = 1.810972 g / cm^3
# Si number density = 18.151037 Si / 1000 Ang^3
#
#
#
# Elastic Constant Matrix: (Units=GPa)
#
#
# Indices 1 2 3 4 5 6 
#
# 1 85.7795 10.0425 6.6319 0.0000 5.1187 0.0000
# 2 10.0425 55.3569 3.0267 0.0000 10.4568 0.0000
# 3 6.6319 3.0267 44.3608 0.0000 1.2746 0.0000
# 4 0.0000 0.0000 0.0000 2.4176 0.0000 4.1133
# 5 5.1187 10.4568 1.2746 0.0000 20.2064 0.0000
# 6 0.0000 0.0000 0.0000 4.1133 0.0000 15.9229
#
#
#
# Elastic Compliance Matrix: (Units=1/GPa)
#
#
# Indices 1 2 3 4 5 6 
#
# 1 0.012109 -0.001715 -0.001634 0.000000 -0.002077 0.000000
# 2 -0.001715 0.020316 -0.000842 0.000000 -0.010026 0.000000
# 3 -0.001634 -0.000842 0.022861 0.000000 -0.000593 0.000000
# 4 0.000000 0.000000 0.000000 0.737984 0.000000 -0.190640
# 5 -0.002077 -0.010026 -0.000593 0.000000 0.055241 0.000000
# 6 0.000000 0.000000 0.000000 -0.190640 0.000000 0.112050
#
#
# Mechanical properties :
#
#
# Convention : Reuss Voigt Hill
#
# Bulk Modulus (GPa) = 21.31974 24.98884 23.15429
# Shear Modulus (GPa) = 5.07833 18.76246 11.92039
#
# Velocity S-wave (km/s) = 1.67448 3.21859 2.56546
# Velocity P-wave (km/s) = 3.93824 5.25447 4.64323
#
# Compressibility (1/GPa) = 0.04690490
#
# Stress axis : x y z
#
# Youngs Moduli (GPa) = 82.58452 49.22316 43.74242
#
# Poissons Ratio (x) = 0.08442 0.07146
# Poissons Ratio (y) = 0.14164 0.03682
# Poissons Ratio (z) = 0.13491 0.04143
#
# Static dielectric constant tensor:
#      x y z
#    x 1.629030 0.000000 0.007210 
#    y 0.000000 1.607010 0.000000 
#    z 0.007210 0.000000 1.657610 
# 
# From -- ./inp_files/186525.got.cif
#   From: 2010.05.17/outbox.cif.g08.bks.cpg/sg15_94_cif.got.tgz:186525.got - 2010.06.03 18:47:42.
