data_PCOD9265689
_publ_section_title
;
Structure prediction by ZEFSAII (Michael W. Deem and Ramdas Pophale) SiO2 
 PCOD9265689
Probable space group: C 2/C
;
_chemical_formula_sum "Si O2"
_cell_formula_units_Z 48
_cell_length_a 12.705426
_cell_length_b 18.752034
_cell_length_c 16.386210
_cell_angle_alpha 90.000000
_cell_angle_beta 35.746995
_cell_angle_gamma 90.000000
_cell_volume 2280.777710
_symmetry_space_group_name_H-M "C 2/C"
_symmetry_group_IT_number 15
_symmetry_cell_setting 'monoclinic'
loop_
_space_group_symop_operation_xyz
x,y,z
-x,y,1/2-z
-x,-y,-z
x,-y,1/2+z
1/2+x,1/2+y,z
1/2-x,1/2+y,1/2-z
1/2-x,1/2-y,-z
1/2+x,1/2-y,1/2+z
loop_
_atom_site_type_symbol
_atom_site_label
_atom_site_fract_x
_atom_site_fract_y
_atom_site_fract_z
Si Si1 0.000000 0.651074 0.250000
Si Si2 0.930441 0.904902 0.706982
Si Si3 0.605234 0.575618 0.937784
Si Si4 0.500000 0.658525 0.750000
Si Si5 0.775579 0.444943 0.168717
Si Si6 0.390912 0.708001 0.993877
Si Si7 0.548422 0.864659 0.898902
O O1 0.815688 0.694281 0.353161
O O2 0.009946 0.611916 0.156376
O O3 0.763903 0.860478 0.774160
O O4 0.000000 0.879096 0.750000
O O5 0.098431 0.909593 0.538592
O O6 0.833675 0.981985 0.777479
O O7 0.769286 0.566368 0.771056
O O8 0.500000 0.500000 0.000000
O O9 0.498197 0.642629 0.967200
O O10 0.347685 0.611126 0.803246
O O11 0.584853 0.697345 0.618261
O O12 0.968326 0.423754 0.010599
O O13 0.466504 0.786059 0.967163
#
# Coordination Sequence:
#
# PCOD9265689 Si02
#       7
#     4   8   8   4   8   8   8
#     4  12  23  38  62 100 138 157 204 264 339 384
#     4  11  23  45  65  88 127 178 220 254 307 381
#     4   9  21  39  64  90 123 170 210 257 309 378
#     4  10  19  36  64 100 128 167 198 268 331 386
#     4  10  21  38  64  94 130 164 216 260 322 376
#     4  11  23  38  62  99 132 160 209 263 335 384
#     4  12  25  38  64 100 132 169 207 270 323 383
#
# _framework density 21.045453999999999
#
# number of rings (size 3 to 8) (size 9 to 14) (size 15 to 20)
#    0.000    1.333    4.167    1.500    4.667    0.000 
#    0.000    1.667    0.000    0.000    0.000    0.000 
#    0.000    0.000    0.000    0.000    0.000    0.000 
#
# Total GULP energy -133742.473414 kJ/mol
# GULP energy per Si atom -5572.603059 kJ/mol
# Density = 2.099755 g / cm^3
# Si number density = 21.045454 Si / 1000 Ang^3
#
#
#
# Elastic Constant Matrix: (Units=GPa)
#
#
# Indices 1 2 3 4 5 6 
#
# 1 79.8727 8.1609 24.4288 0.0001 26.9927 0.0003
# 2 8.1609 95.6600 13.0532 0.0024 8.5941 0.0000
# 3 24.4288 13.0532 110.1371 0.0032 32.1366 0.0014
# 4 0.0001 0.0024 0.0032 22.1004 -0.0014 4.8155
# 5 26.9927 8.5941 32.1366 -0.0014 42.3034 -0.0005
# 6 0.0003 0.0000 0.0014 4.8155 -0.0005 14.3904
#
#
#
# Elastic Compliance Matrix: (Units=1/GPa)
#
#
# Indices 1 2 3 4 5 6 
#
# 1 0.016023 -0.000408 -0.000702 0.000000 -0.009608 0.000000
# 2 -0.000408 0.010715 -0.000797 -0.000001 -0.001311 0.000000
# 3 -0.000702 -0.000797 0.011758 -0.000002 -0.008322 -0.000001
# 4 0.000000 -0.000001 -0.000002 0.048807 0.000004 -0.016332
# 5 -0.009608 -0.001311 -0.008322 0.000004 0.036358 0.000001
# 6 0.000000 0.000000 -0.000001 -0.016332 0.000001 0.074956
#
#
# Mechanical properties :
#
#
# Convention : Reuss Voigt Hill
#
# Bulk Modulus (GPa) = 28.83323 41.88396 35.35859
# Shear Modulus (GPa) = 23.36535 31.76063 27.56299
#
# Velocity S-wave (km/s) = 3.33563 3.88899 3.62289
# Velocity P-wave (km/s) = 5.34466 6.33328 5.85986
#
# Compressibility (1/GPa) = 0.03468220
#
# Stress axis : x y z
#
# Youngs Moduli (GPa) = 62.40927 93.32694 85.04740
#
# Poissons Ratio (x) = 0.03808 0.05973
# Poissons Ratio (y) = 0.02546 0.06777
# Poissons Ratio (z) = 0.04383 0.07437
#
# Static dielectric constant tensor:
#      x y z
#    x 1.740000 0.000000 0.003750 
#    y 0.000000 1.814460 0.000000 
#    z 0.003750 0.000000 1.885680 
# 
# From -- ./inp_files/147399.got.cif
#   From: 2010.05.17/outbox.cif.g08.bks.cpg/sg15_74_cif.got.tgz:147399.got - 2010.06.03 18:47:42.
