data_PCOD9265228
_publ_section_title
;
Structure prediction by ZEFSAII (Michael W. Deem and Ramdas Pophale) SiO2 
 PCOD9265228
Probable space group: C 2/C
;
_chemical_formula_sum "Si O2"
_cell_formula_units_Z 32
_cell_length_a 23.647053
_cell_length_b 5.017538
_cell_length_c 14.729343
_cell_angle_alpha 90.000000
_cell_angle_beta 41.050105
_cell_angle_gamma 90.000000
_cell_volume 1147.705597
_symmetry_space_group_name_H-M "C 2/C"
_symmetry_group_IT_number 15
_symmetry_cell_setting 'monoclinic'
loop_
_space_group_symop_operation_xyz
x,y,z
-x,y,1/2-z
-x,-y,-z
x,-y,1/2+z
1/2+x,1/2+y,z
1/2-x,1/2+y,1/2-z
1/2-x,1/2-y,-z
1/2+x,1/2-y,1/2+z
loop_
_atom_site_type_symbol
_atom_site_label
_atom_site_fract_x
_atom_site_fract_y
_atom_site_fract_z
Si Si1 0.718647 0.372113 0.739586
Si Si2 0.320621 0.050347 0.455081
Si Si3 0.555287 0.206778 0.034019
Si Si4 0.461694 0.290080 0.694438
O O1 0.770916 0.177538 0.743090
O O2 0.768439 0.355567 0.585173
O O3 0.620359 0.290050 0.875465
O O4 0.250000 0.250000 0.500000
O O5 0.387400 0.205805 0.441797
O O6 0.375083 0.876349 0.318346
O O7 0.524044 0.905757 0.063350
O O8 0.476283 0.410654 0.141533
O O9 0.500000 0.299363 0.750000
#
# Coordination Sequence:
#
# PCOD9265228 Si02
#       4
#     8   8   8   8
#     4  10  20  37  59  84 117 160 199 236 295 369
#     4  10  22  39  63  96 123 150 202 266 302 335
#     4  10  20  38  60  81 113 161 199 228 290 373
#     4  10  19  36  59  83 113 157 197 232 289 367
#
# _framework density 27.881712
#
# number of rings (size 3 to 8) (size 9 to 14) (size 15 to 20)
#    0.000    2.000    0.000    6.750    0.000    2.000 
#    0.000   33.750    0.000    0.000    0.000    3.500 
#    0.000    0.000    0.000    0.000    0.000    0.000 
#
# Total GULP energy -89726.225985 kJ/mol
# GULP energy per Si atom -5607.889124 kJ/mol
# Density = 2.781825 g / cm^3
# Si number density = 27.881712 Si / 1000 Ang^3
#
#
#
# Elastic Constant Matrix: (Units=GPa)
#
#
# Indices 1 2 3 4 5 6 
#
# 1 97.1543 21.2919 14.6441 0.0251 -20.7148 -0.0036
# 2 21.2919 109.3996 48.2688 0.1125 -11.8815 0.0813
# 3 14.6441 48.2688 204.5529 -0.0504 9.9100 -0.0736
# 4 0.0251 0.1125 -0.0504 73.8089 -0.0331 -17.1940
# 5 -20.7148 -11.8815 9.9100 -0.0331 44.7726 0.0387
# 6 -0.0036 0.0813 -0.0736 -17.1940 0.0387 53.9145
#
#
#
# Elastic Compliance Matrix: (Units=1/GPa)
#
#
# Indices 1 2 3 4 5 6 
#
# 1 0.011840 -0.001388 -0.000776 -0.000001 0.005281 -0.000002
# 2 -0.001388 0.010864 -0.002601 -0.000023 0.002816 -0.000030
# 3 -0.000776 -0.002601 0.005670 0.000011 -0.002304 0.000017
# 4 -0.000001 -0.000023 0.000011 0.014636 -0.000002 0.004668
# 5 0.005281 0.002816 -0.002304 -0.000002 0.026036 -0.000026
# 6 -0.000002 -0.000030 0.000017 0.004668 -0.000026 0.020037
#
#
# Mechanical properties :
#
#
# Convention : Reuss Voigt Hill
#
# Bulk Modulus (GPa) = 53.06728 64.39073 58.72900
# Shear Modulus (GPa) = 47.66706 56.29266 51.97986
#
# Velocity S-wave (km/s) = 4.13924 4.49818 4.32244
# Velocity P-wave (km/s) = 6.47447 7.07973 6.78385
#
# Compressibility (1/GPa) = 0.01884400
#
# Stress axis : x y z
#
# Youngs Moduli (GPa) = 84.45793 92.04326 176.37931
#
# Poissons Ratio (x) = 0.12780 0.13685
# Poissons Ratio (y) = 0.11727 0.45872
# Poissons Ratio (z) = 0.06553 0.23938
#
# Static dielectric constant tensor:
#      x y z
#    x 2.465360 -0.000110 -0.026180 
#    y -0.000110 2.026250 -0.000040 
#    z -0.026180 -0.000040 2.108020 
# 
# From -- ./inp_files/165180.got.cif
#   From: 2010.05.17/outbox.cif.g08.bks.cpg/sg15_83_cif.got.tgz:165180.got - 2010.06.03 18:47:42.
