data_PCOD9265985
_publ_section_title
;
Structure prediction by ZEFSAII (Michael W. Deem and Ramdas Pophale) SiO2 
 PCOD9265985
Probable space group: C 2/C
;
_chemical_formula_sum "Si O2"
_cell_formula_units_Z 48
_cell_length_a 15.934924
_cell_length_b 9.020155
_cell_length_c 26.531621
_cell_angle_alpha 90.000000
_cell_angle_beta 142.200120
_cell_angle_gamma 90.000000
_cell_volume 2337.336433
_symmetry_space_group_name_H-M "C 2/C"
_symmetry_group_IT_number 15
_symmetry_cell_setting 'monoclinic'
loop_
_space_group_symop_operation_xyz
x,y,z
-x,y,1/2-z
-x,-y,-z
x,-y,1/2+z
1/2+x,1/2+y,z
1/2-x,1/2+y,1/2-z
1/2-x,1/2-y,-z
1/2+x,1/2-y,1/2+z
loop_
_atom_site_type_symbol
_atom_site_label
_atom_site_fract_x
_atom_site_fract_y
_atom_site_fract_z
Si Si1 0.822477 0.149982 0.414379
Si Si2 0.915212 0.567881 0.913420
Si Si3 0.851346 0.625645 0.654543
Si Si4 0.532458 0.270084 0.885211
Si Si5 0.768727 0.280861 0.808008
Si Si6 0.982765 0.944848 0.409541
O O1 0.807232 0.313213 0.385007
O O2 0.901343 0.055795 0.408559
O O3 0.697416 0.044208 0.369450
O O4 0.919928 0.153659 0.509323
O O5 0.015741 0.661596 0.924873
O O6 0.839086 0.439939 0.846108
O O7 0.000000 0.500000 0.000000
O O8 0.754263 0.718902 0.645958
O O9 0.000000 0.630602 0.750000
O O10 0.866131 0.700358 0.607384
O O11 0.377955 0.280457 0.788446
O O12 0.565744 0.439692 0.915003
O O13 0.872494 0.163210 0.831965
#
# Coordination Sequence:
#
# PCOD9265985 Si02
#       6
#     8   8   8   8   8   8
#     4   9  18  34  55  79 110 148 183 231 286 339
#     4  11  21  37  59  88 115 147 195 246 291 340
#     4   9  20  38  57  81 115 153 189 236 295 352
#     4  10  21  35  57  86 112 153 196 235 290 352
#     4  10  19  37  59  81 115 146 195 244 290 345
#     4   9  17  32  55  80 106 146 192 228 277 339
#
# _framework density 20.536197000000001
#
# number of rings (size 3 to 8) (size 9 to 14) (size 15 to 20)
#    0.000    2.333    1.667    1.000    2.333    2.000 
#    0.000    5.000    0.000    0.000    0.000    0.000 
#    0.000    0.000    0.000    0.000    0.000    0.000 
#
# Total GULP energy -133920.349155 kJ/mol
# GULP energy per Si atom -5580.014548 kJ/mol
# Density = 2.048946 g / cm^3
# Si number density = 20.536197 Si / 1000 Ang^3
#
#
#
# Elastic Constant Matrix: (Units=GPa)
#
#
# Indices 1 2 3 4 5 6 
#
# 1 65.9551 29.8359 -2.7384 0.0000 -9.0911 0.0000
# 2 29.8359 109.4183 8.1998 0.0000 -3.1369 0.0000
# 3 -2.7384 8.1998 27.1945 0.0000 -10.1799 0.0000
# 4 0.0000 0.0000 0.0000 31.7498 0.0000 0.3182
# 5 -9.0911 -3.1369 -10.1799 0.0000 22.1484 0.0000
# 6 0.0000 0.0000 0.0000 0.3182 0.0000 33.5103
#
#
#
# Elastic Compliance Matrix: (Units=1/GPa)
#
#
# Indices 1 2 3 4 5 6 
#
# 1 0.019482 -0.005579 0.007659 0.000000 0.010727 0.000000
# 2 -0.005579 0.010948 -0.005000 0.000000 -0.003037 0.000000
# 3 0.007659 -0.005000 0.048267 0.000000 0.024621 0.000000
# 4 0.000000 0.000000 0.000000 0.031499 0.000000 -0.000299
# 5 0.010727 -0.003037 0.024621 0.000000 0.060439 0.000000
# 6 0.000000 0.000000 0.000000 -0.000299 0.000000 0.029844
#
#
# Mechanical properties :
#
#
# Convention : Reuss Voigt Hill
#
# Bulk Modulus (GPa) = 13.72511 30.35138 22.03825
# Shear Modulus (GPa) = 21.68210 28.63307 25.15758
#
# Velocity S-wave (km/s) = 3.25283 3.73805 3.50385
# Velocity P-wave (km/s) = 4.56133 5.78292 5.20807
#
# Compressibility (1/GPa) = 0.07285916
#
# Stress axis : x y z
#
# Youngs Moduli (GPa) = 51.32920 91.34037 20.71790
#
# Poissons Ratio (x) = 0.50957 -0.15869
# Poissons Ratio (y) = 0.28636 0.10359
# Poissons Ratio (z) = -0.39315 0.45669
#
# Static dielectric constant tensor:
#      x y z
#    x 1.752090 0.000000 -0.009090 
#    y 0.000000 1.729830 0.000000 
#    z -0.009090 0.000000 1.755210 
# 
# From -- ./inp_files/208572.got.cif
#   From: 2010.05.17/outbox.cif.g08.bks.cpg/sg15_105_cif.got.tgz:208572.got - 2010.06.03 18:47:42.
