data_PCOD9265898
_publ_section_title
;
Structure prediction by ZEFSAII (Michael W. Deem and Ramdas Pophale) SiO2 
 PCOD9265898
Probable space group: C 2/C
;
_chemical_formula_sum "Si O2"
_cell_formula_units_Z 48
_cell_length_a 18.371364
_cell_length_b 22.003528
_cell_length_c 13.388037
_cell_angle_alpha 90.000000
_cell_angle_beta 156.353300
_cell_angle_gamma 90.000000
_cell_volume 2170.694664
_symmetry_space_group_name_H-M "C 2/C"
_symmetry_group_IT_number 15
_symmetry_cell_setting 'monoclinic'
loop_
_space_group_symop_operation_xyz
x,y,z
-x,y,1/2-z
-x,-y,-z
x,-y,1/2+z
1/2+x,1/2+y,z
1/2-x,1/2+y,1/2-z
1/2-x,1/2-y,-z
1/2+x,1/2-y,1/2+z
loop_
_atom_site_type_symbol
_atom_site_label
_atom_site_fract_x
_atom_site_fract_y
_atom_site_fract_z
Si Si1 0.961048 0.830837 0.033277
Si Si2 0.500000 0.365525 0.750000
Si Si3 0.706942 0.854258 0.531967
Si Si4 0.749383 0.965437 0.346917
Si Si5 0.000000 0.932388 0.250000
Si Si6 0.400623 0.983048 0.034614
Si Si7 0.175598 0.281199 0.006962
O O1 0.800226 0.838701 0.753208
O O2 0.894679 0.773336 0.013802
O O3 0.002397 0.887473 0.157999
O O4 0.156983 0.815289 0.232879
O O5 0.346663 0.332946 0.622385
O O6 0.383332 0.409510 0.531341
O O7 0.697703 0.928163 0.530433
O O8 0.500000 0.834755 0.250000
O O9 0.552440 0.954674 0.149822
O O10 0.834991 0.022418 0.515025
O O11 0.725714 0.980789 0.200325
O O12 0.500000 0.018118 0.250000
O O13 0.250000 0.250000 0.000000
O O14 0.000000 0.319004 0.750000
#
# Coordination Sequence:
#
# PCOD9265898 Si02
#       7
#     8   4   8   8   4   8   8
#     4  11  21  41  66  95 127 162 205 268 331 385
#     4  11  22  40  62  86 126 176 220 262 312 365
#     4  11  23  43  64  88 127 178 220 261 312 376
#     4  10  21  34  59  89 123 168 216 254 307 368
#     4  11  20  32  60  96 122 160 216 254 302 401
#     4  10  19  37  57  83 125 170 209 259 312 358
#     4   9  18  38  67  92 127 152 190 261 343 389
#
# _framework density 22.112736999999999
#
# number of rings (size 3 to 8) (size 9 to 14) (size 15 to 20)
#    0.000    1.667    7.500    0.000    0.000    2.000 
#    6.000    5.000    0.000    0.000    0.000    0.000 
#    0.000    0.000    0.000    0.000    0.000    0.000 
#
# Total GULP energy -133809.058093 kJ/mol
# GULP energy per Si atom -5575.377421 kJ/mol
# Density = 2.206241 g / cm^3
# Si number density = 22.112737 Si / 1000 Ang^3
#
#
#
# Elastic Constant Matrix: (Units=GPa)
#
#
# Indices 1 2 3 4 5 6 
#
# 1 76.6032 6.3023 46.6230 0.0000 -8.2799 0.0000
# 2 6.3023 30.6639 17.3682 0.0000 -1.8821 0.0000
# 3 46.6230 17.3682 166.8472 0.0000 -27.0438 0.0000
# 4 0.0000 0.0000 0.0000 8.2941 0.0000 -5.7598
# 5 -8.2799 -1.8821 -27.0438 0.0000 48.9257 0.0000
# 6 0.0000 0.0000 0.0000 -5.7598 0.0000 10.3442
#
#
#
# Elastic Compliance Matrix: (Units=1/GPa)
#
#
# Indices 1 2 3 4 5 6 
#
# 1 0.015751 -0.000800 -0.004274 0.000000 0.000272 0.000000
# 2 -0.000800 0.034719 -0.003511 0.000000 -0.000740 0.000000
# 3 -0.004274 -0.003511 0.008144 0.000000 0.003643 0.000000
# 4 0.000000 0.000000 0.000000 0.196582 0.000000 0.109460
# 5 0.000272 -0.000740 0.003643 0.000000 0.022471 0.000000
# 6 0.000000 0.000000 0.000000 0.109460 0.000000 0.157622
#
#
# Mechanical properties :
#
#
# Convention : Reuss Voigt Hill
#
# Bulk Modulus (GPa) = 24.12842 46.07792 35.10317
# Shear Modulus (GPa) = 10.72338 27.10086 18.91212
#
# Velocity S-wave (km/s) = 2.20453 3.50462 2.92765
# Velocity P-wave (km/s) = 4.17315 6.10405 5.22851
#
# Compressibility (1/GPa) = 0.04144490
#
# Stress axis : x y z
#
# Youngs Moduli (GPa) = 63.48905 28.80268 122.79366
#
# Poissons Ratio (x) = 0.02303 0.52481
# Poissons Ratio (y) = 0.05077 0.43109
# Poissons Ratio (z) = 0.27135 0.10112
#
# Static dielectric constant tensor:
#      x y z
#    x 1.533430 0.000000 -0.027290 
#    y 0.000000 1.920930 0.000000 
#    z -0.027290 0.000000 1.929570 
# 
# From -- ./inp_files/58411.got.cif
#   From: 2010.05.17/outbox.cif.g08.bks.cpg/sg15_30_cif.got.tgz:58411.got - 2010.06.03 18:47:42.
