data_PCOD9265392
_publ_section_title
;
Structure prediction by ZEFSAII (Michael W. Deem and Ramdas Pophale) SiO2 
 PCOD9265392
Probable space group: C 2/C
;
_chemical_formula_sum "Si O2"
_cell_formula_units_Z 52
_cell_length_a 15.430581
_cell_length_b 16.934392
_cell_length_c 14.274845
_cell_angle_alpha 90.000000
_cell_angle_beta 131.479380
_cell_angle_gamma 90.000000
_cell_volume 2794.587169
_symmetry_space_group_name_H-M "C 2/C"
_symmetry_group_IT_number 15
_symmetry_cell_setting 'monoclinic'
loop_
_space_group_symop_operation_xyz
x,y,z
-x,y,1/2-z
-x,-y,-z
x,-y,1/2+z
1/2+x,1/2+y,z
1/2-x,1/2+y,1/2-z
1/2-x,1/2-y,-z
1/2+x,1/2-y,1/2+z
loop_
_atom_site_type_symbol
_atom_site_label
_atom_site_fract_x
_atom_site_fract_y
_atom_site_fract_z
Si Si1 0.500000 0.795681 0.750000
Si Si2 0.731982 0.138180 0.333883
Si Si3 0.274265 0.405156 0.653474
Si Si4 0.040519 0.322499 0.423142
Si Si5 0.883231 0.713904 0.986074
Si Si6 0.708066 0.051868 0.489991
Si Si7 0.500000 0.313739 0.750000
Si Si8 0.500000 0.950124 0.250000
O O1 0.402246 0.846180 0.734729
O O2 0.435595 0.750902 0.620268
O O3 0.750746 0.098217 0.247617
O O4 0.792216 0.223787 0.380518
O O5 0.779293 0.084070 0.452139
O O6 0.168244 0.355638 0.532728
O O7 0.267841 0.491473 0.603216
O O8 0.395045 0.364995 0.714489
O O9 0.978315 0.303320 0.475769
O O10 0.043932 0.244267 0.363240
O O11 0.970476 0.389698 0.314081
O O12 0.832285 0.629765 0.982793
O O13 0.601537 0.003710 0.365577
#
# Coordination Sequence:
#
# PCOD9265392 Si02
#       8
#     4   8   8   8   8   8   4   4
#     4  10  19  36  60  88 123 148 198 246 297 342
#     4  11  22  40  62  92 121 162 199 246 296 363
#     4  11  23  40  65  87 123 157 198 252 303 351
#     4  10  21  38  63  93 115 156 206 251 302 349
#     4  11  21  38  64  91 120 159 200 248 299 359
#     4  10  22  37  58  93 126 153 196 246 305 358
#     4  11  22  44  62  85 120 164 206 245 292 362
#     4   9  21  34  60  91 125 146 194 263 301 350
#
# _framework density 18.607399999999998
#
# number of rings (size 3 to 8) (size 9 to 14) (size 15 to 20)
#    0.000    1.538    3.077    4.154    2.154    1.231 
#    0.000    3.846    0.000    0.000    0.000    0.000 
#    0.000    0.000    0.000    0.000    0.000    0.000 
#
# Total GULP energy -144987.981942 kJ/mol
# GULP energy per Si atom -5576.460844 kJ/mol
# Density = 1.856505 g / cm^3
# Si number density = 18.607400 Si / 1000 Ang^3
#
#
#
# Elastic Constant Matrix: (Units=GPa)
#
#
# Indices 1 2 3 4 5 6 
#
# 1 112.4288 37.3255 39.6707 0.0000 -14.2187 0.0000
# 2 37.3255 78.6485 32.8693 0.0000 0.3493 0.0000
# 3 39.6707 32.8693 57.2023 0.0000 -15.1182 0.0000
# 4 0.0000 0.0000 0.0000 27.9091 0.0000 -10.0537
# 5 -14.2187 0.3493 -15.1182 0.0000 32.2933 0.0000
# 6 0.0000 0.0000 0.0000 -10.0537 0.0000 17.5624
#
#
#
# Elastic Compliance Matrix: (Units=1/GPa)
#
#
# Indices 1 2 3 4 5 6 
#
# 1 0.012488 -0.003452 -0.005950 0.000000 0.002750 0.000000
# 2 -0.003452 0.018537 -0.009942 0.000000 -0.006375 0.000000
# 3 -0.005950 -0.009942 0.030421 0.000000 0.011730 0.000000
# 4 0.000000 0.000000 0.000000 0.045139 0.000000 0.025840
# 5 0.002750 -0.006375 0.011730 0.000000 0.037737 0.000000
# 6 0.000000 0.000000 0.000000 0.025840 0.000000 0.071732
#
#
# Mechanical properties :
#
#
# Convention : Reuss Voigt Hill
#
# Bulk Modulus (GPa) = 43.94244 52.00118 47.97181
# Shear Modulus (GPa) = 19.06007 24.78055 21.92031
#
# Velocity S-wave (km/s) = 3.20398 3.65328 3.43599
# Velocity P-wave (km/s) = 6.11181 6.76775 6.44813
#
# Compressibility (1/GPa) = 0.02275705
#
# Stress axis : x y z
#
# Youngs Moduli (GPa) = 80.07751 53.94751 32.87181
#
# Poissons Ratio (x) = 0.18623 0.19559
# Poissons Ratio (y) = 0.27644 0.32682
# Poissons Ratio (z) = 0.47646 0.53635
#
# Static dielectric constant tensor:
#      x y z
#    x 1.625380 0.000000 -0.008710 
#    y 0.000000 1.644800 0.000000 
#    z -0.008710 0.000000 1.689780 
# 
# From -- ./inp_files/98225.got.cif
#   From: 2010.05.17/outbox.cif.g08.bks.cpg/sg15_50_cif.got.tgz:98225.got - 2010.06.03 18:47:42.
