data_PCOD9265741
_publ_section_title
;
Structure prediction by ZEFSAII (Michael W. Deem and Ramdas Pophale) SiO2 
 PCOD9265741
Probable space group: C 2/C
;
_chemical_formula_sum "Si O2"
_cell_formula_units_Z 48
_cell_length_a 10.318377
_cell_length_b 11.051831
_cell_length_c 23.220062
_cell_angle_alpha 90.000000
_cell_angle_beta 53.615281
_cell_angle_gamma 90.000000
_cell_volume 2131.733717
_symmetry_space_group_name_H-M "C 2/C"
_symmetry_group_IT_number 15
_symmetry_cell_setting 'monoclinic'
loop_
_space_group_symop_operation_xyz
x,y,z
-x,y,1/2-z
-x,-y,-z
x,-y,1/2+z
1/2+x,1/2+y,z
1/2-x,1/2+y,1/2-z
1/2-x,1/2-y,-z
1/2+x,1/2-y,1/2+z
loop_
_atom_site_type_symbol
_atom_site_label
_atom_site_fract_x
_atom_site_fract_y
_atom_site_fract_z
Si Si1 0.339249 0.566122 0.518390
Si Si2 0.421507 0.458715 0.695022
Si Si3 0.326627 0.939207 0.323093
Si Si4 0.661089 0.381947 0.079290
Si Si5 0.216622 0.157686 0.158894
Si Si6 0.492307 0.786005 0.980989
O O1 0.500000 0.500000 0.500000
O O2 0.197675 0.546573 0.602130
O O3 0.303405 0.501234 0.468538
O O4 0.397099 0.704124 0.506726
O O5 0.303450 0.473346 0.672615
O O6 0.534057 0.578356 0.661088
O O7 0.316874 0.430873 0.778887
O O8 0.556275 0.354049 0.662025
O O9 0.500000 0.961571 0.250000
O O10 0.279559 0.798499 0.323352
O O11 0.578699 0.290871 0.055014
O O12 0.832557 0.332467 0.053764
O O13 0.380149 0.126045 0.082996
#
# Coordination Sequence:
#
# PCOD9265741 Si02
#       6
#     8   8   8   8   8   8
#     4   9  17  36  60  88 114 150 199 246 295 352
#     4  11  21  38  64  89 122 161 204 246 298 361
#     4  11  21  40  65  87 120 165 198 245 311 352
#     4  10  19  36  65  86 120 156 198 252 295 355
#     4  10  22  41  62  86 127 161 199 249 300 358
#     4   9  19  37  60  84 119 161 190 240 311 345
#
# _framework density 22.516884999999998
#
# number of rings (size 3 to 8) (size 9 to 14) (size 15 to 20)
#    0.000    2.000    6.667    0.000    2.333    0.667 
#    0.000    6.667    3.667    0.000    0.000    0.000 
#    0.000    0.000    0.000    0.000    0.000    0.000 
#
# Total GULP energy -133787.991967 kJ/mol
# GULP energy per Si atom -5574.499665 kJ/mol
# Density = 2.246564 g / cm^3
# Si number density = 22.516885 Si / 1000 Ang^3
#
#
#
# Elastic Constant Matrix: (Units=GPa)
#
#
# Indices 1 2 3 4 5 6 
#
# 1 76.0428 18.6829 22.7858 0.0000 -13.8621 0.0000
# 2 18.6829 38.7996 18.3037 0.0000 5.1340 0.0000
# 3 22.7858 18.3037 87.7680 0.0000 -23.4199 0.0000
# 4 0.0000 0.0000 0.0000 43.4761 0.0000 -7.7520
# 5 -13.8621 5.1340 -23.4199 0.0000 39.6507 0.0000
# 6 0.0000 0.0000 0.0000 -7.7520 0.0000 10.4750
#
#
#
# Elastic Compliance Matrix: (Units=1/GPa)
#
#
# Indices 1 2 3 4 5 6 
#
# 1 0.016655 -0.008471 -0.000844 0.000000 0.006421 0.000000
# 2 -0.008471 0.035581 -0.008595 0.000000 -0.012645 0.000000
# 3 -0.000844 -0.008595 0.016172 0.000000 0.010370 0.000000
# 4 0.000000 0.000000 0.000000 0.026498 0.000000 0.019609
# 5 0.006421 -0.012645 0.010370 0.000000 0.035228 0.000000
# 6 0.000000 0.000000 0.000000 0.019609 0.000000 0.109977
#
#
# Mechanical properties :
#
#
# Convention : Reuss Voigt Hill
#
# Bulk Modulus (GPa) = 30.68671 35.79501 33.24086
# Shear Modulus (GPa) = 17.43414 28.24291 22.83852
#
# Velocity S-wave (km/s) = 2.78559 3.54545 3.18824
# Velocity P-wave (km/s) = 4.89938 5.71767 5.32427
#
# Compressibility (1/GPa) = 0.03258739
#
# Stress axis : x y z
#
# Youngs Moduli (GPa) = 60.04130 28.10515 61.83377
#
# Poissons Ratio (x) = 0.23809 0.05218
# Poissons Ratio (y) = 0.50864 0.53147
# Poissons Ratio (z) = 0.05066 0.24157
#
# Static dielectric constant tensor:
#      x y z
#    x 1.852030 0.000000 0.014950 
#    y 0.000000 1.913750 0.000000 
#    z 0.014950 0.000000 1.878700 
# 
# From -- ./inp_files/291947.got.cif
#   From: 2010.05.17/outbox.cif.g08.bks.cpg/sg15_146_cif.got.tgz:291947.got - 2010.06.03 18:47:42.
