data_PCOD9265115
_publ_section_title
;
Structure prediction by ZEFSAII (Michael W. Deem and Ramdas Pophale) SiO2 
 PCOD9265115
Probable space group: C 2/C
;
_chemical_formula_sum "Si O2"
_cell_formula_units_Z 44
_cell_length_a 17.548341
_cell_length_b 7.267065
_cell_length_c 24.432472
_cell_angle_alpha 90.000000
_cell_angle_beta 141.341007
_cell_angle_gamma 90.000000
_cell_volume 1946.358598
_symmetry_space_group_name_H-M "C 2/C"
_symmetry_group_IT_number 15
_symmetry_cell_setting 'monoclinic'
loop_
_space_group_symop_operation_xyz
x,y,z
-x,y,1/2-z
-x,-y,-z
x,-y,1/2+z
1/2+x,1/2+y,z
1/2-x,1/2+y,1/2-z
1/2-x,1/2-y,-z
1/2+x,1/2-y,1/2+z
loop_
_atom_site_type_symbol
_atom_site_label
_atom_site_fract_x
_atom_site_fract_y
_atom_site_fract_z
Si Si1 0.586670 0.479086 0.600789
Si Si2 0.144773 0.591205 0.968250
Si Si3 0.253888 0.718364 0.149095
Si Si4 0.578882 0.047026 0.599008
Si Si5 0.000000 0.068270 0.250000
Si Si6 0.893839 0.002583 0.584919
O O1 0.500000 0.500000 0.500000
O O2 0.704828 0.594887 0.648975
O O3 0.607381 0.262388 0.620226
O O4 0.498002 0.549391 0.599804
O O5 0.193556 0.670398 0.055229
O O6 0.248106 0.466009 0.998094
O O7 0.114309 0.777394 0.919077
O O8 0.016825 0.493209 0.907731
O O9 0.201925 0.565026 0.161464
O O10 0.396001 0.691199 0.219908
O O11 0.500000 0.000000 0.500000
O O12 0.936554 0.943326 0.168777
#
# Coordination Sequence:
#
# PCOD9265115 Si02
#       6
#     8   8   8   8   4   8
#     4  11  18  33  60  88 109 139 195 243 276 333
#     4   8  15  30  56  78 106 141 184 233 275 322
#     4  10  19  36  58  80 113 150 188 231 286 338
#     4   9  16  30  56  85 113 137 178 237 289 321
#     4  10  22  38  56  76 120 166 182 222 304 346
#     4   9  17  32  53  82 111 147 186 230 280 339
#
# _framework density 22.606318999999999
#
# number of rings (size 3 to 8) (size 9 to 14) (size 15 to 20)
#    0.000    2.545    5.455    0.000    0.000    0.000 
#    6.545    1.818    0.000    0.000    0.000    0.000 
#    0.000    0.000    0.000    0.000    0.000    0.000 
#
# Total GULP energy -122552.120213 kJ/mol
# GULP energy per Si atom -5570.550919 kJ/mol
# Density = 2.255487 g / cm^3
# Si number density = 22.606319 Si / 1000 Ang^3
#
#
#
# Elastic Constant Matrix: (Units=GPa)
#
#
# Indices 1 2 3 4 5 6 
#
# 1 145.4629 25.6189 32.3067 0.0000 50.2434 -0.0001
# 2 25.6189 90.0547 7.9762 0.0000 24.6793 -0.0001
# 3 32.3067 7.9762 50.8422 0.0000 26.7980 0.0000
# 4 0.0000 0.0000 0.0000 8.8579 0.0000 6.0117
# 5 50.2434 24.6793 26.7980 0.0000 56.9993 0.0000
# 6 -0.0001 -0.0001 0.0000 6.0117 0.0000 20.9823
#
#
#
# Elastic Compliance Matrix: (Units=1/GPa)
#
#
# Indices 1 2 3 4 5 6 
#
# 1 0.010109 -0.000600 -0.002353 0.000000 -0.007545 0.000000
# 2 -0.000600 0.012690 0.001340 0.000000 -0.005596 0.000000
# 3 -0.002353 0.001340 0.026810 0.000000 -0.011111 0.000000
# 4 0.000000 0.000000 0.000000 0.140144 0.000000 -0.040153
# 5 -0.007545 -0.005596 -0.011111 0.000000 0.031841 0.000000
# 6 0.000000 0.000000 0.000000 -0.040153 0.000000 0.059164
#
#
# Mechanical properties :
#
#
# Convention : Reuss Voigt Hill
#
# Bulk Modulus (GPa) = 21.55969 46.46261 34.01115
# Shear Modulus (GPa) = 16.69762 32.06510 24.38136
#
# Velocity S-wave (km/s) = 2.72072 3.77027 3.28765
# Velocity P-wave (km/s) = 4.40766 6.28894 5.43039
#
# Compressibility (1/GPa) = 0.04638287
#
# Stress axis : x y z
#
# Youngs Moduli (GPa) = 98.92413 78.80367 37.29992
#
# Poissons Ratio (x) = 0.04726 0.08775
# Poissons Ratio (y) = 0.05933 -0.04997
# Poissons Ratio (z) = 0.23272 -0.10556
#
# Static dielectric constant tensor:
#      x y z
#    x 2.246490 0.000000 0.248770 
#    y 0.000000 1.927770 0.000000 
#    z 0.248770 0.000000 2.170940 
# 
# From -- ./inp_files/315255.got.cif
#   From: 2010.05.17/outbox.cif.g08.bks.cpg/sg15_158_cif.got.tgz:315255.got - 2010.06.03 18:47:42.
