data_PCOD9265122
_publ_section_title
;
Structure prediction by ZEFSAII (Michael W. Deem and Ramdas Pophale) SiO2 
 PCOD9265122
Probable space group: C 2/C
;
_chemical_formula_sum "Si O2"
_cell_formula_units_Z 48
_cell_length_a 7.670012
_cell_length_b 19.432897
_cell_length_c 17.153857
_cell_angle_alpha 90.000000
_cell_angle_beta 96.604409
_cell_angle_gamma 90.000000
_cell_volume 2539.824795
_symmetry_space_group_name_H-M "C 2/C"
_symmetry_group_IT_number 15
_symmetry_cell_setting 'monoclinic'
loop_
_space_group_symop_operation_xyz
x,y,z
-x,y,1/2-z
-x,-y,-z
x,-y,1/2+z
1/2+x,1/2+y,z
1/2-x,1/2+y,1/2-z
1/2-x,1/2-y,-z
1/2+x,1/2-y,1/2+z
loop_
_atom_site_type_symbol
_atom_site_label
_atom_site_fract_x
_atom_site_fract_y
_atom_site_fract_z
Si Si1 0.195642 0.228243 0.285430
Si Si2 0.902000 0.853540 0.324467
Si Si3 0.380603 0.150254 0.979973
Si Si4 0.021428 0.923801 0.470319
Si Si5 0.259344 0.674422 0.040788
Si Si6 0.191325 0.256167 0.876003
O O1 0.226712 0.310278 0.301229
O O2 0.242149 0.187321 0.366278
O O3 0.300919 0.214778 0.210607
O O4 0.000000 0.213258 0.250000
O O5 0.000000 0.872470 0.250000
O O6 0.908586 0.914557 0.385365
O O7 0.025943 0.794896 0.369431
O O8 0.330891 0.188912 0.057814
O O9 0.226488 0.093947 0.963736
O O10 0.585559 0.134273 0.001265
O O11 0.352622 0.206434 0.909213
O O12 0.931512 0.867754 0.523546
O O13 0.000000 0.000000 0.500000
O O14 0.250000 0.750000 0.000000
#
# Coordination Sequence:
#
# PCOD9265122 Si02
#       6
#     8   8   8   8   8   8
#     4  11  19  29  54  92 115 139 188 252 300 343
#     4   9  18  35  57  81 113 149 191 241 297 349
#     4  10  19  36  58  81 120 154 190 240 303 350
#     4  11  24  40  57  84 120 163 201 239 293 362
#     4  12  21  36  61  90 114 147 196 248 303 360
#     4   9  17  32  54  86 116 141 181 249 305 338
#
# _framework density 18.898942000000002
#
# number of rings (size 3 to 8) (size 9 to 14) (size 15 to 20)
#    0.000    1.667    3.333    4.000    0.000    0.667 
#    0.000    2.500    0.000    0.000    0.000    0.000 
#    0.000    0.000    0.000    0.000    0.000    0.000 
#
# Total GULP energy -133745.179869 kJ/mol
# GULP energy per Si atom -5572.715828 kJ/mol
# Density = 1.885593 g / cm^3
# Si number density = 18.898942 Si / 1000 Ang^3
#
#
#
# Elastic Constant Matrix: (Units=GPa)
#
#
# Indices 1 2 3 4 5 6 
#
# 1 79.3939 1.7542 3.2440 0.0000 11.9629 0.0000
# 2 1.7542 52.8572 15.4806 0.0000 -8.6645 0.0000
# 3 3.2440 15.4806 114.3832 0.0000 -6.2551 0.0000
# 4 0.0000 0.0000 0.0000 23.6873 0.0000 -0.9081
# 5 11.9629 -8.6645 -6.2551 0.0000 30.3792 0.0000
# 6 0.0000 0.0000 0.0000 -0.9081 0.0000 12.8684
#
#
#
# Elastic Compliance Matrix: (Units=1/GPa)
#
#
# Indices 1 2 3 4 5 6 
#
# 1 0.013516 -0.001241 -0.000532 0.000000 -0.005786 0.000000
# 2 -0.001241 0.020636 -0.002437 0.000000 0.005873 0.000000
# 3 -0.000532 -0.002437 0.009164 0.000000 0.001401 0.000000
# 4 0.000000 0.000000 0.000000 0.042331 0.000000 0.002987
# 5 -0.005786 0.005873 0.001401 0.000000 0.037159 0.000000
# 6 0.000000 0.000000 0.000000 0.002987 0.000000 0.077921
#
#
# Mechanical properties :
#
#
# Convention : Reuss Voigt Hill
#
# Bulk Modulus (GPa) = 28.65528 31.95466 30.30497
# Shear Modulus (GPa) = 22.64697 28.46400 25.55548
#
# Velocity S-wave (km/s) = 3.46543 3.88508 3.68124
# Velocity P-wave (km/s) = 5.58637 6.08852 5.84284
#
# Compressibility (1/GPa) = 0.03489758
#
# Stress axis : x y z
#
# Youngs Moduli (GPa) = 73.98409 48.45802 109.12246
#
# Poissons Ratio (x) = 0.06015 0.05803
# Poissons Ratio (y) = 0.09184 0.26588
# Poissons Ratio (z) = 0.03934 0.11807
#
# Static dielectric constant tensor:
#      x y z
#    x 1.754930 0.000000 -0.004250 
#    y 0.000000 1.641910 0.000000 
#    z -0.004250 0.000000 1.743020 
# 
# From -- ./inp_files/191343.got.cif
#   From: 2010.05.17/outbox.cif.g08.bks.cpg/sg15_96_cif.got.tgz:191343.got - 2010.06.03 18:47:42.
