data_PCOD9265795
_publ_section_title
;
Structure prediction by ZEFSAII (Michael W. Deem and Ramdas Pophale) SiO2 
 PCOD9265795
Probable space group: C 2/C
;
_chemical_formula_sum "Si O2"
_cell_formula_units_Z 52
_cell_length_a 18.736083
_cell_length_b 9.509964
_cell_length_c 16.535528
_cell_angle_alpha 90.000000
_cell_angle_beta 116.272181
_cell_angle_gamma 90.000000
_cell_volume 2641.944036
_symmetry_space_group_name_H-M "C 2/C"
_symmetry_group_IT_number 15
_symmetry_cell_setting 'monoclinic'
loop_
_space_group_symop_operation_xyz
x,y,z
-x,y,1/2-z
-x,-y,-z
x,-y,1/2+z
1/2+x,1/2+y,z
1/2-x,1/2+y,1/2-z
1/2-x,1/2-y,-z
1/2+x,1/2-y,1/2+z
loop_
_atom_site_type_symbol
_atom_site_label
_atom_site_fract_x
_atom_site_fract_y
_atom_site_fract_z
Si Si1 0.612192 0.239698 0.229540
Si Si2 0.049865 0.877276 0.924396
Si Si3 0.180883 0.912208 0.119885
Si Si4 0.569470 0.705143 0.886613
Si Si5 0.348760 0.927937 0.259102
Si Si6 0.500000 0.809071 0.250000
Si Si7 0.617591 0.718331 0.081309
O O1 0.645556 0.359155 0.187373
O O2 0.517733 0.228034 0.165828
O O3 0.616958 0.276171 0.327007
O O4 0.654839 0.094338 0.228830
O O5 0.041126 0.786462 0.839180
O O6 0.970094 0.838555 0.934979
O O7 0.054584 0.040226 0.899566
O O8 0.125960 0.851617 0.020282
O O9 0.273910 0.878060 0.168446
O O10 0.171527 0.080120 0.111092
O O11 0.611724 0.768733 0.986251
O O12 0.431223 0.900382 0.255127
O O13 0.353140 0.836963 0.342927
#
# Coordination Sequence:
#
# PCOD9265795 Si02
#       7
#     8   8   8   8   8   4   8
#     4  11  21  37  61  93 120 155 201 247 298 354
#     4  10  19  38  67  92 114 157 210 242 293 360
#     4  11  21  41  62  88 120 159 203 249 296 359
#     4  10  19  36  67  90 116 155 207 248 286 356
#     4  11  25  39  58  88 128 158 195 249 309 356
#     4  10  22  40  60  86 120 160 198 252 298 360
#     4  10  20  41  64  89 122 160 201 244 300 360
#
# _framework density 19.682476000000001
#
# number of rings (size 3 to 8) (size 9 to 14) (size 15 to 20)
#    0.000    1.538    3.077    3.692    2.154    1.231 
#    2.769    6.923    0.000    0.000    0.000    0.000 
#    0.000    0.000    0.000    0.000    0.000    0.000 
#
# Total GULP energy -145181.305640 kJ/mol
# GULP energy per Si atom -5583.896371 kJ/mol
# Density = 1.963768 g / cm^3
# Si number density = 19.682476 Si / 1000 Ang^3
#
#
#
# Elastic Constant Matrix: (Units=GPa)
#
#
# Indices 1 2 3 4 5 6 
#
# 1 36.6912 5.0390 46.7837 0.0000 2.1787 0.0000
# 2 5.0390 37.1743 42.4457 0.0000 -2.6377 0.0000
# 3 46.7837 42.4457 159.5998 0.0000 -0.9378 0.0000
# 4 0.0000 0.0000 0.0000 13.4485 0.0000 3.8423
# 5 2.1787 -2.6377 -0.9378 0.0000 36.1592 0.0000
# 6 0.0000 0.0000 0.0000 3.8423 0.0000 6.8293
#
#
#
# Elastic Compliance Matrix: (Units=1/GPa)
#
#
# Indices 1 2 3 4 5 6 
#
# 1 0.048140 0.013549 -0.017728 0.000000 -0.002372 0.000000
# 2 0.013549 0.042681 -0.015312 0.000000 0.001900 0.000000
# 3 -0.017728 -0.015312 0.015537 0.000000 0.000354 0.000000
# 4 0.000000 0.000000 0.000000 0.088599 0.000000 -0.049848
# 5 -0.002372 0.001900 0.000354 0.000000 0.027946 0.000000
# 6 0.000000 0.000000 0.000000 -0.049848 0.000000 0.174474
#
#
# Mechanical properties :
#
#
# Convention : Reuss Voigt Hill
#
# Bulk Modulus (GPa) = 14.84226 46.88910 30.86568
# Shear Modulus (GPa) = 10.89758 20.56720 15.73239
#
# Velocity S-wave (km/s) = 2.35557 3.23608 2.83027
# Velocity P-wave (km/s) = 3.86723 6.15121 5.13775
#
# Compressibility (1/GPa) = 0.06737517
#
# Stress axis : x y z
#
# Youngs Moduli (GPa) = 20.77293 23.42940 64.36399
#
# Poissons Ratio (x) = -0.31744 1.14107
# Poissons Ratio (y) = -0.28145 0.98551
# Poissons Ratio (z) = 0.36827 0.35874
#
# Static dielectric constant tensor:
#      x y z
#    x 1.694030 0.000000 0.006340 
#    y 0.000000 1.682700 0.000000 
#    z 0.006340 0.000000 1.703130 
# 
# From -- ./inp_files/214334.got.cif
#   From: 2010.05.17/outbox.cif.g08.bks.cpg/sg15_108_cif.got.tgz:214334.got - 2010.06.03 18:47:42.
