data_PCOD9265832
_publ_section_title
;
Structure prediction by ZEFSAII (Michael W. Deem and Ramdas Pophale) SiO2 
 PCOD9265832
Probable space group: C 2/C
;
_chemical_formula_sum "Si O2"
_cell_formula_units_Z 52
_cell_length_a 16.611512
_cell_length_b 9.093062
_cell_length_c 26.338309
_cell_angle_alpha 90.000000
_cell_angle_beta 29.730556
_cell_angle_gamma 90.000000
_cell_volume 1972.969816
_symmetry_space_group_name_H-M "C 2/C"
_symmetry_group_IT_number 15
_symmetry_cell_setting 'monoclinic'
loop_
_space_group_symop_operation_xyz
x,y,z
-x,y,1/2-z
-x,-y,-z
x,-y,1/2+z
1/2+x,1/2+y,z
1/2-x,1/2+y,1/2-z
1/2-x,1/2-y,-z
1/2+x,1/2-y,1/2+z
loop_
_atom_site_type_symbol
_atom_site_label
_atom_site_fract_x
_atom_site_fract_y
_atom_site_fract_z
Si Si1 0.775621 0.290440 0.070392
Si Si2 0.641248 0.320589 0.873967
Si Si3 0.047966 0.093987 0.114365
Si Si4 0.220412 0.623941 0.678261
Si Si5 0.000000 0.975769 0.750000
Si Si6 0.853324 0.535177 0.889813
Si Si7 0.928059 0.232638 0.650367
O O1 0.883934 0.270561 0.061678
O O2 0.648135 0.416342 0.153602
O O3 0.685778 0.133790 0.106972
O O4 0.905897 0.315039 0.954416
O O5 0.523888 0.303623 0.890637
O O6 0.653763 0.488440 0.884033
O O7 0.821110 0.284199 0.755555
O O8 0.987554 0.118039 0.204988
O O9 0.979886 0.932185 0.136936
O O10 0.239177 0.080466 0.999016
O O11 0.203794 0.636682 0.626890
O O12 0.306322 0.738090 0.668909
O O13 0.042648 0.567765 0.793413
#
# Coordination Sequence:
#
# PCOD9265832 Si02
#       7
#     8   8   8   8   4   8   8
#     4  10  20  34  60  82 111 143 194 233 280 320
#     4  10  19  37  53  81 113 150 181 232 273 343
#     4  10  22  35  56  80 119 145 186 230 291 326
#     4   9  18  33  56  84 108 135 193 232 275 329
#     4  12  22  36  52  92 118 144 182 242 276 340
#     4   9  18  34  57  82 106 142 182 243 275 321
#     4  10  20  35  57  80 106 152 188 230 274 338
#
# _framework density 26.356209
#
# number of rings (size 3 to 8) (size 9 to 14) (size 15 to 20)
#    0.000    2.154    1.538    2.769    2.154    4.923 
#    0.000    4.615    0.000    0.000    0.000    0.000 
#    0.000    0.000    0.000    0.000    0.000    0.000 
#
# Total GULP energy -145447.392762 kJ/mol
# GULP energy per Si atom -5594.130491 kJ/mol
# Density = 2.629622 g / cm^3
# Si number density = 26.356209 Si / 1000 Ang^3
#
#
#
# Elastic Constant Matrix: (Units=GPa)
#
#
# Indices 1 2 3 4 5 6 
#
# 1 145.7257 20.4207 42.1615 0.0000 7.1571 0.0000
# 2 20.4207 46.6637 7.0266 -0.0001 -7.3067 0.0000
# 3 42.1615 7.0266 189.4875 -0.0007 9.3688 0.0001
# 4 0.0000 -0.0001 -0.0007 15.8206 0.0001 1.3925
# 5 7.1571 -7.3067 9.3688 0.0001 35.9656 0.0000
# 6 0.0000 0.0000 0.0001 1.3925 0.0000 39.5081
#
#
#
# Elastic Compliance Matrix: (Units=1/GPa)
#
#
# Indices 1 2 3 4 5 6 
#
# 1 0.007891 -0.003518 -0.001532 0.000000 -0.001886 0.000000
# 2 -0.003518 0.023913 -0.000384 0.000000 0.005658 0.000000
# 3 -0.001532 -0.000384 0.005695 0.000000 -0.001256 0.000000
# 4 0.000000 0.000000 0.000000 0.063406 0.000000 -0.002235
# 5 -0.001886 0.005658 -0.001256 0.000000 0.029656 0.000000
# 6 0.000000 0.000000 0.000000 -0.002235 0.000000 0.025390
#
#
# Mechanical properties :
#
#
# Convention : Reuss Voigt Hill
#
# Bulk Modulus (GPa) = 37.54962 57.89938 47.72450
# Shear Modulus (GPa) = 28.45834 39.07672 33.76753
#
# Velocity S-wave (km/s) = 3.28953 3.85468 3.58327
# Velocity P-wave (km/s) = 5.35779 6.46739 5.93856
#
# Compressibility (1/GPa) = 0.02663143
#
# Stress axis : x y z
#
# Youngs Moduli (GPa) = 126.72579 41.81805 175.60361
#
# Poissons Ratio (x) = 0.14711 0.26904
# Poissons Ratio (y) = 0.44580 0.06739
# Poissons Ratio (z) = 0.19416 0.01605
#
# Static dielectric constant tensor:
#      x y z
#    x 2.109140 0.000000 -0.023430 
#    y 0.000000 2.087970 0.000000 
#    z -0.023430 0.000000 2.033750 
# 
# From -- ./inp_files/96958.got.cif
#   From: 2010.05.17/outbox.cif.g08.bks.cpg/sg15_49_cif.got.tgz:96958.got - 2010.06.03 18:47:42.
