data_PCOD9265181
_publ_section_title
;
Structure prediction by ZEFSAII (Michael W. Deem and Ramdas Pophale) SiO2 
 PCOD9265181
Probable space group: C 2/C
;
_chemical_formula_sum "Si O2"
_cell_formula_units_Z 36
_cell_length_a 13.264048
_cell_length_b 13.865593
_cell_length_c 8.037554
_cell_angle_alpha 90.000000
_cell_angle_beta 99.961177
_cell_angle_gamma 90.000000
_cell_volume 1455.933977
_symmetry_space_group_name_H-M "C 2/C"
_symmetry_group_IT_number 15
_symmetry_cell_setting 'monoclinic'
loop_
_space_group_symop_operation_xyz
x,y,z
-x,y,1/2-z
-x,-y,-z
x,-y,1/2+z
1/2+x,1/2+y,z
1/2-x,1/2+y,1/2-z
1/2-x,1/2-y,-z
1/2+x,1/2-y,1/2+z
loop_
_atom_site_type_symbol
_atom_site_label
_atom_site_fract_x
_atom_site_fract_y
_atom_site_fract_z
Si Si1 0.290961 0.957473 0.157508
Si Si2 0.421016 0.912085 0.506578
Si Si3 0.389198 0.211141 0.499928
Si Si4 0.000000 0.158806 0.250000
Si Si5 0.573619 0.403589 0.114782
O O1 0.340685 0.912478 0.334906
O O2 0.318484 0.880648 0.017415
O O3 0.170990 0.973599 0.138146
O O4 0.354217 0.055966 0.144216
O O5 0.497718 0.823319 0.525739
O O6 0.500000 0.000000 0.500000
O O7 0.406654 0.268216 0.680638
O O8 0.366910 0.298477 0.368956
O O9 0.991062 0.098306 0.076750
O O10 0.500000 0.409217 0.250000
#
# Coordination Sequence:
#
# PCOD9265181 Si02
#       5
#     8   8   8   4   8
#     4  11  20  36  58  90 124 162 207 248 313 380
#     4  10  19  36  58  88 124 157 196 256 312 368
#     4   9  17  36  61  88 123 155 202 267 310 359
#     4   8  18  38  60  84 126 156 196 274 304 348
#     4  10  21  38  61  87 122 165 209 252 305 369
#
# _framework density 24.726395
#
# number of rings (size 3 to 8) (size 9 to 14) (size 15 to 20)
#    1.333    0.889    2.222    2.667    0.000    3.556 
#    4.000    5.556    0.000    0.000    0.000    0.000 
#    0.000    0.000    0.000    0.000    0.000    0.000 
#
# Total GULP energy -100302.161078 kJ/mol
# GULP energy per Si atom -5572.342282 kJ/mol
# Density = 2.467012 g / cm^3
# Si number density = 24.726395 Si / 1000 Ang^3
#
#
#
# Elastic Constant Matrix: (Units=GPa)
#
#
# Indices 1 2 3 4 5 6 
#
# 1 175.9899 23.7598 50.8604 0.0000 -9.9257 0.0000
# 2 23.7598 33.3547 11.2924 0.0000 7.7559 0.0000
# 3 50.8604 11.2924 124.5289 0.0000 -11.5020 0.0000
# 4 0.0000 0.0000 0.0000 23.8635 0.0000 4.6759
# 5 -9.9257 7.7559 -11.5020 0.0000 23.2332 0.0000
# 6 0.0000 0.0000 0.0000 4.6759 0.0000 32.5927
#
#
#
# Elastic Compliance Matrix: (Units=1/GPa)
#
#
# Indices 1 2 3 4 5 6 
#
# 1 0.007227 -0.005319 -0.002117 0.000000 0.003815 0.000000
# 2 -0.005319 0.038590 -0.002858 0.000000 -0.016569 0.000000
# 3 -0.002117 -0.002858 0.009597 0.000000 0.004801 0.000000
# 4 0.000000 0.000000 0.000000 0.043117 0.000000 -0.006186
# 5 0.003815 -0.016569 0.004801 0.000000 0.052580 0.000000
# 6 0.000000 0.000000 0.000000 -0.006186 0.000000 0.031569
#
#
# Mechanical properties :
#
#
# Convention : Reuss Voigt Hill
#
# Bulk Modulus (GPa) = 28.71253 56.18875 42.45064
# Shear Modulus (GPa) = 23.26925 32.46861 27.86893
#
# Velocity S-wave (km/s) = 3.07101 3.62762 3.36086
# Velocity P-wave (km/s) = 4.92058 6.34978 5.68031
#
# Compressibility (1/GPa) = 0.03482800
#
# Stress axis : x y z
#
# Youngs Moduli (GPa) = 138.36668 25.91367 104.19397
#
# Poissons Ratio (x) = 0.13782 0.22059
# Poissons Ratio (y) = 0.73591 0.29774
# Poissons Ratio (z) = 0.29293 0.07405
#
# Static dielectric constant tensor:
#      x y z
#    x 1.948910 0.000000 -0.039920 
#    y 0.000000 2.130970 0.000000 
#    z -0.039920 0.000000 2.009370 
# 
# From -- ./inp_files/37582.got.cif
#   From: 2010.05.17/outbox.cif.g08.bks.cpg/sg15_19_cif.got.tgz:37582.got - 2010.06.03 18:47:42.
