data_PCOD9265794
_publ_section_title
;
Structure prediction by ZEFSAII (Michael W. Deem and Ramdas Pophale) SiO2 
 PCOD9265794
Probable space group: C 2/C
;
_chemical_formula_sum "Si O2"
_cell_formula_units_Z 36
_cell_length_a 8.358768
_cell_length_b 11.988206
_cell_length_c 14.374998
_cell_angle_alpha 90.000000
_cell_angle_beta 111.885253
_cell_angle_gamma 90.000000
_cell_volume 1336.658665
_symmetry_space_group_name_H-M "C 2/C"
_symmetry_group_IT_number 15
_symmetry_cell_setting 'monoclinic'
loop_
_space_group_symop_operation_xyz
x,y,z
-x,y,1/2-z
-x,-y,-z
x,-y,1/2+z
1/2+x,1/2+y,z
1/2-x,1/2+y,1/2-z
1/2-x,1/2-y,-z
1/2+x,1/2-y,1/2+z
loop_
_atom_site_type_symbol
_atom_site_label
_atom_site_fract_x
_atom_site_fract_y
_atom_site_fract_z
Si Si1 0.500000 0.807401 0.750000
Si Si2 0.215193 0.855206 0.401291
Si Si3 0.778415 0.051580 0.390274
Si Si4 0.920907 0.389269 0.036002
Si Si5 0.887865 0.907615 0.646583
O O1 0.444020 0.724666 0.655922
O O2 0.335925 0.888026 0.713829
O O3 0.226275 0.880493 0.513163
O O4 0.407899 0.817274 0.411224
O O5 0.182752 0.970543 0.338320
O O6 0.973255 0.052728 0.399850
O O7 0.680814 0.937428 0.397163
O O8 0.772653 0.345127 0.934461
O O9 0.000000 0.500000 0.000000
O O10 0.000000 0.850466 0.750000
#
# Coordination Sequence:
#
# PCOD9265794 Si02
#       5
#     4   8   8   8   8
#     4  12  24  34  62  86 128 158 188 232 306 370
#     4  10  21  41  60  86 121 154 193 248 296 341
#     4  10  22  36  63  88 114 156 200 243 289 348
#     4   8  18  37  61  84 112 148 196 251 279 332
#     4  10  19  36  67  85 112 154 209 242 282 343
#
# _framework density 26.932831
#
# number of rings (size 3 to 8) (size 9 to 14) (size 15 to 20)
#    0.000    2.667    1.111    3.333    9.333    0.000 
#    0.000    1.111    4.889    0.000    0.000    0.000 
#    0.000    0.000    0.000    0.000    0.000    0.000 
#
# Total GULP energy -100517.795202 kJ/mol
# GULP energy per Si atom -5584.321956 kJ/mol
# Density = 2.687153 g / cm^3
# Si number density = 26.932831 Si / 1000 Ang^3
#
#
#
# Elastic Constant Matrix: (Units=GPa)
#
#
# Indices 1 2 3 4 5 6 
#
# 1 159.3019 11.0565 58.0562 0.0000 28.8194 0.0000
# 2 11.0565 70.3074 37.7039 0.0000 7.9207 0.0000
# 3 58.0562 37.7039 155.4209 0.0000 46.3941 0.0000
# 4 0.0000 0.0000 0.0000 37.5629 0.0000 4.7207
# 5 28.8194 7.9207 46.3941 0.0000 51.4118 0.0000
# 6 0.0000 0.0000 0.0000 4.7207 0.0000 15.7079
#
#
#
# Elastic Compliance Matrix: (Units=1/GPa)
#
#
# Indices 1 2 3 4 5 6 
#
# 1 0.007461 0.000246 -0.002172 0.000000 -0.002260 0.000000
# 2 0.000246 0.016438 -0.004493 0.000000 0.001384 0.000000
# 3 -0.002172 -0.004493 0.010628 0.000000 -0.007681 0.000000
# 4 0.000000 0.000000 0.000000 0.027667 0.000000 -0.008315
# 5 -0.002260 0.001384 -0.007681 0.000000 0.027436 0.000000
# 6 0.000000 0.000000 0.000000 -0.008315 0.000000 0.066161
#
#
# Mechanical properties :
#
#
# Convention : Reuss Voigt Hill
#
# Bulk Modulus (GPa) = 46.10443 66.51816 56.31129
# Shear Modulus (GPa) = 28.43199 39.48408 33.95803
#
# Velocity S-wave (km/s) = 3.25262 3.83302 3.55469
# Velocity P-wave (km/s) = 5.59120 6.65889 6.14826
#
# Compressibility (1/GPa) = 0.02168989
#
# Stress axis : x y z
#
# Youngs Moduli (GPa) = 134.03506 60.83469 94.08871
#
# Poissons Ratio (x) = -0.01497 0.20435
# Poissons Ratio (y) = -0.03299 0.42271
# Poissons Ratio (z) = 0.29111 0.27331
#
# Static dielectric constant tensor:
#      x y z
#    x 2.123800 0.000000 -0.017810 
#    y 0.000000 2.222250 0.000000 
#    z -0.017810 0.000000 2.143460 
# 
# From -- ./inp_files/188583.got.cif
#   From: 2010.05.17/outbox.cif.g08.bks.cpg/sg15_95_cif.got.tgz:188583.got - 2010.06.03 18:47:42.
