data_PCOD9265844
_publ_section_title
;
Structure prediction by ZEFSAII (Michael W. Deem and Ramdas Pophale) SiO2 
 PCOD9265844
Probable space group: C 2/C
;
_chemical_formula_sum "Si O2"
_cell_formula_units_Z 56
_cell_length_a 24.671966
_cell_length_b 16.707119
_cell_length_c 9.296754
_cell_angle_alpha 90.000000
_cell_angle_beta 56.901834
_cell_angle_gamma 90.000000
_cell_volume 3210.287619
_symmetry_space_group_name_H-M "C 2/C"
_symmetry_group_IT_number 15
_symmetry_cell_setting 'monoclinic'
loop_
_space_group_symop_operation_xyz
x,y,z
-x,y,1/2-z
-x,-y,-z
x,-y,1/2+z
1/2+x,1/2+y,z
1/2-x,1/2+y,1/2-z
1/2-x,1/2-y,-z
1/2+x,1/2-y,1/2+z
loop_
_atom_site_type_symbol
_atom_site_label
_atom_site_fract_x
_atom_site_fract_y
_atom_site_fract_z
Si Si1 0.886282 0.663473 0.247246
Si Si2 0.749779 0.587074 0.416908
Si Si3 0.762438 0.904264 0.088636
Si Si4 0.188054 0.809078 0.255908
Si Si5 0.993949 0.413871 0.085503
Si Si6 0.371674 0.839435 0.109509
Si Si7 0.788596 0.809162 0.768232
O O1 0.826144 0.605617 0.290479
O O2 0.867508 0.754213 0.230082
O O3 0.892159 0.656854 0.412017
O O4 0.948475 0.637437 0.068345
O O5 0.736779 0.494714 0.466586
O O6 0.726063 0.648206 0.572798
O O7 0.709588 0.613092 0.335051
O O8 0.819825 0.878828 0.114629
O O9 0.693948 0.890794 0.269575
O O10 0.766404 0.841550 0.953195
O O11 0.234372 0.745755 0.270114
O O12 0.926697 0.373875 0.133144
O O13 0.000000 0.419803 0.250000
O O14 0.000000 0.500000 0.000000
O O15 0.350880 0.748239 0.177960
#
# Coordination Sequence:
#
# PCOD9265844 Si02
#       7
#     8   8   8   8   8   8   8
#     4  11  21  39  61  76 118 159 192 231 279 347
#     4  11  19  35  56  88 118 153 186 232 295 340
#     4  11  22  30  58  89 123 145 189 241 288 335
#     4  10  19  37  54  82 114 154 192 226 289 350
#     4  12  28  42  60  85 114 150 196 237 278 335
#     4  11  21  40  56  81 117 158 193 229 282 340
#     4  10  20  33  56  84 116 154 189 235 284 348
#
# _framework density 17.443919999999999
#
# number of rings (size 3 to 8) (size 9 to 14) (size 15 to 20)
#    0.000    1.143    4.286    5.571    6.000    0.000 
#    0.000    0.000    0.000    0.000    0.000    6.000 
#    0.000    0.000    0.000    0.000    0.000    0.000 
#
# Total GULP energy -156118.133368 kJ/mol
# GULP energy per Si atom -5575.647620 kJ/mol
# Density = 1.740422 g / cm^3
# Si number density = 17.443920 Si / 1000 Ang^3
#
#
#
# Elastic Constant Matrix: (Units=GPa)
#
#
# Indices 1 2 3 4 5 6 
#
# 1 84.0259 32.0384 37.8432 0.0000 15.6656 0.0000
# 2 32.0384 82.2329 26.1351 0.0000 -0.1551 0.0000
# 3 37.8432 26.1351 108.5758 0.0000 20.1582 0.0000
# 4 0.0000 0.0000 0.0000 25.7709 0.0000 8.4312
# 5 15.6656 -0.1551 20.1582 0.0000 26.9849 0.0000
# 6 0.0000 0.0000 0.0000 8.4312 0.0000 22.8316
#
#
#
# Elastic Compliance Matrix: (Units=1/GPa)
#
#
# Indices 1 2 3 4 5 6 
#
# 1 0.016831 -0.005573 -0.003140 0.000000 -0.007457 0.000000
# 2 -0.005573 0.015203 -0.002710 0.000000 0.005347 0.000000
# 3 -0.003140 -0.002710 0.012332 0.000000 -0.007405 0.000000
# 4 0.000000 0.000000 0.000000 0.044136 0.000000 -0.016298
# 5 -0.007457 0.005347 -0.007405 0.000000 0.046949 0.000000
# 6 0.000000 0.000000 0.000000 -0.016298 0.000000 0.049818
#
#
# Mechanical properties :
#
#
# Convention : Reuss Voigt Hill
#
# Bulk Modulus (GPa) = 46.47053 51.87421 49.17237
# Shear Modulus (GPa) = 23.22476 27.03865 25.13170
#
# Velocity S-wave (km/s) = 3.65279 3.94132 3.79979
# Velocity P-wave (km/s) = 6.66995 7.10734 6.89212
#
# Compressibility (1/GPa) = 0.02151901
#
# Stress axis : x y z
#
# Youngs Moduli (GPa) = 59.41524 65.77518 81.09225
#
# Poissons Ratio (x) = 0.36659 0.25464
# Poissons Ratio (y) = 0.33114 0.21974
# Poissons Ratio (z) = 0.18657 0.17823
#
# Static dielectric constant tensor:
#      x y z
#    x 1.621910 0.000000 0.041210 
#    y 0.000000 1.635310 0.000000 
#    z 0.041210 0.000000 1.625140 
# 
# From -- ./inp_files/61813.got.cif
#   From: 2010.05.17/outbox.cif.g08.bks.cpg/sg15_31_cif.got.tgz:61813.got - 2010.06.03 18:47:42.
