data_PCOD9265931
_publ_section_title
;
Structure prediction by ZEFSAII (Michael W. Deem and Ramdas Pophale) SiO2 
 PCOD9265931
Probable space group: C 2/C
;
_chemical_formula_sum "Si O2"
_cell_formula_units_Z 60
_cell_length_a 26.313474
_cell_length_b 17.559387
_cell_length_c 9.101134
_cell_angle_alpha 90.000000
_cell_angle_beta 125.193650
_cell_angle_gamma 90.000000
_cell_volume 3436.497810
_symmetry_space_group_name_H-M "C 2/C"
_symmetry_group_IT_number 15
_symmetry_cell_setting 'monoclinic'
loop_
_space_group_symop_operation_xyz
x,y,z
-x,y,1/2-z
-x,-y,-z
x,-y,1/2+z
1/2+x,1/2+y,z
1/2-x,1/2+y,1/2-z
1/2-x,1/2-y,-z
1/2+x,1/2-y,1/2+z
loop_
_atom_site_type_symbol
_atom_site_label
_atom_site_fract_x
_atom_site_fract_y
_atom_site_fract_z
Si Si1 0.304314 0.902718 0.526058
Si Si2 0.135893 0.954896 0.043160
Si Si3 0.000000 0.819181 0.250000
Si Si4 0.444988 0.461447 0.319894
Si Si5 0.258306 0.705023 0.166217
Si Si6 0.319878 0.690371 0.770202
Si Si7 0.627453 0.755776 0.942342
Si Si8 0.264004 0.041897 0.272402
O O1 0.240760 0.855703 0.386819
O O2 0.358387 0.844184 0.569888
O O3 0.299083 0.928892 0.685781
O O4 0.301837 0.977555 0.421487
O O5 0.115585 0.960471 0.178699
O O6 0.148098 0.864628 0.055636
O O7 0.198152 0.002838 0.118194
O O8 0.079117 0.989394 0.857188
O O9 0.028434 0.879253 0.180416
O O10 0.059106 0.766617 0.383915
O O11 0.500000 0.500000 0.500000
O O12 0.205500 0.735998 0.188943
O O13 0.322899 0.726390 0.354456
O O14 0.251570 0.614085 0.149818
O O15 0.250000 0.750000 0.000000
O O16 0.357587 0.713845 0.688242
#
# Coordination Sequence:
#
# PCOD9265931 Si02
#       8
#     8   8   4   8   8   8   8   8
#     4  10  21  35  58  87 116 147 192 245 306 362
#     4  11  22  34  56  82 121 153 194 236 294 362
#     4  12  24  38  64  78 112 176 210 236 284 342
#     4  12  23  36  51  83 118 160 202 237 274 350
#     4  11  23  34  58  93 124 147 194 251 309 364
#     4  10  19  37  58  81 117 160 185 246 302 353
#     4  11  21  42  58  82 119 159 209 241 292 362
#     4  11  21  35  58  88 117 152 185 242 320 361
#
# _framework density 17.459637000000001
#
# number of rings (size 3 to 8) (size 9 to 14) (size 15 to 20)
#    0.000    1.067    5.333    3.200    7.467    0.000 
#    0.000    0.000    0.000    0.800    0.000    0.000 
#    0.000    0.000    0.000    0.000    0.000    0.000 
#
# Total GULP energy -167293.029606 kJ/mol
# GULP energy per Si atom -5576.434320 kJ/mol
# Density = 1.741990 g / cm^3
# Si number density = 17.459637 Si / 1000 Ang^3
#
#
#
# Elastic Constant Matrix: (Units=GPa)
#
#
# Indices 1 2 3 4 5 6 
#
# 1 63.9260 32.8264 40.6484 0.0000 8.8843 0.0000
# 2 32.8264 136.9021 57.8320 0.0000 6.8818 0.0000
# 3 40.6484 57.8320 76.6259 0.0000 2.3068 0.0000
# 4 0.0000 0.0000 0.0000 16.2147 0.0000 2.3825
# 5 8.8843 6.8818 2.3068 0.0000 22.9583 0.0000
# 6 0.0000 0.0000 0.0000 2.3825 0.0000 30.1418
#
#
#
# Elastic Compliance Matrix: (Units=1/GPa)
#
#
# Indices 1 2 3 4 5 6 
#
# 1 0.025128 -0.000117 -0.012989 0.000000 -0.008384 0.000000
# 2 -0.000117 0.010858 -0.008061 0.000000 -0.002400 0.000000
# 3 -0.012989 -0.008061 0.025879 0.000000 0.004843 0.000000
# 4 0.000000 0.000000 0.000000 0.062397 0.000000 -0.004932
# 5 -0.008384 -0.002400 0.004843 0.000000 0.047034 0.000000
# 6 0.000000 0.000000 0.000000 -0.004932 0.000000 0.033566
#
#
# Mechanical properties :
#
#
# Convention : Reuss Voigt Hill
#
# Bulk Modulus (GPa) = 51.20012 60.00752 55.60382
# Shear Modulus (GPa) = 19.70779 23.60611 21.65695
#
# Velocity S-wave (km/s) = 3.36335 3.68100 3.52575
# Velocity P-wave (km/s) = 6.66868 7.24639 6.96353
#
# Compressibility (1/GPa) = 0.01953121
#
# Stress axis : x y z
#
# Youngs Moduli (GPa) = 39.79703 92.09530 38.64124
#
# Poissons Ratio (x) = 0.01073 0.50192
# Poissons Ratio (y) = 0.00464 0.31149
# Poissons Ratio (z) = 0.51693 0.74238
#
# Static dielectric constant tensor:
#      x y z
#    x 1.640300 0.000000 -0.022310 
#    y 0.000000 1.643560 0.000000 
#    z -0.022310 0.000000 1.591600 
# 
# From -- ./inp_files/67034.got.cif
#   From: 2010.05.17/outbox.cif.g08.bks.cpg/sg15_34_cif.got.tgz:67034.got - 2010.06.03 18:47:42.
