data_PCOD9265900
_publ_section_title
;
Structure prediction by ZEFSAII (Michael W. Deem and Ramdas Pophale) SiO2 
 PCOD9265900
Probable space group: C 2/C
;
_chemical_formula_sum "Si O2"
_cell_formula_units_Z 52
_cell_length_a 25.406059
_cell_length_b 5.889777
_cell_length_c 15.782834
_cell_angle_alpha 90.000000
_cell_angle_beta 89.434994
_cell_angle_gamma 90.000000
_cell_volume 2361.565667
_symmetry_space_group_name_H-M "C 2/C"
_symmetry_group_IT_number 15
_symmetry_cell_setting 'monoclinic'
loop_
_space_group_symop_operation_xyz
x,y,z
-x,y,1/2-z
-x,-y,-z
x,-y,1/2+z
1/2+x,1/2+y,z
1/2-x,1/2+y,1/2-z
1/2-x,1/2-y,-z
1/2+x,1/2-y,1/2+z
loop_
_atom_site_type_symbol
_atom_site_label
_atom_site_fract_x
_atom_site_fract_y
_atom_site_fract_z
Si Si1 0.368743 0.148620 0.305355
Si Si2 0.500000 0.598929 0.250000
Si Si3 0.846901 0.024205 0.655602
Si Si4 0.938305 0.248049 0.539298
Si Si5 0.946261 0.897664 0.398596
Si Si6 0.917958 0.377844 0.155759
Si Si7 0.259054 0.929167 0.295612
O O1 0.349492 0.364763 0.249562
O O2 0.398115 0.224772 0.389977
O O3 0.409034 0.029471 0.239332
O O4 0.318744 0.985838 0.321313
O O5 0.457741 0.455608 0.300806
O O6 0.469108 0.735311 0.179234
O O7 0.864627 0.765221 0.652940
O O8 0.786652 0.068290 0.632117
O O9 0.892575 0.136612 0.598308
O O10 0.929512 0.506956 0.565880
O O11 0.998225 0.195619 0.567651
O O12 0.932486 0.126215 0.449648
O O13 0.244328 0.171062 0.244660
#
# Coordination Sequence:
#
# PCOD9265900 Si02
#       7
#     8   4   8   8   8   8   8
#     4  10  20  36  59  86 116 152 205 255 302 358
#     4  12  20  34  62  86 116 146 212 252 302 360
#     4  10  19  37  57  84 115 153 197 252 300 360
#     4  10  23  38  55  79 126 158 192 238 317 377
#     4  11  21  39  55  85 118 158 193 249 303 376
#     4  11  19  35  58  84 112 153 192 248 300 364
#     4  10  20  35  62  93 121 156 212 268 313 358
#
# _framework density 22.019292
#
# number of rings (size 3 to 8) (size 9 to 14) (size 15 to 20)
#    0.000    1.538    4.615    1.846    0.000    0.615 
#    2.769    0.769    0.000    0.923    0.000    0.000 
#    0.000    0.000    0.000    0.000    0.000    0.000 
#
# Total GULP energy -144791.600314 kJ/mol
# GULP energy per Si atom -5568.907704 kJ/mol
# Density = 2.196917 g / cm^3
# Si number density = 22.019292 Si / 1000 Ang^3
#
#
#
# Elastic Constant Matrix: (Units=GPa)
#
#
# Indices 1 2 3 4 5 6 
#
# 1 106.2809 11.5880 17.9080 0.0000 -10.2333 0.0000
# 2 11.5880 58.1661 5.6316 0.0000 -0.2083 0.0000
# 3 17.9080 5.6316 51.9070 0.0000 -2.5294 0.0000
# 4 0.0000 0.0000 0.0000 18.3854 0.0000 -15.4439
# 5 -10.2333 -0.2083 -2.5294 0.0000 17.0150 0.0000
# 6 0.0000 0.0000 0.0000 -15.4439 0.0000 26.8955
#
#
#
# Elastic Compliance Matrix: (Units=1/GPa)
#
#
# Indices 1 2 3 4 5 6 
#
# 1 0.010720 -0.001803 -0.003213 0.000000 0.005947 0.000000
# 2 -0.001803 0.017678 -0.001348 0.000000 -0.001068 0.000000
# 3 -0.003213 -0.001348 0.020574 0.000000 0.001110 0.000000
# 4 0.000000 0.000000 0.000000 0.105073 0.000000 0.060334
# 5 0.005947 -0.001068 0.001110 0.000000 0.062501 0.000000
# 6 0.000000 0.000000 0.000000 0.060334 0.000000 0.071826
#
#
# Mechanical properties :
#
#
# Convention : Reuss Voigt Hill
#
# Bulk Modulus (GPa) = 27.59098 31.84547 29.71822
# Shear Modulus (GPa) = 15.96526 24.54092 20.25309
#
# Velocity S-wave (km/s) = 2.69561 3.34206 3.03609
# Velocity P-wave (km/s) = 4.71657 5.42093 5.08097
#
# Compressibility (1/GPa) = 0.03624373
#
# Stress axis : x y z
#
# Youngs Moduli (GPa) = 93.28667 56.56724 48.60507
#
# Poissons Ratio (x) = 0.10200 0.15616
# Poissons Ratio (y) = 0.16822 0.06551
# Poissons Ratio (z) = 0.29972 0.07625
#
# Static dielectric constant tensor:
#      x y z
#    x 1.870460 0.000000 0.012110 
#    y 0.000000 2.016950 0.000000 
#    z 0.012110 0.000000 1.794650 
# 
# From -- ./inp_files/220913.got.cif
#   From: 2010.05.17/outbox.cif.g08.bks.cpg/sg15_111_cif.got.tgz:220913.got - 2010.06.03 18:47:42.
