data_PCOD9265817
_publ_section_title
;
Structure prediction by ZEFSAII (Michael W. Deem and Ramdas Pophale) SiO2 
 PCOD9265817
Probable space group: C 2/C
;
_chemical_formula_sum "Si O2"
_cell_formula_units_Z 48
_cell_length_a 8.867987
_cell_length_b 29.319454
_cell_length_c 15.098862
_cell_angle_alpha 90.000000
_cell_angle_beta 34.616810
_cell_angle_gamma 90.000000
_cell_volume 2230.173406
_symmetry_space_group_name_H-M "C 2/C"
_symmetry_group_IT_number 15
_symmetry_cell_setting 'monoclinic'
loop_
_space_group_symop_operation_xyz
x,y,z
-x,y,1/2-z
-x,-y,-z
x,-y,1/2+z
1/2+x,1/2+y,z
1/2-x,1/2+y,1/2-z
1/2-x,1/2-y,-z
1/2+x,1/2-y,1/2+z
loop_
_atom_site_type_symbol
_atom_site_label
_atom_site_fract_x
_atom_site_fract_y
_atom_site_fract_z
Si Si1 0.205253 0.883764 0.382038
Si Si2 0.879042 0.128331 0.212145
Si Si3 0.042414 0.815876 0.132875
Si Si4 0.569900 0.522255 0.871189
Si Si5 0.595178 0.216404 0.304464
Si Si6 0.007946 0.450110 0.854512
O O1 0.500000 0.864655 0.250000
O O2 0.221682 0.931210 0.321275
O O3 0.069282 0.890686 0.542921
O O4 0.021255 0.850539 0.413869
O O5 0.825151 0.181453 0.217741
O O6 0.607317 0.099403 0.336552
O O7 0.000000 0.122606 0.250000
O O8 0.000000 0.836665 0.250000
O O9 0.860965 0.770445 0.209181
O O10 0.341198 0.797120 0.985641
O O11 0.765866 0.486870 0.729324
O O12 0.500000 0.500000 0.000000
O O13 0.282329 0.535465 0.971246
O O14 0.500000 0.208141 0.250000
O O15 0.000000 0.448877 0.750000
#
# Coordination Sequence:
#
# PCOD9265817 Si02
#       6
#     8   8   8   8   8   8
#     4  12  24  41  62  94 133 170 208 266 326 373
#     4  12  25  40  63  93 131 172 216 258 314 388
#     4  10  23  40  66  96 122 159 216 270 321 382
#     4  10  19  36  69  92 121 167 219 258 318 379
#     4  10  20  43  68  89 121 168 216 262 318 385
#     4  10  19  38  65  93 120 170 215 262 314 381
#
# _framework density 21.522988999999999
#
# number of rings (size 3 to 8) (size 9 to 14) (size 15 to 20)
#    0.000    1.333    5.000    3.000    2.333    0.667 
#    0.000    3.333    0.000    0.000    0.000    0.000 
#    0.000    0.000    0.000    0.000    0.000    0.000 
#
# Total GULP energy -134112.091298 kJ/mol
# GULP energy per Si atom -5588.003804 kJ/mol
# Density = 2.147400 g / cm^3
# Si number density = 21.522989 Si / 1000 Ang^3
#
#
#
# Elastic Constant Matrix: (Units=GPa)
#
#
# Indices 1 2 3 4 5 6 
#
# 1 73.0537 18.3397 20.7815 0.0000 5.0715 0.0000
# 2 18.3397 73.7576 -14.0681 0.0000 4.0313 0.0000
# 3 20.7815 -14.0681 44.4557 0.0000 4.1343 0.0000
# 4 0.0000 0.0000 0.0000 24.0487 0.0000 -10.0068
# 5 5.0715 4.0313 4.1343 0.0000 31.3898 0.0000
# 6 0.0000 0.0000 0.0000 -10.0068 0.0000 7.8688
#
#
#
# Elastic Compliance Matrix: (Units=1/GPa)
#
#
# Indices 1 2 3 4 5 6 
#
# 1 0.018405 -0.006560 -0.010612 0.000000 -0.000733 0.000000
# 2 -0.006560 0.016961 0.008644 0.000000 -0.002257 0.000000
# 3 -0.010612 0.008644 0.030508 0.000000 -0.003414 0.000000
# 4 0.000000 0.000000 0.000000 0.088315 0.000000 0.112310
# 5 -0.000733 -0.002257 -0.003414 0.000000 0.032715 0.000000
# 6 0.000000 0.000000 0.000000 0.112310 0.000000 0.269907
#
#
# Mechanical properties :
#
#
# Convention : Reuss Voigt Hill
#
# Bulk Modulus (GPa) = 20.48410 26.81925 23.65168
# Shear Modulus (GPa) = 10.20117 23.74240 16.97178
#
# Velocity S-wave (km/s) = 2.17944 3.32493 2.81115
# Velocity P-wave (km/s) = 3.98387 5.21804 4.64216
#
# Compressibility (1/GPa) = 0.04881835
#
# Stress axis : x y z
#
# Youngs Moduli (GPa) = 54.33287 58.95811 32.77855
#
# Poissons Ratio (x) = 0.38678 0.34783
# Poissons Ratio (y) = 0.35644 -0.28334
# Poissons Ratio (z) = 0.57656 -0.50963
#
# Static dielectric constant tensor:
#      x y z
#    x 1.762500 0.000000 -0.009330 
#    y 0.000000 1.797240 0.000000 
#    z -0.009330 0.000000 1.821400 
# 
# From -- ./inp_files/138932.got.cif
#   From: 2010.05.17/outbox.cif.g08.bks.cpg/sg15_70_cif.got.tgz:138932.got - 2010.06.03 18:47:42.
