data_PCOD9265923
_publ_section_title
;
Structure prediction by ZEFSAII (Michael W. Deem and Ramdas Pophale) SiO2 
 PCOD9265923
Probable space group: C 2/C
;
_chemical_formula_sum "Si O2"
_cell_formula_units_Z 56
_cell_length_a 14.371017
_cell_length_b 9.875255
_cell_length_c 20.489272
_cell_angle_alpha 90.000000
_cell_angle_beta 116.779754
_cell_angle_gamma 90.000000
_cell_volume 2595.911112
_symmetry_space_group_name_H-M "C 2/C"
_symmetry_group_IT_number 15
_symmetry_cell_setting 'monoclinic'
loop_
_space_group_symop_operation_xyz
x,y,z
-x,y,1/2-z
-x,-y,-z
x,-y,1/2+z
1/2+x,1/2+y,z
1/2-x,1/2+y,1/2-z
1/2-x,1/2-y,-z
1/2+x,1/2-y,1/2+z
loop_
_atom_site_type_symbol
_atom_site_label
_atom_site_fract_x
_atom_site_fract_y
_atom_site_fract_z
Si Si1 0.643987 0.649984 0.899041
Si Si2 0.404391 0.645070 0.169332
Si Si3 0.722397 0.534817 0.165665
Si Si4 0.020285 0.644259 0.615387
Si Si5 0.727531 0.225593 0.761048
Si Si6 0.623662 0.725216 0.039253
Si Si7 0.069531 0.427044 0.833147
O O1 0.627399 0.499981 0.868314
O O2 0.764826 0.696333 0.928617
O O3 0.579757 0.766549 0.841614
O O4 0.610222 0.665947 0.963557
O O5 0.500000 0.627144 0.250000
O O6 0.443754 0.747277 0.125755
O O7 0.314653 0.711246 0.185205
O O8 0.764836 0.650021 0.228735
O O9 0.697999 0.399310 0.197580
O O10 0.632624 0.603486 0.095069
O O11 0.816372 0.512759 0.144959
O O12 0.130294 0.662685 0.689242
O O13 0.040123 0.677070 0.546353
O O14 0.976613 0.496527 0.617503
O O15 0.000000 0.469530 0.750000
#
# Coordination Sequence:
#
# PCOD9265923 Si02
#       7
#     8   8   8   8   8   8   8
#     4  10  22  38  58  80 113 150 191 231 268 333
#     4  10  20  36  58  85 113 143 181 234 289 325
#     4  10  20  35  59  81 114 145 186 229 282 339
#     4  10  19  37  58  79 115 146 178 232 290 334
#     4  10  20  34  57  87 112 146 182 235 289 335
#     4   9  22  40  57  77 115 156 187 223 280 331
#     4  11  19  34  59  86 111 140 188 237 279 329
#
# _framework density 21.572386000000002
#
# number of rings (size 3 to 8) (size 9 to 14) (size 15 to 20)
#    0.000    2.000    2.857    0.857    6.000    1.143 
#    2.571    0.714    0.000    0.000    0.000    0.000 
#    0.000    0.000    0.000    0.000    0.000    0.000 
#
# Total GULP energy -156379.895936 kJ/mol
# GULP energy per Si atom -5584.996283 kJ/mol
# Density = 2.152329 g / cm^3
# Si number density = 21.572386 Si / 1000 Ang^3
#
#
#
# Elastic Constant Matrix: (Units=GPa)
#
#
# Indices 1 2 3 4 5 6 
#
# 1 32.8540 -0.6060 6.7794 0.0000 -22.1892 0.0000
# 2 -0.6060 96.0548 17.1266 0.0000 -7.6303 0.0000
# 3 6.7794 17.1266 58.9503 0.0000 -30.7834 0.0000
# 4 0.0000 0.0000 0.0000 20.9266 0.0000 -11.2644
# 5 -22.1892 -7.6303 -30.7834 0.0000 29.3669 0.0000
# 6 0.0000 0.0000 0.0000 -11.2644 0.0000 19.9804
#
#
#
# Elastic Compliance Matrix: (Units=1/GPa)
#
#
# Indices 1 2 3 4 5 6 
#
# 1 0.169400 0.001366 0.104163 0.000000 0.237538 0.000000
# 2 0.001366 0.011006 -0.002922 0.000000 0.000829 0.000000
# 3 0.104163 -0.002922 0.102814 0.000000 0.185718 0.000000
# 4 0.000000 0.000000 0.000000 0.068606 0.000000 0.038678
# 5 0.237538 0.000829 0.185718 0.000000 0.408425 0.000000
# 6 0.000000 0.000000 0.000000 0.038678 0.000000 0.071855
#
#
# Mechanical properties :
#
#
# Convention : Reuss Voigt Hill
#
# Bulk Modulus (GPa) = 2.04736 26.05101 14.04918
# Shear Modulus (GPa) = 6.33150 25.02538 15.67844
#
# Velocity S-wave (km/s) = 1.71504 3.40967 2.69882
# Velocity P-wave (km/s) = 2.20748 5.25390 4.02966
#
# Compressibility (1/GPa) = 0.48843376
#
# Stress axis : x y z
#
# Youngs Moduli (GPa) = 5.90320 90.85836 9.72627
#
# Poissons Ratio (x) = -0.12410 -1.01311
# Poissons Ratio (y) = -0.00806 0.02842
# Poissons Ratio (z) = -0.61489 0.26546
#
# Static dielectric constant tensor:
#      x y z
#    x 1.800040 0.000000 -0.011810 
#    y 0.000000 1.801780 0.000000 
#    z -0.011810 0.000000 1.781370 
# 
# From -- ./inp_files/247027.got.cif
#   From: 2010.05.17/outbox.cif.g08.bks.cpg/sg15_124_cif.got.tgz:247027.got - 2010.06.03 18:47:42.
