data_PCOD9265849
_publ_section_title
;
Structure prediction by ZEFSAII (Michael W. Deem and Ramdas Pophale) SiO2 
 PCOD9265849
Probable space group: C 2/C
;
_chemical_formula_sum "Si O2"
_cell_formula_units_Z 56
_cell_length_a 22.153477
_cell_length_b 13.783078
_cell_length_c 20.134856
_cell_angle_alpha 90.000000
_cell_angle_beta 29.410046
_cell_angle_gamma 90.000000
_cell_volume 3019.034705
_symmetry_space_group_name_H-M "C 2/C"
_symmetry_group_IT_number 15
_symmetry_cell_setting 'monoclinic'
loop_
_space_group_symop_operation_xyz
x,y,z
-x,y,1/2-z
-x,-y,-z
x,-y,1/2+z
1/2+x,1/2+y,z
1/2-x,1/2+y,1/2-z
1/2-x,1/2-y,-z
1/2+x,1/2-y,1/2+z
loop_
_atom_site_type_symbol
_atom_site_label
_atom_site_fract_x
_atom_site_fract_y
_atom_site_fract_z
Si Si1 0.713776 0.345709 0.228702
Si Si2 0.039135 0.436495 0.787381
Si Si3 0.814477 0.056902 0.063757
Si Si4 0.599591 0.975789 0.961217
Si Si5 0.009750 0.210602 0.820719
Si Si6 0.463215 0.590129 0.488215
Si Si7 0.715897 0.342315 0.770898
O O1 0.792396 0.442826 0.144847
O O2 0.636000 0.322367 0.236622
O O3 0.619414 0.351302 0.381060
O O4 0.794465 0.256917 0.178024
O O5 0.186292 0.445220 0.649067
O O6 0.000798 0.325771 0.844243
O O7 0.000000 0.451843 0.750000
O O8 0.972539 0.509595 0.901103
O O9 0.903910 0.141366 0.951616
O O10 0.889272 0.956268 0.998045
O O11 0.776725 0.081032 0.175533
O O12 0.665365 0.872242 0.885768
O O13 0.500000 0.000000 0.000000
O O14 0.000000 0.201094 0.750000
O O15 0.500000 0.500000 0.500000
O O16 0.590881 0.642097 0.349986
#
# Coordination Sequence:
#
# PCOD9265849 Si02
#       7
#     8   8   8   8   8   8   8
#     4  12  21  35  58  85 120 153 186 248 286 341
#     4  11  25  37  54  86 124 160 190 233 290 356
#     4  11  19  40  52  76 119 153 189 238 277 335
#     4  12  22  37  56  86 119 152 195 243 290 351
#     4  11  23  34  55  84 120 165 194 216 279 367
#     4  10  19  37  55  77 111 151 188 243 286 329
#     4  11  21  34  58  84 114 150 197 240 293 333
#
# _framework density 18.548976
#
# number of rings (size 3 to 8) (size 9 to 14) (size 15 to 20)
#    0.000    0.857    8.571    0.857    4.000    1.143 
#    0.000    0.000    0.000    0.000    0.000    5.000 
#    0.000    0.000    0.000    0.000    0.000    0.000 
#
# Total GULP energy -156076.614970 kJ/mol
# GULP energy per Si atom -5574.164820 kJ/mol
# Density = 1.850676 g / cm^3
# Si number density = 18.548976 Si / 1000 Ang^3
#
#
#
# Elastic Constant Matrix: (Units=GPa)
#
#
# Indices 1 2 3 4 5 6 
#
# 1 110.6667 23.4790 30.0946 0.0000 -12.0253 0.0000
# 2 23.4790 30.6565 1.2078 0.0000 1.2283 0.0000
# 3 30.0946 1.2078 48.3744 0.0000 -7.2276 0.0000
# 4 0.0000 0.0000 0.0000 27.2008 0.0000 0.3766
# 5 -12.0253 1.2283 -7.2276 0.0000 26.2819 0.0000
# 6 0.0000 0.0000 0.0000 0.3766 0.0000 26.0971
#
#
#
# Elastic Compliance Matrix: (Units=1/GPa)
#
#
# Indices 1 2 3 4 5 6 
#
# 1 0.013859 -0.010502 -0.007654 0.000000 0.004727 0.000000
# 2 -0.010502 0.040694 0.004709 0.000000 -0.005412 0.000000
# 3 -0.007654 0.004709 0.025821 0.000000 0.003379 0.000000
# 4 0.000000 0.000000 0.000000 0.036771 0.000000 -0.000531
# 5 0.004727 -0.005412 0.003379 0.000000 0.041394 0.000000
# 6 0.000000 0.000000 0.000000 -0.000531 0.000000 0.038326
#
#
# Mechanical properties :
#
#
# Convention : Reuss Voigt Hill
#
# Bulk Modulus (GPa) = 18.69841 33.25118 25.97479
# Shear Modulus (GPa) = 20.69653 24.91038 22.80346
#
# Velocity S-wave (km/s) = 3.34395 3.66861 3.51003
# Velocity P-wave (km/s) = 5.00118 5.99249 5.51914
#
# Compressibility (1/GPa) = 0.05348049
#
# Stress axis : x y z
#
# Youngs Moduli (GPa) = 72.15352 24.57347 38.72849
#
# Poissons Ratio (x) = 0.25808 0.29641
# Poissons Ratio (y) = 0.75778 -0.18237
# Poissons Ratio (z) = 0.55224 -0.11572
#
# Static dielectric constant tensor:
#      x y z
#    x 1.639220 0.000000 -0.058080 
#    y 0.000000 2.010260 0.000000 
#    z -0.058080 0.000000 1.680630 
# 
# From -- ./inp_files/215710.got.cif
#   From: 2010.05.17/outbox.cif.g08.bks.cpg/sg15_108_cif.got.tgz:215710.got - 2010.06.03 18:47:42.
