data_PCOD9265062
_publ_section_title
;
Structure prediction by ZEFSAII (Michael W. Deem and Ramdas Pophale) SiO2 
 PCOD9265062
Probable space group: C 2/C
;
_chemical_formula_sum "Si O2"
_cell_formula_units_Z 56
_cell_length_a 14.449121
_cell_length_b 16.630653
_cell_length_c 12.642407
_cell_angle_alpha 90.000000
_cell_angle_beta 55.087463
_cell_angle_gamma 90.000000
_cell_volume 2491.199291
_symmetry_space_group_name_H-M "C 2/C"
_symmetry_group_IT_number 15
_symmetry_cell_setting 'monoclinic'
loop_
_space_group_symop_operation_xyz
x,y,z
-x,y,1/2-z
-x,-y,-z
x,-y,1/2+z
1/2+x,1/2+y,z
1/2-x,1/2+y,1/2-z
1/2-x,1/2-y,-z
1/2+x,1/2-y,1/2+z
loop_
_atom_site_type_symbol
_atom_site_label
_atom_site_fract_x
_atom_site_fract_y
_atom_site_fract_z
Si Si1 0.500000 0.471770 0.250000
Si Si2 0.195329 0.241179 0.919993
Si Si3 0.698986 0.724391 0.357672
Si Si4 0.000000 0.507253 0.750000
Si Si5 0.368467 0.428306 0.990997
Si Si6 0.783264 0.543977 0.279050
Si Si7 0.650363 0.084026 0.480469
Si Si8 0.389940 0.309503 0.369816
O O1 0.476886 0.531548 0.364000
O O2 0.400966 0.405196 0.335138
O O3 0.291393 0.236005 0.765298
O O4 0.119346 0.161512 0.972069
O O5 0.250000 0.250000 0.000000
O O6 0.130892 0.325527 0.950654
O O7 0.733720 0.632720 0.312831
O O8 0.605428 0.710329 0.508999
O O9 0.787394 0.774322 0.370821
O O10 0.108567 0.458142 0.715656
O O11 0.048374 0.560253 0.622657
O O12 0.311572 0.483268 0.117638
O O13 0.268498 0.420727 0.968068
O O14 0.830010 0.526463 0.131893
O O15 0.500000 0.269571 0.250000
#
# Coordination Sequence:
#
# PCOD9265062 Si02
#       8
#     4   8   8   4   8   8   8   8
#     4  10  20  38  60  90 128 146 198 256 298 354
#     4   9  20  39  60  81 114 161 203 234 291 357
#     4  10  19  38  62  83 120 157 191 244 301 355
#     4  10  20  32  58  86 112 146 190 242 294 346
#     4  10  20  38  58  86 115 157 194 242 298 351
#     4  10  19  36  57  85 114 148 191 242 296 343
#     4   9  20  37  57  79 117 153 192 242 288 348
#     4   9  20  37  59  89 120 148 190 242 308 353
#
# _framework density 22.479133000000001
#
# number of rings (size 3 to 8) (size 9 to 14) (size 15 to 20)
#    0.429    2.000    1.429    0.429    1.000    1.714 
#    2.571   15.714    0.000    0.000    0.000    0.000 
#    0.000    0.000    0.000    0.000    0.000    0.000 
#
# Total GULP energy -155911.891871 kJ/mol
# GULP energy per Si atom -5568.281853 kJ/mol
# Density = 2.242797 g / cm^3
# Si number density = 22.479133 Si / 1000 Ang^3
#
#
#
# Elastic Constant Matrix: (Units=GPa)
#
#
# Indices 1 2 3 4 5 6 
#
# 1 40.6573 8.1548 17.3144 0.0000 6.5902 0.0000
# 2 8.1548 68.3478 24.5843 0.0000 10.7595 0.0000
# 3 17.3144 24.5843 211.0016 0.0000 16.7072 0.0000
# 4 0.0000 0.0000 0.0000 32.6215 0.0000 4.7299
# 5 6.5902 10.7595 16.7072 0.0000 22.6408 0.0000
# 6 0.0000 0.0000 0.0000 4.7299 0.0000 11.5635
#
#
#
# Elastic Compliance Matrix: (Units=1/GPa)
#
#
# Indices 1 2 3 4 5 6 
#
# 1 0.026523 -0.001707 -0.001519 0.000000 -0.005788 0.000000
# 2 -0.001707 0.016281 -0.001257 0.000000 -0.006313 0.000000
# 3 -0.001519 -0.001257 0.005234 0.000000 -0.002823 0.000000
# 4 0.000000 0.000000 0.000000 0.032587 0.000000 -0.013329
# 5 -0.005788 -0.006313 -0.002823 0.000000 0.050936 0.000000
# 6 0.000000 0.000000 0.000000 -0.013329 0.000000 0.091931
#
#
# Mechanical properties :
#
#
# Convention : Reuss Voigt Hill
#
# Bulk Modulus (GPa) = 25.59407 46.67927 36.13667
# Shear Modulus (GPa) = 20.36805 31.36205 25.86505
#
# Velocity S-wave (km/s) = 3.01339 3.73924 3.39577
# Velocity P-wave (km/s) = 4.84952 6.28118 5.61120
#
# Compressibility (1/GPa) = 0.03907155
#
# Stress axis : x y z
#
# Youngs Moduli (GPa) = 37.70253 61.42285 191.06120
#
# Poissons Ratio (x) = 0.10484 0.29027
# Poissons Ratio (y) = 0.06436 0.24016
# Poissons Ratio (z) = 0.05728 0.07721
#
# Static dielectric constant tensor:
#      x y z
#    x 1.865380 0.000000 -0.030410 
#    y 0.000000 1.868870 0.000000 
#    z -0.030410 0.000000 1.971930 
# 
# From -- ./inp_files/106653.got.cif
#   From: 2010.05.17/outbox.cif.g08.bks.cpg/sg15_54_cif.got.tgz:106653.got - 2010.06.03 18:47:42.
