data_PCOD9265059
_publ_section_title
;
Structure prediction by ZEFSAII (Michael W. Deem and Ramdas Pophale) SiO2 
 PCOD9265059
Probable space group: C 2/C
;
_chemical_formula_sum "Si O2"
_cell_formula_units_Z 64
_cell_length_a 8.078332
_cell_length_b 22.963970
_cell_length_c 16.212132
_cell_angle_alpha 90.000000
_cell_angle_beta 80.152505
_cell_angle_gamma 90.000000
_cell_volume 2963.210481
_symmetry_space_group_name_H-M "C 2/C"
_symmetry_group_IT_number 15
_symmetry_cell_setting 'monoclinic'
loop_
_space_group_symop_operation_xyz
x,y,z
-x,y,1/2-z
-x,-y,-z
x,-y,1/2+z
1/2+x,1/2+y,z
1/2-x,1/2+y,1/2-z
1/2-x,1/2-y,-z
1/2+x,1/2-y,1/2+z
loop_
_atom_site_type_symbol
_atom_site_label
_atom_site_fract_x
_atom_site_fract_y
_atom_site_fract_z
Si Si1 0.310140 0.833314 0.799305
Si Si2 0.196780 0.789774 0.257597
Si Si3 0.081151 0.960612 0.421033
Si Si4 0.196512 0.872119 0.114916
Si Si5 0.595858 0.561107 0.317161
Si Si6 0.563091 0.283587 0.445999
Si Si7 0.312352 0.621391 0.453487
Si Si8 0.548334 0.848345 0.538431
O O1 0.500000 0.832348 0.750000
O O2 0.230011 0.770746 0.784380
O O3 0.211504 0.887945 0.773082
O O4 0.326771 0.846436 0.894785
O O5 0.246097 0.847277 0.201295
O O6 0.194044 0.787119 0.357220
O O7 0.000000 0.786924 0.250000
O O8 0.191400 0.913695 0.459659
O O9 0.934031 0.925961 0.383541
O O10 0.178735 0.007905 0.358588
O O11 0.000000 0.000000 0.500000
O O12 0.094992 0.820391 0.075838
O O13 0.361631 0.879113 0.045639
O O14 0.500000 0.532732 0.250000
O O15 0.458323 0.593052 0.386657
O O16 0.633615 0.314506 0.521156
O O17 0.500317 0.219123 0.470747
O O18 0.130381 0.621821 0.428240
#
# Coordination Sequence:
#
# PCOD9265059 Si02
#       8
#     8   8   8   8   8   8   8   8
#     4  11  20  37  59  88 125 152 202 257 305 371
#     4   9  18  34  56  85 118 154 198 247 296 370
#     4   9  20  42  58  80 114 157 208 253 294 363
#     4  10  20  34  62  88 112 162 213 246 301 368
#     4  11  24  41  64  88 117 165 206 254 312 360
#     4  10  19  36  57  84 125 167 192 240 311 368
#     4  10  23  38  58  88 126 157 206 250 304 363
#     4  12  20  34  58  91 122 157 198 250 305 364
#
# _framework density 21.598196999999999
#
# number of rings (size 3 to 8) (size 9 to 14) (size 15 to 20)
#    0.000    1.750    3.750    3.750    1.750    2.500 
#    0.000    7.500    0.000    0.000    0.000    0.000 
#    0.000    0.000    0.000    0.000    0.000    0.000 
#
# Total GULP energy -178403.882497 kJ/mol
# GULP energy per Si atom -5575.121328 kJ/mol
# Density = 2.154904 g / cm^3
# Si number density = 21.598197 Si / 1000 Ang^3
#
#
#
# Elastic Constant Matrix: (Units=GPa)
#
#
# Indices 1 2 3 4 5 6 
#
# 1 35.0686 5.5665 2.4554 0.0000 -5.6148 0.0000
# 2 5.5665 78.9088 9.5937 0.0000 -0.3955 0.0000
# 3 2.4554 9.5937 71.6286 0.0000 -3.0040 0.0000
# 4 0.0000 0.0000 0.0000 16.6794 0.0000 -0.6638
# 5 -5.6148 -0.3955 -3.0040 0.0000 23.6694 0.0000
# 6 0.0000 0.0000 0.0000 -0.6638 0.0000 11.7356
#
#
#
# Elastic Compliance Matrix: (Units=1/GPa)
#
#
# Indices 1 2 3 4 5 6 
#
# 1 0.029994 -0.002024 -0.000463 0.000000 0.007023 0.000000
# 2 -0.002024 0.013019 -0.001694 0.000000 -0.000478 0.000000
# 3 -0.000463 -0.001694 0.014274 0.000000 0.001674 0.000000
# 4 0.000000 0.000000 0.000000 0.060090 0.000000 0.003399
# 5 0.007023 -0.000478 0.001674 0.000000 0.044119 0.000000
# 6 0.000000 0.000000 0.000000 0.003399 0.000000 0.085403
#
#
# Mechanical properties :
#
#
# Convention : Reuss Voigt Hill
#
# Bulk Modulus (GPa) = 20.43981 24.53747 22.48864
# Shear Modulus (GPa) = 18.41151 21.61623 20.01387
#
# Velocity S-wave (km/s) = 2.92285 3.16703 3.04739
# Velocity P-wave (km/s) = 4.56891 4.97584 4.77671
#
# Compressibility (1/GPa) = 0.04892414
#
# Stress axis : x y z
#
# Youngs Moduli (GPa) = 33.34036 76.80922 70.05798
#
# Poissons Ratio (x) = 0.15550 0.03240
# Poissons Ratio (y) = 0.06750 0.11871
# Poissons Ratio (z) = 0.01542 0.13014
#
# Static dielectric constant tensor:
#      x y z
#    x 1.824150 0.000000 -0.004490 
#    y 0.000000 1.828550 0.000000 
#    z -0.004490 0.000000 1.868720 
# 
# From -- ./inp_files/192952.got.cif
#   From: 2010.05.17/outbox.cif.g08.bks.cpg/sg15_97_cif.got.tgz:192952.got - 2010.06.03 18:47:42.
