data_PCOD9265807
_publ_section_title
;
Structure prediction by ZEFSAII (Michael W. Deem and Ramdas Pophale) SiO2 
 PCOD9265807
Probable space group: C 2/C
;
_chemical_formula_sum "Si O2"
_cell_formula_units_Z 48
_cell_length_a 17.605334
_cell_length_b 11.393130
_cell_length_c 22.033594
_cell_angle_alpha 90.000000
_cell_angle_beta 149.963749
_cell_angle_gamma 90.000000
_cell_volume 2212.168736
_symmetry_space_group_name_H-M "C 2/C"
_symmetry_group_IT_number 15
_symmetry_cell_setting 'monoclinic'
loop_
_space_group_symop_operation_xyz
x,y,z
-x,y,1/2-z
-x,-y,-z
x,-y,1/2+z
1/2+x,1/2+y,z
1/2-x,1/2+y,1/2-z
1/2-x,1/2-y,-z
1/2+x,1/2-y,1/2+z
loop_
_atom_site_type_symbol
_atom_site_label
_atom_site_fract_x
_atom_site_fract_y
_atom_site_fract_z
Si Si1 0.712210 0.592095 0.028365
Si Si2 0.181674 0.163999 0.869847
Si Si3 0.440073 0.547149 0.393874
Si Si4 0.820346 0.473199 0.875007
Si Si5 0.103985 0.278033 0.484832
Si Si6 0.623650 0.128694 0.875262
O O1 0.738934 0.709871 0.084775
O O2 0.841453 0.496851 0.130040
O O3 0.730320 0.621153 0.970113
O O4 0.550979 0.529082 0.926827
O O5 0.000000 0.178191 0.750000
O O6 0.235945 0.069271 0.858525
O O7 0.500000 0.500000 0.500000
O O8 0.269442 0.528073 0.251086
O O9 0.474277 0.687057 0.414542
O O10 0.816335 0.346118 0.905150
O O11 0.000000 0.500000 0.000000
O O12 0.219819 0.193689 0.529826
O O13 0.070048 0.371219 0.407787
O O14 0.500000 0.194740 0.750000
#
# Coordination Sequence:
#
# PCOD9265807 Si02
#       6
#     8   8   8   8   8   8
#     4  10  22  41  67 104 130 183 233 290 346 420
#     4  11  22  44  73  97 141 182 241 291 355 426
#     4  11  26  48  69  98 147 188 240 300 359 421
#     4  12  27  46  72 104 141 191 239 293 361 436
#     4  10  23  42  65  99 131 182 231 288 356 424
#     4  10  19  36  67  99 134 166 227 289 346 413
#
# _framework density 21.698164999999999
#
# number of rings (size 3 to 8) (size 9 to 14) (size 15 to 20)
#    0.000    1.333    3.333    1.500    2.333    4.667 
#    6.000    0.000    0.000    0.000    0.000    0.000 
#    0.000    0.000    0.000    0.000    0.000    0.000 
#
# Total GULP energy -133736.617036 kJ/mol
# GULP energy per Si atom -5572.359043 kJ/mol
# Density = 2.164878 g / cm^3
# Si number density = 21.698165 Si / 1000 Ang^3
#
#
#
# Elastic Constant Matrix: (Units=GPa)
#
#
# Indices 1 2 3 4 5 6 
#
# 1 50.8665 18.4565 30.4538 0.0002 -12.4288 0.0000
# 2 18.4565 101.3395 18.7731 0.0003 3.7804 0.0002
# 3 30.4538 18.7731 128.1400 0.0005 0.0902 0.0003
# 4 0.0002 0.0003 0.0005 17.0851 0.0002 -0.6363
# 5 -12.4288 3.7804 0.0902 0.0002 32.6328 0.0000
# 6 0.0000 0.0002 0.0003 -0.6363 0.0000 13.9656
#
#
#
# Elastic Compliance Matrix: (Units=1/GPa)
#
#
# Indices 1 2 3 4 5 6 
#
# 1 0.027433 -0.004313 -0.005896 0.000000 0.010964 0.000000
# 2 -0.004313 0.010866 -0.000565 0.000000 -0.002900 0.000000
# 3 -0.005896 -0.000565 0.009289 0.000000 -0.002206 0.000000
# 4 0.000000 0.000000 0.000000 0.058630 -0.000001 0.002671
# 5 0.010964 -0.002900 -0.002206 -0.000001 0.035162 0.000000
# 6 0.000000 0.000000 0.000000 0.002671 0.000000 0.071726
#
#
# Mechanical properties :
#
#
# Convention : Reuss Voigt Hill
#
# Bulk Modulus (GPa) = 38.40019 46.19030 42.29524
# Shear Modulus (GPa) = 20.54787 26.91422 23.73105
#
# Velocity S-wave (km/s) = 3.08065 3.52574 3.31068
# Velocity P-wave (km/s) = 5.51269 6.15697 5.84372
#
# Compressibility (1/GPa) = 0.02604154
#
# Stress axis : x y z
#
# Youngs Moduli (GPa) = 36.45246 92.02884 107.64949
#
# Poissons Ratio (x) = 0.39693 0.63465
# Poissons Ratio (y) = 0.15722 0.06081
# Poissons Ratio (z) = 0.21491 0.05198
#
# Static dielectric constant tensor:
#      x y z
#    x 1.848350 0.000000 0.017380 
#    y 0.000000 1.869820 0.000000 
#    z 0.017380 0.000000 1.904130 
# 
# From -- ./inp_files/277288.got.cif
#   From: 2010.05.17/outbox.cif.g08.bks.cpg/sg15_139_cif.got.tgz:277288.got - 2010.06.03 18:47:42.
