data_PCOD9265947
_publ_section_title
;
Structure prediction by ZEFSAII (Michael W. Deem and Ramdas Pophale) SiO2 
 PCOD9265947
Probable space group: C 2/C
;
_chemical_formula_sum "Si O2"
_cell_formula_units_Z 52
_cell_length_a 27.389747
_cell_length_b 6.709532
_cell_length_c 26.418495
_cell_angle_alpha 90.000000
_cell_angle_beta 27.024428
_cell_angle_gamma 90.000000
_cell_volume 2205.963361
_symmetry_space_group_name_H-M "C 2/C"
_symmetry_group_IT_number 15
_symmetry_cell_setting 'monoclinic'
loop_
_space_group_symop_operation_xyz
x,y,z
-x,y,1/2-z
-x,-y,-z
x,-y,1/2+z
1/2+x,1/2+y,z
1/2-x,1/2+y,1/2-z
1/2-x,1/2-y,-z
1/2+x,1/2-y,1/2+z
loop_
_atom_site_type_symbol
_atom_site_label
_atom_site_fract_x
_atom_site_fract_y
_atom_site_fract_z
Si Si1 0.048888 0.018357 0.509740
Si Si2 0.454543 0.417815 0.698295
Si Si3 0.499375 0.855887 0.872669
Si Si4 0.762947 0.544051 0.579073
Si Si5 0.768054 0.522301 0.965608
Si Si6 0.000000 0.647651 0.750000
Si Si7 0.233890 0.540676 0.146630
O O1 0.175912 0.970984 0.397601
O O2 0.993539 0.886331 0.605003
O O3 0.023357 0.242807 0.553431
O O4 0.000000 0.000000 0.500000
O O5 0.481763 0.657072 0.680025
O O6 0.505285 0.293201 0.696734
O O7 0.325368 0.383874 0.822794
O O8 0.391171 0.976591 0.959760
O O9 0.607314 0.985788 0.772235
O O10 0.731260 0.594475 0.549998
O O11 0.742054 0.718799 0.638029
O O12 0.723736 0.500079 0.949995
O O13 0.896133 0.510538 0.841201
O O14 0.750000 0.750000 0.000000
#
# Coordination Sequence:
#
# PCOD9265947 Si02
#       7
#     8   8   8   8   8   4   8
#     4   9  19  37  62  83 111 147 197 250 304 338
#     4   9  20  34  57  84 116 154 188 242 296 352
#     4   8  19  35  62  84 110 153 207 245 281 349
#     4  10  19  37  58  84 117 154 202 236 289 350
#     4  12  23  32  53  85 126 161 185 235 296 358
#     4  12  22  36  50  82 130 154 186 226 306 368
#     4  10  20  38  58  87 115 153 209 239 287 357
#
# _framework density 23.572468000000001
#
# number of rings (size 3 to 8) (size 9 to 14) (size 15 to 20)
#    0.923    1.231    1.538    2.308    0.000    2.462 
#    0.000    1.538    0.000    0.923    0.000    0.000 
#    0.000    0.000    0.000    0.000    0.000    0.000 
#
# Total GULP energy -144949.885503 kJ/mol
# GULP energy per Si atom -5574.995596 kJ/mol
# Density = 2.351882 g / cm^3
# Si number density = 23.572468 Si / 1000 Ang^3
#
#
#
# Elastic Constant Matrix: (Units=GPa)
#
#
# Indices 1 2 3 4 5 6 
#
# 1 172.4666 23.9566 52.9953 0.0119 -6.3491 -0.0043
# 2 23.9566 47.0168 22.5124 0.0519 1.8725 -0.0197
# 3 52.9953 22.5124 138.2906 0.0267 -32.3929 -0.0109
# 4 0.0119 0.0519 0.0267 39.1694 -0.0132 1.0800
# 5 -6.3491 1.8725 -32.3929 -0.0132 35.8460 0.0032
# 6 -0.0043 -0.0197 -0.0109 1.0800 0.0032 22.7140
#
#
#
# Elastic Compliance Matrix: (Units=1/GPa)
#
#
# Indices 1 2 3 4 5 6 
#
# 1 0.006836 -0.002270 -0.002459 0.000002 -0.000893 -0.000002
# 2 -0.002270 0.024824 -0.004527 -0.000032 -0.005790 0.000021
# 3 -0.002459 -0.004527 0.011244 0.000002 0.009962 0.000000
# 4 0.000002 -0.000032 0.000002 0.025564 0.000014 -0.001216
# 5 -0.000893 -0.005790 0.009962 0.000014 0.037044 -0.000006
# 6 -0.000002 0.000021 0.000000 -0.001216 -0.000006 0.044083
#
#
# Mechanical properties :
#
#
# Convention : Reuss Voigt Hill
#
# Bulk Modulus (GPa) = 40.99950 61.85584 51.42767
# Shear Modulus (GPa) = 28.37045 36.76655 32.56850
#
# Velocity S-wave (km/s) = 3.47297 3.95362 3.72107
# Velocity P-wave (km/s) = 5.78902 6.86580 6.35027
#
# Compressibility (1/GPa) = 0.02439054
#
# Stress axis : x y z
#
# Youngs Moduli (GPa) = 146.27526 40.28334 88.93548
#
# Poissons Ratio (x) = 0.09145 0.21873
# Poissons Ratio (y) = 0.33207 0.40265
# Poissons Ratio (z) = 0.35976 0.18238
#
# Static dielectric constant tensor:
#      x y z
#    x 1.853530 -0.000010 -0.049180 
#    y -0.000010 2.045290 0.000030 
#    z -0.049180 0.000030 1.969640 
# 
# From -- ./inp_files/303028.got.cif
#   From: 2010.05.17/outbox.cif.g08.bks.cpg/sg15_152_cif.got.tgz:303028.got - 2010.06.03 18:47:42.
