data_PCOD9265503
_publ_section_title
;
Structure prediction by ZEFSAII (Michael W. Deem and Ramdas Pophale) SiO2 
 PCOD9265503
Probable space group: C 2/C
;
_chemical_formula_sum "Si O2"
_cell_formula_units_Z 48
_cell_length_a 7.927282
_cell_length_b 17.523153
_cell_length_c 13.627304
_cell_angle_alpha 90.000000
_cell_angle_beta 74.421100
_cell_angle_gamma 90.000000
_cell_volume 1823.436834
_symmetry_space_group_name_H-M "C 2/C"
_symmetry_group_IT_number 15
_symmetry_cell_setting 'monoclinic'
loop_
_space_group_symop_operation_xyz
x,y,z
-x,y,1/2-z
-x,-y,-z
x,-y,1/2+z
1/2+x,1/2+y,z
1/2-x,1/2+y,1/2-z
1/2-x,1/2-y,-z
1/2+x,1/2-y,1/2+z
loop_
_atom_site_type_symbol
_atom_site_label
_atom_site_fract_x
_atom_site_fract_y
_atom_site_fract_z
Si Si1 0.326202 0.010829 0.720370
Si Si2 0.540998 0.564735 0.359525
Si Si3 0.701153 0.662994 0.685665
Si Si4 0.154655 0.562029 0.464889
Si Si5 0.440930 0.283128 0.554651
Si Si6 0.282334 0.806270 0.388683
O O1 0.500000 0.030040 0.750000
O O2 0.178760 0.002402 0.826088
O O3 0.356503 0.932876 0.653103
O O4 0.250298 0.075054 0.658827
O O5 0.500000 0.581787 0.250000
O O6 0.638073 0.544608 0.057964
O O7 0.628692 0.634450 0.403694
O O8 0.500000 0.671450 0.750000
O O9 0.789924 0.719805 0.592873
O O10 0.799498 0.675113 0.773371
O O11 0.140957 0.631980 0.544060
O O12 0.000000 0.500000 0.500000
O O13 0.595931 0.266195 0.609810
O O14 0.575331 0.290294 0.442220
#
# Coordination Sequence:
#
# PCOD9265503 Si02
#       6
#     8   8   8   8   8   8
#     4  11  23  41  63  90 126 171 216 265 327 386
#     4   9  19  36  59  88 124 165 208 253 314 382
#     4  12  24  40  65  95 129 168 216 270 324 384
#     4  10  19  36  61  91 124 159 207 263 316 376
#     4  10  21  41  65  90 124 168 212 260 321 387
#     4  10  22  40  66  95 125 170 218 260 318 391
#
# _framework density 26.323917999999999
#
# number of rings (size 3 to 8) (size 9 to 14) (size 15 to 20)
#    0.000    1.667    0.000    6.000    0.000    2.667 
#    0.000   18.333    0.000    0.000    0.000    0.000 
#    0.000    0.000    0.000    0.000    0.000    0.000 
#
# Total GULP energy -133840.608448 kJ/mol
# GULP energy per Si atom -5576.692019 kJ/mol
# Density = 2.626400 g / cm^3
# Si number density = 26.323918 Si / 1000 Ang^3
#
#
#
# Elastic Constant Matrix: (Units=GPa)
#
#
# Indices 1 2 3 4 5 6 
#
# 1 110.4163 26.6205 12.9784 0.0000 -41.7480 0.0000
# 2 26.6205 86.5742 27.6536 0.0000 -13.5946 0.0000
# 3 12.9784 27.6536 108.9885 0.0000 -11.6713 0.0000
# 4 0.0000 0.0000 0.0000 35.0522 0.0000 -15.1488
# 5 -41.7480 -13.5946 -11.6713 0.0000 56.8564 0.0000
# 6 0.0000 0.0000 0.0000 -15.1488 0.0000 36.2605
#
#
#
# Elastic Compliance Matrix: (Units=1/GPa)
#
#
# Indices 1 2 3 4 5 6 
#
# 1 0.013083 -0.002634 0.000073 0.000000 0.008991 0.000000
# 2 -0.002634 0.013430 -0.003024 0.000000 0.000656 0.000000
# 3 0.000073 -0.003024 0.010084 0.000000 0.001401 0.000000
# 4 0.000000 0.000000 0.000000 0.034815 0.000000 0.014545
# 5 0.008991 0.000656 0.001401 0.000000 0.024635 0.000000
# 6 0.000000 0.000000 0.000000 0.014545 0.000000 0.033655
#
#
# Mechanical properties :
#
#
# Convention : Reuss Voigt Hill
#
# Bulk Modulus (GPa) = 39.32803 48.94269 44.13536
# Shear Modulus (GPa) = 33.47950 41.54891 37.51420
#
# Velocity S-wave (km/s) = 3.57014 3.97718 3.77914
# Velocity P-wave (km/s) = 5.65394 6.30266 5.98709
#
# Compressibility (1/GPa) = 0.02542716
#
# Stress axis : x y z
#
# Youngs Moduli (GPa) = 76.43638 74.46228 99.16970
#
# Poissons Ratio (x) = 0.19616 -0.00728
# Poissons Ratio (y) = 0.20136 0.29984
# Poissons Ratio (z) = -0.00561 0.22514
#
# Static dielectric constant tensor:
#      x y z
#    x 2.107250 0.000000 -0.029420 
#    y 0.000000 2.198110 0.000000 
#    z -0.029420 0.000000 2.125140 
# 
# From -- ./inp_files/135893.got.cif
#   From: 2010.05.17/outbox.cif.g08.bks.cpg/sg15_68_cif.got.tgz:135893.got - 2010.06.03 18:47:42.
