data_PCOD9265008
_publ_section_title
;
Structure prediction by ZEFSAII (Michael W. Deem and Ramdas Pophale) SiO2 
 PCOD9265008
Probable space group: C 2/C
;
_chemical_formula_sum "Si O2"
_cell_formula_units_Z 64
_cell_length_a 9.438495
_cell_length_b 11.792846
_cell_length_c 24.394041
_cell_angle_alpha 90.000000
_cell_angle_beta 99.452888
_cell_angle_gamma 90.000000
_cell_volume 2678.350607
_symmetry_space_group_name_H-M "C 2/C"
_symmetry_group_IT_number 15
_symmetry_cell_setting 'monoclinic'
loop_
_space_group_symop_operation_xyz
x,y,z
-x,y,1/2-z
-x,-y,-z
x,-y,1/2+z
1/2+x,1/2+y,z
1/2-x,1/2+y,1/2-z
1/2-x,1/2-y,-z
1/2+x,1/2-y,1/2+z
loop_
_atom_site_type_symbol
_atom_site_label
_atom_site_fract_x
_atom_site_fract_y
_atom_site_fract_z
Si Si1 0.760604 0.117240 0.269765
Si Si2 0.625620 0.820452 0.299058
Si Si3 0.423703 0.726424 0.691283
Si Si4 0.519739 0.616316 0.366390
Si Si5 0.382206 0.778758 0.574297
Si Si6 0.950817 0.267620 0.457445
Si Si7 0.768159 0.469476 0.335937
Si Si8 0.588773 0.035057 0.895255
O O1 0.783629 0.231891 0.233065
O O2 0.620076 0.147574 0.294592
O O3 0.885648 0.085071 0.319580
O O4 0.748589 0.019922 0.225337
O O5 0.500000 0.862333 0.250000
O O6 0.561475 0.731974 0.338391
O O7 0.672035 0.915220 0.346592
O O8 0.500000 0.675615 0.750000
O O9 0.477125 0.735472 0.632459
O O10 0.274889 0.660396 0.672779
O O11 0.487592 0.653962 0.425800
O O12 0.647799 0.528064 0.366137
O O13 0.223932 0.719135 0.561222
O O14 0.466142 0.758383 0.523458
O O15 0.354294 0.914593 0.579042
O O16 0.051691 0.368660 0.439355
O O17 0.926562 0.489898 0.365436
#
# Coordination Sequence:
#
# PCOD9265008 Si02
#       8
#     8   8   8   8   8   8   8   8
#     4  10  19  36  56  84 121 164 202 242 303 380
#     4   8  16  31  55  81 113 154 199 239 295 366
#     4  12  23  38  57  93 131 156 198 263 316 370
#     4   9  17  36  60  82 112 168 203 240 314 374
#     4  11  23  39  66  91 116 164 214 264 319 369
#     4  10  21  44  65  83 123 160 216 266 308 382
#     4  11  21  36  59  88 129 164 194 254 321 373
#     4  11  21  38  62  92 120 161 209 262 317 376
#
# _framework density 23.895303999999999
#
# number of rings (size 3 to 8) (size 9 to 14) (size 15 to 20)
#    0.000    1.750    2.500    4.500    0.000    2.500 
#    2.250    1.250    0.000    0.000    0.000    0.000 
#    0.000    0.000    0.000    0.000    0.000    0.000 
#
# Total GULP energy -178432.056736 kJ/mol
# GULP energy per Si atom -5576.001773 kJ/mol
# Density = 2.384092 g / cm^3
# Si number density = 23.895304 Si / 1000 Ang^3
#
#
#
# Elastic Constant Matrix: (Units=GPa)
#
#
# Indices 1 2 3 4 5 6 
#
# 1 44.8457 8.4002 18.8571 0.0000 -4.1362 0.0000
# 2 8.4002 54.9950 21.8623 0.0000 -8.0010 0.0000
# 3 18.8571 21.8623 186.4983 0.0000 -31.8147 0.0000
# 4 0.0000 0.0000 0.0000 -1.8373 0.0000 17.7626
# 5 -4.1362 -8.0010 -31.8147 0.0000 28.7343 0.0000
# 6 0.0000 0.0000 0.0000 17.7626 0.0000 26.7492
#
#
#
# Elastic Compliance Matrix: (Units=1/GPa)
#
#
# Indices 1 2 3 4 5 6 
#
# 1 0.023696 -0.002762 -0.001999 0.000000 0.000428 0.000000
# 2 -0.002762 0.019683 -0.001431 0.000000 0.003498 0.000000
# 3 -0.001999 -0.001431 0.006922 0.000000 0.006978 0.000000
# 4 0.000000 0.000000 0.000000 -0.073355 0.000000 0.048711
# 5 0.000428 0.003498 0.006978 0.000000 0.043564 0.000000
# 6 0.000000 0.000000 0.000000 0.048711 0.000000 0.005038
#
#
# Mechanical properties :
#
#
# Convention : Reuss Voigt Hill
#
# Bulk Modulus (GPa) = 26.37390 42.73093 34.55241
# Shear Modulus (GPa) = 98.86559 26.54385 62.70472
#
# Velocity S-wave (km/s) = 6.43928 3.33654 5.12820
# Velocity P-wave (km/s) = 8.14537 5.72405 7.03959
#
# Compressibility (1/GPa) = 0.03791628
#
# Stress axis : x y z
#
# Youngs Moduli (GPa) = 42.20081 50.80431 144.46126
#
# Poissons Ratio (x) = 0.14035 0.28878
# Poissons Ratio (y) = 0.11658 0.20676
# Poissons Ratio (z) = 0.08436 0.07271
#
# Static dielectric constant tensor:
#      x y z
#    x 1.978060 0.000000 -0.065950 
#    y 0.000000 1.952170 0.000000 
#    z -0.065950 0.000000 1.993450 
# 
# From -- ./inp_files/268925.got.cif
#   From: 2010.05.17/outbox.cif.g08.bks.cpg/sg15_135_cif.got.tgz:268925.got - 2010.06.03 18:47:42.
