data_PCOD9265991
_publ_section_title
;
Structure prediction by ZEFSAII (Michael W. Deem and Ramdas Pophale) SiO2 
 PCOD9265991
Probable space group: C 2/C
;
_chemical_formula_sum "Si O2"
_cell_formula_units_Z 64
_cell_length_a 13.672317
_cell_length_b 8.155830
_cell_length_c 21.890832
_cell_angle_alpha 90.000000
_cell_angle_beta 80.946750
_cell_angle_gamma 90.000000
_cell_volume 2410.617796
_symmetry_space_group_name_H-M "C 2/C"
_symmetry_group_IT_number 15
_symmetry_cell_setting 'monoclinic'
loop_
_space_group_symop_operation_xyz
x,y,z
-x,y,1/2-z
-x,-y,-z
x,-y,1/2+z
1/2+x,1/2+y,z
1/2-x,1/2+y,1/2-z
1/2-x,1/2-y,-z
1/2+x,1/2-y,1/2+z
loop_
_atom_site_type_symbol
_atom_site_label
_atom_site_fract_x
_atom_site_fract_y
_atom_site_fract_z
Si Si1 0.952659 0.699745 0.935462
Si Si2 0.525558 0.793642 0.812350
Si Si3 0.193925 0.925902 0.977409
Si Si4 0.133770 0.435484 0.464732
Si Si5 0.716835 0.001946 0.768504
Si Si6 0.102033 0.168244 0.273716
Si Si7 0.541247 0.523262 0.901899
Si Si8 0.161032 0.502397 0.639869
O O1 0.874438 0.666575 0.889787
O O2 0.059749 0.605374 0.915745
O O3 0.966640 0.893564 0.939438
O O4 0.913186 0.591344 0.995983
O O5 0.500000 0.705633 0.750000
O O6 0.635632 0.867642 0.796866
O O7 0.509786 0.691447 0.875287
O O8 0.441140 0.929292 0.825026
O O9 0.135095 0.754826 0.989580
O O10 0.128213 0.045666 0.942323
O O11 0.283245 0.901471 0.918309
O O12 0.249461 0.972122 0.034774
O O13 0.826540 0.945165 0.775775
O O14 0.671501 0.179064 0.786606
O O15 0.724807 0.012588 0.693948
O O16 0.072745 0.075579 0.338106
O O17 0.000000 0.217298 0.250000
#
# Coordination Sequence:
#
# PCOD9265991 Si02
#       8
#     8   8   8   8   8   8   8   8
#     4   9  17  31  60  86 110 147 203 257 303 373
#     4  10  22  38  58  84 122 164 201 245 305 361
#     4   9  17  32  57  81 112 149 197 247 307 378
#     4   8  16  31  55  85 109 146 198 252 310 372
#     4  11  23  40  60  87 126 164 204 254 301 357
#     4  12  24  40  61  90 123 168 209 257 306 362
#     4  11  20  35  56  84 117 153 203 252 300 370
#     4  10  19  37  59  83 115 160 203 250 302 374
#
# _framework density 26.549209999999999
#
# number of rings (size 3 to 8) (size 9 to 14) (size 15 to 20)
#    0.000    2.000    1.250    3.750    0.000    1.000 
#    0.000    0.625    0.000   28.500    0.000    0.000 
#    0.000    0.000    0.000    0.000    0.000    0.000 
#
# Total GULP energy -178451.710789 kJ/mol
# GULP energy per Si atom -5576.615962 kJ/mol
# Density = 2.648878 g / cm^3
# Si number density = 26.549210 Si / 1000 Ang^3
#
#
#
# Elastic Constant Matrix: (Units=GPa)
#
#
# Indices 1 2 3 4 5 6 
#
# 1 99.2151 33.5031 21.1801 0.0000 -2.3291 0.0000
# 2 33.5031 53.3527 4.8850 0.0000 2.7503 0.0000
# 3 21.1801 4.8850 70.3650 0.0000 -9.9443 0.0000
# 4 0.0000 0.0000 0.0000 39.1657 0.0000 -5.2819
# 5 -2.3291 2.7503 -9.9443 0.0000 38.5811 0.0000
# 6 0.0000 0.0000 0.0000 -5.2819 0.0000 33.2913
#
#
#
# Elastic Compliance Matrix: (Units=1/GPa)
#
#
# Indices 1 2 3 4 5 6 
#
# 1 0.013618 -0.008263 -0.003452 0.000000 0.000521 0.000000
# 2 -0.008263 0.023990 0.000529 0.000000 -0.002073 0.000000
# 3 -0.003452 0.000529 0.015753 0.000000 0.003814 0.000000
# 4 0.000000 0.000000 0.000000 0.026091 0.000000 0.004140
# 5 0.000521 -0.002073 0.003814 0.000000 0.027082 0.000000
# 6 0.000000 0.000000 0.000000 0.004140 0.000000 0.030695
#
#
# Mechanical properties :
#
#
# Convention : Reuss Voigt Hill
#
# Bulk Modulus (GPa) = 32.26849 38.00767 35.13808
# Shear Modulus (GPa) = 29.42385 33.09860 31.26122
#
# Velocity S-wave (km/s) = 3.33269 3.53468 3.43517
# Velocity P-wave (km/s) = 5.19516 5.56827 5.38495
#
# Compressibility (1/GPa) = 0.03098999
#
# Stress axis : x y z
#
# Youngs Moduli (GPa) = 73.43042 41.68379 63.48003
#
# Poissons Ratio (x) = 0.34441 0.21912
# Poissons Ratio (y) = 0.60672 -0.03356
# Poissons Ratio (z) = 0.25347 -0.02204
#
# Static dielectric constant tensor:
#      x y z
#    x 2.230760 0.000000 -0.008600 
#    y 0.000000 2.109340 0.000000 
#    z -0.008600 0.000000 2.112670 
# 
# From -- ./inp_files/295188.got.cif
#   From: 2010.05.17/outbox.cif.g08.bks.cpg/sg15_148_cif.got.tgz:295188.got - 2010.06.03 18:47:42.
