data_PCOD9265907
_publ_section_title
;
Structure prediction by ZEFSAII (Michael W. Deem and Ramdas Pophale) SiO2 
 PCOD9265907
Probable space group: C 2/C
;
_chemical_formula_sum "Si O2"
_cell_formula_units_Z 64
_cell_length_a 11.699809
_cell_length_b 20.059091
_cell_length_c 24.510249
_cell_angle_alpha 90.000000
_cell_angle_beta 23.058227
_cell_angle_gamma 90.000000
_cell_volume 2252.962958
_symmetry_space_group_name_H-M "C 2/C"
_symmetry_group_IT_number 15
_symmetry_cell_setting 'monoclinic'
loop_
_space_group_symop_operation_xyz
x,y,z
-x,y,1/2-z
-x,-y,-z
x,-y,1/2+z
1/2+x,1/2+y,z
1/2-x,1/2+y,1/2-z
1/2-x,1/2-y,-z
1/2+x,1/2-y,1/2+z
loop_
_atom_site_type_symbol
_atom_site_label
_atom_site_fract_x
_atom_site_fract_y
_atom_site_fract_z
Si Si1 0.413254 0.625402 0.638328
Si Si2 0.486148 0.587862 0.081602
Si Si3 0.474728 0.993246 0.182959
Si Si4 0.616576 0.796623 0.637649
Si Si5 0.819309 0.534574 0.626341
Si Si6 0.384187 0.339227 0.728537
Si Si7 0.645039 0.854703 0.464207
Si Si8 0.155611 0.286709 0.096032
O O1 0.229094 0.562473 0.699870
O O2 0.637237 0.656181 0.497017
O O3 0.613510 0.609659 0.602853
O O4 0.152271 0.675556 0.768039
O O5 0.154688 0.560568 0.233960
O O6 0.545528 0.606080 0.119825
O O7 0.604516 0.655542 0.000693
O O8 0.692191 0.530711 0.965485
O O9 0.397431 0.987003 0.152681
O O10 0.500000 0.808056 0.750000
O O11 0.345017 0.805411 0.714839
O O12 0.755902 0.722363 0.576558
O O13 0.500000 0.513614 0.750000
O O14 0.842993 0.613657 0.600958
O O15 0.000000 0.500000 0.500000
O O16 0.598915 0.280657 0.654508
O O17 0.165908 0.366165 0.870049
O O18 0.250000 0.250000 0.000000
#
# Coordination Sequence:
#
# PCOD9265907 Si02
#       8
#     8   8   8   8   8   8   8   8
#     4  10  19  37  57  86 122 163 215 258 306 385
#     4  10  23  36  64  90 125 166 214 257 310 376
#     4  11  23  39  58  93 126 172 212 253 314 387
#     4  11  22  34  63  93 120 155 210 271 330 371
#     4  12  24  37  55  85 136 172 213 251 300 370
#     4  10  19  39  62  92 122 163 218 262 320 376
#     4  11  20  36  60  87 123 169 208 257 306 371
#     4   9  17  34  60  88 118 159 211 264 308 366
#
# _framework density 28.407035
#
# number of rings (size 3 to 8) (size 9 to 14) (size 15 to 20)
#    0.000    1.500    3.750    2.625    3.500    0.000 
#    0.000    0.000    0.000    7.500    0.000    0.000 
#    0.000    0.000    0.000    0.000    0.000    0.000 
#
# Total GULP energy -179186.339320 kJ/mol
# GULP energy per Si atom -5599.573104 kJ/mol
# Density = 2.834238 g / cm^3
# Si number density = 28.407035 Si / 1000 Ang^3
#
#
#
# Elastic Constant Matrix: (Units=GPa)
#
#
# Indices 1 2 3 4 5 6 
#
# 1 139.2030 16.4856 47.4765 -0.0880 19.4405 0.0189
# 2 16.4856 133.6259 64.6545 -0.1217 0.6702 -0.0214
# 3 47.4765 64.6545 235.4202 -0.3283 13.2114 -0.0805
# 4 -0.0880 -0.1217 -0.3283 74.5744 0.0276 7.2059
# 5 19.4405 0.6702 13.2114 0.0276 35.7470 -0.0776
# 6 0.0189 -0.0214 -0.0805 7.2059 -0.0776 17.6409
#
#
#
# Elastic Compliance Matrix: (Units=1/GPa)
#
#
# Indices 1 2 3 4 5 6 
#
# 1 0.008238 -0.000347 -0.001343 0.000008 -0.003978 -0.000036
# 2 -0.000347 0.008664 -0.002360 0.000003 0.000898 0.000003
# 3 -0.001343 -0.002360 0.005232 0.000017 -0.001159 0.000010
# 4 0.000008 0.000003 0.000017 0.013961 -0.000034 -0.005703
# 5 -0.003978 0.000898 -0.001159 -0.000034 0.030549 0.000148
# 6 -0.000036 0.000003 0.000010 -0.005703 0.000148 0.059017
#
#
# Mechanical properties :
#
#
# Convention : Reuss Voigt Hill
#
# Bulk Modulus (GPa) = 71.25147 85.05358 78.15253
# Shear Modulus (GPa) = 36.11742 50.90129 43.50936
#
# Velocity S-wave (km/s) = 3.56957 4.23762 3.91786
# Velocity P-wave (km/s) = 6.49045 7.34502 6.93092
#
# Compressibility (1/GPa) = 0.01403480
#
# Stress axis : x y z
#
# Youngs Moduli (GPa) = 121.38362 115.42490 191.14175
#
# Poissons Ratio (x) = 0.04001 0.25670
# Poissons Ratio (y) = 0.04207 0.45106
# Poissons Ratio (z) = 0.16302 0.27238
#
# Static dielectric constant tensor:
#      x y z
#    x 2.211520 0.000070 -0.050840 
#    y 0.000070 2.311560 0.000380 
#    z -0.050840 0.000380 2.156190 
# 
# From -- ./inp_files/314486.got.cif
#   From: 2010.05.17/outbox.cif.g08.bks.cpg/sg15_158_cif.got.tgz:314486.got - 2010.06.03 18:47:42.
