data_PCOD9265496
_publ_section_title
;
Structure prediction by ZEFSAII (Michael W. Deem and Ramdas Pophale) SiO2 
 PCOD9265496
Probable space group: C 2/C
;
_chemical_formula_sum "Si O2"
_cell_formula_units_Z 64
_cell_length_a 11.427289
_cell_length_b 28.118618
_cell_length_c 13.944852
_cell_angle_alpha 90.000000
_cell_angle_beta 36.164827
_cell_angle_gamma 90.000000
_cell_volume 2644.138475
_symmetry_space_group_name_H-M "C 2/C"
_symmetry_group_IT_number 15
_symmetry_cell_setting 'monoclinic'
loop_
_space_group_symop_operation_xyz
x,y,z
-x,y,1/2-z
-x,-y,-z
x,-y,1/2+z
1/2+x,1/2+y,z
1/2-x,1/2+y,1/2-z
1/2-x,1/2-y,-z
1/2+x,1/2-y,1/2+z
loop_
_atom_site_type_symbol
_atom_site_label
_atom_site_fract_x
_atom_site_fract_y
_atom_site_fract_z
Si Si1 0.462919 0.153494 0.475602
Si Si2 0.555915 0.553591 0.985065
Si Si3 0.414654 0.746419 0.120710
Si Si4 0.278077 0.935087 0.655905
Si Si5 0.101767 0.869728 0.332250
Si Si6 0.760608 0.801714 0.539782
Si Si7 0.769736 0.694860 0.877488
Si Si8 0.967412 0.484191 0.167000
O O1 0.463501 0.202518 0.537116
O O2 0.643961 0.118289 0.375747
O O3 0.277127 0.123321 0.641727
O O4 0.408132 0.168120 0.403253
O O5 0.449637 0.564854 0.156289
O O6 0.500000 0.500000 0.000000
O O7 0.473163 0.586133 0.953047
O O8 0.791428 0.553183 0.807967
O O9 0.297012 0.711426 0.127118
O O10 0.266251 0.764231 0.299365
O O11 0.591430 0.717041 0.057307
O O12 0.352053 0.955750 0.503959
O O13 0.390096 0.973164 0.651121
O O14 0.189728 0.850954 0.375593
O O15 0.962485 0.829068 0.382878
O O16 0.750000 0.750000 0.500000
O O17 0.000000 0.688679 0.750000
O O18 0.000000 0.505927 0.250000
#
# Coordination Sequence:
#
# PCOD9265496 Si02
#       8
#     8   8   8   8   8   8   8   8
#     4  10  19  36  61  90 128 169 214 268 344 401
#     4  10  22  41  64  92 132 172 220 284 337 396
#     4   9  20  36  56  87 123 164 217 265 324 395
#     4  10  22  41  66  99 130 171 223 275 339 412
#     4  10  20  37  58  92 128 170 221 277 332 403
#     4   9  19  36  61  93 131 174 213 268 339 413
#     4  10  20  36  59  81 118 171 216 264 327 385
#     4  10  22  43  69  91 132 176 220 281 345 398
#
# _framework density 24.204481999999999
#
# number of rings (size 3 to 8) (size 9 to 14) (size 15 to 20)
#    0.000    2.250    1.250    0.750    0.000    6.000 
#    0.000    9.375    0.000    0.000    0.000    0.000 
#    0.000    0.000    0.000    0.000    0.000    0.000 
#
# Total GULP energy -178263.903194 kJ/mol
# GULP energy per Si atom -5570.746975 kJ/mol
# Density = 2.414939 g / cm^3
# Si number density = 24.204482 Si / 1000 Ang^3
#
#
#
# Elastic Constant Matrix: (Units=GPa)
#
#
# Indices 1 2 3 4 5 6 
#
# 1 62.6453 15.4946 13.5130 0.0000 -0.9546 0.0000
# 2 15.4946 83.7099 37.8297 0.0000 -4.8103 0.0000
# 3 13.5130 37.8297 116.0672 0.0000 4.6280 0.0000
# 4 0.0000 0.0000 0.0000 38.3114 0.0000 -2.8260
# 5 -0.9546 -4.8103 4.6280 0.0000 35.6975 0.0000
# 6 0.0000 0.0000 0.0000 -2.8260 0.0000 16.9985
#
#
#
# Elastic Compliance Matrix: (Units=1/GPa)
#
#
# Indices 1 2 3 4 5 6 
#
# 1 0.016852 -0.002596 -0.001126 0.000000 0.000247 0.000000
# 2 -0.002596 0.014634 -0.004567 0.000000 0.002495 0.000000
# 3 -0.001126 -0.004567 0.010314 0.000000 -0.001983 0.000000
# 4 0.000000 0.000000 0.000000 0.026426 0.000000 0.004393
# 5 0.000247 0.002495 -0.001983 0.000000 0.028613 0.000000
# 6 0.000000 0.000000 0.000000 0.004393 0.000000 0.059559
#
#
# Mechanical properties :
#
#
# Convention : Reuss Voigt Hill
#
# Bulk Modulus (GPa) = 39.64756 44.01080 41.82918
# Shear Modulus (GPa) = 27.56609 31.24048 29.40329
#
# Velocity S-wave (km/s) = 3.37840 3.59652 3.48916
# Velocity P-wave (km/s) = 5.62440 5.95558 5.79236
#
# Compressibility (1/GPa) = 0.02522223
#
# Stress axis : x y z
#
# Youngs Moduli (GPa) = 59.34143 68.33529 96.95347
#
# Poissons Ratio (x) = 0.17743 0.10912
# Poissons Ratio (y) = 0.15407 0.44276
# Poissons Ratio (z) = 0.06679 0.31207
#
# Static dielectric constant tensor:
#      x y z
#    x 2.022310 0.000000 -0.015100 
#    y 0.000000 1.943410 0.000000 
#    z -0.015100 0.000000 1.978050 
# 
# From -- ./inp_files/149157.got.cif
#   From: 2010.05.17/outbox.cif.g08.bks.cpg/sg15_75_cif.got.tgz:149157.got - 2010.06.03 18:47:42.
