data_PCOD9265777
_publ_section_title
;
Structure prediction by ZEFSAII (Michael W. Deem and Ramdas Pophale) SiO2 
 PCOD9265777
Probable space group: C 2/C
;
_chemical_formula_sum "Si O2"
_cell_formula_units_Z 52
_cell_length_a 9.351580
_cell_length_b 22.237393
_cell_length_c 12.420660
_cell_angle_alpha 90.000000
_cell_angle_beta 114.136421
_cell_angle_gamma 90.000000
_cell_volume 2357.120771
_symmetry_space_group_name_H-M "C 2/C"
_symmetry_group_IT_number 15
_symmetry_cell_setting 'monoclinic'
loop_
_space_group_symop_operation_xyz
x,y,z
-x,y,1/2-z
-x,-y,-z
x,-y,1/2+z
1/2+x,1/2+y,z
1/2-x,1/2+y,1/2-z
1/2-x,1/2-y,-z
1/2+x,1/2-y,1/2+z
loop_
_atom_site_type_symbol
_atom_site_label
_atom_site_fract_x
_atom_site_fract_y
_atom_site_fract_z
Si Si1 0.613915 0.475168 0.140799
Si Si2 0.728295 0.815120 0.848588
Si Si3 0.319936 0.362478 0.651653
Si Si4 0.633354 0.942297 0.872433
Si Si5 0.260832 0.500085 0.109081
Si Si6 0.428448 0.654859 0.958006
Si Si7 0.000000 0.210776 0.750000
O O1 0.701316 0.533577 0.122362
O O2 0.438859 0.492405 0.119681
O O3 0.723001 0.462003 0.277271
O O4 0.602412 0.416548 0.064523
O O5 0.738704 0.825737 0.722564
O O6 0.635172 0.870762 0.872660
O O7 0.637794 0.753534 0.837880
O O8 0.901427 0.823093 0.949515
O O9 0.500000 0.370868 0.750000
O O10 0.242339 0.428809 0.622673
O O11 0.323200 0.332384 0.533568
O O12 0.500000 0.963462 0.750000
O O13 0.637152 0.971926 0.989914
O O14 0.427191 0.676572 0.832034
#
# Coordination Sequence:
#
# PCOD9265777 Si02
#       7
#     8   8   8   8   8   8   4
#     4  11  20  36  65  97 124 164 217 266 317 381
#     4  11  23  42  63  93 129 171 217 262 323 383
#     4  10  19  36  66  94 121 162 215 269 313 370
#     4  12  23  36  59  95 139 173 199 262 337 393
#     4  11  19  34  61  95 127 164 214 262 314 388
#     4  11  23  41  67  93 121 168 227 272 301 375
#     4  12  26  44  64  92 128 172 214 270 332 372
#
# _framework density 22.060814000000001
#
# number of rings (size 3 to 8) (size 9 to 14) (size 15 to 20)
#    0.000    0.923    6.923    2.769    0.000    1.231 
#    0.000    0.000    0.000    0.923    0.000    0.000 
#    0.000    0.000    0.000    0.000    0.000    0.000 
#
# Total GULP energy -144979.186662 kJ/mol
# GULP energy per Si atom -5576.122564 kJ/mol
# Density = 2.201060 g / cm^3
# Si number density = 22.060814 Si / 1000 Ang^3
#
#
#
# Elastic Constant Matrix: (Units=GPa)
#
#
# Indices 1 2 3 4 5 6 
#
# 1 48.5954 11.2649 15.3974 0.0000 -16.6654 0.0000
# 2 11.2649 59.2169 22.0181 0.0000 -16.9802 0.0000
# 3 15.3974 22.0181 145.6855 0.0000 -19.1989 0.0000
# 4 0.0000 0.0000 0.0000 31.3185 0.0000 -3.4973
# 5 -16.6654 -16.9802 -19.1989 0.0000 37.4487 0.0000
# 6 0.0000 0.0000 0.0000 -3.4973 0.0000 21.9337
#
#
#
# Elastic Compliance Matrix: (Units=1/GPa)
#
#
# Indices 1 2 3 4 5 6 
#
# 1 0.024601 -0.001488 -0.001095 0.000000 0.009712 0.000000
# 2 -0.001488 0.020005 -0.001885 0.000000 0.007442 0.000000
# 3 -0.001095 -0.001885 0.007601 0.000000 0.002555 0.000000
# 4 0.000000 0.000000 0.000000 0.032509 0.000000 0.005184
# 5 0.009712 0.007442 0.002555 0.000000 0.035709 0.000000
# 6 0.000000 0.000000 0.000000 0.005184 0.000000 0.046418
#
#
# Mechanical properties :
#
#
# Convention : Reuss Voigt Hill
#
# Bulk Modulus (GPa) = 23.11067 38.98428 31.04748
# Shear Modulus (GPa) = 26.28756 31.79470 29.04113
#
# Velocity S-wave (km/s) = 3.45569 3.80047 3.63218
# Velocity P-wave (km/s) = 5.14014 6.08011 5.62978
#
# Compressibility (1/GPa) = 0.04327005
#
# Stress axis : x y z
#
# Youngs Moduli (GPa) = 40.64953 49.98712 131.55310
#
# Poissons Ratio (x) = 0.07437 0.14409
# Poissons Ratio (y) = 0.06048 0.24804
# Poissons Ratio (z) = 0.04452 0.09425
#
# Static dielectric constant tensor:
#      x y z
#    x 1.882820 0.000000 -0.089210 
#    y 0.000000 1.762070 0.000000 
#    z -0.089210 0.000000 1.921330 
# 
# From -- ./inp_files/147235.got.cif
#   From: 2010.05.17/outbox.cif.g08.bks.cpg/sg15_74_cif.got.tgz:147235.got - 2010.06.03 18:47:42.
