data_PCOD9265452
_publ_section_title
;
Structure prediction by ZEFSAII (Michael W. Deem and Ramdas Pophale) SiO2 
 PCOD9265452
Probable space group: C 2/C
;
_chemical_formula_sum "Si O2"
_cell_formula_units_Z 56
_cell_length_a 8.355433
_cell_length_b 16.933635
_cell_length_c 23.614423
_cell_angle_alpha 90.000000
_cell_angle_beta 61.691586
_cell_angle_gamma 90.000000
_cell_volume 2941.577788
_symmetry_space_group_name_H-M "C 2/C"
_symmetry_group_IT_number 15
_symmetry_cell_setting 'monoclinic'
loop_
_space_group_symop_operation_xyz
x,y,z
-x,y,1/2-z
-x,-y,-z
x,-y,1/2+z
1/2+x,1/2+y,z
1/2-x,1/2+y,1/2-z
1/2-x,1/2-y,-z
1/2+x,1/2-y,1/2+z
loop_
_atom_site_type_symbol
_atom_site_label
_atom_site_fract_x
_atom_site_fract_y
_atom_site_fract_z
Si Si1 0.367960 0.539236 0.434137
Si Si2 0.282993 0.812067 0.112940
Si Si3 0.961924 0.510786 0.818641
Si Si4 0.280778 0.636318 0.115000
Si Si5 0.916784 0.865432 0.468539
Si Si6 0.816765 0.629204 0.937482
Si Si7 0.822787 0.024911 0.817383
O O1 0.517545 0.607135 0.404000
O O2 0.444561 0.458296 0.448948
O O3 0.218914 0.573037 0.502179
O O4 0.315908 0.514588 0.380073
O O5 0.237280 0.724463 0.141082
O O6 0.186000 0.827180 0.068018
O O7 0.504451 0.819796 0.076507
O O8 0.209985 0.882084 0.165069
O O9 0.155926 0.490556 0.811358
O O10 0.000000 0.543143 0.750000
O O11 0.845006 0.431582 0.838971
O O12 0.872237 0.575067 0.874845
O O13 0.287534 0.637862 0.045128
O O14 0.118802 0.834327 0.452955
O O15 0.000000 0.013363 0.750000
#
# Coordination Sequence:
#
# PCOD9265452 Si02
#       7
#     8   8   8   8   8   8   8
#     4  10  19  36  66  84 120 148 199 252 276 349
#     4  10  24  35  59  87 126 152 189 245 292 360
#     4  11  22  36  65  84 113 152 202 245 283 351
#     4  11  20  38  56  92 118 151 192 243 301 333
#     4  10  19  36  61  86 122 155 191 245 283 356
#     4  10  20  39  60  91 113 158 199 233 299 342
#     4  10  23  40  59  86 112 156 197 240 293 350
#
# _framework density 19.037403000000001
#
# number of rings (size 3 to 8) (size 9 to 14) (size 15 to 20)
#    0.000    1.714    2.857    2.143    4.000    4.571 
#    2.571    0.000    0.000    3.429    0.000    0.000 
#    0.000    0.000    0.000    0.000    0.000    0.000 
#
# Total GULP energy -156096.829566 kJ/mol
# GULP energy per Si atom -5574.886770 kJ/mol
# Density = 1.899407 g / cm^3
# Si number density = 19.037403 Si / 1000 Ang^3
#
#
#
# Elastic Constant Matrix: (Units=GPa)
#
#
# Indices 1 2 3 4 5 6 
#
# 1 69.6382 0.8425 24.1530 0.0000 6.0067 0.0001
# 2 0.8425 50.0523 5.8646 0.0000 10.1449 0.0000
# 3 24.1530 5.8646 102.9909 0.0000 2.0270 0.0000
# 4 0.0000 0.0000 0.0000 -29.3565 0.0000 -34.8346
# 5 6.0067 10.1449 2.0270 0.0000 23.1127 -0.0001
# 6 0.0001 0.0000 0.0000 -34.8346 -0.0001 -13.8935
#
#
#
# Elastic Compliance Matrix: (Units=1/GPa)
#
#
# Indices 1 2 3 4 5 6 
#
# 1 0.016011 0.001037 -0.003729 0.000000 -0.004289 0.000000
# 2 0.001037 0.022114 -0.001308 0.000000 -0.009861 0.000000
# 3 -0.003729 -0.001308 0.010647 0.000000 0.000610 0.000000
# 4 0.000000 0.000000 0.000000 0.017246 0.000000 -0.043241
# 5 -0.004289 -0.009861 0.000610 0.000000 0.048656 0.000000
# 6 0.000000 0.000000 0.000000 -0.043241 0.000000 0.036441
#
#
# Mechanical properties :
#
#
# Convention : Reuss Voigt Hill
#
# Bulk Modulus (GPa) = 24.52819 31.60018 28.06419
# Shear Modulus (GPa) = 28.95086 8.76061 18.85573
#
# Velocity S-wave (km/s) = 3.90389 2.14751 3.15057
# Velocity P-wave (km/s) = 5.76478 4.77327 5.29229
#
# Compressibility (1/GPa) = 0.04076942
#
# Stress axis : x y z
#
# Youngs Moduli (GPa) = 62.45765 45.22092 93.92584
#
# Poissons Ratio (x) = -0.04689 0.35029
# Poissons Ratio (y) = -0.06476 0.12288
# Poissons Ratio (z) = 0.23293 0.05916
#
# Static dielectric constant tensor:
#      x y z
#    x 1.694790 0.000000 -0.068500 
#    y 0.000000 1.659400 0.000000 
#    z -0.068500 0.000000 0.860960 
# 
# From -- ./inp_files/265161.got.cif
#   From: 2010.05.17/outbox.cif.g08.bks.cpg/sg15_133_cif.got.tgz:265161.got - 2010.06.03 18:47:42.
