data_PCOD9265386
_publ_section_title
;
Structure prediction by ZEFSAII (Michael W. Deem and Ramdas Pophale) SiO2 
 PCOD9265386
Probable space group: C 2/C
;
_chemical_formula_sum "Si O2"
_cell_formula_units_Z 48
_cell_length_a 27.199237
_cell_length_b 16.911601
_cell_length_c 5.366515
_cell_angle_alpha 90.000000
_cell_angle_beta 111.338774
_cell_angle_gamma 90.000000
_cell_volume 2299.275950
_symmetry_space_group_name_H-M "C 2/C"
_symmetry_group_IT_number 15
_symmetry_cell_setting 'monoclinic'
loop_
_space_group_symop_operation_xyz
x,y,z
-x,y,1/2-z
-x,-y,-z
x,-y,1/2+z
1/2+x,1/2+y,z
1/2-x,1/2+y,1/2-z
1/2-x,1/2-y,-z
1/2+x,1/2-y,1/2+z
loop_
_atom_site_type_symbol
_atom_site_label
_atom_site_fract_x
_atom_site_fract_y
_atom_site_fract_z
Si Si1 0.271858 0.708613 0.790188
Si Si2 0.616693 0.779736 0.506336
Si Si3 0.227251 0.975670 0.240441
Si Si4 0.062770 0.773153 0.405627
Si Si5 0.564316 0.545093 0.860422
Si Si6 0.344681 0.042024 0.470151
O O1 0.250000 0.750000 0.500000
O O2 0.258274 0.616096 0.754103
O O3 0.250000 0.750000 0.000000
O O4 0.334679 0.718899 0.910451
O O5 0.589186 0.772372 0.723324
O O6 0.641378 0.866580 0.518794
O O7 0.578924 0.760987 0.203860
O O8 0.198292 0.994445 0.442596
O O9 0.281358 0.027378 0.351718
O O10 0.081521 0.864362 0.425512
O O11 0.000000 0.770974 0.250000
O O12 0.500000 0.547261 0.750000
O O13 0.579536 0.508956 0.622610
O O14 0.364899 0.996942 0.262144
#
# Coordination Sequence:
#
# PCOD9265386 Si02
#       6
#     8   8   8   8   8   8
#     4  12  23  40  64  95 130 161 208 266 319 384
#     4  12  24  40  67  98 126 171 221 262 321 391
#     4  10  20  36  57  85 123 165 199 244 311 371
#     4  11  24  43  65  94 132 172 219 275 324 369
#     4   9  17  33  59  86 114 156 206 254 312 379
#     4  10  19  36  60  88 118 161 213 253 306 382
#
# _framework density 20.876137
#
# number of rings (size 3 to 8) (size 9 to 14) (size 15 to 20)
#    0.000    1.333    0.000    8.500    0.000    2.667 
#    0.000    5.000    0.000   10.000    0.000    0.000 
#    0.000    0.000    0.000    0.000    0.000    0.000 
#
# Total GULP energy -134226.245794 kJ/mol
# GULP energy per Si atom -5592.760241 kJ/mol
# Density = 2.082862 g / cm^3
# Si number density = 20.876137 Si / 1000 Ang^3
#
#
#
# Elastic Constant Matrix: (Units=GPa)
#
#
# Indices 1 2 3 4 5 6 
#
# 1 24.4245 -3.3005 15.3710 0.0000 4.1512 0.0000
# 2 -3.3005 117.8509 22.4489 0.0000 2.5996 0.0000
# 3 15.3710 22.4489 126.0798 0.0000 -32.0639 0.0000
# 4 0.0000 0.0000 0.0000 32.4240 0.0000 -7.8211
# 5 4.1512 2.5996 -32.0639 0.0000 40.5210 0.0000
# 6 0.0000 0.0000 0.0000 -7.8211 0.0000 30.7128
#
#
#
# Elastic Compliance Matrix: (Units=1/GPa)
#
#
# Indices 1 2 3 4 5 6 
#
# 1 0.050112 0.003636 -0.010168 0.000000 -0.013413 0.000000
# 2 0.003636 0.009215 -0.002916 0.000000 -0.003271 0.000000
# 3 -0.010168 -0.002916 0.012523 0.000000 0.011138 0.000000
# 4 0.000000 0.000000 0.000000 0.032860 0.000000 0.008368
# 5 -0.013413 -0.003271 0.011138 0.000000 0.035076 0.000000
# 6 0.000000 0.000000 0.000000 0.008368 0.000000 0.034691
#
#
# Mechanical properties :
#
#
# Convention : Reuss Voigt Hill
#
# Bulk Modulus (GPa) = 18.88411 37.48825 28.18618
# Shear Modulus (GPa) = 23.69409 36.32063 30.00736
#
# Velocity S-wave (km/s) = 3.37261 4.17563 3.79542
# Velocity P-wave (km/s) = 4.92254 6.42218 5.72170
#
# Compressibility (1/GPa) = 0.05295457
#
# Stress axis : x y z
#
# Youngs Moduli (GPa) = 19.95513 108.52210 79.85412
#
# Poissons Ratio (x) = -0.39460 0.81196
# Poissons Ratio (y) = -0.07256 0.23284
# Poissons Ratio (z) = 0.20290 0.31644
#
# Static dielectric constant tensor:
#      x y z
#    x 1.754170 0.000000 -0.036100 
#    y 0.000000 4.946250 0.000000 
#    z -0.036100 0.000000 1.783740 
# 
# From -- ./inp_files/18176.got.cif
#   From: 2010.05.17/outbox.cif.g08.bks.cpg/sg15_10_cif.got.tgz:18176.got - 2010.06.03 18:47:42.
