data_PCOD9265575
_publ_section_title
;
Structure prediction by ZEFSAII (Michael W. Deem and Ramdas Pophale) SiO2 
 PCOD9265575
Probable space group: C 2/C
;
_chemical_formula_sum "Si O2"
_cell_formula_units_Z 60
_cell_length_a 12.285990
_cell_length_b 16.174124
_cell_length_c 28.720298
_cell_angle_alpha 90.000000
_cell_angle_beta 152.363918
_cell_angle_gamma 90.000000
_cell_volume 2647.288064
_symmetry_space_group_name_H-M "C 2/C"
_symmetry_group_IT_number 15
_symmetry_cell_setting 'monoclinic'
loop_
_space_group_symop_operation_xyz
x,y,z
-x,y,1/2-z
-x,-y,-z
x,-y,1/2+z
1/2+x,1/2+y,z
1/2-x,1/2+y,1/2-z
1/2-x,1/2-y,-z
1/2+x,1/2-y,1/2+z
loop_
_atom_site_type_symbol
_atom_site_label
_atom_site_fract_x
_atom_site_fract_y
_atom_site_fract_z
Si Si1 0.640370 0.406570 0.760479
Si Si2 0.274848 0.833893 0.720898
Si Si3 0.085475 0.339078 0.152048
Si Si4 0.997101 0.062082 0.656976
Si Si5 0.367868 0.048656 0.909907
Si Si6 0.500000 0.968150 0.750000
Si Si7 0.005887 0.942420 0.447243
Si Si8 0.892555 0.123545 0.996757
O O1 0.500000 0.366316 0.750000
O O2 0.755159 0.343251 0.769127
O O3 0.500264 0.463826 0.669691
O O4 0.783427 0.476902 0.842585
O O5 0.262595 0.735801 0.709603
O O6 0.469461 0.901546 0.780338
O O7 0.065357 0.857253 0.605004
O O8 0.240948 0.403661 0.239857
O O9 0.010636 0.382769 0.075440
O O10 0.843068 0.323205 0.086965
O O11 0.911660 0.082018 0.573043
O O12 0.843319 0.092751 0.642082
O O13 0.500000 0.000000 0.000000
O O14 0.265051 0.023468 0.659501
O O15 0.003549 0.874462 0.487085
O O16 0.154661 0.024411 0.516719
#
# Coordination Sequence:
#
# PCOD9265575 Si02
#       8
#     8   8   8   8   8   4   8   8
#     4   9  19  38  60  81 114 154 200 243 294 353
#     4  11  23  40  57  88 126 159 195 249 308 378
#     4  11  23  37  62  84 124 162 199 245 311 362
#     4  10  19  39  58  86 118 148 202 248 292 353
#     4  10  22  38  65  90 111 158 205 255 291 356
#     4  10  20  34  62  82 118 156 194 242 308 358
#     4  10  19  36  62  89 116 148 206 257 290 354
#     4  10  21  36  60  89 116 157 196 251 302 355
#
# _framework density 22.664705000000001
#
# number of rings (size 3 to 8) (size 9 to 14) (size 15 to 20)
#    0.000    1.867    2.667    3.200    5.600    0.000 
#    4.800    0.000    0.000    1.600    0.000    0.000 
#    0.000    0.000    0.000    0.000    0.000    0.000 
#
# Total GULP energy -167005.251473 kJ/mol
# GULP energy per Si atom -5566.841716 kJ/mol
# Density = 2.261312 g / cm^3
# Si number density = 22.664705 Si / 1000 Ang^3
#
#
#
# Elastic Constant Matrix: (Units=GPa)
#
#
# Indices 1 2 3 4 5 6 
#
# 1 126.1629 27.6363 29.4222 -0.0001 -37.1749 -0.0001
# 2 27.6363 36.1445 8.3633 -0.0006 -6.5305 -0.0001
# 3 29.4222 8.3633 52.0469 -0.0012 -6.3330 -0.0001
# 4 -0.0001 -0.0006 -0.0012 15.3577 0.0000 -4.6842
# 5 -37.1749 -6.5305 -6.3330 0.0000 39.6756 0.0000
# 6 -0.0001 -0.0001 -0.0001 -4.6842 0.0000 10.5700
#
#
#
# Elastic Compliance Matrix: (Units=1/GPa)
#
#
# Indices 1 2 3 4 5 6 
#
# 1 0.014116 -0.007531 -0.005417 -0.000001 0.011123 0.000000
# 2 -0.007531 0.033412 -0.001327 0.000001 -0.001768 0.000001
# 3 -0.005417 -0.001327 0.022277 0.000002 -0.001738 0.000001
# 4 -0.000001 0.000001 0.000002 0.075291 0.000000 0.033366
# 5 0.011123 -0.001768 -0.001738 0.000000 0.035058 0.000000
# 6 0.000000 0.000001 0.000001 0.033366 0.000000 0.109394
#
#
# Mechanical properties :
#
#
# Convention : Reuss Voigt Hill
#
# Bulk Modulus (GPa) = 24.23806 38.35534 31.29670
# Shear Modulus (GPa) = 15.06710 23.04948 19.05829
#
# Velocity S-wave (km/s) = 2.58114 3.19247 2.90294
# Velocity P-wave (km/s) = 4.42724 5.52710 5.00746
#
# Compressibility (1/GPa) = 0.04125743
#
# Stress axis : x y z
#
# Youngs Moduli (GPa) = 70.83963 29.92917 44.88890
#
# Poissons Ratio (x) = 0.22538 0.24314
# Poissons Ratio (y) = 0.53346 0.05957
# Poissons Ratio (z) = 0.38371 0.03972
#
# Static dielectric constant tensor:
#      x y z
#    x 2.030740 0.000000 0.082910 
#    y 0.000000 1.849080 0.000000 
#    z 0.082910 0.000000 1.932340 
# 
# From -- ./inp_files/311584.got.cif
#   From: 2010.05.17/outbox.cif.g08.bks.cpg/sg15_156_cif.got.tgz:311584.got - 2010.06.03 18:47:42.
