data_PCOD9265114
_publ_section_title
;
Structure prediction by ZEFSAII (Michael W. Deem and Ramdas Pophale) SiO2 
 PCOD9265114
Probable space group: C 2/C
;
_chemical_formula_sum "Si O2"
_cell_formula_units_Z 32
_cell_length_a 30.998662
_cell_length_b 9.024690
_cell_length_c 11.518664
_cell_angle_alpha 90.000000
_cell_angle_beta 154.793825
_cell_angle_gamma 90.000000
_cell_volume 1372.338792
_symmetry_space_group_name_H-M "C 2/C"
_symmetry_group_IT_number 15
_symmetry_cell_setting 'monoclinic'
loop_
_space_group_symop_operation_xyz
x,y,z
-x,y,1/2-z
-x,-y,-z
x,-y,1/2+z
1/2+x,1/2+y,z
1/2-x,1/2+y,1/2-z
1/2-x,1/2-y,-z
1/2+x,1/2-y,1/2+z
loop_
_atom_site_type_symbol
_atom_site_label
_atom_site_fract_x
_atom_site_fract_y
_atom_site_fract_z
Si Si1 0.881730 0.464440 0.201356
Si Si2 0.737148 0.407171 0.532256
Si Si3 0.360600 0.744278 0.510209
Si Si4 0.907825 0.829755 0.865467
O O1 0.847921 0.586408 0.023318
O O2 0.876520 0.285238 0.187543
O O3 0.000000 0.500000 0.500000
O O4 0.828454 0.506166 0.193822
O O5 0.750000 0.250000 0.500000
O O6 0.722263 0.357208 0.628287
O O7 0.638423 0.507996 0.265669
O O8 0.361411 0.722113 0.375480
O O9 0.471416 0.686510 0.823362
#
# Coordination Sequence:
#
# PCOD9265114 Si02
#       4
#     8   8   8   8
#     4   9  19  36  57  82 111 145 189 236 283 336
#     4  10  20  34  54  82 113 148 191 233 276 343
#     4   9  20  36  56  82 112 147 188 232 285 344
#     4  10  19  36  58  80 112 150 185 235 290 337
#
# _framework density 23.317855999999999
#
# number of rings (size 3 to 8) (size 9 to 14) (size 15 to 20)
#    0.000    2.500    0.000    1.500    0.000    4.000 
#    0.000    5.000    0.000   18.000    0.000    0.000 
#    0.000    0.000    0.000    0.000    0.000    0.000 
#
# Total GULP energy -89185.031125 kJ/mol
# GULP energy per Si atom -5574.064445 kJ/mol
# Density = 2.326478 g / cm^3
# Si number density = 23.317856 Si / 1000 Ang^3
#
#
#
# Elastic Constant Matrix: (Units=GPa)
#
#
# Indices 1 2 3 4 5 6 
#
# 1 111.3674 31.9572 15.3955 0.0000 1.9403 0.0000
# 2 31.9572 178.3393 50.5681 0.0000 -11.2192 0.0000
# 3 15.3955 50.5681 74.1647 0.0000 7.0471 0.0000
# 4 0.0000 0.0000 0.0000 47.3143 0.0000 0.1011
# 5 1.9403 -11.2192 7.0471 0.0000 38.5830 0.0000
# 6 0.0000 0.0000 0.0000 0.1011 0.0000 35.6648
#
#
#
# Elastic Compliance Matrix: (Units=1/GPa)
#
#
# Indices 1 2 3 4 5 6 
#
# 1 0.009547 -0.001509 -0.000881 0.000000 -0.000758 0.000000
# 2 -0.001509 0.007533 -0.005127 0.000000 0.003203 0.000000
# 3 -0.000881 -0.005127 0.017605 0.000000 -0.004662 0.000000
# 4 0.000000 0.000000 0.000000 0.021135 0.000000 -0.000060
# 5 -0.000758 0.003203 -0.004662 0.000000 0.027739 0.000000
# 6 0.000000 0.000000 0.000000 -0.000060 0.000000 0.028039
#
#
# Mechanical properties :
#
#
# Convention : Reuss Voigt Hill
#
# Bulk Modulus (GPa) = 50.88752 62.19033 56.53893
# Shear Modulus (GPa) = 37.54200 42.04244 39.79222
#
# Velocity S-wave (km/s) = 4.01685 4.25080 4.13548
# Velocity P-wave (km/s) = 6.58667 7.12888 6.86313
#
# Compressibility (1/GPa) = 0.01965118
#
# Stress axis : x y z
#
# Youngs Moduli (GPa) = 104.74259 132.74945 56.80044
#
# Poissons Ratio (x) = 0.20027 0.05005
# Poissons Ratio (y) = 0.15801 0.29124
# Poissons Ratio (z) = 0.09230 0.68066
#
# Static dielectric constant tensor:
#      x y z
#    x 1.860430 0.000000 -0.000100 
#    y 0.000000 1.952120 0.000000 
#    z -0.000100 0.000000 1.887960 
# 
# From -- ./inp_files/93448.got.cif
#   From: 2010.05.17/outbox.cif.g08.bks.cpg/sg15_47_cif.got.tgz:93448.got - 2010.06.03 18:47:42.
