data_PCOD9265614
_publ_section_title
;
Structure prediction by ZEFSAII (Michael W. Deem and Ramdas Pophale) SiO2 
 PCOD9265614
Probable space group: C 2/C
;
_chemical_formula_sum "Si O2"
_cell_formula_units_Z 52
_cell_length_a 7.821964
_cell_length_b 16.592303
_cell_length_c 26.428507
_cell_angle_alpha 90.000000
_cell_angle_beta 51.779200
_cell_angle_gamma 90.000000
_cell_volume 2694.725089
_symmetry_space_group_name_H-M "C 2/C"
_symmetry_group_IT_number 15
_symmetry_cell_setting 'monoclinic'
loop_
_space_group_symop_operation_xyz
x,y,z
-x,y,1/2-z
-x,-y,-z
x,-y,1/2+z
1/2+x,1/2+y,z
1/2-x,1/2+y,1/2-z
1/2-x,1/2-y,-z
1/2+x,1/2-y,1/2+z
loop_
_atom_site_type_symbol
_atom_site_label
_atom_site_fract_x
_atom_site_fract_y
_atom_site_fract_z
Si Si1 0.692544 0.345571 0.008306
Si Si2 0.500000 0.187670 0.250000
Si Si3 0.576828 0.677648 0.084999
Si Si4 0.527104 0.836725 0.452109
Si Si5 0.313927 0.900476 0.394758
Si Si6 0.446392 0.244608 0.702384
Si Si7 0.791974 0.414578 0.881361
O O1 0.435662 0.368386 0.053549
O O2 0.787827 0.371460 0.045644
O O3 0.750000 0.250000 0.000000
O O4 0.806714 0.381712 0.936750
O O5 0.305949 0.243722 0.264874
O O6 0.580899 0.133501 0.186883
O O7 0.440038 0.751969 0.084124
O O8 0.557738 0.686995 0.147819
O O9 0.462046 0.598989 0.085705
O O10 0.823873 0.684664 0.024794
O O11 0.433565 0.895784 0.427001
O O12 0.445656 0.838555 0.335432
O O13 0.332280 0.990926 0.372313
O O14 0.500000 0.257370 0.750000
#
# Coordination Sequence:
#
# PCOD9265614 Si02
#       7
#     8   4   8   8   8   8   8
#     4  12  22  37  70  95 125 173 213 249 317 387
#     4  10  26  46  68  88 124 170 222 252 308 386
#     4   9  18  38  60  90 129 158 206 258 304 361
#     4  10  19  36  62  95 125 162 204 255 302 377
#     4  11  25  41  63  97 134 157 205 273 325 360
#     4  10  23  40  68  88 118 170 219 257 301 383
#     4  11  23  43  64  93 132 167 200 268 323 366
#
# _framework density 19.296959000000001
#
# number of rings (size 3 to 8) (size 9 to 14) (size 15 to 20)
#    0.000    1.538    3.077    2.308    5.385    0.615 
#    0.000    0.000    1.692    0.000    0.000    0.000 
#    0.000    0.000    0.000    0.000    0.000    0.000 
#
# Total GULP energy -144892.285617 kJ/mol
# GULP energy per Si atom -5572.780216 kJ/mol
# Density = 1.925304 g / cm^3
# Si number density = 19.296959 Si / 1000 Ang^3
#
#
#
# Elastic Constant Matrix: (Units=GPa)
#
#
# Indices 1 2 3 4 5 6 
#
# 1 130.6563 50.2138 64.6612 -0.0002 24.0764 0.0005
# 2 50.2138 77.5024 18.5194 -0.0004 0.8405 0.0005
# 3 64.6612 18.5194 99.4515 -0.0012 18.4073 0.0007
# 4 -0.0002 -0.0004 -0.0012 11.7552 0.0005 0.1146
# 5 24.0764 0.8405 18.4073 0.0005 35.9157 -0.0004
# 6 0.0005 0.0005 0.0007 0.1146 -0.0004 19.4933
#
#
#
# Elastic Compliance Matrix: (Units=1/GPa)
#
#
# Indices 1 2 3 4 5 6 
#
# 1 0.015782 -0.008364 -0.007492 -0.000001 -0.006544 0.000000
# 2 -0.008364 0.017974 0.001250 0.000000 0.004546 0.000000
# 3 -0.007492 0.001250 0.015213 0.000002 -0.002803 0.000000
# 4 -0.000001 0.000000 0.000002 0.085074 -0.000002 -0.000500
# 5 -0.006544 0.004546 -0.002803 -0.000002 0.033560 0.000001
# 6 0.000000 0.000000 0.000000 -0.000500 0.000001 0.051303
#
#
# Mechanical properties :
#
#
# Convention : Reuss Voigt Hill
#
# Bulk Modulus (GPa) = 50.61936 63.82211 57.22073
# Shear Modulus (GPa) = 19.63069 25.04721 22.33895
#
# Velocity S-wave (km/s) = 3.19297 3.60667 3.40610
# Velocity P-wave (km/s) = 6.31523 7.10560 6.72204
#
# Compressibility (1/GPa) = 0.01975529
#
# Stress axis : x y z
#
# Youngs Moduli (GPa) = 63.36424 55.63647 65.73463
#
# Poissons Ratio (x) = 0.46533 0.49251
# Poissons Ratio (y) = 0.52996 -0.08214
# Poissons Ratio (z) = 0.47475 -0.06952
#
# Static dielectric constant tensor:
#      x y z
#    x 1.708540 0.000000 0.012100 
#    y 0.000000 1.696310 0.000000 
#    z 0.012100 0.000000 1.716820 
# 
# From -- ./inp_files/288621.got.cif
#   From: 2010.05.17/outbox.cif.g08.bks.cpg/sg15_145_cif.got.tgz:288621.got - 2010.06.03 18:47:42.
