data_PCOD9265994
_publ_section_title
;
Structure prediction by ZEFSAII (Michael W. Deem and Ramdas Pophale) SiO2 
 PCOD9265994
Probable space group: C 2/C
;
_chemical_formula_sum "Si O2"
_cell_formula_units_Z 48
_cell_length_a 14.769988
_cell_length_b 20.211919
_cell_length_c 14.155475
_cell_angle_alpha 90.000000
_cell_angle_beta 148.921755
_cell_angle_gamma 90.000000
_cell_volume 2181.408558
_symmetry_space_group_name_H-M "C 2/C"
_symmetry_group_IT_number 15
_symmetry_cell_setting 'monoclinic'
loop_
_space_group_symop_operation_xyz
x,y,z
-x,y,1/2-z
-x,-y,-z
x,-y,1/2+z
1/2+x,1/2+y,z
1/2-x,1/2+y,1/2-z
1/2-x,1/2-y,-z
1/2+x,1/2-y,1/2+z
loop_
_atom_site_type_symbol
_atom_site_label
_atom_site_fract_x
_atom_site_fract_y
_atom_site_fract_z
Si Si1 0.295947 0.853700 0.076722
Si Si2 0.351333 0.190462 0.825720
Si Si3 0.231561 0.829019 0.816797
Si Si4 0.822242 0.002078 0.535553
Si Si5 0.354326 0.923423 0.460533
Si Si6 0.245412 0.958452 0.725304
O O1 0.500000 0.834721 0.250000
O O2 0.245677 0.832158 0.137224
O O3 0.194941 0.823805 0.896272
O O4 0.281821 0.932965 0.058074
O O5 0.334426 0.269122 0.806364
O O6 0.298921 0.148136 0.870458
O O7 0.556143 0.171878 0.997274
O O8 0.170947 0.899163 0.721914
O O9 0.000000 0.990168 0.750000
O O10 0.717104 0.056958 0.501123
O O11 0.859209 0.023918 0.461965
O O12 0.563809 0.934150 0.642784
O O13 0.280953 0.977942 0.321359
#
# Coordination Sequence:
#
# PCOD9265994 Si02
#       6
#     8   8   8   8   8   8
#     4  10  19  37  59  83 117 157 194 223 278 356
#     4  10  21  36  59  86 116 153 189 235 285 339
#     4  10  21  36  59  86 116 153 189 235 285 339
#     4  12  24  35  56  91 121 145 185 249 296 324
#     4  10  20  39  63  82 110 155 199 232 276 347
#     4  10  20  39  63  82 110 155 199 232 276 347
#
# _framework density 22.004131000000001
#
# number of rings (size 3 to 8) (size 9 to 14) (size 15 to 20)
#    0.000    1.667    3.333    2.000    0.000    3.333 
#    0.000    0.833    0.000    0.000    0.000    0.000 
#    0.000    0.000    0.000    0.000    0.000    0.000 
#
# Total GULP energy -134193.692677 kJ/mol
# GULP energy per Si atom -5591.403862 kJ/mol
# Density = 2.195405 g / cm^3
# Si number density = 22.004131 Si / 1000 Ang^3
#
#
#
# Elastic Constant Matrix: (Units=GPa)
#
#
# Indices 1 2 3 4 5 6 
#
# 1 38.1171 -3.3583 16.5755 0.0000 -2.3170 0.0000
# 2 -3.3583 94.5922 30.2711 0.0000 -9.6025 0.0000
# 3 16.5755 30.2711 80.8909 0.0000 -23.4508 0.0000
# 4 0.0000 0.0000 0.0000 34.7208 0.0000 -4.0408
# 5 -2.3170 -9.6025 -23.4508 0.0000 27.2610 0.0000
# 6 0.0000 0.0000 0.0000 -4.0408 0.0000 12.5881
#
#
#
# Elastic Compliance Matrix: (Units=1/GPa)
#
#
# Indices 1 2 3 4 5 6 
#
# 1 0.029992 0.003409 -0.008439 0.000000 -0.003509 0.000000
# 2 0.003409 0.012402 -0.005315 0.000000 0.000087 0.000000
# 3 -0.008439 -0.005315 0.020423 0.000000 0.014979 0.000000
# 4 0.000000 0.000000 0.000000 0.029919 0.000000 0.009604
# 5 -0.003509 0.000087 0.014979 0.000000 0.049300 0.000000
# 6 0.000000 0.000000 0.000000 0.009604 0.000000 0.082523
#
#
# Mechanical properties :
#
#
# Convention : Reuss Voigt Hill
#
# Bulk Modulus (GPa) = 23.73710 33.39741 28.56725
# Shear Modulus (GPa) = 19.28341 26.25477 22.76909
#
# Velocity S-wave (km/s) = 2.96354 3.45798 3.22026
# Velocity P-wave (km/s) = 4.74564 5.58160 5.18051
#
# Compressibility (1/GPa) = 0.04212815
#
# Stress axis : x y z
#
# Youngs Moduli (GPa) = 33.34267 80.63022 48.96449
#
# Poissons Ratio (x) = -0.27487 0.41320
# Poissons Ratio (y) = -0.11367 0.26023
# Poissons Ratio (z) = 0.28137 0.42852
#
# Static dielectric constant tensor:
#      x y z
#    x 1.839210 0.000000 0.023600 
#    y 0.000000 1.809750 0.000000 
#    z 0.023600 0.000000 1.813420 
# 
# From -- ./inp_files/48369.got.cif
#   From: 2010.05.17/outbox.cif.g08.bks.cpg/sg15_25_cif.got.tgz:48369.got - 2010.06.03 18:47:42.
