data_PCOD9265973
_publ_section_title
;
Structure prediction by ZEFSAII (Michael W. Deem and Ramdas Pophale) SiO2 
 PCOD9265973
Probable space group: C 2/C
;
_chemical_formula_sum "Si O2"
_cell_formula_units_Z 56
_cell_length_a 15.111881
_cell_length_b 7.688865
_cell_length_c 23.575320
_cell_angle_alpha 90.000000
_cell_angle_beta 110.939958
_cell_angle_gamma 90.000000
_cell_volume 2558.376880
_symmetry_space_group_name_H-M "C 2/C"
_symmetry_group_IT_number 15
_symmetry_cell_setting 'monoclinic'
loop_
_space_group_symop_operation_xyz
x,y,z
-x,y,1/2-z
-x,-y,-z
x,-y,1/2+z
1/2+x,1/2+y,z
1/2-x,1/2+y,1/2-z
1/2-x,1/2-y,-z
1/2+x,1/2-y,1/2+z
loop_
_atom_site_type_symbol
_atom_site_label
_atom_site_fract_x
_atom_site_fract_y
_atom_site_fract_z
Si Si1 0.750535 0.703735 0.345014
Si Si2 0.409067 0.101721 0.001325
Si Si3 0.526087 0.137861 0.192795
Si Si4 0.172372 0.171677 0.111241
Si Si5 0.345941 0.951815 0.100600
Si Si6 0.950622 0.845085 0.405535
Si Si7 0.786900 0.406034 0.277472
O O1 0.857264 0.722219 0.394434
O O2 0.726557 0.524080 0.307684
O O3 0.680629 0.765251 0.378825
O O4 0.748360 0.841817 0.291633
O O5 0.353543 0.987284 0.035234
O O6 0.456884 0.271683 0.042134
O O7 0.347855 0.168106 0.935019
O O8 0.500000 0.000000 0.000000
O O9 0.500000 0.180401 0.250000
O O10 0.446435 0.014199 0.147543
O O11 0.531160 0.310015 0.156353
O O12 0.623044 0.029603 0.213076
O O13 0.264253 0.074469 0.108021
O O14 0.186193 0.240184 0.178060
O O15 0.084503 0.037295 0.088923
#
# Coordination Sequence:
#
# PCOD9265973 Si02
#       7
#     8   8   8   8   8   8   8
#     4  10  19  37  58  90 119 157 207 246 314 366
#     4  11  22  42  65  85 121 165 208 258 323 372
#     4  10  19  37  59  87 124 163 193 248 314 370
#     4  11  22  40  60  91 119 163 214 254 308 377
#     4  10  21  38  61  91 118 158 201 260 304 368
#     4   9  21  36  61  85 120 159 199 252 311 363
#     4  11  22  37  64  86 127 167 199 255 311 381
#
# _framework density 21.888877999999998
#
# number of rings (size 3 to 8) (size 9 to 14) (size 15 to 20)
#    0.000    1.714    1.429    5.143    2.000    0.000 
#    0.000   14.286    0.000    0.000    0.000    0.000 
#    0.000    0.000    0.000    0.000    0.000    0.000 
#
# Total GULP energy -156357.371250 kJ/mol
# GULP energy per Si atom -5584.191830 kJ/mol
# Density = 2.183906 g / cm^3
# Si number density = 21.888878 Si / 1000 Ang^3
#
#
#
# Elastic Constant Matrix: (Units=GPa)
#
#
# Indices 1 2 3 4 5 6 
#
# 1 64.8911 2.4915 13.1681 0.0000 -19.5084 0.0000
# 2 2.4915 61.0282 -1.5011 0.0000 -17.1905 0.0000
# 3 13.1681 -1.5011 58.2612 0.0000 -14.1619 0.0000
# 4 0.0000 0.0000 0.0000 31.7843 0.0000 -3.6714
# 5 -19.5084 -17.1905 -14.1619 0.0000 39.6205 0.0000
# 6 0.0000 0.0000 0.0000 -3.6714 0.0000 34.8613
#
#
#
# Elastic Compliance Matrix: (Units=1/GPa)
#
#
# Indices 1 2 3 4 5 6 
#
# 1 0.018494 0.001791 -0.001896 0.000000 0.009206 0.000000
# 2 0.001791 0.019232 0.002555 0.000000 0.010140 0.000000
# 3 -0.001896 0.002555 0.019385 0.000000 0.007104 0.000000
# 4 0.000000 0.000000 0.000000 0.031849 0.000000 0.003354
# 5 0.009206 0.010140 0.007104 0.000000 0.036711 0.000000
# 6 0.000000 0.000000 0.000000 0.003354 0.000000 0.029038
#
#
# Mechanical properties :
#
#
# Convention : Reuss Voigt Hill
#
# Bulk Modulus (GPa) = 16.12592 23.61086 19.86839
# Shear Modulus (GPa) = 29.32908 32.58802 30.95855
#
# Velocity S-wave (km/s) = 3.66445 3.86267 3.76487
# Velocity P-wave (km/s) = 5.02866 5.54110 5.29109
#
# Compressibility (1/GPa) = 0.06201196
#
# Stress axis : x y z
#
# Youngs Moduli (GPa) = 54.07178 51.99736 51.58545
#
# Poissons Ratio (x) = -0.09315 0.09782
# Poissons Ratio (y) = -0.09686 -0.13182
# Poissons Ratio (z) = 0.10253 -0.13287
#
# Static dielectric constant tensor:
#      x y z
#    x 1.789270 0.000000 -0.001670 
#    y 0.000000 1.852080 0.000000 
#    z -0.001670 0.000000 1.809660 
# 
# From -- ./inp_files/272841.got.cif
#   From: 2010.05.17/outbox.cif.g08.bks.cpg/sg15_137_cif.got.tgz:272841.got - 2010.06.03 18:47:42.
