data_PCOD9265169
_publ_section_title
;
Structure prediction by ZEFSAII (Michael W. Deem and Ramdas Pophale) SiO2 
 PCOD9265169
Probable space group: C 2/C
;
_chemical_formula_sum "Si O2"
_cell_formula_units_Z 40
_cell_length_a 24.104645
_cell_length_b 8.128748
_cell_length_c 9.690384
_cell_angle_alpha 90.000000
_cell_angle_beta 99.029695
_cell_angle_gamma 90.000000
_cell_volume 1875.208680
_symmetry_space_group_name_H-M "C 2/C"
_symmetry_group_IT_number 15
_symmetry_cell_setting 'monoclinic'
loop_
_space_group_symop_operation_xyz
x,y,z
-x,y,1/2-z
-x,-y,-z
x,-y,1/2+z
1/2+x,1/2+y,z
1/2-x,1/2+y,1/2-z
1/2-x,1/2-y,-z
1/2+x,1/2-y,1/2+z
loop_
_atom_site_type_symbol
_atom_site_label
_atom_site_fract_x
_atom_site_fract_y
_atom_site_fract_z
Si Si1 0.334747 0.997999 0.082861
Si Si2 0.857156 0.156176 0.243180
Si Si3 0.361710 0.801521 0.844737
Si Si4 0.798009 0.014116 0.958672
Si Si5 0.039228 0.946990 0.140016
O O1 0.350341 0.835072 0.176893
O O2 0.267623 0.008317 0.045067
O O3 0.355610 0.147853 0.183968
O O4 0.360201 0.960440 0.943166
O O5 0.823479 0.127436 0.371858
O O6 0.920390 0.095879 0.294544
O O7 0.829885 0.037505 0.115525
O O8 0.311270 0.683595 0.879223
O O9 0.417516 0.695041 0.887394
O O10 0.000000 0.892684 0.250000
O O11 0.000000 0.000000 0.000000
#
# Coordination Sequence:
#
# PCOD9265169 Si02
#       5
#     8   8   8   8   8
#     4  11  20  37  57  88 125 149 180 238 289 344
#     4  10  21  36  59  86 112 152 197 231 281 345
#     4  10  23  37  58  88 118 155 195 231 286 347
#     4  10  19  36  58  87 121 156 186 225 283 352
#     4  11  23  44  64  81 109 152 201 247 286 336
#
# _framework density 21.330960999999999
#
# number of rings (size 3 to 8) (size 9 to 14) (size 15 to 20)
#    0.000    1.600    0.000    8.400    0.000    4.800 
#    0.000   12.000    0.000    0.000    0.000    0.000 
#    0.000    0.000    0.000    0.000    0.000    0.000 
#
# Total GULP energy -111872.268633 kJ/mol
# GULP energy per Si atom -5593.613432 kJ/mol
# Density = 2.128241 g / cm^3
# Si number density = 21.330961 Si / 1000 Ang^3
#
#
#
# Elastic Constant Matrix: (Units=GPa)
#
#
# Indices 1 2 3 4 5 6 
#
# 1 90.9243 1.6780 15.0513 0.0000 9.4453 0.0000
# 2 1.6780 37.0188 7.4412 0.0000 8.6655 0.0000
# 3 15.0513 7.4412 95.5203 0.0000 6.1465 0.0000
# 4 0.0000 0.0000 0.0000 44.2697 0.0000 -2.9012
# 5 9.4453 8.6655 6.1465 0.0000 42.7966 0.0000
# 6 0.0000 0.0000 0.0000 -2.9012 0.0000 0.3619
#
#
#
# Elastic Compliance Matrix: (Units=1/GPa)
#
#
# Indices 1 2 3 4 5 6 
#
# 1 0.011518 0.000374 -0.001691 0.000000 -0.002375 0.000000
# 2 0.000374 0.028700 -0.001933 0.000000 -0.005616 0.000000
# 3 -0.001691 -0.001933 0.010938 0.000000 -0.000806 0.000000
# 4 0.000000 0.000000 0.000000 0.047597 0.000000 0.381601
# 5 -0.002375 -0.005616 -0.000806 0.000000 0.025143 0.000000
# 6 0.000000 0.000000 0.000000 0.381601 0.000000 5.822830
#
#
# Mechanical properties :
#
#
# Convention : Reuss Voigt Hill
#
# Bulk Modulus (GPa) = 22.39438 30.20048 26.29743
# Shear Modulus (GPa) = 0.83779 30.77184 15.80481
#
# Velocity S-wave (km/s) = 0.62738 3.80227 2.72496
# Velocity P-wave (km/s) = 3.32357 5.78490 4.71758
#
# Compressibility (1/GPa) = 0.04465407
#
# Stress axis : x y z
#
# Youngs Moduli (GPa) = 86.82124 34.84372 91.42482
#
# Poissons Ratio (x) = -0.01302 0.15462
# Poissons Ratio (y) = -0.03245 0.17675
# Poissons Ratio (z) = 0.14683 0.06736
#
# Static dielectric constant tensor:
#      x y z
#    x 1.744840 0.000000 -0.018300 
#    y 0.000000 1.882170 0.000000 
#    z -0.018300 0.000000 1.798130 
# 
# From -- ./inp_files/60081.got.cif
#   From: 2010.05.17/outbox.cif.g08.bks.cpg/sg15_31_cif.got.tgz:60081.got - 2010.06.03 18:47:42.
