data_PCOD9265198
_publ_section_title
;
Structure prediction by ZEFSAII (Michael W. Deem and Ramdas Pophale) SiO2 
 PCOD9265198
Probable space group: C 2/C
;
_chemical_formula_sum "Si O2"
_cell_formula_units_Z 52
_cell_length_a 15.177473
_cell_length_b 33.546352
_cell_length_c 12.350497
_cell_angle_alpha 90.000000
_cell_angle_beta 21.757455
_cell_angle_gamma 90.000000
_cell_volume 2330.914530
_symmetry_space_group_name_H-M "C 2/C"
_symmetry_group_IT_number 15
_symmetry_cell_setting 'monoclinic'
loop_
_space_group_symop_operation_xyz
x,y,z
-x,y,1/2-z
-x,-y,-z
x,-y,1/2+z
1/2+x,1/2+y,z
1/2-x,1/2+y,1/2-z
1/2-x,1/2-y,-z
1/2+x,1/2-y,1/2+z
loop_
_atom_site_type_symbol
_atom_site_label
_atom_site_fract_x
_atom_site_fract_y
_atom_site_fract_z
Si Si1 0.247662 0.959193 0.665542
Si Si2 0.601334 0.105545 0.854573
Si Si3 0.500000 0.795017 0.750000
Si Si4 0.740343 0.340394 0.865258
Si Si5 0.000000 0.910757 0.250000
Si Si6 0.648024 0.741183 0.375539
Si Si7 0.766444 0.953845 0.346729
Si Si8 0.500000 0.581904 0.250000
O O1 0.427364 0.924472 0.490308
O O2 0.134344 0.946827 0.680558
O O3 0.353692 0.003510 0.535064
O O4 0.038181 0.960066 0.993941
O O5 0.665654 0.081269 0.888914
O O6 0.828672 0.108775 0.518688
O O7 0.475545 0.145981 0.032930
O O8 0.313168 0.822804 0.899589
O O9 0.598592 0.766978 0.541713
O O10 0.617476 0.305270 0.939946
O O11 0.594273 0.380670 0.050736
O O12 0.206407 0.938280 0.062673
O O13 0.435599 0.752637 0.534496
#
# Coordination Sequence:
#
# PCOD9265198 Si02
#       8
#     8   8   4   8   4   8   8   4
#     4  10  20  42  57  82 109 155 207 265 312 367
#     4  11  22  40  57  88 114 157 207 266 316 361
#     4  10  19  36  58  93 130 172 200 228 305 402
#     4  11  21  34  58  87 128 159 193 251 297 371
#     4  12  20  36  52  92 126 164 198 244 318 374
#     4  10  20  36  57  88 125 171 206 232 293 388
#     4  10  22  35  59  82 120 154 203 251 309 382
#     4  10  23  40  64  77 108 152 218 266 317 360
#
# _framework density 22.308841000000001
#
# number of rings (size 3 to 8) (size 9 to 14) (size 15 to 20)
#    0.000    1.538    1.538    5.538    0.000    1.231 
#    5.538    0.000    0.000    0.000    0.000    4.308 
#    0.000    0.000    0.000    0.000    0.000    0.000 
#
# Total GULP energy -145321.480503 kJ/mol
# GULP energy per Si atom -5589.287712 kJ/mol
# Density = 2.225806 g / cm^3
# Si number density = 22.308841 Si / 1000 Ang^3
#
#
#
# Elastic Constant Matrix: (Units=GPa)
#
#
# Indices 1 2 3 4 5 6 
#
# 1 66.2963 11.5220 12.5174 -0.0003 -14.1062 0.0001
# 2 11.5220 98.8298 13.9062 -0.0001 0.9731 0.0000
# 3 12.5174 13.9062 75.1012 -0.0004 5.9922 -0.0001
# 4 -0.0003 -0.0001 -0.0004 39.1849 -0.0001 -4.9893
# 5 -14.1062 0.9731 5.9922 -0.0001 35.4107 0.0000
# 6 0.0001 0.0000 -0.0001 -4.9893 0.0000 12.8942
#
#
#
# Elastic Compliance Matrix: (Units=1/GPa)
#
#
# Indices 1 2 3 4 5 6 
#
# 1 0.017603 -0.001672 -0.003231 0.000000 0.007605 0.000000
# 2 -0.001672 0.010548 -0.001620 0.000000 -0.000682 0.000000
# 3 -0.003231 -0.001620 0.014448 0.000000 -0.003687 0.000000
# 4 0.000000 0.000000 0.000000 0.026843 0.000000 0.010387
# 5 0.007605 -0.000682 -0.003687 0.000000 0.031912 0.000000
# 6 0.000000 0.000000 0.000000 0.010387 0.000000 0.081573
#
#
# Mechanical properties :
#
#
# Convention : Reuss Voigt Hill
#
# Bulk Modulus (GPa) = 33.83874 35.12427 34.48151
# Shear Modulus (GPa) = 24.29257 30.98342 27.63799
#
# Velocity S-wave (km/s) = 3.30346 3.73076 3.52359
# Velocity P-wave (km/s) = 5.45451 5.85976 5.66076
#
# Compressibility (1/GPa) = 0.02955193
#
# Stress axis : x y z
#
# Youngs Moduli (GPa) = 56.80966 94.80427 69.21344
#
# Poissons Ratio (x) = 0.15855 0.22363
# Poissons Ratio (y) = 0.09501 0.11212
# Poissons Ratio (z) = 0.18355 0.15358
#
# Static dielectric constant tensor:
#      x y z
#    x 1.802070 0.000000 -0.030550 
#    y 0.000000 1.785280 0.000000 
#    z -0.030550 0.000000 1.962400 
# 
# From -- ./inp_files/164571.got.cif
#   From: 2010.05.17/outbox.cif.g08.bks.cpg/sg15_83_cif.got.tgz:164571.got - 2010.06.03 18:47:42.
