data_PCOD9265101
_publ_section_title
;
Structure prediction by ZEFSAII (Michael W. Deem and Ramdas Pophale) SiO2 
 PCOD9265101
Probable space group: C 2/C
;
_chemical_formula_sum "Si O2"
_cell_formula_units_Z 48
_cell_length_a 8.410514
_cell_length_b 18.504869
_cell_length_c 16.095395
_cell_angle_alpha 90.000000
_cell_angle_beta 91.931902
_cell_angle_gamma 90.000000
_cell_volume 2503.590352
_symmetry_space_group_name_H-M "C 2/C"
_symmetry_group_IT_number 15
_symmetry_cell_setting 'monoclinic'
loop_
_space_group_symop_operation_xyz
x,y,z
-x,y,1/2-z
-x,-y,-z
x,-y,1/2+z
1/2+x,1/2+y,z
1/2-x,1/2+y,1/2-z
1/2-x,1/2-y,-z
1/2+x,1/2-y,1/2+z
loop_
_atom_site_type_symbol
_atom_site_label
_atom_site_fract_x
_atom_site_fract_y
_atom_site_fract_z
Si Si1 0.751343 0.131661 0.206310
Si Si2 0.958080 0.516184 0.376375
Si Si3 0.000000 0.604668 0.750000
Si Si4 0.214434 0.419688 0.998637
Si Si5 0.000000 0.751285 0.250000
Si Si6 0.567832 0.355788 0.621899
Si Si7 0.777106 0.301821 0.360180
O O1 0.642725 0.063355 0.188048
O O2 0.636843 0.200308 0.214238
O O3 0.846558 0.118050 0.292512
O O4 0.881065 0.144858 0.136912
O O5 0.037720 0.449234 0.328176
O O6 0.830527 0.485107 0.440694
O O7 0.081578 0.568421 0.425148
O O8 0.133798 0.657272 0.714357
O O9 0.377870 0.407070 0.952186
O O10 0.202926 0.350556 0.058132
O O11 0.095937 0.792687 0.324356
O O12 0.640593 0.274808 0.617194
#
# Coordination Sequence:
#
# PCOD9265101 Si02
#       7
#     8   8   4   8   4   8   8
#     4  10  20  35  59  80 106 146 185 220 263 326
#     4  10  20  36  56  80 108 152 187 212 267 324
#     4  10  19  36  58  78 107 142 186 224 258 324
#     4  10  21  36  55  79 114 146 178 225 271 321
#     4  10  19  36  58  80 105 138 186 226 268 328
#     4  10  20  36  57  84 112 140 178 229 274 314
#     4  10  20  36  58  83 108 140 179 226 276 317
#
# _framework density 19.172464999999999
#
# number of rings (size 3 to 8) (size 9 to 14) (size 15 to 20)
#    0.000    2.000    0.000    6.000    0.000    0.667 
#    0.000   18.333    0.000    0.000    0.000    0.000 
#    0.000    0.000    0.000    0.000    0.000    0.000 
#
# Total GULP energy -133692.390182 kJ/mol
# GULP energy per Si atom -5570.516258 kJ/mol
# Density = 1.912883 g / cm^3
# Si number density = 19.172465 Si / 1000 Ang^3
#
#
#
# Elastic Constant Matrix: (Units=GPa)
#
#
# Indices 1 2 3 4 5 6 
#
# 1 85.0122 31.8807 38.2652 0.0000 -20.0746 0.0000
# 2 31.8807 44.4384 17.1840 0.0000 -0.7750 0.0000
# 3 38.2652 17.1840 61.6939 0.0000 -29.2188 0.0000
# 4 0.0000 0.0000 0.0000 33.4737 0.0000 33.2000
# 5 -20.0746 -0.7750 -29.2188 0.0000 26.3524 0.0000
# 6 0.0000 0.0000 0.0000 33.2000 0.0000 77.6200
#
#
#
# Elastic Compliance Matrix: (Units=1/GPa)
#
#
# Indices 1 2 3 4 5 6 
#
# 1 0.021365 -0.013533 -0.004133 0.000000 0.011295 0.000000
# 2 -0.013533 0.036885 -0.013159 0.000000 -0.023814 0.000000
# 3 -0.004133 -0.013159 0.043724 0.000000 0.044944 0.000000
# 4 0.000000 0.000000 0.000000 0.051885 0.000000 -0.022193
# 5 0.011295 -0.023814 0.044944 0.000000 0.095684 0.000000
# 6 0.000000 0.000000 0.000000 -0.022193 0.000000 0.022376
#
#
# Mechanical properties :
#
#
# Convention : Reuss Voigt Hill
#
# Bulk Modulus (GPa) = 24.79853 40.64492 32.72173
# Shear Modulus (GPa) = 14.40887 34.41019 24.40953
#
# Velocity S-wave (km/s) = 2.74440 4.24107 3.57200
# Velocity P-wave (km/s) = 4.79633 6.72517 5.84092
#
# Compressibility (1/GPa) = 0.04032497
#
# Stress axis : x y z
#
# Youngs Moduli (GPa) = 46.80454 27.11160 22.87096
#
# Poissons Ratio (x) = 0.36689 0.09452
# Poissons Ratio (y) = 0.63339 0.30095
# Poissons Ratio (z) = 0.19344 0.35675
#
# Static dielectric constant tensor:
#      x y z
#    x 1.665410 0.000000 -0.028190 
#    y 0.000000 1.672100 0.000000 
#    z -0.028190 0.000000 1.704930 
# 
# From -- ./inp_files/134914.got.cif
#   From: 2010.05.17/outbox.cif.g08.bks.cpg/sg15_68_cif.got.tgz:134914.got - 2010.06.03 18:47:42.
