data_PCOD9265029
_publ_section_title
;
Structure prediction by ZEFSAII (Michael W. Deem and Ramdas Pophale) SiO2 
 PCOD9265029
Probable space group: C 2/C
;
_chemical_formula_sum "Si O2"
_cell_formula_units_Z 64
_cell_length_a 11.878977
_cell_length_b 8.903294
_cell_length_c 26.733125
_cell_angle_alpha 90.000000
_cell_angle_beta 97.383449
_cell_angle_gamma 90.000000
_cell_volume 2803.905966
_symmetry_space_group_name_H-M "C 2/C"
_symmetry_group_IT_number 15
_symmetry_cell_setting 'monoclinic'
loop_
_space_group_symop_operation_xyz
x,y,z
-x,y,1/2-z
-x,-y,-z
x,-y,1/2+z
1/2+x,1/2+y,z
1/2-x,1/2+y,1/2-z
1/2-x,1/2-y,-z
1/2+x,1/2-y,1/2+z
loop_
_atom_site_type_symbol
_atom_site_label
_atom_site_fract_x
_atom_site_fract_y
_atom_site_fract_z
Si Si1 0.177894 0.660180 0.699305
Si Si2 0.974993 0.898894 0.691622
Si Si3 0.727521 0.806639 0.889097
Si Si4 0.720889 0.821581 0.700361
Si Si5 0.840258 0.571796 0.954854
Si Si6 0.767725 0.747150 0.441898
Si Si7 0.581773 0.019309 0.928572
Si Si8 0.396559 0.584799 0.878206
O O1 0.060801 0.755818 0.691370
O O2 0.251315 0.691357 0.653989
O O3 0.252671 0.731795 0.747606
O O4 0.162801 0.482819 0.705758
O O5 0.000000 0.960454 0.750000
O O6 0.845148 0.852415 0.684904
O O7 0.001372 0.011384 0.647193
O O8 0.771141 0.721689 0.940943
O O9 0.605974 0.881552 0.892559
O O10 0.811344 0.944366 0.880914
O O11 0.653287 0.712479 0.660430
O O12 0.773326 0.427381 0.930387
O O13 0.955410 0.575088 0.929023
O O14 0.875409 0.537378 0.014094
O O15 0.750000 0.750000 0.500000
O O16 0.884672 0.829797 0.431136
O O17 0.661564 0.842998 0.416436
#
# Coordination Sequence:
#
# PCOD9265029 Si02
#       8
#     8   8   8   8   8   8   8   8
#     4  10  21  36  57  82 108 144 184 225 277 335
#     4   9  20  38  57  81 110 144 185 231 281 332
#     4  10  20  35  55  83 111 141 187 231 276 334
#     4  11  21  40  59  78 115 147 181 234 280 333
#     4  10  19  36  57  79 111 147 186 231 279 335
#     4   9  19  36  56  82 114 145 186 236 280 333
#     4   9  20  36  57  80 109 150 185 227 285 332
#     4  10  21  37  59  84 112 151 191 231 286 343
#
# _framework density 22.825302000000001
#
# number of rings (size 3 to 8) (size 9 to 14) (size 15 to 20)
#    0.000    2.250    0.000    3.375    0.000    5.000 
#    0.000   11.875    0.000   13.500    0.000    0.000 
#    0.000    0.000    0.000    0.000    0.000    0.000 
#
# Total GULP energy -178669.613254 kJ/mol
# GULP energy per Si atom -5583.425414 kJ/mol
# Density = 2.277335 g / cm^3
# Si number density = 22.825302 Si / 1000 Ang^3
#
#
#
# Elastic Constant Matrix: (Units=GPa)
#
#
# Indices 1 2 3 4 5 6 
#
# 1 66.9204 28.4634 1.5027 0.0000 -16.7465 0.0000
# 2 28.4634 120.5086 33.4967 0.0000 -4.3276 0.0000
# 3 1.5027 33.4967 74.6058 0.0000 -14.1969 0.0000
# 4 0.0000 0.0000 0.0000 22.8874 0.0000 -14.6619
# 5 -16.7465 -4.3276 -14.1969 0.0000 26.1691 0.0000
# 6 0.0000 0.0000 0.0000 -14.6619 0.0000 21.5017
#
#
#
# Elastic Compliance Matrix: (Units=1/GPa)
#
#
# Indices 1 2 3 4 5 6 
#
# 1 0.021172 -0.005876 0.005135 0.000000 0.015363 0.000000
# 2 -0.005876 0.011129 -0.005847 0.000000 -0.005092 0.000000
# 3 0.005135 -0.005847 0.018251 0.000000 0.012221 0.000000
# 4 0.000000 0.000000 0.000000 0.077583 0.000000 0.052903
# 5 0.015363 -0.005092 0.012221 0.000000 0.053832 0.000000
# 6 0.000000 0.000000 0.000000 0.052903 0.000000 0.082583
#
#
# Mechanical properties :
#
#
# Convention : Reuss Voigt Hill
#
# Bulk Modulus (GPa) = 26.75591 43.21782 34.98686
# Shear Modulus (GPa) = 17.23050 27.34977 22.29014
#
# Velocity S-wave (km/s) = 2.75050 3.46529 3.12838
# Velocity P-wave (km/s) = 4.67274 5.91492 5.33014
#
# Compressibility (1/GPa) = 0.03737492
#
# Stress axis : x y z
#
# Youngs Moduli (GPa) = 47.23302 89.85911 54.79113
#
# Poissons Ratio (x) = 0.52804 -0.28137
# Poissons Ratio (y) = 0.27756 0.32037
# Poissons Ratio (z) = -0.24256 0.52542
#
# Static dielectric constant tensor:
#      x y z
#    x 1.873540 0.000000 -0.020700 
#    y 0.000000 1.858270 0.000000 
#    z -0.020700 0.000000 1.966730 
# 
# From -- ./inp_files/310299.got.cif
#   From: 2010.05.17/outbox.cif.g08.bks.cpg/sg15_156_cif.got.tgz:310299.got - 2010.06.03 18:47:42.
