data_PCOD9265483
_publ_section_title
;
Structure prediction by ZEFSAII (Michael W. Deem and Ramdas Pophale) SiO2 
 PCOD9265483
Probable space group: C 2/C
;
_chemical_formula_sum "Si O2"
_cell_formula_units_Z 56
_cell_length_a 26.179333
_cell_length_b 14.696870
_cell_length_c 12.089974
_cell_angle_alpha 90.000000
_cell_angle_beta 141.982269
_cell_angle_gamma 90.000000
_cell_volume 2864.987577
_symmetry_space_group_name_H-M "C 2/C"
_symmetry_group_IT_number 15
_symmetry_cell_setting 'monoclinic'
loop_
_space_group_symop_operation_xyz
x,y,z
-x,y,1/2-z
-x,-y,-z
x,-y,1/2+z
1/2+x,1/2+y,z
1/2-x,1/2+y,1/2-z
1/2-x,1/2-y,-z
1/2+x,1/2-y,1/2+z
loop_
_atom_site_type_symbol
_atom_site_label
_atom_site_fract_x
_atom_site_fract_y
_atom_site_fract_z
Si Si1 0.564772 0.359909 0.660750
Si Si2 0.067675 0.381923 0.544321
Si Si3 0.644996 0.261370 0.606439
Si Si4 0.950007 0.590641 0.051854
Si Si5 0.500000 0.378104 0.250000
Si Si6 0.751626 0.832623 0.918056
Si Si7 0.500000 0.739073 0.250000
Si Si8 0.596173 0.437299 0.217852
O O1 0.627266 0.293030 0.701472
O O2 0.559803 0.324651 0.777781
O O3 0.465427 0.370794 0.457531
O O4 0.599415 0.459298 0.684521
O O5 0.062607 0.483412 0.485920
O O6 0.159831 0.370223 0.747861
O O7 0.045532 0.306414 0.414798
O O8 0.003337 0.375525 0.537036
O O9 0.631889 0.153092 0.579543
O O10 0.566134 0.310955 0.415786
O O11 0.717574 0.298686 0.651115
O O12 0.000000 0.605042 0.250000
O O13 0.543258 0.443155 0.238661
O O14 0.750000 0.750000 0.000000
O O15 0.816783 0.899159 0.090784
#
# Coordination Sequence:
#
# PCOD9265483 Si02
#       8
#     8   8   8   8   4   8   4   8
#     4  10  20  36  63  90 124 171 204 260 313 393
#     4  11  25  41  64  97 126 164 223 265 325 381
#     4  10  19  36  61  89 118 155 212 249 316 375
#     4  11  21  42  69  89 119 173 223 268 307 388
#     4   8  15  29  60  84 112 150 202 251 279 380
#     4  11  23  42  62  94 125 162 211 273 319 378
#     4  12  21  41  64  94 132 166 216 265 319 396
#     4   9  19  37  60  92 123 161 213 251 320 380
#
# _framework density 19.546333000000001
#
# number of rings (size 3 to 8) (size 9 to 14) (size 15 to 20)
#    0.000    1.714    2.857    2.143    2.000    1.143 
#    7.714    0.714    0.000    0.000    0.000    0.000 
#    0.000    0.000    0.000    0.000    0.000    0.000 
#
# Total GULP energy -155878.140506 kJ/mol
# GULP energy per Si atom -5567.076447 kJ/mol
# Density = 1.950184 g / cm^3
# Si number density = 19.546333 Si / 1000 Ang^3
#
#
#
# Elastic Constant Matrix: (Units=GPa)
#
#
# Indices 1 2 3 4 5 6 
#
# 1 47.7993 17.2898 10.2545 0.0000 -7.5963 0.0000
# 2 17.2898 86.5447 23.5470 0.0000 -0.9480 0.0000
# 3 10.2545 23.5470 66.3681 0.0000 -0.1917 0.0000
# 4 0.0000 0.0000 0.0000 28.0096 0.0000 -8.8898
# 5 -7.5963 -0.9480 -0.1917 0.0000 27.5653 0.0000
# 6 0.0000 0.0000 0.0000 -8.8898 0.0000 18.4963
#
#
#
# Elastic Compliance Matrix: (Units=1/GPa)
#
#
# Indices 1 2 3 4 5 6 
#
# 1 0.023902 -0.004101 -0.002220 0.000000 0.006430 0.000000
# 2 -0.004101 0.013497 -0.004157 0.000000 -0.000695 0.000000
# 3 -0.002220 -0.004157 0.016884 0.000000 -0.000637 0.000000
# 4 0.000000 0.000000 0.000000 0.042128 0.000000 0.020248
# 5 0.006430 -0.000695 -0.000637 0.000000 0.038021 0.000000
# 6 0.000000 0.000000 0.000000 0.020248 0.000000 0.063796
#
#
# Mechanical properties :
#
#
# Convention : Reuss Voigt Hill
#
# Bulk Modulus (GPa) = 30.00483 33.65498 31.82990
# Shear Modulus (GPa) = 21.71139 24.78896 23.25017
#
# Velocity S-wave (km/s) = 3.33643 3.56506 3.45264
# Velocity P-wave (km/s) = 5.49784 5.84822 5.67574
#
# Compressibility (1/GPa) = 0.03332797
#
# Stress axis : x y z
#
# Youngs Moduli (GPa) = 41.83702 74.08798 59.22933
#
# Poissons Ratio (x) = 0.30382 0.13147
# Poissons Ratio (y) = 0.17157 0.24623
# Poissons Ratio (z) = 0.09286 0.30800
#
# Static dielectric constant tensor:
#      x y z
#    x 1.711950 0.000000 -0.037990 
#    y 0.000000 0.872310 0.000000 
#    z -0.037990 0.000000 1.739450 
# 
# From -- ./inp_files/123365.got.cif
#   From: 2010.05.17/outbox.cif.g08.bks.cpg/sg15_62_cif.got.tgz:123365.got - 2010.06.03 18:47:42.
