data_PCOD9265510
_publ_section_title
;
Structure prediction by ZEFSAII (Michael W. Deem and Ramdas Pophale) SiO2 
 PCOD9265510
Probable space group: C 2/C
;
_chemical_formula_sum "Si O2"
_cell_formula_units_Z 40
_cell_length_a 9.990642
_cell_length_b 15.472575
_cell_length_c 12.189294
_cell_angle_alpha 90.000000
_cell_angle_beta 68.243849
_cell_angle_gamma 90.000000
_cell_volume 1750.018401
_symmetry_space_group_name_H-M "C 2/C"
_symmetry_group_IT_number 15
_symmetry_cell_setting 'monoclinic'
loop_
_space_group_symop_operation_xyz
x,y,z
-x,y,1/2-z
-x,-y,-z
x,-y,1/2+z
1/2+x,1/2+y,z
1/2-x,1/2+y,1/2-z
1/2-x,1/2-y,-z
1/2+x,1/2-y,1/2+z
loop_
_atom_site_type_symbol
_atom_site_label
_atom_site_fract_x
_atom_site_fract_y
_atom_site_fract_z
Si Si1 0.500000 0.684268 0.250000
Si Si2 0.179450 0.380466 0.631932
Si Si3 0.213535 0.786384 0.265114
Si Si4 0.995732 0.835362 0.985511
Si Si5 0.061937 0.635011 0.936261
Si Si6 0.500000 0.974400 0.250000
O O1 0.355443 0.742101 0.277541
O O2 0.466804 0.630814 0.370930
O O3 0.152317 0.293510 0.711501
O O4 0.343402 0.369484 0.541737
O O5 0.078302 0.392923 0.556343
O O6 0.139579 0.463448 0.715841
O O7 0.114599 0.836963 0.381123
O O8 0.277612 0.853897 0.159959
O O9 0.000808 0.731672 0.963873
O O10 0.983099 0.581693 0.865702
#
# Coordination Sequence:
#
# PCOD9265510 Si02
#       6
#     4   8   8   8   8   4
#     4   8  17  30  52  90 121 148 188 238 299 352
#     4  10  22  36  57  89 120 158 204 250 302 357
#     4  10  19  36  63  91 119 157 204 255 297 353
#     4  10  19  36  61  92 119 154 205 256 296 351
#     4  10  21  37  59  87 121 160 203 245 303 367
#     4  12  23  40  58  86 125 166 198 246 307 368
#
# _framework density 22.856904
#
# number of rings (size 3 to 8) (size 9 to 14) (size 15 to 20)
#    0.000    2.400    0.000    7.200    0.000    2.400 
#    0.000    3.000    0.000    4.800    0.000    0.000 
#    0.000    0.000    0.000    0.000    0.000    0.000 
#
# Total GULP energy -111396.576745 kJ/mol
# GULP energy per Si atom -5569.828837 kJ/mol
# Density = 2.280488 g / cm^3
# Si number density = 22.856904 Si / 1000 Ang^3
#
#
#
# Elastic Constant Matrix: (Units=GPa)
#
#
# Indices 1 2 3 4 5 6 
#
# 1 81.0456 6.0945 34.5366 0.0000 0.3960 0.0000
# 2 6.0945 55.8340 1.0008 0.0000 0.7684 0.0000
# 3 34.5366 1.0008 140.6954 0.0000 -5.3185 0.0000
# 4 0.0000 0.0000 0.0000 7.6248 0.0000 13.5519
# 5 0.3960 0.7684 -5.3185 0.0000 47.7477 0.0000
# 6 0.0000 0.0000 0.0000 13.5519 0.0000 -0.1342
#
#
#
# Elastic Compliance Matrix: (Units=1/GPa)
#
#
# Indices 1 2 3 4 5 6 
#
# 1 0.013908 -0.001450 -0.003422 0.000000 -0.000473 0.000000
# 2 -0.001450 0.018068 0.000218 0.000000 -0.000254 0.000000
# 3 -0.003422 0.000218 0.007980 0.000000 0.000914 0.000000
# 4 0.000000 0.000000 0.000000 0.000727 0.000000 0.073382
# 5 -0.000473 -0.000254 0.000914 0.000000 0.021053 0.000000
# 6 0.000000 0.000000 0.000000 0.073382 0.000000 -0.041287
#
#
# Mechanical properties :
#
#
# Convention : Reuss Voigt Hill
#
# Bulk Modulus (GPa) = 32.62785 40.09321 36.36053
# Shear Modulus (GPa) = 125.08207 26.77718 75.92963
#
# Velocity S-wave (km/s) = 7.40559 3.42645 5.76989
# Velocity P-wave (km/s) = 9.35038 5.76482 7.76732
#
# Compressibility (1/GPa) = 0.03064867
#
# Stress axis : x y z
#
# Youngs Moduli (GPa) = 71.90009 55.34604 125.30615
#
# Poissons Ratio (x) = 0.08027 0.42875
# Poissons Ratio (y) = 0.10428 -0.02730
# Poissons Ratio (z) = 0.24601 -0.01206
#
# Static dielectric constant tensor:
#      x y z
#    x 1.922350 0.000000 0.043010 
#    y 0.000000 1.881540 0.000000 
#    z 0.043010 0.000000 2.029250 
# 
# From -- ./inp_files/86023.got.cif
#   From: 2010.05.17/outbox.cif.g08.bks.cpg/sg15_44_cif.got.tgz:86023.got - 2010.06.03 18:47:42.
