data_PCOD9265561
_publ_section_title
;
Structure prediction by ZEFSAII (Michael W. Deem and Ramdas Pophale) SiO2 
 PCOD9265561
Probable space group: C 2/C
;
_chemical_formula_sum "Si O2"
_cell_formula_units_Z 60
_cell_length_a 6.672037
_cell_length_b 15.746785
_cell_length_c 27.656373
_cell_angle_alpha 90.000000
_cell_angle_beta 91.641119
_cell_angle_gamma 90.000000
_cell_volume 2904.473324
_symmetry_space_group_name_H-M "C 2/C"
_symmetry_group_IT_number 15
_symmetry_cell_setting 'monoclinic'
loop_
_space_group_symop_operation_xyz
x,y,z
-x,y,1/2-z
-x,-y,-z
x,-y,1/2+z
1/2+x,1/2+y,z
1/2-x,1/2+y,1/2-z
1/2-x,1/2-y,-z
1/2+x,1/2-y,1/2+z
loop_
_atom_site_type_symbol
_atom_site_label
_atom_site_fract_x
_atom_site_fract_y
_atom_site_fract_z
Si Si1 0.675960 0.246073 0.436732
Si Si2 0.159243 0.057754 0.942366
Si Si3 0.500000 0.043086 0.750000
Si Si4 0.915384 0.389296 0.631313
Si Si5 0.724743 0.020311 0.664280
Si Si6 0.617299 0.559138 0.207099
Si Si7 0.564066 0.799950 0.475568
Si Si8 0.787966 0.487754 0.043690
O O1 0.616287 0.342477 0.446838
O O2 0.573152 0.205151 0.389517
O O3 0.588883 0.191710 0.480460
O O4 0.919618 0.247433 0.437957
O O5 0.286648 0.019260 0.987723
O O6 0.946981 0.011405 0.943480
O O7 0.256952 0.050650 0.890434
O O8 0.593205 0.078681 0.700132
O O9 0.694113 0.990351 0.768660
O O10 0.720793 0.391291 0.664326
O O11 0.882714 0.451847 0.585072
O O12 0.105140 0.429999 0.660110
O O13 0.949418 0.004384 0.684732
O O14 0.500000 0.605699 0.250000
O O15 0.750000 0.750000 0.500000
O O16 0.634845 0.890177 0.455398
#
# Coordination Sequence:
#
# PCOD9265561 Si02
#       8
#     8   8   4   8   8   8   8   8
#     4  11  24  37  53  82 116 157 198 243 292 338
#     4  11  22  37  57  84 123 161 200 243 288 353
#     4   8  18  34  62  94 114 136 196 252 298 346
#     4  11  22  36  59  88 116 154 200 242 293 354
#     4  10  19  36  62  88 114 151 195 247 296 353
#     4   9  18  36  60  91 112 143 189 248 292 351
#     4  11  22  37  54  77 116 160 202 245 287 336
#     4  11  22  37  58  84 119 165 207 238 289 352
#
# _framework density 20.657791
#
# number of rings (size 3 to 8) (size 9 to 14) (size 15 to 20)
#    0.000    1.600    2.667    3.200    1.867    2.667 
#    0.000    0.000    1.467    0.000   27.733    0.000 
#    0.000    0.000    0.000    0.000    0.000    0.000 
#
# Total GULP energy -167057.340841 kJ/mol
# GULP energy per Si atom -5568.578028 kJ/mol
# Density = 2.061077 g / cm^3
# Si number density = 20.657791 Si / 1000 Ang^3
#
#
#
# Elastic Constant Matrix: (Units=GPa)
#
#
# Indices 1 2 3 4 5 6 
#
# 1 105.9677 12.8374 23.1977 0.0000 16.1683 0.0000
# 2 12.8374 45.7921 13.6189 0.0000 7.8428 0.0000
# 3 23.1977 13.6189 118.5381 0.0000 -22.2665 0.0000
# 4 0.0000 0.0000 0.0000 11.9966 0.0000 4.0124
# 5 16.1683 7.8428 -22.2665 0.0000 47.0186 0.0000
# 6 0.0000 0.0000 0.0000 4.0124 0.0000 22.9610
#
#
#
# Elastic Compliance Matrix: (Units=1/GPa)
#
#
# Indices 1 2 3 4 5 6 
#
# 1 0.010995 -0.001368 -0.002922 0.000000 -0.004937 0.000000
# 2 -0.001368 0.024150 -0.003485 0.000000 -0.005208 0.000000
# 3 -0.002922 -0.003485 0.010654 0.000000 0.006631 0.000000
# 4 0.000000 0.000000 0.000000 0.088531 0.000000 -0.015471
# 5 -0.004937 -0.005208 0.006631 0.000000 0.026975 0.000000
# 6 0.000000 0.000000 0.000000 -0.015471 0.000000 0.046256
#
#
# Mechanical properties :
#
#
# Convention : Reuss Voigt Hill
#
# Bulk Modulus (GPa) = 33.05888 41.06734 37.06311
# Shear Modulus (GPa) = 21.44133 31.10483 26.27308
#
# Velocity S-wave (km/s) = 3.22519 3.88457 3.57013
# Velocity P-wave (km/s) = 5.46872 6.32794 5.91396
#
# Compressibility (1/GPa) = 0.03024906
#
# Stress axis : x y z
#
# Youngs Moduli (GPa) = 90.94705 41.40806 93.86138
#
# Poissons Ratio (x) = 0.05665 0.27425
# Poissons Ratio (y) = 0.12442 0.32713
# Poissons Ratio (z) = 0.26574 0.14432
#
# Static dielectric constant tensor:
#      x y z
#    x 1.824760 0.000000 -0.001150 
#    y 0.000000 1.739220 0.000000 
#    z -0.001150 0.000000 1.840040 
# 
# From -- ./inp_files/305664.got.cif
#   From: 2010.05.17/outbox.cif.g08.bks.cpg/sg15_153_cif.got.tgz:305664.got - 2010.06.03 18:47:42.
