data_PCOD9265172
_publ_section_title
;
Structure prediction by ZEFSAII (Michael W. Deem and Ramdas Pophale) SiO2 
 PCOD9265172
Probable space group: C 2/C
;
_chemical_formula_sum "Si O2"
_cell_formula_units_Z 56
_cell_length_a 11.708650
_cell_length_b 17.294352
_cell_length_c 24.781386
_cell_angle_alpha 90.000000
_cell_angle_beta 36.010298
_cell_angle_gamma 90.000000
_cell_volume 2950.277129
_symmetry_space_group_name_H-M "C 2/C"
_symmetry_group_IT_number 15
_symmetry_cell_setting 'monoclinic'
loop_
_space_group_symop_operation_xyz
x,y,z
-x,y,1/2-z
-x,-y,-z
x,-y,1/2+z
1/2+x,1/2+y,z
1/2-x,1/2+y,1/2-z
1/2-x,1/2-y,-z
1/2+x,1/2-y,1/2+z
loop_
_atom_site_type_symbol
_atom_site_label
_atom_site_fract_x
_atom_site_fract_y
_atom_site_fract_z
Si Si1 0.324659 0.953978 0.148705
Si Si2 0.908893 0.144791 0.448107
Si Si3 0.420047 0.183591 0.992563
Si Si4 0.209527 0.379025 0.645425
Si Si5 0.080340 0.060985 0.638970
Si Si6 0.220164 0.496437 0.544293
Si Si7 0.735444 0.223652 0.944331
O O1 0.428973 0.870728 0.098159
O O2 0.228282 0.974101 0.127497
O O3 0.500421 0.005150 0.104867
O O4 0.140869 0.951947 0.258731
O O5 0.793190 0.147936 0.435692
O O6 0.908326 0.230593 0.472756
O O7 0.782746 0.084762 0.531766
O O8 0.129364 0.118135 0.369175
O O9 0.519051 0.192221 0.012783
O O10 0.247115 0.442953 0.585441
O O11 0.222391 0.296072 0.610560
O O12 0.000000 0.390478 0.750000
O O13 0.121137 0.152944 0.622726
O O14 0.140201 0.030022 0.557802
O O15 0.750000 0.250000 0.000000
#
# Coordination Sequence:
#
# PCOD9265172 Si02
#       7
#     8   8   8   8   8   8   8
#     4   9  20  35  58  85 112 152 195 240 297 352
#     4   9  19  36  57  80 110 155 192 229 293 352
#     4   8  17  35  60  82 107 148 197 236 284 353
#     4  11  24  36  57  85 118 154 195 241 294 359
#     4  10  20  35  58  84 116 150 195 245 295 354
#     4  11  21  37  55  84 120 154 188 243 297 359
#     4  10  19  36  58  88 110 148 197 251 293 344
#
# _framework density 18.981268
#
# number of rings (size 3 to 8) (size 9 to 14) (size 15 to 20)
#    0.000    2.286    1.429    0.857    8.000    0.000 
#    0.000    0.000    0.000    0.857    0.000    0.000 
#    0.000    0.000    0.000    0.000    0.000    0.000 
#
# Total GULP energy -156001.989769 kJ/mol
# GULP energy per Si atom -5571.499635 kJ/mol
# Density = 1.893807 g / cm^3
# Si number density = 18.981268 Si / 1000 Ang^3
#
#
#
# Elastic Constant Matrix: (Units=GPa)
#
#
# Indices 1 2 3 4 5 6 
#
# 1 126.4816 20.3598 67.8387 -0.0002 -22.3683 0.0004
# 2 20.3598 55.7041 1.2808 0.0009 -0.7880 -0.0002
# 3 67.8387 1.2808 83.3513 0.0008 -10.5069 -0.0002
# 4 -0.0002 0.0009 0.0008 11.7697 0.0002 -5.0784
# 5 -22.3683 -0.7880 -10.5069 0.0002 27.6049 0.0002
# 6 0.0004 -0.0002 -0.0002 -5.0784 0.0002 26.9847
#
#
#
# Elastic Compliance Matrix: (Units=1/GPa)
#
#
# Indices 1 2 3 4 5 6 
#
# 1 0.017383 -0.005929 -0.012922 0.000001 0.008998 0.000000
# 2 -0.005929 0.019985 0.004186 -0.000002 -0.002641 0.000000
# 3 -0.012922 0.004186 0.022211 -0.000002 -0.001898 0.000000
# 4 0.000001 -0.000002 -0.000002 0.092473 -0.000001 0.017403
# 5 0.008998 -0.002641 -0.001898 -0.000001 0.042719 -0.000001
# 6 0.000000 0.000000 0.000000 0.017403 -0.000001 0.040333
#
#
# Mechanical properties :
#
#
# Convention : Reuss Voigt Hill
#
# Bulk Modulus (GPa) = 33.06010 49.38839 41.22425
# Shear Modulus (GPa) = 18.21370 25.00905 21.61137
#
# Velocity S-wave (km/s) = 3.10104 3.63377 3.37792
# Velocity P-wave (km/s) = 5.50245 6.60921 6.08106
#
# Compressibility (1/GPa) = 0.03024794
#
# Stress axis : x y z
#
# Youngs Moduli (GPa) = 57.52770 50.03640 45.02201
#
# Poissons Ratio (x) = 0.29667 0.58180
# Poissons Ratio (y) = 0.34108 -0.18844
# Poissons Ratio (z) = 0.74340 -0.20943
#
# Static dielectric constant tensor:
#      x y z
#    x 1.710050 -0.000010 -0.023620 
#    y -0.000010 1.911750 -0.000010 
#    z -0.023620 -0.000010 1.613760 
# 
# From -- ./inp_files/270351.got.cif
#   From: 2010.05.17/outbox.cif.g08.bks.cpg/sg15_136_cif.got.tgz:270351.got - 2010.06.03 18:47:42.
