data_PCOD9265431
_publ_section_title
;
Structure prediction by ZEFSAII (Michael W. Deem and Ramdas Pophale) SiO2 
 PCOD9265431
Probable space group: C 2/C
;
_chemical_formula_sum "Si O2"
_cell_formula_units_Z 40
_cell_length_a 24.335862
_cell_length_b 8.203469
_cell_length_c 14.407959
_cell_angle_alpha 90.000000
_cell_angle_beta 33.768465
_cell_angle_gamma 90.000000
_cell_volume 1598.803547
_symmetry_space_group_name_H-M "C 2/C"
_symmetry_group_IT_number 15
_symmetry_cell_setting 'monoclinic'
loop_
_space_group_symop_operation_xyz
x,y,z
-x,y,1/2-z
-x,-y,-z
x,-y,1/2+z
1/2+x,1/2+y,z
1/2-x,1/2+y,1/2-z
1/2-x,1/2-y,-z
1/2+x,1/2-y,1/2+z
loop_
_atom_site_type_symbol
_atom_site_label
_atom_site_fract_x
_atom_site_fract_y
_atom_site_fract_z
Si Si1 0.618948 0.810558 0.739267
Si Si2 0.410537 0.913024 0.436393
Si Si3 0.926664 0.865920 0.560757
Si Si4 0.395216 0.815839 0.270059
Si Si5 0.308887 0.760102 0.068047
O O1 0.505302 0.771617 0.916931
O O2 0.648290 0.740125 0.596738
O O3 0.691938 0.744202 0.715928
O O4 0.638235 0.003595 0.709166
O O5 0.500000 0.999615 0.250000
O O6 0.369139 0.792596 0.414807
O O7 0.483151 0.819577 0.403442
O O8 0.338930 0.058720 0.561983
O O9 0.863130 0.810199 0.738662
O O10 0.854387 0.873043 0.573866
O O11 0.000000 0.000000 0.500000
#
# Coordination Sequence:
#
# PCOD9265431 Si02
#       5
#     8   8   8   8   8
#     4  10  20  37  62  80 106 158 195 231 286 347
#     4   7  14  33  59  82  98 143 192 227 277 344
#     4  12  23  36  52  91 122 145 187 244 295 338
#     4   8  17  35  59  78 105 146 194 225 279 340
#     4  10  19  36  61  82 111 146 197 239 282 345
#
# _framework density 25.018706999999999
#
# number of rings (size 3 to 8) (size 9 to 14) (size 15 to 20)
#    1.200    1.200    2.000    1.200    0.000    1.600 
#    7.200    0.000    0.000    3.600    0.000    0.000 
#    0.000    0.000    0.000    0.000    0.000    0.000 
#
# Total GULP energy -111419.904690 kJ/mol
# GULP energy per Si atom -5570.995235 kJ/mol
# Density = 2.496176 g / cm^3
# Si number density = 25.018707 Si / 1000 Ang^3
#
#
#
# Elastic Constant Matrix: (Units=GPa)
#
#
# Indices 1 2 3 4 5 6 
#
# 1 177.5917 35.5753 37.3010 0.0001 0.5589 0.0000
# 2 35.5753 38.2985 -0.2550 0.0010 14.5361 -0.0013
# 3 37.3010 -0.2550 61.1845 0.0004 -15.7395 -0.0005
# 4 0.0001 0.0010 0.0004 17.7988 -0.0002 11.6246
# 5 0.5589 14.5361 -15.7395 -0.0002 28.2086 0.0000
# 6 0.0000 -0.0013 -0.0005 11.6246 0.0000 -5.3290
#
#
#
# Elastic Compliance Matrix: (Units=1/GPa)
#
#
# Indices 1 2 3 4 5 6 
#
# 1 0.008270 -0.008275 -0.004696 0.000000 0.001481 0.000001
# 2 -0.008275 0.042030 -0.000361 0.000002 -0.021696 -0.000006
# 3 -0.004696 -0.000361 0.022508 0.000000 0.012837 -0.000001
# 4 0.000000 0.000002 0.000000 0.023172 0.000000 0.050546
# 5 0.001481 -0.021696 0.012837 0.000000 0.053764 0.000003
# 6 0.000001 -0.000006 -0.000001 0.050546 0.000003 -0.077392
#
#
# Mechanical properties :
#
#
# Convention : Reuss Voigt Hill
#
# Bulk Modulus (GPa) = 21.67134 46.92416 34.29775
# Shear Modulus (GPa) = 43.70792 21.76589 32.73690
#
# Velocity S-wave (km/s) = 4.18426 2.95275 3.62124
# Velocity P-wave (km/s) = 5.65905 5.51555 5.58776
#
# Compressibility (1/GPa) = 0.04614390
#
# Stress axis : x y z
#
# Youngs Moduli (GPa) = 120.91593 23.79263 44.42957
#
# Poissons Ratio (x) = 0.19689 0.20862
# Poissons Ratio (y) = 1.00062 0.01604
# Poissons Ratio (z) = 0.56777 0.00859
#
# Static dielectric constant tensor:
#      x y z
#    x 2.175100 0.000000 0.019740 
#    y 0.000000 2.014320 0.000000 
#    z 0.019740 0.000000 2.015590 
# 
# From -- ./inp_files/171639.got.cif
#   From: 2010.05.17/outbox.cif.g08.bks.cpg/sg15_86_cif.got.tgz:171639.got - 2010.06.03 18:47:42.
