data_PCOD9265447
_publ_section_title
;
Structure prediction by ZEFSAII (Michael W. Deem and Ramdas Pophale) SiO2 
 PCOD9265447
Probable space group: C 2/C
;
_chemical_formula_sum "Si O2"
_cell_formula_units_Z 44
_cell_length_a 17.766747
_cell_length_b 15.873221
_cell_length_c 7.727610
_cell_angle_alpha 90.000000
_cell_angle_beta 90.930765
_cell_angle_gamma 90.000000
_cell_volume 2179.018260
_symmetry_space_group_name_H-M "C 2/C"
_symmetry_group_IT_number 15
_symmetry_cell_setting 'monoclinic'
loop_
_space_group_symop_operation_xyz
x,y,z
-x,y,1/2-z
-x,-y,-z
x,-y,1/2+z
1/2+x,1/2+y,z
1/2-x,1/2+y,1/2-z
1/2-x,1/2-y,-z
1/2+x,1/2-y,1/2+z
loop_
_atom_site_type_symbol
_atom_site_label
_atom_site_fract_x
_atom_site_fract_y
_atom_site_fract_z
Si Si1 0.500000 0.087602 0.750000
Si Si2 0.353006 0.722687 0.974289
Si Si3 0.672620 0.786140 0.917319
Si Si4 0.491773 0.777267 0.546924
Si Si5 0.343125 0.959519 0.396424
Si Si6 0.220083 0.616008 0.921676
O O1 0.489443 0.146385 0.581405
O O2 0.576744 0.039957 0.701693
O O3 0.331220 0.761707 0.784828
O O4 0.441836 0.710760 0.983705
O O5 0.301209 0.641882 0.995083
O O6 0.325847 0.796781 0.100486
O O7 0.593782 0.748899 0.989328
O O8 0.750000 0.750000 0.000000
O O9 0.660429 0.885873 0.957756
O O10 0.500000 0.802135 0.750000
O O11 0.279032 0.928805 0.262106
O O12 0.323880 0.051138 0.461231
#
# Coordination Sequence:
#
# PCOD9265447 Si02
#       6
#     4   8   8   8   8   8
#     4  10  20  38  56  84 130 154 192 244 304 370
#     4  10  20  39  57  82 116 157 200 238 292 350
#     4  10  19  36  61  86 115 147 195 247 295 360
#     4   9  19  34  60  89 113 157 197 240 298 354
#     4  11  22  37  54  88 118 158 193 240 307 356
#     4  11  22  35  57  81 118 156 195 239 287 362
#
# _framework density 20.19258
#
# number of rings (size 3 to 8) (size 9 to 14) (size 15 to 20)
#    0.000    1.818    3.636    1.091    0.000    0.727 
#    4.909    0.000    0.000    1.091    0.000    0.000 
#    0.000    0.000    0.000    0.000    0.000    0.000 
#
# Total GULP energy -122715.933232 kJ/mol
# GULP energy per Si atom -5577.996965 kJ/mol
# Density = 2.014662 g / cm^3
# Si number density = 20.192580 Si / 1000 Ang^3
#
#
#
# Elastic Constant Matrix: (Units=GPa)
#
#
# Indices 1 2 3 4 5 6 
#
# 1 184.7723 51.3311 16.7014 0.0000 -5.1794 0.0000
# 2 51.3311 61.9832 12.5759 0.0000 -9.1010 0.0000
# 3 16.7014 12.5759 44.9197 0.0000 -9.3115 0.0000
# 4 0.0000 0.0000 0.0000 21.0817 0.0000 -8.0401
# 5 -5.1794 -9.1010 -9.3115 0.0000 30.6958 0.0000
# 6 0.0000 0.0000 0.0000 -8.0401 0.0000 34.9345
#
#
#
# Elastic Compliance Matrix: (Units=1/GPa)
#
#
# Indices 1 2 3 4 5 6 
#
# 1 0.007097 -0.005761 -0.001208 0.000000 -0.000877 0.000000
# 2 -0.005761 0.022222 -0.003111 0.000000 0.004673 0.000000
# 3 -0.001208 -0.003111 0.024915 0.000000 0.006432 0.000000
# 4 0.000000 0.000000 0.000000 0.051999 0.000000 0.011967
# 5 -0.000877 0.004673 0.006432 0.000000 0.035766 0.000000
# 6 0.000000 0.000000 0.000000 0.011967 0.000000 0.031379
#
#
# Mechanical properties :
#
#
# Convention : Reuss Voigt Hill
#
# Bulk Modulus (GPa) = 29.34688 50.32133 39.83411
# Shear Modulus (GPa) = 24.40270 31.41354 27.90812
#
# Velocity S-wave (km/s) = 3.48012 3.94851 3.72169
# Velocity P-wave (km/s) = 5.54196 6.76480 6.18368
#
# Compressibility (1/GPa) = 0.03407517
#
# Stress axis : x y z
#
# Youngs Moduli (GPa) = 140.90165 45.00091 40.13631
#
# Poissons Ratio (x) = 0.25926 0.04847
# Poissons Ratio (y) = 0.81177 0.12485
# Poissons Ratio (z) = 0.17015 0.13998
#
# Static dielectric constant tensor:
#      x y z
#    x 1.777890 0.000000 0.008580 
#    y 0.000000 1.694920 0.000000 
#    z 0.008580 0.000000 1.814010 
# 
# From -- ./inp_files/47136.got.cif
#   From: 2010.05.17/outbox.cif.g08.bks.cpg/sg15_24_cif.got.tgz:47136.got - 2010.06.03 18:47:42.
