data_PCOD9265261
_publ_section_title
;
Structure prediction by ZEFSAII (Michael W. Deem and Ramdas Pophale) SiO2 
 PCOD9265261
Probable space group: C 2/C
;
_chemical_formula_sum "Si O2"
_cell_formula_units_Z 48
_cell_length_a 6.515111
_cell_length_b 27.703443
_cell_length_c 15.465388
_cell_angle_alpha 90.000000
_cell_angle_beta 126.688651
_cell_angle_gamma 90.000000
_cell_volume 2238.377609
_symmetry_space_group_name_H-M "C 2/C"
_symmetry_group_IT_number 15
_symmetry_cell_setting 'monoclinic'
loop_
_space_group_symop_operation_xyz
x,y,z
-x,y,1/2-z
-x,-y,-z
x,-y,1/2+z
1/2+x,1/2+y,z
1/2-x,1/2+y,1/2-z
1/2-x,1/2-y,-z
1/2+x,1/2-y,1/2+z
loop_
_atom_site_type_symbol
_atom_site_label
_atom_site_fract_x
_atom_site_fract_y
_atom_site_fract_z
Si Si1 0.197876 0.406283 0.959329
Si Si2 0.058600 0.689835 0.044315
Si Si3 0.500000 0.114507 0.750000
Si Si4 0.567256 0.463881 0.167933
Si Si5 0.155459 0.163135 0.539973
Si Si6 0.956026 0.766874 0.140048
Si Si7 0.500000 0.959118 0.750000
O O1 0.049984 0.364286 0.973830
O O2 0.014323 0.427548 0.839967
O O3 0.319800 0.448407 0.049782
O O4 0.441285 0.378324 0.978429
O O5 0.070825 0.714760 0.141752
O O6 0.846222 0.725027 0.948677
O O7 0.296934 0.687926 0.039973
O O8 0.744833 0.082100 0.790131
O O9 0.423702 0.142914 0.644357
O O10 0.500000 0.473139 0.250000
O O11 0.745035 0.507780 0.180881
O O12 0.075116 0.196460 0.600393
O O13 0.000000 0.778461 0.250000
#
# Coordination Sequence:
#
# PCOD9265261 Si02
#       7
#     8   8   4   8   8   8   4
#     4  10  23  39  60  86 121 157 200 249 305 361
#     4  10  21  37  58  84 120 161 199 246 294 353
#     4   9  18  32  58  88 116 148 194 256 292 343
#     4  10  21  38  61  89 115 152 200 248 307 363
#     4  10  19  36  59  86 119 158 206 242 296 359
#     4  10  21  35  57  87 121 158 200 249 295 343
#     4  11  24  40  60  86 122 156 196 256 304 365
#
# _framework density 21.444103999999999
#
# number of rings (size 3 to 8) (size 9 to 14) (size 15 to 20)
#    0.000    2.000    0.000    3.000    1.167    6.667 
#    0.000    0.000    0.000    0.000    0.000    0.000 
#    0.000    0.000    0.000    0.000    0.000    0.000 
#
# Total GULP energy -133888.687183 kJ/mol
# GULP energy per Si atom -5578.695299 kJ/mol
# Density = 2.139530 g / cm^3
# Si number density = 21.444104 Si / 1000 Ang^3
#
#
#
# Elastic Constant Matrix: (Units=GPa)
#
#
# Indices 1 2 3 4 5 6 
#
# 1 69.5223 22.8452 5.1258 0.0000 -26.5665 0.0000
# 2 22.8452 75.6206 34.7393 0.0000 -9.9631 0.0000
# 3 5.1258 34.7393 75.3151 0.0000 -9.0581 0.0000
# 4 0.0000 0.0000 0.0000 19.0953 0.0000 -3.2300
# 5 -26.5665 -9.9631 -9.0581 0.0000 25.2445 0.0000
# 6 0.0000 0.0000 0.0000 -3.2300 0.0000 -1.9893
#
#
#
# Elastic Compliance Matrix: (Units=1/GPa)
#
#
# Indices 1 2 3 4 5 6 
#
# 1 0.026456 -0.006484 0.004422 0.000000 0.026869 0.000000
# 2 -0.006484 0.018768 -0.008513 0.000000 -0.002471 0.000000
# 3 0.004422 -0.008513 0.017828 0.000000 0.007691 0.000000
# 4 0.000000 0.000000 0.000000 0.041085 0.000000 -0.066709
# 5 0.026869 -0.002471 0.007691 0.000000 0.069673 0.000000
# 6 0.000000 0.000000 0.000000 -0.066709 0.000000 -0.394370
#
#
# Mechanical properties :
#
#
# Convention : Reuss Voigt Hill
#
# Bulk Modulus (GPa) = 23.86499 38.43093 31.14796
# Shear Modulus (GPa) = -26.96229 18.98663 -3.98783
#
# Velocity S-wave (km/s) = -3.54973 2.97880 -1.36517
# Velocity P-wave (km/s) = 2.37649 5.45814 3.47445
#
# Compressibility (1/GPa) = 0.04190239
#
# Stress axis : x y z
#
# Youngs Moduli (GPa) = 37.79889 53.28312 56.09156
#
# Poissons Ratio (x) = 0.34547 -0.24801
# Poissons Ratio (y) = 0.24507 0.47748
# Poissons Ratio (z) = -0.16713 0.45357
#
# Static dielectric constant tensor:
#      x y z
#    x 1.805680 0.000000 -0.015850 
#    y 0.000000 1.827540 0.000000 
#    z -0.015850 0.000000 1.814580 
# 
# From -- ./inp_files/130972.got.cif
#   From: 2010.05.17/outbox.cif.g08.bks.cpg/sg15_66_cif.got.tgz:130972.got - 2010.06.03 18:47:42.
