data_PCOD9265410
_publ_section_title
;
Structure prediction by ZEFSAII (Michael W. Deem and Ramdas Pophale) SiO2 
 PCOD9265410
Probable space group: C 2/C
;
_chemical_formula_sum "Si O2"
_cell_formula_units_Z 48
_cell_length_a 17.100945
_cell_length_b 8.077873
_cell_length_c 17.946488
_cell_angle_alpha 90.000000
_cell_angle_beta 67.127797
_cell_angle_gamma 90.000000
_cell_volume 2284.191940
_symmetry_space_group_name_H-M "C 2/C"
_symmetry_group_IT_number 15
_symmetry_cell_setting 'monoclinic'
loop_
_space_group_symop_operation_xyz
x,y,z
-x,y,1/2-z
-x,-y,-z
x,-y,1/2+z
1/2+x,1/2+y,z
1/2-x,1/2+y,1/2-z
1/2-x,1/2-y,-z
1/2+x,1/2-y,1/2+z
loop_
_atom_site_type_symbol
_atom_site_label
_atom_site_fract_x
_atom_site_fract_y
_atom_site_fract_z
Si Si1 0.725276 0.563574 0.710584
Si Si2 0.070631 0.026676 0.667346
Si Si3 0.796971 0.219199 0.630107
Si Si4 0.841226 0.311023 0.053581
Si Si5 0.783049 0.972419 0.992632
Si Si6 0.507425 0.673004 0.950390
O O1 0.640132 0.612840 0.696123
O O2 0.749984 0.377701 0.679965
O O3 0.713290 0.582443 0.802072
O O4 0.802101 0.673195 0.649785
O O5 0.135413 0.926872 0.589039
O O6 0.000000 0.951933 0.750000
O O7 0.020937 0.137440 0.624820
O O8 0.763047 0.158648 0.563508
O O9 0.897590 0.239343 0.583123
O O10 0.796567 0.461581 0.025423
O O11 0.941554 0.301228 0.010644
O O12 0.812243 0.139292 0.025968
O O13 0.500000 0.500000 0.000000
#
# Coordination Sequence:
#
# PCOD9265410 Si02
#       6
#     8   8   8   8   8   8
#     4  11  25  37  63  93 128 159 204 262 312 368
#     4  10  19  36  60  91 115 158 205 247 294 364
#     4  12  23  40  63  94 122 164 209 255 311 365
#     4   9  19  38  61  90 121 161 199 256 303 367
#     4   9  19  37  62  88 121 163 204 247 303 374
#     4  11  21  39  67  91 118 164 214 251 299 378
#
# _framework density 21.013995999999999
#
# number of rings (size 3 to 8) (size 9 to 14) (size 15 to 20)
#    0.000    1.667    5.000    2.000    0.000    3.333 
#    0.000    0.000    3.667    0.000    0.000    0.000 
#    0.000    0.000    0.000    0.000    0.000    0.000 
#
# Total GULP energy -133851.208329 kJ/mol
# GULP energy per Si atom -5577.133680 kJ/mol
# Density = 2.096617 g / cm^3
# Si number density = 21.013996 Si / 1000 Ang^3
#
#
#
# Elastic Constant Matrix: (Units=GPa)
#
#
# Indices 1 2 3 4 5 6 
#
# 1 97.5372 26.2501 50.7423 0.0000 -8.5195 0.0000
# 2 26.2501 55.5369 34.7842 -0.0001 -9.5886 -0.0001
# 3 50.7423 34.7842 164.5992 0.0000 -6.5163 0.0000
# 4 0.0000 -0.0001 0.0000 40.9431 0.0000 2.7785
# 5 -8.5195 -9.5886 -6.5163 0.0000 38.2796 0.0000
# 6 0.0000 -0.0001 0.0000 2.7785 0.0000 19.8564
#
#
#
# Elastic Compliance Matrix: (Units=1/GPa)
#
#
# Indices 1 2 3 4 5 6 
#
# 1 0.013075 -0.003978 -0.003135 0.000000 0.001380 0.000000
# 2 -0.003978 0.022756 -0.003415 0.000000 0.004234 0.000000
# 3 -0.003135 -0.003415 0.007754 0.000000 -0.000233 0.000000
# 4 0.000000 0.000000 0.000000 0.024658 0.000000 -0.003450
# 5 0.001380 0.004234 -0.000233 0.000000 0.027451 0.000000
# 6 0.000000 0.000000 0.000000 -0.003450 0.000000 0.050844
#
#
# Mechanical properties :
#
#
# Convention : Reuss Voigt Hill
#
# Bulk Modulus (GPa) = 44.38821 60.13627 52.26224
# Shear Modulus (GPa) = 28.55421 33.54229 31.04825
#
# Velocity S-wave (km/s) = 3.69021 3.99957 3.84800
# Velocity P-wave (km/s) = 6.27104 7.07164 6.68334
#
# Compressibility (1/GPa) = 0.02252851
#
# Stress axis : x y z
#
# Youngs Moduli (GPa) = 76.48342 43.94421 128.95916
#
# Poissons Ratio (x) = 0.17481 0.40434
# Poissons Ratio (y) = 0.30424 0.44040
# Poissons Ratio (z) = 0.23981 0.15007
#
# Static dielectric constant tensor:
#      x y z
#    x 1.790060 0.000000 0.015520 
#    y 0.000000 1.812660 0.000000 
#    z 0.015520 0.000000 1.775620 
# 
# From -- ./inp_files/208965.got.cif
#   From: 2010.05.17/outbox.cif.g08.bks.cpg/sg15_105_cif.got.tgz:208965.got - 2010.06.03 18:47:42.
