data_PCOD9265411
_publ_section_title
;
Structure prediction by ZEFSAII (Michael W. Deem and Ramdas Pophale) SiO2 
 PCOD9265411
Probable space group: C 2/C
;
_chemical_formula_sum "Si O2"
_cell_formula_units_Z 44
_cell_length_a 9.237168
_cell_length_b 22.466618
_cell_length_c 12.912060
_cell_angle_alpha 90.000000
_cell_angle_beta 134.361983
_cell_angle_gamma 90.000000
_cell_volume 1915.753860
_symmetry_space_group_name_H-M "C 2/C"
_symmetry_group_IT_number 15
_symmetry_cell_setting 'monoclinic'
loop_
_space_group_symop_operation_xyz
x,y,z
-x,y,1/2-z
-x,-y,-z
x,-y,1/2+z
1/2+x,1/2+y,z
1/2-x,1/2+y,1/2-z
1/2-x,1/2-y,-z
1/2+x,1/2-y,1/2+z
loop_
_atom_site_type_symbol
_atom_site_label
_atom_site_fract_x
_atom_site_fract_y
_atom_site_fract_z
Si Si1 0.262016 0.231286 0.125170
Si Si2 0.329603 0.846486 0.305248
Si Si3 0.500000 0.070194 0.750000
Si Si4 0.230284 0.474827 0.737166
Si Si5 0.034042 0.890865 0.514820
Si Si6 0.785996 0.437114 0.458635
O O1 0.500000 0.230390 0.250000
O O2 0.163392 0.278190 0.157265
O O3 0.174498 0.166464 0.100488
O O4 0.250000 0.250000 0.000000
O O5 0.521121 0.884950 0.358818
O O6 0.263155 0.879014 0.376532
O O7 0.168839 0.860797 0.133546
O O8 0.676002 0.025326 0.797660
O O9 0.417385 0.433312 0.862993
O O10 0.249975 0.508434 0.637625
O O11 0.014007 0.440549 0.617847
O O12 0.123768 0.930869 0.466851
#
# Coordination Sequence:
#
# PCOD9265411 Si02
#       6
#     8   8   4   8   8   8
#     4  12  22  39  65  97 123 159 213 274 321 363
#     4  11  24  40  61  93 125 170 211 268 318 376
#     4  10  22  42  60  84 130 170 208 244 328 386
#     4  10  21  37  62  92 128 173 202 253 323 385
#     4  12  22  39  65  96 126 165 218 266 319 374
#     4  10  19  36  60  91 127 157 209 258 314 375
#
# _framework density 22.967459999999999
#
# number of rings (size 3 to 8) (size 9 to 14) (size 15 to 20)
#    0.000    1.091    5.455    1.636    0.000    2.909 
#    3.273    0.909    0.000    0.000    0.000    0.000 
#    0.000    0.000    0.000    0.000    0.000    0.000 
#
# Total GULP energy -122722.335947 kJ/mol
# GULP energy per Si atom -5578.287998 kJ/mol
# Density = 2.291518 g / cm^3
# Si number density = 22.967460 Si / 1000 Ang^3
#
#
#
# Elastic Constant Matrix: (Units=GPa)
#
#
# Indices 1 2 3 4 5 6 
#
# 1 57.1807 27.9856 13.1664 0.0000 -6.8474 0.0000
# 2 27.9856 133.4903 41.0569 0.0000 -15.3973 0.0000
# 3 13.1664 41.0569 118.0768 0.0000 -0.4182 0.0000
# 4 0.0000 0.0000 0.0000 31.8374 0.0000 -4.7513
# 5 -6.8474 -15.3973 -0.4182 0.0000 17.1141 0.0000
# 6 0.0000 0.0000 0.0000 -4.7513 0.0000 24.1361
#
#
#
# Elastic Compliance Matrix: (Units=1/GPa)
#
#
# Indices 1 2 3 4 5 6 
#
# 1 0.019936 -0.003274 -0.001067 0.000000 0.005005 0.000000
# 2 -0.003274 0.010006 -0.003087 0.000000 0.007616 0.000000
# 3 -0.001067 -0.003087 0.009651 0.000000 -0.002968 0.000000
# 4 0.000000 0.000000 0.000000 0.032360 0.000000 0.006370
# 5 0.005005 0.007616 -0.002968 0.000000 0.067213 0.000000
# 6 0.000000 0.000000 0.000000 0.006370 0.000000 0.042686
#
#
# Mechanical properties :
#
#
# Convention : Reuss Voigt Hill
#
# Bulk Modulus (GPa) = 40.42622 52.57395 46.50008
# Shear Modulus (GPa) = 24.39587 29.72013 27.05800
#
# Velocity S-wave (km/s) = 3.26267 3.60114 3.43607
# Velocity P-wave (km/s) = 5.64208 6.34281 6.00268
#
# Compressibility (1/GPa) = 0.02473642
#
# Stress axis : x y z
#
# Youngs Moduli (GPa) = 50.16112 99.94463 103.61729
#
# Poissons Ratio (x) = 0.32723 0.11054
# Poissons Ratio (y) = 0.16423 0.31987
# Poissons Ratio (z) = 0.05351 0.30853
#
# Static dielectric constant tensor:
#      x y z
#    x 1.990960 0.000000 0.107710 
#    y 0.000000 1.867330 0.000000 
#    z 0.107710 0.000000 1.933550 
# 
# From -- ./inp_files/30944.got.cif
#   From: 2010.05.17/outbox.cif.g08.bks.cpg/sg15_16_cif.got.tgz:30944.got - 2010.06.03 18:47:42.
