data_PCOD9265920
_publ_section_title
;
Structure prediction by ZEFSAII (Michael W. Deem and Ramdas Pophale) SiO2 
 PCOD9265920
Probable space group: C 2/C
;
_chemical_formula_sum "Si O2"
_cell_formula_units_Z 60
_cell_length_a 5.209347
_cell_length_b 24.249440
_cell_length_c 24.472871
_cell_angle_alpha 90.000000
_cell_angle_beta 73.504046
_cell_angle_gamma 90.000000
_cell_volume 2964.257787
_symmetry_space_group_name_H-M "C 2/C"
_symmetry_group_IT_number 15
_symmetry_cell_setting 'monoclinic'
loop_
_space_group_symop_operation_xyz
x,y,z
-x,y,1/2-z
-x,-y,-z
x,-y,1/2+z
1/2+x,1/2+y,z
1/2-x,1/2+y,1/2-z
1/2-x,1/2-y,-z
1/2+x,1/2-y,1/2+z
loop_
_atom_site_type_symbol
_atom_site_label
_atom_site_fract_x
_atom_site_fract_y
_atom_site_fract_z
Si Si1 0.937717 0.584243 0.689151
Si Si2 0.528386 0.689051 0.528606
Si Si3 0.807005 0.534359 0.209252
Si Si4 0.984700 0.205915 0.358088
Si Si5 0.409432 0.185476 0.018227
Si Si6 0.446153 0.845640 0.688309
Si Si7 0.500000 0.334636 0.250000
Si Si8 0.269582 0.685329 0.652556
O O1 0.864047 0.523018 0.674411
O O2 0.685539 0.624735 0.703563
O O3 0.000000 0.579065 0.750000
O O4 0.175328 0.622098 0.652421
O O5 0.496824 0.750283 0.504146
O O6 0.257858 0.661998 0.522047
O O7 0.506988 0.695164 0.595007
O O8 0.797967 0.659710 0.493466
O O9 0.500000 0.536427 0.250000
O O10 0.000000 0.533587 0.250000
O O11 0.893826 0.590728 0.174550
O O12 0.787629 0.186312 0.418570
O O13 0.825351 0.183540 0.314785
O O14 0.960123 0.271820 0.352779
O O15 0.282288 0.183258 0.349930
O O16 0.500000 0.844119 0.750000
O O17 0.660023 0.303336 0.287991
#
# Coordination Sequence:
#
# PCOD9265920 Si02
#       8
#     8   8   8   8   8   8   4   8
#     4   9  19  34  52  79 109 149 186 231 275 331
#     4   9  18  33  54  77 103 140 191 235 273 313
#     4  10  19  37  58  76 105 145 198 241 265 308
#     4  11  23  37  54  82 117 151 185 223 283 343
#     4   9  18  34  54  74 103 142 188 239 272 310
#     4  11  23  36  55  80 112 151 188 225 270 336
#     4  10  20  34  50  82 120 154 182 210 292 348
#     4  10  23  33  54  83 119 153 183 223 283 353
#
# _framework density 20.241154999999999
#
# number of rings (size 3 to 8) (size 9 to 14) (size 15 to 20)
#    0.000    2.133    0.667    2.800    4.667    4.267 
#    0.000    0.000    0.000    0.000    0.000    5.600 
#    0.000    0.000    0.000    0.000    0.000    0.000 
#
# Total GULP energy -167079.904492 kJ/mol
# GULP energy per Si atom -5569.330150 kJ/mol
# Density = 2.019509 g / cm^3
# Si number density = 20.241155 Si / 1000 Ang^3
#
#
#
# Elastic Constant Matrix: (Units=GPa)
#
#
# Indices 1 2 3 4 5 6 
#
# 1 115.6119 15.9439 27.5566 0.0000 -16.0373 0.0000
# 2 15.9439 97.5597 14.4774 0.0000 -8.8382 0.0000
# 3 27.5566 14.4774 68.3513 0.0000 -3.8097 0.0000
# 4 0.0000 0.0000 0.0000 1.9281 0.0000 -8.6196
# 5 -16.0373 -8.8382 -3.8097 0.0000 30.5236 0.0000
# 6 0.0000 0.0000 0.0000 -8.6196 0.0000 16.4226
#
#
#
# Elastic Compliance Matrix: (Units=1/GPa)
#
#
# Indices 1 2 3 4 5 6 
#
# 1 0.010294 -0.000698 -0.003738 0.000000 0.004740 0.000000
# 2 -0.000698 0.010874 -0.001880 0.000000 0.002547 0.000000
# 3 -0.003738 -0.001880 0.016511 0.000000 -0.000448 0.000000
# 4 0.000000 0.000000 0.000000 -0.385208 0.000000 -0.202181
# 5 0.004740 0.002547 -0.000448 0.000000 0.035934 0.000000
# 6 0.000000 0.000000 0.000000 -0.202181 0.000000 -0.045226
#
#
# Mechanical properties :
#
#
# Convention : Reuss Voigt Hill
#
# Bulk Modulus (GPa) = 39.92561 44.16430 42.04495
# Shear Modulus (GPa) = -14.88805 24.67785 4.89490
#
# Velocity S-wave (km/s) = -2.71501 3.49548 1.55677
# Velocity P-wave (km/s) = 3.15268 6.17718 4.90393
#
# Compressibility (1/GPa) = 0.02504658
#
# Stress axis : x y z
#
# Youngs Moduli (GPa) = 97.13948 91.96303 60.56711
#
# Poissons Ratio (x) = 0.06421 0.22641
# Poissons Ratio (y) = 0.06783 0.11385
# Poissons Ratio (z) = 0.36313 0.17287
#
# Static dielectric constant tensor:
#      x y z
#    x 1.856400 0.000000 -0.018760 
#    y 0.000000 1.775240 0.000000 
#    z -0.018760 0.000000 1.749200 
# 
# From -- ./inp_files/306050.got.cif
#   From: 2010.05.17/outbox.cif.g08.bks.cpg/sg15_154_cif.got.tgz:306050.got - 2010.06.03 18:47:42.
