data_PCOD9265778
_publ_section_title
;
Structure prediction by ZEFSAII (Michael W. Deem and Ramdas Pophale) SiO2 
 PCOD9265778
Probable space group: C 2/C
;
_chemical_formula_sum "Si O2"
_cell_formula_units_Z 64
_cell_length_a 22.628607
_cell_length_b 18.154776
_cell_length_c 16.749928
_cell_angle_alpha 90.000000
_cell_angle_beta 157.429392
_cell_angle_gamma 90.000000
_cell_volume 2641.138391
_symmetry_space_group_name_H-M "C 2/C"
_symmetry_group_IT_number 15
_symmetry_cell_setting 'monoclinic'
loop_
_space_group_symop_operation_xyz
x,y,z
-x,y,1/2-z
-x,-y,-z
x,-y,1/2+z
1/2+x,1/2+y,z
1/2-x,1/2+y,1/2-z
1/2-x,1/2-y,-z
1/2+x,1/2-y,1/2+z
loop_
_atom_site_type_symbol
_atom_site_label
_atom_site_fract_x
_atom_site_fract_y
_atom_site_fract_z
Si Si1 0.146486 0.528005 0.234316
Si Si2 0.581197 0.716400 0.776099
Si Si3 0.027363 0.624873 0.377153
Si Si4 0.192233 0.933057 0.169751
Si Si5 0.920826 0.599289 0.735445
Si Si6 0.644036 0.206400 0.082549
Si Si7 0.660991 0.671303 0.482115
Si Si8 0.503428 0.668037 0.988371
O O1 0.108736 0.604719 0.229308
O O2 0.286083 0.510792 0.347991
O O3 0.150036 0.474504 0.316154
O O4 0.000000 0.500000 0.000000
O O5 0.500000 0.679087 0.750000
O O6 0.469751 0.786712 0.619262
O O7 0.585513 0.664740 0.705668
O O8 0.750000 0.750000 0.000000
O O9 0.000000 0.604195 0.250000
O O10 0.176166 0.584512 0.600388
O O11 0.031153 0.906006 0.005084
O O12 0.220874 0.875176 0.132959
O O13 0.786250 0.660338 0.570035
O O14 0.000000 0.587363 0.750000
O O15 0.046340 0.632566 0.952716
O O16 0.569760 0.263104 0.053160
O O17 0.820910 0.185398 0.311543
O O18 0.633231 0.248953 0.984333
O O19 0.500000 0.641208 0.250000
#
# Coordination Sequence:
#
# PCOD9265778 Si02
#       8
#     8   8   8   8   8   8   8   8
#     4   9  20  39  62  87 116 158 215 257 306 374
#     4  11  22  37  59  98 129 160 204 259 326 392
#     4  10  19  36  66  94 122 165 210 270 317 378
#     4   9  20  37  59  91 121 162 213 252 310 382
#     4  11  23  35  56  91 117 149 214 258 302 371
#     4  11  22  34  56  85 125 162 206 247 313 380
#     4  10  21  37  55  83 129 170 196 245 312 374
#     4  11  21  37  58  89 131 169 200 259 323 383
#
# _framework density 24.231976
#
# number of rings (size 3 to 8) (size 9 to 14) (size 15 to 20)
#    0.000    1.750    1.250    4.500    7.000    1.000 
#    0.000    0.000    0.000    6.000    9.750    0.000 
#    0.000    0.000    0.000    0.000    0.000    0.000 
#
# Total GULP energy -178794.063421 kJ/mol
# GULP energy per Si atom -5587.314482 kJ/mol
# Density = 2.417682 g / cm^3
# Si number density = 24.231976 Si / 1000 Ang^3
#
#
#
# Elastic Constant Matrix: (Units=GPa)
#
#
# Indices 1 2 3 4 5 6 
#
# 1 131.9858 22.8047 33.6526 0.0000 -3.8022 0.0000
# 2 22.8047 43.5415 -7.1058 0.0000 -0.5449 0.0000
# 3 33.6526 -7.1058 100.9116 0.0000 13.8190 0.0000
# 4 0.0000 0.0000 0.0000 12.7022 0.0000 8.6210
# 5 -3.8022 -0.5449 13.8190 0.0000 39.7530 0.0000
# 6 0.0000 0.0000 0.0000 8.6210 0.0000 26.9668
#
#
#
# Elastic Compliance Matrix: (Units=1/GPa)
#
#
# Indices 1 2 3 4 5 6 
#
# 1 0.009610 -0.005643 -0.003903 0.000000 0.002199 0.000000
# 2 -0.005643 0.026549 0.003964 0.000000 -0.001554 0.000000
# 3 -0.003903 0.003964 0.012111 0.000000 -0.004529 0.000000
# 4 0.000000 0.000000 0.000000 0.100542 0.000000 -0.032142
# 5 0.002199 -0.001554 -0.004529 0.000000 0.026919 0.000000
# 6 0.000000 0.000000 0.000000 -0.032142 0.000000 0.047358
#
#
# Mechanical properties :
#
#
# Convention : Reuss Voigt Hill
#
# Bulk Modulus (GPa) = 26.94960 41.68244 34.31602
# Shear Modulus (GPa) = 20.27402 31.02356 25.64879
#
# Velocity S-wave (km/s) = 2.89565 3.58197 3.25694
# Velocity P-wave (km/s) = 4.72497 5.86056 5.32313
#
# Compressibility (1/GPa) = 0.03710631
#
# Stress axis : x y z
#
# Youngs Moduli (GPa) = 104.05737 37.66563 82.57177
#
# Poissons Ratio (x) = 0.21254 0.32230
# Poissons Ratio (y) = 0.58717 -0.32732
# Poissons Ratio (z) = 0.40616 -0.14931
#
# Static dielectric constant tensor:
#      x y z
#    x 1.988490 0.000000 0.027430 
#    y 0.000000 1.976160 0.000000 
#    z 0.027430 0.000000 2.000790 
# 
# From -- ./inp_files/220431.got.cif
#   From: 2010.05.17/outbox.cif.g08.bks.cpg/sg15_111_cif.got.tgz:220431.got - 2010.06.03 18:47:42.
