data_PCOD9265278
_publ_section_title
;
Structure prediction by ZEFSAII (Michael W. Deem and Ramdas Pophale) SiO2 
 PCOD9265278
Probable space group: C 2/C
;
_chemical_formula_sum "Si O2"
_cell_formula_units_Z 48
_cell_length_a 13.709586
_cell_length_b 9.448114
_cell_length_c 15.452528
_cell_angle_alpha 90.000000
_cell_angle_beta 95.129637
_cell_angle_gamma 90.000000
_cell_volume 1993.545447
_symmetry_space_group_name_H-M "C 2/C"
_symmetry_group_IT_number 15
_symmetry_cell_setting 'monoclinic'
loop_
_space_group_symop_operation_xyz
x,y,z
-x,y,1/2-z
-x,-y,-z
x,-y,1/2+z
1/2+x,1/2+y,z
1/2-x,1/2+y,1/2-z
1/2-x,1/2-y,-z
1/2+x,1/2-y,1/2+z
loop_
_atom_site_type_symbol
_atom_site_label
_atom_site_fract_x
_atom_site_fract_y
_atom_site_fract_z
Si Si1 0.300161 0.952627 0.197936
Si Si2 0.321443 0.041648 0.895416
Si Si3 0.461817 0.790277 0.955055
Si Si4 0.829207 0.276221 0.603732
Si Si5 0.824287 0.803246 0.580212
Si Si6 0.597906 0.615712 0.719801
O O1 0.349138 0.960256 0.295801
O O2 0.315129 0.796726 0.161872
O O3 0.186373 0.986053 0.205953
O O4 0.324436 0.057118 0.122211
O O5 0.274262 0.194484 0.918344
O O6 0.409126 0.946739 0.945108
O O7 0.220167 0.953603 0.900536
O O8 0.577238 0.767682 0.951659
O O9 0.420048 0.706843 0.867830
O O10 0.427375 0.715101 0.040803
O O11 0.864659 0.217443 0.700564
O O12 0.750000 0.750000 0.500000
O O13 0.500000 0.547738 0.750000
#
# Coordination Sequence:
#
# PCOD9265278 Si02
#       6
#     8   8   8   8   8   8
#     4  11  18  34  59  89 116 153 199 248 296 358
#     4  10  19  36  59  88 113 157 202 243 291 367
#     4  10  19  38  59  83 115 159 197 237 301 363
#     4  10  21  32  61  87 116 151 201 247 298 349
#     4  10  20  36  61  84 118 161 194 240 305 358
#     4   9  17  33  58  81 106 156 196 232 286 361
#
# _framework density 24.077705000000002
#
# number of rings (size 3 to 8) (size 9 to 14) (size 15 to 20)
#    0.000    2.000    5.000    1.000    0.000    1.333 
#    0.000    3.333   18.333    0.000    0.000    0.000 
#    0.000    0.000    0.000    0.000    0.000    0.000 
#
# Total GULP energy -133849.481687 kJ/mol
# GULP energy per Si atom -5577.061737 kJ/mol
# Density = 2.402290 g / cm^3
# Si number density = 24.077705 Si / 1000 Ang^3
#
#
#
# Elastic Constant Matrix: (Units=GPa)
#
#
# Indices 1 2 3 4 5 6 
#
# 1 97.2779 -8.8642 50.3735 0.0000 -12.0769 0.0000
# 2 -8.8642 37.1809 27.5765 0.0000 5.3057 0.0000
# 3 50.3735 27.5765 96.7396 0.0000 -14.6293 0.0000
# 4 0.0000 0.0000 0.0000 8.0177 0.0000 -1.4501
# 5 -12.0769 5.3057 -14.6293 0.0000 44.5272 0.0000
# 6 0.0000 0.0000 0.0000 -1.4501 0.0000 18.8227
#
#
#
# Elastic Compliance Matrix: (Units=1/GPa)
#
#
# Indices 1 2 3 4 5 6 
#
# 1 0.019078 0.015590 -0.014602 0.000000 -0.001481 0.000000
# 2 0.015590 0.049507 -0.023658 0.000000 -0.009443 0.000000
# 3 -0.014602 -0.023658 0.025793 0.000000 0.007333 0.000000
# 4 0.000000 0.000000 0.000000 0.126486 0.000000 0.009745
# 5 -0.001481 -0.009443 0.007333 0.000000 0.025591 0.000000
# 6 0.000000 0.000000 0.000000 0.009745 0.000000 0.053878
#
#
# Mechanical properties :
#
#
# Convention : Reuss Voigt Hill
#
# Bulk Modulus (GPa) = 20.39277 41.04111 30.71694
# Shear Modulus (GPa) = 13.81142 25.08105 19.44623
#
# Velocity S-wave (km/s) = 2.39763 3.23099 2.84499
# Velocity P-wave (km/s) = 4.01905 5.56789 4.85562
#
# Compressibility (1/GPa) = 0.04903700
#
# Stress axis : x y z
#
# Youngs Moduli (GPa) = 52.41663 20.19933 38.76978
#
# Poissons Ratio (x) = -0.31490 0.56611
# Poissons Ratio (y) = -0.81716 0.91722
# Poissons Ratio (z) = 0.76539 0.47788
#
# Static dielectric constant tensor:
#      x y z
#    x 1.985420 0.000000 0.024930 
#    y 0.000000 2.000580 0.000000 
#    z 0.024930 0.000000 1.947770 
# 
# From -- ./inp_files/202964.got.cif
#   From: 2010.05.17/outbox.cif.g08.bks.cpg/sg15_102_cif.got.tgz:202964.got - 2010.06.03 18:47:42.
