data_PCOD9265857
_publ_section_title
;
Structure prediction by ZEFSAII (Michael W. Deem and Ramdas Pophale) SiO2 
 PCOD9265857
Probable space group: C 2/C
;
_chemical_formula_sum "Si O2"
_cell_formula_units_Z 40
_cell_length_a 10.714716
_cell_length_b 11.177274
_cell_length_c 18.381673
_cell_angle_alpha 90.000000
_cell_angle_beta 44.410858
_cell_angle_gamma 90.000000
_cell_volume 1540.546264
_symmetry_space_group_name_H-M "C 2/C"
_symmetry_group_IT_number 15
_symmetry_cell_setting 'monoclinic'
loop_
_space_group_symop_operation_xyz
x,y,z
-x,y,1/2-z
-x,-y,-z
x,-y,1/2+z
1/2+x,1/2+y,z
1/2-x,1/2+y,1/2-z
1/2-x,1/2-y,-z
1/2+x,1/2-y,1/2+z
loop_
_atom_site_type_symbol
_atom_site_label
_atom_site_fract_x
_atom_site_fract_y
_atom_site_fract_z
Si Si1 0.916044 0.115887 0.851399
Si Si2 0.623976 0.612106 0.468397
Si Si3 0.272539 0.003258 0.185648
Si Si4 0.890702 0.581881 0.885487
Si Si5 0.153865 0.707454 0.445420
O O1 0.000000 0.194197 0.750000
O O2 0.893789 0.157912 0.941203
O O3 0.066525 0.009968 0.795490
O O4 0.739275 0.069031 0.885991
O O5 0.500000 0.500000 0.500000
O O6 0.812547 0.544314 0.389469
O O7 0.529199 0.718497 0.464342
O O8 0.338200 0.131568 0.132071
O O9 0.401021 0.940111 0.188818
O O10 0.811554 0.693880 0.874678
O O11 0.820621 0.620968 0.995539
#
# Coordination Sequence:
#
# PCOD9265857 Si02
#       5
#     8   8   8   8   8
#     4   8  19  38  56  77 118 149 178 242 275 323
#     4  10  20  36  56  88 118 139 191 241 270 331
#     4   9  19  38  58  77 116 151 184 229 282 334
#     4  10  19  37  55  87 116 142 188 237 272 336
#     4  10  20  33  60  87 106 152 189 223 290 330
#
# _framework density 25.964815000000002
#
# number of rings (size 3 to 8) (size 9 to 14) (size 15 to 20)
#    1.200    1.200    2.000    0.600    0.000    0.800 
#    7.200    3.000    0.000    0.000    0.000    0.000 
#    0.000    0.000    0.000    0.000    0.000    0.000 
#
# Total GULP energy -111337.531224 kJ/mol
# GULP energy per Si atom -5566.876561 kJ/mol
# Density = 2.590572 g / cm^3
# Si number density = 25.964815 Si / 1000 Ang^3
#
#
#
# Elastic Constant Matrix: (Units=GPa)
#
#
# Indices 1 2 3 4 5 6 
#
# 1 124.7056 39.2616 31.6303 0.0000 -22.7341 0.0000
# 2 39.2616 117.5766 38.2379 0.0000 -22.1130 0.0000
# 3 31.6303 38.2379 44.0471 0.0000 3.4217 0.0000
# 4 0.0000 0.0000 0.0000 13.8211 0.0000 -15.8697
# 5 -22.7341 -22.1130 3.4217 0.0000 40.3171 0.0000
# 6 0.0000 0.0000 0.0000 -15.8697 0.0000 14.9442
#
#
#
# Elastic Compliance Matrix: (Units=1/GPa)
#
#
# Indices 1 2 3 4 5 6 
#
# 1 0.011639 0.000674 -0.009544 0.000000 0.007742 0.000000
# 2 0.000674 0.014601 -0.013902 0.000000 0.009568 0.000000
# 3 -0.009544 -0.013902 0.042919 0.000000 -0.016649 0.000000
# 4 0.000000 0.000000 0.000000 -0.329867 0.000000 -0.350297
# 5 0.007742 0.009568 -0.016649 0.000000 0.035830 0.000000
# 6 0.000000 0.000000 0.000000 -0.350297 0.000000 -0.305077
#
#
# Mechanical properties :
#
#
# Convention : Reuss Voigt Hill
#
# Bulk Modulus (GPa) = 42.34955 56.06545 49.20750
# Shear Modulus (GPa) = -10.49234 25.62979 7.56872
#
# Velocity S-wave (km/s) = -2.01240 3.14522 1.70919
# Velocity P-wave (km/s) = 3.30849 5.90166 4.78412
#
# Compressibility (1/GPa) = 0.02361300
#
# Stress axis : x y z
#
# Youngs Moduli (GPa) = 85.91735 68.48912 23.29987
#
# Poissons Ratio (x) = -0.04613 0.22238
# Poissons Ratio (y) = -0.05787 0.32392
# Poissons Ratio (z) = 0.82001 0.95215
#
# Static dielectric constant tensor:
#      x y z
#    x 1.991310 0.000000 0.034070 
#    y 0.000000 2.062050 0.000000 
#    z 0.034070 0.000000 2.096370 
# 
# From -- ./inp_files/268204.got.cif
#   From: 2010.05.17/outbox.cif.g08.bks.cpg/sg15_135_cif.got.tgz:268204.got - 2010.06.03 18:47:42.
