data_PCOD9265988
_publ_section_title
;
Structure prediction by ZEFSAII (Michael W. Deem and Ramdas Pophale) SiO2 
 PCOD9265988
Probable space group: C 2/C
;
_chemical_formula_sum "Si O2"
_cell_formula_units_Z 52
_cell_length_a 16.746706
_cell_length_b 8.052609
_cell_length_c 23.314501
_cell_angle_alpha 90.000000
_cell_angle_beta 53.558470
_cell_angle_gamma 90.000000
_cell_volume 2529.288985
_symmetry_space_group_name_H-M "C 2/C"
_symmetry_group_IT_number 15
_symmetry_cell_setting 'monoclinic'
loop_
_space_group_symop_operation_xyz
x,y,z
-x,y,1/2-z
-x,-y,-z
x,-y,1/2+z
1/2+x,1/2+y,z
1/2-x,1/2+y,1/2-z
1/2-x,1/2-y,-z
1/2+x,1/2-y,1/2+z
loop_
_atom_site_type_symbol
_atom_site_label
_atom_site_fract_x
_atom_site_fract_y
_atom_site_fract_z
Si Si1 0.198531 0.903047 0.193120
Si Si2 0.043765 0.409006 0.565491
Si Si3 0.000000 0.811354 0.250000
Si Si4 0.001007 0.245235 0.036324
Si Si5 0.840732 0.021504 0.595835
Si Si6 0.177840 0.308656 0.604895
Si Si7 0.323914 0.197091 0.192443
O O1 0.079404 0.927924 0.248399
O O2 0.218725 0.860814 0.117594
O O3 0.210549 0.741497 0.228740
O O4 0.264594 0.047607 0.189131
O O5 0.035230 0.609032 0.564446
O O6 0.140901 0.337383 0.556276
O O7 0.040354 0.337063 0.502825
O O8 0.805729 0.140611 0.661554
O O9 0.071524 0.694131 0.182945
O O10 0.913351 0.119967 0.090967
O O11 0.091673 0.132632 0.975695
O O12 0.752599 0.945773 0.595853
O O13 0.940853 0.344973 0.637999
#
# Coordination Sequence:
#
# PCOD9265988 Si02
#       7
#     8   8   4   8   8   8   8
#     4  10  20  36  58  85 112 148 194 232 288 366
#     4  10  19  37  61  81 114 156 188 242 288 342
#     4   8  20  38  52  84 114 144 184 236 286 364
#     4   9  21  38  57  86 114 149 209 230 283 347
#     4  10  21  37  56  86 117 152 191 246 280 344
#     4  10  19  37  59  82 120 148 185 239 299 336
#     4  11  20  36  60  82 113 154 190 234 294 343
#
# _framework density 20.559137
#
# number of rings (size 3 to 8) (size 9 to 14) (size 15 to 20)
#    0.923    1.231    1.538    1.846    0.000    1.231 
#    0.000    8.462    0.000    0.000    0.000    0.000 
#    0.000    0.000    0.000    0.000    0.000    0.000 
#
# Total GULP energy -144800.830869 kJ/mol
# GULP energy per Si atom -5569.262726 kJ/mol
# Density = 2.051234 g / cm^3
# Si number density = 20.559137 Si / 1000 Ang^3
#
#
#
# Elastic Constant Matrix: (Units=GPa)
#
#
# Indices 1 2 3 4 5 6 
#
# 1 139.0928 44.1816 7.5720 0.0000 -9.4589 0.0002
# 2 44.1816 88.9268 2.5293 0.0000 -0.4819 0.0005
# 3 7.5720 2.5293 39.1807 0.0000 -2.6648 0.0000
# 4 0.0000 0.0000 0.0000 27.3080 0.0000 -1.8057
# 5 -9.4589 -0.4819 -2.6648 0.0000 28.3316 0.0000
# 6 0.0002 0.0005 0.0000 -1.8057 0.0000 16.4235
#
#
#
# Elastic Compliance Matrix: (Units=1/GPa)
#
#
# Indices 1 2 3 4 5 6 
#
# 1 0.008820 -0.004332 -0.001238 0.000000 0.002755 0.000000
# 2 -0.004332 0.013394 -0.000111 0.000000 -0.001229 0.000000
# 3 -0.001238 -0.000111 0.025907 0.000000 0.002022 0.000000
# 4 0.000000 0.000000 0.000000 0.036887 0.000000 0.004056
# 5 0.002755 -0.001229 0.002022 0.000000 0.036385 0.000000
# 6 0.000000 0.000000 0.000000 0.004056 0.000000 0.061334
#
#
# Mechanical properties :
#
#
# Convention : Reuss Voigt Hill
#
# Bulk Modulus (GPa) = 27.20381 41.75178 34.47779
# Shear Modulus (GPa) = 24.23160 28.60711 26.41936
#
# Velocity S-wave (km/s) = 3.43684 3.73427 3.58864
# Velocity P-wave (km/s) = 5.38608 6.24061 5.82903
#
# Compressibility (1/GPa) = 0.03675956
#
# Stress axis : x y z
#
# Youngs Moduli (GPa) = 113.37642 74.66037 38.60018
#
# Poissons Ratio (x) = 0.32343 0.04777
# Poissons Ratio (y) = 0.49115 0.00429
# Poissons Ratio (z) = 0.14031 0.00829
#
# Static dielectric constant tensor:
#      x y z
#    x 1.768480 0.000000 0.020720 
#    y 0.000000 1.745820 0.000000 
#    z 0.020720 0.000000 1.798480 
# 
# From -- ./inp_files/312640.got.cif
#   From: 2010.05.17/outbox.cif.g08.bks.cpg/sg15_157_cif.got.tgz:312640.got - 2010.06.03 18:47:42.
