data_PCOD9265695
_publ_section_title
;
Structure prediction by ZEFSAII (Michael W. Deem and Ramdas Pophale) SiO2 
 PCOD9265695
Probable space group: C 2/C
;
_chemical_formula_sum "Si O2"
_cell_formula_units_Z 56
_cell_length_a 10.240172
_cell_length_b 28.749531
_cell_length_c 13.286541
_cell_angle_alpha 90.000000
_cell_angle_beta 44.569628
_cell_angle_gamma 90.000000
_cell_volume 2745.036728
_symmetry_space_group_name_H-M "C 2/C"
_symmetry_group_IT_number 15
_symmetry_cell_setting 'monoclinic'
loop_
_space_group_symop_operation_xyz
x,y,z
-x,y,1/2-z
-x,-y,-z
x,-y,1/2+z
1/2+x,1/2+y,z
1/2-x,1/2+y,1/2-z
1/2-x,1/2-y,-z
1/2+x,1/2-y,1/2+z
loop_
_atom_site_type_symbol
_atom_site_label
_atom_site_fract_x
_atom_site_fract_y
_atom_site_fract_z
Si Si1 0.814482 0.448069 0.068083
Si Si2 0.652446 0.797653 0.579603
Si Si3 0.398157 0.454054 0.514307
Si Si4 0.402962 0.007479 0.711296
Si Si5 0.841461 0.200645 0.423440
Si Si6 0.584030 0.141553 0.428774
Si Si7 0.400416 0.357405 0.583972
O O1 0.772093 0.465112 0.204841
O O2 0.649039 0.444082 0.077156
O O3 0.931717 0.488383 0.948017
O O4 0.953019 0.403973 0.005558
O O5 0.500000 0.789880 0.750000
O O6 0.750000 0.750000 0.500000
O O7 0.548980 0.818202 0.540367
O O8 0.793747 0.835629 0.547480
O O9 0.500000 0.500000 0.500000
O O10 0.199916 0.464033 0.679533
O O11 0.483938 0.407330 0.511924
O O12 0.500000 0.034964 0.750000
O O13 0.750000 0.250000 0.500000
O O14 0.691837 0.162656 0.465359
O O15 0.000000 0.206813 0.250000
O O16 0.949009 0.178686 0.458587
O O17 0.745708 0.134868 0.256205
#
# Coordination Sequence:
#
# PCOD9265695 Si02
#       7
#     8   8   8   8   8   8   8
#     4  10  19  37  61  84 112 161 206 251 300 360
#     4  10  20  35  61  88 115 152 200 251 312 374
#     4  11  22  37  57  87 127 162 204 260 303 361
#     4   9  20  35  57  82 117 153 203 247 300 352
#     4  10  22  39  60  90 123 159 205 260 317 375
#     4  10  19  36  64  84 113 157 206 247 303 371
#     4  10  20  37  61  87 119 158 205 251 302 370
#
# _framework density 20.400455999999998
#
# number of rings (size 3 to 8) (size 9 to 14) (size 15 to 20)
#    0.000    2.000    2.857    0.857    0.000    4.000 
#    2.571    3.571    0.000    0.000    0.000    0.000 
#    0.000    0.000    0.000    0.000    0.000    0.000 
#
# Total GULP energy -156020.953155 kJ/mol
# GULP energy per Si atom -5572.176898 kJ/mol
# Density = 2.035402 g / cm^3
# Si number density = 20.400456 Si / 1000 Ang^3
#
#
#
# Elastic Constant Matrix: (Units=GPa)
#
#
# Indices 1 2 3 4 5 6 
#
# 1 109.6996 38.2272 24.3948 0.0000 0.5369 0.0000
# 2 38.2272 108.7585 25.7782 0.0000 -3.8711 0.0000
# 3 24.3948 25.7782 35.1601 0.0000 12.0524 0.0000
# 4 0.0000 0.0000 0.0000 25.3358 0.0000 -18.1321
# 5 0.5369 -3.8711 12.0524 0.0000 20.4742 0.0000
# 6 0.0000 0.0000 0.0000 -18.1321 0.0000 37.3545
#
#
#
# Elastic Compliance Matrix: (Units=1/GPa)
#
#
# Indices 1 2 3 4 5 6 
#
# 1 0.011563 -0.002061 -0.007860 0.000000 0.003934 0.000000
# 2 -0.002061 0.012871 -0.011099 0.000000 0.009021 0.000000
# 3 -0.007860 -0.011099 0.053470 0.000000 -0.033368 0.000000
# 4 0.000000 0.000000 0.000000 0.060480 0.000000 0.029357
# 5 0.003934 0.009021 -0.033368 0.000000 0.070087 0.000000
# 6 0.000000 0.000000 0.000000 0.029357 0.000000 0.041021
#
#
# Mechanical properties :
#
#
# Convention : Reuss Voigt Hill
#
# Bulk Modulus (GPa) = 27.88289 47.82429 37.85359
# Shear Modulus (GPa) = 16.47534 27.64746 22.06140
#
# Velocity S-wave (km/s) = 2.84491 3.68535 3.29206
# Velocity P-wave (km/s) = 4.94861 6.45002 5.74854
#
# Compressibility (1/GPa) = 0.03586429
#
# Stress axis : x y z
#
# Youngs Moduli (GPa) = 86.48565 77.69474 18.70220
#
# Poissons Ratio (x) = 0.16014 0.14699
# Poissons Ratio (y) = 0.17826 0.20757
# Poissons Ratio (z) = 0.67974 0.86231
#
# Static dielectric constant tensor:
#      x y z
#    x 1.799210 0.000000 -0.018510 
#    y 0.000000 1.692090 0.000000 
#    z -0.018510 0.000000 1.759740 
# 
# From -- ./inp_files/82494.got.cif
#   From: 2010.05.17/outbox.cif.g08.bks.cpg/sg15_42_cif.got.tgz:82494.got - 2010.06.03 18:47:42.
