data_PCOD9265613
_publ_section_title
;
Structure prediction by ZEFSAII (Michael W. Deem and Ramdas Pophale) SiO2 
 PCOD9265613
Probable space group: C 2/C
;
_chemical_formula_sum "Si O2"
_cell_formula_units_Z 56
_cell_length_a 18.465530
_cell_length_b 8.352877
_cell_length_c 17.664906
_cell_angle_alpha 90.000000
_cell_angle_beta 66.058591
_cell_angle_gamma 90.000000
_cell_volume 2490.214837
_symmetry_space_group_name_H-M "C 2/C"
_symmetry_group_IT_number 15
_symmetry_cell_setting 'monoclinic'
loop_
_space_group_symop_operation_xyz
x,y,z
-x,y,1/2-z
-x,-y,-z
x,-y,1/2+z
1/2+x,1/2+y,z
1/2-x,1/2+y,1/2-z
1/2-x,1/2-y,-z
1/2+x,1/2-y,1/2+z
loop_
_atom_site_type_symbol
_atom_site_label
_atom_site_fract_x
_atom_site_fract_y
_atom_site_fract_z
Si Si1 0.268295 0.095934 0.920488
Si Si2 0.133017 0.824755 0.826947
Si Si3 0.025394 0.815214 0.000410
Si Si4 0.201543 0.719037 0.186611
Si Si5 0.136772 0.065097 0.580217
Si Si6 0.917490 0.769713 0.819388
Si Si7 0.861319 0.205413 0.631186
O O1 0.355199 0.169923 0.896365
O O2 0.209342 0.214818 0.899810
O O3 0.288727 0.950095 0.856997
O O4 0.213067 0.022237 0.010059
O O5 0.210607 0.734571 0.823737
O O6 0.127373 0.809910 0.740005
O O7 0.136359 0.014376 0.847406
O O8 0.060188 0.756167 0.906458
O O9 0.094406 0.825589 0.034583
O O10 0.944352 0.737768 0.061899
O O11 0.000000 0.000000 0.000000
O O12 0.164902 0.836340 0.140578
O O13 0.153190 0.707059 0.284142
O O14 0.073521 0.934091 0.637262
O O15 0.000000 0.704293 0.750000
#
# Coordination Sequence:
#
# PCOD9265613 Si02
#       7
#     8   8   8   8   8   8   8
#     4  11  24  42  61  92 132 163 198 265 318 364
#     4  10  20  39  62  87 123 158 200 258 306 360
#     4  10  19  36  62  95 124 152 206 267 298 349
#     4  11  22  39  67  91 122 162 212 252 311 365
#     4  12  23  39  68  96 118 163 218 256 298 377
#     4  12  25  41  63  90 126 165 209 253 314 375
#     4  10  19  38  63  90 117 164 202 251 308 367
#
# _framework density 22.488018
#
# number of rings (size 3 to 8) (size 9 to 14) (size 15 to 20)
#    0.000    1.143    7.143    2.571    0.000    0.000 
#    2.571    0.000    0.000    1.714    0.000    0.000 
#    0.000    0.000    0.000    0.000    0.000    0.000 
#
# Total GULP energy -156324.817505 kJ/mol
# GULP energy per Si atom -5583.029197 kJ/mol
# Density = 2.243683 g / cm^3
# Si number density = 22.488018 Si / 1000 Ang^3
#
#
#
# Elastic Constant Matrix: (Units=GPa)
#
#
# Indices 1 2 3 4 5 6 
#
# 1 65.9171 11.6474 3.7843 0.0000 -12.5506 0.0000
# 2 11.6474 8.2699 14.5725 0.0000 -2.5603 0.0000
# 3 3.7843 14.5725 113.3774 0.0000 -29.0366 0.0000
# 4 0.0000 0.0000 0.0000 20.6859 0.0000 0.4820
# 5 -12.5506 -2.5603 -29.0366 0.0000 47.8235 0.0000
# 6 0.0000 0.0000 0.0000 0.4820 0.0000 14.7636
#
#
#
# Elastic Compliance Matrix: (Units=1/GPa)
#
#
# Indices 1 2 3 4 5 6 
#
# 1 0.023983 -0.043335 0.006853 0.000000 0.008135 0.000000
# 2 -0.043335 0.235461 -0.033750 0.000000 -0.019258 0.000000
# 3 0.006853 -0.033750 0.015307 0.000000 0.009286 0.000000
# 4 0.000000 0.000000 0.000000 0.048379 0.000000 -0.001579
# 5 0.008135 -0.019258 0.009286 0.000000 0.027652 0.000000
# 6 0.000000 0.000000 0.000000 -0.001579 0.000000 0.067786
#
#
# Mechanical properties :
#
#
# Convention : Reuss Voigt Hill
#
# Bulk Modulus (GPa) = 7.44668 27.50811 17.47740
# Shear Modulus (GPa) = 8.28097 27.15862 17.71980
#
# Velocity S-wave (km/s) = 1.92104 3.47896 2.81012
# Velocity P-wave (km/s) = 2.87038 5.32883 4.27993
#
# Compressibility (1/GPa) = 0.13428797
#
# Stress axis : x y z
#
# Youngs Moduli (GPa) = 41.69599 4.24699 65.32801
#
# Poissons Ratio (x) = 0.18404 -0.44767
# Poissons Ratio (y) = 1.80688 2.20481
# Poissons Ratio (z) = -0.28573 0.14334
#
# Static dielectric constant tensor:
#      x y z
#    x 1.896570 0.000000 -0.034940 
#    y 0.000000 1.856110 0.000000 
#    z -0.034940 0.000000 1.860620 
# 
# From -- ./inp_files/213807.got.cif
#   From: 2010.05.17/outbox.cif.g08.bks.cpg/sg15_107_cif.got.tgz:213807.got - 2010.06.03 18:47:42.
