data_PCOD9265200
_publ_section_title
;
Structure prediction by ZEFSAII (Michael W. Deem and Ramdas Pophale) SiO2 
 PCOD9265200
Probable space group: C 2/C
;
_chemical_formula_sum "Si O2"
_cell_formula_units_Z 60
_cell_length_a 6.380531
_cell_length_b 28.247996
_cell_length_c 16.297066
_cell_angle_alpha 90.000000
_cell_angle_beta 86.014859
_cell_angle_gamma 90.000000
_cell_volume 2930.235607
_symmetry_space_group_name_H-M "C 2/C"
_symmetry_group_IT_number 15
_symmetry_cell_setting 'monoclinic'
loop_
_space_group_symop_operation_xyz
x,y,z
-x,y,1/2-z
-x,-y,-z
x,-y,1/2+z
1/2+x,1/2+y,z
1/2-x,1/2+y,1/2-z
1/2-x,1/2-y,-z
1/2+x,1/2-y,1/2+z
loop_
_atom_site_type_symbol
_atom_site_label
_atom_site_fract_x
_atom_site_fract_y
_atom_site_fract_z
Si Si1 0.105289 0.871753 0.163469
Si Si2 0.132697 0.292502 0.402012
Si Si3 0.243924 0.145235 0.964001
Si Si4 0.701081 0.909392 0.625584
Si Si5 0.407875 0.067483 0.545248
Si Si6 0.100314 0.511175 0.331786
Si Si7 0.000000 0.043471 0.250000
Si Si8 0.131419 0.186486 0.431670
O O1 0.233789 0.822215 0.167768
O O2 0.277577 0.906321 0.120268
O O3 0.000000 0.887221 0.250000
O O4 0.918435 0.867056 0.103235
O O5 0.118931 0.236750 0.387270
O O6 0.261467 0.302392 0.483083
O O7 0.905166 0.315015 0.426342
O O8 0.388447 0.099744 0.979684
O O9 0.097965 0.164432 0.041928
O O10 0.734594 0.930137 0.532538
O O11 0.484445 0.935111 0.656198
O O12 0.725787 0.853305 0.615182
O O13 0.863774 0.926596 0.689601
O O14 0.460983 0.017951 0.586231
O O15 0.346082 0.512376 0.309566
O O16 0.000000 0.491908 0.250000
#
# Coordination Sequence:
#
# PCOD9265200 Si02
#       8
#     8   8   8   8   8   8   4   8
#     4  10  22  36  57  95 133 162 202 257 313 373
#     4   9  19  36  58  92 122 163 206 254 305 381
#     4  10  19  36  58  94 120 159 201 255 309 365
#     4  11  22  44  61  96 122 159 219 262 310 374
#     4  11  23  38  65  94 122 164 211 258 314 388
#     4  10  25  43  61  91 125 167 210 261 320 378
#     4  10  26  44  64  82 130 166 204 270 312 370
#     4  10  19  37  63  89 124 159 208 254 316 368
#
# _framework density 20.476168999999999
#
# number of rings (size 3 to 8) (size 9 to 14) (size 15 to 20)
#    0.000    1.867    4.000    0.800    4.667    3.200 
#    0.000    3.333    0.000    0.000    0.000    0.000 
#    0.000    0.000    0.000    0.000    0.000    0.000 
#
# Total GULP energy -167321.341211 kJ/mol
# GULP energy per Si atom -5577.378040 kJ/mol
# Density = 2.042956 g / cm^3
# Si number density = 20.476169 Si / 1000 Ang^3
#
#
#
# Elastic Constant Matrix: (Units=GPa)
#
#
# Indices 1 2 3 4 5 6 
#
# 1 90.8756 36.2180 9.6719 0.0000 -11.0187 0.0000
# 2 36.2180 105.3804 22.0575 0.0000 -3.1397 0.0000
# 3 9.6719 22.0575 73.4857 0.0000 -5.3041 0.0000
# 4 0.0000 0.0000 0.0000 18.9545 0.0000 -4.6759
# 5 -11.0187 -3.1397 -5.3041 0.0000 23.8531 0.0000
# 6 0.0000 0.0000 0.0000 -4.6759 0.0000 11.9923
#
#
#
# Elastic Compliance Matrix: (Units=1/GPa)
#
#
# Indices 1 2 3 4 5 6 
#
# 1 0.013464 -0.004454 -0.000029 0.000000 0.005627 0.000000
# 2 -0.004454 0.011609 -0.002985 0.000000 -0.001193 0.000000
# 3 -0.000029 -0.002985 0.014715 0.000000 0.002866 0.000000
# 4 0.000000 0.000000 0.000000 0.058373 0.000000 0.022760
# 5 0.005627 -0.001193 0.002866 0.000000 0.045003 0.000000
# 6 0.000000 0.000000 0.000000 0.022760 0.000000 0.092261
#
#
# Mechanical properties :
#
#
# Convention : Reuss Voigt Hill
#
# Bulk Modulus (GPa) = 40.23600 45.07074 42.65337
# Shear Modulus (GPa) = 19.33155 24.41294 21.87225
#
# Velocity S-wave (km/s) = 3.07595 3.45666 3.27185
# Velocity P-wave (km/s) = 5.68403 6.16364 5.92868
#
# Compressibility (1/GPa) = 0.02485337
#
# Stress axis : x y z
#
# Youngs Moduli (GPa) = 74.26942 86.13762 67.95959
#
# Poissons Ratio (x) = 0.38364 0.00198
# Poissons Ratio (y) = 0.33078 0.20283
# Poissons Ratio (z) = 0.00216 0.25708
#
# Static dielectric constant tensor:
#      x y z
#    x 1.730390 0.000000 -0.002690 
#    y 0.000000 1.790760 0.000000 
#    z -0.002690 0.000000 1.731570 
# 
# From -- ./inp_files/186185.got.cif
#   From: 2010.05.17/outbox.cif.g08.bks.cpg/sg15_94_cif.got.tgz:186185.got - 2010.06.03 18:47:42.
