data_PCOD9265014
_publ_section_title
;
Structure prediction by ZEFSAII (Michael W. Deem and Ramdas Pophale) SiO2 
 PCOD9265014
Probable space group: C 2/C
;
_chemical_formula_sum "Si O2"
_cell_formula_units_Z 56
_cell_length_a 10.731379
_cell_length_b 28.149580
_cell_length_c 13.777769
_cell_angle_alpha 90.000000
_cell_angle_beta 134.263707
_cell_angle_gamma 90.000000
_cell_volume 2980.583168
_symmetry_space_group_name_H-M "C 2/C"
_symmetry_group_IT_number 15
_symmetry_cell_setting 'monoclinic'
loop_
_space_group_symop_operation_xyz
x,y,z
-x,y,1/2-z
-x,-y,-z
x,-y,1/2+z
1/2+x,1/2+y,z
1/2-x,1/2+y,1/2-z
1/2-x,1/2-y,-z
1/2+x,1/2-y,1/2+z
loop_
_atom_site_type_symbol
_atom_site_label
_atom_site_fract_x
_atom_site_fract_y
_atom_site_fract_z
Si Si1 0.802760 0.518053 0.912738
Si Si2 0.900197 0.107211 0.388574
Si Si3 0.645279 0.297363 0.742856
Si Si4 0.406423 0.782872 0.044997
Si Si5 0.000000 0.637410 0.750000
Si Si6 0.300479 0.973864 0.632505
Si Si7 0.301222 0.429350 0.332889
Si Si8 0.000000 0.058384 0.250000
O O1 0.743545 0.555912 0.800583
O O2 0.670548 0.473981 0.834997
O O3 0.777541 0.537211 0.007305
O O4 0.000000 0.500000 0.000000
O O5 0.854621 0.160487 0.335119
O O6 0.742127 0.071210 0.323859
O O7 0.023449 0.098821 0.548042
O O8 0.004126 0.088687 0.350240
O O9 0.500000 0.306557 0.750000
O O10 0.578579 0.249039 0.655099
O O11 0.832004 0.294666 0.898107
O O12 0.428812 0.828711 0.125349
O O13 0.250000 0.750000 0.000000
O O14 0.149653 0.603512 0.791691
O O15 0.500000 0.988808 0.750000
O O16 0.192194 0.019844 0.607546
#
# Coordination Sequence:
#
# PCOD9265014 Si02
#       8
#     8   8   8   8   4   8   8   4
#     4  12  23  39  58  82 121 173 211 256 308 359
#     4  12  24  37  62  90 120 170 209 255 314 375
#     4  10  20  36  60  89 126 154 200 253 328 378
#     4  10  19  36  56  87 125 159 192 264 316 379
#     4  12  22  33  62  88 132 164 205 248 328 376
#     4  12  23  42  58  85 128 165 212 260 299 364
#     4  12  23  37  55  91 123 166 209 250 308 371
#     4  12  22  35  60  80 122 166 211 248 300 366
#
# _framework density 18.788269
#
# number of rings (size 3 to 8) (size 9 to 14) (size 15 to 20)
#    0.000    0.571    7.857    3.000    0.000    1.143 
#    0.000    0.000    0.000    0.000    0.000    4.000 
#    0.000    0.000    0.000    0.000    0.000    0.000 
#
# Total GULP energy -156298.595302 kJ/mol
# GULP energy per Si atom -5582.092689 kJ/mol
# Density = 1.874551 g / cm^3
# Si number density = 18.788269 Si / 1000 Ang^3
#
#
#
# Elastic Constant Matrix: (Units=GPa)
#
#
# Indices 1 2 3 4 5 6 
#
# 1 46.6208 30.6118 27.2799 0.0000 -15.2832 0.0000
# 2 30.6118 99.8470 41.2672 0.0000 -18.8016 0.0000
# 3 27.2799 41.2672 129.5694 0.0000 -19.0659 0.0000
# 4 0.0000 0.0000 0.0000 35.1627 0.0000 -7.1406
# 5 -15.2832 -18.8016 -19.0659 0.0000 31.1541 0.0000
# 6 0.0000 0.0000 0.0000 -7.1406 0.0000 23.6706
#
#
#
# Elastic Compliance Matrix: (Units=1/GPa)
#
#
# Indices 1 2 3 4 5 6 
#
# 1 0.030408 -0.006331 -0.003025 0.000000 0.009245 0.000000
# 2 -0.006331 0.013666 -0.002487 0.000000 0.003619 0.000000
# 3 -0.003025 -0.002487 0.009569 0.000000 0.002871 0.000000
# 4 0.000000 0.000000 0.000000 0.030295 0.000000 0.009139
# 5 0.009245 0.003619 0.002871 0.000000 0.040575 0.000000
# 6 0.000000 0.000000 0.000000 0.009139 0.000000 0.045003
#
#
# Mechanical properties :
#
#
# Convention : Reuss Voigt Hill
#
# Bulk Modulus (GPa) = 33.38249 52.70610 43.04430
# Shear Modulus (GPa) = 24.60759 29.78938 27.19848
#
# Velocity S-wave (km/s) = 3.62295 3.98619 3.80890
# Velocity P-wave (km/s) = 5.94199 7.02139 6.50412
#
# Compressibility (1/GPa) = 0.02995582
#
# Stress axis : x y z
#
# Youngs Moduli (GPa) = 32.88631 73.17503 104.49986
#
# Poissons Ratio (x) = 0.46331 0.31614
# Poissons Ratio (y) = 0.20822 0.25988
# Poissons Ratio (z) = 0.09949 0.18198
#
# Static dielectric constant tensor:
#      x y z
#    x 1.648800 0.000000 0.006360 
#    y 0.000000 1.639390 0.000000 
#    z 0.006360 0.000000 1.750080 
# 
# From -- ./inp_files/148604.got.cif
#   From: 2010.05.17/outbox.cif.g08.bks.cpg/sg15_75_cif.got.tgz:148604.got - 2010.06.03 18:47:42.
