data_PCOD9265955
_publ_section_title
;
Structure prediction by ZEFSAII (Michael W. Deem and Ramdas Pophale) SiO2 
 PCOD9265955
Probable space group: C 2/C
;
_chemical_formula_sum "Si O2"
_cell_formula_units_Z 44
_cell_length_a 6.824251
_cell_length_b 24.487561
_cell_length_c 18.796589
_cell_angle_alpha 90.000000
_cell_angle_beta 48.045555
_cell_angle_gamma 90.000000
_cell_volume 2335.950784
_symmetry_space_group_name_H-M "C 2/C"
_symmetry_group_IT_number 15
_symmetry_cell_setting 'monoclinic'
loop_
_space_group_symop_operation_xyz
x,y,z
-x,y,1/2-z
-x,-y,-z
x,-y,1/2+z
1/2+x,1/2+y,z
1/2-x,1/2+y,1/2-z
1/2-x,1/2-y,-z
1/2+x,1/2-y,1/2+z
loop_
_atom_site_type_symbol
_atom_site_label
_atom_site_fract_x
_atom_site_fract_y
_atom_site_fract_z
Si Si1 0.749453 0.973725 0.475300
Si Si2 0.004453 0.171888 0.451454
Si Si3 0.911578 0.290769 0.119287
Si Si4 0.234651 0.052657 0.362130
Si Si5 0.428958 0.356587 0.404507
Si Si6 0.000000 0.662787 0.750000
O O1 0.712033 0.966252 0.569364
O O2 0.777738 0.912886 0.439538
O O3 0.500000 0.000000 0.500000
O O4 0.005304 0.010433 0.395279
O O5 0.687558 0.181970 0.524448
O O6 0.110760 0.226448 0.389083
O O7 0.108457 0.114093 0.395949
O O8 0.092601 0.172062 0.513138
O O9 0.678290 0.319661 0.132873
O O10 0.931770 0.301494 0.197976
O O11 0.500000 0.051609 0.250000
O O12 0.737732 0.371222 0.326034
#
# Coordination Sequence:
#
# PCOD9265955 Si02
#       6
#     8   8   8   8   8   4
#     4  10  22  41  61  83 117 156 198 245 299 356
#     4   9  20  37  60  83 116 154 192 243 299 354
#     4  10  19  37  58  85 119 155 195 237 297 357
#     4  10  22  40  60  88 119 153 198 252 302 353
#     4  10  20  36  59  82 114 151 194 239 292 352
#     4  10  22  34  52  90 116 150 188 240 288 342
#
# _framework density 18.836015
#
# number of rings (size 3 to 8) (size 9 to 14) (size 15 to 20)
#    0.000    2.182    0.000    2.182    1.273    3.636 
#    3.273    5.455    0.000    0.000    0.000    0.000 
#    0.000    0.000    0.000    0.000    0.000    0.000 
#
# Total GULP energy -122632.057615 kJ/mol
# GULP energy per Si atom -5574.184437 kJ/mol
# Density = 1.879314 g / cm^3
# Si number density = 18.836015 Si / 1000 Ang^3
#
#
#
# Elastic Constant Matrix: (Units=GPa)
#
#
# Indices 1 2 3 4 5 6 
#
# 1 69.2590 32.6523 2.7530 0.0000 -12.8259 0.0000
# 2 32.6523 71.3343 18.7141 0.0000 -3.1319 0.0000
# 3 2.7530 18.7141 69.5909 0.0000 -7.8900 0.0000
# 4 0.0000 0.0000 0.0000 -2.0457 0.0000 -11.5557
# 5 -12.8259 -3.1319 -7.8900 0.0000 18.6990 0.0000
# 6 0.0000 0.0000 0.0000 -11.5557 0.0000 27.7311
#
#
#
# Elastic Compliance Matrix: (Units=1/GPa)
#
#
# Indices 1 2 3 4 5 6 
#
# 1 0.021902 -0.010316 0.003587 0.000000 0.014808 0.000000
# 2 -0.010316 0.019955 -0.005652 0.000000 -0.006118 0.000000
# 3 0.003587 -0.005652 0.016719 0.000000 0.008568 0.000000
# 4 0.000000 0.000000 0.000000 -0.145751 0.000000 -0.060735
# 5 0.014808 -0.006118 0.008568 0.000000 0.066227 0.000000
# 6 0.000000 0.000000 0.000000 -0.060735 0.000000 0.010752
#
#
# Mechanical properties :
#
#
# Convention : Reuss Voigt Hill
#
# Bulk Modulus (GPa) = 29.57416 35.38032 32.47724
# Shear Modulus (GPa) = 193.52453 19.28120 106.40287
#
# Velocity S-wave (km/s) = 10.14716 3.20290 7.52407
# Velocity P-wave (km/s) = 12.37018 5.70107 9.63129
#
# Compressibility (1/GPa) = 0.03381330
#
# Stress axis : x y z
#
# Youngs Moduli (GPa) = 45.65827 50.11377 59.81197
#
# Poissons Ratio (x) = 0.51698 -0.21452
# Poissons Ratio (y) = 0.47101 0.33804
# Poissons Ratio (z) = -0.16376 0.28323
#
# Static dielectric constant tensor:
#      x y z
#    x 1.626590 0.000000 0.033990 
#    y 0.000000 1.615210 0.000000 
#    z 0.033990 0.000000 1.422730 
# 
# From -- ./inp_files/129338.got.cif
#   From: 2010.05.17/outbox.cif.g08.bks.cpg/sg15_65_cif.got.tgz:129338.got - 2010.06.03 18:47:42.
