data_PCOD9265429
_publ_section_title
;
Structure prediction by ZEFSAII (Michael W. Deem and Ramdas Pophale) SiO2 
 PCOD9265429
Probable space group: C 2/C
;
_chemical_formula_sum "Si O2"
_cell_formula_units_Z 44
_cell_length_a 15.533849
_cell_length_b 30.187442
_cell_length_c 5.208578
_cell_angle_alpha 90.000000
_cell_angle_beta 118.026236
_cell_angle_gamma 90.000000
_cell_volume 2156.024516
_symmetry_space_group_name_H-M "C 2/C"
_symmetry_group_IT_number 15
_symmetry_cell_setting 'monoclinic'
loop_
_space_group_symop_operation_xyz
x,y,z
-x,y,1/2-z
-x,-y,-z
x,-y,1/2+z
1/2+x,1/2+y,z
1/2-x,1/2+y,1/2-z
1/2-x,1/2-y,-z
1/2+x,1/2-y,1/2+z
loop_
_atom_site_type_symbol
_atom_site_label
_atom_site_fract_x
_atom_site_fract_y
_atom_site_fract_z
Si Si1 0.000000 0.028877 0.250000
Si Si2 0.778044 0.202428 0.426286
Si Si3 0.109375 0.520606 0.177584
Si Si4 0.205054 0.391912 0.910160
Si Si5 0.828331 0.905388 0.589581
Si Si6 0.106459 0.810796 0.910642
O O1 0.900950 0.056714 0.112972
O O2 0.000000 0.000000 0.500000
O O3 0.750000 0.250000 0.500000
O O4 0.700740 0.161148 0.339201
O O5 0.817998 0.208624 0.193397
O O6 0.860022 0.188117 0.747598
O O7 0.157471 0.494061 0.478863
O O8 0.116435 0.573136 0.242086
O O9 0.000000 0.500000 0.000000
O O10 0.245232 0.397683 0.255583
O O11 0.282364 0.409222 0.807034
O O12 0.893813 0.861185 0.684462
O O13 0.000000 0.789746 0.750000
#
# Coordination Sequence:
#
# PCOD9265429 Si02
#       6
#     4   8   8   8   8   8
#     4  12  24  34  48  76 120 148 178 238 282 318
#     4  10  21  36  59  89 119 149 195 246 298 363
#     4  10  21  37  59  82 108 147 197 246 293 344
#     4  10  21  36  60  82 109 154 191 239 292 354
#     4  10  21  36  52  81 111 149 190 227 276 352
#     4  10  19  36  61  80 113 155 192 229 287 360
#
# _framework density 20.40793
#
# number of rings (size 3 to 8) (size 9 to 14) (size 15 to 20)
#    0.000    1.818    0.909    3.273    0.000    4.364 
#    0.000    0.000   12.000    0.000    0.000    0.000 
#    0.000    0.000    0.000    0.000    0.000    0.000 
#
# Total GULP energy -122509.417523 kJ/mol
# GULP energy per Si atom -5568.609887 kJ/mol
# Density = 2.036148 g / cm^3
# Si number density = 20.407930 Si / 1000 Ang^3
#
#
#
# Elastic Constant Matrix: (Units=GPa)
#
#
# Indices 1 2 3 4 5 6 
#
# 1 40.9216 29.4665 12.9715 0.0000 -8.1962 0.0000
# 2 29.4665 130.0850 5.8991 0.0000 7.0366 0.0000
# 3 12.9715 5.8991 73.5611 0.0000 -29.5659 0.0000
# 4 0.0000 0.0000 0.0000 28.7332 0.0000 -1.6268
# 5 -8.1962 7.0366 -29.5659 0.0000 33.9267 0.0000
# 6 0.0000 0.0000 0.0000 -1.6268 0.0000 -40.9845
#
#
#
# Elastic Compliance Matrix: (Units=1/GPa)
#
#
# Indices 1 2 3 4 5 6 
#
# 1 0.032043 -0.007577 -0.002000 0.000000 0.007569 0.000000
# 2 -0.007577 0.009754 -0.001531 0.000000 -0.005188 0.000000
# 3 -0.002000 -0.001531 0.021552 0.000000 0.018616 0.000000
# 4 0.000000 0.000000 0.000000 0.034725 0.000000 -0.001378
# 5 0.007569 -0.005188 0.018616 0.000000 0.048603 0.000000
# 6 0.000000 0.000000 0.000000 -0.001378 0.000000 -0.024345
#
#
# Mechanical properties :
#
#
# Convention : Reuss Voigt Hill
#
# Bulk Modulus (GPa) = 24.31236 37.91575 31.11405
# Shear Modulus (GPa) = 31.59363 17.41712 24.50538
#
# Velocity S-wave (km/s) = 3.93887 2.92455 3.46898
# Velocity P-wave (km/s) = 5.71185 5.47935 5.59681
#
# Compressibility (1/GPa) = 0.04113135
#
# Stress axis : x y z
#
# Youngs Moduli (GPa) = 31.20783 102.52531 46.39982
#
# Poissons Ratio (x) = 0.77684 0.09282
# Poissons Ratio (y) = 0.23646 0.07105
# Poissons Ratio (z) = 0.06243 0.15698
#
# Static dielectric constant tensor:
#      x y z
#    x 1.590260 0.000000 0.023070 
#    y 0.000000 1.870560 0.000000 
#    z 0.023070 0.000000 1.739450 
# 
# From -- ./inp_files/10953.got.cif
#   From: 2010.05.17/outbox.cif.g08.bks.cpg/sg15_6_cif.got.tgz:10953.got - 2010.06.03 18:47:42.
