data_PCOD9265304
_publ_section_title
;
Structure prediction by ZEFSAII (Michael W. Deem and Ramdas Pophale) SiO2 
 PCOD9265304
Probable space group: C 2/C
;
_chemical_formula_sum "Si O2"
_cell_formula_units_Z 56
_cell_length_a 13.525338
_cell_length_b 18.364199
_cell_length_c 12.041157
_cell_angle_alpha 90.000000
_cell_angle_beta 65.654413
_cell_angle_gamma 90.000000
_cell_volume 2724.850864
_symmetry_space_group_name_H-M "C 2/C"
_symmetry_group_IT_number 15
_symmetry_cell_setting 'monoclinic'
loop_
_space_group_symop_operation_xyz
x,y,z
-x,y,1/2-z
-x,-y,-z
x,-y,1/2+z
1/2+x,1/2+y,z
1/2-x,1/2+y,1/2-z
1/2-x,1/2-y,-z
1/2+x,1/2-y,1/2+z
loop_
_atom_site_type_symbol
_atom_site_label
_atom_site_fract_x
_atom_site_fract_y
_atom_site_fract_z
Si Si1 0.501091 0.214553 0.380303
Si Si2 0.130112 0.102796 0.068389
Si Si3 0.000000 0.772260 0.750000
Si Si4 0.952199 0.537000 0.661935
Si Si5 0.865963 0.401562 0.560520
Si Si6 0.000000 0.019552 0.750000
Si Si7 0.877920 0.857401 0.180227
Si Si8 0.848410 0.680139 0.653996
O O1 0.500000 0.194927 0.250000
O O2 0.600786 0.171703 0.392189
O O3 0.521844 0.300898 0.377364
O O4 0.399805 0.191385 0.506957
O O5 0.242626 0.094576 0.082163
O O6 0.071125 0.175155 0.139667
O O7 0.150011 0.114086 0.929460
O O8 0.054885 0.033827 0.134060
O O9 0.081358 0.727361 0.791546
O O10 0.908808 0.469961 0.611172
O O11 0.859990 0.597096 0.691694
O O12 0.000000 0.502450 0.750000
O O13 0.055644 0.587692 0.580847
O O14 0.088217 0.073421 0.762599
O O15 0.780555 0.810094 0.279123
#
# Coordination Sequence:
#
# PCOD9265304 Si02
#       8
#     8   8   4   8   8   4   8   8
#     4  11  24  44  64 100 143 177 230 281 336 414
#     4  11  24  42  68  98 133 176 229 284 343 401
#     4  11  22  40  64 101 136 164 228 293 332 400
#     4  10  19  36  59  91 133 169 223 276 324 393
#     4  10  22  37  61  95 127 173 220 273 335 391
#     4  11  26  48  64  99 138 178 232 279 336 422
#     4  12  24  44  72  95 138 186 222 282 348 402
#     4  11  23  39  69 101 133 183 228 283 337 405
#
# _framework density 20.551583999999998
#
# number of rings (size 3 to 8) (size 9 to 14) (size 15 to 20)
#    0.000    1.143    2.857    3.429    2.000    1.714 
#    0.000    2.857    0.000    0.000    0.000    0.000 
#    0.000    0.000    0.000    0.000    0.000    0.000 
#
# Total GULP energy -156177.594455 kJ/mol
# GULP energy per Si atom -5577.771231 kJ/mol
# Density = 2.050481 g / cm^3
# Si number density = 20.551584 Si / 1000 Ang^3
#
#
#
# Elastic Constant Matrix: (Units=GPa)
#
#
# Indices 1 2 3 4 5 6 
#
# 1 69.6976 5.5929 46.6993 0.0000 -6.7955 0.0000
# 2 5.5929 86.2876 22.4248 0.0000 -3.5280 0.0000
# 3 46.6993 22.4248 120.8654 0.0000 3.0980 0.0000
# 4 0.0000 0.0000 0.0000 13.9183 0.0000 -8.5125
# 5 -6.7955 -3.5280 3.0980 0.0000 28.8608 0.0000
# 6 0.0000 0.0000 0.0000 -8.5125 0.0000 26.8796
#
#
#
# Elastic Compliance Matrix: (Units=1/GPa)
#
#
# Indices 1 2 3 4 5 6 
#
# 1 0.020318 0.001049 -0.008194 0.000000 0.005792 0.000000
# 2 0.001049 0.012318 -0.002743 0.000000 0.002047 0.000000
# 3 -0.008194 -0.002743 0.012040 0.000000 -0.003557 0.000000
# 4 0.000000 0.000000 0.000000 0.089107 0.000000 0.028219
# 5 0.005792 0.002047 -0.003557 0.000000 0.036645 0.000000
# 6 0.000000 0.000000 0.000000 0.028219 0.000000 0.046140
#
#
# Mechanical properties :
#
#
# Convention : Reuss Voigt Hill
#
# Bulk Modulus (GPa) = 40.16007 47.36494 43.76250
# Shear Modulus (GPa) = 20.43802 27.40732 23.92267
#
# Velocity S-wave (km/s) = 3.15695 3.65579 3.41549
# Velocity P-wave (km/s) = 5.73341 6.39661 6.07407
#
# Compressibility (1/GPa) = 0.02490036
#
# Stress axis : x y z
#
# Youngs Moduli (GPa) = 49.21727 81.18344 83.05948
#
# Poissons Ratio (x) = -0.08518 0.68055
# Poissons Ratio (y) = -0.05164 0.22785
# Poissons Ratio (z) = 0.40326 0.22271
#
# Static dielectric constant tensor:
#      x y z
#    x 1.793150 0.000000 0.047840 
#    y 0.000000 1.721920 0.000000 
#    z 0.047840 0.000000 1.998770 
# 
# From -- ./inp_files/98696.got.cif
#   From: 2010.05.17/outbox.cif.g08.bks.cpg/sg15_50_cif.got.tgz:98696.got - 2010.06.03 18:47:42.
