data_PCOD9265948
_publ_section_title
;
Structure prediction by ZEFSAII (Michael W. Deem and Ramdas Pophale) SiO2 
 PCOD9265948
Probable space group: C 2/C
;
_chemical_formula_sum "Si O2"
_cell_formula_units_Z 56
_cell_length_a 9.286135
_cell_length_b 15.527088
_cell_length_c 25.483717
_cell_angle_alpha 90.000000
_cell_angle_beta 124.045051
_cell_angle_gamma 90.000000
_cell_volume 3044.608584
_symmetry_space_group_name_H-M "C 2/C"
_symmetry_group_IT_number 15
_symmetry_cell_setting 'monoclinic'
loop_
_space_group_symop_operation_xyz
x,y,z
-x,y,1/2-z
-x,-y,-z
x,-y,1/2+z
1/2+x,1/2+y,z
1/2-x,1/2+y,1/2-z
1/2-x,1/2-y,-z
1/2+x,1/2-y,1/2+z
loop_
_atom_site_type_symbol
_atom_site_label
_atom_site_fract_x
_atom_site_fract_y
_atom_site_fract_z
Si Si1 0.466986 0.406462 0.471386
Si Si2 0.906697 0.782232 0.909938
Si Si3 0.907446 0.663350 0.628511
Si Si4 0.335749 0.935769 0.256235
Si Si5 0.703388 0.129264 0.274306
Si Si6 0.281505 0.734315 0.814677
Si Si7 0.355657 0.705321 0.568311
O O1 0.500000 0.500000 0.500000
O O2 0.518079 0.339214 0.527522
O O3 0.266873 0.391091 0.415463
O O4 0.584241 0.385211 0.444197
O O5 0.815230 0.842549 0.847655
O O6 0.764088 0.716968 0.905473
O O7 0.051628 0.725850 0.910865
O O8 0.867725 0.722166 0.671929
O O9 0.070983 0.600974 0.672758
O O10 0.500000 0.938612 0.250000
O O11 0.209349 0.860095 0.210822
O O12 0.262495 0.031834 0.238733
O O13 0.500000 0.135695 0.250000
O O14 0.741523 0.195364 0.234914
O O15 0.461982 0.751630 0.881446
O O16 0.250000 0.750000 0.500000
#
# Coordination Sequence:
#
# PCOD9265948 Si02
#       7
#     8   8   8   8   8   8   8
#     4  10  23  38  61  85 111 151 202 241 284 349
#     4  11  21  37  59  84 112 154 192 234 297 344
#     4  10  21  39  60  81 120 153 188 239 296 342
#     4   9  20  33  55  84 116 147 191 232 284 344
#     4  11  21  33  61  88 113 150 195 235 284 352
#     4  10  19  37  58  84 118 149 190 238 289 341
#     4   9  20  36  56  82 111 149 192 234 280 341
#
# _framework density 18.393169
#
# number of rings (size 3 to 8) (size 9 to 14) (size 15 to 20)
#    0.000    2.000    2.857    0.429    8.000    0.000 
#    0.000    2.143    6.286    0.000    0.000    0.000 
#    0.000    0.000    0.000    0.000    0.000    0.000 
#
# Total GULP energy -156034.359078 kJ/mol
# GULP energy per Si atom -5572.655681 kJ/mol
# Density = 1.835131 g / cm^3
# Si number density = 18.393169 Si / 1000 Ang^3
#
#
#
# Elastic Constant Matrix: (Units=GPa)
#
#
# Indices 1 2 3 4 5 6 
#
# 1 62.3973 39.3895 14.2319 0.0000 -9.1704 0.0000
# 2 39.3895 114.7396 32.2592 0.0000 -13.6869 0.0000
# 3 14.2319 32.2592 98.2738 0.0000 5.2118 0.0000
# 4 0.0000 0.0000 0.0000 31.7486 0.0000 -1.6211
# 5 -9.1704 -13.6869 5.2118 0.0000 32.9500 0.0000
# 6 0.0000 0.0000 0.0000 -1.6211 0.0000 17.4597
#
#
#
# Elastic Compliance Matrix: (Units=1/GPa)
#
#
# Indices 1 2 3 4 5 6 
#
# 1 0.020830 -0.006458 -0.001071 0.000000 0.003284 0.000000
# 2 -0.006458 0.012323 -0.003314 0.000000 0.003845 0.000000
# 3 -0.001071 -0.003314 0.011605 0.000000 -0.003510 0.000000
# 4 0.000000 0.000000 0.000000 0.031647 0.000000 0.002938
# 5 0.003284 0.003845 -0.003510 0.000000 0.033416 0.000000
# 6 0.000000 0.000000 0.000000 0.002938 0.000000 0.057548
#
#
# Mechanical properties :
#
#
# Convention : Reuss Voigt Hill
#
# Bulk Modulus (GPa) = 43.34222 49.68576 46.51399
# Shear Modulus (GPa) = 25.41373 29.06699 27.24036
#
# Velocity S-wave (km/s) = 3.72115 3.97963 3.85256
# Velocity P-wave (km/s) = 6.48676 6.94179 6.71813
#
# Compressibility (1/GPa) = 0.02307219
#
# Stress axis : x y z
#
# Youngs Moduli (GPa) = 48.00776 81.15065 86.17243
#
# Poissons Ratio (x) = 0.52407 0.09228
# Poissons Ratio (y) = 0.31003 0.28555
# Poissons Ratio (z) = 0.05141 0.26891
#
# Static dielectric constant tensor:
#      x y z
#    x 1.639600 0.000000 0.000900 
#    y 0.000000 1.634850 0.000000 
#    z 0.000900 0.000000 1.674730 
# 
# From -- ./inp_files/264615.got.cif
#   From: 2010.05.17/outbox.cif.g08.bks.cpg/sg15_133_cif.got.tgz:264615.got - 2010.06.03 18:47:42.
