data_PCOD9265455
_publ_section_title
;
Structure prediction by ZEFSAII (Michael W. Deem and Ramdas Pophale) SiO2 
 PCOD9265455
Probable space group: C 2/C
;
_chemical_formula_sum "Si O2"
_cell_formula_units_Z 48
_cell_length_a 19.334908
_cell_length_b 15.047120
_cell_length_c 16.643924
_cell_angle_alpha 90.000000
_cell_angle_beta 30.896686
_cell_angle_gamma 90.000000
_cell_volume 2486.477762
_symmetry_space_group_name_H-M "C 2/C"
_symmetry_group_IT_number 15
_symmetry_cell_setting 'monoclinic'
loop_
_space_group_symop_operation_xyz
x,y,z
-x,y,1/2-z
-x,-y,-z
x,-y,1/2+z
1/2+x,1/2+y,z
1/2-x,1/2+y,1/2-z
1/2-x,1/2-y,-z
1/2+x,1/2-y,1/2+z
loop_
_atom_site_type_symbol
_atom_site_label
_atom_site_fract_x
_atom_site_fract_y
_atom_site_fract_z
Si Si1 0.613164 0.678271 0.068211
Si Si2 0.641149 0.881906 0.068116
Si Si3 0.266809 0.047767 0.630926
Si Si4 0.874508 0.714851 0.432308
Si Si5 0.029801 0.103173 0.626496
Si Si6 0.627571 0.536327 0.924320
O O1 0.500000 0.662131 0.250000
O O2 0.621688 0.784371 0.047491
O O3 0.749437 0.639372 0.971663
O O4 0.590579 0.627144 0.007137
O O5 0.500000 0.908381 0.250000
O O6 0.693978 0.957150 0.954231
O O7 0.348136 0.129281 0.512404
O O8 0.256768 0.039459 0.737488
O O9 0.114728 0.078471 0.763600
O O10 0.750000 0.750000 0.500000
O O11 0.919246 0.798416 0.441565
O O12 0.000000 0.695082 0.250000
O O13 0.000000 0.096600 0.750000
O O14 0.138996 0.034535 0.484969
O O15 0.500000 0.500000 0.000000
#
# Coordination Sequence:
#
# PCOD9265455 Si02
#       6
#     8   8   8   8   8   8
#     4  10  20  39  66  91 119 165 218 256 304 375
#     4  10  22  39  64  90 121 163 211 264 309 364
#     4  11  21  37  57  88 122 157 201 250 313 368
#     4  11  21  37  62  89 115 156 207 253 305 364
#     4  10  19  36  61  87 113 159 209 247 299 370
#     4  10  21  35  61  93 124 161 202 256 311 367
#
# _framework density 19.304417000000001
#
# number of rings (size 3 to 8) (size 9 to 14) (size 15 to 20)
#    0.000    1.667    3.333    4.000    0.000    1.333 
#    0.000    4.167    0.000    0.000    0.000    0.000 
#    0.000    0.000    0.000    0.000    0.000    0.000 
#
# Total GULP energy -133692.959544 kJ/mol
# GULP energy per Si atom -5570.539981 kJ/mol
# Density = 1.926048 g / cm^3
# Si number density = 19.304417 Si / 1000 Ang^3
#
#
#
# Elastic Constant Matrix: (Units=GPa)
#
#
# Indices 1 2 3 4 5 6 
#
# 1 33.5771 35.8643 26.2744 0.0000 6.5800 0.0000
# 2 35.8643 164.7002 75.7333 0.0000 27.6901 0.0000
# 3 26.2744 75.7333 123.3188 0.0001 3.9315 0.0000
# 4 0.0000 0.0000 0.0001 17.8982 0.0000 -4.9959
# 5 6.5800 27.6901 3.9315 0.0000 27.9213 0.0000
# 6 0.0000 0.0000 0.0000 -4.9959 0.0000 10.8149
#
#
#
# Elastic Compliance Matrix: (Units=1/GPa)
#
#
# Indices 1 2 3 4 5 6 
#
# 1 0.040680 -0.006198 -0.004772 0.000000 -0.002768 0.000000
# 2 -0.006198 0.011448 -0.005419 0.000000 -0.009129 0.000000
# 3 -0.004772 -0.005419 0.012302 0.000000 0.004766 0.000000
# 4 0.000000 0.000000 0.000000 0.064142 0.000000 0.029630
# 5 -0.002768 -0.009129 0.004766 0.000000 0.044850 0.000000
# 6 0.000000 0.000000 0.000000 0.029630 0.000000 0.106153
#
#
# Mechanical properties :
#
#
# Convention : Reuss Voigt Hill
#
# Bulk Modulus (GPa) = 31.59548 66.37112 48.98330
# Shear Modulus (GPa) = 15.48452 23.57515 19.52984
#
# Velocity S-wave (km/s) = 2.83525 3.49840 3.18414
# Velocity P-wave (km/s) = 5.20775 7.12561 6.24080
#
# Compressibility (1/GPa) = 0.03165010
#
# Stress axis : x y z
#
# Youngs Moduli (GPa) = 24.58234 87.35182 81.28940
#
# Poissons Ratio (x) = 0.54145 0.38794
# Poissons Ratio (y) = 0.15237 0.44049
# Poissons Ratio (z) = 0.11732 0.47334
#
# Static dielectric constant tensor:
#      x y z
#    x 1.759780 0.000000 0.058890 
#    y 0.000000 1.743000 0.000000 
#    z 0.058890 0.000000 1.743610 
# 
# From -- ./inp_files/112495.got.cif
#   From: 2010.05.17/outbox.cif.g08.bks.cpg/sg15_57_cif.got.tgz:112495.got - 2010.06.03 18:47:42.
