data_PCOD9265180
_publ_section_title
;
Structure prediction by ZEFSAII (Michael W. Deem and Ramdas Pophale) SiO2 
 PCOD9265180
Probable space group: C 2/C
;
_chemical_formula_sum "Si O2"
_cell_formula_units_Z 52
_cell_length_a 30.019328
_cell_length_b 15.213118
_cell_length_c 8.568484
_cell_angle_alpha 90.000000
_cell_angle_beta 37.860718
_cell_angle_gamma 90.000000
_cell_volume 2401.654286
_symmetry_space_group_name_H-M "C 2/C"
_symmetry_group_IT_number 15
_symmetry_cell_setting 'monoclinic'
loop_
_space_group_symop_operation_xyz
x,y,z
-x,y,1/2-z
-x,-y,-z
x,-y,1/2+z
1/2+x,1/2+y,z
1/2-x,1/2+y,1/2-z
1/2-x,1/2-y,-z
1/2+x,1/2-y,1/2+z
loop_
_atom_site_type_symbol
_atom_site_label
_atom_site_fract_x
_atom_site_fract_y
_atom_site_fract_z
Si Si1 0.500000 0.779100 0.750000
Si Si2 0.898548 0.381865 0.223353
Si Si3 0.207164 0.221796 0.969602
Si Si4 0.827127 0.502997 0.154507
Si Si5 0.070893 0.064232 0.151077
Si Si6 0.737915 0.604316 0.646389
Si Si7 0.592747 0.616250 0.433668
O O1 0.524150 0.842931 0.543543
O O2 0.565278 0.708218 0.581752
O O3 0.852070 0.296031 0.399978
O O4 0.859655 0.429768 0.182329
O O5 0.892657 0.450474 0.379909
O O6 0.170894 0.133837 0.143956
O O7 0.250000 0.250000 0.000000
O O8 0.251526 0.197538 0.693055
O O9 0.780269 0.576274 0.375656
O O10 0.772927 0.463140 0.175373
O O11 0.054727 0.087822 0.375758
O O12 0.000000 0.092354 0.250000
O O13 0.149813 0.101594 0.878559
O O14 0.083905 0.961108 0.080068
#
# Coordination Sequence:
#
# PCOD9265180 Si02
#       7
#     4   8   8   8   8   8   8
#     4  10  22  42  62  84 114 160 196 254 306 354
#     4  10  22  39  64  83 117 151 206 250 306 357
#     4  10  19  36  58  88 120 161 194 244 302 354
#     4  10  21  38  62  89 114 159 203 252 292 363
#     4  11  21  35  58  92 121 164 200 236 284 365
#     4  10  20  36  59  91 127 155 203 242 299 351
#     4  10  22  36  61  85 123 158 203 237 299 356
#
# _framework density 21.651741000000001
#
# number of rings (size 3 to 8) (size 9 to 14) (size 15 to 20)
#    0.000    1.846    2.308    2.308    2.154    1.231 
#    0.000    0.000   20.308    0.000    0.000    0.000 
#    0.000    0.000    0.000    0.000    0.000    0.000 
#
# Total GULP energy -144744.664996 kJ/mol
# GULP energy per Si atom -5567.102500 kJ/mol
# Density = 2.160246 g / cm^3
# Si number density = 21.651741 Si / 1000 Ang^3
#
#
#
# Elastic Constant Matrix: (Units=GPa)
#
#
# Indices 1 2 3 4 5 6 
#
# 1 49.6101 17.2217 10.1668 0.0000 5.1470 0.0000
# 2 17.2217 62.4428 37.1943 0.0000 14.1946 0.0000
# 3 10.1668 37.1943 85.6201 0.0000 18.3157 0.0000
# 4 0.0000 0.0000 0.0000 38.4542 0.0000 -1.2621
# 5 5.1470 14.1946 18.3157 0.0000 16.6324 0.0000
# 6 0.0000 0.0000 0.0000 -1.2621 0.0000 20.8321
#
#
#
# Elastic Compliance Matrix: (Units=1/GPa)
#
#
# Indices 1 2 3 4 5 6 
#
# 1 0.022357 -0.005869 0.000397 0.000000 -0.002347 0.000000
# 2 -0.005869 0.024676 -0.007726 0.000000 -0.010735 0.000000
# 3 0.000397 -0.007726 0.017797 0.000000 -0.013127 0.000000
# 4 0.000000 0.000000 0.000000 0.026057 0.000000 0.001579
# 5 -0.002347 -0.010735 -0.013127 0.000000 0.084467 0.000000
# 6 0.000000 0.000000 0.000000 0.001579 0.000000 0.048098
#
#
# Mechanical properties :
#
#
# Convention : Reuss Voigt Hill
#
# Bulk Modulus (GPa) = 26.01950 36.31540 31.16745
# Shear Modulus (GPa) = 19.03614 24.05643 21.54629
#
# Velocity S-wave (km/s) = 2.96834 3.33688 3.15799
# Velocity P-wave (km/s) = 4.87765 5.62630 5.26530
#
# Compressibility (1/GPa) = 0.03843272
#
# Stress axis : x y z
#
# Youngs Moduli (GPa) = 44.72945 40.52579 56.18976
#
# Poissons Ratio (x) = 0.23784 -0.02230
# Poissons Ratio (y) = 0.26251 0.43413
# Poissons Ratio (z) = -0.01775 0.31311
#
# Static dielectric constant tensor:
#      x y z
#    x 1.904700 0.000000 0.020710 
#    y 0.000000 1.911100 0.000000 
#    z 0.020710 0.000000 1.868080 
# 
# From -- ./inp_files/70077.got.cif
#   From: 2010.05.17/outbox.cif.g08.bks.cpg/sg15_36_cif.got.tgz:70077.got - 2010.06.03 18:47:42.
