data_PCOD9265701
_publ_section_title
;
Structure prediction by ZEFSAII (Michael W. Deem and Ramdas Pophale) SiO2 
 PCOD9265701
Probable space group: C 2/C
;
_chemical_formula_sum "Si O2"
_cell_formula_units_Z 36
_cell_length_a 13.682743
_cell_length_b 19.792688
_cell_length_c 5.648882
_cell_angle_alpha 90.000000
_cell_angle_beta 75.041133
_cell_angle_gamma 90.000000
_cell_volume 1477.976917
_symmetry_space_group_name_H-M "C 2/C"
_symmetry_group_IT_number 15
_symmetry_cell_setting 'monoclinic'
loop_
_space_group_symop_operation_xyz
x,y,z
-x,y,1/2-z
-x,-y,-z
x,-y,1/2+z
1/2+x,1/2+y,z
1/2-x,1/2+y,1/2-z
1/2-x,1/2-y,-z
1/2+x,1/2-y,1/2+z
loop_
_atom_site_type_symbol
_atom_site_label
_atom_site_fract_x
_atom_site_fract_y
_atom_site_fract_z
Si Si1 0.736033 0.309757 0.823937
Si Si2 0.603237 0.622157 0.768963
Si Si3 0.500000 0.958368 0.250000
Si Si4 0.773717 0.540281 0.887213
Si Si5 0.907920 0.739375 0.963458
O O1 0.848110 0.317097 0.648861
O O2 0.666792 0.275277 0.672873
O O3 0.750000 0.250000 0.000000
O O4 0.677546 0.367676 0.998185
O O5 0.500000 0.586202 0.750000
O O6 0.676099 0.588444 0.917884
O O7 0.567688 0.695556 0.889082
O O8 0.500000 0.000000 0.500000
O O9 0.613432 0.927117 0.194097
O O10 0.767521 0.495356 0.648717
O O11 0.000000 0.713911 0.750000
#
# Coordination Sequence:
#
# PCOD9265701 Si02
#       5
#     8   8   4   8   8
#     4   9  20  36  58  86 117 164 213 261 314 393
#     4  11  22  36  61  92 132 172 212 260 332 395
#     4   8  16  38  64  82 110 164 212 262 326 366
#     4  10  23  40  66  93 129 172 220 273 320 385
#     4  10  19  36  64  85 119 169 214 260 322 386
#
# _framework density 24.357619
#
# number of rings (size 3 to 8) (size 9 to 14) (size 15 to 20)
#    0.000    2.222    2.222    0.000    3.111    0.889 
#    0.000    0.000   26.889    0.000    0.000    0.000 
#    0.000    0.000    0.000    0.000    0.000    0.000 
#
# Total GULP energy -100345.837713 kJ/mol
# GULP energy per Si atom -5574.768762 kJ/mol
# Density = 2.430218 g / cm^3
# Si number density = 24.357619 Si / 1000 Ang^3
#
#
#
# Elastic Constant Matrix: (Units=GPa)
#
#
# Indices 1 2 3 4 5 6 
#
# 1 185.6806 47.9956 50.9190 0.0000 1.1104 0.0000
# 2 47.9956 46.6558 43.8988 0.0000 -8.9886 0.0000
# 3 50.9190 43.8988 161.7405 0.0000 -9.0908 0.0000
# 4 0.0000 0.0000 0.0000 37.4482 0.0000 15.1899
# 5 1.1104 -8.9886 -9.0908 0.0000 69.8850 0.0000
# 6 0.0000 0.0000 0.0000 15.1899 0.0000 9.1294
#
#
#
# Elastic Compliance Matrix: (Units=1/GPa)
#
#
# Indices 1 2 3 4 5 6 
#
# 1 0.007438 -0.007530 -0.000362 0.000000 -0.001134 0.000000
# 2 -0.007530 0.036924 -0.007432 0.000000 0.003902 0.000000
# 3 -0.000362 -0.007432 0.008321 0.000000 0.000132 0.000000
# 4 0.000000 0.000000 0.000000 0.082139 0.000000 -0.136666
# 5 -0.001134 0.003902 0.000132 0.000000 0.014846 0.000000
# 6 0.000000 0.000000 0.000000 -0.136666 0.000000 0.336927
#
#
# Mechanical properties :
#
#
# Convention : Reuss Voigt Hill
#
# Bulk Modulus (GPa) = 45.37910 75.52263 60.45086
# Shear Modulus (GPa) = 9.53132 40.04342 24.78737
#
# Velocity S-wave (km/s) = 1.98030 4.05900 3.19351
# Velocity P-wave (km/s) = 4.88872 7.28288 6.20242
#
# Compressibility (1/GPa) = 0.02203658
#
# Stress axis : x y z
#
# Youngs Moduli (GPa) = 134.44805 27.08281 120.17535
#
# Poissons Ratio (x) = 0.20392 0.04346
# Poissons Ratio (y) = 1.01233 0.89313
# Poissons Ratio (z) = 0.04862 0.20128
#
# Static dielectric constant tensor:
#      x y z
#    x 1.973270 0.000000 -0.041650 
#    y 0.000000 2.002020 0.000000 
#    z -0.041650 0.000000 1.877440 
# 
# From -- ./inp_files/4250.got.cif
#   From: 2010.05.17/outbox.cif.g08.bks.cpg/sg15_3_cif.got.tgz:4250.got - 2010.06.03 18:47:42.
