data_PCOD9265971
_publ_section_title
;
Structure prediction by ZEFSAII (Michael W. Deem and Ramdas Pophale) SiO2 
 PCOD9265971
Probable space group: C 2/C
;
_chemical_formula_sum "Si O2"
_cell_formula_units_Z 48
_cell_length_a 12.545787
_cell_length_b 19.248071
_cell_length_c 21.897914
_cell_angle_alpha 90.000000
_cell_angle_beta 150.232139
_cell_angle_gamma 90.000000
_cell_volume 2625.402288
_symmetry_space_group_name_H-M "C 2/C"
_symmetry_group_IT_number 15
_symmetry_cell_setting 'monoclinic'
loop_
_space_group_symop_operation_xyz
x,y,z
-x,y,1/2-z
-x,-y,-z
x,-y,1/2+z
1/2+x,1/2+y,z
1/2-x,1/2+y,1/2-z
1/2-x,1/2-y,-z
1/2+x,1/2-y,1/2+z
loop_
_atom_site_type_symbol
_atom_site_label
_atom_site_fract_x
_atom_site_fract_y
_atom_site_fract_z
Si Si1 0.500000 0.555962 0.750000
Si Si2 0.303747 0.967408 0.200436
Si Si3 0.106842 0.607498 0.625487
Si Si4 0.984218 0.094204 0.449843
Si Si5 0.000000 0.813943 0.750000
Si Si6 0.139948 0.066788 0.399799
Si Si7 0.392265 0.749467 0.009040
O O1 0.292880 0.596565 0.669166
O O2 0.448342 0.504760 0.668455
O O3 0.500000 0.959928 0.250000
O O4 0.347606 0.930928 0.287359
O O5 0.097116 0.929163 0.068271
O O6 0.230783 0.048667 0.167812
O O7 0.876417 0.577107 0.490325
O O8 0.059730 0.689229 0.605203
O O9 0.139583 0.069968 0.471901
O O10 0.990765 0.177345 0.447630
O O11 0.995999 0.868644 0.804336
O O12 0.785420 0.769182 0.631481
O O13 0.250000 0.750000 0.000000
#
# Coordination Sequence:
#
# PCOD9265971 Si02
#       7
#     4   8   8   8   4   8   8
#     4  11  22  38  58  84 121 152 194 250 293 346
#     4  11  22  39  61  85 119 159 191 241 294 354
#     4  11  22  38  63  87 116 156 198 246 294 345
#     4  11  22  36  60  89 118 150 202 237 291 358
#     4   9  20  32  58  86 117 148 192 250 293 328
#     4  10  19  37  58  89 112 152 200 244 292 343
#     4  11  21  37  59  89 117 151 200 245 291 349
#
# _framework density 18.282913000000001
#
# number of rings (size 3 to 8) (size 9 to 14) (size 15 to 20)
#    0.000    1.333    6.667    0.500    3.500    0.000 
#    1.500    0.000    0.000    1.000    0.000    0.000 
#    0.000    0.000    0.000    0.000    0.000    0.000 
#
# Total GULP energy -133690.949045 kJ/mol
# GULP energy per Si atom -5570.456210 kJ/mol
# Density = 1.824130 g / cm^3
# Si number density = 18.282913 Si / 1000 Ang^3
#
#
#
# Elastic Constant Matrix: (Units=GPa)
#
#
# Indices 1 2 3 4 5 6 
#
# 1 50.3248 21.5501 18.7450 0.0000 11.6601 -0.0005
# 2 21.5501 139.1949 42.6155 0.0006 4.3005 -0.0011
# 3 18.7450 42.6155 77.6322 0.0016 -8.9067 0.0004
# 4 0.0000 0.0006 0.0016 26.0136 0.0002 1.8851
# 5 11.6601 4.3005 -8.9067 0.0002 27.9586 0.0001
# 6 -0.0005 -0.0011 0.0004 1.8851 0.0001 11.4008
#
#
#
# Elastic Compliance Matrix: (Units=1/GPa)
#
#
# Indices 1 2 3 4 5 6 
#
# 1 0.026084 -0.001516 -0.006941 0.000000 -0.012856 0.000001
# 2 -0.001516 0.008964 -0.004816 0.000000 -0.002281 0.000001
# 3 -0.006941 -0.004816 0.018287 -0.000001 0.009461 -0.000001
# 4 0.000000 0.000000 -0.000001 0.038908 -0.000001 -0.006433
# 5 -0.012856 -0.002281 0.009461 -0.000001 0.044494 -0.000001
# 6 0.000001 0.000001 -0.000001 -0.006433 -0.000001 0.088777
#
#
# Mechanical properties :
#
#
# Convention : Reuss Voigt Hill
#
# Bulk Modulus (GPa) = 37.33021 48.10812 42.71916
# Shear Modulus (GPa) = 19.15785 25.35734 22.25760
#
# Velocity S-wave (km/s) = 3.24057 3.72821 3.49291
# Velocity P-wave (km/s) = 5.87062 6.70097 6.29949
#
# Compressibility (1/GPa) = 0.02678796
#
# Stress axis : x y z
#
# Youngs Moduli (GPa) = 38.33711 111.55875 54.68500
#
# Poissons Ratio (x) = 0.16914 0.37957
# Poissons Ratio (y) = 0.05812 0.26338
# Poissons Ratio (z) = 0.26610 0.53729
#
# Static dielectric constant tensor:
#      x y z
#    x 1.644630 0.000000 -0.023850 
#    y 0.000000 1.662950 0.000000 
#    z -0.023850 0.000000 1.672860 
# 
# From -- ./inp_files/88790.got.cif
#   From: 2010.05.17/outbox.cif.g08.bks.cpg/sg15_45_cif.got.tgz:88790.got - 2010.06.03 18:47:42.
