data_PCOD9265208
_publ_section_title
;
Structure prediction by ZEFSAII (Michael W. Deem and Ramdas Pophale) SiO2 
 PCOD9265208
Probable space group: C 2/C
;
_chemical_formula_sum "Si O2"
_cell_formula_units_Z 60
_cell_length_a 20.915313
_cell_length_b 17.339474
_cell_length_c 9.310514
_cell_angle_alpha 90.000000
_cell_angle_beta 116.716592
_cell_angle_gamma 90.000000
_cell_volume 3016.078965
_symmetry_space_group_name_H-M "C 2/C"
_symmetry_group_IT_number 15
_symmetry_cell_setting 'monoclinic'
loop_
_space_group_symop_operation_xyz
x,y,z
-x,y,1/2-z
-x,-y,-z
x,-y,1/2+z
1/2+x,1/2+y,z
1/2-x,1/2+y,1/2-z
1/2-x,1/2-y,-z
1/2+x,1/2-y,1/2+z
loop_
_atom_site_type_symbol
_atom_site_label
_atom_site_fract_x
_atom_site_fract_y
_atom_site_fract_z
Si Si1 0.879785 0.975013 0.324335
Si Si2 0.695952 0.343042 0.412053
Si Si3 0.829415 0.716862 0.902755
Si Si4 0.925556 0.101071 0.142946
Si Si5 0.736471 0.940748 0.761724
Si Si6 0.500000 0.017929 0.750000
Si Si7 0.599872 0.944804 0.095780
Si Si8 0.295056 0.317922 0.611564
O O1 0.859992 0.904547 0.200839
O O2 0.930089 0.947604 0.502440
O O3 0.909768 0.043887 0.259233
O O4 0.804716 0.002807 0.318539
O O5 0.747376 0.311031 0.339919
O O6 0.658281 0.268871 0.444209
O O7 0.747608 0.387266 0.581625
O O8 0.871175 0.639043 0.916296
O O9 0.837785 0.778339 0.784993
O O10 0.853906 0.150895 0.061836
O O11 0.000000 0.142909 0.250000
O O12 0.745723 0.884776 0.632011
O O13 0.664296 0.992119 0.684917
O O14 0.446018 0.060971 0.803987
O O15 0.450143 0.971396 0.587280
O O16 0.250000 0.250000 0.500000
#
# Coordination Sequence:
#
# PCOD9265208 Si02
#       8
#     8   8   8   8   8   4   8   8
#     4  11  20  38  66  94 124 158 210 255 315 373
#     4  10  19  36  59 102 119 155 199 272 323 373
#     4  10  21  36  61  85 131 154 206 263 323 367
#     4  11  24  41  62  92 133 167 203 254 317 389
#     4  10  21  35  68  95 119 156 213 266 311 371
#     4  10  26  40  60  90 124 164 228 254 318 392
#     4  11  22  42  63  90 123 172 210 270 318 374
#     4  10  23  39  60  97 124 160 214 260 312 374
#
# _framework density 19.893377999999998
#
# number of rings (size 3 to 8) (size 9 to 14) (size 15 to 20)
#    0.000    1.600    2.667    2.000    1.867    0.000 
#    1.200    1.333    0.000    0.000    0.000    0.000 
#    0.000    0.000    0.000    0.000    0.000    0.000 
#
# Total GULP energy -167360.490397 kJ/mol
# GULP energy per Si atom -5578.683013 kJ/mol
# Density = 1.984810 g / cm^3
# Si number density = 19.893378 Si / 1000 Ang^3
#
#
#
# Elastic Constant Matrix: (Units=GPa)
#
#
# Indices 1 2 3 4 5 6 
#
# 1 84.9312 52.9606 35.4681 0.0000 -1.1126 0.0000
# 2 52.9606 92.6254 7.1246 0.0000 -0.7516 0.0000
# 3 35.4681 7.1246 60.6531 0.0000 -0.6079 0.0000
# 4 0.0000 0.0000 0.0000 27.7785 0.0000 -7.0145
# 5 -1.1126 -0.7516 -0.6079 0.0000 21.7478 0.0000
# 6 0.0000 0.0000 0.0000 -7.0145 0.0000 25.0040
#
#
#
# Elastic Compliance Matrix: (Units=1/GPa)
#
#
# Indices 1 2 3 4 5 6 
#
# 1 0.026148 -0.013896 -0.013653 0.000000 0.000476 0.000000
# 2 -0.013896 0.018283 0.005980 0.000000 0.000088 0.000000
# 3 -0.013653 0.005980 0.023771 0.000000 0.000173 0.000000
# 4 0.000000 0.000000 0.000000 0.038744 0.000000 0.010869
# 5 0.000476 0.000088 0.000173 0.000000 0.046014 0.000000
# 6 0.000000 0.000000 0.000000 0.010869 0.000000 0.043043
#
#
# Mechanical properties :
#
#
# Convention : Reuss Voigt Hill
#
# Bulk Modulus (GPa) = 39.90349 47.70181 43.80265
# Shear Modulus (GPa) = 20.20247 24.41648 22.30947
#
# Velocity S-wave (km/s) = 3.19021 3.50718 3.35244
# Velocity P-wave (km/s) = 5.80277 6.35855 6.08701
#
# Compressibility (1/GPa) = 0.02506047
#
# Stress axis : x y z
#
# Youngs Moduli (GPa) = 38.24450 54.69708 42.06889
#
# Poissons Ratio (x) = 0.76009 0.57438
# Poissons Ratio (y) = 0.53146 -0.25155
# Poissons Ratio (z) = 0.52216 -0.32706
#
# Static dielectric constant tensor:
#      x y z
#    x 1.717800 0.000000 -0.030530 
#    y 0.000000 1.700210 0.000000 
#    z -0.030530 0.000000 1.764200 
# 
# From -- ./inp_files/57022.got.cif
#   From: 2010.05.17/outbox.cif.g08.bks.cpg/sg15_29_cif.got.tgz:57022.got - 2010.06.03 18:47:42.
