data_PCOD9265979
_publ_section_title
;
Structure prediction by ZEFSAII (Michael W. Deem and Ramdas Pophale) SiO2 
 PCOD9265979
Probable space group: C 2/C
;
_chemical_formula_sum "Si O2"
_cell_formula_units_Z 56
_cell_length_a 9.163300
_cell_length_b 23.051323
_cell_length_c 16.143981
_cell_angle_alpha 90.000000
_cell_angle_beta 125.862091
_cell_angle_gamma 90.000000
_cell_volume 2763.589934
_symmetry_space_group_name_H-M "C 2/C"
_symmetry_group_IT_number 15
_symmetry_cell_setting 'monoclinic'
loop_
_space_group_symop_operation_xyz
x,y,z
-x,y,1/2-z
-x,-y,-z
x,-y,1/2+z
1/2+x,1/2+y,z
1/2-x,1/2+y,1/2-z
1/2-x,1/2-y,-z
1/2+x,1/2-y,1/2+z
loop_
_atom_site_type_symbol
_atom_site_label
_atom_site_fract_x
_atom_site_fract_y
_atom_site_fract_z
Si Si1 0.133289 0.804919 0.361218
Si Si2 0.903650 0.020696 0.051707
Si Si3 0.099390 0.127575 0.197908
Si Si4 0.462353 0.974244 0.147570
Si Si5 0.344603 0.692150 0.447599
Si Si6 0.015590 0.606009 0.375494
Si Si7 0.285061 0.073597 0.900503
O O1 0.295730 0.759619 0.424106
O O2 0.061342 0.815240 0.431108
O O3 0.193730 0.866558 0.345457
O O4 0.000000 0.778029 0.250000
O O5 0.023247 0.065392 0.142844
O O6 0.848476 0.966366 0.090541
O O7 0.715573 0.048327 0.957562
O O8 0.000000 0.000000 0.000000
O O9 0.068330 0.168797 0.107710
O O10 0.312724 0.123009 0.287293
O O11 0.000000 0.144665 0.250000
O O12 0.500000 0.949061 0.250000
O O13 0.632880 0.962811 0.146436
O O14 0.434852 0.043553 0.146659
O O15 0.160446 0.654216 0.396758
O O16 0.052771 0.593132 0.484482
#
# Coordination Sequence:
#
# PCOD9265979 Si02
#       7
#     8   8   8   8   8   8   8
#     4  10  21  39  64  87 111 150 200 245 284 335
#     4  11  22  35  55  87 119 148 194 245 288 346
#     4  12  22  34  58  89 120 150 191 247 299 340
#     4  11  21  35  54  79 115 156 188 225 288 352
#     4  10  22  40  63  87 111 149 202 243 278 344
#     4  10  19  37  59  78 108 153 195 232 279 336
#     4  10  22  38  55  81 118 151 185 232 290 355
#
# _framework density 20.263497999999998
#
# number of rings (size 3 to 8) (size 9 to 14) (size 15 to 20)
#    0.000    1.429    0.000    9.000    0.000    4.000 
#    0.000    0.714    0.000   19.714    0.000    0.000 
#    0.000    0.000    0.000    0.000    0.000    0.000 
#
# Total GULP energy -156348.007661 kJ/mol
# GULP energy per Si atom -5583.857416 kJ/mol
# Density = 2.021738 g / cm^3
# Si number density = 20.263498 Si / 1000 Ang^3
#
#
#
# Elastic Constant Matrix: (Units=GPa)
#
#
# Indices 1 2 3 4 5 6 
#
# 1 97.3587 22.9036 30.1986 0.0000 -33.7185 0.0000
# 2 22.9036 76.4409 10.4025 0.0000 -15.8168 0.0000
# 3 30.1986 10.4025 76.6657 0.0000 -9.6911 0.0000
# 4 0.0000 0.0000 0.0000 19.9704 0.0000 -5.2651
# 5 -33.7185 -15.8168 -9.6911 0.0000 30.6546 0.0000
# 6 0.0000 0.0000 0.0000 -5.2651 0.0000 8.8592
#
#
#
# Elastic Compliance Matrix: (Units=1/GPa)
#
#
# Indices 1 2 3 4 5 6 
#
# 1 0.018235 -0.001094 -0.004761 0.000000 0.017988 0.000000
# 2 -0.001094 0.014797 -0.000796 0.000000 0.006180 0.000000
# 3 -0.004761 -0.000796 0.014909 0.000000 -0.000934 0.000000
# 4 0.000000 0.000000 0.000000 0.059378 0.000000 0.035289
# 5 0.017988 0.006180 -0.000934 0.000000 0.055301 0.000000
# 6 0.000000 0.000000 0.000000 0.035289 0.000000 0.133850
#
#
# Mechanical properties :
#
#
# Convention : Reuss Voigt Hill
#
# Bulk Modulus (GPa) = 28.86783 41.94165 35.40474
# Shear Modulus (GPa) = 15.56098 24.36087 19.96092
#
# Velocity S-wave (km/s) = 2.77416 3.47104 3.14198
# Velocity P-wave (km/s) = 4.95363 6.06690 5.53831
#
# Compressibility (1/GPa) = 0.03464064
#
# Stress axis : x y z
#
# Youngs Moduli (GPa) = 54.83899 67.58238 67.07467
#
# Poissons Ratio (x) = 0.07392 0.31931
# Poissons Ratio (y) = 0.05998 0.05337
# Poissons Ratio (z) = 0.26106 0.05377
#
# Static dielectric constant tensor:
#      x y z
#    x 1.731260 0.000000 0.010360 
#    y 0.000000 1.700500 0.000000 
#    z 0.010360 0.000000 1.827510 
# 
# From -- ./inp_files/137975.got.cif
#   From: 2010.05.17/outbox.cif.g08.bks.cpg/sg15_69_cif.got.tgz:137975.got - 2010.06.03 18:47:42.
