data_PCOD9265434
_publ_section_title
;
Structure prediction by ZEFSAII (Michael W. Deem and Ramdas Pophale) SiO2 
 PCOD9265434
Probable space group: C 2/C
;
_chemical_formula_sum "Si O2"
_cell_formula_units_Z 56
_cell_length_a 7.817502
_cell_length_b 35.611104
_cell_length_c 12.260133
_cell_angle_alpha 90.000000
_cell_angle_beta 44.763568
_cell_angle_gamma 90.000000
_cell_volume 2403.444419
_symmetry_space_group_name_H-M "C 2/C"
_symmetry_group_IT_number 15
_symmetry_cell_setting 'monoclinic'
loop_
_space_group_symop_operation_xyz
x,y,z
-x,y,1/2-z
-x,-y,-z
x,-y,1/2+z
1/2+x,1/2+y,z
1/2-x,1/2+y,1/2-z
1/2-x,1/2-y,-z
1/2+x,1/2-y,1/2+z
loop_
_atom_site_type_symbol
_atom_site_label
_atom_site_fract_x
_atom_site_fract_y
_atom_site_fract_z
Si Si1 0.864380 0.898887 0.425841
Si Si2 0.247935 0.954488 0.574340
Si Si3 0.288850 0.658251 0.139361
Si Si4 0.655522 0.873212 0.921929
Si Si5 0.348409 0.972140 0.926596
Si Si6 0.014935 0.295359 0.412357
Si Si7 0.605649 0.274708 0.421812
O O1 0.925447 0.870281 0.495033
O O2 0.583885 0.889157 0.529800
O O3 0.868385 0.942124 0.462419
O O4 0.000000 0.893824 0.250000
O O5 0.252911 0.909682 0.553619
O O6 0.470587 0.964159 0.554376
O O7 0.000000 0.962867 0.750000
O O8 0.268774 0.984505 0.468059
O O9 0.319164 0.643338 0.249053
O O10 0.000000 0.659047 0.250000
O O11 0.395962 0.698814 0.063650
O O12 0.558466 0.838017 0.033871
O O13 0.500000 0.963764 0.750000
O O14 0.825150 0.280782 0.408104
O O15 0.973283 0.268695 0.535941
O O16 0.282483 0.288607 0.242674
#
# Coordination Sequence:
#
# PCOD9265434 Si02
#       7
#     8   8   8   8   8   8   8
#     4  10  19  36  61  83 114 154 191 234 294 356
#     4  10  22  38  59  88 116 156 201 244 298 356
#     4  10  21  37  59  89 117 154 200 239 298 358
#     4  10  21  37  56  85 118 148 191 247 288 345
#     4  10  21  41  60  84 122 156 198 247 300 362
#     4  10  21  38  59  83 115 153 193 242 296 344
#     4  10  21  38  59  84 114 154 198 237 293 356
#
# _framework density 23.299894999999999
#
# number of rings (size 3 to 8) (size 9 to 14) (size 15 to 20)
#    0.000    2.000    0.000    4.286    2.000    1.714 
#    2.571   11.429    0.000    0.000    0.000    0.000 
#    0.000    0.000    0.000    0.000    0.000    0.000 
#
# Total GULP energy -156384.722236 kJ/mol
# GULP energy per Si atom -5585.168651 kJ/mol
# Density = 2.324686 g / cm^3
# Si number density = 23.299895 Si / 1000 Ang^3
#
#
#
# Elastic Constant Matrix: (Units=GPa)
#
#
# Indices 1 2 3 4 5 6 
#
# 1 26.8371 5.2147 -5.3599 0.0000 -0.9761 0.0000
# 2 5.2147 145.6520 48.4478 0.0000 -1.0354 0.0000
# 3 -5.3599 48.4478 124.5373 0.0000 6.9906 0.0000
# 4 0.0000 0.0000 0.0000 29.9322 0.0000 -7.0882
# 5 -0.9761 -1.0354 6.9906 0.0000 19.5091 0.0000
# 6 0.0000 0.0000 0.0000 -7.0882 0.0000 23.8731
#
#
#
# Elastic Compliance Matrix: (Units=1/GPa)
#
#
# Indices 1 2 3 4 5 6 
#
# 1 0.038204 -0.002172 0.002437 0.000000 0.000923 0.000000
# 2 -0.002172 0.008056 -0.003312 0.000000 0.001506 0.000000
# 3 0.002437 -0.003312 0.009620 0.000000 -0.003501 0.000000
# 4 0.000000 0.000000 0.000000 0.035935 0.000000 0.010670
# 5 0.000923 0.001506 -0.003501 0.000000 0.052638 0.000000
# 6 0.000000 0.000000 0.000000 0.010670 0.000000 0.045056
#
#
# Mechanical properties :
#
#
# Convention : Reuss Voigt Hill
#
# Bulk Modulus (GPa) = 20.08572 43.73684 31.91128
# Shear Modulus (GPa) = 23.56291 31.24449 27.40370
#
# Velocity S-wave (km/s) = 3.18353 3.66590 3.43320
# Velocity P-wave (km/s) = 4.70663 6.06056 5.42599
#
# Compressibility (1/GPa) = 0.04978661
#
# Stress axis : x y z
#
# Youngs Moduli (GPa) = 26.17512 124.13476 103.95529
#
# Poissons Ratio (x) = 0.26962 -0.25338
# Poissons Ratio (y) = 0.05685 0.34429
# Poissons Ratio (z) = -0.06380 0.41112
#
# Static dielectric constant tensor:
#      x y z
#    x 1.900460 0.000000 -0.037200 
#    y 0.000000 1.919540 0.000000 
#    z -0.037200 0.000000 1.848860 
# 
# From -- ./inp_files/149251.got.cif
#   From: 2010.05.17/outbox.cif.g08.bks.cpg/sg15_75_cif.got.tgz:149251.got - 2010.06.03 18:47:42.
