data_PCOD9265800
_publ_section_title
;
Structure prediction by ZEFSAII (Michael W. Deem and Ramdas Pophale) SiO2 
 PCOD9265800
Probable space group: C 2/C
;
_chemical_formula_sum "Si O2"
_cell_formula_units_Z 48
_cell_length_a 27.446037
_cell_length_b 16.475737
_cell_length_c 5.381246
_cell_angle_alpha 90.000000
_cell_angle_beta 113.430963
_cell_angle_gamma 90.000000
_cell_volume 2232.709839
_symmetry_space_group_name_H-M "C 2/C"
_symmetry_group_IT_number 15
_symmetry_cell_setting 'monoclinic'
loop_
_space_group_symop_operation_xyz
x,y,z
-x,y,1/2-z
-x,-y,-z
x,-y,1/2+z
1/2+x,1/2+y,z
1/2-x,1/2+y,1/2-z
1/2-x,1/2-y,-z
1/2+x,1/2-y,1/2+z
loop_
_atom_site_type_symbol
_atom_site_label
_atom_site_fract_x
_atom_site_fract_y
_atom_site_fract_z
Si Si1 0.270731 0.707403 0.791339
Si Si2 0.616305 0.771121 0.409818
Si Si3 0.226767 0.979015 0.223259
Si Si4 0.059434 0.778453 0.286825
Si Si5 0.560994 0.468058 0.159124
Si Si6 0.344249 0.044778 0.478220
O O1 0.250000 0.750000 0.500000
O O2 0.254961 0.613605 0.752894
O O3 0.250000 0.750000 0.000000
O O4 0.334110 0.713630 0.925202
O O5 0.575358 0.760708 0.554818
O O6 0.638397 0.862847 0.458000
O O7 0.595455 0.748576 0.093528
O O8 0.196952 0.995479 0.416425
O O9 0.280023 0.034748 0.340921
O O10 0.062243 0.875231 0.248544
O O11 0.000000 0.757664 0.250000
O O12 0.584082 0.521206 0.430732
O O13 0.500000 0.500000 0.000000
O O14 0.362867 0.006350 0.255512
#
# Coordination Sequence:
#
# PCOD9265800 Si02
#       6
#     8   8   8   8   8   8
#     4  12  23  42  68  99 139 173 222 286 345 401
#     4  12  26  41  68 108 133 176 236 285 335 412
#     4  10  20  36  61  88 125 173 214 255 332 396
#     4  12  25  44  68  98 143 180 229 283 348 396
#     4  10  19  36  67  93 119 175 232 256 330 413
#     4  10  19  38  64  92 122 173 226 265 321 413
#
# _framework density 21.498539000000001
#
# number of rings (size 3 to 8) (size 9 to 14) (size 15 to 20)
#    0.000    1.000    1.667    8.500    2.333    0.000 
#    0.000    5.000    0.000   10.000    0.000    0.000 
#    0.000    0.000    0.000    0.000    0.000    0.000 
#
# Total GULP energy -134212.472952 kJ/mol
# GULP energy per Si atom -5592.186373 kJ/mol
# Density = 2.144961 g / cm^3
# Si number density = 21.498539 Si / 1000 Ang^3
#
#
#
# Elastic Constant Matrix: (Units=GPa)
#
#
# Indices 1 2 3 4 5 6 
#
# 1 73.1353 29.2066 30.7795 0.0000 -20.1638 0.0000
# 2 29.2066 120.2108 54.7866 0.0000 -3.5390 0.0000
# 3 30.7795 54.7866 180.3866 0.0000 -40.9254 0.0000
# 4 0.0000 0.0000 0.0000 45.8441 0.0000 -5.7195
# 5 -20.1638 -3.5390 -40.9254 0.0000 47.1137 0.0000
# 6 0.0000 0.0000 0.0000 -5.7195 0.0000 29.9788
#
#
#
# Elastic Compliance Matrix: (Units=1/GPa)
#
#
# Indices 1 2 3 4 5 6 
#
# 1 0.017212 -0.003894 -0.000186 0.000000 0.006912 0.000000
# 2 -0.003894 0.010735 -0.003476 0.000000 -0.003880 0.000000
# 3 -0.000186 -0.003476 0.008163 0.000000 0.006750 0.000000
# 4 0.000000 0.000000 0.000000 0.022345 0.000000 0.004263
# 5 0.006912 -0.003880 0.006750 0.000000 0.029755 0.000000
# 6 0.000000 0.000000 0.000000 0.004263 0.000000 0.034170
#
#
# Mechanical properties :
#
#
# Convention : Reuss Voigt Hill
#
# Bulk Modulus (GPa) = 47.62406 67.03090 57.32748
# Shear Modulus (GPa) = 34.60422 41.85133 38.22777
#
# Velocity S-wave (km/s) = 4.01634 4.41694 4.22139
# Velocity P-wave (km/s) = 6.61123 7.56699 7.10520
#
# Compressibility (1/GPa) = 0.02099779
#
# Stress axis : x y z
#
# Youngs Moduli (GPa) = 58.09790 93.15517 122.51142
#
# Poissons Ratio (x) = 0.36271 0.02280
# Poissons Ratio (y) = 0.22621 0.42587
# Poissons Ratio (z) = 0.01081 0.32382
#
# Static dielectric constant tensor:
#      x y z
#    x 1.864920 0.000000 -0.055120 
#    y 0.000000 1.718280 0.000000 
#    z -0.055120 0.000000 1.831570 
# 
# From -- ./inp_files/18258.got.cif
#   From: 2010.05.17/outbox.cif.g08.bks.cpg/sg15_10_cif.got.tgz:18258.got - 2010.06.03 18:47:42.
