data_PCOD9265098
_publ_section_title
;
Structure prediction by ZEFSAII (Michael W. Deem and Ramdas Pophale) SiO2 
 PCOD9265098
Probable space group: C 2/C
;
_chemical_formula_sum "Si O2"
_cell_formula_units_Z 64
_cell_length_a 17.718218
_cell_length_b 22.088966
_cell_length_c 9.127341
_cell_angle_alpha 90.000000
_cell_angle_beta 81.051121
_cell_angle_gamma 90.000000
_cell_volume 3528.749471
_symmetry_space_group_name_H-M "C 2/C"
_symmetry_group_IT_number 15
_symmetry_cell_setting 'monoclinic'
loop_
_space_group_symop_operation_xyz
x,y,z
-x,y,1/2-z
-x,-y,-z
x,-y,1/2+z
1/2+x,1/2+y,z
1/2-x,1/2+y,1/2-z
1/2-x,1/2-y,-z
1/2+x,1/2-y,1/2+z
loop_
_atom_site_type_symbol
_atom_site_label
_atom_site_fract_x
_atom_site_fract_y
_atom_site_fract_z
Si Si1 0.465424 0.220044 0.103448
Si Si2 0.331883 0.494797 0.839633
Si Si3 0.162898 0.667597 0.520949
Si Si4 0.236666 0.078594 0.870099
Si Si5 0.063754 0.949236 0.955290
Si Si6 0.421032 0.682710 0.041164
Si Si7 0.207845 0.221552 0.210549
Si Si8 0.164601 0.807061 0.236057
O O1 0.500000 0.200598 0.250000
O O2 0.400307 0.269072 0.162176
O O3 0.419094 0.168726 0.031300
O O4 0.527642 0.257390 0.991894
O O5 0.269737 0.528637 0.756154
O O6 0.390050 0.463804 0.707365
O O7 0.297053 0.450181 0.971403
O O8 0.379131 0.542364 0.924446
O O9 0.183024 0.609962 0.614064
O O10 0.171827 0.729839 0.609701
O O11 0.233024 0.675775 0.384657
O O12 0.186491 0.134569 0.824169
O O13 0.033811 0.880509 0.960077
O O14 0.000000 0.000000 0.000000
O O15 0.360914 0.688671 0.189466
O O16 0.370387 0.678620 0.909824
O O17 0.261202 0.263784 0.297258
#
# Coordination Sequence:
#
# PCOD9265098 Si02
#       8
#     8   8   8   8   8   8   8   8
#     4   9  20  32  51  78 110 144 184 215 282 356
#     4  10  22  35  52  75 102 143 205 225 265 324
#     4   9  18  36  53  75 109 147 177 234 299 325
#     4  10  19  36  58  74 106 139 187 242 272 319
#     4  11  23  35  46  73 111 155 187 223 264 316
#     4  11  20  32  52  79 111 147 187 227 264 330
#     4   9  18  32  53  78 102 140 193 226 275 333
#     4   9  18  34  53  74 110 148 174 231 289 318
#
# _framework density 18.136735999999999
#
# number of rings (size 3 to 8) (size 9 to 14) (size 15 to 20)
#    0.000    2.250    1.250    2.250    3.500    1.500 
#    2.250    0.000    0.000    0.000    0.000    0.875 
#    0.000    0.125    0.000    0.000    0.000    0.000 
#
# Total GULP energy -178393.975208 kJ/mol
# GULP energy per Si atom -5574.811725 kJ/mol
# Density = 1.809546 g / cm^3
# Si number density = 18.136736 Si / 1000 Ang^3
#
#
#
# Elastic Constant Matrix: (Units=GPa)
#
#
# Indices 1 2 3 4 5 6 
#
# 1 74.6256 28.5414 26.4726 0.0000 10.8531 0.0000
# 2 28.5414 46.8686 19.1534 0.0000 3.9499 0.0000
# 3 26.4726 19.1534 76.3957 0.0000 2.8539 0.0000
# 4 0.0000 0.0000 0.0000 16.0940 0.0000 7.4367
# 5 10.8531 3.9499 2.8539 0.0000 16.3360 0.0000
# 6 0.0000 0.0000 0.0000 7.4367 0.0000 26.9350
#
#
#
# Elastic Compliance Matrix: (Units=1/GPa)
#
#
# Indices 1 2 3 4 5 6 
#
# 1 0.020056 -0.009654 -0.004146 0.000000 -0.010266 0.000000
# 2 -0.009654 0.028789 -0.003877 0.000000 0.000130 0.000000
# 3 -0.004146 -0.003877 0.015461 0.000000 0.000991 0.000000
# 4 0.000000 0.000000 0.000000 0.071221 0.000000 -0.019664
# 5 -0.010266 0.000130 0.000991 0.000000 0.067830 0.000000
# 6 0.000000 0.000000 0.000000 -0.019664 0.000000 0.042556
#
#
# Mechanical properties :
#
#
# Convention : Reuss Voigt Hill
#
# Bulk Modulus (GPa) = 34.54010 38.46942 36.50476
# Shear Modulus (GPa) = 17.18689 20.12116 18.65403
#
# Velocity S-wave (km/s) = 3.08170 3.33440 3.21054
# Velocity P-wave (km/s) = 5.63455 6.00676 5.82363
#
# Compressibility (1/GPa) = 0.02895186
#
# Stress axis : x y z
#
# Youngs Moduli (GPa) = 49.85950 34.73574 64.67689
#
# Poissons Ratio (x) = 0.33534 0.26815
# Poissons Ratio (y) = 0.48135 0.25077
# Poissons Ratio (z) = 0.20672 0.13468
#
# Static dielectric constant tensor:
#      x y z
#    x 1.647050 0.000000 0.047230 
#    y 0.000000 1.644800 0.000000 
#    z 0.047230 0.000000 1.660390 
# 
# From -- ./inp_files/51224.got.cif
#   From: 2010.05.17/outbox.cif.g08.bks.cpg/sg15_26_cif.got.tgz:51224.got - 2010.06.03 18:47:42.
