data_PCOD9265659
_publ_section_title
;
Structure prediction by ZEFSAII (Michael W. Deem and Ramdas Pophale) SiO2 
 PCOD9265659
Probable space group: C 2/C
;
_chemical_formula_sum "Si O2"
_cell_formula_units_Z 64
_cell_length_a 29.982666
_cell_length_b 11.933247
_cell_length_c 13.392481
_cell_angle_alpha 90.000000
_cell_angle_beta 34.280526
_cell_angle_gamma 90.000000
_cell_volume 2698.904044
_symmetry_space_group_name_H-M "C 2/C"
_symmetry_group_IT_number 15
_symmetry_cell_setting 'monoclinic'
loop_
_space_group_symop_operation_xyz
x,y,z
-x,y,1/2-z
-x,-y,-z
x,-y,1/2+z
1/2+x,1/2+y,z
1/2-x,1/2+y,1/2-z
1/2-x,1/2-y,-z
1/2+x,1/2-y,1/2+z
loop_
_atom_site_type_symbol
_atom_site_label
_atom_site_fract_x
_atom_site_fract_y
_atom_site_fract_z
Si Si1 0.284365 0.381160 0.322813
Si Si2 0.356505 0.987448 0.372702
Si Si3 0.302593 0.528660 0.577854
Si Si4 0.615551 0.020287 0.446537
Si Si5 0.089340 0.702468 0.350691
Si Si6 0.313480 0.242606 0.968855
Si Si7 0.037301 0.704273 0.069486
Si Si8 0.807248 0.206253 0.132654
O O1 0.237768 0.481747 0.462293
O O2 0.323020 0.435282 0.153671
O O3 0.343077 0.297598 0.270077
O O4 0.215360 0.303103 0.402990
O O5 0.384170 0.996082 0.435503
O O6 0.391410 0.087204 0.243887
O O7 0.370912 0.856358 0.326154
O O8 0.206012 0.515285 0.747585
O O9 0.336964 0.629663 0.449224
O O10 0.328593 0.400876 0.526874
O O11 0.556417 0.926408 0.515722
O O12 0.589246 0.144631 0.460888
O O13 0.015915 0.748203 0.422906
O O14 0.269726 0.197769 0.152069
O O15 0.250000 0.250000 0.000000
O O16 0.000000 0.716112 0.250000
O O17 0.121532 0.763672 0.926648
#
# Coordination Sequence:
#
# PCOD9265659 Si02
#       8
#     8   8   8   8   8   8   8   8
#     4  10  19  36  63  91 120 161 213 259 309 370
#     4  11  21  37  63  95 129 156 217 267 313 375
#     4  10  19  39  65  91 123 164 210 266 322 368
#     4  11  19  39  60  90 125 162 203 263 320 366
#     4  12  23  36  62  95 130 170 212 252 324 382
#     4  11  21  35  60  98 126 156 209 274 324 364
#     4  12  24  41  58  93 130 169 207 259 314 381
#     4  11  20  40  66  87 127 166 206 262 322 376
#
# _framework density 23.713329000000002
#
# number of rings (size 3 to 8) (size 9 to 14) (size 15 to 20)
#    0.000    1.000    8.750    2.250    0.000    0.000 
#    0.000    0.625    0.000    0.000    3.250    0.000 
#    0.000    0.000    0.000    0.000    0.000    0.000 
#
# Total GULP energy -178631.119145 kJ/mol
# GULP energy per Si atom -5582.222473 kJ/mol
# Density = 2.365936 g / cm^3
# Si number density = 23.713329 Si / 1000 Ang^3
#
#
#
# Elastic Constant Matrix: (Units=GPa)
#
#
# Indices 1 2 3 4 5 6 
#
# 1 129.4147 23.5247 19.2716 0.0000 -21.7668 0.0000
# 2 23.5247 113.7263 -1.9591 0.0000 -4.6283 0.0000
# 3 19.2716 -1.9591 27.0971 0.0000 2.3720 0.0000
# 4 0.0000 0.0000 0.0000 24.7207 0.0000 5.0410
# 5 -21.7668 -4.6283 2.3720 0.0000 40.3844 0.0000
# 6 0.0000 0.0000 0.0000 5.0410 0.0000 41.3109
#
#
#
# Elastic Compliance Matrix: (Units=1/GPa)
#
#
# Indices 1 2 3 4 5 6 
#
# 1 0.010245 -0.002022 -0.007936 0.000000 0.005756 0.000000
# 2 -0.002022 0.009241 0.002119 0.000000 -0.000155 0.000000
# 3 -0.007936 0.002119 0.043277 0.000000 -0.006577 0.000000
# 4 0.000000 0.000000 0.000000 0.041484 0.000000 -0.005062
# 5 0.005756 -0.000155 -0.006577 0.000000 0.028233 0.000000
# 6 0.000000 0.000000 0.000000 -0.005062 0.000000 0.024824
#
#
# Mechanical properties :
#
#
# Convention : Reuss Voigt Hill
#
# Bulk Modulus (GPa) = 21.23722 39.10139 30.16930
# Shear Modulus (GPa) = 26.50033 36.57659 31.53846
#
# Velocity S-wave (km/s) = 3.34657 3.93166 3.65086
# Velocity P-wave (km/s) = 4.88958 6.09390 5.52465
#
# Compressibility (1/GPa) = 0.04708715
#
# Stress axis : x y z
#
# Youngs Moduli (GPa) = 97.61322 108.20851 23.10672
#
# Poissons Ratio (x) = 0.21875 0.18338
# Poissons Ratio (y) = 0.19733 -0.04897
# Poissons Ratio (z) = 0.77466 -0.22935
#
# Static dielectric constant tensor:
#      x y z
#    x 1.947560 0.000000 0.055540 
#    y 0.000000 1.915640 0.000000 
#    z 0.055540 0.000000 2.043220 
# 
# From -- ./inp_files/181748.got.cif
#   From: 2010.05.17/outbox.cif.g08.bks.cpg/sg15_91_cif.got.tgz:181748.got - 2010.06.03 18:47:42.
