data_PCOD9265347
_publ_section_title
;
Structure prediction by ZEFSAII (Michael W. Deem and Ramdas Pophale) SiO2 
 PCOD9265347
Probable space group: C 2/C
;
_chemical_formula_sum "Si O2"
_cell_formula_units_Z 56
_cell_length_a 16.682474
_cell_length_b 33.647011
_cell_length_c 5.900599
_cell_angle_alpha 90.000000
_cell_angle_beta 118.416083
_cell_angle_gamma 90.000000
_cell_volume 2913.039098
_symmetry_space_group_name_H-M "C 2/C"
_symmetry_group_IT_number 15
_symmetry_cell_setting 'monoclinic'
loop_
_space_group_symop_operation_xyz
x,y,z
-x,y,1/2-z
-x,-y,-z
x,-y,1/2+z
1/2+x,1/2+y,z
1/2-x,1/2+y,1/2-z
1/2-x,1/2-y,-z
1/2+x,1/2-y,1/2+z
loop_
_atom_site_type_symbol
_atom_site_label
_atom_site_fract_x
_atom_site_fract_y
_atom_site_fract_z
Si Si1 0.098180 0.823892 0.992073
Si Si2 0.393605 0.513425 0.325855
Si Si3 0.854342 0.105169 0.251355
Si Si4 0.500000 0.353511 0.250000
Si Si5 0.084200 0.305225 0.244924
Si Si6 0.763540 0.714969 0.845721
Si Si7 0.000000 0.362553 0.750000
Si Si8 0.819683 0.358217 0.739500
O O1 0.139571 0.865656 0.957460
O O2 0.000000 0.816615 0.750000
O O3 0.073764 0.827214 0.222321
O O4 0.175764 0.791669 0.071672
O O5 0.500000 0.500000 0.500000
O O6 0.359232 0.507923 0.543891
O O7 0.371845 0.559066 0.234326
O O8 0.943340 0.119196 0.507350
O O9 0.762078 0.115206 0.267581
O O10 0.149415 0.277724 0.190545
O O11 0.141094 0.331162 0.502016
O O12 0.000000 0.283857 0.250000
O O13 0.038816 0.335630 0.005324
O O14 0.750000 0.750000 0.000000
O O15 0.781839 0.673584 0.005622
O O16 0.092967 0.380558 0.761200
#
# Coordination Sequence:
#
# PCOD9265347 Si02
#       8
#     8   8   8   4   8   8   4   8
#     4  10  22  37  57  85 114 164 219 252 317 384
#     4  10  23  37  55  91 131 171 218 253 321 380
#     4  11  21  35  64  84 122 171 206 266 296 385
#     4  10  20  34  55  82 122 152 216 250 296 364
#     4   9  18  37  58  81 110 146 197 259 320 377
#     4  11  22  38  58  85 119 157 206 270 321 384
#     4   8  18  34  59  86 112 132 192 266 304 376
#     4  10  19  36  60  86 112 154 206 255 326 374
#
# _framework density 19.223908000000002
#
# number of rings (size 3 to 8) (size 9 to 14) (size 15 to 20)
#    0.000    2.000    2.857    0.857    8.000    0.571 
#    0.000    7.857    0.000    0.000    0.000    1.000 
#    0.000    0.000    0.000    0.000    0.000    0.000 
#
# Total GULP energy -155895.277023 kJ/mol
# GULP energy per Si atom -5567.688465 kJ/mol
# Density = 1.918015 g / cm^3
# Si number density = 19.223908 Si / 1000 Ang^3
#
#
#
# Elastic Constant Matrix: (Units=GPa)
#
#
# Indices 1 2 3 4 5 6 
#
# 1 163.5690 38.1093 11.3424 0.0000 1.5306 0.0000
# 2 38.1093 63.8944 14.1252 0.0000 6.2019 0.0000
# 3 11.3424 14.1252 78.8034 0.0000 -2.9376 0.0000
# 4 0.0000 0.0000 0.0000 20.2040 0.0000 0.7910
# 5 1.5306 6.2019 -2.9376 0.0000 29.8017 0.0000
# 6 0.0000 0.0000 0.0000 0.7910 0.0000 2.0187
#
#
#
# Elastic Compliance Matrix: (Units=1/GPa)
#
#
# Indices 1 2 3 4 5 6 
#
# 1 0.007113 -0.004236 -0.000246 0.000000 0.000492 0.000000
# 2 -0.004236 0.019234 -0.002990 0.000000 -0.004080 0.000000
# 3 -0.000246 -0.002990 0.013334 0.000000 0.001949 0.000000
# 4 0.000000 0.000000 0.000000 0.050266 0.000000 -0.019695
# 5 0.000492 -0.004080 0.001949 0.000000 0.034571 0.000000
# 6 0.000000 0.000000 0.000000 -0.019695 0.000000 0.503076
#
#
# Mechanical properties :
#
#
# Convention : Reuss Voigt Hill
#
# Bulk Modulus (GPa) = 40.42539 48.15786 44.29162
# Shear Modulus (GPa) = 7.68304 26.58424 17.13364
#
# Velocity S-wave (km/s) = 2.00132 3.72274 2.98865
# Velocity P-wave (km/s) = 5.13953 6.60180 5.91602
#
# Compressibility (1/GPa) = 0.02473693
#
# Stress axis : x y z
#
# Youngs Moduli (GPa) = 140.58812 51.99056 74.99703
#
# Poissons Ratio (x) = 0.22022 0.01846
# Poissons Ratio (y) = 0.59550 0.22425
# Poissons Ratio (z) = 0.03461 0.15546
#
# Static dielectric constant tensor:
#      x y z
#    x 1.730970 0.000000 -0.043820 
#    y 0.000000 1.696100 0.000000 
#    z -0.043820 0.000000 1.744260 
# 
# From -- ./inp_files/12231.got.cif
#   From: 2010.05.17/outbox.cif.g08.bks.cpg/sg15_7_cif.got.tgz:12231.got - 2010.06.03 18:47:42.
