data_PCOD9265309
_publ_section_title
;
Structure prediction by ZEFSAII (Michael W. Deem and Ramdas Pophale) SiO2 
 PCOD9265309
Probable space group: C 2/C
;
_chemical_formula_sum "Si O2"
_cell_formula_units_Z 56
_cell_length_a 29.923104
_cell_length_b 11.053747
_cell_length_c 13.892004
_cell_angle_alpha 90.000000
_cell_angle_beta 33.967984
_cell_angle_gamma 90.000000
_cell_volume 2567.336012
_symmetry_space_group_name_H-M "C 2/C"
_symmetry_group_IT_number 15
_symmetry_cell_setting 'monoclinic'
loop_
_space_group_symop_operation_xyz
x,y,z
-x,y,1/2-z
-x,-y,-z
x,-y,1/2+z
1/2+x,1/2+y,z
1/2-x,1/2+y,1/2-z
1/2-x,1/2-y,-z
1/2+x,1/2-y,1/2+z
loop_
_atom_site_type_symbol
_atom_site_label
_atom_site_fract_x
_atom_site_fract_y
_atom_site_fract_z
Si Si1 0.358190 0.551403 0.355618
Si Si2 0.189474 0.801869 0.802743
Si Si3 0.928509 0.837708 0.097119
Si Si4 0.917084 0.700830 0.652623
Si Si5 0.698571 0.945641 0.029859
Si Si6 0.426559 0.500299 0.432890
Si Si7 0.750020 0.794226 0.389793
O O1 0.403301 0.436688 0.223413
O O2 0.383817 0.677584 0.262922
O O3 0.264442 0.541369 0.497334
O O4 0.374443 0.553319 0.439666
O O5 0.135697 0.697103 0.850656
O O6 0.266432 0.840539 0.602705
O O7 0.209576 0.782304 0.878108
O O8 0.130296 0.916318 0.904197
O O9 0.844635 0.795987 0.202357
O O10 0.965031 0.906091 0.938907
O O11 0.989137 0.734189 0.024960
O O12 0.886754 0.591532 0.773931
O O13 0.707745 0.074576 0.961819
O O14 0.500000 0.432903 0.250000
O O15 0.750000 0.750000 0.500000
#
# Coordination Sequence:
#
# PCOD9265309 Si02
#       7
#     8   8   8   8   8   8   8
#     4  10  19  36  59  93 133 165 205 271 331 396
#     4  11  22  37  64  92 124 170 215 270 325 393
#     4  11  22  40  61  98 136 162 218 274 336 390
#     4  11  21  37  62  95 129 165 210 275 333 385
#     4  10  23  39  62  92 130 168 223 265 330 402
#     4  12  21  33  65  99 127 157 209 274 339 376
#     4  11  25  44  63  89 131 177 222 267 328 399
#
# _framework density 21.812494000000001
#
# number of rings (size 3 to 8) (size 9 to 14) (size 15 to 20)
#    0.000    1.143    5.714    4.714    4.000    1.143 
#    0.000    0.714    0.000    3.429    0.000    0.000 
#    0.000    0.000    0.000    0.000    0.000    0.000 
#
# Total GULP energy -156181.004512 kJ/mol
# GULP energy per Si atom -5577.893018 kJ/mol
# Density = 2.176285 g / cm^3
# Si number density = 21.812494 Si / 1000 Ang^3
#
#
#
# Elastic Constant Matrix: (Units=GPa)
#
#
# Indices 1 2 3 4 5 6 
#
# 1 121.4561 23.2194 13.0105 0.0000 14.1757 0.0000
# 2 23.2194 40.7123 23.7157 0.0000 -10.1066 0.0000
# 3 13.0105 23.7157 78.1436 0.0000 -1.1808 0.0000
# 4 0.0000 0.0000 0.0000 32.6871 0.0000 0.9641
# 5 14.1757 -10.1066 -1.1808 0.0000 24.7896 0.0000
# 6 0.0000 0.0000 0.0000 0.9641 0.0000 25.5788
#
#
#
# Elastic Compliance Matrix: (Units=1/GPa)
#
#
# Indices 1 2 3 4 5 6 
#
# 1 0.011109 -0.009330 0.000829 0.000000 -0.010117 0.000000
# 2 -0.009330 0.041531 -0.010722 0.000000 0.021757 0.000000
# 3 0.000829 -0.010722 0.015851 0.000000 -0.004090 0.000000
# 4 0.000000 0.000000 0.000000 0.030627 0.000000 -0.001154
# 5 -0.010117 0.021757 -0.004090 0.000000 0.054800 0.000000
# 6 0.000000 0.000000 0.000000 -0.001154 0.000000 0.039138
#
#
# Mechanical properties :
#
#
# Convention : Reuss Voigt Hill
#
# Bulk Modulus (GPa) = 33.28374 40.02258 36.65316
# Shear Modulus (GPa) = 20.70242 28.63552 24.66897
#
# Velocity S-wave (km/s) = 3.08410 3.62719 3.36662
# Velocity P-wave (km/s) = 5.28908 5.99419 5.65264
#
# Compressibility (1/GPa) = 0.03004470
#
# Stress axis : x y z
#
# Youngs Moduli (GPa) = 90.01578 24.07861 63.08734
#
# Poissons Ratio (x) = 0.22466 -0.05231
# Poissons Ratio (y) = 0.83988 0.67641
# Poissons Ratio (z) = -0.07464 0.25817
#
# Static dielectric constant tensor:
#      x y z
#    x 1.809040 0.000000 -0.039050 
#    y 0.000000 1.841070 0.000000 
#    z -0.039050 0.000000 1.980560 
# 
# From -- ./inp_files/181927.got.cif
#   From: 2010.05.17/outbox.cif.g08.bks.cpg/sg15_91_cif.got.tgz:181927.got - 2010.06.03 18:47:42.
