data_PCOD9265502
_publ_section_title
;
Structure prediction by ZEFSAII (Michael W. Deem and Ramdas Pophale) SiO2 
 PCOD9265502
Probable space group: C 2/C
;
_chemical_formula_sum "Si O2"
_cell_formula_units_Z 48
_cell_length_a 15.305178
_cell_length_b 7.889040
_cell_length_c 24.848565
_cell_angle_alpha 90.000000
_cell_angle_beta 47.427112
_cell_angle_gamma 90.000000
_cell_volume 2209.468619
_symmetry_space_group_name_H-M "C 2/C"
_symmetry_group_IT_number 15
_symmetry_cell_setting 'monoclinic'
loop_
_space_group_symop_operation_xyz
x,y,z
-x,y,1/2-z
-x,-y,-z
x,-y,1/2+z
1/2+x,1/2+y,z
1/2-x,1/2+y,1/2-z
1/2-x,1/2-y,-z
1/2+x,1/2-y,1/2+z
loop_
_atom_site_type_symbol
_atom_site_label
_atom_site_fract_x
_atom_site_fract_y
_atom_site_fract_z
Si Si1 0.336376 0.404727 0.698218
Si Si2 0.243716 0.644261 0.416006
Si Si3 0.550586 0.029080 0.063596
Si Si4 0.454096 0.364780 0.062775
Si Si5 0.518283 0.850993 0.179611
Si Si6 0.706380 0.100678 0.844796
O O1 0.415188 0.538963 0.633156
O O2 0.414186 0.269998 0.699717
O O3 0.272597 0.294532 0.678540
O O4 0.247975 0.493838 0.775777
O O5 0.165945 0.573731 0.497399
O O6 0.158287 0.766509 0.416205
O O7 0.362216 0.743433 0.378542
O O8 0.271774 0.480125 0.367850
O O9 0.545803 0.217494 0.041812
O O10 0.531350 0.013119 0.135422
O O11 0.434436 0.931457 0.087950
O O12 0.500000 0.500000 0.000000
O O13 0.500000 0.886098 0.250000
#
# Coordination Sequence:
#
# PCOD9265502 Si02
#       6
#     8   8   8   8   8   8
#     4  11  22  38  63  91 126 165 213 263 320 380
#     4  11  21  41  65  93 122 167 210 260 332 382
#     4  10  22  38  65  91 125 165 211 259 319 384
#     4  11  22  40  64  97 124 163 218 269 314 374
#     4  11  23  42  62  91 129 173 207 256 329 387
#     4  10  19  36  61  91 122 160 211 259 314 379
#
# _framework density 21.724679999999999
#
# number of rings (size 3 to 8) (size 9 to 14) (size 15 to 20)
#    0.000    1.333    1.667    7.500    2.333    0.000 
#    0.000    5.833    0.000    0.000    0.000    0.000 
#    0.000    0.000    0.000    0.000    0.000    0.000 
#
# Total GULP energy -134153.507259 kJ/mol
# GULP energy per Si atom -5589.729469 kJ/mol
# Density = 2.167523 g / cm^3
# Si number density = 21.724680 Si / 1000 Ang^3
#
#
#
# Elastic Constant Matrix: (Units=GPa)
#
#
# Indices 1 2 3 4 5 6 
#
# 1 53.7451 16.4516 20.4011 0.0000 3.8429 0.0002
# 2 16.4516 71.9043 43.3223 0.0000 9.8810 0.0005
# 3 20.4011 43.3223 140.6277 -0.0001 14.9173 -0.0001
# 4 0.0000 0.0000 -0.0001 37.8154 0.0000 12.9118
# 5 3.8429 9.8810 14.9173 0.0000 35.2454 0.0001
# 6 0.0002 0.0005 -0.0001 12.9118 0.0001 26.9068
#
#
#
# Elastic Compliance Matrix: (Units=1/GPa)
#
#
# Indices 1 2 3 4 5 6 
#
# 1 0.020407 -0.003501 -0.001832 0.000000 -0.000468 0.000000
# 2 -0.003501 0.017923 -0.004734 0.000000 -0.002640 0.000000
# 3 -0.001832 -0.004734 0.009081 0.000000 -0.002317 0.000000
# 4 0.000000 0.000000 0.000000 0.031626 0.000000 -0.015176
# 5 -0.000468 -0.002640 -0.002317 0.000000 0.030144 0.000000
# 6 0.000000 0.000000 0.000000 -0.015176 0.000000 0.044448
#
#
# Mechanical properties :
#
#
# Convention : Reuss Voigt Hill
#
# Bulk Modulus (GPa) = 36.66043 47.40301 42.03172
# Shear Modulus (GPa) = 27.34410 32.40033 29.87221
#
# Velocity S-wave (km/s) = 3.55162 3.86606 3.71217
# Velocity P-wave (km/s) = 5.80778 6.46497 6.14517
#
# Compressibility (1/GPa) = 0.02727737
#
# Stress axis : x y z
#
# Youngs Moduli (GPa) = 49.00287 55.79404 110.12274
#
# Poissons Ratio (x) = 0.19532 0.20178
# Poissons Ratio (y) = 0.17155 0.52128
# Poissons Ratio (z) = 0.08979 0.26411
#
# Static dielectric constant tensor:
#      x y z
#    x 1.791320 0.000000 0.011450 
#    y 0.000000 1.792140 0.000000 
#    z 0.011450 0.000000 1.801620 
# 
# From -- ./inp_files/276203.got.cif
#   From: 2010.05.17/outbox.cif.g08.bks.cpg/sg15_139_cif.got.tgz:276203.got - 2010.06.03 18:47:42.
