data_PCOD9265707
_publ_section_title
;
Structure prediction by ZEFSAII (Michael W. Deem and Ramdas Pophale) SiO2 
 PCOD9265707
Probable space group: C 2/C
;
_chemical_formula_sum "Si O2"
_cell_formula_units_Z 40
_cell_length_a 15.496537
_cell_length_b 18.003642
_cell_length_c 5.403328
_cell_angle_alpha 90.000000
_cell_angle_beta 107.813172
_cell_angle_gamma 90.000000
_cell_volume 1435.225894
_symmetry_space_group_name_H-M "C 2/C"
_symmetry_group_IT_number 15
_symmetry_cell_setting 'monoclinic'
loop_
_space_group_symop_operation_xyz
x,y,z
-x,y,1/2-z
-x,-y,-z
x,-y,1/2+z
1/2+x,1/2+y,z
1/2-x,1/2+y,1/2-z
1/2-x,1/2-y,-z
1/2+x,1/2-y,1/2+z
loop_
_atom_site_type_symbol
_atom_site_label
_atom_site_fract_x
_atom_site_fract_y
_atom_site_fract_z
Si Si1 0.727417 0.190186 0.770546
Si Si2 0.596569 0.271727 0.259046
Si Si3 0.414589 0.447655 0.771784
Si Si4 0.258266 0.044124 0.189492
Si Si5 0.587374 0.878957 0.461663
O O1 0.659456 0.228508 0.514688
O O2 0.828268 0.170526 0.769216
O O3 0.750000 0.250000 0.000000
O O4 0.833116 0.373399 0.168572
O O5 0.500000 0.304624 0.250000
O O6 0.569741 0.204179 0.048290
O O7 0.500000 0.398392 0.750000
O O8 0.417595 0.502150 0.529337
O O9 0.323750 0.403235 0.775507
O O10 0.360226 0.075377 0.285237
O O11 0.247354 0.015438 0.902163
O O12 0.500000 0.909558 0.250000
#
# Coordination Sequence:
#
# PCOD9265707 Si02
#       5
#     8   8   8   8   8
#     4   9  20  36  58  89 115 151 195 252 304 380
#     4  10  19  36  64  88 115 156 199 246 311 380
#     4   8  14  29  53  74  96 138 189 240 298 350
#     4  10  23  38  57  86 122 164 211 263 300 348
#     4  11  22  36  59  84 121 164 207 246 310 371
#
# _framework density 27.870173999999999
#
# number of rings (size 3 to 8) (size 9 to 14) (size 15 to 20)
#    0.000    2.400    2.000    0.000    2.800    0.800 
#    0.000    0.000   13.200    1.200    0.000    0.000 
#    0.000    0.000    0.000    0.000    0.000    0.000 
#
# Total GULP energy -111523.072608 kJ/mol
# GULP energy per Si atom -5576.153630 kJ/mol
# Density = 2.780674 g / cm^3
# Si number density = 27.870174 Si / 1000 Ang^3
#
#
#
# Elastic Constant Matrix: (Units=GPa)
#
#
# Indices 1 2 3 4 5 6 
#
# 1 214.3894 25.9753 48.5788 0.0000 20.2239 0.0000
# 2 25.9753 46.7828 29.6077 0.0000 -17.1749 0.0000
# 3 48.5788 29.6077 155.4166 0.0000 -13.3623 0.0000
# 4 0.0000 0.0000 0.0000 52.4605 0.0000 -12.5700
# 5 20.2239 -17.1749 -13.3623 0.0000 42.5759 0.0000
# 6 0.0000 0.0000 0.0000 -12.5700 0.0000 29.2319
#
#
#
# Elastic Compliance Matrix: (Units=1/GPa)
#
#
# Indices 1 2 3 4 5 6 
#
# 1 0.005988 -0.004218 -0.001500 0.000000 -0.005017 0.000000
# 2 -0.004218 0.030766 -0.003395 0.000000 0.013349 0.000000
# 3 -0.001500 -0.003395 0.007701 0.000000 0.001760 0.000000
# 4 0.000000 0.000000 0.000000 0.021252 0.000000 0.009138
# 5 -0.005017 0.013349 0.001760 0.000000 0.031807 0.000000
# 6 0.000000 0.000000 0.000000 0.009138 0.000000 0.038139
#
#
# Mechanical properties :
#
#
# Convention : Reuss Voigt Hill
#
# Bulk Modulus (GPa) = 38.12247 69.43469 53.77858
# Shear Modulus (GPa) = 30.74607 45.68214 38.21411
#
# Velocity S-wave (km/s) = 3.32503 4.05298 3.70692
# Velocity P-wave (km/s) = 5.33380 6.84616 6.13675
#
# Compressibility (1/GPa) = 0.02623125
#
# Stress axis : x y z
#
# Youngs Moduli (GPa) = 166.98844 32.50297 129.85046
#
# Poissons Ratio (x) = 0.13708 0.19473
# Poissons Ratio (y) = 0.70428 0.44087
# Poissons Ratio (z) = 0.25043 0.11035
#
# Static dielectric constant tensor:
#      x y z
#    x 2.468540 0.000000 0.259440 
#    y 0.000000 2.222380 0.000000 
#    z 0.259440 0.000000 2.600050 
# 
# From -- ./inp_files/7663.got.cif
#   From: 2010.05.17/outbox.cif.g08.bks.cpg/sg15_4_cif.got.tgz:7663.got - 2010.06.03 18:47:42.
