data_PCOD9265792
_publ_section_title
;
Structure prediction by ZEFSAII (Michael W. Deem and Ramdas Pophale) SiO2 
 PCOD9265792
Probable space group: C 2/C
;
_chemical_formula_sum "Si O2"
_cell_formula_units_Z 48
_cell_length_a 13.907818
_cell_length_b 11.764405
_cell_length_c 14.042654
_cell_angle_alpha 90.000000
_cell_angle_beta 120.660464
_cell_angle_gamma 90.000000
_cell_volume 1976.422548
_symmetry_space_group_name_H-M "C 2/C"
_symmetry_group_IT_number 15
_symmetry_cell_setting 'monoclinic'
loop_
_space_group_symop_operation_xyz
x,y,z
-x,y,1/2-z
-x,-y,-z
x,-y,1/2+z
1/2+x,1/2+y,z
1/2-x,1/2+y,1/2-z
1/2-x,1/2-y,-z
1/2+x,1/2-y,1/2+z
loop_
_atom_site_type_symbol
_atom_site_label
_atom_site_fract_x
_atom_site_fract_y
_atom_site_fract_z
Si Si1 0.800899 0.313403 0.898234
Si Si2 0.160755 0.822977 0.515501
Si Si3 0.870559 0.991892 0.155270
Si Si4 0.781816 0.325214 0.296531
Si Si5 0.003427 0.644498 0.138751
Si Si6 0.974072 0.607397 0.626399
O O1 0.694565 0.391359 0.864275
O O2 0.760813 0.196145 0.831472
O O3 0.878597 0.368074 0.853930
O O4 0.881415 0.314748 0.030438
O O5 0.250000 0.750000 0.500000
O O6 0.146412 0.944854 0.460963
O O7 0.198382 0.797548 0.641540
O O8 0.048356 0.753781 0.437526
O O9 0.807028 0.899499 0.190292
O O10 0.000000 0.998422 0.250000
O O11 0.904908 0.378010 0.360548
O O12 0.000000 0.666114 0.250000
O O13 0.939125 0.524735 0.094749
O O14 0.000000 0.627787 0.750000
#
# Coordination Sequence:
#
# PCOD9265792 Si02
#       6
#     8   8   8   8   8   8
#     4  12  24  42  70 100 143 181 228 295 343 408
#     4  10  19  36  67 101 136 172 229 281 339 401
#     4  11  24  43  67 106 142 178 231 292 347 403
#     4  11  23  42  69 101 137 186 229 280 351 411
#     4  11  20  38  69 105 132 177 229 283 342 399
#     4  11  24  42  69 100 136 181 237 282 340 420
#
# _framework density 24.286306
#
# number of rings (size 3 to 8) (size 9 to 14) (size 15 to 20)
#    0.000    1.000    3.333    6.000    0.000    2.667 
#    0.000    0.833    0.000    0.000    0.000    0.000 
#    0.000    0.000    0.000    0.000    0.000    0.000 
#
# Total GULP energy -134232.942312 kJ/mol
# GULP energy per Si atom -5593.039263 kJ/mol
# Density = 2.423103 g / cm^3
# Si number density = 24.286306 Si / 1000 Ang^3
#
#
#
# Elastic Constant Matrix: (Units=GPa)
#
#
# Indices 1 2 3 4 5 6 
#
# 1 115.3050 20.5053 41.4066 0.0000 17.4559 0.0000
# 2 20.5053 46.7027 29.5930 0.0000 3.3978 0.0000
# 3 41.4066 29.5930 137.2104 0.0000 -0.0500 0.0000
# 4 0.0000 0.0000 0.0000 19.6711 0.0000 -4.1586
# 5 17.4559 3.3978 -0.0500 0.0000 43.4698 0.0000
# 6 0.0000 0.0000 0.0000 -4.1586 0.0000 31.4522
#
#
#
# Elastic Compliance Matrix: (Units=1/GPa)
#
#
# Indices 1 2 3 4 5 6 
#
# 1 0.010731 -0.002734 -0.002650 0.000000 -0.004099 0.000000
# 2 -0.002734 0.025664 -0.004710 0.000000 -0.000913 0.000000
# 3 -0.002650 -0.004710 0.009104 0.000000 0.001443 0.000000
# 4 0.000000 0.000000 0.000000 0.052298 0.000000 0.006915
# 5 -0.004099 -0.000913 0.001443 0.000000 0.024723 0.000000
# 6 0.000000 0.000000 0.000000 0.006915 0.000000 0.032709
#
#
# Mechanical properties :
#
#
# Convention : Reuss Voigt Hill
#
# Bulk Modulus (GPa) = 39.51046 53.58088 46.54567
# Shear Modulus (GPa) = 27.19543 32.76615 29.98079
#
# Velocity S-wave (km/s) = 3.34995 3.67708 3.51732
# Velocity P-wave (km/s) = 5.59167 6.33545 5.97515
#
# Compressibility (1/GPa) = 0.02530975
#
# Stress axis : x y z
#
# Youngs Moduli (GPa) = 93.18771 38.96574 109.83885
#
# Poissons Ratio (x) = 0.10654 0.29109
# Poissons Ratio (y) = 0.25479 0.51737
# Poissons Ratio (z) = 0.24696 0.18354
#
# Static dielectric constant tensor:
#      x y z
#    x 2.218700 0.000000 0.119370 
#    y 0.000000 1.964650 0.000000 
#    z 0.119370 0.000000 2.059540 
# 
# From -- ./inp_files/152735.got.cif
#   From: 2010.05.17/outbox.cif.g08.bks.cpg/sg15_77_cif.got.tgz:152735.got - 2010.06.03 18:47:42.
