data_PCOD9265678
_publ_section_title
;
Structure prediction by ZEFSAII (Michael W. Deem and Ramdas Pophale) SiO2 
 PCOD9265678
Probable space group: C 2/C
;
_chemical_formula_sum "Si O2"
_cell_formula_units_Z 60
_cell_length_a 16.445155
_cell_length_b 15.512264
_cell_length_c 11.833443
_cell_angle_alpha 90.000000
_cell_angle_beta 74.294522
_cell_angle_gamma 90.000000
_cell_volume 2906.028415
_symmetry_space_group_name_H-M "C 2/C"
_symmetry_group_IT_number 15
_symmetry_cell_setting 'monoclinic'
loop_
_space_group_symop_operation_xyz
x,y,z
-x,y,1/2-z
-x,-y,-z
x,-y,1/2+z
1/2+x,1/2+y,z
1/2-x,1/2+y,1/2-z
1/2-x,1/2-y,-z
1/2+x,1/2-y,1/2+z
loop_
_atom_site_type_symbol
_atom_site_label
_atom_site_fract_x
_atom_site_fract_y
_atom_site_fract_z
Si Si1 0.408776 0.397950 0.468791
Si Si2 0.904223 0.766958 0.828707
Si Si3 0.690468 0.755427 0.370895
Si Si4 0.549399 0.083908 0.612385
Si Si5 0.402986 0.090428 0.479597
Si Si6 0.104008 0.095238 0.979189
Si Si7 0.131019 0.815458 0.249729
Si Si8 0.000000 0.313520 0.750000
O O1 0.351052 0.324929 0.548468
O O2 0.379204 0.495298 0.502599
O O3 0.504251 0.394320 0.482472
O O4 0.403009 0.375982 0.338191
O O5 0.847820 0.751736 0.740007
O O6 0.907739 0.676617 0.893526
O O7 0.000000 0.784040 0.750000
O O8 0.878332 0.844573 0.919983
O O9 0.665089 0.845113 0.441952
O O10 0.790586 0.759820 0.323706
O O11 0.500000 0.066565 0.750000
O O12 0.476783 0.088656 0.545500
O O13 0.613040 0.008257 0.550363
O O14 0.440930 0.132262 0.352797
O O15 0.153310 0.129494 0.851034
O O16 0.057254 0.748039 0.305630
#
# Coordination Sequence:
#
# PCOD9265678 Si02
#       8
#     8   8   8   8   8   8   8   4
#     4  11  23  42  71  99 132 175 229 281 333 400
#     4  11  21  42  69  93 132 174 215 272 335 403
#     4  12  24  43  66  97 138 174 217 277 347 394
#     4  10  19  36  63  94 123 163 217 259 317 394
#     4  11  21  37  62  96 121 167 217 265 322 395
#     4  11  24  43  72  99 129 178 232 274 331 408
#     4  12  25  43  65  97 136 172 223 281 337 405
#     4  12  22  40  68  88 124 172 224 270 332 400
#
# _framework density 20.646736000000001
#
# number of rings (size 3 to 8) (size 9 to 14) (size 15 to 20)
#    0.000    0.800    7.333    1.200    1.867    0.533 
#    2.400    4.000    0.000    0.000    0.000    0.000 
#    0.000    0.000    0.000    0.000    0.000    0.000 
#
# Total GULP energy -167635.384635 kJ/mol
# GULP energy per Si atom -5587.846155 kJ/mol
# Density = 2.059974 g / cm^3
# Si number density = 20.646736 Si / 1000 Ang^3
#
#
#
# Elastic Constant Matrix: (Units=GPa)
#
#
# Indices 1 2 3 4 5 6 
#
# 1 34.0670 -2.9862 -6.8162 0.0000 -4.2278 0.0000
# 2 -2.9862 111.6416 18.1905 0.0000 -13.0282 0.0000
# 3 -6.8162 18.1905 57.9545 0.0000 11.1875 0.0000
# 4 0.0000 0.0000 0.0000 25.6038 0.0000 15.2844
# 5 -4.2278 -13.0282 11.1875 0.0000 28.6338 0.0000
# 6 0.0000 0.0000 0.0000 15.2844 0.0000 13.1475
#
#
#
# Elastic Compliance Matrix: (Units=1/GPa)
#
#
# Indices 1 2 3 4 5 6 
#
# 1 0.030422 0.000848 0.002563 0.000000 0.003876 0.000000
# 2 0.000848 0.010484 -0.004473 0.000000 0.006643 0.000000
# 3 0.002563 -0.004473 0.020853 0.000000 -0.009804 0.000000
# 4 0.000000 0.000000 0.000000 0.127630 0.000000 -0.148374
# 5 0.003876 0.006643 -0.009804 0.000000 0.042349 0.000000
# 6 0.000000 0.000000 0.000000 -0.148374 0.000000 0.248551
#
#
# Mechanical properties :
#
#
# Convention : Reuss Voigt Hill
#
# Bulk Modulus (GPa) = 16.76822 24.49324 20.63073
# Shear Modulus (GPa) = 9.95439 26.49538 18.22488
#
# Velocity S-wave (km/s) = 2.19813 3.58616 2.97425
# Velocity P-wave (km/s) = 3.81857 5.38852 4.66999
#
# Compressibility (1/GPa) = 0.05963662
#
# Stress axis : x y z
#
# Youngs Moduli (GPa) = 32.87065 95.38326 47.95454
#
# Poissons Ratio (x) = -0.08092 -0.12293
# Poissons Ratio (y) = -0.02789 0.21451
# Poissons Ratio (z) = -0.08426 0.42668
#
# Static dielectric constant tensor:
#      x y z
#    x 1.727920 0.000000 -0.006710 
#    y 0.000000 1.752810 0.000000 
#    z -0.006710 0.000000 1.754570 
# 
# From -- ./inp_files/105698.got.cif
#   From: 2010.05.17/outbox.cif.g08.bks.cpg/sg15_53_cif.got.tgz:105698.got - 2010.06.03 18:47:42.
