data_PCOD9265197
_publ_section_title
;
Structure prediction by ZEFSAII (Michael W. Deem and Ramdas Pophale) SiO2 
 PCOD9265197
Probable space group: C 2/C
;
_chemical_formula_sum "Si O2"
_cell_formula_units_Z 60
_cell_length_a 8.413029
_cell_length_b 23.442456
_cell_length_c 19.004842
_cell_angle_alpha 90.000000
_cell_angle_beta 127.338918
_cell_angle_gamma 90.000000
_cell_volume 2980.029626
_symmetry_space_group_name_H-M "C 2/C"
_symmetry_group_IT_number 15
_symmetry_cell_setting 'monoclinic'
loop_
_space_group_symop_operation_xyz
x,y,z
-x,y,1/2-z
-x,-y,-z
x,-y,1/2+z
1/2+x,1/2+y,z
1/2-x,1/2+y,1/2-z
1/2-x,1/2-y,-z
1/2+x,1/2-y,1/2+z
loop_
_atom_site_type_symbol
_atom_site_label
_atom_site_fract_x
_atom_site_fract_y
_atom_site_fract_z
Si Si1 0.911516 0.084121 0.081582
Si Si2 0.424184 0.298411 0.811036
Si Si3 0.000000 0.255660 0.750000
Si Si4 0.445444 0.392512 0.440086
Si Si5 0.950222 0.034512 0.656578
Si Si6 0.446981 0.103455 0.940296
Si Si7 0.542223 0.172493 0.843728
Si Si8 0.277956 0.302238 0.058622
O O1 0.991275 0.145509 0.128376
O O2 0.969562 0.032581 0.147969
O O3 0.994959 0.074673 0.025027
O O4 0.670261 0.082345 0.011906
O O5 0.500000 0.302627 0.750000
O O6 0.511447 0.237337 0.860511
O O7 0.185002 0.290854 0.763742
O O8 0.902356 0.217473 0.661157
O O9 0.414579 0.434255 0.365868
O O10 0.263129 0.351485 0.411262
O O11 0.608304 0.349170 0.456083
O O12 0.723601 0.058499 0.584948
O O13 0.000000 0.048662 0.750000
O O14 0.413717 0.125940 0.851567
O O15 0.420679 0.163733 0.973524
O O16 0.500000 0.172503 0.750000
O O17 0.250000 0.250000 0.000000
#
# Coordination Sequence:
#
# PCOD9265197 Si02
#       8
#     8   8   4   8   8   8   8   8
#     4  11  24  44  62  94 132 180 218 276 343 417
#     4  11  24  40  67  97 141 181 219 276 339 415
#     4  12  24  42  68 100 146 178 236 274 344 424
#     4  10  23  36  65  87 129 164 222 276 328 399
#     4  11  23  43  67  92 125 173 229 280 339 404
#     4  10  23  37  66  93 128 166 225 272 336 398
#     4  10  19  36  58  93 125 163 207 264 332 384
#     4  11  23  38  61  99 132 178 212 276 341 407
#
# _framework density 20.134027
#
# number of rings (size 3 to 8) (size 9 to 14) (size 15 to 20)
#    0.000    1.333    1.333    4.400    7.467    1.067 
#    0.000    0.000    7.333    0.000    0.000    0.000 
#    0.000    0.000    0.000    0.000    0.000    0.000 
#
# Total GULP energy -167218.512104 kJ/mol
# GULP energy per Si atom -5573.950403 kJ/mol
# Density = 2.008820 g / cm^3
# Si number density = 20.134027 Si / 1000 Ang^3
#
#
#
# Elastic Constant Matrix: (Units=GPa)
#
#
# Indices 1 2 3 4 5 6 
#
# 1 103.0320 31.3318 27.6147 0.0000 -11.4640 0.0000
# 2 31.3318 85.2984 12.0697 0.0000 1.5699 0.0000
# 3 27.6147 12.0697 40.4320 0.0000 -9.4410 0.0000
# 4 0.0000 0.0000 0.0000 54.2928 0.0000 -47.0100
# 5 -11.4640 1.5699 -9.4410 0.0000 28.5697 0.0000
# 6 0.0000 0.0000 0.0000 -47.0100 0.0000 104.4355
#
#
#
# Elastic Compliance Matrix: (Units=1/GPa)
#
#
# Indices 1 2 3 4 5 6 
#
# 1 0.013132 -0.003880 -0.007077 0.000000 0.003144 0.000000
# 2 -0.003880 0.013498 -0.002076 0.000000 -0.002985 0.000000
# 3 -0.007077 -0.002076 0.032020 0.000000 0.007856 0.000000
# 4 0.000000 0.000000 0.000000 0.030182 0.000000 0.013586
# 5 0.003144 -0.002985 0.007856 0.000000 0.039024 0.000000
# 6 0.000000 0.000000 0.000000 0.013586 0.000000 0.015691
#
#
# Mechanical properties :
#
#
# Convention : Reuss Voigt Hill
#
# Bulk Modulus (GPa) = 30.68984 41.19945 35.94464
# Shear Modulus (GPa) = 27.70478 47.97601 37.84039
#
# Velocity S-wave (km/s) = 3.71350 4.88672 4.33994
# Velocity P-wave (km/s) = 5.80195 7.23513 6.55781
#
# Compressibility (1/GPa) = 0.03258408
#
# Stress axis : x y z
#
# Youngs Moduli (GPa) = 76.14844 74.08763 31.23022
#
# Poissons Ratio (x) = 0.28748 0.22101
# Poissons Ratio (y) = 0.29548 0.06483
# Poissons Ratio (z) = 0.53888 0.15381
#
# Static dielectric constant tensor:
#      x y z
#    x 1.780780 0.000000 -0.058000 
#    y 0.000000 1.735740 0.000000 
#    z -0.058000 0.000000 1.709060 
# 
# From -- ./inp_files/234090.got.cif
#   From: 2010.05.17/outbox.cif.g08.bks.cpg/sg15_118_cif.got.tgz:234090.got - 2010.06.03 18:47:42.
