data_PCOD9265579
_publ_section_title
;
Structure prediction by ZEFSAII (Michael W. Deem and Ramdas Pophale) SiO2 
 PCOD9265579
Probable space group: C 2/C
;
_chemical_formula_sum "Si O2"
_cell_formula_units_Z 40
_cell_length_a 4.988790
_cell_length_b 27.739998
_cell_length_c 13.945516
_cell_angle_alpha 90.000000
_cell_angle_beta 92.233663
_cell_angle_gamma 90.000000
_cell_volume 1928.439995
_symmetry_space_group_name_H-M "C 2/C"
_symmetry_group_IT_number 15
_symmetry_cell_setting 'monoclinic'
loop_
_space_group_symop_operation_xyz
x,y,z
-x,y,1/2-z
-x,-y,-z
x,-y,1/2+z
1/2+x,1/2+y,z
1/2-x,1/2+y,1/2-z
1/2-x,1/2-y,-z
1/2+x,1/2-y,1/2+z
loop_
_atom_site_type_symbol
_atom_site_label
_atom_site_fract_x
_atom_site_fract_y
_atom_site_fract_z
Si Si1 0.462377 0.188128 0.145625
Si Si2 0.500000 0.010296 0.250000
Si Si3 0.880285 0.104889 0.949779
Si Si4 0.124192 0.584038 0.421307
Si Si5 0.553050 0.706268 0.468731
Si Si6 0.000000 0.057188 0.750000
O O1 0.500000 0.210099 0.250000
O O2 0.355802 0.133529 0.139843
O O3 0.765057 0.184180 0.112997
O O4 0.242965 0.215985 0.077563
O O5 0.566005 0.042604 0.344180
O O6 0.749042 0.977037 0.224761
O O7 0.911221 0.087653 0.841598
O O8 0.598875 0.093521 0.998782
O O9 0.949203 0.162323 0.955876
O O10 0.099572 0.077990 0.018367
O O11 0.750000 0.750000 0.500000
#
# Coordination Sequence:
#
# PCOD9265579 Si02
#       6
#     8   4   8   8   8   4
#     4  10  19  36  62  89 122 150 195 257 318 356
#     4  12  24  38  64  93 124 157 218 254 302 382
#     4  10  23  41  61  85 127 164 203 254 316 360
#     4  10  21  39  63  91 118 161 201 265 307 352
#     4  10  21  38  62  89 119 158 204 252 305 376
#     4  12  26  40  58  89 126 173 204 250 306 378
#
# _framework density 20.742155
#
# number of rings (size 3 to 8) (size 9 to 14) (size 15 to 20)
#    0.000    1.600    1.000    3.600    0.000    4.800 
#    1.800    0.000    8.800    0.000    0.000    0.000 
#    0.000    0.000    0.000    0.000    0.000    0.000 
#
# Total GULP energy -111535.490362 kJ/mol
# GULP energy per Si atom -5576.774518 kJ/mol
# Density = 2.069494 g / cm^3
# Si number density = 20.742155 Si / 1000 Ang^3
#
#
#
# Elastic Constant Matrix: (Units=GPa)
#
#
# Indices 1 2 3 4 5 6 
#
# 1 113.9540 18.8956 5.6384 0.0000 7.8334 0.0000
# 2 18.8956 77.3796 56.5134 0.0000 11.5607 0.0000
# 3 5.6384 56.5134 81.9117 0.0000 10.0969 0.0000
# 4 0.0000 0.0000 0.0000 10.4800 0.0000 2.1945
# 5 7.8334 11.5607 10.0969 0.0000 24.1858 0.0000
# 6 0.0000 0.0000 0.0000 2.1945 0.0000 22.5906
#
#
#
# Elastic Compliance Matrix: (Units=1/GPa)
#
#
# Indices 1 2 3 4 5 6 
#
# 1 0.009396 -0.003404 0.001978 0.000000 -0.002242 0.000000
# 2 -0.003404 0.027922 -0.018471 0.000000 -0.004533 0.000000
# 3 0.001978 -0.018471 0.025098 0.000000 -0.002289 0.000000
# 4 0.000000 0.000000 0.000000 0.097401 0.000000 -0.009462
# 5 -0.002242 -0.004533 -0.002289 0.000000 0.045195 0.000000
# 6 0.000000 0.000000 0.000000 -0.009462 0.000000 0.045185
#
#
# Mechanical properties :
#
#
# Convention : Reuss Voigt Hill
#
# Bulk Modulus (GPa) = 44.20492 48.37111 46.28802
# Shear Modulus (GPa) = 16.80483 24.26447 20.53465
#
# Velocity S-wave (km/s) = 2.84945 3.42397 3.14983
# Velocity P-wave (km/s) = 5.67307 6.24517 5.96598
#
# Compressibility (1/GPa) = 0.02262191
#
# Stress axis : x y z
#
# Youngs Moduli (GPa) = 106.42592 35.81394 39.84359
#
# Poissons Ratio (x) = 0.12193 -0.07883
# Poissons Ratio (y) = 0.36232 0.73596
# Poissons Ratio (z) = -0.21055 0.66153
#
# Static dielectric constant tensor:
#      x y z
#    x 1.726720 0.000000 0.001770 
#    y 0.000000 1.825030 0.000000 
#    z 0.001770 0.000000 1.769120 
# 
# From -- ./inp_files/73275.got.cif
#   From: 2010.05.17/outbox.cif.g08.bks.cpg/sg15_37_cif.got.tgz:73275.got - 2010.06.03 18:47:42.
