data_PCOD9265625
_publ_section_title
;
Structure prediction by ZEFSAII (Michael W. Deem and Ramdas Pophale) SiO2 
 PCOD9265625
Probable space group: C 2/C
;
_chemical_formula_sum "Si O2"
_cell_formula_units_Z 56
_cell_length_a 17.212093
_cell_length_b 7.419779
_cell_length_c 29.174899
_cell_angle_alpha 90.000000
_cell_angle_beta 135.617439
_cell_angle_gamma 90.000000
_cell_volume 2606.082201
_symmetry_space_group_name_H-M "C 2/C"
_symmetry_group_IT_number 15
_symmetry_cell_setting 'monoclinic'
loop_
_space_group_symop_operation_xyz
x,y,z
-x,y,1/2-z
-x,-y,-z
x,-y,1/2+z
1/2+x,1/2+y,z
1/2-x,1/2+y,1/2-z
1/2-x,1/2-y,-z
1/2+x,1/2-y,1/2+z
loop_
_atom_site_type_symbol
_atom_site_label
_atom_site_fract_x
_atom_site_fract_y
_atom_site_fract_z
Si Si1 0.583848 0.496698 0.752413
Si Si2 0.316873 0.206384 0.638636
Si Si3 0.537803 0.995930 0.377037
Si Si4 0.671587 0.590576 0.653185
Si Si5 0.037618 0.090693 0.884963
Si Si6 0.729878 0.925556 0.522184
Si Si7 0.795988 0.505368 0.293794
O O1 0.500000 0.603997 0.750000
O O2 0.615576 0.317541 0.794389
O O3 0.512963 0.465913 0.676519
O O4 0.700449 0.581259 0.785565
O O5 0.230747 0.078787 0.629337
O O6 0.246135 0.355656 0.580547
O O7 0.395258 0.100083 0.635887
O O8 0.520991 0.206867 0.359615
O O9 0.416163 0.917864 0.337098
O O10 0.612763 0.995027 0.454771
O O11 0.540447 0.555577 0.604042
O O12 0.738969 0.481255 0.720056
O O13 0.684874 0.798661 0.675798
O O14 0.167037 0.055340 0.945408
O O15 0.750000 0.750000 0.500000
#
# Coordination Sequence:
#
# PCOD9265625 Si02
#       7
#     8   8   8   8   8   8   8
#     4  10  19  36  63  81 113 152 186 234 284 350
#     4  10  21  37  60  88 109 149 202 230 283 348
#     4  10  22  37  57  87 118 149 189 243 283 336
#     4   9  20  37  56  83 116 148 184 242 285 345
#     4  10  20  40  59  82 119 152 186 239 300 323
#     4  10  21  37  63  81 112 161 197 229 282 349
#     4   9  20  34  54  83 113 146 182 229 297 330
#
# _framework density 21.488194
#
# number of rings (size 3 to 8) (size 9 to 14) (size 15 to 20)
#    0.000    2.286    1.429    0.429    4.000    1.143 
#    7.714    9.286    0.000    0.000    0.000    0.000 
#    0.000    0.000    0.000    0.000    0.000    0.000 
#
# Total GULP energy -156044.749571 kJ/mol
# GULP energy per Si atom -5573.026770 kJ/mol
# Density = 2.143929 g / cm^3
# Si number density = 21.488194 Si / 1000 Ang^3
#
#
#
# Elastic Constant Matrix: (Units=GPa)
#
#
# Indices 1 2 3 4 5 6 
#
# 1 197.6208 25.1553 41.1056 0.0000 27.8644 0.0000
# 2 25.1553 43.6424 12.2354 0.0000 -0.8743 0.0001
# 3 41.1056 12.2354 57.4178 0.0000 22.4878 0.0000
# 4 0.0000 0.0000 0.0000 16.9963 0.0000 -1.0442
# 5 27.8644 -0.8743 22.4878 0.0000 27.6094 0.0000
# 6 0.0000 0.0001 0.0000 -1.0442 0.0000 25.2391
#
#
#
# Elastic Compliance Matrix: (Units=1/GPa)
#
#
# Indices 1 2 3 4 5 6 
#
# 1 0.006635 -0.003364 -0.002010 0.000000 -0.005166 0.000000
# 2 -0.003364 0.027133 -0.007401 0.000000 0.010282 0.000000
# 3 -0.002010 -0.007401 0.028971 0.000000 -0.021803 0.000000
# 4 0.000000 0.000000 0.000000 0.058986 0.000000 0.002440
# 5 -0.005166 0.010282 -0.021803 0.000000 0.059517 0.000000
# 6 0.000000 0.000000 0.000000 0.002440 0.000000 0.039722
#
#
# Mechanical properties :
#
#
# Convention : Reuss Voigt Hill
#
# Bulk Modulus (GPa) = 26.88888 50.63043 38.75965
# Shear Modulus (GPa) = 19.31164 28.64793 23.97978
#
# Velocity S-wave (km/s) = 3.00110 3.65525 3.34421
# Velocity P-wave (km/s) = 4.95472 6.43643 5.74356
#
# Compressibility (1/GPa) = 0.03719010
#
# Stress axis : x y z
#
# Youngs Moduli (GPa) = 150.71927 36.85486 34.51692
#
# Poissons Ratio (x) = 0.12399 0.06937
# Poissons Ratio (y) = 0.50707 0.25545
# Poissons Ratio (z) = 0.30292 0.27275
#
# Static dielectric constant tensor:
#      x y z
#    x 1.829860 0.000000 -0.040950 
#    y 0.000000 1.877910 0.000000 
#    z -0.040950 0.000000 1.642410 
# 
# From -- ./inp_files/315548.got.cif
#   From: 2010.05.17/outbox.cif.g08.bks.cpg/sg15_158_cif.got.tgz:315548.got - 2010.06.03 18:47:42.
