data_PCOD9265219
_publ_section_title
;
Structure prediction by ZEFSAII (Michael W. Deem and Ramdas Pophale) SiO2 
 PCOD9265219
Probable space group: C 2/C
;
_chemical_formula_sum "Si O2"
_cell_formula_units_Z 48
_cell_length_a 16.103837
_cell_length_b 9.398892
_cell_length_c 28.215291
_cell_angle_alpha 90.000000
_cell_angle_beta 145.002877
_cell_angle_gamma 90.000000
_cell_volume 2449.349248
_symmetry_space_group_name_H-M "C 2/C"
_symmetry_group_IT_number 15
_symmetry_cell_setting 'monoclinic'
loop_
_space_group_symop_operation_xyz
x,y,z
-x,y,1/2-z
-x,-y,-z
x,-y,1/2+z
1/2+x,1/2+y,z
1/2-x,1/2+y,1/2-z
1/2-x,1/2-y,-z
1/2+x,1/2-y,1/2+z
loop_
_atom_site_type_symbol
_atom_site_label
_atom_site_fract_x
_atom_site_fract_y
_atom_site_fract_z
Si Si1 0.112399 0.179140 0.341754
Si Si2 0.176301 0.175123 0.009919
Si Si3 0.579036 0.786899 0.425139
Si Si4 0.114059 0.479611 0.011793
Si Si5 0.551359 0.536685 0.077667
Si Si6 0.331975 0.991559 0.161056
O O1 0.028456 0.237469 0.349420
O O2 0.234219 0.061359 0.408142
O O3 0.186341 0.323261 0.356727
O O4 0.000000 0.127580 0.250000
O O5 0.132715 0.311511 0.019570
O O6 0.280905 0.074991 0.090008
O O7 0.250000 0.250000 0.000000
O O8 0.034705 0.081024 0.931866
O O9 0.750000 0.750000 0.500000
O O10 0.563750 0.946116 0.438548
O O11 0.506165 0.685698 0.430016
O O12 0.000000 0.500000 0.000000
O O13 0.723847 0.532037 0.153231
O O14 0.500000 0.500000 0.000000
O O15 0.500000 0.018201 0.250000
#
# Coordination Sequence:
#
# PCOD9265219 Si02
#       6
#     8   8   8   8   8   8
#     4  10  21  39  57  77 112 156 192 230 282 343
#     4  11  20  33  57  86 111 140 185 240 283 332
#     4  10  19  36  59  82 109 149 191 227 278 348
#     4  11  20  33  57  86 111 140 185 240 283 332
#     4  10  19  36  59  82 109 149 191 227 278 348
#     4  10  21  39  57  77 112 156 192 230 282 343
#
# _framework density 19.597041999999998
#
# number of rings (size 3 to 8) (size 9 to 14) (size 15 to 20)
#    0.000    1.667    0.000   10.000    0.000    0.667 
#    0.000    8.333    0.000    0.000    0.000    0.000 
#    0.000    0.000    0.000    0.000    0.000    0.000 
#
# Total GULP energy -133808.006403 kJ/mol
# GULP energy per Si atom -5575.333600 kJ/mol
# Density = 1.955244 g / cm^3
# Si number density = 19.597042 Si / 1000 Ang^3
#
#
#
# Elastic Constant Matrix: (Units=GPa)
#
#
# Indices 1 2 3 4 5 6 
#
# 1 78.2232 -12.7127 16.3831 0.0000 14.0713 0.0000
# 2 -12.7127 70.5701 10.5811 0.0000 17.1920 0.0000
# 3 16.3831 10.5811 71.1641 0.0000 9.1865 0.0000
# 4 0.0000 0.0000 0.0000 20.9078 0.0000 1.0003
# 5 14.0713 17.1920 9.1865 0.0000 31.3368 0.0000
# 6 0.0000 0.0000 0.0000 1.0003 0.0000 50.9989
#
#
#
# Elastic Compliance Matrix: (Units=1/GPa)
#
#
# Indices 1 2 3 4 5 6 
#
# 1 0.016091 0.005680 -0.003340 0.000000 -0.009362 0.000000
# 2 0.005680 0.018483 -0.002513 0.000000 -0.011954 0.000000
# 3 -0.003340 -0.002513 0.015406 0.000000 -0.001638 0.000000
# 4 0.000000 0.000000 0.000000 0.047874 0.000000 -0.000939
# 5 -0.009362 -0.011954 -0.001638 0.000000 0.043154 0.000000
# 6 0.000000 0.000000 0.000000 -0.000939 0.000000 0.019627
#
#
# Mechanical properties :
#
#
# Convention : Reuss Voigt Hill
#
# Bulk Modulus (GPa) = 20.14745 27.60671 23.87708
# Shear Modulus (GPa) = 28.16520 34.36242 31.26381
#
# Velocity S-wave (km/s) = 3.79518 4.19196 3.99849
# Velocity P-wave (km/s) = 5.43210 6.12763 5.79032
#
# Compressibility (1/GPa) = 0.04963408
#
# Stress axis : x y z
#
# Youngs Moduli (GPa) = 62.14698 54.10523 64.90946
#
# Poissons Ratio (x) = -0.30734 0.21682
# Poissons Ratio (y) = -0.35302 0.16310
# Poissons Ratio (z) = 0.20759 0.13595
#
# Static dielectric constant tensor:
#      x y z
#    x 1.878730 0.000000 -0.069700 
#    y 0.000000 1.860400 0.000000 
#    z -0.069700 0.000000 1.750780 
# 
# From -- ./inp_files/295462.got.cif
#   From: 2010.05.17/outbox.cif.g08.bks.cpg/sg15_148_cif.got.tgz:295462.got - 2010.06.03 18:47:42.
