data_PCOD9265263
_publ_section_title
;
Structure prediction by ZEFSAII (Michael W. Deem and Ramdas Pophale) SiO2 
 PCOD9265263
Probable space group: C 2/C
;
_chemical_formula_sum "Si O2"
_cell_formula_units_Z 64
_cell_length_a 22.920625
_cell_length_b 24.578278
_cell_length_c 10.585784
_cell_angle_alpha 90.000000
_cell_angle_beta 29.611931
_cell_angle_gamma 90.000000
_cell_volume 2946.700055
_symmetry_space_group_name_H-M "C 2/C"
_symmetry_group_IT_number 15
_symmetry_cell_setting 'monoclinic'
loop_
_space_group_symop_operation_xyz
x,y,z
-x,y,1/2-z
-x,-y,-z
x,-y,1/2+z
1/2+x,1/2+y,z
1/2-x,1/2+y,1/2-z
1/2-x,1/2-y,-z
1/2+x,1/2-y,1/2+z
loop_
_atom_site_type_symbol
_atom_site_label
_atom_site_fract_x
_atom_site_fract_y
_atom_site_fract_z
Si Si1 0.308554 0.962367 0.070309
Si Si2 0.541821 0.943715 0.486802
Si Si3 0.957189 0.361322 0.474674
Si Si4 0.911362 0.049765 0.699036
Si Si5 0.611699 0.252711 0.451847
Si Si6 0.174131 0.189861 0.349206
Si Si7 0.749494 0.426178 0.767839
Si Si8 0.551167 0.674319 0.853211
O O1 0.191011 0.948157 0.215462
O O2 0.308526 0.028204 0.070177
O O3 0.423565 0.935097 0.793080
O O4 0.337099 0.951275 0.164036
O O5 0.551455 0.890902 0.382457
O O6 0.500000 0.000000 0.500000
O O7 0.919024 0.300410 0.575960
O O8 0.845294 0.401403 0.683646
O O9 0.000000 0.359184 0.250000
O O10 0.967619 0.109899 0.594565
O O11 0.851657 0.047293 0.952391
O O12 0.000000 0.000000 0.500000
O O13 0.500000 0.265049 0.750000
O O14 0.719810 0.232297 0.334723
O O15 0.625658 0.301754 0.328480
O O16 0.213270 0.127089 0.258093
O O17 0.117275 0.185669 0.596791
O O18 0.076211 0.202239 0.428771
#
# Coordination Sequence:
#
# PCOD9265263 Si02
#       8
#     8   8   8   8   8   8   8   8
#     4  11  21  34  56  90 125 158 195 255 317 355
#     4  11  20  34  56  90 127 157 192 254 317 372
#     4  10  19  36  61  87 119 165 203 242 304 380
#     4  11  23  40  61  85 123 171 210 251 299 366
#     4  10  22  40  64  90 122 156 204 259 311 364
#     4   9  20  39  67  90 112 165 208 252 299 372
#     4  10  19  36  59  86 122 156 214 241 293 379
#     4  10  21  42  64  90 121 159 210 257 304 366
#
# _framework density 21.719211999999999
#
# number of rings (size 3 to 8) (size 9 to 14) (size 15 to 20)
#    0.000    1.750    2.500    1.875    0.000    2.000 
#    4.500    2.500    0.000    0.000    0.000    0.000 
#    0.000    0.000    0.000    0.000    0.000    0.000 
#
# Total GULP energy -178367.071155 kJ/mol
# GULP energy per Si atom -5573.970974 kJ/mol
# Density = 2.166978 g / cm^3
# Si number density = 21.719212 Si / 1000 Ang^3
#
#
#
# Elastic Constant Matrix: (Units=GPa)
#
#
# Indices 1 2 3 4 5 6 
#
# 1 75.2877 4.6155 11.1265 -0.0003 -31.2294 0.0003
# 2 4.6155 57.8199 18.9242 0.0000 2.3963 0.0002
# 3 11.1265 18.9242 65.9346 -0.0001 -12.9177 0.0002
# 4 -0.0003 0.0000 -0.0001 21.3015 0.0000 -4.8732
# 5 -31.2294 2.3963 -12.9177 0.0000 32.0681 -0.0001
# 6 0.0003 0.0002 0.0002 -4.8732 -0.0001 17.8498
#
#
#
# Elastic Compliance Matrix: (Units=1/GPa)
#
#
# Indices 1 2 3 4 5 6 
#
# 1 0.022851 -0.003319 0.001634 0.000000 0.023159 0.000000
# 2 -0.003319 0.020041 -0.006643 0.000000 -0.007405 0.000000
# 3 0.001634 -0.006643 0.018681 0.000000 0.009612 0.000000
# 4 0.000000 0.000000 0.000000 0.050072 0.000000 0.013670
# 5 0.023159 -0.007405 0.009612 0.000000 0.058163 0.000000
# 6 0.000000 0.000000 0.000000 0.013670 0.000000 0.059755
#
#
# Mechanical properties :
#
#
# Convention : Reuss Voigt Hill
#
# Bulk Modulus (GPa) = 22.26326 29.81939 26.04133
# Shear Modulus (GPa) = 19.14310 25.20227 22.17269
#
# Velocity S-wave (km/s) = 2.97204 3.41011 3.19859
# Velocity P-wave (km/s) = 4.69576 5.40966 5.06530
#
# Compressibility (1/GPa) = 0.04491705
#
# Stress axis : x y z
#
# Youngs Moduli (GPa) = 43.76202 49.89754 53.53125
#
# Poissons Ratio (x) = 0.16559 -0.08745
# Poissons Ratio (y) = 0.14523 0.35560
# Poissons Ratio (z) = -0.07149 0.33146
#
# Static dielectric constant tensor:
#      x y z
#    x 1.875070 0.000000 0.016830 
#    y 0.000000 1.776060 0.000000 
#    z 0.016830 0.000000 1.904160 
# 
# From -- ./inp_files/120211.got.cif
#   From: 2010.05.17/outbox.cif.g08.bks.cpg/sg15_61_cif.got.tgz:120211.got - 2010.06.03 18:47:42.
