data_PCOD9265005
_publ_section_title
;
Structure prediction by ZEFSAII (Michael W. Deem and Ramdas Pophale) SiO2 
 PCOD9265005
Probable space group: C 2/C
;
_chemical_formula_sum "Si O2"
_cell_formula_units_Z 60
_cell_length_a 11.161831
_cell_length_b 22.706401
_cell_length_c 14.181264
_cell_angle_alpha 90.000000
_cell_angle_beta 58.444233
_cell_angle_gamma 90.000000
_cell_volume 3062.704923
_symmetry_space_group_name_H-M "C 2/C"
_symmetry_group_IT_number 15
_symmetry_cell_setting 'monoclinic'
loop_
_space_group_symop_operation_xyz
x,y,z
-x,y,1/2-z
-x,-y,-z
x,-y,1/2+z
1/2+x,1/2+y,z
1/2-x,1/2+y,1/2-z
1/2-x,1/2-y,-z
1/2+x,1/2-y,1/2+z
loop_
_atom_site_type_symbol
_atom_site_label
_atom_site_fract_x
_atom_site_fract_y
_atom_site_fract_z
Si Si1 0.932092 0.988859 0.427422
Si Si2 0.500000 0.411352 0.750000
Si Si3 0.205061 0.791968 0.198762
Si Si4 0.837175 0.517325 0.568869
Si Si5 0.922951 0.355891 0.014276
Si Si6 0.278036 0.838472 0.872282
Si Si7 0.475790 0.646926 0.894199
Si Si8 0.790360 0.400083 0.682124
O O1 0.761854 0.987944 0.483030
O O2 0.982239 0.923491 0.374558
O O3 0.977367 0.044225 0.346264
O O4 0.000000 0.000000 0.500000
O O5 0.640036 0.374945 0.712771
O O6 0.189470 0.722380 0.194296
O O7 0.120636 0.821516 0.145582
O O8 0.126399 0.821067 0.320476
O O9 0.367578 0.806587 0.108465
O O10 0.842084 0.586237 0.586606
O O11 0.778653 0.469980 0.666478
O O12 0.000000 0.500000 0.500000
O O13 0.868214 0.342517 0.930814
O O14 0.085116 0.372483 0.932047
O O15 0.313769 0.888425 0.782207
O O16 0.115812 0.843812 0.973390
#
# Coordination Sequence:
#
# PCOD9265005 Si02
#       8
#     8   4   8   8   8   8   8   8
#     4  11  20  35  61  87 123 161 206 247 303 378
#     4  10  22  36  54  88 118 160 202 250 304 358
#     4  10  21  32  57  85 124 155 189 253 314 353
#     4   9  19  37  55  83 122 162 197 246 310 359
#     4  10  19  36  56  83 120 154 196 241 314 363
#     4  11  21  34  57  92 120 147 199 250 305 369
#     4  10  20  34  51  87 122 152 190 246 301 355
#     4  10  22  34  57  82 118 156 196 246 304 360
#
# _framework density 19.590526000000001
#
# number of rings (size 3 to 8) (size 9 to 14) (size 15 to 20)
#    0.000    1.867    2.667    3.600    7.467    0.000 
#    0.000    0.000    0.000    0.800    6.933    0.000 
#    0.000    0.000    0.000    0.000    0.000    0.000 
#
# Total GULP energy -167008.360253 kJ/mol
# GULP energy per Si atom -5566.945342 kJ/mol
# Density = 1.954594 g / cm^3
# Si number density = 19.590526 Si / 1000 Ang^3
#
#
#
# Elastic Constant Matrix: (Units=GPa)
#
#
# Indices 1 2 3 4 5 6 
#
# 1 86.7339 13.4755 26.3662 0.0000 -17.9600 0.0000
# 2 13.4755 72.2832 9.0717 0.0000 3.5766 0.0000
# 3 26.3662 9.0717 70.4040 0.0000 -16.0564 0.0000
# 4 0.0000 0.0000 0.0000 24.0419 0.0000 -0.1020
# 5 -17.9600 3.5766 -16.0564 0.0000 34.1580 0.0000
# 6 0.0000 0.0000 0.0000 -0.1020 0.0000 12.3339
#
#
#
# Elastic Compliance Matrix: (Units=1/GPa)
#
#
# Indices 1 2 3 4 5 6 
#
# 1 0.014281 -0.002505 -0.003644 0.000000 0.006058 0.000000
# 2 -0.002505 0.014711 -0.001802 0.000000 -0.003705 0.000000
# 3 -0.003644 -0.001802 0.017257 0.000000 0.006385 0.000000
# 4 0.000000 0.000000 0.000000 0.041596 0.000000 0.000344
# 5 0.006058 -0.003705 0.006385 0.000000 0.035850 0.000000
# 6 0.000000 0.000000 0.000000 0.000344 0.000000 0.081080
#
#
# Mechanical properties :
#
#
# Convention : Reuss Voigt Hill
#
# Bulk Modulus (GPa) = 32.95263 36.36086 34.65674
# Shear Modulus (GPa) = 21.66456 26.14059 23.90257
#
# Velocity S-wave (km/s) = 3.32907 3.65684 3.49680
# Velocity P-wave (km/s) = 5.62442 6.03578 5.83373
#
# Compressibility (1/GPa) = 0.03034659
#
# Stress axis : x y z
#
# Youngs Moduli (GPa) = 70.02399 67.97659 57.94871
#
# Poissons Ratio (x) = 0.17027 0.21115
# Poissons Ratio (y) = 0.17540 0.10444
# Poissons Ratio (z) = 0.25515 0.12252
#
# Static dielectric constant tensor:
#      x y z
#    x 1.807260 0.000000 -0.065350 
#    y 0.000000 1.742280 0.000000 
#    z -0.065350 0.000000 1.759190 
# 
# From -- ./inp_files/147098.got.cif
#   From: 2010.05.17/outbox.cif.g08.bks.cpg/sg15_74_cif.got.tgz:147098.got - 2010.06.03 18:47:42.
