data_PCOD9265540
_publ_section_title
;
Structure prediction by ZEFSAII (Michael W. Deem and Ramdas Pophale) SiO2 
 PCOD9265540
Probable space group: C 2/C
;
_chemical_formula_sum "Si O2"
_cell_formula_units_Z 40
_cell_length_a 16.212399
_cell_length_b 12.283861
_cell_length_c 9.656583
_cell_angle_alpha 90.000000
_cell_angle_beta 92.513508
_cell_angle_gamma 90.000000
_cell_volume 1921.266557
_symmetry_space_group_name_H-M "C 2/C"
_symmetry_group_IT_number 15
_symmetry_cell_setting 'monoclinic'
loop_
_space_group_symop_operation_xyz
x,y,z
-x,y,1/2-z
-x,-y,-z
x,-y,1/2+z
1/2+x,1/2+y,z
1/2-x,1/2+y,1/2-z
1/2-x,1/2-y,-z
1/2+x,1/2-y,1/2+z
loop_
_atom_site_type_symbol
_atom_site_label
_atom_site_fract_x
_atom_site_fract_y
_atom_site_fract_z
Si Si1 0.754669 0.913372 0.093597
Si Si2 0.869152 0.320199 0.223819
Si Si3 0.638801 0.208970 0.361449
Si Si4 0.500835 0.128755 0.524609
Si Si5 0.249519 0.338529 0.621960
O O1 0.704065 0.900424 0.234466
O O2 0.833327 0.834040 0.112947
O O3 0.766278 0.040385 0.072253
O O4 0.696078 0.862114 0.970738
O O5 0.937620 0.338000 0.345860
O O6 0.826037 0.202656 0.223265
O O7 0.911805 0.341120 0.079863
O O8 0.544831 0.185117 0.397230
O O9 0.668280 0.172463 0.211708
O O10 0.500000 0.000000 0.500000
O O11 0.250000 0.250000 0.500000
#
# Coordination Sequence:
#
# PCOD9265540 Si02
#       5
#     8   8   8   8   8
#     4   9  19  37  60  83 121 156 199 256 298 361
#     4   9  21  37  55  92 116 155 200 244 307 358
#     4   9  20  37  58  88 115 158 205 247 307 353
#     4  10  19  36  62  83 120 156 198 252 302 356
#     4  11  23  35  59  90 124 158 204 249 307 367
#
# _framework density 20.819599
#
# number of rings (size 3 to 8) (size 9 to 14) (size 15 to 20)
#    0.000    2.400    0.000    2.400   11.200    0.000 
#    0.000    1.000    0.000    0.000    0.000    0.000 
#    0.000    0.000    0.000    0.000    0.000    0.000 
#
# Total GULP energy -111578.162032 kJ/mol
# GULP energy per Si atom -5578.908102 kJ/mol
# Density = 2.077221 g / cm^3
# Si number density = 20.819599 Si / 1000 Ang^3
#
#
#
# Elastic Constant Matrix: (Units=GPa)
#
#
# Indices 1 2 3 4 5 6 
#
# 1 86.9209 37.1750 47.2077 0.0000 -40.2100 0.0000
# 2 37.1750 165.2535 39.8314 0.0000 -11.1157 0.0000
# 3 47.2077 39.8314 118.6918 0.0000 -26.0023 0.0000
# 4 0.0000 0.0000 0.0000 25.6733 0.0000 -4.6162
# 5 -40.2100 -11.1157 -26.0023 0.0000 50.0474 0.0000
# 6 0.0000 0.0000 0.0000 -4.6162 0.0000 2.4876
#
#
#
# Elastic Compliance Matrix: (Units=1/GPa)
#
#
# Indices 1 2 3 4 5 6 
#
# 1 0.021994 -0.002858 -0.004577 0.000000 0.014658 0.000000
# 2 -0.002858 0.006961 -0.001539 0.000000 -0.001550 0.000000
# 3 -0.004577 -0.001539 0.011151 0.000000 0.001774 0.000000
# 4 0.000000 0.000000 0.000000 0.058455 0.000000 0.108475
# 5 0.014658 -0.001550 0.001774 0.000000 0.032335 0.000000
# 6 0.000000 0.000000 0.000000 0.108475 0.000000 0.603285
#
#
# Mechanical properties :
#
#
# Convention : Reuss Voigt Hill
#
# Bulk Modulus (GPa) = 45.13298 68.81047 56.97172
# Shear Modulus (GPa) = 6.58314 32.08514 19.33414
#
# Velocity S-wave (km/s) = 1.78013 3.92995 3.05068
# Velocity P-wave (km/s) = 5.09415 7.32907 6.31132
#
# Compressibility (1/GPa) = 0.02215675
#
# Stress axis : x y z
#
# Youngs Moduli (GPa) = 45.46700 143.65852 89.68007
#
# Poissons Ratio (x) = 0.41064 0.41050
# Poissons Ratio (y) = 0.12997 0.13799
# Poissons Ratio (z) = 0.20812 0.22104
#
# Static dielectric constant tensor:
#      x y z
#    x 1.801290 0.000000 0.007790 
#    y 0.000000 1.706830 0.000000 
#    z 0.007790 0.000000 1.825770 
# 
# From -- ./inp_files/46207.got.cif
#   From: 2010.05.17/outbox.cif.g08.bks.cpg/sg15_24_cif.got.tgz:46207.got - 2010.06.03 18:47:42.
