data_PCOD9265201
_publ_section_title
;
Structure prediction by ZEFSAII (Michael W. Deem and Ramdas Pophale) SiO2 
 PCOD9265201
Probable space group: C 2/C
;
_chemical_formula_sum "Si O2"
_cell_formula_units_Z 48
_cell_length_a 14.461271
_cell_length_b 20.345199
_cell_length_c 7.730603
_cell_angle_alpha 90.000000
_cell_angle_beta 78.764263
_cell_angle_gamma 90.000000
_cell_volume 2230.885126
_symmetry_space_group_name_H-M "C 2/C"
_symmetry_group_IT_number 15
_symmetry_cell_setting 'monoclinic'
loop_
_space_group_symop_operation_xyz
x,y,z
-x,y,1/2-z
-x,-y,-z
x,-y,1/2+z
1/2+x,1/2+y,z
1/2-x,1/2+y,1/2-z
1/2-x,1/2-y,-z
1/2+x,1/2-y,1/2+z
loop_
_atom_site_type_symbol
_atom_site_label
_atom_site_fract_x
_atom_site_fract_y
_atom_site_fract_z
Si Si1 0.722098 0.094582 0.557868
Si Si2 0.398887 0.347917 0.868516
Si Si3 0.324408 0.966452 0.797400
Si Si4 0.500000 0.532332 0.750000
Si Si5 0.627131 0.427523 0.910524
Si Si6 0.928719 0.698467 0.934585
Si Si7 0.500000 0.877375 0.750000
O O1 0.834780 0.107473 0.517949
O O2 0.694445 0.060638 0.386841
O O3 0.670057 0.164055 0.574925
O O4 0.673282 0.045233 0.709222
O O5 0.500000 0.368005 0.750000
O O6 0.347104 0.360641 0.703041
O O7 0.412079 0.276690 0.942487
O O8 0.227870 0.952775 0.936541
O O9 0.414295 0.926586 0.830546
O O10 0.580054 0.484618 0.805383
O O11 0.551681 0.576759 0.589716
O O12 0.000000 0.685612 0.750000
O O13 0.968531 0.667440 0.098142
#
# Coordination Sequence:
#
# PCOD9265201 Si02
#       7
#     8   8   8   4   8   8   4
#     4  10  22  38  63  92 126 165 207 263 328 374
#     4  10  20  39  62  86 123 168 213 253 306 380
#     4  10  22  36  62  96 129 156 210 269 321 389
#     4  10  20  32  61  91 132 170 206 264 320 382
#     4  10  19  36  58  94 128 167 211 259 320 386
#     4  10  23  42  69  88 126 175 218 264 312 382
#     4  10  24  44  65  97 128 164 220 270 320 378
#
# _framework density 21.516123
#
# number of rings (size 3 to 8) (size 9 to 14) (size 15 to 20)
#    0.000    2.000    0.833    2.500    5.833    1.333 
#    0.000    3.333    7.333   21.000    0.000    0.000 
#    0.000    0.000    0.000    0.000    0.000    0.000 
#
# Total GULP energy -133628.808970 kJ/mol
# GULP energy per Si atom -5567.867040 kJ/mol
# Density = 2.146715 g / cm^3
# Si number density = 21.516123 Si / 1000 Ang^3
#
#
#
# Elastic Constant Matrix: (Units=GPa)
#
#
# Indices 1 2 3 4 5 6 
#
# 1 105.8709 53.8699 21.9961 0.0000 -9.7042 0.0000
# 2 53.8699 120.2216 35.2120 0.0000 -6.3289 0.0000
# 3 21.9961 35.2120 80.7358 0.0000 -9.3607 0.0000
# 4 0.0000 0.0000 0.0000 32.1947 0.0000 -2.8747
# 5 -9.7042 -6.3289 -9.3607 0.0000 20.4225 0.0000
# 6 0.0000 0.0000 0.0000 -2.8747 0.0000 33.0594
#
#
#
# Elastic Compliance Matrix: (Units=1/GPa)
#
#
# Indices 1 2 3 4 5 6 
#
# 1 0.012628 -0.005245 -0.000682 0.000000 0.004063 0.000000
# 2 -0.005245 0.011738 -0.003757 0.000000 -0.000577 0.000000
# 3 -0.000682 -0.003757 0.014826 0.000000 0.005307 0.000000
# 4 0.000000 0.000000 0.000000 0.031304 0.000000 0.002722
# 5 0.004063 -0.000577 0.005307 0.000000 0.053150 0.000000
# 6 0.000000 0.000000 0.000000 0.002722 0.000000 0.030485
#
#
# Mechanical properties :
#
#
# Convention : Reuss Voigt Hill
#
# Bulk Modulus (GPa) = 50.44436 58.77604 54.61020
# Shear Modulus (GPa) = 27.76107 30.18536 28.97322
#
# Velocity S-wave (km/s) = 3.59589 3.74962 3.67356
# Velocity P-wave (km/s) = 6.38251 6.79137 6.59011
#
# Compressibility (1/GPa) = 0.01982382
#
# Stress axis : x y z
#
# Youngs Moduli (GPa) = 79.18714 85.19082 67.44929
#
# Poissons Ratio (x) = 0.44682 0.04600
# Poissons Ratio (y) = 0.41534 0.25344
# Poissons Ratio (z) = 0.05400 0.32010
#
# Static dielectric constant tensor:
#      x y z
#    x 1.961730 0.000000 0.014740 
#    y 0.000000 1.835470 0.000000 
#    z 0.014740 0.000000 1.832060 
# 
# From -- ./inp_files/40729.got.cif
#   From: 2010.05.17/outbox.cif.g08.bks.cpg/sg15_21_cif.got.tgz:40729.got - 2010.06.03 18:47:42.
