data_PCOD9265628
_publ_section_title
;
Structure prediction by ZEFSAII (Michael W. Deem and Ramdas Pophale) SiO2 
 PCOD9265628
Probable space group: C 2/C
;
_chemical_formula_sum "Si O2"
_cell_formula_units_Z 36
_cell_length_a 7.111465
_cell_length_b 12.178976
_cell_length_c 18.757040
_cell_angle_alpha 90.000000
_cell_angle_beta 69.415171
_cell_angle_gamma 90.000000
_cell_volume 1520.830572
_symmetry_space_group_name_H-M "C 2/C"
_symmetry_group_IT_number 15
_symmetry_cell_setting 'monoclinic'
loop_
_space_group_symop_operation_xyz
x,y,z
-x,y,1/2-z
-x,-y,-z
x,-y,1/2+z
1/2+x,1/2+y,z
1/2-x,1/2+y,1/2-z
1/2-x,1/2-y,-z
1/2+x,1/2-y,1/2+z
loop_
_atom_site_type_symbol
_atom_site_label
_atom_site_fract_x
_atom_site_fract_y
_atom_site_fract_z
Si Si1 0.804020 0.150537 0.298883
Si Si2 0.000000 0.052935 0.750000
Si Si3 0.742401 0.399817 0.983519
Si Si4 0.703645 0.868309 0.973725
Si Si5 0.604870 0.728927 0.630186
O O1 0.805258 0.120322 0.382428
O O2 0.600261 0.214672 0.317782
O O3 0.000000 0.218992 0.250000
O O4 0.834634 0.039142 0.248754
O O5 0.869241 0.131933 0.817373
O O6 0.749053 0.330454 0.909312
O O7 0.965123 0.381378 0.989544
O O8 0.723766 0.530504 0.986891
O O9 0.594666 0.338650 0.057502
O O10 0.750000 0.750000 0.000000
#
# Coordination Sequence:
#
# PCOD9265628 Si02
#       5
#     8   4   8   8   8
#     4   9  20  38  55  82 115 153 188 228 289 344
#     4  10  20  38  58  76 118 158 182 230 298 332
#     4   9  19  37  58  88 113 145 194 237 284 336
#     4  10  19  36  63  85 113 156 186 236 292 337
#     4  10  19  37  62  82 115 148 191 241 276 341
#
# _framework density 23.671275999999999
#
# number of rings (size 3 to 8) (size 9 to 14) (size 15 to 20)
#    0.667    1.778    2.222    0.000    0.000    1.778 
#    0.000   14.444    0.000    0.000    0.000    0.000 
#    0.000    0.000    0.000    0.000    0.000    0.000 
#
# Total GULP energy -100209.521084 kJ/mol
# GULP energy per Si atom -5567.195616 kJ/mol
# Density = 2.361740 g / cm^3
# Si number density = 23.671276 Si / 1000 Ang^3
#
#
#
# Elastic Constant Matrix: (Units=GPa)
#
#
# Indices 1 2 3 4 5 6 
#
# 1 43.5501 18.7162 9.6746 0.0000 0.5984 0.0000
# 2 18.7162 183.6665 32.0210 0.0000 5.9987 0.0000
# 3 9.6746 32.0210 80.4061 0.0000 -13.0358 0.0000
# 4 0.0000 0.0000 0.0000 -14.4998 0.0000 40.7277
# 5 0.5984 5.9987 -13.0358 0.0000 14.0299 0.0000
# 6 0.0000 0.0000 0.0000 40.7277 0.0000 -1.5656
#
#
#
# Elastic Compliance Matrix: (Units=1/GPa)
#
#
# Indices 1 2 3 4 5 6 
#
# 1 0.024410 -0.001952 -0.002582 0.000000 -0.002606 0.000000
# 2 -0.001952 0.006390 -0.003225 0.000000 -0.005646 0.000000
# 3 -0.002582 -0.003225 0.016805 0.000000 0.017103 0.000000
# 4 0.000000 0.000000 0.000000 0.000957 0.000000 0.024894
# 5 -0.002606 -0.005646 0.017103 0.000000 0.089693 0.000000
# 6 0.000000 0.000000 0.000000 0.024894 0.000000 0.008863
#
#
# Mechanical properties :
#
#
# Convention : Reuss Voigt Hill
#
# Bulk Modulus (GPa) = 31.16589 47.60516 39.38553
# Shear Modulus (GPa) = 28.84630 16.07364 22.45997
#
# Velocity S-wave (km/s) = 3.49466 2.60866 3.08365
# Velocity P-wave (km/s) = 5.42939 5.40630 5.41786
#
# Compressibility (1/GPa) = 0.03208636
#
# Stress axis : x y z
#
# Youngs Moduli (GPa) = 40.96604 156.48731 59.50671
#
# Poissons Ratio (x) = 0.30550 0.15365
# Poissons Ratio (y) = 0.07998 0.19193
# Poissons Ratio (z) = 0.10578 0.50472
#
# Static dielectric constant tensor:
#      x y z
#    x 2.052800 0.000000 0.016270 
#    y 0.000000 1.909400 0.000000 
#    z 0.016270 0.000000 1.936600 
# 
# From -- ./inp_files/229525.got.cif
#   From: 2010.05.17/outbox.cif.g08.bks.cpg/sg15_115_cif.got.tgz:229525.got - 2010.06.03 18:47:42.
