data_PCOD9265484
_publ_section_title
;
Structure prediction by ZEFSAII (Michael W. Deem and Ramdas Pophale) SiO2 
 PCOD9265484
Probable space group: C 2/C
;
_chemical_formula_sum "Si O2"
_cell_formula_units_Z 64
_cell_length_a 19.635280
_cell_length_b 24.326781
_cell_length_c 14.429956
_cell_angle_alpha 90.000000
_cell_angle_beta 156.337883
_cell_angle_gamma 90.000000
_cell_volume 2766.315128
_symmetry_space_group_name_H-M "C 2/C"
_symmetry_group_IT_number 15
_symmetry_cell_setting 'monoclinic'
loop_
_space_group_symop_operation_xyz
x,y,z
-x,y,1/2-z
-x,-y,-z
x,-y,1/2+z
1/2+x,1/2+y,z
1/2-x,1/2+y,1/2-z
1/2-x,1/2-y,-z
1/2+x,1/2-y,1/2+z
loop_
_atom_site_type_symbol
_atom_site_label
_atom_site_fract_x
_atom_site_fract_y
_atom_site_fract_z
Si Si1 0.277466 0.371124 0.220901
Si Si2 0.536273 0.193221 0.904262
Si Si3 0.702286 0.506660 0.765087
Si Si4 0.484361 0.214342 0.340724
Si Si5 0.005122 0.429328 0.142641
Si Si6 0.699711 0.510109 0.982503
Si Si7 0.807643 0.132777 0.535599
Si Si8 0.565950 0.294294 0.596666
O O1 0.245297 0.433727 0.208943
O O2 0.288423 0.372368 0.122402
O O3 0.453319 0.347343 0.479443
O O4 0.133654 0.326192 0.060526
O O5 0.500000 0.198813 0.750000
O O6 0.472571 0.133778 0.858929
O O7 0.460405 0.245244 0.863049
O O8 0.738258 0.192645 0.169190
O O9 0.500000 0.500000 0.500000
O O10 0.725385 0.509405 0.904251
O O11 0.829057 0.458284 0.891881
O O12 0.500000 0.222185 0.250000
O O13 0.494492 0.269441 0.411684
O O14 0.312010 0.181687 0.145653
O O15 0.000000 0.427209 0.250000
O O16 0.163853 0.466852 0.311253
O O17 0.500000 0.498275 0.750000
O O18 0.737046 0.572575 0.060544
O O19 0.000000 0.142812 0.750000
#
# Coordination Sequence:
#
# PCOD9265484 Si02
#       8
#     8   8   8   8   8   8   8   8
#     4  10  21  37  59  88 127 168 204 258 314 386
#     4  11  25  46  67  91 122 170 220 276 326 365
#     4  10  19  36  61  89 122 163 203 253 320 382
#     4  10  22  40  60  92 130 171 209 253 315 385
#     4   9  19  39  66  89 119 164 210 258 322 388
#     4   9  18  37  59  92 126 158 202 256 317 386
#     4   9  19  33  61  93 130 170 200 246 318 387
#     4  12  24  43  64  94 128 165 224 265 315 383
#
# _framework density 23.135469000000001
#
# number of rings (size 3 to 8) (size 9 to 14) (size 15 to 20)
#    0.000    2.000    1.250    1.875    1.750    5.500 
#    4.500    3.750    0.000    0.000    0.000    0.000 
#    0.000    0.000    0.000    0.000    0.000    0.000 
#
# Total GULP energy -179101.882154 kJ/mol
# GULP energy per Si atom -5596.933817 kJ/mol
# Density = 2.308281 g / cm^3
# Si number density = 23.135469 Si / 1000 Ang^3
#
#
#
# Elastic Constant Matrix: (Units=GPa)
#
#
# Indices 1 2 3 4 5 6 
#
# 1 66.6734 24.0578 6.1527 0.0000 -7.2400 0.0000
# 2 24.0578 102.2866 28.8736 0.0000 -5.6068 0.0000
# 3 6.1527 28.8736 80.2814 0.0000 2.5145 0.0000
# 4 0.0000 0.0000 0.0000 8.5477 0.0000 13.2742
# 5 -7.2400 -5.6068 2.5145 0.0000 25.8498 0.0000
# 6 0.0000 0.0000 0.0000 13.2742 0.0000 20.5031
#
#
#
# Elastic Compliance Matrix: (Units=1/GPa)
#
#
# Indices 1 2 3 4 5 6 
#
# 1 0.016767 -0.003709 -0.000073 -0.000002 0.003899 0.000001
# 2 -0.003709 0.011900 -0.004056 0.000001 0.001937 -0.000001
# 3 -0.000073 -0.004056 0.013991 -0.000004 -0.002261 0.000003
# 4 -0.000002 0.000001 -0.000004-21.547394 -0.000006 13.950345
# 5 0.003899 0.001937 -0.002261 -0.000006 0.040417 0.000004
# 6 0.000001 -0.000001 0.000003 13.950345 0.000004 -8.983044
#
#
# Mechanical properties :
#
#
# Convention : Reuss Voigt Hill
#
# Bulk Modulus (GPa) = 37.06276 40.82329 38.94302
# Shear Modulus (GPa) = -0.16435 23.65726 11.74646
#
# Velocity S-wave (km/s) = -0.26682 3.20121 2.25572
# Velocity P-wave (km/s) = 3.99496 5.59886 4.86349
#
# Compressibility (1/GPa) = 0.02698126
#
# Stress axis : x y z
#
# Youngs Moduli (GPa) = 59.64099 84.03326 71.47214
#
# Poissons Ratio (x) = 0.31170 0.00522
# Poissons Ratio (y) = 0.22122 0.28991
# Poissons Ratio (z) = 0.00436 0.34086
#
# Static dielectric constant tensor:
#      x y z
#    x 1.891210 0.000000 -0.014180 
#    y 0.000000 1.858410 0.000000 
#    z -0.014180 0.000000 1.852980 
# 
# From -- ./inp_files/220276.got.cif
#   From: 2010.05.17/outbox.cif.g08.bks.cpg/sg15_111_cif.got.tgz:220276.got - 2010.06.03 18:47:42.
