data_PCOD9266897
_publ_section_title
;
Structure prediction by ZEFSAII (Michael W. Deem and Ramdas Pophale) SiO2 
 PCOD9266897
Probable space group: C 2/C
;
_chemical_formula_sum "Si O2"
_cell_formula_units_Z 56
_cell_length_a 20.433501
_cell_length_b 9.614171
_cell_length_c 28.844132
_cell_angle_alpha 90.000000
_cell_angle_beta 150.864387
_cell_angle_gamma 90.000000
_cell_volume 2758.878665
_symmetry_space_group_name_H-M "C 2/C"
_symmetry_group_IT_number 15
_symmetry_cell_setting 'monoclinic'
loop_
_space_group_symop_operation_xyz
x,y,z
-x,y,1/2-z
-x,-y,-z
x,-y,1/2+z
1/2+x,1/2+y,z
1/2-x,1/2+y,1/2-z
1/2-x,1/2-y,-z
1/2+x,1/2-y,1/2+z
loop_
_atom_site_type_symbol
_atom_site_label
_atom_site_fract_x
_atom_site_fract_y
_atom_site_fract_z
Si Si1 0.595856 0.554741 0.679405
Si Si2 0.629264 0.504249 0.803242
Si Si3 0.399667 0.990251 0.365109
Si Si4 0.605571 0.474628 0.024336
Si Si5 0.385283 0.165057 0.447852
Si Si6 0.554338 0.835980 0.893398
Si Si7 0.793846 0.288254 0.604374
O O1 0.598740 0.481586 0.730725
O O2 0.748980 0.546805 0.757100
O O3 0.486482 0.486181 0.578514
O O4 0.550663 0.711353 0.662852
O O5 0.500000 0.449833 0.750000
O O6 0.772171 0.433357 0.900202
O O7 0.647004 0.666598 0.827111
O O8 0.397882 0.118799 0.401591
O O9 0.487888 0.030116 0.375473
O O10 0.472361 0.869328 0.439728
O O11 0.500000 0.500000 0.000000
O O12 0.657406 0.321301 0.067913
O O13 0.720161 0.591093 0.087951
O O14 0.601260 0.845536 0.869130
O O15 0.681985 0.789468 0.003384
#
# Coordination Sequence:
#
# PCOD9266897 Si02
#       7
#     8   8   8   8   8   8   8
#     4  10  23  36  65  95 126 164 227 262 319 383
#     4  11  21  42  69  95 124 169 224 271 318 402
#     4  10  21  37  64  93 127 175 221 261 323 401
#     4  11  25  43  64  96 137 171 213 278 334 387
#     4  10  22  40  64  91 132 177 211 268 341 383
#     4  10  19  38  62  93 125 164 222 264 311 395
#     4  10  21  39  67  92 126 172 214 264 329 382
#
# _framework density 20.298100999999999
#
# number of rings (size 3 to 8) (size 9 to 14) (size 15 to 20)
#    0.000    1.714    2.857    1.714    6.000    0.000 
#    0.000    3.571    0.000    0.000    0.000    0.000 
#    0.000    0.000    0.000    0.000    0.000    0.000 
#
# Total GULP energy -156288.687420 kJ/mol
# GULP energy per Si atom -5581.738836 kJ/mol
# Density = 2.025190 g / cm^3
# Si number density = 20.298101 Si / 1000 Ang^3
#
#
#
# Elastic Constant Matrix: (Units=GPa)
#
#
# Indices 1 2 3 4 5 6 
#
# 1 125.9058 40.3529 9.5406 0.0000 19.4932 0.0000
# 2 40.3529 66.1848 4.1498 -0.0001 3.5152 0.0000
# 3 9.5406 4.1498 46.3485 0.0001 11.7417 0.0002
# 4 0.0000 -0.0001 0.0001 13.9577 0.0000 1.3565
# 5 19.4932 3.5152 11.7417 0.0000 26.7343 0.0000
# 6 0.0000 0.0000 0.0002 1.3565 0.0000 25.9297
#
#
#
# Elastic Compliance Matrix: (Units=1/GPa)
#
#
# Indices 1 2 3 4 5 6 
#
# 1 0.011116 -0.006397 0.000140 0.000000 -0.007326 0.000000
# 2 -0.006397 0.018935 -0.001046 0.000000 0.002634 0.000000
# 3 0.000140 -0.001046 0.024340 0.000000 -0.010655 0.000000
# 4 0.000000 0.000000 0.000000 0.072011 0.000000 -0.003767
# 5 -0.007326 0.002634 -0.010655 0.000000 0.047080 0.000000
# 6 0.000000 0.000000 0.000000 -0.003767 0.000000 0.038763
#
#
# Mechanical properties :
#
#
# Convention : Reuss Voigt Hill
#
# Bulk Modulus (GPa) = 25.13452 38.50286 31.81869
# Shear Modulus (GPa) = 20.82352 25.61740 23.22046
#
# Velocity S-wave (km/s) = 3.20642 3.55640 3.38593
# Velocity P-wave (km/s) = 5.11055 5.98948 5.56739
#
# Compressibility (1/GPa) = 0.03978592
#
# Stress axis : x y z
#
# Youngs Moduli (GPa) = 89.95703 52.81122 41.08514
#
# Poissons Ratio (x) = 0.33785 -0.00577
# Poissons Ratio (y) = 0.57549 0.04297
# Poissons Ratio (z) = -0.01264 0.05523
#
# Static dielectric constant tensor:
#      x y z
#    x 1.745740 0.000000 0.021160 
#    y 0.000000 1.741900 0.000000 
#    z 0.021160 0.000000 1.801120 
# 
# From -- ./inp_files/317581.got.cif
#   From: 2010.05.17/outbox.cif.g08.bks.cpg/sg15_159_cif.got.tgz:317581.got - 2010.06.03 18:47:42.
