data_PCOD9266530
_publ_section_title
;
Structure prediction by ZEFSAII (Michael W. Deem and Ramdas Pophale) SiO2 
 PCOD9266530
Probable space group: C 2/C
;
_chemical_formula_sum "Si O2"
_cell_formula_units_Z 48
_cell_length_a 10.890944
_cell_length_b 13.880073
_cell_length_c 15.588384
_cell_angle_alpha 90.000000
_cell_angle_beta 62.620245
_cell_angle_gamma 90.000000
_cell_volume 2092.476293
_symmetry_space_group_name_H-M "C 2/C"
_symmetry_group_IT_number 15
_symmetry_cell_setting 'monoclinic'
loop_
_space_group_symop_operation_xyz
x,y,z
-x,y,1/2-z
-x,-y,-z
x,-y,1/2+z
1/2+x,1/2+y,z
1/2-x,1/2+y,1/2-z
1/2-x,1/2-y,-z
1/2+x,1/2-y,1/2+z
loop_
_atom_site_type_symbol
_atom_site_label
_atom_site_fract_x
_atom_site_fract_y
_atom_site_fract_z
Si Si1 0.309020 0.033914 0.974310
Si Si2 0.559477 0.426512 0.140931
Si Si3 0.360056 0.100327 0.247261
Si Si4 0.720995 0.771518 0.362831
Si Si5 0.246491 0.904754 0.302390
Si Si6 0.511274 0.853549 0.954382
O O1 0.302522 0.075081 0.879945
O O2 0.415139 0.944417 0.955857
O O3 0.374530 0.114188 0.014274
O O4 0.160804 0.996370 0.055824
O O5 0.500000 0.468521 0.250000
O O6 0.652017 0.334091 0.139161
O O7 0.419078 0.398692 0.137641
O O8 0.500000 0.073838 0.250000
O O9 0.262201 0.161131 0.340048
O O10 0.406265 0.171985 0.157263
O O11 0.288346 0.003568 0.238732
O O12 0.694376 0.821360 0.278408
O O13 0.592541 0.781678 0.467039
#
# Coordination Sequence:
#
# PCOD9266530 Si02
#       6
#     8   8   8   8   8   8
#     4  10  19  37  66  93 121 167 208 257 310 372
#     4   9  18  37  59  90 125 163 198 254 311 357
#     4  12  23  41  66  96 120 162 218 257 302 377
#     4  10  24  42  65  91 129 163 203 267 310 363
#     4  11  21  38  66  94 124 165 211 253 310 374
#     4  10  21  39  63  91 127 162 207 258 317 357
#
# _framework density 22.939326999999999
#
# number of rings (size 3 to 8) (size 9 to 14) (size 15 to 20)
#    0.000    1.667    1.667    6.000    0.000    0.667 
#    9.000    0.833   14.667    0.000    0.000    0.000 
#    0.000    0.000    0.000    0.000    0.000    0.000 
#
# Total GULP energy -134166.411132 kJ/mol
# GULP energy per Si atom -5590.267130 kJ/mol
# Density = 2.288712 g / cm^3
# Si number density = 22.939327 Si / 1000 Ang^3
#
#
#
# Elastic Constant Matrix: (Units=GPa)
#
#
# Indices 1 2 3 4 5 6 
#
# 1 67.9547 4.2228 25.5802 0.0000 15.2853 0.0000
# 2 4.2228 42.6702 -5.6156 0.0000 -12.4921 0.0000
# 3 25.5802 -5.6156 93.7146 0.0000 -3.2764 0.0000
# 4 0.0000 0.0000 0.0000 31.9173 0.0000 -3.5052
# 5 15.2853 -12.4921 -3.2764 0.0000 37.0203 0.0000
# 6 0.0000 0.0000 0.0000 -3.5052 0.0000 15.6975
#
#
#
# Elastic Compliance Matrix: (Units=1/GPa)
#
#
# Indices 1 2 3 4 5 6 
#
# 1 0.019800 -0.005902 -0.006133 0.000000 -0.010709 0.000000
# 2 -0.005902 0.028095 0.003723 0.000000 0.012247 0.000000
# 3 -0.006133 0.003723 0.012740 0.000000 0.004916 0.000000
# 4 0.000000 0.000000 0.000000 0.032119 0.000000 0.007172
# 5 -0.010709 0.012247 0.004916 0.000000 0.036002 0.000000
# 6 0.000000 0.000000 0.000000 0.007172 0.000000 0.065306
#
#
# Mechanical properties :
#
#
# Convention : Reuss Voigt Hill
#
# Bulk Modulus (GPa) = 22.72180 28.07937 25.40059
# Shear Modulus (GPa) = 22.18732 28.93717 25.56224
#
# Velocity S-wave (km/s) = 3.11339 3.55556 3.34180
# Velocity P-wave (km/s) = 4.78026 5.39660 5.09776
#
# Compressibility (1/GPa) = 0.04401060
#
# Stress axis : x y z
#
# Youngs Moduli (GPa) = 50.50541 35.59378 78.49554
#
# Poissons Ratio (x) = 0.21007 0.48138
# Poissons Ratio (y) = 0.29807 -0.29221
# Poissons Ratio (z) = 0.30973 -0.13250
#
# Static dielectric constant tensor:
#      x y z
#    x 1.834160 0.000000 0.019870 
#    y 0.000000 1.822090 0.000000 
#    z 0.019870 0.000000 1.912730 
# 
# From -- ./inp_files/144088.got.cif
#   From: 2010.05.17/outbox.cif.g08.bks.cpg/sg15_73_cif.got.tgz:144088.got - 2010.06.03 18:47:42.
