data_PCOD9266844
_publ_section_title
;
Structure prediction by ZEFSAII (Michael W. Deem and Ramdas Pophale) SiO2 
 PCOD9266844
Probable space group: C 2/C
;
_chemical_formula_sum "Si O2"
_cell_formula_units_Z 64
_cell_length_a 7.152938
_cell_length_b 15.162696
_cell_length_c 25.652359
_cell_angle_alpha 90.000000
_cell_angle_beta 107.030965
_cell_angle_gamma 90.000000
_cell_volume 2660.190179
_symmetry_space_group_name_H-M "C 2/C"
_symmetry_group_IT_number 15
_symmetry_cell_setting 'monoclinic'
loop_
_space_group_symop_operation_xyz
x,y,z
-x,y,1/2-z
-x,-y,-z
x,-y,1/2+z
1/2+x,1/2+y,z
1/2-x,1/2+y,1/2-z
1/2-x,1/2-y,-z
1/2+x,1/2-y,1/2+z
loop_
_atom_site_type_symbol
_atom_site_label
_atom_site_fract_x
_atom_site_fract_y
_atom_site_fract_z
Si Si1 0.189000 0.313797 0.609300
Si Si2 0.754574 0.689869 0.123867
Si Si3 0.893777 0.875611 0.532028
Si Si4 0.875492 0.479867 0.674729
Si Si5 0.320986 0.821369 0.201145
Si Si6 0.584437 0.357010 0.331263
Si Si7 0.818071 0.047162 0.200320
Si Si8 0.414441 0.558187 0.923090
O O1 0.217555 0.333625 0.550787
O O2 0.298895 0.229824 0.644369
O O3 0.297530 0.395512 0.646709
O O4 0.964692 0.313982 0.610825
O O5 0.582750 0.675192 0.069213
O O6 0.755719 0.611381 0.166855
O O7 0.748690 0.785351 0.149261
O O8 0.880699 0.877768 0.468908
O O9 0.939190 0.978330 0.550000
O O10 0.097070 0.451467 0.703546
O O11 0.835823 0.572004 0.700013
O O12 0.792599 0.513168 0.610947
O O13 0.500000 0.788786 0.250000
O O14 0.106314 0.808929 0.208003
O O15 0.646844 0.444735 0.308112
O O16 0.512819 0.391590 0.382509
O O17 0.000000 0.076683 0.250000
#
# Coordination Sequence:
#
# PCOD9266844 Si02
#       8
#     8   8   8   8   8   8   8   8
#     4  10  21  38  60  87 117 150 191 241 289 341
#     4   9  21  38  56  82 122 149 189 242 282 340
#     4  10  19  38  62  85 116 153 194 236 293 347
#     4   9  20  38  55  82 115 146 191 240 277 341
#     4  10  20  37  59  81 113 154 191 237 293 342
#     4  10  20  37  56  82 118 151 186 245 288 337
#     4  11  21  36  58  85 116 152 193 236 290 346
#     4   9  19  38  60  84 114 152 193 238 290 346
#
# _framework density 24.058430999999999
#
# number of rings (size 3 to 8) (size 9 to 14) (size 15 to 20)
#    0.000    2.250    1.250    1.125    1.750    0.500 
#    2.250    8.750    0.000    0.000    0.000    0.000 
#    0.000    0.000    0.000    0.000    0.000    0.000 
#
# Total GULP energy -178632.020440 kJ/mol
# GULP energy per Si atom -5582.250639 kJ/mol
# Density = 2.400367 g / cm^3
# Si number density = 24.058431 Si / 1000 Ang^3
#
#
#
# Elastic Constant Matrix: (Units=GPa)
#
#
# Indices 1 2 3 4 5 6 
#
# 1 80.5408 -1.7003 7.9584 0.0000 -6.0278 0.0000
# 2 -1.7003 93.3388 8.4520 0.0000 3.8312 0.0000
# 3 7.9584 8.4520 66.5758 0.0000 -6.7043 0.0000
# 4 0.0000 0.0000 0.0000 22.2769 0.0000 1.0140
# 5 -6.0278 3.8312 -6.7043 0.0000 34.2367 0.0000
# 6 0.0000 0.0000 0.0000 1.0140 0.0000 26.8466
#
#
#
# Elastic Compliance Matrix: (Units=1/GPa)
#
#
# Indices 1 2 3 4 5 6 
#
# 1 0.012701 0.000275 -0.001358 0.000000 0.001940 0.000000
# 2 0.000275 0.010921 -0.001568 0.000000 -0.001481 0.000000
# 3 -0.001358 -0.001568 0.015685 0.000000 0.003008 0.000000
# 4 0.000000 0.000000 0.000000 0.044967 0.000000 -0.001698
# 5 0.001940 -0.001481 0.003008 0.000000 0.030305 0.000000
# 6 0.000000 0.000000 0.000000 -0.001698 0.000000 0.037313
#
#
# Mechanical properties :
#
#
# Convention : Reuss Voigt Hill
#
# Bulk Modulus (GPa) = 29.40807 29.98617 29.69712
# Shear Modulus (GPa) = 29.66836 31.72174 30.69505
#
# Velocity S-wave (km/s) = 3.51548 3.63509 3.57579
# Velocity P-wave (km/s) = 5.35987 5.48721 5.42392
#
# Compressibility (1/GPa) = 0.03400427
#
# Stress axis : x y z
#
# Youngs Moduli (GPa) = 78.73277 91.56265 63.75594
#
# Poissons Ratio (x) = -0.02515 0.08657
# Poissons Ratio (y) = -0.02163 0.10000
# Poissons Ratio (z) = 0.10691 0.14362
#
# Static dielectric constant tensor:
#      x y z
#    x 1.958190 0.000000 -0.037930 
#    y 0.000000 1.938650 0.000000 
#    z -0.037930 0.000000 1.974920 
# 
# From -- ./inp_files/288809.got.cif
#   From: 2010.05.17/outbox.cif.g08.bks.cpg/sg15_145_cif.got.tgz:288809.got - 2010.06.03 18:47:42.
