data_PCOD9266156
_publ_section_title
;
Structure prediction by ZEFSAII (Michael W. Deem and Ramdas Pophale) SiO2 
 PCOD9266156
Probable space group: C 2/C
;
_chemical_formula_sum "Si O2"
_cell_formula_units_Z 56
_cell_length_a 33.549206
_cell_length_b 9.388447
_cell_length_c 20.856789
_cell_angle_alpha 90.000000
_cell_angle_beta 29.406151
_cell_angle_gamma 90.000000
_cell_volume 3225.540796
_symmetry_space_group_name_H-M "C 2/C"
_symmetry_group_IT_number 15
_symmetry_cell_setting 'monoclinic'
loop_
_space_group_symop_operation_xyz
x,y,z
-x,y,1/2-z
-x,-y,-z
x,-y,1/2+z
1/2+x,1/2+y,z
1/2-x,1/2+y,1/2-z
1/2-x,1/2-y,-z
1/2+x,1/2-y,1/2+z
loop_
_atom_site_type_symbol
_atom_site_label
_atom_site_fract_x
_atom_site_fract_y
_atom_site_fract_z
Si Si1 0.339779 0.035367 0.746321
Si Si2 0.728624 0.411741 0.013085
Si Si3 0.941564 0.798662 0.647550
Si Si4 0.875986 0.242529 0.629040
Si Si5 0.305161 0.263548 0.088155
Si Si6 0.917855 0.089859 0.325286
Si Si7 0.704591 0.491973 0.686461
O O1 0.407854 0.141726 0.678058
O O2 0.272085 0.130416 0.805025
O O3 0.292860 0.968510 0.872331
O O4 0.370316 0.905216 0.660452
O O5 0.750000 0.250000 0.000000
O O6 0.638915 0.452073 0.111284
O O7 0.734168 0.494734 0.072177
O O8 0.937518 0.835408 0.729372
O O9 0.031994 0.810607 0.494459
O O10 0.879807 0.906049 0.699455
O O11 0.852107 0.225751 0.588573
O O12 0.815153 0.144054 0.755338
O O13 0.269363 0.105127 0.131824
O O14 0.361994 0.309268 0.948776
O O15 0.000000 0.058018 0.250000
#
# Coordination Sequence:
#
# PCOD9266156 Si02
#       7
#     8   8   8   8   8   8   8
#     4  10  21  36  56  81 108 147 182 224 271 327
#     4  10  19  37  61  79 106 143 188 231 266 324
#     4  10  21  36  56  81 109 142 186 224 269 326
#     4  12  20  34  56  80 116 142 172 228 276 326
#     4  10  21  36  56  81 109 142 186 224 269 325
#     4  10  19  37  61  82 106 143 189 233 270 322
#     4  10  21  36  56  81 106 145 186 221 268 329
#
# _framework density 17.361429999999999
#
# number of rings (size 3 to 8) (size 9 to 14) (size 15 to 20)
#    0.000    1.714    2.857    2.571    0.000    3.429 
#    0.000    0.000    3.143    0.000    0.000    0.000 
#    0.000    0.000    0.000    0.000    0.000    0.000 
#
# Total GULP energy -156144.520796 kJ/mol
# GULP energy per Si atom -5576.590028 kJ/mol
# Density = 1.732191 g / cm^3
# Si number density = 17.361430 Si / 1000 Ang^3
#
#
#
# Elastic Constant Matrix: (Units=GPa)
#
#
# Indices 1 2 3 4 5 6 
#
# 1 37.1919 17.9490 3.3388 -0.0008 -9.8123 -0.0010
# 2 17.9490 84.6912 10.3726 -0.0007 -5.0614 -0.0007
# 3 3.3388 10.3726 56.2278 -0.0011 -2.0275 -0.0010
# 4 -0.0008 -0.0007 -0.0011 21.0810 -0.0003 6.2487
# 5 -9.8123 -5.0614 -2.0275 -0.0003 26.1211 0.0004
# 6 -0.0010 -0.0007 -0.0010 6.2487 0.0004 22.3552
#
#
#
# Elastic Compliance Matrix: (Units=1/GPa)
#
#
# Indices 1 2 3 4 5 6 
#
# 1 0.032872 -0.006254 -0.000398 0.000001 0.011105 0.000001
# 2 -0.006254 0.013395 -0.002097 0.000000 0.000083 0.000000
# 3 -0.000398 -0.002097 0.018226 0.000001 0.000859 0.000001
# 4 0.000001 0.000000 0.000001 0.051721 0.000001 -0.014457
# 5 0.011105 0.000083 0.000859 0.000001 0.042538 -0.000001
# 6 0.000001 0.000000 0.000001 -0.014457 -0.000001 0.048773
#
#
# Mechanical properties :
#
#
# Convention : Reuss Voigt Hill
#
# Bulk Modulus (GPa) = 21.27867 26.82574 24.05221
# Shear Modulus (GPa) = 20.77384 23.67482 22.22433
#
# Velocity S-wave (km/s) = 3.46287 3.69676 3.58173
# Velocity P-wave (km/s) = 5.31710 5.80571 5.56677
#
# Compressibility (1/GPa) = 0.04699542
#
# Stress axis : x y z
#
# Youngs Moduli (GPa) = 30.42148 74.65555 54.86615
#
# Poissons Ratio (x) = 0.46691 0.02182
# Poissons Ratio (y) = 0.19026 0.11503
# Poissons Ratio (z) = 0.01210 0.15653
#
# Static dielectric constant tensor:
#      x y z
#    x 1.575020 0.000000 -0.003560 
#    y 0.000000 1.589790 0.000000 
#    z -0.003560 0.000000 1.579020 
# 
# From -- ./inp_files/209541.got.cif
#   From: 2010.05.17/outbox.cif.g08.bks.cpg/sg15_105_cif.got.tgz:209541.got - 2010.06.03 18:47:42.
