data_PCOD9266526
_publ_section_title
;
Structure prediction by ZEFSAII (Michael W. Deem and Ramdas Pophale) SiO2 
 PCOD9266526
Probable space group: C 2/C
;
_chemical_formula_sum "Si O2"
_cell_formula_units_Z 40
_cell_length_a 15.495099
_cell_length_b 9.050903
_cell_length_c 14.763470
_cell_angle_alpha 90.000000
_cell_angle_beta 116.537006
_cell_angle_gamma 90.000000
_cell_volume 1852.362283
_symmetry_space_group_name_H-M "C 2/C"
_symmetry_group_IT_number 15
_symmetry_cell_setting 'monoclinic'
loop_
_space_group_symop_operation_xyz
x,y,z
-x,y,1/2-z
-x,-y,-z
x,-y,1/2+z
1/2+x,1/2+y,z
1/2-x,1/2+y,1/2-z
1/2-x,1/2-y,-z
1/2+x,1/2-y,1/2+z
loop_
_atom_site_type_symbol
_atom_site_label
_atom_site_fract_x
_atom_site_fract_y
_atom_site_fract_z
Si Si1 0.893123 0.506200 0.719571
Si Si2 0.688936 0.697582 0.850829
Si Si3 0.189918 0.133872 0.636400
Si Si4 0.557496 0.133294 0.069519
Si Si5 0.380667 0.352462 0.999238
O O1 0.868842 0.352430 0.657320
O O2 0.802317 0.611537 0.667032
O O3 0.897143 0.445137 0.822540
O O4 0.000000 0.564384 0.750000
O O5 0.679146 0.648819 0.741632
O O6 0.799494 0.737191 0.925009
O O7 0.648169 0.597114 0.912383
O O8 0.147106 0.279733 0.568791
O O9 0.132328 0.991027 0.573446
O O10 0.481549 0.266819 0.048833
O O11 0.500000 0.000000 0.000000
#
# Coordination Sequence:
#
# PCOD9266526 Si02
#       5
#     8   8   8   8   8
#     4  10  19  38  63  89 124 167 216 255 317 380
#     4   9  19  36  64  93 125 172 215 255 317 388
#     4  10  22  37  63  97 126 163 216 267 309 381
#     4  11  22  38  64  93 125 167 205 266 327 378
#     4  10  19  37  66  92 125 166 221 260 309 385
#
# _framework density 21.594048999999998
#
# number of rings (size 3 to 8) (size 9 to 14) (size 15 to 20)
#    0.000    2.000    2.000    1.800    0.000    0.000 
#    0.000    1.000   13.200    0.000    0.000    0.000 
#    0.000    0.000    0.000    0.000    0.000    0.000 
#
# Total GULP energy -111439.295287 kJ/mol
# GULP energy per Si atom -5571.964764 kJ/mol
# Density = 2.154490 g / cm^3
# Si number density = 21.594049 Si / 1000 Ang^3
#
#
#
# Elastic Constant Matrix: (Units=GPa)
#
#
# Indices 1 2 3 4 5 6 
#
# 1 108.2566 62.0509 8.0039 0.0000 22.2122 0.0000
# 2 62.0509 81.1431 29.6841 0.0000 6.5657 0.0000
# 3 8.0039 29.6841 58.8709 0.0000 -0.5910 0.0000
# 4 0.0000 0.0000 0.0000 363.9758 0.0000 -76.9009
# 5 22.2122 6.5657 -0.5910 0.0000 37.7366 0.0000
# 6 0.0000 0.0000 0.0000 -76.9009 0.0000 57.7281
#
#
#
# Elastic Compliance Matrix: (Units=1/GPa)
#
#
# Indices 1 2 3 4 5 6 
#
# 1 0.020345 -0.016908 0.005670 0.000000 -0.008945 0.000000
# 2 -0.016908 0.029454 -0.012506 0.000000 0.004632 0.000000
# 3 0.005670 -0.012506 0.022513 0.000000 -0.000809 0.000000
# 4 0.000000 0.000000 0.000000 0.003824 0.000000 0.005093
# 5 -0.008945 0.004632 -0.000809 0.000000 0.030946 0.000000
# 6 0.000000 0.000000 0.000000 0.005093 0.000000 0.024108
#
#
# Mechanical properties :
#
#
# Convention : Reuss Voigt Hill
#
# Bulk Modulus (GPa) = 40.28548 49.74984 45.01766
# Shear Modulus (GPa) = 26.74457 101.79020 64.26739
#
# Velocity S-wave (km/s) = 3.52307 6.87317 5.46134
# Velocity P-wave (km/s) = 5.93681 9.27771 7.78851
#
# Compressibility (1/GPa) = 0.02482284
#
# Stress axis : x y z
#
# Youngs Moduli (GPa) = 49.15199 33.95094 44.41823
#
# Poissons Ratio (x) = 0.57406 -0.25184
# Poissons Ratio (y) = 0.83108 0.55550
# Poissons Ratio (z) = -0.27868 0.42460
#
# Static dielectric constant tensor:
#      x y z
#    x 1.834870 0.000000 0.000940 
#    y 0.000000 1.913480 0.000000 
#    z 0.000940 0.000000 1.865320 
# 
# From -- ./inp_files/150802.got.cif
#   From: 2010.05.17/outbox.cif.g08.bks.cpg/sg15_76_cif.got.tgz:150802.got - 2010.06.03 18:47:42.
