data_PCOD9266296
_publ_section_title
;
Structure prediction by ZEFSAII (Michael W. Deem and Ramdas Pophale) SiO2 
 PCOD9266296
Probable space group: C 2/C
;
_chemical_formula_sum "Si O2"
_cell_formula_units_Z 60
_cell_length_a 7.287518
_cell_length_b 19.567438
_cell_length_c 21.698451
_cell_angle_alpha 90.000000
_cell_angle_beta 120.491244
_cell_angle_gamma 90.000000
_cell_volume 2666.255810
_symmetry_space_group_name_H-M "C 2/C"
_symmetry_group_IT_number 15
_symmetry_cell_setting 'monoclinic'
loop_
_space_group_symop_operation_xyz
x,y,z
-x,y,1/2-z
-x,-y,-z
x,-y,1/2+z
1/2+x,1/2+y,z
1/2-x,1/2+y,1/2-z
1/2-x,1/2-y,-z
1/2+x,1/2-y,1/2+z
loop_
_atom_site_type_symbol
_atom_site_label
_atom_site_fract_x
_atom_site_fract_y
_atom_site_fract_z
Si Si1 0.387129 0.940116 0.443683
Si Si2 0.417563 0.174018 0.595415
Si Si3 0.213619 0.830139 0.492248
Si Si4 0.013796 0.815527 0.935706
Si Si5 0.932302 0.027194 0.808828
Si Si6 0.329320 0.330492 0.330186
Si Si7 0.894929 0.127444 0.299521
Si Si8 0.000000 0.269428 0.750000
O O1 0.489494 0.901210 0.401848
O O2 0.388081 0.877326 0.492095
O O3 0.500000 0.000000 0.500000
O O4 0.151964 0.965999 0.385241
O O5 0.208893 0.182097 0.516672
O O6 0.552773 0.238030 0.593146
O O7 0.366507 0.189901 0.658417
O O8 0.250000 0.750000 0.500000
O O9 0.168508 0.851073 0.554859
O O10 0.015813 0.838758 0.412585
O O11 0.064840 0.853472 0.881524
O O12 0.000000 0.033858 0.750000
O O13 0.835649 0.951885 0.798895
O O14 0.791009 0.093177 0.799331
O O15 0.426093 0.281277 0.293813
O O16 0.699952 0.177789 0.282271
O O17 0.000000 0.136531 0.250000
#
# Coordination Sequence:
#
# PCOD9266296 Si02
#       8
#     8   8   8   8   8   8   8   4
#     4  11  23  40  67 102 134 181 235 282 342 423
#     4  10  21  37  65 103 130 170 230 279 348 402
#     4  10  19  37  62  92 132 170 211 275 348 389
#     4  10  20  38  61  94 136 166 215 288 336 402
#     4  10  23  47  64  89 148 183 216 283 357 411
#     4  10  22  40  68  97 133 177 226 281 342 422
#     4  11  25  45  67  97 139 181 231 290 346 415
#     4  12  24  44  72 100 130 184 246 278 350 426
#
# _framework density 22.503467000000001
#
# number of rings (size 3 to 8) (size 9 to 14) (size 15 to 20)
#    0.000    1.600    2.000    2.400    1.867    1.067 
#   16.800    4.000    0.000    0.000    0.000    0.000 
#    0.000    0.000    0.000    0.000    0.000    0.000 
#
# Total GULP energy -167198.094320 kJ/mol
# GULP energy per Si atom -5573.269811 kJ/mol
# Density = 2.245225 g / cm^3
# Si number density = 22.503467 Si / 1000 Ang^3
#
#
#
# Elastic Constant Matrix: (Units=GPa)
#
#
# Indices 1 2 3 4 5 6 
#
# 1 81.7230 46.3005 38.9854 0.0000 -26.2372 0.0000
# 2 46.3005 149.2285 53.1874 0.0000 -22.0223 0.0000
# 3 38.9854 53.1874 105.9119 0.0000 -36.3886 0.0000
# 4 0.0000 0.0000 0.0000 35.1981 0.0000 -4.7367
# 5 -26.2372 -22.0223 -36.3886 0.0000 37.2190 0.0000
# 6 0.0000 0.0000 0.0000 -4.7367 0.0000 26.6259
#
#
#
# Elastic Compliance Matrix: (Units=1/GPa)
#
#
# Indices 1 2 3 4 5 6 
#
# 1 0.017964 -0.003650 -0.001763 0.000000 0.008781 0.000000
# 2 -0.003650 0.008941 -0.003333 0.000000 -0.000540 0.000000
# 3 -0.001763 -0.003333 0.016052 0.000000 0.012479 0.000000
# 4 0.000000 0.000000 0.000000 0.029107 0.000000 0.005178
# 5 0.008781 -0.000540 0.012479 0.000000 0.044939 0.000000
# 6 0.000000 0.000000 0.000000 0.005178 0.000000 0.038479
#
#
# Mechanical properties :
#
#
# Convention : Reuss Voigt Hill
#
# Bulk Modulus (GPa) = 39.26585 68.20109 53.73347
# Shear Modulus (GPa) = 27.55409 33.03461 30.29435
#
# Velocity S-wave (km/s) = 3.50299 3.83558 3.67305
# Velocity P-wave (km/s) = 5.81790 7.07024 6.47442
#
# Compressibility (1/GPa) = 0.02546742
#
# Stress axis : x y z
#
# Youngs Moduli (GPa) = 55.66649 111.83808 62.29848
#
# Poissons Ratio (x) = 0.40816 0.10983
# Poissons Ratio (y) = 0.20316 0.20761
# Poissons Ratio (z) = 0.09814 0.37270
#
# Static dielectric constant tensor:
#      x y z
#    x 1.988270 0.000000 -0.120690 
#    y 0.000000 1.887790 0.000000 
#    z -0.120690 0.000000 1.668140 
# 
# From -- ./inp_files/232761.got.cif
#   From: 2010.05.17/outbox.cif.g08.bks.cpg/sg15_117_cif.got.tgz:232761.got - 2010.06.03 18:47:42.
