data_PCOD9266056
_publ_section_title
;
Structure prediction by ZEFSAII (Michael W. Deem and Ramdas Pophale) SiO2 
 PCOD9266056
Probable space group: C 2/C
;
_chemical_formula_sum "Si O2"
_cell_formula_units_Z 44
_cell_length_a 17.462990
_cell_length_b 11.584819
_cell_length_c 8.691223
_cell_angle_alpha 90.000000
_cell_angle_beta 71.043055
_cell_angle_gamma 90.000000
_cell_volume 1662.918831
_symmetry_space_group_name_H-M "C 2/C"
_symmetry_group_IT_number 15
_symmetry_cell_setting 'monoclinic'
loop_
_space_group_symop_operation_xyz
x,y,z
-x,y,1/2-z
-x,-y,-z
x,-y,1/2+z
1/2+x,1/2+y,z
1/2-x,1/2+y,1/2-z
1/2-x,1/2-y,-z
1/2+x,1/2-y,1/2+z
loop_
_atom_site_type_symbol
_atom_site_label
_atom_site_fract_x
_atom_site_fract_y
_atom_site_fract_z
Si Si1 0.661191 0.373562 0.070602
Si Si2 0.402213 0.855938 0.766020
Si Si3 0.715249 0.440472 0.339145
Si Si4 0.500000 0.481145 0.750000
Si Si5 0.130524 0.582473 0.552970
Si Si6 0.052606 0.793223 0.515024
O O1 0.647761 0.239280 0.106695
O O2 0.726906 0.415992 0.152991
O O3 0.578796 0.441781 0.172797
O O4 0.689531 0.428059 0.892953
O O5 0.358445 0.907838 0.639696
O O6 0.468456 0.779604 0.624966
O O7 0.414362 0.965713 0.866182
O O8 0.788748 0.406824 0.400198
O O9 0.637434 0.360138 0.430529
O O10 0.492729 0.391395 0.612307
O O11 0.075874 0.694808 0.620783
#
# Coordination Sequence:
#
# PCOD9266056 Si02
#       6
#     8   8   8   4   8   8
#     4  10  22  37  61  94 113 163 195 253 298 348
#     4   9  21  37  57  86 122 156 202 230 306 348
#     4  10  19  37  59  91 124 152 201 246 308 345
#     4  10  20  44  64  86 122 146 214 250 296 350
#     4  10  19  39  58  86 130 158 191 250 293 370
#     4   8  20  35  61  84 115 161 196 242 294 346
#
# _framework density 26.459496999999999
#
# number of rings (size 3 to 8) (size 9 to 14) (size 15 to 20)
#    1.091    1.455    0.000    1.636    0.000    7.273 
#    6.545    1.818    0.000    0.000    0.000    0.000 
#    0.000    0.000    0.000    0.000    0.000    0.000 
#
# Total GULP energy -122929.089155 kJ/mol
# GULP energy per Si atom -5587.685871 kJ/mol
# Density = 2.639927 g / cm^3
# Si number density = 26.459497 Si / 1000 Ang^3
#
#
#
# Elastic Constant Matrix: (Units=GPa)
#
#
# Indices 1 2 3 4 5 6 
#
# 1 83.5263 46.1723 43.8558 0.0000 5.6619 0.0000
# 2 46.1723 182.8653 59.7603 0.0000 13.6391 0.0000
# 3 43.8558 59.7603 74.1076 0.0000 -5.8444 0.0000
# 4 0.0000 0.0000 0.0000 64.8359 0.0000 3.3410
# 5 5.6619 13.6391 -5.8444 0.0000 30.9177 0.0000
# 6 0.0000 0.0000 0.0000 3.3410 0.0000 34.3371
#
#
#
# Elastic Compliance Matrix: (Units=1/GPa)
#
#
# Indices 1 2 3 4 5 6 
#
# 1 0.018310 -0.000787 -0.010596 0.000000 -0.005009 0.000000
# 2 -0.000787 0.008123 -0.006453 0.000000 -0.004659 0.000000
# 3 -0.010596 -0.006453 0.025729 0.000000 0.009651 0.000000
# 4 0.000000 0.000000 0.000000 0.015501 0.000000 -0.001508
# 5 -0.005009 -0.004659 0.009651 0.000000 0.037141 0.000000
# 6 0.000000 0.000000 0.000000 -0.001508 0.000000 0.029270
#
#
# Mechanical properties :
#
#
# Convention : Reuss Voigt Hill
#
# Bulk Modulus (GPa) = 60.63747 71.11955 65.87851
# Shear Modulus (GPa) = 28.53172 38.73219 33.63196
#
# Velocity S-wave (km/s) = 3.28734 3.83015 3.56908
# Velocity P-wave (km/s) = 6.11356 6.81888 6.47583
#
# Compressibility (1/GPa) = 0.01649145
#
# Stress axis : x y z
#
# Youngs Moduli (GPa) = 54.61362 123.10214 38.86643
#
# Poissons Ratio (x) = 0.09685 0.41185
# Poissons Ratio (y) = 0.04297 0.25079
# Poissons Ratio (z) = 0.57871 0.79432
#
# Static dielectric constant tensor:
#      x y z
#    x 2.183070 0.000000 -0.019630 
#    y 0.000000 2.044150 0.000000 
#    z -0.019630 0.000000 2.170150 
# 
# From -- ./inp_files/54370.got.cif
#   From: 2010.05.17/outbox.cif.g08.bks.cpg/sg15_28_cif.got.tgz:54370.got - 2010.06.03 18:47:42.
