data_PCOD9266670
_publ_section_title
;
Structure prediction by ZEFSAII (Michael W. Deem and Ramdas Pophale) SiO2 
 PCOD9266670
Probable space group: C 2/C
;
_chemical_formula_sum "Si O2"
_cell_formula_units_Z 48
_cell_length_a 13.958066
_cell_length_b 11.123883
_cell_length_c 23.384602
_cell_angle_alpha 90.000000
_cell_angle_beta 148.746806
_cell_angle_gamma 90.000000
_cell_volume 1883.775386
_symmetry_space_group_name_H-M "C 2/C"
_symmetry_group_IT_number 15
_symmetry_cell_setting 'monoclinic'
loop_
_space_group_symop_operation_xyz
x,y,z
-x,y,1/2-z
-x,-y,-z
x,-y,1/2+z
1/2+x,1/2+y,z
1/2-x,1/2+y,1/2-z
1/2-x,1/2-y,-z
1/2+x,1/2-y,1/2+z
loop_
_atom_site_type_symbol
_atom_site_label
_atom_site_fract_x
_atom_site_fract_y
_atom_site_fract_z
Si Si1 0.767056 0.793648 0.576285
Si Si2 0.000000 0.083373 0.750000
Si Si3 0.787276 0.566833 0.981577
Si Si4 0.209091 0.593879 0.164707
Si Si5 0.300037 0.568461 0.436828
Si Si6 0.500000 0.118649 0.750000
Si Si7 0.425889 0.633715 0.389361
O O1 0.781441 0.927581 0.559485
O O2 0.721844 0.808686 0.620868
O O3 0.593374 0.724164 0.462706
O O4 0.944325 0.706985 0.669835
O O5 0.865454 0.138529 0.633283
O O6 0.847756 0.007994 0.709941
O O7 0.792139 0.603626 0.050262
O O8 0.993610 0.563677 0.061911
O O9 0.284881 0.629778 0.265475
O O10 0.341867 0.663763 0.408789
O O11 0.481590 0.497069 0.551695
O O12 0.172318 0.471261 0.338715
#
# Coordination Sequence:
#
# PCOD9266670 Si02
#       7
#     8   4   8   8   8   4   8
#     4  10  22  37  61  98 128 161 219 273 323 377
#     4  10  19  38  58  91 124 158 212 269 304 372
#     4  11  22  39  67  92 129 170 220 259 329 388
#     4  11  22  40  63  93 130 173 212 268 326 390
#     4  10  21  39  60  92 124 172 205 261 330 387
#     4  10  21  34  64  91 126 154 212 267 336 364
#     4  10  22  40  60  90 135 164 210 268 320 387
#
# _framework density 25.480746
#
# number of rings (size 3 to 8) (size 9 to 14) (size 15 to 20)
#    0.000    1.667    1.667    5.000    2.333    1.333 
#    0.000    0.833    0.000    8.000    0.000    0.000 
#    0.000    0.000    0.000    0.000    0.000    0.000 
#
# Total GULP energy -134062.336840 kJ/mol
# GULP energy per Si atom -5585.930702 kJ/mol
# Density = 2.542275 g / cm^3
# Si number density = 25.480746 Si / 1000 Ang^3
#
#
#
# Elastic Constant Matrix: (Units=GPa)
#
#
# Indices 1 2 3 4 5 6 
#
# 1 139.2834 6.6928 61.8132 0.0000 -13.6549 0.0000
# 2 6.6928 52.2311 39.3201 -0.0001 -6.6684 0.0000
# 3 61.8132 39.3201 190.6933 -0.0001 -9.2756 -0.0001
# 4 0.0000 -0.0001 -0.0001 7.1966 -0.0001 -8.3761
# 5 -13.6549 -6.6684 -9.2756 -0.0001 54.5032 -0.0001
# 6 0.0000 0.0000 -0.0001 -8.3761 -0.0001 26.3207
#
#
#
# Elastic Compliance Matrix: (Units=1/GPa)
#
#
# Indices 1 2 3 4 5 6 
#
# 1 0.008618 0.001378 -0.002989 0.000000 0.001819 0.000000
# 2 0.001378 0.023101 -0.005098 0.000001 0.002304 0.000000
# 3 -0.002989 -0.005098 0.007258 0.000000 -0.000138 0.000000
# 4 0.000000 0.000001 0.000000 0.220699 0.000001 0.070234
# 5 0.001819 0.002304 -0.000138 0.000001 0.019062 0.000000
# 6 0.000000 0.000000 0.000000 0.070234 0.000000 0.060344
#
#
# Mechanical properties :
#
#
# Convention : Reuss Voigt Hill
#
# Bulk Modulus (GPa) = 39.12546 66.42890 52.77718
# Shear Modulus (GPa) = 13.84968 35.89621 24.87294
#
# Velocity S-wave (km/s) = 2.33391 3.75741 3.12772
# Velocity P-wave (km/s) = 4.75932 6.70455 5.81387
#
# Compressibility (1/GPa) = 0.02555881
#
# Stress axis : x y z
#
# Youngs Moduli (GPa) = 116.03109 43.28802 137.78787
#
# Poissons Ratio (x) = -0.05967 0.41190
# Poissons Ratio (y) = -0.15993 0.70245
# Poissons Ratio (z) = 0.34686 0.22068
#
# Static dielectric constant tensor:
#      x y z
#    x 2.155210 0.000000 -0.002300 
#    y 0.000000 2.032210 0.000000 
#    z -0.002300 0.000000 2.001980 
# 
# From -- ./inp_files/153841.got.cif
#   From: 2010.05.17/outbox.cif.g08.bks.cpg/sg15_77_cif.got.tgz:153841.got - 2010.06.03 18:47:42.
