data_PCOD9266863
_publ_section_title
;
Structure prediction by ZEFSAII (Michael W. Deem and Ramdas Pophale) SiO2 
 PCOD9266863
Probable space group: C 2/C
;
_chemical_formula_sum "Si O2"
_cell_formula_units_Z 48
_cell_length_a 9.392541
_cell_length_b 17.743350
_cell_length_c 15.508491
_cell_angle_alpha 90.000000
_cell_angle_beta 117.829521
_cell_angle_gamma 90.000000
_cell_volume 2285.639876
_symmetry_space_group_name_H-M "C 2/C"
_symmetry_group_IT_number 15
_symmetry_cell_setting 'monoclinic'
loop_
_space_group_symop_operation_xyz
x,y,z
-x,y,1/2-z
-x,-y,-z
x,-y,1/2+z
1/2+x,1/2+y,z
1/2-x,1/2+y,1/2-z
1/2-x,1/2-y,-z
1/2+x,1/2-y,1/2+z
loop_
_atom_site_type_symbol
_atom_site_label
_atom_site_fract_x
_atom_site_fract_y
_atom_site_fract_z
Si Si1 0.347363 0.949622 0.756925
Si Si2 0.545070 0.087064 0.025799
Si Si3 0.554614 0.454123 0.145438
Si Si4 0.818024 0.183785 0.395096
Si Si5 0.793369 0.834685 0.093322
Si Si6 0.127264 0.101727 0.475168
O O1 0.500000 0.983902 0.750000
O O2 0.403306 0.908366 0.859572
O O3 0.273402 0.887561 0.671027
O O4 0.209857 0.011314 0.737103
O O5 0.694818 0.111866 0.010002
O O6 0.385389 0.131641 0.957181
O O7 0.500000 0.000000 0.000000
O O8 0.433097 0.394108 0.151482
O O9 0.445902 0.526867 0.090675
O O10 0.620854 0.418446 0.074662
O O11 0.823452 0.181490 0.500305
O O12 0.721238 0.260745 0.351240
O O13 0.003780 0.170150 0.420407
#
# Coordination Sequence:
#
# PCOD9266863 Si02
#       6
#     8   8   8   8   8   8
#     4  11  21  37  61  91 122 166 212 260 317 371
#     4  12  22  35  61  95 124 159 213 265 308 369
#     4   9  18  36  60  84 122 158 203 258 307 370
#     4   9  20  37  61  85 118 167 204 244 310 391
#     4  10  19  38  62  88 120 157 209 249 313 376
#     4   9  18  34  58  89 118 161 203 251 315 364
#
# _framework density 21.000685000000001
#
# number of rings (size 3 to 8) (size 9 to 14) (size 15 to 20)
#    0.000    2.000    3.333    2.000    0.000    3.333 
#    0.000    1.667    0.000    0.000    0.000    0.000 
#    0.000    0.000    0.000    0.000    0.000    0.000 
#
# Total GULP energy -133932.613080 kJ/mol
# GULP energy per Si atom -5580.525545 kJ/mol
# Density = 2.095289 g / cm^3
# Si number density = 21.000685 Si / 1000 Ang^3
#
#
#
# Elastic Constant Matrix: (Units=GPa)
#
#
# Indices 1 2 3 4 5 6 
#
# 1 182.5115 51.4001 21.8785 0.0000 29.2668 0.0000
# 2 51.4001 93.4745 11.8883 0.0000 14.0472 0.0000
# 3 21.8785 11.8883 58.5719 0.0000 10.0548 0.0000
# 4 0.0000 0.0000 0.0000 4.7827 0.0000 0.1434
# 5 29.2668 14.0472 10.0548 0.0000 25.1227 0.0000
# 6 0.0000 0.0000 0.0000 0.1434 0.0000 33.2265
#
#
#
# Elastic Compliance Matrix: (Units=1/GPa)
#
#
# Indices 1 2 3 4 5 6 
#
# 1 0.007518 -0.002999 -0.001056 0.000000 -0.006659 0.000000
# 2 -0.002999 0.012975 -0.000932 0.000000 -0.003388 0.000000
# 3 -0.001056 -0.000932 0.018636 0.000000 -0.005707 0.000000
# 4 0.000000 0.000000 0.000000 0.209116 0.000000 -0.000903
# 5 -0.006659 -0.003388 -0.005707 0.000000 0.051740 0.000000
# 6 0.000000 0.000000 0.000000 -0.000903 0.000000 0.030100
#
#
# Mechanical properties :
#
#
# Convention : Reuss Voigt Hill
#
# Bulk Modulus (GPa) = 34.29934 56.09909 45.19921
# Shear Modulus (GPa) = 14.29475 29.25244 21.77359
#
# Velocity S-wave (km/s) = 2.61182 3.73624 3.22344
# Velocity P-wave (km/s) = 5.04613 6.73674 5.95177
#
# Compressibility (1/GPa) = 0.02915508
#
# Stress axis : x y z
#
# Youngs Moduli (GPa) = 133.01216 77.07186 53.65819
#
# Poissons Ratio (x) = 0.23115 0.05669
# Poissons Ratio (y) = 0.39892 0.04999
# Poissons Ratio (z) = 0.14053 0.07180
#
# Static dielectric constant tensor:
#      x y z
#    x 1.778360 0.000000 0.026840 
#    y 0.000000 1.783480 0.000000 
#    z 0.026840 0.000000 1.807730 
# 
# From -- ./inp_files/190607.got.cif
#   From: 2010.05.17/outbox.cif.g08.bks.cpg/sg15_96_cif.got.tgz:190607.got - 2010.06.03 18:47:42.
