data_PCOD9266001
_publ_section_title
;
Structure prediction by ZEFSAII (Michael W. Deem and Ramdas Pophale) SiO2 
 PCOD9266001
Probable space group: C 2/C
;
_chemical_formula_sum "Si O2"
_cell_formula_units_Z 56
_cell_length_a 7.125300
_cell_length_b 26.718825
_cell_length_c 13.837413
_cell_angle_alpha 90.000000
_cell_angle_beta 62.879221
_cell_angle_gamma 90.000000
_cell_volume 2344.707195
_symmetry_space_group_name_H-M "C 2/C"
_symmetry_group_IT_number 15
_symmetry_cell_setting 'monoclinic'
loop_
_space_group_symop_operation_xyz
x,y,z
-x,y,1/2-z
-x,-y,-z
x,-y,1/2+z
1/2+x,1/2+y,z
1/2-x,1/2+y,1/2-z
1/2-x,1/2-y,-z
1/2+x,1/2-y,1/2+z
loop_
_atom_site_type_symbol
_atom_site_label
_atom_site_fract_x
_atom_site_fract_y
_atom_site_fract_z
Si Si1 0.466834 0.586535 0.501710
Si Si2 0.000000 0.189191 0.750000
Si Si3 0.324854 0.316637 0.092414
Si Si4 0.568186 0.131515 0.123930
Si Si5 0.215914 0.222384 0.385060
Si Si6 0.860932 0.004787 0.914767
Si Si7 0.960856 0.473618 0.644702
Si Si8 0.500000 0.738566 0.250000
O O1 0.294682 0.630880 0.543337
O O2 0.690192 0.614543 0.445763
O O3 0.486974 0.549725 0.589635
O O4 0.461917 0.548776 0.413148
O O5 0.900489 0.163731 0.680346
O O6 0.817277 0.224336 0.837905
O O7 0.141418 0.276944 0.153825
O O8 0.509213 0.285482 0.996929
O O9 0.500000 0.129948 0.250000
O O10 0.599308 0.190879 0.103661
O O11 0.439267 0.084498 0.112694
O O12 0.137231 0.206788 0.294467
O O13 0.743978 0.004236 0.840296
O O14 0.665696 0.006968 0.038516
O O15 0.000000 0.475796 0.750000
#
# Coordination Sequence:
#
# PCOD9266001 Si02
#       8
#     8   4   8   8   8   8   8   4
#     4   9  19  37  59  82 117 153 196 244 301 352
#     4  10  20  36  60  84 114 156 194 246 292 368
#     4  10  21  39  56  86 119 153 203 245 296 354
#     4   9  17  34  54  83 114 141 193 243 288 347
#     4  10  19  37  59  84 116 157 193 246 297 353
#     4   9  18  38  59  82 117 156 189 242 297 361
#     4   9  18  35  56  87 116 148 193 239 294 357
#     4  10  22  38  58  86 124 158 200 246 300 358
#
# _framework density 23.883578
#
# number of rings (size 3 to 8) (size 9 to 14) (size 15 to 20)
#    0.000    2.571    0.714    0.857    0.000    0.000 
#   14.143   19.286    1.571    0.000    0.000    0.000 
#    0.000    0.000    0.000    0.000    0.000    0.000 
#
# Total GULP energy -155875.910726 kJ/mol
# GULP energy per Si atom -5566.996812 kJ/mol
# Density = 2.382922 g / cm^3
# Si number density = 23.883578 Si / 1000 Ang^3
#
#
#
# Elastic Constant Matrix: (Units=GPa)
#
#
# Indices 1 2 3 4 5 6 
#
# 1 59.1178 11.2324 15.3923 0.0000 16.0380 0.0000
# 2 11.2324 78.2038 26.2973 0.0000 -2.0450 0.0000
# 3 15.3923 26.2973 83.7442 0.0000 -1.5397 0.0000
# 4 0.0000 0.0000 0.0000 14.4977 0.0000 14.1406
# 5 16.0380 -2.0450 -1.5397 0.0000 40.1709 0.0000
# 6 0.0000 0.0000 0.0000 14.1406 0.0000 -18.2983
#
#
#
# Elastic Compliance Matrix: (Units=1/GPa)
#
#
# Indices 1 2 3 4 5 6 
#
# 1 0.020431 -0.002056 -0.003264 0.000000 -0.008387 0.000000
# 2 -0.002056 0.014516 -0.004155 0.000000 0.001401 0.000000
# 3 -0.003264 -0.004155 0.013875 0.000000 0.001623 0.000000
# 4 0.000000 0.000000 0.000000 0.039331 0.000000 0.030394
# 5 -0.008387 0.001401 0.001623 0.000000 0.028376 0.000000
# 6 0.000000 0.000000 0.000000 0.030394 0.000000 -0.031162
#
#
# Mechanical properties :
#
#
# Convention : Reuss Voigt Hill
#
# Bulk Modulus (GPa) = 33.47471 36.32332 34.89901
# Shear Modulus (GPa) = 43.75428 18.48366 31.11897
#
# Velocity S-wave (km/s) = 4.28481 2.78494 3.61355
# Velocity P-wave (km/s) = 6.20690 5.05793 5.66164
#
# Compressibility (1/GPa) = 0.02987330
#
# Stress axis : x y z
#
# Youngs Moduli (GPa) = 48.94505 68.88885 72.06957
#
# Poissons Ratio (x) = 0.14166 0.23522
# Poissons Ratio (y) = 0.10065 0.29942
# Poissons Ratio (z) = 0.15974 0.28621
#
# Static dielectric constant tensor:
#      x y z
#    x 2.004020 0.000000 0.007710 
#    y 0.000000 2.044100 0.000000 
#    z 0.007710 0.000000 1.961210 
# 
# From -- ./inp_files/138555.got.cif
#   From: 2010.05.17/outbox.cif.g08.bks.cpg/sg15_70_cif.got.tgz:138555.got - 2010.06.03 18:47:42.
