data_PCOD9266968
_publ_section_title
;
Structure prediction by ZEFSAII (Michael W. Deem and Ramdas Pophale) SiO2 
 PCOD9266968
Probable space group: C 2/C
;
_chemical_formula_sum "Si O2"
_cell_formula_units_Z 36
_cell_length_a 13.579390
_cell_length_b 17.379295
_cell_length_c 10.514984
_cell_angle_alpha 90.000000
_cell_angle_beta 41.389934
_cell_angle_gamma 90.000000
_cell_volume 1640.743862
_symmetry_space_group_name_H-M "C 2/C"
_symmetry_group_IT_number 15
_symmetry_cell_setting 'monoclinic'
loop_
_space_group_symop_operation_xyz
x,y,z
-x,y,1/2-z
-x,-y,-z
x,-y,1/2+z
1/2+x,1/2+y,z
1/2-x,1/2+y,1/2-z
1/2-x,1/2-y,-z
1/2+x,1/2-y,1/2+z
loop_
_atom_site_type_symbol
_atom_site_label
_atom_site_fract_x
_atom_site_fract_y
_atom_site_fract_z
Si Si1 0.000000 0.614353 0.250000
Si Si2 0.500000 0.442653 0.250000
Si Si3 0.500000 0.869247 0.250000
Si Si4 0.761152 0.128665 0.163464
Si Si5 0.707711 0.011811 0.422688
Si Si6 0.119770 0.772707 0.721882
O O1 0.121997 0.658295 0.215814
O O2 0.897962 0.560532 0.441894
O O3 0.400526 0.391864 0.440491
O O4 0.376801 0.491977 0.294048
O O5 0.361966 0.921875 0.420421
O O6 0.540364 0.809802 0.324128
O O7 0.707071 0.048683 0.283139
O O8 0.818744 0.184414 0.217274
O O9 0.250000 0.750000 0.500000
O O10 0.000000 0.817622 0.750000
#
# Coordination Sequence:
#
# PCOD9266968 Si02
#       6
#     4   4   4   8   8   8
#     4   9  22  36  60  98 128 181 210 260 354 373
#     4  10  24  35  62 104 130 181 202 266 354 368
#     4   9  20  37  64  98 118 164 222 270 328 363
#     4  11  20  40  62  92 140 165 222 269 317 407
#     4  10  19  38  63  92 133 165 219 272 315 403
#     4  10  21  40  66  97 122 167 222 275 323 369
#
# _framework density 21.941268000000001
#
# number of rings (size 3 to 8) (size 9 to 14) (size 15 to 20)
#    0.667    1.333    2.222    1.333    1.556    0.000 
#    0.000    8.889    0.000   16.000    0.000    0.000 
#    0.000    0.000    0.000    0.000    0.000    0.000 
#
# Total GULP energy -100433.661320 kJ/mol
# GULP energy per Si atom -5579.647851 kJ/mol
# Density = 2.189133 g / cm^3
# Si number density = 21.941268 Si / 1000 Ang^3
#
#
#
# Elastic Constant Matrix: (Units=GPa)
#
#
# Indices 1 2 3 4 5 6 
#
# 1 214.4107 50.6647 61.5824 0.0003 -20.8150 -0.0004
# 2 50.6647 45.1154 13.3801 0.0002 2.8862 -0.0003
# 3 61.5824 13.3801 109.9389 0.0002 -7.5164 -0.0004
# 4 0.0003 0.0002 0.0002 9.9710 -0.0002 12.1142
# 5 -20.8150 2.8862 -7.5164 -0.0002 38.6853 0.0003
# 6 -0.0004 -0.0003 -0.0004 12.1142 0.0003 -11.2813
#
#
#
# Elastic Compliance Matrix: (Units=1/GPa)
#
#
# Indices 1 2 3 4 5 6 
#
# 1 0.007931 -0.008247 -0.003147 0.000000 0.004271 0.000000
# 2 -0.008247 0.031772 0.000291 0.000000 -0.006751 -0.000001
# 3 -0.003147 0.000291 0.010850 0.000000 0.000393 0.000000
# 4 0.000000 0.000000 0.000000 0.043517 0.000000 0.046730
# 5 0.004271 -0.006751 0.000393 0.000000 0.028728 0.000001
# 6 0.000000 -0.000001 0.000000 0.046730 0.000001 -0.038462
#
#
# Mechanical properties :
#
#
# Convention : Reuss Voigt Hill
#
# Bulk Modulus (GPa) = 35.27571 68.96882 52.12227
# Shear Modulus (GPa) = 43.10707 23.73083 33.41895
#
# Velocity S-wave (km/s) = 4.43725 3.29228 3.90694
# Velocity P-wave (km/s) = 6.50880 6.77892 6.64523
#
# Compressibility (1/GPa) = 0.02834812
#
# Stress axis : x y z
#
# Youngs Moduli (GPa) = 126.08581 31.47429 92.16420
#
# Poissons Ratio (x) = 0.25956 0.29004
# Poissons Ratio (y) = 1.03978 -0.02682
# Poissons Ratio (z) = 0.39679 -0.00916
#
# Static dielectric constant tensor:
#      x y z
#    x 1.849610 0.000000 -0.016510 
#    y 0.000000 1.863010 0.000000 
#    z -0.016510 0.000000 1.815110 
# 
# From -- ./inp_files/31706.got.cif
#   From: 2010.05.17/outbox.cif.g08.bks.cpg/sg15_16_cif.got.tgz:31706.got - 2010.06.03 18:47:42.
