data_PCOD9266277
_publ_section_title
;
Structure prediction by ZEFSAII (Michael W. Deem and Ramdas Pophale) SiO2 
 PCOD9266277
Probable space group: C 2/C
;
_chemical_formula_sum "Si O2"
_cell_formula_units_Z 56
_cell_length_a 27.190401
_cell_length_b 14.989136
_cell_length_c 18.113453
_cell_angle_alpha 90.000000
_cell_angle_beta 159.697729
_cell_angle_gamma 90.000000
_cell_volume 2561.467939
_symmetry_space_group_name_H-M "C 2/C"
_symmetry_group_IT_number 15
_symmetry_cell_setting 'monoclinic'
loop_
_space_group_symop_operation_xyz
x,y,z
-x,y,1/2-z
-x,-y,-z
x,-y,1/2+z
1/2+x,1/2+y,z
1/2-x,1/2+y,1/2-z
1/2-x,1/2-y,-z
1/2+x,1/2-y,1/2+z
loop_
_atom_site_type_symbol
_atom_site_label
_atom_site_fract_x
_atom_site_fract_y
_atom_site_fract_z
Si Si1 0.648516 0.612035 0.100648
Si Si2 0.832529 0.165224 0.770397
Si Si3 0.167492 0.248578 0.464861
Si Si4 0.155885 0.371258 0.745377
Si Si5 0.857552 0.058028 0.654661
Si Si6 0.845033 0.321942 0.342519
Si Si7 0.867177 0.898664 0.766448
O O1 0.792726 0.592949 0.261359
O O2 0.634681 0.716526 0.105198
O O3 0.625819 0.554629 0.143069
O O4 0.516598 0.590918 0.862038
O O5 0.804105 0.266302 0.704278
O O6 0.820874 0.107627 0.680201
O O7 0.728167 0.138064 0.688633
O O8 0.989864 0.160809 0.028956
O O9 0.250000 0.250000 0.500000
O O10 0.247588 0.180522 0.632631
O O11 0.220197 0.345860 0.565100
O O12 0.000000 0.239724 0.250000
O O13 0.990701 0.369874 0.528963
O O14 0.245220 0.418365 0.934809
O O15 0.866031 0.955720 0.691206
#
# Coordination Sequence:
#
# PCOD9266277 Si02
#       7
#     8   8   8   8   8   8   8
#     4   9  19  35  62  87 125 175 209 267 324 390
#     4  10  19  37  62  89 126 171 215 260 326 394
#     4  11  23  41  69  95 120 161 223 286 331 395
#     4  11  20  35  61  97 131 159 224 276 321 380
#     4  11  21  37  60  92 128 176 217 258 327 404
#     4  10  21  36  61  94 122 159 211 275 332 373
#     4  10  21  41  63  86 123 173 216 260 330 408
#
# _framework density 21.862463999999999
#
# number of rings (size 3 to 8) (size 9 to 14) (size 15 to 20)
#    0.000    1.714    4.286    3.429    4.000    0.571 
#    2.571    5.714    0.000    4.286    0.000    0.000 
#    0.000    0.000    0.000    0.000    0.000    0.000 
#
# Total GULP energy -156010.489253 kJ/mol
# GULP energy per Si atom -5571.803188 kJ/mol
# Density = 2.181270 g / cm^3
# Si number density = 21.862464 Si / 1000 Ang^3
#
#
#
# Elastic Constant Matrix: (Units=GPa)
#
#
# Indices 1 2 3 4 5 6 
#
# 1 144.9302 1.6786 56.0445 0.0000 27.3838 0.0000
# 2 1.6786 24.7539 10.5786 0.0000 -7.6548 0.0000
# 3 56.0445 10.5786 134.2546 0.0000 15.4493 0.0000
# 4 0.0000 0.0000 0.0000 21.8834 0.0000 -11.2106
# 5 27.3838 -7.6548 15.4493 0.0000 44.9420 0.0000
# 6 0.0000 0.0000 0.0000 -11.2106 0.0000 22.4458
#
#
#
# Elastic Compliance Matrix: (Units=1/GPa)
#
#
# Indices 1 2 3 4 5 6 
#
# 1 0.008987 -0.000637 -0.003185 0.000000 -0.004490 0.000000
# 2 -0.000637 0.045301 -0.004411 0.000000 0.009620 0.000000
# 3 -0.003185 -0.004411 0.009359 0.000000 -0.002028 0.000000
# 4 0.000000 0.000000 0.000000 0.061409 0.000000 0.030671
# 5 -0.004490 0.009620 -0.002028 0.000000 0.027322 0.000000
# 6 0.000000 0.000000 0.000000 0.030671 0.000000 0.059871
#
#
# Mechanical properties :
#
#
# Convention : Reuss Voigt Hill
#
# Bulk Modulus (GPa) = 21.19444 48.94912 35.07178
# Shear Modulus (GPa) = 20.45489 33.56337 27.00913
#
# Velocity S-wave (km/s) = 3.06210 3.92242 3.51865
# Velocity P-wave (km/s) = 4.71354 6.55378 5.70830
#
# Compressibility (1/GPa) = 0.04718219
#
# Stress axis : x y z
#
# Youngs Moduli (GPa) = 111.27033 22.07474 106.84964
#
# Poissons Ratio (x) = 0.01406 0.34030
# Poissons Ratio (y) = 0.07085 0.47128
# Poissons Ratio (z) = 0.35438 0.09736
#
# Static dielectric constant tensor:
#      x y z
#    x 1.851630 0.000000 -0.003890 
#    y 0.000000 1.903420 0.000000 
#    z -0.003890 0.000000 1.807950 
# 
# From -- ./inp_files/222983.got.cif
#   From: 2010.05.17/outbox.cif.g08.bks.cpg/sg15_112_cif.got.tgz:222983.got - 2010.06.03 18:47:42.
