data_PCOD9266400
_publ_section_title
;
Structure prediction by ZEFSAII (Michael W. Deem and Ramdas Pophale) SiO2 
 PCOD9266400
Probable space group: C 2/C
;
_chemical_formula_sum "Si O2"
_cell_formula_units_Z 40
_cell_length_a 14.269217
_cell_length_b 9.420323
_cell_length_c 26.374624
_cell_angle_alpha 90.000000
_cell_angle_beta 154.430521
_cell_angle_gamma 90.000000
_cell_volume 1530.167491
_symmetry_space_group_name_H-M "C 2/C"
_symmetry_group_IT_number 15
_symmetry_cell_setting 'monoclinic'
loop_
_space_group_symop_operation_xyz
x,y,z
-x,y,1/2-z
-x,-y,-z
x,-y,1/2+z
1/2+x,1/2+y,z
1/2-x,1/2+y,1/2-z
1/2-x,1/2-y,-z
1/2+x,1/2-y,1/2+z
loop_
_atom_site_type_symbol
_atom_site_label
_atom_site_fract_x
_atom_site_fract_y
_atom_site_fract_z
Si Si1 0.893859 0.709532 0.244617
Si Si2 0.575697 0.212267 0.025586
Si Si3 0.842776 0.377840 0.081001
Si Si4 0.650282 0.515933 0.898459
Si Si5 0.242931 0.801563 0.780479
O O1 0.842405 0.656035 0.275543
O O2 0.000000 0.620924 0.250000
O O3 0.659843 0.763905 0.112088
O O4 0.067089 0.834403 0.338855
O O5 0.728845 0.339770 0.078371
O O6 0.680436 0.067039 0.054822
O O7 0.587749 0.212870 0.091776
O O8 0.098010 0.342675 0.206206
O O9 0.750000 0.250000 0.000000
O O10 0.747468 0.509903 0.003068
O O11 0.433074 0.419840 0.790581
#
# Coordination Sequence:
#
# PCOD9266400 Si02
#       5
#     8   8   8   8   8
#     4  12  24  36  57  92 123 152 193 246 300 346
#     4  10  19  39  63  85 115 155 202 244 283 350
#     4   8  14  35  63  81 106 151 202 241 274 335
#     4  10  19  37  64  88 112 151 201 249 284 341
#     4  10  19  38  61  84 116 160 194 242 295 344
#
# _framework density 26.140930000000001
#
# number of rings (size 3 to 8) (size 9 to 14) (size 15 to 20)
#    0.000    2.400    6.000    3.600    0.000    4.000 
#    0.000    1.000    0.000    2.400    0.000    0.000 
#    0.000    0.000    0.000    0.000    0.000    0.000 
#
# Total GULP energy -111928.313532 kJ/mol
# GULP energy per Si atom -5596.415677 kJ/mol
# Density = 2.608143 g / cm^3
# Si number density = 26.140930 Si / 1000 Ang^3
#
#
#
# Elastic Constant Matrix: (Units=GPa)
#
#
# Indices 1 2 3 4 5 6 
#
# 1 177.0613 16.3712 32.7366 -0.0003 1.1964 -0.0001
# 2 16.3712 65.7468 44.2429 -0.0001 4.6217 -0.0001
# 3 32.7366 44.2429 147.4261 0.0000 -6.5938 -0.0004
# 4 -0.0003 -0.0001 0.0000 33.0725 -0.0004 2.2055
# 5 1.1964 4.6217 -6.5938 -0.0004 42.5436 -0.0002
# 6 -0.0001 -0.0001 -0.0004 2.2055 -0.0002 10.1332
#
#
#
# Elastic Compliance Matrix: (Units=1/GPa)
#
#
# Indices 1 2 3 4 5 6 
#
# 1 0.005921 -0.000706 -0.001115 0.000000 -0.000263 0.000000
# 2 -0.000706 0.019525 -0.005837 0.000000 -0.003006 0.000000
# 3 -0.001115 -0.005837 0.008874 0.000000 0.002041 0.000000
# 4 0.000000 0.000000 0.000000 0.030682 0.000000 -0.006678
# 5 -0.000263 -0.003006 0.002041 0.000000 0.024156 0.000000
# 6 0.000000 0.000000 0.000000 -0.006678 0.000000 0.100139
#
#
# Mechanical properties :
#
#
# Convention : Reuss Voigt Hill
#
# Bulk Modulus (GPa) = 52.62020 64.10397 58.36208
# Shear Modulus (GPa) = 23.70272 36.94209 30.32240
#
# Velocity S-wave (km/s) = 3.01446 3.76332 3.40951
# Velocity P-wave (km/s) = 5.68235 6.59235 6.15419
#
# Compressibility (1/GPa) = 0.01900411
#
# Stress axis : x y z
#
# Youngs Moduli (GPa) = 168.89365 51.21666 112.69370
#
# Poissons Ratio (x) = 0.03615 0.12562
# Poissons Ratio (y) = 0.11920 0.65781
# Poissons Ratio (z) = 0.18827 0.29896
#
# Static dielectric constant tensor:
#      x y z
#    x 2.125470 0.000000 -0.021920 
#    y 0.000000 2.173400 0.000000 
#    z -0.021920 0.000000 1.998480 
# 
# From -- ./inp_files/270034.got.cif
#   From: 2010.05.17/outbox.cif.g08.bks.cpg/sg15_136_cif.got.tgz:270034.got - 2010.06.03 18:47:42.
