data_PCOD9266960
_publ_section_title
;
Structure prediction by ZEFSAII (Michael W. Deem and Ramdas Pophale) SiO2 
 PCOD9266960
Probable space group: C 2/C
;
_chemical_formula_sum "Si O2"
_cell_formula_units_Z 60
_cell_length_a 29.561563
_cell_length_b 9.937607
_cell_length_c 12.632832
_cell_angle_alpha 90.000000
_cell_angle_beta 133.397358
_cell_angle_gamma 90.000000
_cell_volume 2696.554001
_symmetry_space_group_name_H-M "C 2/C"
_symmetry_group_IT_number 15
_symmetry_cell_setting 'monoclinic'
loop_
_space_group_symop_operation_xyz
x,y,z
-x,y,1/2-z
-x,-y,-z
x,-y,1/2+z
1/2+x,1/2+y,z
1/2-x,1/2+y,1/2-z
1/2-x,1/2-y,-z
1/2+x,1/2-y,1/2+z
loop_
_atom_site_type_symbol
_atom_site_label
_atom_site_fract_x
_atom_site_fract_y
_atom_site_fract_z
Si Si1 0.111540 0.287760 0.748003
Si Si2 0.654002 0.634761 0.002616
Si Si3 0.000000 0.269743 0.250000
Si Si4 0.661244 0.865624 0.178741
Si Si5 0.821261 0.398071 0.953853
Si Si6 0.621457 0.647857 0.540724
Si Si7 0.733925 0.977499 0.954888
Si Si8 0.432007 0.927865 0.304977
O O1 0.110882 0.192616 0.644799
O O2 0.179123 0.364385 0.863482
O O3 0.063957 0.413353 0.665334
O O4 0.103995 0.204500 0.844138
O O5 0.674467 0.748412 0.118238
O O6 0.706747 0.585648 0.005240
O O7 0.635179 0.506186 0.040377
O O8 0.939779 0.182864 0.126164
O O9 0.988673 0.361814 0.334918
O O10 0.595851 0.854229 0.136582
O O11 0.661398 0.004813 0.114248
O O12 0.712223 0.894773 0.350208
O O13 0.824414 0.246978 0.916733
O O14 0.762550 0.463319 0.920571
O O15 0.876994 0.413768 0.128309
#
# Coordination Sequence:
#
# PCOD9266960 Si02
#       8
#     8   8   4   8   8   8   8   8
#     4  10  21  42  62  96 130 171 222 267 318 385
#     4  12  25  38  65  97 140 172 210 274 322 388
#     4  10  24  46  70  94 126 168 222 276 338 384
#     4  10  19  38  63  91 129 167 218 255 311 383
#     4   9  17  38  61  86 128 165 213 263 302 382
#     4  11  24  42  65  94 133 169 214 281 338 379
#     4  10  22  35  66  94 132 177 220 259 307 392
#     4   9  19  39  69  90 119 164 220 275 308 390
#
# _framework density 22.250620999999999
#
# number of rings (size 3 to 8) (size 9 to 14) (size 15 to 20)
#    0.000    2.133    5.333    0.400    1.867    4.267 
#    0.000    3.333    0.000    0.000    0.000    0.000 
#    0.000    0.000    0.000    0.000    0.000    0.000 
#
# Total GULP energy -167503.984940 kJ/mol
# GULP energy per Si atom -5583.466165 kJ/mol
# Density = 2.219998 g / cm^3
# Si number density = 22.250621 Si / 1000 Ang^3
#
#
#
# Elastic Constant Matrix: (Units=GPa)
#
#
# Indices 1 2 3 4 5 6 
#
# 1 56.3105 11.3594 3.5085 0.0000 -12.9951 0.0000
# 2 11.3594 112.3777 19.2368 0.0000 -5.7462 0.0000
# 3 3.5085 19.2368 68.5296 0.0000 -22.0441 0.0000
# 4 0.0000 0.0000 0.0000 22.0654 0.0000 -11.6648
# 5 -12.9951 -5.7462 -22.0441 0.0000 30.3893 0.0000
# 6 0.0000 0.0000 0.0000 -11.6648 0.0000 19.1456
#
#
#
# Elastic Compliance Matrix: (Units=1/GPa)
#
#
# Indices 1 2 3 4 5 6 
#
# 1 0.020393 -0.002021 0.002877 0.000000 0.010425 0.000000
# 2 -0.002021 0.009549 -0.002966 0.000000 -0.001210 0.000000
# 3 0.002877 -0.002966 0.020208 0.000000 0.015328 0.000000
# 4 0.000000 0.000000 0.000000 0.066852 0.000000 0.040730
# 5 0.010425 -0.001210 0.015328 0.000000 0.048254 0.000000
# 6 0.000000 0.000000 0.000000 0.040730 0.000000 0.077047
#
#
# Mechanical properties :
#
#
# Convention : Reuss Voigt Hill
#
# Bulk Modulus (GPa) = 21.77265 33.93636 27.85451
# Shear Modulus (GPa) = 19.09613 27.86094 23.47854
#
# Velocity S-wave (km/s) = 2.93273 3.54240 3.25189
# Velocity P-wave (km/s) = 4.61241 5.65831 5.16192
#
# Compressibility (1/GPa) = 0.04592917
#
# Stress axis : x y z
#
# Youngs Moduli (GPa) = 49.03660 104.72626 49.48479
#
# Poissons Ratio (x) = 0.21162 -0.14235
# Poissons Ratio (y) = 0.09909 0.14678
# Poissons Ratio (z) = -0.14106 0.31064
#
# Static dielectric constant tensor:
#      x y z
#    x 1.896520 0.000000 0.016340 
#    y 0.000000 1.832790 0.000000 
#    z 0.016340 0.000000 1.837440 
# 
# From -- ./inp_files/125960.got.cif
#   From: 2010.05.17/outbox.cif.g08.bks.cpg/sg15_63_cif.got.tgz:125960.got - 2010.06.03 18:47:42.
