data_PCOD9266261
_publ_section_title
;
Structure prediction by ZEFSAII (Michael W. Deem and Ramdas Pophale) SiO2 
 PCOD9266261
Probable space group: C 2/C
;
_chemical_formula_sum "Si O2"
_cell_formula_units_Z 48
_cell_length_a 10.007852
_cell_length_b 13.336065
_cell_length_c 15.407851
_cell_angle_alpha 90.000000
_cell_angle_beta 80.607362
_cell_angle_gamma 90.000000
_cell_volume 2028.844392
_symmetry_space_group_name_H-M "C 2/C"
_symmetry_group_IT_number 15
_symmetry_cell_setting 'monoclinic'
loop_
_space_group_symop_operation_xyz
x,y,z
-x,y,1/2-z
-x,-y,-z
x,-y,1/2+z
1/2+x,1/2+y,z
1/2-x,1/2+y,1/2-z
1/2-x,1/2-y,-z
1/2+x,1/2-y,1/2+z
loop_
_atom_site_type_symbol
_atom_site_label
_atom_site_fract_x
_atom_site_fract_y
_atom_site_fract_z
Si Si1 0.381383 0.272620 0.574426
Si Si2 0.852356 0.586923 0.478296
Si Si3 0.492977 0.532626 0.099863
Si Si4 0.770196 0.459523 0.644802
Si Si5 0.660574 0.744586 0.226946
Si Si6 0.808885 0.533503 0.820866
O O1 0.283696 0.346157 0.528064
O O2 0.432819 0.175594 0.517697
O O3 0.500263 0.347393 0.588609
O O4 0.304670 0.244450 0.672825
O O5 0.835263 0.495774 0.547812
O O6 0.884004 0.535064 0.383712
O O7 0.616708 0.499260 0.146155
O O8 0.348881 0.498796 0.152079
O O9 0.500000 0.500000 0.000000
O O10 0.748361 0.344310 0.675446
O O11 0.843476 0.509818 0.718195
O O12 0.500000 0.722851 0.250000
O O13 0.677106 0.847728 0.173007
#
# Coordination Sequence:
#
# PCOD9266261 Si02
#       6
#     8   8   8   8   8   8
#     4  10  19  37  62  87 117 161 203 243 301 365
#     4  10  21  37  62  90 122 160 200 250 306 362
#     4  11  20  39  66  95 119 156 209 255 303 363
#     4  12  20  38  67  91 121 156 207 258 297 367
#     4  12  23  38  64  88 120 168 208 246 312 370
#     4  11  23  38  61  92 124 156 205 256 306 358
#
# _framework density 23.658787
#
# number of rings (size 3 to 8) (size 9 to 14) (size 15 to 20)
#    0.000    1.000   10.000    0.500    0.000    0.667 
#    0.000    0.833    3.667    0.000    0.000    0.000 
#    0.000    0.000    0.000    0.000    0.000    0.000 
#
# Total GULP energy -133871.679215 kJ/mol
# GULP energy per Si atom -5577.986634 kJ/mol
# Density = 2.360494 g / cm^3
# Si number density = 23.658787 Si / 1000 Ang^3
#
#
#
# Elastic Constant Matrix: (Units=GPa)
#
#
# Indices 1 2 3 4 5 6 
#
# 1 38.7763 2.9374 24.1243 0.0000 -3.4966 0.0000
# 2 2.9374 168.0689 60.5736 0.0000 4.7915 0.0000
# 3 24.1243 60.5736 163.1685 0.0000 14.2712 0.0000
# 4 0.0000 0.0000 0.0000 56.1488 0.0000 -5.9004
# 5 -3.4966 4.7915 14.2712 0.0000 22.9778 0.0000
# 6 0.0000 0.0000 0.0000 -5.9004 0.0000 6.6476
#
#
#
# Elastic Compliance Matrix: (Units=1/GPa)
#
#
# Indices 1 2 3 4 5 6 
#
# 1 0.029848 0.001261 -0.005557 0.000000 0.007731 0.000000
# 2 0.001261 0.006923 -0.002799 0.000000 0.000487 0.000000
# 3 -0.005557 -0.002799 0.008472 0.000000 -0.005524 0.000000
# 4 0.000000 0.000000 0.000000 0.019642 0.000000 0.017434
# 5 0.007731 0.000487 -0.005524 0.000000 0.048026 0.000000
# 6 0.000000 0.000000 0.000000 0.017434 0.000000 0.165904
#
#
# Mechanical properties :
#
#
# Convention : Reuss Voigt Hill
#
# Bulk Modulus (GPa) = 32.20352 60.58716 46.39534
# Shear Modulus (GPa) = 16.48223 35.98007 26.23115
#
# Velocity S-wave (km/s) = 2.64230 3.90396 3.33337
# Velocity P-wave (km/s) = 4.79064 6.78127 5.87094
#
# Compressibility (1/GPa) = 0.03105250
#
# Stress axis : x y z
#
# Youngs Moduli (GPa) = 33.50322 144.45025 118.02923
#
# Poissons Ratio (x) = -0.18212 0.65591
# Poissons Ratio (y) = -0.04224 0.33036
# Poissons Ratio (z) = 0.18618 0.40431
#
# Static dielectric constant tensor:
#      x y z
#    x 1.978500 0.000000 0.074040 
#    y 0.000000 1.931070 0.000000 
#    z 0.074040 0.000000 1.991170 
# 
# From -- ./inp_files/152045.got.cif
#   From: 2010.05.17/outbox.cif.g08.bks.cpg/sg15_77_cif.got.tgz:152045.got - 2010.06.03 18:47:42.
