data_PCOD9266078
_publ_section_title
;
Structure prediction by ZEFSAII (Michael W. Deem and Ramdas Pophale) SiO2 
 PCOD9266078
Probable space group: C 2/C
;
_chemical_formula_sum "Si O2"
_cell_formula_units_Z 40
_cell_length_a 29.703698
_cell_length_b 5.229655
_cell_length_c 12.875790
_cell_angle_alpha 90.000000
_cell_angle_beta 107.525625
_cell_angle_gamma 90.000000
_cell_volume 1907.285280
_symmetry_space_group_name_H-M "C 2/C"
_symmetry_group_IT_number 15
_symmetry_cell_setting 'monoclinic'
loop_
_space_group_symop_operation_xyz
x,y,z
-x,y,1/2-z
-x,-y,-z
x,-y,1/2+z
1/2+x,1/2+y,z
1/2-x,1/2+y,1/2-z
1/2-x,1/2-y,-z
1/2+x,1/2-y,1/2+z
loop_
_atom_site_type_symbol
_atom_site_label
_atom_site_fract_x
_atom_site_fract_y
_atom_site_fract_z
Si Si1 0.815219 0.657575 0.353589
Si Si2 0.642543 0.796086 0.832769
Si Si3 0.050867 0.859097 0.336345
Si Si4 0.595083 0.137892 0.942590
Si Si5 0.210858 0.156134 0.053820
O O1 0.821744 0.705040 0.236661
O O2 0.868390 0.661850 0.438099
O O3 0.794991 0.379262 0.365620
O O4 0.785903 0.880528 0.390719
O O5 0.591867 0.669421 0.776827
O O6 0.664057 0.659103 0.949144
O O7 0.629115 0.078994 0.865695
O O8 0.062989 0.617761 0.418791
O O9 0.000000 0.847961 0.250000
O O10 0.062117 0.120871 0.402488
O O11 0.250000 0.250000 0.000000
#
# Coordination Sequence:
#
# PCOD9266078 Si02
#       5
#     8   8   8   8   8
#     4  11  21  39  63  82 117 157 190 234 292 343
#     4   9  23  37  62  83 119 152 195 232 291 335
#     4  10  19  37  60  82 118 153 188 240 290 332
#     4   9  19  37  55  83 117 149 193 236 282 334
#     4  11  24  40  59  88 119 148 193 243 285 343
#
# _framework density 20.972214999999998
#
# number of rings (size 3 to 8) (size 9 to 14) (size 15 to 20)
#    1.200    0.800    2.000    1.200    2.800    1.600 
#    0.000    2.000    0.000    0.000    0.000    0.000 
#    0.000    0.000    0.000    0.000    0.000    0.000 
#
# Total GULP energy -111469.294624 kJ/mol
# GULP energy per Si atom -5573.464731 kJ/mol
# Density = 2.092448 g / cm^3
# Si number density = 20.972215 Si / 1000 Ang^3
#
#
#
# Elastic Constant Matrix: (Units=GPa)
#
#
# Indices 1 2 3 4 5 6 
#
# 1 52.6519 -8.5566 7.1844 0.0000 14.4123 0.0000
# 2 -8.5566 117.0403 10.6895 0.0000 9.6752 0.0000
# 3 7.1844 10.6895 60.1031 0.0000 -0.4591 0.0000
# 4 0.0000 0.0000 0.0000 -5.3737 0.0000 -1.9405
# 5 14.4123 9.6752 -0.4591 0.0000 31.6862 0.0000
# 6 0.0000 0.0000 0.0000 -1.9405 0.0000 25.1324
#
#
#
# Elastic Compliance Matrix: (Units=1/GPa)
#
#
# Indices 1 2 3 4 5 6 
#
# 1 0.023060 0.002939 -0.003366 0.000000 -0.011434 0.000000
# 2 0.002939 0.009292 -0.002036 0.000000 -0.004203 0.000000
# 3 -0.003366 -0.002036 0.017421 0.000000 0.002405 0.000000
# 4 0.000000 0.000000 0.000000 -0.181044 0.000000 -0.013979
# 5 -0.011434 -0.004203 0.002405 0.000000 0.038079 0.000000
# 6 0.000000 0.000000 0.000000 -0.013979 0.000000 0.038710
#
#
# Mechanical properties :
#
#
# Convention : Reuss Voigt Hill
#
# Bulk Modulus (GPa) = 22.29900 27.60331 24.95116
# Shear Modulus (GPa) = -144.48102 24.98752 -59.74675
#
# Velocity S-wave (km/s) = -8.30910 3.45550 -5.34325
# Velocity P-wave (km/s) = 9.02215 5.39546 5.11313
#
# Compressibility (1/GPa) = 0.04484505
#
# Stress axis : x y z
#
# Youngs Moduli (GPa) = 43.36607 107.61567 57.40208
#
# Poissons Ratio (x) = -0.31623 0.19324
# Poissons Ratio (y) = -0.12743 0.11687
# Poissons Ratio (z) = 0.14599 0.21911
#
# Static dielectric constant tensor:
#      x y z
#    x 1.801760 0.000000 0.015880 
#    y 0.000000 1.769350 0.000000 
#    z 0.015880 0.000000 1.748750 
# 
# From -- ./inp_files/125104.got.cif
#   From: 2010.05.17/outbox.cif.g08.bks.cpg/sg15_63_cif.got.tgz:125104.got - 2010.06.03 18:47:42.
