data_PCOD9266510
_publ_section_title
;
Structure prediction by ZEFSAII (Michael W. Deem and Ramdas Pophale) SiO2 
 PCOD9266510
Probable space group: C 2/C
;
_chemical_formula_sum "Si O2"
_cell_formula_units_Z 52
_cell_length_a 31.093452
_cell_length_b 14.831187
_cell_length_c 15.692173
_cell_angle_alpha 90.000000
_cell_angle_beta 161.716169
_cell_angle_gamma 90.000000
_cell_volume 2270.264158
_symmetry_space_group_name_H-M "C 2/C"
_symmetry_group_IT_number 15
_symmetry_cell_setting 'monoclinic'
loop_
_space_group_symop_operation_xyz
x,y,z
-x,y,1/2-z
-x,-y,-z
x,-y,1/2+z
1/2+x,1/2+y,z
1/2-x,1/2+y,1/2-z
1/2-x,1/2-y,-z
1/2+x,1/2-y,1/2+z
loop_
_atom_site_type_symbol
_atom_site_label
_atom_site_fract_x
_atom_site_fract_y
_atom_site_fract_z
Si Si1 0.500000 0.699855 0.250000
Si Si2 0.784721 0.247781 0.198388
Si Si3 0.198255 0.602625 0.901516
Si Si4 0.115840 0.916250 0.120504
Si Si5 0.112333 0.933611 0.293085
Si Si6 0.872480 0.484014 0.068001
Si Si7 0.350607 0.625828 0.461948
O O1 0.629612 0.746170 0.446239
O O2 0.562810 0.640536 0.443051
O O3 0.832938 0.338907 0.241697
O O4 0.870965 0.213691 0.441632
O O5 0.783604 0.172331 0.121911
O O6 0.094404 0.564899 0.779050
O O7 0.284203 0.516562 0.031883
O O8 0.093788 0.876462 0.172503
O O9 0.276160 0.933007 0.410406
O O10 0.030541 0.010829 0.962875
O O11 0.176940 0.873691 0.489507
O O12 0.000000 0.505081 0.250000
O O13 0.769457 0.426205 0.813199
O O14 0.500000 0.579488 0.750000
#
# Coordination Sequence:
#
# PCOD9266510 Si02
#       7
#     4   8   8   8   8   8   8
#     4  12  22  40  70  94 128 182 234 264 332 428
#     4  10  23  37  63  95 131 175 223 270 326 400
#     4   9  20  39  62  96 131 175 220 274 327 402
#     4  10  20  35  67 102 124 166 222 283 327 403
#     4  10  19  37  66 102 127 163 229 279 333 386
#     4  10  21  38  66 100 136 167 219 284 338 392
#     4  11  22  38  66  98 131 175 218 275 328 396
#
# _framework density 22.904823
#
# number of rings (size 3 to 8) (size 9 to 14) (size 15 to 20)
#    0.000    1.846    3.077    0.923    6.462    0.000 
#    0.000    4.615    3.385    0.000    0.000    0.000 
#    0.000    0.000    0.000    0.000    0.000    0.000 
#
# Total GULP energy -144758.260416 kJ/mol
# GULP energy per Si atom -5567.625401 kJ/mol
# Density = 2.285269 g / cm^3
# Si number density = 22.904823 Si / 1000 Ang^3
#
#
#
# Elastic Constant Matrix: (Units=GPa)
#
#
# Indices 1 2 3 4 5 6 
#
# 1 169.1175 35.4837 53.2294 0.0000 -26.9082 0.0000
# 2 35.4837 30.5366 6.8598 0.0000 -15.4941 0.0000
# 3 53.2294 6.8598 49.4586 0.0000 -3.6457 0.0000
# 4 0.0000 0.0000 0.0000 26.9971 0.0000 12.3151
# 5 -26.9082 -15.4941 -3.6457 0.0000 59.9718 0.0000
# 6 0.0000 0.0000 0.0000 12.3151 0.0000 160.0635
#
#
#
# Elastic Compliance Matrix: (Units=1/GPa)
#
#
# Indices 1 2 3 4 5 6 
#
# 1 0.011952 -0.010336 -0.011281 0.000000 0.002006 0.000000
# 2 -0.010336 0.047664 0.005101 0.000000 0.007987 0.000000
# 3 -0.011281 0.005101 0.031518 0.000000 -0.001828 0.000000
# 4 0.000000 0.000000 0.000000 0.038388 0.000000 -0.002954
# 5 0.002006 0.007987 -0.001828 0.000000 0.019527 0.000000
# 6 0.000000 0.000000 0.000000 -0.002954 0.000000 0.006475
#
#
# Mechanical properties :
#
#
# Convention : Reuss Voigt Hill
#
# Bulk Modulus (GPa) = 17.21088 48.91761 33.06425
# Shear Modulus (GPa) = 24.04731 59.64245 41.84488
#
# Velocity S-wave (km/s) = 3.24370 5.10840 4.27887
# Velocity P-wave (km/s) = 4.64319 7.49651 6.23526
#
# Compressibility (1/GPa) = 0.05810277
#
# Stress axis : x y z
#
# Youngs Moduli (GPa) = 83.67020 20.98009 31.72765
#
# Poissons Ratio (x) = 0.21684 0.35793
# Poissons Ratio (y) = 0.86478 -0.16185
# Poissons Ratio (z) = 0.94392 -0.10703
#
# Static dielectric constant tensor:
#      x y z
#    x 2.074890 0.000000 0.015980 
#    y 0.000000 1.904730 0.000000 
#    z 0.015980 0.000000 1.873510 
# 
# From -- ./inp_files/182912.got.cif
#   From: 2010.05.17/outbox.cif.g08.bks.cpg/sg15_92_cif.got.tgz:182912.got - 2010.06.03 18:47:42.
