data_PCOD9266813
_publ_section_title
;
Structure prediction by ZEFSAII (Michael W. Deem and Ramdas Pophale) SiO2 
 PCOD9266813
Probable space group: C 2/C
;
_chemical_formula_sum "Si O2"
_cell_formula_units_Z 48
_cell_length_a 30.227170
_cell_length_b 8.471226
_cell_length_c 9.905356
_cell_angle_alpha 90.000000
_cell_angle_beta 94.370586
_cell_angle_gamma 90.000000
_cell_volume 2529.001460
_symmetry_space_group_name_H-M "C 2/C"
_symmetry_group_IT_number 15
_symmetry_cell_setting 'monoclinic'
loop_
_space_group_symop_operation_xyz
x,y,z
-x,y,1/2-z
-x,-y,-z
x,-y,1/2+z
1/2+x,1/2+y,z
1/2-x,1/2+y,1/2-z
1/2-x,1/2-y,-z
1/2+x,1/2-y,1/2+z
loop_
_atom_site_type_symbol
_atom_site_label
_atom_site_fract_x
_atom_site_fract_y
_atom_site_fract_z
Si Si1 0.575260 0.595070 0.113931
Si Si2 0.202707 0.190264 0.037206
Si Si3 0.360574 0.822873 0.708917
Si Si4 0.854339 0.307273 0.237784
Si Si5 0.954461 0.839012 0.183910
Si Si6 0.657963 0.376981 0.041753
O O1 0.600814 0.747698 0.177431
O O2 0.552517 0.499693 0.230511
O O3 0.545253 0.630951 0.976776
O O4 0.614788 0.482259 0.068004
O O5 0.167217 0.239815 0.915274
O O6 0.198269 0.001481 0.054720
O O7 0.250000 0.250000 0.000000
O O8 0.186060 0.272225 0.170136
O O9 0.411365 0.766915 0.704947
O O10 0.356929 0.010234 0.701456
O O11 0.340943 0.757108 0.844570
O O12 0.847823 0.199633 0.105030
O O13 0.000000 0.767194 0.250000
#
# Coordination Sequence:
#
# PCOD9266813 Si02
#       6
#     8   8   8   8   8   8
#     4  10  19  38  61  89 118 159 207 248 301 362
#     4  11  23  41  64  90 118 158 205 252 301 364
#     4  11  23  39  61  90 126 161 199 250 306 362
#     4  11  21  39  63  88 126 162 196 250 308 361
#     4  11  21  38  63  91 121 159 209 254 302 365
#     4  10  20  39  65  85 120 162 200 243 301 359
#
# _framework density 18.979823
#
# number of rings (size 3 to 8) (size 9 to 14) (size 15 to 20)
#    0.000    1.333    5.000    3.500    0.000    2.667 
#    0.000    4.167    0.000    0.000    0.000    0.000 
#    0.000    0.000    0.000    0.000    0.000    0.000 
#
# Total GULP energy -134063.193097 kJ/mol
# GULP energy per Si atom -5585.966379 kJ/mol
# Density = 1.893662 g / cm^3
# Si number density = 18.979823 Si / 1000 Ang^3
#
#
#
# Elastic Constant Matrix: (Units=GPa)
#
#
# Indices 1 2 3 4 5 6 
#
# 1 79.8497 16.1203 -0.4321 0.0000 -9.9644 0.0000
# 2 16.1203 67.1662 -3.1906 0.0000 -0.8112 0.0000
# 3 -0.4321 -3.1906 73.6083 0.0000 -10.9481 0.0000
# 4 0.0000 0.0000 0.0000 15.7826 0.0000 -4.2487
# 5 -9.9644 -0.8112 -10.9481 0.0000 6.6695 0.0000
# 6 0.0000 0.0000 0.0000 -4.2487 0.0000 13.1111
#
#
#
# Elastic Compliance Matrix: (Units=1/GPa)
#
#
# Indices 1 2 3 4 5 6 
#
# 1 0.017499 -0.003553 0.004992 0.000000 0.033905 0.000000
# 2 -0.003553 0.015714 0.000205 0.000000 -0.003061 0.000000
# 3 0.004992 0.000205 0.019497 0.000000 0.039487 0.000000
# 4 0.000000 0.000000 0.000000 0.069417 0.000000 0.022495
# 5 0.033905 -0.003061 0.039487 0.000000 0.265036 0.000000
# 6 0.000000 0.000000 0.000000 0.022495 0.000000 0.083561
#
#
# Mechanical properties :
#
#
# Convention : Reuss Voigt Hill
#
# Bulk Modulus (GPa) = 17.85828 27.29104 22.57466
# Shear Modulus (GPa) = 10.28592 20.98774 15.63683
#
# Velocity S-wave (km/s) = 2.33049 3.32895 2.87342
# Velocity P-wave (km/s) = 4.08302 5.40242 4.78838
#
# Compressibility (1/GPa) = 0.05599644
#
# Stress axis : x y z
#
# Youngs Moduli (GPa) = 57.14641 63.63749 51.29081
#
# Poissons Ratio (x) = 0.22612 -0.25602
# Poissons Ratio (y) = 0.20305 -0.01052
# Poissons Ratio (z) = -0.28525 -0.01305
#
# Static dielectric constant tensor:
#      x y z
#    x 1.664800 0.000000 -0.002920 
#    y 0.000000 1.635030 0.000000 
#    z -0.002920 0.000000 1.674330 
# 
# From -- ./inp_files/68575.got.cif
#   From: 2010.05.17/outbox.cif.g08.bks.cpg/sg15_35_cif.got.tgz:68575.got - 2010.06.03 18:47:42.
