data_PCOD9266488
_publ_section_title
;
Structure prediction by ZEFSAII (Michael W. Deem and Ramdas Pophale) SiO2 
 PCOD9266488
Probable space group: C 2/C
;
_chemical_formula_sum "Si O2"
_cell_formula_units_Z 44
_cell_length_a 15.390356
_cell_length_b 10.963365
_cell_length_c 12.433580
_cell_angle_alpha 90.000000
_cell_angle_beta 126.165168
_cell_angle_gamma 90.000000
_cell_volume 1693.690375
_symmetry_space_group_name_H-M "C 2/C"
_symmetry_group_IT_number 15
_symmetry_cell_setting 'monoclinic'
loop_
_space_group_symop_operation_xyz
x,y,z
-x,y,1/2-z
-x,-y,-z
x,-y,1/2+z
1/2+x,1/2+y,z
1/2-x,1/2+y,1/2-z
1/2-x,1/2-y,-z
1/2+x,1/2-y,1/2+z
loop_
_atom_site_type_symbol
_atom_site_label
_atom_site_fract_x
_atom_site_fract_y
_atom_site_fract_z
Si Si1 0.186245 0.750579 0.801510
Si Si2 0.320598 0.309212 0.214539
Si Si3 0.399898 0.155520 0.075258
Si Si4 0.500000 0.070102 0.750000
Si Si5 0.924696 0.110288 0.478191
Si Si6 0.619263 0.463649 0.856226
O O1 0.294460 0.707129 0.821174
O O2 0.136105 0.835369 0.668623
O O3 0.200592 0.852598 0.903597
O O4 0.098125 0.650640 0.773083
O O5 0.364235 0.201749 0.168587
O O6 0.383779 0.431311 0.234953
O O7 0.204719 0.345252 0.075924
O O8 0.467464 0.266603 0.069650
O O9 0.453834 0.024519 0.126942
O O10 0.855561 0.041277 0.518915
O O11 0.000000 0.000000 0.500000
O O12 0.500000 0.407389 0.750000
#
# Coordination Sequence:
#
# PCOD9266488 Si02
#       6
#     8   8   8   4   8   8
#     4  11  23  41  62  97 133 168 216 276 324 380
#     4   9  22  41  61  89 126 167 211 271 322 374
#     4   9  22  40  63  91 130 168 210 267 326 381
#     4  12  24  40  66  96 134 174 218 258 326 410
#     4  10  19  37  65  93 124 165 212 271 312 367
#     4  11  21  40  68  95 123 171 228 267 314 390
#
# _framework density 25.978774999999999
#
# number of rings (size 3 to 8) (size 9 to 14) (size 15 to 20)
#    0.000    1.818    2.727    1.091    7.636    2.909 
#    0.000    2.727    0.000    0.000    0.000    0.000 
#    0.000    0.000    0.000    0.000    0.000    0.000 
#
# Total GULP energy -122881.799627 kJ/mol
# GULP energy per Si atom -5585.536347 kJ/mol
# Density = 2.591965 g / cm^3
# Si number density = 25.978775 Si / 1000 Ang^3
#
#
#
# Elastic Constant Matrix: (Units=GPa)
#
#
# Indices 1 2 3 4 5 6 
#
# 1 104.3248 48.7287 -7.7220 0.0000 -40.2894 0.0000
# 2 48.7287 151.1556 19.1059 0.0000 -26.6866 0.0000
# 3 -7.7220 19.1059 48.3595 0.0000 1.5199 0.0000
# 4 0.0000 0.0000 0.0000 49.2598 0.0000 -1.2075
# 5 -40.2894 -26.6866 1.5199 0.0000 34.0407 0.0000
# 6 0.0000 0.0000 0.0000 -1.2075 0.0000 34.1157
#
#
#
# Elastic Compliance Matrix: (Units=1/GPa)
#
#
# Indices 1 2 3 4 5 6 
#
# 1 0.018959 -0.003058 0.003611 0.000000 0.019880 0.000000
# 2 -0.003058 0.008710 -0.004036 0.000000 0.003389 0.000000
# 3 0.003611 -0.004036 0.022847 0.000000 0.000089 0.000000
# 4 0.000000 0.000000 0.000000 0.020318 0.000000 0.000719
# 5 0.019880 0.003389 0.000089 0.000000 0.055559 0.000000
# 6 0.000000 0.000000 0.000000 0.000719 0.000000 0.029338
#
#
# Mechanical properties :
#
#
# Convention : Reuss Voigt Hill
#
# Bulk Modulus (GPa) = 22.96296 47.11836 35.04066
# Shear Modulus (GPa) = 28.21455 39.73171 33.97313
#
# Velocity S-wave (km/s) = 3.29912 3.91499 3.62017
# Velocity P-wave (km/s) = 4.83431 6.21392 5.56702
#
# Compressibility (1/GPa) = 0.04354839
#
# Stress axis : x y z
#
# Youngs Moduli (GPa) = 52.74596 114.80932 43.76981
#
# Poissons Ratio (x) = 0.35113 -0.15804
# Poissons Ratio (y) = 0.16132 0.17666
# Poissons Ratio (z) = -0.19046 0.46338
#
# Static dielectric constant tensor:
#      x y z
#    x 2.316620 0.000000 0.017550 
#    y 0.000000 2.019040 0.000000 
#    z 0.017550 0.000000 2.194170 
# 
# From -- ./inp_files/159468.got.cif
#   From: 2010.05.17/outbox.cif.g08.bks.cpg/sg15_80_cif.got.tgz:159468.got - 2010.06.03 18:47:42.
