data_PCOD9266967
_publ_section_title
;
Structure prediction by ZEFSAII (Michael W. Deem and Ramdas Pophale) SiO2 
 PCOD9266967
Probable space group: C 2/C
;
_chemical_formula_sum "Si O2"
_cell_formula_units_Z 60
_cell_length_a 11.788451
_cell_length_b 23.797442
_cell_length_c 20.009027
_cell_angle_alpha 90.000000
_cell_angle_beta 149.500199
_cell_angle_gamma 90.000000
_cell_volume 2848.913766
_symmetry_space_group_name_H-M "C 2/C"
_symmetry_group_IT_number 15
_symmetry_cell_setting 'monoclinic'
loop_
_space_group_symop_operation_xyz
x,y,z
-x,y,1/2-z
-x,-y,-z
x,-y,1/2+z
1/2+x,1/2+y,z
1/2-x,1/2+y,1/2-z
1/2-x,1/2-y,-z
1/2+x,1/2-y,1/2+z
loop_
_atom_site_type_symbol
_atom_site_label
_atom_site_fract_x
_atom_site_fract_y
_atom_site_fract_z
Si Si1 0.071892 0.265415 0.717136
Si Si2 0.010013 0.068241 0.088983
Si Si3 0.506067 0.232342 0.626940
Si Si4 0.638386 0.641207 0.885717
Si Si5 0.500000 0.307252 0.750000
Si Si6 0.985469 0.612860 0.665694
Si Si7 0.361665 0.139350 0.357499
Si Si8 0.549220 0.560818 0.598227
O O1 0.338058 0.251736 0.854250
O O2 0.061946 0.308062 0.650961
O O3 0.000000 0.292592 0.750000
O O4 0.928594 0.207771 0.637372
O O5 0.199205 0.101001 0.227826
O O6 0.998100 0.001880 0.096706
O O7 0.765110 0.094174 0.977436
O O8 0.036371 0.070643 0.021321
O O9 0.250000 0.250000 0.500000
O O10 0.570313 0.265489 0.726437
O O11 0.541769 0.166775 0.650879
O O12 0.500000 0.625551 0.750000
O O13 0.556260 0.607836 0.908654
O O14 0.890409 0.620528 0.998480
O O15 0.283448 0.347109 0.649327
O O16 0.000000 0.632941 0.750000
O O17 0.181229 0.567284 0.761896
#
# Coordination Sequence:
#
# PCOD9266967 Si02
#       8
#     8   8   8   8   4   8   8   8
#     4  10  23  41  62 102 134 176 227 274 337 404
#     4  10  24  42  70 104 125 176 231 284 337 382
#     4  11  21  37  65  90 131 180 217 273 327 404
#     4  11  25  43  66  96 137 183 221 267 346 406
#     4  10  24  40  60 100 134 168 228 270 338 406
#     4  10  19  38  63  92 129 168 218 271 331 390
#     4  11  25  44  68  99 136 179 224 284 334 408
#     4  10  23  44  70  97 135 172 228 284 332 402
#
# _framework density 21.060659000000001
#
# number of rings (size 3 to 8) (size 9 to 14) (size 15 to 20)
#    0.000    1.600    2.000    2.000    7.467    1.067 
#    1.200    0.667    0.000    0.000    0.000    0.000 
#    0.000    0.000    0.000    0.000    0.000    0.000 
#
# Total GULP energy -167079.789563 kJ/mol
# GULP energy per Si atom -5569.326319 kJ/mol
# Density = 2.101272 g / cm^3
# Si number density = 21.060659 Si / 1000 Ang^3
#
#
#
# Elastic Constant Matrix: (Units=GPa)
#
#
# Indices 1 2 3 4 5 6 
#
# 1 88.2418 13.8219 13.9268 0.0007 12.9348 -0.0016
# 2 13.8219 37.4820 25.4531 -0.0023 -6.0124 -0.0008
# 3 13.9268 25.4531 129.0259 -0.0011 19.4082 0.0009
# 4 0.0007 -0.0023 -0.0011 18.6996 -0.0026 -2.2261
# 5 12.9348 -6.0124 19.4082 -0.0026 29.9967 -0.0009
# 6 -0.0016 -0.0008 0.0009 -2.2261 -0.0009 10.0415
#
#
#
# Elastic Compliance Matrix: (Units=1/GPa)
#
#
# Indices 1 2 3 4 5 6 
#
# 1 0.013406 -0.006968 0.001116 -0.000002 -0.007899 0.000000
# 2 -0.006968 0.038243 -0.009303 0.000008 0.016689 0.000006
# 3 0.001116 -0.009303 0.010876 -0.000002 -0.009383 -0.000003
# 4 -0.000002 0.000008 -0.000002 0.054927 0.000009 0.012177
# 5 -0.007899 0.016689 -0.009383 0.000009 0.046159 0.000007
# 6 0.000000 0.000006 -0.000003 0.012177 0.000007 0.102286
#
#
# Mechanical properties :
#
#
# Convention : Reuss Voigt Hill
#
# Bulk Modulus (GPa) = 31.04103 40.12816 35.58460
# Shear Modulus (GPa) = 16.28952 25.18408 20.73680
#
# Velocity S-wave (km/s) = 2.78413 3.46177 3.14127
# Velocity P-wave (km/s) = 5.01059 5.92228 5.48541
#
# Compressibility (1/GPa) = 0.03221543
#
# Stress axis : x y z
#
# Youngs Moduli (GPa) = 74.59443 26.14841 91.94187
#
# Poissons Ratio (x) = 0.18221 -0.10260
# Poissons Ratio (y) = 0.51981 0.85529
# Poissons Ratio (z) = -0.08324 0.24325
#
# Static dielectric constant tensor:
#      x y z
#    x 1.801810 0.000000 0.059250 
#    y 0.000000 1.755450 0.000000 
#    z 0.059250 0.000000 1.950500 
# 
# From -- ./inp_files/114833.got.cif
#   From: 2010.05.17/outbox.cif.g08.bks.cpg/sg15_58_cif.got.tgz:114833.got - 2010.06.03 18:47:42.
