data_PCOD9266752
_publ_section_title
;
Structure prediction by ZEFSAII (Michael W. Deem and Ramdas Pophale) SiO2 
 PCOD9266752
Probable space group: C 2/C
;
_chemical_formula_sum "Si O2"
_cell_formula_units_Z 64
_cell_length_a 21.827186
_cell_length_b 8.072455
_cell_length_c 15.953902
_cell_angle_alpha 90.000000
_cell_angle_beta 80.138077
_cell_angle_gamma 90.000000
_cell_volume 2769.523189
_symmetry_space_group_name_H-M "C 2/C"
_symmetry_group_IT_number 15
_symmetry_cell_setting 'monoclinic'
loop_
_space_group_symop_operation_xyz
x,y,z
-x,y,1/2-z
-x,-y,-z
x,-y,1/2+z
1/2+x,1/2+y,z
1/2-x,1/2+y,1/2-z
1/2-x,1/2-y,-z
1/2+x,1/2-y,1/2+z
loop_
_atom_site_type_symbol
_atom_site_label
_atom_site_fract_x
_atom_site_fract_y
_atom_site_fract_z
Si Si1 0.723049 0.275412 0.186467
Si Si2 0.339397 0.920418 0.061249
Si Si3 0.062766 0.818328 0.018288
Si Si4 0.061760 0.671970 0.418661
Si Si5 0.415513 0.509203 0.156757
Si Si6 0.336164 0.249670 0.979732
Si Si7 0.612568 0.485346 0.659164
Si Si8 0.223287 0.938317 0.356835
O O1 0.780235 0.368252 0.127771
O O2 0.660654 0.370249 0.174731
O O3 0.726562 0.083047 0.161410
O O4 0.732377 0.299094 0.283877
O O5 0.395580 0.009001 0.102000
O O6 0.370357 0.766587 0.008200
O O7 0.321956 0.057860 0.996730
O O8 0.069297 0.937966 0.096656
O O9 0.011413 0.675545 0.046901
O O10 0.051395 0.906904 0.931057
O O11 0.096064 0.755337 0.490556
O O12 0.071084 0.812068 0.346306
O O13 0.423521 0.571845 0.249103
O O14 0.342026 0.525452 0.153700
O O15 0.346430 0.336542 0.889556
O O16 0.291119 0.351988 0.051720
#
# Coordination Sequence:
#
# PCOD9266752 Si02
#       8
#     8   8   8   8   8   8   8   8
#     4  11  22  36  64  92 122 165 206 256 315 374
#     4  10  21  38  65  90 121 171 206 252 318 372
#     4  12  20  42  63  92 124 161 212 263 313 372
#     4   9  21  39  66  85 124 167 202 260 315 367
#     4  10  21  40  63  91 120 162 211 251 313 372
#     4   9  20  40  57  89 127 154 213 244 308 376
#     4  11  24  38  63  95 124 162 209 256 318 380
#     4  10  19  38  60  88 125 159 202 251 307 373
#
# _framework density 23.108671999999999
#
# number of rings (size 3 to 8) (size 9 to 14) (size 15 to 20)
#    0.750    1.000    3.750    1.500    1.750    3.000 
#    0.000    3.750    0.000    1.500    0.000    0.000 
#    0.000    0.000    0.000    0.000    0.000    0.000 
#
# Total GULP energy -178574.814943 kJ/mol
# GULP energy per Si atom -5580.462967 kJ/mol
# Density = 2.305608 g / cm^3
# Si number density = 23.108672 Si / 1000 Ang^3
#
#
#
# Elastic Constant Matrix: (Units=GPa)
#
#
# Indices 1 2 3 4 5 6 
#
# 1 79.1059 -7.3447 24.9377 0.0000 -4.8570 0.0000
# 2 -7.3447 55.8878 30.1844 0.0000 18.2347 0.0000
# 3 24.9377 30.1844 144.3592 0.0000 16.0885 0.0000
# 4 0.0000 0.0000 0.0000 30.1642 0.0000 -3.5067
# 5 -4.8570 18.2347 16.0885 0.0000 11.5420 0.0000
# 6 0.0000 0.0000 0.0000 -3.5067 0.0000 35.3756
#
#
#
# Elastic Compliance Matrix: (Units=1/GPa)
#
#
# Indices 1 2 3 4 5 6 
#
# 1 0.014538 0.000492 -0.003800 0.000000 0.010636 0.000000
# 2 0.000492 0.037201 -0.001582 0.000000 -0.056358 0.000000
# 3 -0.003800 -0.001582 0.009251 0.000000 -0.011994 0.000000
# 4 0.000000 0.000000 0.000000 0.033538 0.000000 0.003325
# 5 0.010636 -0.056358 -0.011994 0.000000 0.196873 0.000000
# 6 0.000000 0.000000 0.000000 0.003325 0.000000 0.028598
#
#
# Mechanical properties :
#
#
# Convention : Reuss Voigt Hill
#
# Bulk Modulus (GPa) = 19.52735 41.65641 30.59188
# Shear Modulus (GPa) = 14.41554 30.85474 22.63514
#
# Velocity S-wave (km/s) = 2.50034 3.65801 3.13311
# Velocity P-wave (km/s) = 4.09929 5.99223 5.13376
#
# Compressibility (1/GPa) = 0.05121022
#
# Stress axis : x y z
#
# Youngs Moduli (GPa) = 68.78577 26.88131 108.09452
#
# Poissons Ratio (x) = -0.01324 0.41073
# Poissons Ratio (y) = -0.03387 0.17105
# Poissons Ratio (z) = 0.26137 0.04254
#
# Static dielectric constant tensor:
#      x y z
#    x 1.933720 0.000000 0.033160 
#    y 0.000000 1.882160 0.000000 
#    z 0.033160 0.000000 1.883040 
# 
# From -- ./inp_files/176553.got.cif
#   From: 2010.05.17/outbox.cif.g08.bks.cpg/sg15_89_cif.got.tgz:176553.got - 2010.06.03 18:47:42.
