data_PCOD9266955
_publ_section_title
;
Structure prediction by ZEFSAII (Michael W. Deem and Ramdas Pophale) SiO2 
 PCOD9266955
Probable space group: C 2/C
;
_chemical_formula_sum "Si O2"
_cell_formula_units_Z 64
_cell_length_a 7.662745
_cell_length_b 29.591323
_cell_length_c 19.942915
_cell_angle_alpha 90.000000
_cell_angle_beta 144.554933
_cell_angle_gamma 90.000000
_cell_volume 2622.449224
_symmetry_space_group_name_H-M "C 2/C"
_symmetry_group_IT_number 15
_symmetry_cell_setting 'monoclinic'
loop_
_space_group_symop_operation_xyz
x,y,z
-x,y,1/2-z
-x,-y,-z
x,-y,1/2+z
1/2+x,1/2+y,z
1/2-x,1/2+y,1/2-z
1/2-x,1/2-y,-z
1/2+x,1/2-y,1/2+z
loop_
_atom_site_type_symbol
_atom_site_label
_atom_site_fract_x
_atom_site_fract_y
_atom_site_fract_z
Si Si1 0.757586 0.641487 0.235158
Si Si2 0.818209 0.890231 0.979743
Si Si3 0.582952 0.433679 0.925903
Si Si4 0.643851 0.728328 0.367848
Si Si5 0.081516 0.317563 0.199339
Si Si6 0.354582 0.523182 0.882057
Si Si7 0.174354 0.601607 0.629102
Si Si8 0.720344 0.681111 0.939611
O O1 0.495441 0.604667 0.150656
O O2 0.577222 0.688368 0.178529
O O3 0.000000 0.643765 0.250000
O O4 0.966615 0.621177 0.359726
O O5 0.943863 0.909115 0.948530
O O6 0.907042 0.839607 0.030633
O O7 0.955212 0.930977 0.067658
O O8 0.432079 0.480458 0.860667
O O9 0.935190 0.437556 0.046895
O O10 0.500000 0.738848 0.250000
O O11 0.608074 0.776727 0.392412
O O12 0.988634 0.712547 0.467009
O O13 0.068692 0.363573 0.153861
O O14 0.430703 0.300680 0.309890
O O15 0.000000 0.328732 0.250000
O O16 0.000000 0.532351 0.750000
O O17 0.500000 0.500000 0.000000
O O18 0.500000 0.584596 0.750000
O O19 0.190720 0.635135 0.571169
#
# Coordination Sequence:
#
# PCOD9266955 Si02
#       8
#     8   8   8   8   8   8   8   8
#     4  10  20  37  61  92 119 161 211 260 320 386
#     4  10  21  37  65  91 123 163 211 261 322 390
#     4  10  19  38  63  91 124 163 212 268 315 385
#     4  11  22  40  63  86 123 163 205 270 324 384
#     4  10  24  41  59  87 120 164 217 266 317 389
#     4  10  21  38  65  99 131 167 219 277 325 389
#     4  10  22  39  59  85 124 166 206 259 322 390
#     4  11  22  40  61  87 123 161 204 259 324 385
#
# _framework density 24.404668000000001
#
# number of rings (size 3 to 8) (size 9 to 14) (size 15 to 20)
#    0.000    1.750    2.500    2.625    0.000    8.500 
#    4.500    0.625    2.750    0.000    0.000    0.000 
#    0.000    0.000    0.000    0.000    0.000    0.000 
#
# Total GULP energy -178184.906983 kJ/mol
# GULP energy per Si atom -5568.278343 kJ/mol
# Density = 2.434912 g / cm^3
# Si number density = 24.404668 Si / 1000 Ang^3
#
#
#
# Elastic Constant Matrix: (Units=GPa)
#
#
# Indices 1 2 3 4 5 6 
#
# 1 43.1919 24.4470 25.9828 -0.0001 12.7185 0.0000
# 2 24.4470 94.5898 42.3913 0.0001 26.7681 0.0000
# 3 25.9828 42.3913 101.0920 -0.0015 24.5417 -0.0007
# 4 -0.0001 0.0001 -0.0015 31.9165 -0.0004 11.6255
# 5 12.7185 26.7681 24.5417 -0.0004 30.6891 -0.0001
# 6 0.0000 0.0000 -0.0007 11.6255 -0.0001 15.9348
#
#
#
# Elastic Compliance Matrix: (Units=1/GPa)
#
#
# Indices 1 2 3 4 5 6 
#
# 1 0.029812 -0.004202 -0.004704 0.000000 -0.004928 0.000000
# 2 -0.004202 0.015782 -0.003250 0.000000 -0.009425 0.000000
# 3 -0.004704 -0.003250 0.014025 0.000001 -0.006432 0.000000
# 4 0.000000 0.000000 0.000001 0.042671 0.000000 -0.031132
# 5 -0.004928 -0.009425 -0.006432 0.000000 0.047991 0.000000
# 6 0.000000 0.000000 0.000000 -0.031132 0.000000 0.085468
#
#
# Mechanical properties :
#
#
# Convention : Reuss Voigt Hill
#
# Bulk Modulus (GPa) = 28.32295 47.16845 37.74570
# Shear Modulus (GPa) = 18.39384 25.44491 21.91938
#
# Velocity S-wave (km/s) = 2.74834 3.23247 3.00019
# Velocity P-wave (km/s) = 4.65853 5.77074 5.24420
#
# Compressibility (1/GPa) = 0.03530706
#
# Stress axis : x y z
#
# Youngs Moduli (GPa) = 33.54381 63.36488 71.30090
#
# Poissons Ratio (x) = 0.26628 0.33538
# Poissons Ratio (y) = 0.14096 0.23170
# Poissons Ratio (z) = 0.15778 0.20591
#
# Static dielectric constant tensor:
#      x y z
#    x 2.154470 0.000000 -0.174170 
#    y 0.000000 1.991320 0.000000 
#    z -0.174170 0.000000 2.326010 
# 
# From -- ./inp_files/266765.got.cif
#   From: 2010.05.17/outbox.cif.g08.bks.cpg/sg15_134_cif.got.tgz:266765.got - 2010.06.03 18:47:42.
