data_PCOD9266757
_publ_section_title
;
Structure prediction by ZEFSAII (Michael W. Deem and Ramdas Pophale) SiO2 
 PCOD9266757
Probable space group: C 2/C
;
_chemical_formula_sum "Si O2"
_cell_formula_units_Z 64
_cell_length_a 22.060777
_cell_length_b 12.844573
_cell_length_c 12.490549
_cell_angle_alpha 90.000000
_cell_angle_beta 131.550162
_cell_angle_gamma 90.000000
_cell_volume 2648.752975
_symmetry_space_group_name_H-M "C 2/C"
_symmetry_group_IT_number 15
_symmetry_cell_setting 'monoclinic'
loop_
_space_group_symop_operation_xyz
x,y,z
-x,y,1/2-z
-x,-y,-z
x,-y,1/2+z
1/2+x,1/2+y,z
1/2-x,1/2+y,1/2-z
1/2-x,1/2-y,-z
1/2+x,1/2-y,1/2+z
loop_
_atom_site_type_symbol
_atom_site_label
_atom_site_fract_x
_atom_site_fract_y
_atom_site_fract_z
Si Si1 0.417052 0.925937 0.019291
Si Si2 0.020427 0.853122 0.521685
Si Si3 0.654986 0.576561 0.335657
Si Si4 0.858970 0.848771 0.237079
Si Si5 0.076045 0.640396 0.576357
Si Si6 0.891585 0.072708 0.550875
Si Si7 0.786397 0.370071 0.688908
Si Si8 0.177558 0.416053 0.385226
O O1 0.343972 0.889762 0.857036
O O2 0.421760 0.050161 0.007774
O O3 0.499422 0.881702 0.065192
O O4 0.394168 0.901908 0.113559
O O5 0.057992 0.751584 0.506943
O O6 0.039006 0.940353 0.454817
O O7 0.925135 0.837272 0.408334
O O8 0.080799 0.867590 0.690752
O O9 0.674991 0.466628 0.297232
O O10 0.622622 0.538809 0.412286
O O11 0.741218 0.625907 0.463286
O O12 0.801301 0.749086 0.171355
O O13 0.900850 0.854955 0.167717
O O14 0.154033 0.635056 0.744556
O O15 0.807566 0.108578 0.398679
O O16 0.810208 0.460474 0.630177
#
# Coordination Sequence:
#
# PCOD9266757 Si02
#       8
#     8   8   8   8   8   8   8   8
#     4  10  20  38  57  88 122 157 194 249 306 360
#     4  12  21  41  61  86 124 160 200 251 298 359
#     4   9  23  38  60  87 117 160 197 253 289 358
#     4  10  21  38  60  85 121 151 203 250 292 347
#     4  10  23  36  58  91 119 157 202 246 301 367
#     4   9  22  36  61  90 117 155 205 242 302 351
#     4  10  19  38  60  90 124 151 203 255 291 363
#     4  10  21  39  61  85 123 157 198 248 309 354
#
# _framework density 24.162313999999999
#
# number of rings (size 3 to 8) (size 9 to 14) (size 15 to 20)
#    0.750    1.250    1.250    2.250    1.750    0.500 
#    0.000    1.250    2.750    0.000    0.000    0.000 
#    0.000    0.000    0.000    0.000    0.000    0.000 
#
# Total GULP energy -178569.103259 kJ/mol
# GULP energy per Si atom -5580.284477 kJ/mol
# Density = 2.410732 g / cm^3
# Si number density = 24.162314 Si / 1000 Ang^3
#
#
#
# Elastic Constant Matrix: (Units=GPa)
#
#
# Indices 1 2 3 4 5 6 
#
# 1 45.6653 -17.3664 -3.1704 0.0000 -3.5513 0.0000
# 2 -17.3664 49.4952 10.6244 0.0000 5.1849 0.0000
# 3 -3.1704 10.6244 126.5018 0.0000 19.6525 0.0000
# 4 0.0000 0.0000 0.0000 17.6479 0.0000 8.4042
# 5 -3.5513 5.1849 19.6525 0.0000 24.7524 0.0000
# 6 0.0000 0.0000 0.0000 8.4042 0.0000 9.2592
#
#
#
# Elastic Compliance Matrix: (Units=1/GPa)
#
#
# Indices 1 2 3 4 5 6 
#
# 1 0.025371 0.008770 -0.000434 0.000000 0.002148 0.000000
# 2 0.008770 0.023853 -0.001372 0.000000 -0.002649 0.000000
# 3 -0.000434 -0.001372 0.009096 0.000000 -0.006997 0.000000
# 4 0.000000 0.000000 0.000000 0.099804 0.000000 -0.090588
# 5 0.002148 -0.002649 -0.006997 0.000000 0.046819 0.000000
# 6 0.000000 0.000000 0.000000 -0.090588 0.000000 0.190224
#
#
# Mechanical properties :
#
#
# Convention : Reuss Voigt Hill
#
# Bulk Modulus (GPa) = 13.84135 22.42639 18.13387
# Shear Modulus (GPa) = 12.33587 25.77021 19.05304
#
# Velocity S-wave (km/s) = 2.26197 3.26934 2.81115
# Velocity P-wave (km/s) = 3.54442 4.85316 4.24948
#
# Compressibility (1/GPa) = 0.07224731
#
# Stress axis : x y z
#
# Youngs Moduli (GPa) = 39.41574 41.92327 109.93365
#
# Poissons Ratio (x) = -0.36767 0.04775
# Poissons Ratio (y) = -0.34568 0.15083
# Poissons Ratio (z) = 0.01712 0.05752
#
# Static dielectric constant tensor:
#      x y z
#    x 1.946930 0.000000 0.007780 
#    y 0.000000 1.973140 0.000000 
#    z 0.007780 0.000000 1.947660 
# 
# From -- ./inp_files/177843.got.cif
#   From: 2010.05.17/outbox.cif.g08.bks.cpg/sg15_89_cif.got.tgz:177843.got - 2010.06.03 18:47:42.
