data_PCOD9266849
_publ_section_title
;
Structure prediction by ZEFSAII (Michael W. Deem and Ramdas Pophale) SiO2 
 PCOD9266849
Probable space group: C 2/C
;
_chemical_formula_sum "Si O2"
_cell_formula_units_Z 56
_cell_length_a 31.590927
_cell_length_b 5.424490
_cell_length_c 18.171124
_cell_angle_alpha 90.000000
_cell_angle_beta 127.513581
_cell_angle_gamma 90.000000
_cell_volume 2469.964548
_symmetry_space_group_name_H-M "C 2/C"
_symmetry_group_IT_number 15
_symmetry_cell_setting 'monoclinic'
loop_
_space_group_symop_operation_xyz
x,y,z
-x,y,1/2-z
-x,-y,-z
x,-y,1/2+z
1/2+x,1/2+y,z
1/2-x,1/2+y,1/2-z
1/2-x,1/2-y,-z
1/2+x,1/2-y,1/2+z
loop_
_atom_site_type_symbol
_atom_site_label
_atom_site_fract_x
_atom_site_fract_y
_atom_site_fract_z
Si Si1 0.268385 0.607033 0.164778
Si Si2 0.377468 0.669351 0.511753
Si Si3 0.640960 0.002587 0.218165
Si Si4 0.438319 0.844399 0.104735
Si Si5 0.318381 0.642239 0.848175
Si Si6 0.156609 0.874562 0.364767
Si Si7 0.437519 0.759080 0.269541
O O1 0.277051 0.400617 0.237085
O O2 0.210021 0.716580 0.114591
O O3 0.291235 0.520278 0.110342
O O4 0.310191 0.815886 0.233628
O O5 0.405642 0.402506 0.551773
O O6 0.341287 0.612034 0.403289
O O7 0.342854 0.697119 0.549615
O O8 0.416601 0.902929 0.545831
O O9 0.638685 0.187559 0.147638
O O10 0.653078 0.147611 0.306371
O O11 0.586548 0.867442 0.181098
O O12 0.432497 0.901580 0.186157
O O13 0.498927 0.757645 0.154173
O O14 0.101653 0.026560 0.288746
#
# Coordination Sequence:
#
# PCOD9266849 Si02
#       7
#     8   8   8   8   8   8   8
#     4  10  21  39  63  88 114 171 213 245 302 385
#     4  11  24  40  61  96 132 157 198 267 313 350
#     4  10  19  38  62  86 117 160 210 250 295 376
#     4  10  22  38  63  94 124 164 206 251 311 361
#     4  11  23  38  64  86 125 162 208 252 310 369
#     4   9  20  38  62  92 121 157 210 257 304 360
#     4   9  19  36  66  87 121 162 211 246 296 374
#
# _framework density 22.672391000000001
#
# number of rings (size 3 to 8) (size 9 to 14) (size 15 to 20)
#    0.000    2.000    2.857    0.000    4.000    1.714 
#    0.000    2.143    0.000    0.000    0.000    0.000 
#    0.000    0.000    0.000    0.000    0.000    0.000 
#
# Total GULP energy -156126.869100 kJ/mol
# GULP energy per Si atom -5575.959611 kJ/mol
# Density = 2.262079 g / cm^3
# Si number density = 22.672391 Si / 1000 Ang^3
#
#
#
# Elastic Constant Matrix: (Units=GPa)
#
#
# Indices 1 2 3 4 5 6 
#
# 1 115.5779 19.6311 14.6932 -0.0001 -6.5477 0.0005
# 2 19.6311 56.9906 6.6964 0.0014 -1.3924 -0.0038
# 3 14.6932 6.6964 40.7908 0.0001 -4.0773 0.0001
# 4 -0.0001 0.0014 0.0001 29.4309 0.0002 -15.3353
# 5 -6.5477 -1.3924 -4.0773 0.0002 20.5036 0.0000
# 6 0.0005 -0.0038 0.0001 -15.3353 0.0000 25.8717
#
#
#
# Elastic Compliance Matrix: (Units=1/GPa)
#
#
# Indices 1 2 3 4 5 6 
#
# 1 0.009633 -0.002938 -0.002755 0.000000 0.002329 -0.000001
# 2 -0.002938 0.018796 -0.002034 0.000001 -0.000066 0.000003
# 3 -0.002755 -0.002034 0.026262 0.000000 0.004204 0.000000
# 4 0.000000 0.000001 0.000000 0.049162 -0.000001 0.029140
# 5 0.002329 -0.000066 0.004204 -0.000001 0.050347 0.000000
# 6 -0.000001 0.000003 0.000000 0.029140 0.000000 0.055925
#
#
# Mechanical properties :
#
#
# Convention : Reuss Voigt Hill
#
# Bulk Modulus (GPa) = 25.48561 32.82230 29.15395
# Shear Modulus (GPa) = 20.95048 26.65048 23.80048
#
# Velocity S-wave (km/s) = 3.04312 3.43222 3.24351
# Velocity P-wave (km/s) = 4.85929 5.49682 5.18786
#
# Compressibility (1/GPa) = 0.03923783
#
# Stress axis : x y z
#
# Youngs Moduli (GPa) = 103.80641 53.20258 38.07797
#
# Poissons Ratio (x) = 0.15629 0.10490
# Poissons Ratio (y) = 0.30495 0.07745
# Poissons Ratio (z) = 0.28598 0.10822
#
# Static dielectric constant tensor:
#      x y z
#    x 1.881190 0.000000 0.008410 
#    y 0.000000 1.903430 0.000000 
#    z 0.008410 0.000000 1.863100 
# 
# From -- ./inp_files/223820.got.cif
#   From: 2010.05.17/outbox.cif.g08.bks.cpg/sg15_112_cif.got.tgz:223820.got - 2010.06.03 18:47:42.
