data_PCOD9266289
_publ_section_title
;
Structure prediction by ZEFSAII (Michael W. Deem and Ramdas Pophale) SiO2 
 PCOD9266289
Probable space group: C 2/C
;
_chemical_formula_sum "Si O2"
_cell_formula_units_Z 44
_cell_length_a 13.276283
_cell_length_b 8.735256
_cell_length_c 25.526332
_cell_angle_alpha 90.000000
_cell_angle_beta 136.952674
_cell_angle_gamma 90.000000
_cell_volume 2020.729815
_symmetry_space_group_name_H-M "C 2/C"
_symmetry_group_IT_number 15
_symmetry_cell_setting 'monoclinic'
loop_
_space_group_symop_operation_xyz
x,y,z
-x,y,1/2-z
-x,-y,-z
x,-y,1/2+z
1/2+x,1/2+y,z
1/2-x,1/2+y,1/2-z
1/2-x,1/2-y,-z
1/2+x,1/2-y,1/2+z
loop_
_atom_site_type_symbol
_atom_site_label
_atom_site_fract_x
_atom_site_fract_y
_atom_site_fract_z
Si Si1 0.661420 0.551706 0.763471
Si Si2 0.500000 0.954085 0.250000
Si Si3 0.706695 0.566998 0.100314
Si Si4 0.560916 0.235387 0.672241
Si Si5 0.653883 0.377301 0.376556
Si Si6 0.895581 0.070570 0.039599
O O1 0.626609 0.396378 0.718845
O O2 0.809816 0.635226 0.803376
O O3 0.521148 0.661117 0.696110
O O4 0.672080 0.522793 0.830185
O O5 0.498288 0.850610 0.300222
O O6 0.349197 0.046800 0.190248
O O7 0.732524 0.736858 0.086018
O O8 0.561051 0.536082 0.079260
O O9 0.700019 0.453363 0.048344
O O10 0.431505 0.269567 0.581363
O O11 0.662433 0.462555 0.435400
#
# Coordination Sequence:
#
# PCOD9266289 Si02
#       6
#     8   4   8   8   8   8
#     4  10  21  36  64  91 126 167 220 258 324 373
#     4  12  24  38  64  90 126 160 222 260 320 380
#     4  11  23  39  63  96 124 170 210 268 319 393
#     4  11  22  39  61  92 126 168 209 272 314 387
#     4  10  19  37  62  91 125 169 210 260 321 385
#     4  10  22  41  62  90 133 166 211 262 328 383
#
# _framework density 21.774311999999998
#
# number of rings (size 3 to 8) (size 9 to 14) (size 15 to 20)
#    0.000    1.455    1.818    6.000    2.545    0.727 
#    0.000    0.000    0.000    2.182    0.000    0.000 
#    0.000    0.000    0.000    0.000    0.000    0.000 
#
# Total GULP energy -122724.805263 kJ/mol
# GULP energy per Si atom -5578.400239 kJ/mol
# Density = 2.172475 g / cm^3
# Si number density = 21.774312 Si / 1000 Ang^3
#
#
#
# Elastic Constant Matrix: (Units=GPa)
#
#
# Indices 1 2 3 4 5 6 
#
# 1 117.8794 27.0835 25.4641 0.0000 -22.4908 0.0000
# 2 27.0835 36.6873 -2.0177 0.0000 9.4509 0.0000
# 3 25.4641 -2.0177 71.3688 0.0000 -6.6711 0.0000
# 4 0.0000 0.0000 0.0000 -22.4814 0.0000 -1.0168
# 5 -22.4908 9.4509 -6.6711 0.0000 35.3919 0.0000
# 6 0.0000 0.0000 0.0000 -1.0168 0.0000 41.2044
#
#
#
# Elastic Compliance Matrix: (Units=1/GPa)
#
#
# Indices 1 2 3 4 5 6 
#
# 1 0.015391 -0.014940 -0.004710 0.000000 0.012882 0.000000
# 2 -0.014940 0.043773 0.004670 0.000000 -0.020302 0.000000
# 3 -0.004710 0.004670 0.015704 0.000000 -0.001280 0.000000
# 4 0.000000 0.000000 0.000000 -0.044432 0.000000 -0.001096
# 5 0.012882 -0.020302 -0.001280 0.000000 0.041622 0.000000
# 6 0.000000 0.000000 0.000000 -0.001096 0.000000 0.024242
#
#
# Mechanical properties :
#
#
# Convention : Reuss Voigt Hill
#
# Bulk Modulus (GPa) = 22.26657 36.33283 29.29970
# Shear Modulus (GPa) = 35.40352 22.51670 28.96011
#
# Velocity S-wave (km/s) = 4.03666 3.21922 3.65089
# Velocity P-wave (km/s) = 5.65459 5.52632 5.59082
#
# Compressibility (1/GPa) = 0.04491038
#
# Stress axis : x y z
#
# Youngs Moduli (GPa) = 64.97340 22.84511 63.67604
#
# Poissons Ratio (x) = 0.34130 0.29989
# Poissons Ratio (y) = 0.97067 -0.29737
# Poissons Ratio (z) = 0.30600 -0.10669
#
# Static dielectric constant tensor:
#      x y z
#    x 1.808300 0.000000 0.006000 
#    y 0.000000 1.827350 0.000000 
#    z 0.006000 0.000000 1.828800 
# 
# From -- ./inp_files/241969.got.cif
#   From: 2010.05.17/outbox.cif.g08.bks.cpg/sg15_121_cif.got.tgz:241969.got - 2010.06.03 18:47:42.
