data_PCOD9266765
_publ_section_title
;
Structure prediction by ZEFSAII (Michael W. Deem and Ramdas Pophale) SiO2 
 PCOD9266765
Probable space group: C 2/C
;
_chemical_formula_sum "Si O2"
_cell_formula_units_Z 56
_cell_length_a 5.389828
_cell_length_b 17.315175
_cell_length_c 26.259796
_cell_angle_alpha 90.000000
_cell_angle_beta 113.963672
_cell_angle_gamma 90.000000
_cell_volume 2239.472821
_symmetry_space_group_name_H-M "C 2/C"
_symmetry_group_IT_number 15
_symmetry_cell_setting 'monoclinic'
loop_
_space_group_symop_operation_xyz
x,y,z
-x,y,1/2-z
-x,-y,-z
x,-y,1/2+z
1/2+x,1/2+y,z
1/2-x,1/2+y,1/2-z
1/2-x,1/2-y,-z
1/2+x,1/2-y,1/2+z
loop_
_atom_site_type_symbol
_atom_site_label
_atom_site_fract_x
_atom_site_fract_y
_atom_site_fract_z
Si Si1 0.131453 0.372494 0.071224
Si Si2 0.000000 0.738280 0.750000
Si Si3 0.398749 0.789994 0.594511
Si Si4 0.448053 0.494336 0.352387
Si Si5 0.787109 0.351442 0.693322
Si Si6 0.554037 0.866476 0.337245
Si Si7 0.209264 0.172543 0.463476
Si Si8 0.000000 0.920279 0.250000
O O1 0.335752 0.300818 0.076956
O O2 0.300274 0.448877 0.101020
O O3 0.977104 0.338973 0.108258
O O4 0.906947 0.386809 0.009591
O O5 0.142192 0.791646 0.719285
O O6 0.814731 0.684539 0.696420
O O7 0.429183 0.809588 0.657077
O O8 0.646696 0.815301 0.579341
O O9 0.115572 0.835766 0.559021
O O10 0.410930 0.585192 0.348109
O O11 0.438249 0.472860 0.292574
O O12 0.185950 0.450505 0.352584
O O13 0.000000 0.390994 0.750000
O O14 0.253481 0.871953 0.289840
O O15 0.250000 0.250000 0.500000
#
# Coordination Sequence:
#
# PCOD9266765 Si02
#       8
#     8   4   8   8   8   8   8   4
#     4  10  23  40  74 101 131 186 245 297 356 429
#     4  12  25  42  68  93 144 182 240 298 359 428
#     4  11  25  45  74 111 146 183 245 304 368 428
#     4  11  24  42  65  95 142 184 239 285 363 438
#     4  12  29  43  65 102 146 194 230 298 375 435
#     4  11  22  37  70  97 131 176 245 293 349 429
#     4  10  23  45  75 111 142 182 242 317 363 419
#     4  10  19  38  60  93 126 176 236 288 339 422
#
# _framework density 25.005883999999998
#
# number of rings (size 3 to 8) (size 9 to 14) (size 15 to 20)
#    0.000    1.143    2.857    3.000   11.000    1.143 
#    0.000    1.429    0.000    0.000    0.000    0.000 
#    0.000    0.000    0.000    0.000    0.000    0.000 
#
# Total GULP energy -156398.061090 kJ/mol
# GULP energy per Si atom -5585.645039 kJ/mol
# Density = 2.494897 g / cm^3
# Si number density = 25.005884 Si / 1000 Ang^3
#
#
#
# Elastic Constant Matrix: (Units=GPa)
#
#
# Indices 1 2 3 4 5 6 
#
# 1 126.5735 34.6044 45.2760 0.0000 -9.4445 0.0000
# 2 34.6044 94.1040 27.0492 0.0000 2.8454 0.0000
# 3 45.2760 27.0492 86.8933 0.0000 -7.9469 0.0000
# 4 0.0000 0.0000 0.0000 23.5563 0.0000 18.3948
# 5 -9.4445 2.8454 -7.9469 0.0000 48.3613 0.0000
# 6 0.0000 0.0000 0.0000 18.3948 0.0000 13.6539
#
#
#
# Elastic Compliance Matrix: (Units=1/GPa)
#
#
# Indices 1 2 3 4 5 6 
#
# 1 0.010292 -0.002553 -0.004437 0.000000 0.001431 0.000000
# 2 -0.002553 0.012385 -0.002678 0.000000 -0.001667 0.000000
# 3 -0.004437 -0.002678 0.014812 0.000000 0.001725 0.000000
# 4 0.000000 0.000000 0.000000 -0.815902 0.000000 1.099202
# 5 0.001431 -0.001667 0.001725 0.000000 0.021339 0.000000
# 6 0.000000 0.000000 0.000000 1.099202 0.000000 -1.407632
#
#
# Mechanical properties :
#
#
# Convention : Reuss Voigt Hill
#
# Bulk Modulus (GPa) = 55.08484 57.93668 56.51076
# Shear Modulus (GPa) = -2.33719 30.49038 14.07659
#
# Velocity S-wave (km/s) = -0.96783 3.49568 2.37519
# Velocity P-wave (km/s) = 4.56373 6.28590 5.49273
#
# Compressibility (1/GPa) = 0.01815381
#
# Stress axis : x y z
#
# Youngs Moduli (GPa) = 97.15829 80.74059 67.51337
#
# Poissons Ratio (x) = 0.20610 0.29959
# Poissons Ratio (y) = 0.24800 0.18080
# Poissons Ratio (z) = 0.43114 0.21622
#
# Static dielectric constant tensor:
#      x y z
#    x 2.353290 0.000000 0.016560 
#    y 0.000000 2.051810 0.000000 
#    z 0.016560 0.000000 2.034780 
# 
# From -- ./inp_files/286129.got.cif
#   From: 2010.05.17/outbox.cif.g08.bks.cpg/sg15_144_cif.got.tgz:286129.got - 2010.06.03 18:47:42.
