data_PCOD9266965
_publ_section_title
;
Structure prediction by ZEFSAII (Michael W. Deem and Ramdas Pophale) SiO2 
 PCOD9266965
Probable space group: C 2/C
;
_chemical_formula_sum "Si O2"
_cell_formula_units_Z 56
_cell_length_a 5.159670
_cell_length_b 28.822202
_cell_length_c 15.952852
_cell_angle_alpha 90.000000
_cell_angle_beta 91.817282
_cell_angle_gamma 90.000000
_cell_volume 2371.204073
_symmetry_space_group_name_H-M "C 2/C"
_symmetry_group_IT_number 15
_symmetry_cell_setting 'monoclinic'
loop_
_space_group_symop_operation_xyz
x,y,z
-x,y,1/2-z
-x,-y,-z
x,-y,1/2+z
1/2+x,1/2+y,z
1/2-x,1/2+y,1/2-z
1/2-x,1/2-y,-z
1/2+x,1/2-y,1/2+z
loop_
_atom_site_type_symbol
_atom_site_label
_atom_site_fract_x
_atom_site_fract_y
_atom_site_fract_z
Si Si1 0.069228 0.598398 0.967757
Si Si2 0.053091 0.042663 0.937085
Si Si3 0.390237 0.773038 0.832210
Si Si4 0.500000 0.653975 0.250000
Si Si5 0.048052 0.787278 0.459160
Si Si6 0.726029 0.650973 0.094580
Si Si7 0.364779 0.156896 0.824326
Si Si8 0.500000 0.424309 0.250000
O O1 0.854293 0.558402 0.944097
O O2 0.065614 0.634939 0.891873
O O3 0.357789 0.579923 0.976252
O O4 0.938500 0.622483 0.045939
O O5 0.972623 0.045054 0.836028
O O6 0.000000 0.000000 0.000000
O O7 0.500000 0.748472 0.750000
O O8 0.318515 0.740391 0.909728
O O9 0.627261 0.804672 0.865830
O O10 0.183798 0.810575 0.801584
O O11 0.624127 0.625084 0.175893
O O12 0.250000 0.750000 0.500000
O O13 0.016991 0.826777 0.528557
O O14 0.181645 0.813406 0.382038
O O15 0.500000 0.184025 0.750000
O O16 0.222549 0.112814 0.779296
#
# Coordination Sequence:
#
# PCOD9266965 Si02
#       8
#     8   8   8   4   8   8   8   4
#     4  10  22  40  68  98 134 171 223 269 334 404
#     4  11  23  42  71 103 140 175 210 272 347 413
#     4   9  19  36  54  80 121 162 220 278 341 393
#     4  10  20  36  61  82 114 180 224 278 346 391
#     4   9  19  37  54  85 127 161 221 284 340 397
#     4   9  20  38  60  84 122 169 225 275 331 395
#     4  10  19  38  63  92 125 176 226 281 337 401
#     4  10  22  40  67  98 138 170 226 278 330 423
#
# _framework density 23.616690999999999
#
# number of rings (size 3 to 8) (size 9 to 14) (size 15 to 20)
#    0.000    2.286    1.429    0.429    3.000    0.571 
#   11.571    0.714    0.000    0.000    0.000    0.000 
#    0.000    0.000    0.000    0.000    0.000    0.000 
#
# Total GULP energy -156187.044238 kJ/mol
# GULP energy per Si atom -5578.108723 kJ/mol
# Density = 2.356294 g / cm^3
# Si number density = 23.616691 Si / 1000 Ang^3
#
#
#
# Elastic Constant Matrix: (Units=GPa)
#
#
# Indices 1 2 3 4 5 6 
#
# 1 40.9560 1.7603 12.6809 0.0000 0.0998 0.0000
# 2 1.7603 60.2614 44.7416 0.0000 2.8417 0.0000
# 3 12.6809 44.7416 202.8791 0.0000 -28.7729 0.0000
# 4 0.0000 0.0000 0.0000 27.7453 0.0000 -4.3276
# 5 0.0998 2.8417 -28.7729 0.0000 43.0172 0.0000
# 6 0.0000 0.0000 0.0000 -4.3276 0.0000 26.6447
#
#
#
# Elastic Compliance Matrix: (Units=1/GPa)
#
#
# Indices 1 2 3 4 5 6 
#
# 1 0.024984 0.000769 -0.001930 0.000000 -0.001399 0.000000
# 2 0.000769 0.020759 -0.005326 0.000000 -0.004936 0.000000
# 3 -0.001930 -0.005326 0.006932 0.000000 0.004993 0.000000
# 4 0.000000 0.000000 0.000000 0.036979 0.000000 0.006006
# 5 -0.001399 -0.004936 0.004993 0.000000 0.026916 0.000000
# 6 0.000000 0.000000 0.000000 0.006006 0.000000 0.038506
#
#
# Mechanical properties :
#
#
# Convention : Reuss Voigt Hill
#
# Bulk Modulus (GPa) = 25.18769 46.94023 36.06396
# Shear Modulus (GPa) = 27.58097 35.80902 31.69499
#
# Velocity S-wave (km/s) = 3.42110 3.89814 3.66739
# Velocity P-wave (km/s) = 5.12773 6.33875 5.76512
#
# Compressibility (1/GPa) = 0.03970193
#
# Stress axis : x y z
#
# Youngs Moduli (GPa) = 40.02520 48.17169 144.25041
#
# Poissons Ratio (x) = -0.03704 0.27836
# Poissons Ratio (y) = -0.03077 0.76829
# Poissons Ratio (z) = 0.07724 0.25657
#
# Static dielectric constant tensor:
#      x y z
#    x 1.975730 0.000000 -0.007140 
#    y 0.000000 2.000610 0.000000 
#    z -0.007140 0.000000 1.983850 
# 
# From -- ./inp_files/130805.got.cif
#   From: 2010.05.17/outbox.cif.g08.bks.cpg/sg15_66_cif.got.tgz:130805.got - 2010.06.03 18:47:42.
