data_PCOD9266612
_publ_section_title
;
Structure prediction by ZEFSAII (Michael W. Deem and Ramdas Pophale) SiO2 
 PCOD9266612
Probable space group: C 2/C
;
_chemical_formula_sum "Si O2"
_cell_formula_units_Z 64
_cell_length_a 22.728967
_cell_length_b 8.839734
_cell_length_c 25.585885
_cell_angle_alpha 90.000000
_cell_angle_beta 42.505785
_cell_angle_gamma 90.000000
_cell_volume 3473.365873
_symmetry_space_group_name_H-M "C 2/C"
_symmetry_group_IT_number 15
_symmetry_cell_setting 'monoclinic'
loop_
_space_group_symop_operation_xyz
x,y,z
-x,y,1/2-z
-x,-y,-z
x,-y,1/2+z
1/2+x,1/2+y,z
1/2-x,1/2+y,1/2-z
1/2-x,1/2-y,-z
1/2+x,1/2-y,1/2+z
loop_
_atom_site_type_symbol
_atom_site_label
_atom_site_fract_x
_atom_site_fract_y
_atom_site_fract_z
Si Si1 0.686430 0.591760 0.335952
Si Si2 0.538577 0.175100 0.918414
Si Si3 0.403294 0.816407 0.311955
Si Si4 0.538870 0.500364 0.277315
Si Si5 0.285314 0.651697 0.599037
Si Si6 0.390226 0.146851 0.101341
Si Si7 0.669211 0.340274 0.266688
Si Si8 0.088441 0.795973 0.579739
O O1 0.598796 0.678488 0.379131
O O2 0.676149 0.486857 0.393111
O O3 0.709307 0.480698 0.272942
O O4 0.758747 0.719382 0.296866
O O5 0.480402 0.185479 0.904341
O O6 0.596020 0.025101 0.889128
O O7 0.471585 0.181158 0.010393
O O8 0.500000 0.892165 0.250000
O O9 0.420734 0.658674 0.270038
O O10 0.316979 0.880819 0.341827
O O11 0.380154 0.779363 0.387143
O O12 0.500000 0.427727 0.250000
O O13 0.610851 0.401985 0.258410
O O14 0.463976 0.554515 0.366779
O O15 0.307089 0.800423 0.620521
O O16 0.335991 0.670731 0.511334
O O17 0.389475 0.252926 0.152276
#
# Coordination Sequence:
#
# PCOD9266612 Si02
#       8
#     8   8   8   8   8   8   8   8
#     4  11  24  32  58  82 118 143 188 230 282 337
#     4  10  19  38  54  88 114 147 180 230 282 338
#     4   9  20  35  57  82 110 150 191 237 272 330
#     4   9  20  36  56  79 105 149 186 231 276 331
#     4  10  21  36  57  90 110 148 187 238 277 334
#     4   9  22  34  58  84 118 145 180 226 290 335
#     4  11  22  36  54  82 109 153 182 232 276 342
#     4   9  18  35  62  81 111 148 192 232 269 335
#
# _framework density 18.425930999999999
#
# number of rings (size 3 to 8) (size 9 to 14) (size 15 to 20)
#    0.000    2.500    1.250    1.125    7.000    3.500 
#    0.000    1.875    0.000    3.000    0.000    0.000 
#    0.000    0.000    0.000    0.000    0.000    0.000 
#
# Total GULP energy -178346.567829 kJ/mol
# GULP energy per Si atom -5573.330245 kJ/mol
# Density = 1.838399 g / cm^3
# Si number density = 18.425931 Si / 1000 Ang^3
#
#
#
# Elastic Constant Matrix: (Units=GPa)
#
#
# Indices 1 2 3 4 5 6 
#
# 1 68.9646 12.6568 21.1125 0.0004 -3.0723 -0.0005
# 2 12.6568 37.2124 13.4278 0.0002 -8.2729 -0.0003
# 3 21.1125 13.4278 58.4399 0.0001 9.2823 -0.0001
# 4 0.0004 0.0002 0.0001 14.3809 -0.0001 7.0135
# 5 -3.0723 -8.2729 9.2823 -0.0001 25.1120 0.0002
# 6 -0.0005 -0.0003 -0.0001 7.0135 0.0002 -5.3973
#
#
#
# Elastic Compliance Matrix: (Units=1/GPa)
#
#
# Indices 1 2 3 4 5 6 
#
# 1 0.017021 -0.002867 -0.006025 0.000000 0.003365 -0.000001
# 2 -0.002867 0.034328 -0.009128 0.000000 0.014332 -0.000001
# 3 -0.006025 -0.009128 0.023351 0.000000 -0.012376 0.000000
# 4 0.000000 0.000000 0.000000 0.042563 0.000000 0.055309
# 5 0.003365 0.014332 -0.012376 0.000000 0.049529 0.000001
# 6 -0.000001 -0.000001 0.000000 0.055309 0.000001 -0.113408
#
#
# Mechanical properties :
#
#
# Convention : Reuss Voigt Hill
#
# Bulk Modulus (GPa) = 25.86668 28.77904 27.32286
# Shear Modulus (GPa) = 48.87063 14.64712 31.75887
#
# Velocity S-wave (km/s) = 5.15561 2.82249 4.15613
# Velocity P-wave (km/s) = 7.03627 5.12588 6.15564
#
# Compressibility (1/GPa) = 0.03865978
#
# Stress axis : x y z
#
# Youngs Moduli (GPa) = 58.75217 29.13068 42.82432
#
# Poissons Ratio (x) = 0.08352 0.25800
# Poissons Ratio (y) = 0.16845 0.39091
# Poissons Ratio (z) = 0.35396 0.26591
#
# Static dielectric constant tensor:
#      x y z
#    x 1.649620 0.000000 -0.022950 
#    y 0.000000 1.624990 0.000000 
#    z -0.022950 0.000000 1.650420 
# 
# From -- ./inp_files/279566.got.cif
#   From: 2010.05.17/outbox.cif.g08.bks.cpg/sg15_140_cif.got.tgz:279566.got - 2010.06.03 18:47:42.
