data_PCOD9266154
_publ_section_title
;
Structure prediction by ZEFSAII (Michael W. Deem and Ramdas Pophale) SiO2 
 PCOD9266154
Probable space group: C 2/C
;
_chemical_formula_sum "Si O2"
_cell_formula_units_Z 40
_cell_length_a 18.561146
_cell_length_b 12.310490
_cell_length_c 9.190464
_cell_angle_alpha 90.000000
_cell_angle_beta 100.217444
_cell_angle_gamma 90.000000
_cell_volume 2066.689228
_symmetry_space_group_name_H-M "C 2/C"
_symmetry_group_IT_number 15
_symmetry_cell_setting 'monoclinic'
loop_
_space_group_symop_operation_xyz
x,y,z
-x,y,1/2-z
-x,-y,-z
x,-y,1/2+z
1/2+x,1/2+y,z
1/2-x,1/2+y,1/2-z
1/2-x,1/2-y,-z
1/2+x,1/2-y,1/2+z
loop_
_atom_site_type_symbol
_atom_site_label
_atom_site_fract_x
_atom_site_fract_y
_atom_site_fract_z
Si Si1 0.519722 0.157743 0.929353
Si Si2 0.536660 0.597670 0.421419
Si Si3 0.787805 0.514050 0.234106
Si Si4 0.212071 0.867813 0.962032
Si Si5 0.114837 0.459294 0.981026
O O1 0.500000 0.150286 0.750000
O O2 0.518593 0.282413 0.974418
O O3 0.594324 0.088244 0.971286
O O4 0.459273 0.100165 0.006230
O O5 0.500000 0.589066 0.250000
O O6 0.500000 0.500000 0.500000
O O7 0.624880 0.609878 0.438865
O O8 0.744712 0.444391 0.100403
O O9 0.738077 0.592337 0.312263
O O10 0.828852 0.440199 0.368047
O O11 0.850460 0.571719 0.160126
O O12 0.250000 0.750000 0.000000
#
# Coordination Sequence:
#
# PCOD9266154 Si02
#       5
#     8   8   8   8   8
#     4  10  20  36  65  90 133 158 208 262 335 385
#     4  11  24  44  64  88 129 175 221 260 325 396
#     4  10  21  39  64  91 129 158 216 263 328 384
#     4  11  24  44  67  94 133 178 219 276 336 398
#     4  10  19  37  61 102 119 160 208 274 327 390
#
# _framework density 19.354628000000002
#
# number of rings (size 3 to 8) (size 9 to 14) (size 15 to 20)
#    0.000    1.600    2.000    3.600    2.800    0.000 
#   10.800    2.000    0.000    0.000    0.000    0.000 
#    0.000    0.000    0.000    0.000    0.000    0.000 
#
# Total GULP energy -111455.723178 kJ/mol
# GULP energy per Si atom -5572.786159 kJ/mol
# Density = 1.931058 g / cm^3
# Si number density = 19.354628 Si / 1000 Ang^3
#
#
#
# Elastic Constant Matrix: (Units=GPa)
#
#
# Indices 1 2 3 4 5 6 
#
# 1 145.9871 67.5446 51.6301 0.0000 -16.7726 0.0000
# 2 67.5446 136.3544 46.5093 0.0000 -18.8282 0.0000
# 3 51.6301 46.5093 99.6650 0.0000 -16.3793 0.0000
# 4 0.0000 0.0000 0.0000 21.1127 0.0000 -3.7702
# 5 -16.7726 -18.8282 -16.3793 0.0000 40.1095 0.0000
# 6 0.0000 0.0000 0.0000 -3.7702 0.0000 19.1728
#
#
#
# Elastic Compliance Matrix: (Units=1/GPa)
#
#
# Indices 1 2 3 4 5 6 
#
# 1 0.009773 -0.003598 -0.003205 0.000000 0.001089 0.000000
# 2 -0.003598 0.010308 -0.002571 0.000000 0.002285 0.000000
# 3 -0.003205 -0.002571 0.013373 0.000000 0.002914 0.000000
# 4 0.000000 0.000000 0.000000 0.049089 0.000000 0.009653
# 5 0.001089 0.002285 0.002914 0.000000 0.027650 0.000000
# 6 0.000000 0.000000 0.000000 0.009653 0.000000 0.054055
#
#
# Mechanical properties :
#
#
# Convention : Reuss Voigt Hill
#
# Bulk Modulus (GPa) = 67.99777 79.26383 73.63080
# Shear Modulus (GPa) = 26.61021 30.50049 28.55535
#
# Velocity S-wave (km/s) = 3.71195 3.97404 3.84523
# Velocity P-wave (km/s) = 7.31986 7.88033 7.60526
#
# Compressibility (1/GPa) = 0.01470636
#
# Stress axis : x y z
#
# Youngs Moduli (GPa) = 102.32229 97.00764 74.77932
#
# Poissons Ratio (x) = 0.34899 0.23966
# Poissons Ratio (y) = 0.36811 0.19229
# Poissons Ratio (z) = 0.32794 0.24944
#
# Static dielectric constant tensor:
#      x y z
#    x 1.737750 0.000000 0.008130 
#    y 0.000000 1.709500 0.000000 
#    z 0.008130 0.000000 1.666250 
# 
# From -- ./inp_files/46049.got.cif
#   From: 2010.05.17/outbox.cif.g08.bks.cpg/sg15_24_cif.got.tgz:46049.got - 2010.06.03 18:47:42.
