data_PCOD9266342
_publ_section_title
;
Structure prediction by ZEFSAII (Michael W. Deem and Ramdas Pophale) SiO2 
 PCOD9266342
Probable space group: C 2/C
;
_chemical_formula_sum "Si O2"
_cell_formula_units_Z 48
_cell_length_a 16.563752
_cell_length_b 16.142345
_cell_length_c 20.598896
_cell_angle_alpha 90.000000
_cell_angle_beta 26.720482
_cell_angle_gamma 90.000000
_cell_volume 2476.467405
_symmetry_space_group_name_H-M "C 2/C"
_symmetry_group_IT_number 15
_symmetry_cell_setting 'monoclinic'
loop_
_space_group_symop_operation_xyz
x,y,z
-x,y,1/2-z
-x,-y,-z
x,-y,1/2+z
1/2+x,1/2+y,z
1/2-x,1/2+y,1/2-z
1/2-x,1/2-y,-z
1/2+x,1/2-y,1/2+z
loop_
_atom_site_type_symbol
_atom_site_label
_atom_site_fract_x
_atom_site_fract_y
_atom_site_fract_z
Si Si1 0.361996 0.775159 0.076316
Si Si2 0.708411 0.890731 0.619675
Si Si3 0.307307 0.667086 0.920607
Si Si4 0.203566 0.575169 0.630606
Si Si5 0.084779 0.816230 0.617320
Si Si6 0.243300 0.718420 0.706438
O O1 0.283579 0.685991 0.107553
O O2 0.329611 0.838786 0.040647
O O3 0.261860 0.801101 0.213476
O O4 0.570437 0.764244 0.940734
O O5 0.500000 0.876158 0.750000
O O6 0.804672 0.897734 0.480330
O O7 0.728805 0.980936 0.635721
O O8 0.500000 0.675215 0.750000
O O9 0.250000 0.750000 0.000000
O O10 0.335010 0.604901 0.478212
O O11 0.230149 0.638646 0.670316
O O12 0.000000 0.582427 0.750000
O O13 0.250000 0.750000 0.500000
O O14 0.000000 0.829842 0.750000
O O15 0.924604 0.776197 0.690634
#
# Coordination Sequence:
#
# PCOD9266342 Si02
#       6
#     8   8   8   8   8   8
#     4  11  21  35  62  90 120 151 196 244 300 361
#     4  10  22  41  62  86 122 161 201 245 299 356
#     4  10  19  37  63  89 117 158 205 241 283 360
#     4  11  23  40  63  86 118 160 202 250 298 353
#     4  12  20  38  61  82 114 156 213 244 280 355
#     4  12  21  35  58  91 116 154 194 249 300 353
#
# _framework density 19.382446999999999
#
# number of rings (size 3 to 8) (size 9 to 14) (size 15 to 20)
#    0.000    1.000    5.000    5.000    0.000    1.333 
#    0.000    0.000    0.000    3.000    0.000    0.000 
#    0.000    0.000    0.000    0.000    0.000    0.000 
#
# Total GULP energy -133956.516712 kJ/mol
# GULP energy per Si atom -5581.521530 kJ/mol
# Density = 1.933833 g / cm^3
# Si number density = 19.382447 Si / 1000 Ang^3
#
#
#
# Elastic Constant Matrix: (Units=GPa)
#
#
# Indices 1 2 3 4 5 6 
#
# 1 79.4806 19.4684 24.4409 0.0081 14.7036 -0.0010
# 2 19.4684 47.9385 14.2577 0.0051 -6.1713 -0.0015
# 3 24.4409 14.2577 116.3601 0.0158 8.6730 -0.0035
# 4 0.0081 0.0051 0.0158 5.0536 -0.0067 8.1511
# 5 14.7036 -6.1713 8.6730 -0.0067 52.0198 0.0027
# 6 -0.0010 -0.0015 -0.0035 8.1511 0.0027 20.7063
#
#
#
# Elastic Compliance Matrix: (Units=1/GPa)
#
#
# Indices 1 2 3 4 5 6 
#
# 1 0.015695 -0.006354 -0.002158 -0.000053 -0.004830 0.000022
# 2 -0.006354 0.024710 -0.002071 -0.000006 0.005073 0.000003
# 3 -0.002158 -0.002071 0.009391 -0.000076 -0.001201 0.000032
# 4 -0.000053 -0.000006 -0.000076 0.542059 0.000108 -0.213384
# 5 -0.004830 0.005073 -0.001201 0.000108 0.021391 -0.000045
# 6 0.000022 0.000003 0.000032 -0.213384 -0.000045 0.132294
#
#
# Mechanical properties :
#
#
# Convention : Reuss Voigt Hill
#
# Bulk Modulus (GPa) = 34.92972 40.01259 37.47115
# Shear Modulus (GPa) = 6.44123 27.93006 17.18565
#
# Velocity S-wave (km/s) = 1.82495 3.80017 2.98091
# Velocity P-wave (km/s) = 4.74353 6.32009 5.58769
#
# Compressibility (1/GPa) = 0.02862891
#
# Stress axis : x y z
#
# Youngs Moduli (GPa) = 63.71323 40.47024 106.48890
#
# Poissons Ratio (x) = 0.25715 0.22982
# Poissons Ratio (y) = 0.40484 0.22055
# Poissons Ratio (z) = 0.13750 0.08382
#
# Static dielectric constant tensor:
#      x y z
#    x 1.686810 0.000000 0.032770 
#    y 0.000000 1.678920 0.000000 
#    z 0.032770 0.000000 1.724100 
# 
# From -- ./inp_files/48068.got.cif
#   From: 2010.05.17/outbox.cif.g08.bks.cpg/sg15_25_cif.got.tgz:48068.got - 2010.06.03 18:47:42.
