data_PCOD9266467
_publ_section_title
;
Structure prediction by ZEFSAII (Michael W. Deem and Ramdas Pophale) SiO2 
 PCOD9266467
Probable space group: C 2/C
;
_chemical_formula_sum "Si O2"
_cell_formula_units_Z 40
_cell_length_a 12.105125
_cell_length_b 8.865430
_cell_length_c 20.328704
_cell_angle_alpha 90.000000
_cell_angle_beta 117.430999
_cell_angle_gamma 90.000000
_cell_volume 1936.330855
_symmetry_space_group_name_H-M "C 2/C"
_symmetry_group_IT_number 15
_symmetry_cell_setting 'monoclinic'
loop_
_space_group_symop_operation_xyz
x,y,z
-x,y,1/2-z
-x,-y,-z
x,-y,1/2+z
1/2+x,1/2+y,z
1/2-x,1/2+y,1/2-z
1/2-x,1/2-y,-z
1/2+x,1/2-y,1/2+z
loop_
_atom_site_type_symbol
_atom_site_label
_atom_site_fract_x
_atom_site_fract_y
_atom_site_fract_z
Si Si1 0.365135 0.083039 0.961814
Si Si2 0.203012 0.441877 0.691628
Si Si3 0.658996 0.391862 0.153649
Si Si4 0.530681 0.216302 0.331543
Si Si5 0.211984 0.092643 0.049041
O O1 0.379474 0.263075 0.976359
O O2 0.302148 0.043130 0.874777
O O3 0.270575 0.041122 0.995533
O O4 0.500000 0.000000 0.000000
O O5 0.285712 0.502119 0.773901
O O6 0.231320 0.268499 0.679203
O O7 0.061182 0.424220 0.678784
O O8 0.518843 0.347973 0.135149
O O9 0.665324 0.462321 0.083753
O O10 0.500000 0.266059 0.250000
O O11 0.668301 0.164738 0.381202
#
# Coordination Sequence:
#
# PCOD9266467 Si02
#       5
#     8   8   8   8   8
#     4  11  22  40  63  93 124 169 207 252 308 373
#     4  10  20  36  63  90 123 155 211 251 305 369
#     4  10  21  38  67  92 117 164 206 255 306 372
#     4  10  19  37  65  86 121 160 203 257 310 357
#     4  11  22  41  65  85 128 168 202 258 314 354
#
# _framework density 20.657626
#
# number of rings (size 3 to 8) (size 9 to 14) (size 15 to 20)
#    1.200    0.400    4.000    2.400    0.000    0.800 
#    0.000   13.000    4.400    0.000    0.000    0.000 
#    0.000    0.000    0.000    0.000    0.000    0.000 
#
# Total GULP energy -111483.537489 kJ/mol
# GULP energy per Si atom -5574.176874 kJ/mol
# Density = 2.061061 g / cm^3
# Si number density = 20.657626 Si / 1000 Ang^3
#
#
#
# Elastic Constant Matrix: (Units=GPa)
#
#
# Indices 1 2 3 4 5 6 
#
# 1 71.0184 25.6228 20.0748 0.0000 -14.6514 0.0000
# 2 25.6228 72.3297 25.2182 0.0000 -21.7184 0.0000
# 3 20.0748 25.2182 97.4278 0.0000 -30.3149 0.0000
# 4 0.0000 0.0000 0.0000 43.2440 0.0000 -10.4807
# 5 -14.6514 -21.7184 -30.3149 0.0000 40.4020 0.0000
# 6 0.0000 0.0000 0.0000 -10.4807 0.0000 40.6430
#
#
#
# Elastic Compliance Matrix: (Units=1/GPa)
#
#
# Indices 1 2 3 4 5 6 
#
# 1 0.016683 -0.004665 -0.001471 0.000000 0.002438 0.000000
# 2 -0.004665 0.018086 -0.001593 0.000000 0.006835 0.000000
# 3 -0.001471 -0.001593 0.013759 0.000000 0.008934 0.000000
# 4 0.000000 0.000000 0.000000 0.024666 0.000000 0.006361
# 5 0.002438 0.006835 0.008934 0.000000 0.036013 0.000000
# 6 0.000000 0.000000 0.000000 0.006361 0.000000 0.026245
#
#
# Mechanical properties :
#
#
# Convention : Reuss Voigt Hill
#
# Bulk Modulus (GPa) = 30.23977 42.51195 36.37586
# Shear Modulus (GPa) = 30.87668 36.18180 33.52924
#
# Velocity S-wave (km/s) = 3.87031 4.18963 4.03313
# Velocity P-wave (km/s) = 5.88581 6.63536 6.27179
#
# Compressibility (1/GPa) = 0.03306903
#
# Stress axis : x y z
#
# Youngs Moduli (GPa) = 59.94204 55.29138 72.67722
#
# Poissons Ratio (x) = 0.25792 0.10693
# Poissons Ratio (y) = 0.27962 0.11581
# Poissons Ratio (z) = 0.08820 0.08811
#
# Static dielectric constant tensor:
#      x y z
#    x 1.760550 0.000000 0.009230 
#    y 0.000000 1.749390 0.000000 
#    z 0.009230 0.000000 1.781570 
# 
# From -- ./inp_files/195234.got.cif
#   From: 2010.05.17/outbox.cif.g08.bks.cpg/sg15_98_cif.got.tgz:195234.got - 2010.06.03 18:47:42.
