data_PCOD9266963
_publ_section_title
;
Structure prediction by ZEFSAII (Michael W. Deem and Ramdas Pophale) SiO2 
 PCOD9266963
Probable space group: C 2/C
;
_chemical_formula_sum "Si O2"
_cell_formula_units_Z 44
_cell_length_a 13.987729
_cell_length_b 13.944302
_cell_length_c 19.225447
_cell_angle_alpha 90.000000
_cell_angle_beta 144.110140
_cell_angle_gamma 90.000000
_cell_volume 2198.303880
_symmetry_space_group_name_H-M "C 2/C"
_symmetry_group_IT_number 15
_symmetry_cell_setting 'monoclinic'
loop_
_space_group_symop_operation_xyz
x,y,z
-x,y,1/2-z
-x,-y,-z
x,-y,1/2+z
1/2+x,1/2+y,z
1/2-x,1/2+y,1/2-z
1/2-x,1/2-y,-z
1/2+x,1/2-y,1/2+z
loop_
_atom_site_type_symbol
_atom_site_label
_atom_site_fract_x
_atom_site_fract_y
_atom_site_fract_z
Si Si1 0.287419 0.405478 0.738855
Si Si2 0.511248 0.764236 0.331957
Si Si3 0.791972 0.396307 0.962570
Si Si4 0.829349 0.386845 0.679145
Si Si5 0.000000 0.199635 0.750000
Si Si6 0.592616 0.449750 0.423136
O O1 0.362899 0.299080 0.772477
O O2 0.199295 0.421137 0.613335
O O3 0.184890 0.409242 0.748223
O O4 0.436019 0.480657 0.835152
O O5 0.500000 0.813686 0.250000
O O6 0.649055 0.683006 0.394993
O O7 0.555494 0.842636 0.414913
O O8 0.734178 0.489735 0.968725
O O9 0.670801 0.419177 0.542466
O O10 0.000000 0.427900 0.750000
O O11 0.853493 0.272643 0.681856
O O12 0.044413 0.135894 0.842830
#
# Coordination Sequence:
#
# PCOD9266963 Si02
#       6
#     8   8   8   8   4   8
#     4  10  19  38  63  92 117 162 212 243 306 372
#     4   8  16  31  56  92 123 153 187 256 311 357
#     4   9  17  32  61  88 121 147 205 253 304 354
#     4  10  25  39  58  87 129 159 206 253 305 358
#     4  10  22  42  62  84 122 170 202 240 308 366
#     4  11  19  41  66  87 116 167 207 251 301 373
#
# _framework density 20.015431
#
# number of rings (size 3 to 8) (size 9 to 14) (size 15 to 20)
#    0.545    1.818    1.818    2.182    0.000    2.182 
#    0.000    6.364    0.000    0.000    0.000    0.000 
#    0.000    0.000    0.000    0.000    0.000    0.000 
#
# Total GULP energy -122583.879342 kJ/mol
# GULP energy per Si atom -5571.994516 kJ/mol
# Density = 1.996988 g / cm^3
# Si number density = 20.015431 Si / 1000 Ang^3
#
#
#
# Elastic Constant Matrix: (Units=GPa)
#
#
# Indices 1 2 3 4 5 6 
#
# 1 101.2163 21.8371 17.9713 0.0002 -29.6663 0.0001
# 2 21.8371 68.5261 28.0892 0.0003 -9.3631 0.0001
# 3 17.9713 28.0892 66.8966 0.0008 -20.2839 0.0003
# 4 0.0002 0.0003 0.0008 18.2696 0.0003 -3.2820
# 5 -29.6663 -9.3631 -20.2839 0.0003 25.5711 0.0001
# 6 0.0001 0.0001 0.0003 -3.2820 0.0001 4.9944
#
#
#
# Elastic Compliance Matrix: (Units=1/GPa)
#
#
# Indices 1 2 3 4 5 6 
#
# 1 0.015848 -0.003700 0.003239 -0.000001 0.019601 -0.000001
# 2 -0.003700 0.018502 -0.007929 0.000000 -0.003808 0.000001
# 3 0.003239 -0.007929 0.023262 -0.000002 0.019307 -0.000003
# 4 -0.000001 0.000000 -0.000002 0.062062 -0.000003 0.040783
# 5 0.019601 -0.003808 0.019307 -0.000003 0.075767 -0.000006
# 6 -0.000001 0.000001 -0.000003 0.040783 -0.000006 0.227024
#
#
# Mechanical properties :
#
#
# Convention : Reuss Voigt Hill
#
# Bulk Modulus (GPa) = 24.49082 41.38158 32.93620
# Shear Modulus (GPa) = 11.04106 21.01645 16.02876
#
# Velocity S-wave (km/s) = 2.35122 3.24390 2.83295
# Velocity P-wave (km/s) = 4.43097 5.89494 5.21459
#
# Compressibility (1/GPa) = 0.04083163
#
# Stress axis : x y z
#
# Youngs Moduli (GPa) = 63.10019 54.04807 42.98919
#
# Poissons Ratio (x) = 0.19997 -0.13925
# Poissons Ratio (y) = 0.23346 0.34088
# Poissons Ratio (z) = -0.20440 0.42857
#
# Static dielectric constant tensor:
#      x y z
#    x 1.689380 0.000000 0.028750 
#    y 0.000000 1.698490 0.000000 
#    z 0.028750 0.000000 1.750310 
# 
# From -- ./inp_files/205218.got.cif
#   From: 2010.05.17/outbox.cif.g08.bks.cpg/sg15_103_cif.got.tgz:205218.got - 2010.06.03 18:47:42.
