data_PCOD9266535
_publ_section_title
;
Structure prediction by ZEFSAII (Michael W. Deem and Ramdas Pophale) SiO2 
 PCOD9266535
Probable space group: C 2/C
;
_chemical_formula_sum "Si O2"
_cell_formula_units_Z 60
_cell_length_a 23.554864
_cell_length_b 7.891694
_cell_length_c 22.625992
_cell_angle_alpha 90.000000
_cell_angle_beta 142.651654
_cell_angle_gamma 90.000000
_cell_volume 2551.545989
_symmetry_space_group_name_H-M "C 2/C"
_symmetry_group_IT_number 15
_symmetry_cell_setting 'monoclinic'
loop_
_space_group_symop_operation_xyz
x,y,z
-x,y,1/2-z
-x,-y,-z
x,-y,1/2+z
1/2+x,1/2+y,z
1/2-x,1/2+y,1/2-z
1/2-x,1/2-y,-z
1/2+x,1/2-y,1/2+z
loop_
_atom_site_type_symbol
_atom_site_label
_atom_site_fract_x
_atom_site_fract_y
_atom_site_fract_z
Si Si1 0.128913 0.431534 0.773079
Si Si2 0.847580 0.371743 0.041181
Si Si3 0.546684 0.231457 0.401450
Si Si4 0.468662 0.693705 0.474257
Si Si5 0.806577 0.615432 0.789258
Si Si6 0.716909 0.414271 0.508387
Si Si7 0.500000 0.165010 0.750000
Si Si8 0.162838 0.322924 0.600013
O O1 0.141908 0.507301 0.718983
O O2 0.058565 0.273918 0.710271
O O3 0.073569 0.556779 0.771460
O O4 0.229338 0.401107 0.884734
O O5 0.902656 0.551872 0.072706
O O6 0.926864 0.262752 0.141209
O O7 0.759340 0.428356 0.007858
O O8 0.815899 0.301866 0.951556
O O9 0.543675 0.247856 0.468928
O O10 0.607944 0.384682 0.427241
O O11 0.500000 0.500000 0.500000
O O12 0.373130 0.727622 0.360480
O O13 0.551699 0.805160 0.514813
O O14 0.801060 0.499614 0.842843
O O15 0.711937 0.682445 0.681719
O O16 0.750000 0.250000 0.500000
#
# Coordination Sequence:
#
# PCOD9266535 Si02
#       8
#     8   8   8   8   8   8   4   8
#     4  10  20  38  66  94 126 175 224 276 332 405
#     4   9  18  38  64  97 129 174 225 279 333 404
#     4  10  19  37  66  94 130 172 216 276 335 396
#     4  12  25  42  65 101 138 177 228 279 340 416
#     4  12  26  44  68 102 135 183 226 279 353 415
#     4   9  20  35  64 100 128 170 231 276 331 411
#     4   8  16  34  64  94 116 170 228 262 328 406
#     4  12  25  43  70 100 142 184 228 285 349 417
#
# _framework density 23.515156000000001
#
# number of rings (size 3 to 8) (size 9 to 14) (size 15 to 20)
#    0.000    1.600    2.667    3.600    3.733    0.000 
#    4.800    2.667    2.933    0.000    0.000    0.000 
#    0.000    0.000    0.000    0.000    0.000    0.000 
#
# Total GULP energy -167735.300757 kJ/mol
# GULP energy per Si atom -5591.176692 kJ/mol
# Density = 2.346163 g / cm^3
# Si number density = 23.515156 Si / 1000 Ang^3
#
#
#
# Elastic Constant Matrix: (Units=GPa)
#
#
# Indices 1 2 3 4 5 6 
#
# 1 84.0263 7.5046 15.6277 0.0000 -12.9375 0.0000
# 2 7.5046 72.3993 44.7862 0.0000 1.3968 0.0000
# 3 15.6277 44.7862 94.0663 0.0000 -23.0732 0.0000
# 4 0.0000 0.0000 0.0000 31.4412 0.0000 5.4193
# 5 -12.9375 1.3968 -23.0732 0.0000 35.8769 0.0000
# 6 0.0000 0.0000 0.0000 5.4193 0.0000 22.4077
#
#
#
# Elastic Compliance Matrix: (Units=1/GPa)
#
#
# Indices 1 2 3 4 5 6 
#
# 1 0.012759 -0.001053 -0.000570 0.000000 0.004276 0.000000
# 2 -0.001053 0.021825 -0.012488 0.000000 -0.009260 0.000000
# 3 -0.000570 -0.012488 0.019875 0.000000 0.013063 0.000000
# 4 0.000000 0.000000 0.000000 0.033189 0.000000 -0.008027
# 5 0.004276 -0.009260 0.013063 0.000000 0.038176 0.000000
# 6 0.000000 0.000000 0.000000 -0.008027 0.000000 0.046569
#
#
# Mechanical properties :
#
#
# Convention : Reuss Voigt Hill
#
# Bulk Modulus (GPa) = 38.11098 42.92543 40.51820
# Shear Modulus (GPa) = 23.88228 30.11673 26.99950
#
# Velocity S-wave (km/s) = 3.19032 3.58262 3.39215
# Velocity P-wave (km/s) = 5.46013 5.95043 5.71054
#
# Compressibility (1/GPa) = 0.02623916
#
# Stress axis : x y z
#
# Youngs Moduli (GPa) = 78.37394 45.81912 50.31393
#
# Poissons Ratio (x) = 0.04822 0.02868
# Poissons Ratio (y) = 0.08249 0.62831
# Poissons Ratio (z) = 0.04467 0.57218
#
# Static dielectric constant tensor:
#      x y z
#    x 1.884320 0.000000 0.004990 
#    y 0.000000 1.923270 0.000000 
#    z 0.004990 0.000000 2.166830 
# 
# From -- ./inp_files/283396.got.cif
#   From: 2010.05.17/outbox.cif.g08.bks.cpg/sg15_142_cif.got.tgz:283396.got - 2010.06.03 18:47:42.
