data_PCOD9266172
_publ_section_title
;
Structure prediction by ZEFSAII (Michael W. Deem and Ramdas Pophale) SiO2 
 PCOD9266172
Probable space group: C 2/C
;
_chemical_formula_sum "Si O2"
_cell_formula_units_Z 48
_cell_length_a 13.262585
_cell_length_b 16.255785
_cell_length_c 10.777933
_cell_angle_alpha 90.000000
_cell_angle_beta 87.418480
_cell_angle_gamma 90.000000
_cell_volume 2321.296617
_symmetry_space_group_name_H-M "C 2/C"
_symmetry_group_IT_number 15
_symmetry_cell_setting 'monoclinic'
loop_
_space_group_symop_operation_xyz
x,y,z
-x,y,1/2-z
-x,-y,-z
x,-y,1/2+z
1/2+x,1/2+y,z
1/2-x,1/2+y,1/2-z
1/2-x,1/2-y,-z
1/2+x,1/2-y,1/2+z
loop_
_atom_site_type_symbol
_atom_site_label
_atom_site_fract_x
_atom_site_fract_y
_atom_site_fract_z
Si Si1 0.115850 0.243246 0.569514
Si Si2 0.250054 0.702897 0.710197
Si Si3 0.592731 0.923080 0.147059
Si Si4 0.402885 0.184820 0.099490
Si Si5 0.686793 0.905304 0.655074
Si Si6 0.393779 0.345659 0.690081
O O1 0.178428 0.198841 0.673358
O O2 0.176214 0.330504 0.556546
O O3 0.094329 0.192591 0.447416
O O4 0.007786 0.272531 0.620620
O O5 0.193397 0.618112 0.696857
O O6 0.321667 0.740966 0.599881
O O7 0.162068 0.771215 0.733980
O O8 0.500000 0.918398 0.250000
O O9 0.623551 0.016499 0.116371
O O10 0.578295 0.869480 0.023729
O O11 0.363156 0.127529 0.213787
O O12 0.805932 0.914522 0.679163
O O13 0.500000 0.366331 0.750000
#
# Coordination Sequence:
#
# PCOD9266172 Si02
#       6
#     8   8   8   8   8   8
#     4  10  19  37  61  84 115 155 199 240 283 341
#     4  10  20  36  58  86 118 154 195 238 286 341
#     4  12  24  37  60  90 118 153 195 237 297 359
#     4  10  21  38  59  85 120 153 194 246 287 336
#     4  10  23  39  56  88 125 153 186 245 305 340
#     4  10  20  37  61  85 113 154 203 240 280 346
#
# _framework density 20.678099
#
# number of rings (size 3 to 8) (size 9 to 14) (size 15 to 20)
#    0.000    2.000    0.000    8.000    0.000    6.667 
#    0.000    1.667    0.000    6.000    0.000    0.000 
#    0.000    0.000    0.000    0.000    0.000    0.000 
#
# Total GULP energy -133820.081488 kJ/mol
# GULP energy per Si atom -5575.836729 kJ/mol
# Density = 2.063103 g / cm^3
# Si number density = 20.678099 Si / 1000 Ang^3
#
#
#
# Elastic Constant Matrix: (Units=GPa)
#
#
# Indices 1 2 3 4 5 6 
#
# 1 142.5353 10.5284 50.5443 0.0000 9.6492 0.0000
# 2 10.5284 45.6228 28.7586 0.0000 5.3628 0.0000
# 3 50.5443 28.7586 107.6768 0.0000 -2.7923 0.0000
# 4 0.0000 0.0000 0.0000 22.8068 0.0000 14.1165
# 5 9.6492 5.3628 -2.7923 0.0000 23.1902 0.0000
# 6 0.0000 0.0000 0.0000 14.1165 0.0000 54.8871
#
#
#
# Elastic Compliance Matrix: (Units=1/GPa)
#
#
# Indices 1 2 3 4 5 6 
#
# 1 0.008876 0.001433 -0.004668 0.000000 -0.004587 0.000000
# 2 0.001433 0.027759 -0.008295 0.000000 -0.008014 0.000000
# 3 -0.004668 -0.008295 0.013837 0.000000 0.005527 0.000000
# 4 0.000000 0.000000 0.000000 0.052148 0.000000 -0.013412
# 5 -0.004587 -0.008014 0.005527 0.000000 0.047549 0.000000
# 6 0.000000 0.000000 0.000000 -0.013412 0.000000 0.021669
#
#
# Mechanical properties :
#
#
# Convention : Reuss Voigt Hill
#
# Bulk Modulus (GPa) = 36.47914 52.83304 44.65609
# Shear Modulus (GPa) = 24.50580 33.91038 29.20809
#
# Velocity S-wave (km/s) = 3.44628 4.05398 3.76242
# Velocity P-wave (km/s) = 5.78926 6.89338 6.36531
#
# Compressibility (1/GPa) = 0.02741293
#
# Stress axis : x y z
#
# Youngs Moduli (GPa) = 112.66592 36.02478 72.27013
#
# Poissons Ratio (x) = -0.05164 0.33737
# Poissons Ratio (y) = -0.16150 0.59945
# Poissons Ratio (z) = 0.52594 0.29881
#
# Static dielectric constant tensor:
#      x y z
#    x 1.798170 0.000000 0.009770 
#    y 0.000000 1.734920 0.000000 
#    z 0.009770 0.000000 1.799200 
# 
# From -- ./inp_files/87384.got.cif
#   From: 2010.05.17/outbox.cif.g08.bks.cpg/sg15_44_cif.got.tgz:87384.got - 2010.06.03 18:47:42.
