data_PCOD9266165
_publ_section_title
;
Structure prediction by ZEFSAII (Michael W. Deem and Ramdas Pophale) SiO2 
 PCOD9266165
Probable space group: C 2/C
;
_chemical_formula_sum "Si O2"
_cell_formula_units_Z 44
_cell_length_a 18.373561
_cell_length_b 15.243832
_cell_length_c 11.900476
_cell_angle_alpha 90.000000
_cell_angle_beta 138.126600
_cell_angle_gamma 90.000000
_cell_volume 2224.818511
_symmetry_space_group_name_H-M "C 2/C"
_symmetry_group_IT_number 15
_symmetry_cell_setting 'monoclinic'
loop_
_space_group_symop_operation_xyz
x,y,z
-x,y,1/2-z
-x,-y,-z
x,-y,1/2+z
1/2+x,1/2+y,z
1/2-x,1/2+y,1/2-z
1/2-x,1/2-y,-z
1/2+x,1/2-y,1/2+z
loop_
_atom_site_type_symbol
_atom_site_label
_atom_site_fract_x
_atom_site_fract_y
_atom_site_fract_z
Si Si1 0.141466 0.118553 0.058513
Si Si2 0.680555 0.376821 0.859199
Si Si3 0.900066 0.325405 0.219859
Si Si4 0.679250 0.838842 0.901706
Si Si5 0.500000 0.498107 0.250000
Si Si6 0.059983 0.679442 0.478017
O O1 0.183240 0.098985 0.231023
O O2 0.238430 0.105714 0.079761
O O3 0.100279 0.219515 0.014725
O O4 0.040464 0.061650 0.899307
O O5 0.633638 0.277573 0.815231
O O6 0.598325 0.440852 0.825907
O O7 0.797330 0.376546 0.052019
O O8 0.926777 0.350674 0.378841
O O9 0.000000 0.336077 0.250000
O O10 0.566031 0.823292 0.705055
O O11 0.637082 0.869812 0.975641
O O12 0.750000 0.750000 0.000000
#
# Coordination Sequence:
#
# PCOD9266165 Si02
#       6
#     8   8   8   8   4   8
#     4  10  20  35  56  82 117 154 183 235 293 342
#     4  10  22  37  56  87 112 150 195 235 288 340
#     4  10  19  37  61  83 112 147 195 246 283 330
#     4   9  16  31  52  85 115 144 188 236 282 330
#     4  12  22  40  54  86 120 152 190 230 294 366
#     4   9  18  32  57  90 111 145 196 242 285 327
#
# _framework density 19.776893999999999
#
# number of rings (size 3 to 8) (size 9 to 14) (size 15 to 20)
#    0.000    2.182    0.909    3.818    0.000    1.455 
#    6.545    0.000    4.000    2.182    0.000    0.000 
#    0.000    0.000    0.000    0.000    0.000    0.000 
#
# Total GULP energy -122758.395147 kJ/mol
# GULP energy per Si atom -5579.927052 kJ/mol
# Density = 1.973188 g / cm^3
# Si number density = 19.776894 Si / 1000 Ang^3
#
#
#
# Elastic Constant Matrix: (Units=GPa)
#
#
# Indices 1 2 3 4 5 6 
#
# 1 151.2334 25.6406 89.0270 0.0000 -0.9175 0.0000
# 2 25.6406 23.4459 25.5675 0.0000 -5.3503 0.0000
# 3 89.0270 25.5675 164.8465 0.0000 -12.8990 0.0000
# 4 0.0000 0.0000 0.0000 5.4696 0.0000 3.6359
# 5 -0.9175 -5.3503 -12.8990 0.0000 39.9354 0.0000
# 6 0.0000 0.0000 0.0000 3.6359 0.0000 4.6852
#
#
#
# Elastic Compliance Matrix: (Units=1/GPa)
#
#
# Indices 1 2 3 4 5 6 
#
# 1 0.010609 -0.006828 -0.004845 0.000000 -0.002236 0.000000
# 2 -0.006828 0.056500 -0.004612 0.000000 0.005923 0.000000
# 3 -0.004845 -0.004612 0.009583 0.000000 0.002366 0.000000
# 4 0.000000 0.000000 0.000000 0.377632 0.000000 -0.293053
# 5 -0.002236 0.005923 0.002366 0.000000 0.026547 0.000000
# 6 0.000000 0.000000 0.000000 -0.293053 0.000000 0.440854
#
#
# Mechanical properties :
#
#
# Convention : Reuss Voigt Hill
#
# Bulk Modulus (GPa) = 22.66491 68.88844 45.77668
# Shear Modulus (GPa) = 5.15995 23.30410 14.23202
#
# Velocity S-wave (km/s) = 1.61702 3.43643 2.68550
# Velocity P-wave (km/s) = 3.86930 7.11715 5.72823
#
# Compressibility (1/GPa) = 0.04412106
#
# Stress axis : x y z
#
# Youngs Moduli (GPa) = 94.26236 17.69915 104.34694
#
# Poissons Ratio (x) = 0.12086 0.50559
# Poissons Ratio (y) = 0.64366 0.48123
# Poissons Ratio (z) = 0.45672 0.08163
#
# Static dielectric constant tensor:
#      x y z
#    x 1.690500 0.000000 -0.019740 
#    y 0.000000 1.681130 0.000000 
#    z -0.019740 0.000000 1.677500 
# 
# From -- ./inp_files/106781.got.cif
#   From: 2010.05.17/outbox.cif.g08.bks.cpg/sg15_54_cif.got.tgz:106781.got - 2010.06.03 18:47:42.
