data_PCOD9266966
_publ_section_title
;
Structure prediction by ZEFSAII (Michael W. Deem and Ramdas Pophale) SiO2 
 PCOD9266966
Probable space group: C 2/C
;
_chemical_formula_sum "Si O2"
_cell_formula_units_Z 60
_cell_length_a 24.917193
_cell_length_b 18.205261
_cell_length_c 7.945199
_cell_angle_alpha 90.000000
_cell_angle_beta 127.791051
_cell_angle_gamma 90.000000
_cell_volume 2848.168717
_symmetry_space_group_name_H-M "C 2/C"
_symmetry_group_IT_number 15
_symmetry_cell_setting 'monoclinic'
loop_
_space_group_symop_operation_xyz
x,y,z
-x,y,1/2-z
-x,-y,-z
x,-y,1/2+z
1/2+x,1/2+y,z
1/2-x,1/2+y,1/2-z
1/2-x,1/2-y,-z
1/2+x,1/2-y,1/2+z
loop_
_atom_site_type_symbol
_atom_site_label
_atom_site_fract_x
_atom_site_fract_y
_atom_site_fract_z
Si Si1 0.617987 0.057308 0.956963
Si Si2 0.500000 0.936215 0.750000
Si Si3 0.420245 0.416030 0.638674
Si Si4 0.739997 0.895120 0.104925
Si Si5 0.862407 0.179042 0.721853
Si Si6 0.079427 0.080745 0.958868
Si Si7 0.092975 0.345213 0.699768
Si Si8 0.783403 0.467813 0.129090
O O1 0.650877 0.066619 0.838455
O O2 0.561537 0.994776 0.870855
O O3 0.594532 0.128926 0.009306
O O4 0.682664 0.025167 0.178083
O O5 0.525604 0.881265 0.652206
O O6 0.500000 0.413994 0.750000
O O7 0.389344 0.359634 0.444484
O O8 0.398042 0.498235 0.544670
O O9 0.412165 0.405084 0.824757
O O10 0.781898 0.831141 0.096984
O O11 0.751877 0.905922 0.327244
O O12 0.659629 0.881185 0.919004
O O13 0.759618 0.974894 0.063528
O O14 0.881105 0.135275 0.588695
O O15 0.894969 0.259045 0.766824
O O16 0.000000 0.086492 0.750000
#
# Coordination Sequence:
#
# PCOD9266966 Si02
#       8
#     8   4   8   8   8   8   8   8
#     4  10  19  38  63  92 126 160 220 278 335 402
#     4  12  20  38  72  94 126 178 228 274 358 398
#     4  11  21  41  66  94 128 171 226 283 331 398
#     4  10  22  41  64  90 136 170 221 280 342 403
#     4  12  26  42  65  95 141 179 223 278 347 406
#     4  11  21  41  68  92 129 172 221 282 335 395
#     4  11  25  42  61  96 135 173 217 284 349 406
#     4   9  18  38  64  95 119 165 228 279 317 413
#
# _framework density 21.066168000000001
#
# number of rings (size 3 to 8) (size 9 to 14) (size 15 to 20)
#    0.000    1.333    6.667    1.600    2.800    0.000 
#    8.400    0.667    0.000    0.000    0.000    0.000 
#    0.000    0.000    0.000    0.000    0.000    0.000 
#
# Total GULP energy -167147.281098 kJ/mol
# GULP energy per Si atom -5571.576037 kJ/mol
# Density = 2.101822 g / cm^3
# Si number density = 21.066168 Si / 1000 Ang^3
#
#
#
# Elastic Constant Matrix: (Units=GPa)
#
#
# Indices 1 2 3 4 5 6 
#
# 1 115.7075 50.7694 34.8194 0.0000 -25.4078 0.0000
# 2 50.7694 109.4516 20.5144 0.0000 -16.4125 0.0000
# 3 34.8194 20.5144 67.7851 0.0000 -28.3351 0.0000
# 4 0.0000 0.0000 0.0000 21.8620 0.0000 -0.9248
# 5 -25.4078 -16.4125 -28.3351 0.0000 40.3352 0.0000
# 6 0.0000 0.0000 0.0000 -0.9248 0.0000 13.7226
#
#
#
# Elastic Compliance Matrix: (Units=1/GPa)
#
#
# Indices 1 2 3 4 5 6 
#
# 1 0.012506 -0.004608 -0.003568 0.000000 0.003496 0.000000
# 2 -0.004608 0.011590 -0.000542 0.000000 0.001433 0.000000
# 3 -0.003568 -0.000542 0.022252 0.000000 0.013164 0.000000
# 4 0.000000 0.000000 0.000000 0.045872 0.000000 0.003091
# 5 0.003496 0.001433 0.013164 0.000000 0.036825 0.000000
# 6 0.000000 0.000000 0.000000 0.003091 0.000000 0.073081
#
#
# Mechanical properties :
#
#
# Convention : Reuss Voigt Hill
#
# Bulk Modulus (GPa) = 34.58662 56.12784 45.35723
# Shear Modulus (GPa) = 21.81516 27.64002 24.72759
#
# Velocity S-wave (km/s) = 3.22149 3.62616 3.42980
# Velocity P-wave (km/s) = 5.50373 6.65083 6.10429
#
# Compressibility (1/GPa) = 0.02891291
#
# Stress axis : x y z
#
# Youngs Moduli (GPa) = 79.96401 86.27967 44.94013
#
# Poissons Ratio (x) = 0.39756 0.16034
# Poissons Ratio (y) = 0.36846 0.02435
# Poissons Ratio (z) = 0.28530 0.04674
#
# Static dielectric constant tensor:
#      x y z
#    x 1.840280 0.000000 -0.006020 
#    y 0.000000 1.752660 0.000000 
#    z -0.006020 0.000000 1.857720 
# 
# From -- ./inp_files/62743.got.cif
#   From: 2010.05.17/outbox.cif.g08.bks.cpg/sg15_32_cif.got.tgz:62743.got - 2010.06.03 18:47:42.
