data_PCOD9266740
_publ_section_title
;
Structure prediction by ZEFSAII (Michael W. Deem and Ramdas Pophale) SiO2 
 PCOD9266740
Probable space group: C 2/C
;
_chemical_formula_sum "Si O2"
_cell_formula_units_Z 48
_cell_length_a 12.633873
_cell_length_b 8.878870
_cell_length_c 24.411319
_cell_angle_alpha 90.000000
_cell_angle_beta 122.848942
_cell_angle_gamma 90.000000
_cell_volume 2300.479039
_symmetry_space_group_name_H-M "C 2/C"
_symmetry_group_IT_number 15
_symmetry_cell_setting 'monoclinic'
loop_
_space_group_symop_operation_xyz
x,y,z
-x,y,1/2-z
-x,-y,-z
x,-y,1/2+z
1/2+x,1/2+y,z
1/2-x,1/2+y,1/2-z
1/2-x,1/2-y,-z
1/2+x,1/2-y,1/2+z
loop_
_atom_site_type_symbol
_atom_site_label
_atom_site_fract_x
_atom_site_fract_y
_atom_site_fract_z
Si Si1 0.591468 0.961287 0.455316
Si Si2 0.286832 0.835080 0.687012
Si Si3 0.447399 0.547372 0.892092
Si Si4 0.010858 0.331845 0.665074
Si Si5 0.841984 0.951028 0.474837
Si Si6 0.862597 0.697552 0.942279
O O1 0.502046 0.053652 0.388805
O O2 0.705520 0.893934 0.452514
O O3 0.660266 0.078604 0.515913
O O4 0.503090 0.848777 0.463359
O O5 0.398728 0.875610 0.675483
O O6 0.359930 0.822367 0.764549
O O7 0.222381 0.695013 0.636663
O O8 0.170897 0.950631 0.662127
O O9 0.502024 0.667337 0.865556
O O10 0.391895 0.621201 0.932506
O O11 0.560653 0.447251 0.947777
O O12 0.839692 0.132456 0.458641
#
# Coordination Sequence:
#
# PCOD9266740 Si02
#       6
#     8   8   8   8   8   8
#     4  11  20  35  64  87 116 155 192 246 289 343
#     4  10  23  39  59  87 117 157 195 235 291 350
#     4  10  20  36  64  86 114 155 192 238 292 345
#     4  11  21  38  63  84 116 161 190 236 297 342
#     4  10  19  38  60  86 117 149 192 245 291 338
#     4  10  20  35  59  90 114 151 196 237 291 344
#
# _framework density 20.865220000000001
#
# number of rings (size 3 to 8) (size 9 to 14) (size 15 to 20)
#    0.000    1.667    5.000    1.500    2.333    0.000 
#    0.000    7.500    7.333    0.000    0.000    0.000 
#    0.000    0.000    0.000    0.000    0.000    0.000 
#
# Total GULP energy -133730.725901 kJ/mol
# GULP energy per Si atom -5572.113579 kJ/mol
# Density = 2.081773 g / cm^3
# Si number density = 20.865220 Si / 1000 Ang^3
#
#
#
# Elastic Constant Matrix: (Units=GPa)
#
#
# Indices 1 2 3 4 5 6 
#
# 1 76.9471 -3.6251 -1.2467 0.0000 6.4833 0.0000
# 2 -3.6251 49.3753 27.2696 0.0000 -4.4174 0.0000
# 3 -1.2467 27.2696 130.3182 0.0000 22.2856 0.0000
# 4 0.0000 0.0000 0.0000 22.0752 0.0000 6.4793
# 5 6.4833 -4.4174 22.2856 0.0000 30.7706 0.0000
# 6 0.0000 0.0000 0.0000 6.4793 0.0000 22.8060
#
#
#
# Elastic Compliance Matrix: (Units=1/GPa)
#
#
# Indices 1 2 3 4 5 6 
#
# 1 0.013291 0.000363 0.000595 0.000000 -0.003179 0.000000
# 2 0.000363 0.024634 -0.006555 0.000000 0.008207 0.000000
# 3 0.000595 -0.006555 0.010538 0.000000 -0.008699 0.000000
# 4 0.000000 0.000000 0.000000 0.049421 0.000000 -0.014041
# 5 -0.003179 0.008207 -0.008699 0.000000 0.040647 0.000000
# 6 0.000000 0.000000 0.000000 -0.014041 0.000000 0.047837
#
#
# Mechanical properties :
#
#
# Convention : Reuss Voigt Hill
#
# Bulk Modulus (GPa) = 26.83212 33.49293 30.16253
# Shear Modulus (GPa) = 23.81121 30.74653 27.27887
#
# Velocity S-wave (km/s) = 3.38182 3.84289 3.61970
# Velocity P-wave (km/s) = 5.30439 5.98141 5.65304
#
# Compressibility (1/GPa) = 0.03726876
#
# Stress axis : x y z
#
# Youngs Moduli (GPa) = 75.24157 40.59406 94.89093
#
# Poissons Ratio (x) = -0.01473 -0.05645
# Poissons Ratio (y) = -0.02730 0.62200
# Poissons Ratio (z) = -0.04476 0.26609
#
# Static dielectric constant tensor:
#      x y z
#    x 1.779230 0.000000 0.023550 
#    y 0.000000 1.803860 0.000000 
#    z 0.023550 0.000000 1.796990 
# 
# From -- ./inp_files/268550.got.cif
#   From: 2010.05.17/outbox.cif.g08.bks.cpg/sg15_135_cif.got.tgz:268550.got - 2010.06.03 18:47:42.
