data_PCOD9266821
_publ_section_title
;
Structure prediction by ZEFSAII (Michael W. Deem and Ramdas Pophale) SiO2 
 PCOD9266821
Probable space group: C 2/C
;
_chemical_formula_sum "Si O2"
_cell_formula_units_Z 64
_cell_length_a 9.985967
_cell_length_b 15.021121
_cell_length_c 20.198890
_cell_angle_alpha 90.000000
_cell_angle_beta 108.024236
_cell_angle_gamma 90.000000
_cell_volume 2881.154636
_symmetry_space_group_name_H-M "C 2/C"
_symmetry_group_IT_number 15
_symmetry_cell_setting 'monoclinic'
loop_
_space_group_symop_operation_xyz
x,y,z
-x,y,1/2-z
-x,-y,-z
x,-y,1/2+z
1/2+x,1/2+y,z
1/2-x,1/2+y,1/2-z
1/2-x,1/2-y,-z
1/2+x,1/2-y,1/2+z
loop_
_atom_site_type_symbol
_atom_site_label
_atom_site_fract_x
_atom_site_fract_y
_atom_site_fract_z
Si Si1 0.015942 0.240482 0.477123
Si Si2 0.707329 0.581910 0.070010
Si Si3 0.120881 0.260087 0.856292
Si Si4 0.686912 0.293883 0.227200
Si Si5 0.704784 0.458677 0.839509
Si Si6 0.786311 0.392211 0.443336
Si Si7 0.375232 0.502382 0.809146
Si Si8 0.727173 0.264046 0.891215
O O1 0.131104 0.228714 0.552316
O O2 0.101187 0.253493 0.422163
O O3 0.920791 0.152632 0.454831
O O4 0.920175 0.328025 0.473705
O O5 0.836739 0.644450 0.111211
O O6 0.675888 0.513986 0.124083
O O7 0.744616 0.550982 0.001868
O O8 0.215141 0.237999 0.805628
O O9 0.162865 0.180761 0.912285
O O10 0.958075 0.255184 0.814595
O O11 0.647931 0.397376 0.218795
O O12 0.795226 0.275262 0.185302
O O13 0.792161 0.541212 0.882341
O O14 0.540424 0.479587 0.830251
O O15 0.707628 0.446989 0.760294
O O16 0.744752 0.369140 0.882740
#
# Coordination Sequence:
#
# PCOD9266821 Si02
#       8
#     8   8   8   8   8   8   8   8
#     4  10  23  40  58  90 128 162 205 253 316 371
#     4  11  22  37  64  94 121 159 215 257 300 372
#     4  10  19  38  61  92 119 158 206 256 305 360
#     4  11  20  38  66  89 121 162 206 258 310 365
#     4  11  22  41  62  91 126 163 200 259 313 360
#     4  11  21  39  63  88 123 164 203 256 305 367
#     4  11  22  40  61  94 122 156 211 257 303 365
#     4  11  23  40  61  90 126 165 205 256 312 377
#
# _framework density 22.213315999999999
#
# number of rings (size 3 to 8) (size 9 to 14) (size 15 to 20)
#    0.000    1.250    3.750    4.500    0.000    3.000 
#    0.000    1.250    0.000    3.000    0.000    0.000 
#    0.000    0.000    0.000    0.000    0.000    0.000 
#
# Total GULP energy -178907.330899 kJ/mol
# GULP energy per Si atom -5590.854091 kJ/mol
# Density = 2.216276 g / cm^3
# Si number density = 22.213316 Si / 1000 Ang^3
#
#
#
# Elastic Constant Matrix: (Units=GPa)
#
#
# Indices 1 2 3 4 5 6 
#
# 1 45.2006 -5.4222 23.1116 0.0000 -13.6883 0.0000
# 2 -5.4222 31.1127 -3.9475 0.0000 6.8346 0.0000
# 3 23.1116 -3.9475 102.2396 0.0000 -29.7604 0.0000
# 4 0.0000 0.0000 0.0000 34.1150 0.0000 -8.0809
# 5 -13.6883 6.8346 -29.7604 0.0000 36.2415 0.0000
# 6 0.0000 0.0000 0.0000 -8.0809 0.0000 9.8463
#
#
#
# Elastic Compliance Matrix: (Units=1/GPa)
#
#
# Indices 1 2 3 4 5 6 
#
# 1 0.026387 0.002741 -0.004085 0.000000 0.006095 0.000000
# 2 0.002741 0.033855 -0.001143 0.000000 -0.006288 0.000000
# 3 -0.004085 -0.001143 0.013501 0.000000 0.009759 0.000000
# 4 0.000000 0.000000 0.000000 0.036386 0.000000 0.029862
# 5 0.006095 -0.006288 0.009759 0.000000 0.039094 0.000000
# 6 0.000000 0.000000 0.000000 0.029862 0.000000 0.126069
#
#
# Mechanical properties :
#
#
# Convention : Reuss Voigt Hill
#
# Bulk Modulus (GPa) = 14.54110 22.89297 18.71703
# Shear Modulus (GPa) = 16.49137 27.02795 21.75966
#
# Velocity S-wave (km/s) = 2.72767 3.49197 3.13322
# Velocity P-wave (km/s) = 4.05963 5.15624 4.64044
#
# Compressibility (1/GPa) = 0.06877058
#
# Stress axis : x y z
#
# Youngs Moduli (GPa) = 37.89775 29.53759 74.06872
#
# Poissons Ratio (x) = -0.08097 0.30256
# Poissons Ratio (y) = -0.10389 0.08464
# Poissons Ratio (z) = 0.15481 0.03375
#
# Static dielectric constant tensor:
#      x y z
#    x 1.814950 0.000000 -0.038280 
#    y 0.000000 1.788450 0.000000 
#    z -0.038280 0.000000 1.872180 
# 
# From -- ./inp_files/238756.got.cif
#   From: 2010.05.17/outbox.cif.g08.bks.cpg/sg15_120_cif.got.tgz:238756.got - 2010.06.03 18:47:42.
