data_PCOD9266359
_publ_section_title
;
Structure prediction by ZEFSAII (Michael W. Deem and Ramdas Pophale) SiO2 
 PCOD9266359
Probable space group: C 2/C
;
_chemical_formula_sum "Si O2"
_cell_formula_units_Z 60
_cell_length_a 9.459029
_cell_length_b 27.538929
_cell_length_c 21.270865
_cell_angle_alpha 90.000000
_cell_angle_beta 146.550423
_cell_angle_gamma 90.000000
_cell_volume 3054.149264
_symmetry_space_group_name_H-M "C 2/C"
_symmetry_group_IT_number 15
_symmetry_cell_setting 'monoclinic'
loop_
_space_group_symop_operation_xyz
x,y,z
-x,y,1/2-z
-x,-y,-z
x,-y,1/2+z
1/2+x,1/2+y,z
1/2-x,1/2+y,1/2-z
1/2-x,1/2-y,-z
1/2+x,1/2-y,1/2+z
loop_
_atom_site_type_symbol
_atom_site_label
_atom_site_fract_x
_atom_site_fract_y
_atom_site_fract_z
Si Si1 0.379863 0.073860 0.341313
Si Si2 0.447666 0.604958 0.105162
Si Si3 0.815515 0.834199 0.229433
Si Si4 0.309077 0.640759 0.865244
Si Si5 0.500000 0.507099 0.750000
Si Si6 0.739300 0.199746 0.958584
Si Si7 0.611690 0.445908 0.543688
Si Si8 0.399029 0.082472 0.943638
O O1 0.529696 0.093230 0.458114
O O2 0.601712 0.058783 0.375861
O O3 0.161090 0.111248 0.237832
O O4 0.203806 0.026918 0.290516
O O5 0.354632 0.656479 0.044152
O O6 0.594163 0.574136 0.107361
O O7 0.189057 0.574719 0.025191
O O8 0.918078 0.851783 0.335098
O O9 0.565032 0.806682 0.158440
O O10 0.718424 0.877187 0.146810
O O11 0.000000 0.805707 0.250000
O O12 0.348427 0.685829 0.929278
O O13 0.435725 0.592310 0.940032
O O14 0.000000 0.632965 0.750000
O O15 0.687077 0.540210 0.862001
O O16 0.750000 0.250000 0.000000
O O17 0.500000 0.500000 0.500000
#
# Coordination Sequence:
#
# PCOD9266359 Si02
#       8
#     8   8   8   8   4   8   8   8
#     4  12  24  39  56  83 127 163 217 261 316 381
#     4  10  22  42  60  86 125 164 208 267 321 383
#     4  10  19  37  63  91 121 153 209 259 316 372
#     4   9  20  40  64  90 126 166 206 261 319 380
#     4  12  24  36  60  82 126 166 226 260 310 360
#     4   9  20  41  67  91 123 160 207 257 332 398
#     4  11  24  37  57  89 126 167 221 257 319 381
#     4  11  22  39  59  85 116 169 212 262 309 369
#
# _framework density 19.645406000000001
#
# number of rings (size 3 to 8) (size 9 to 14) (size 15 to 20)
#    0.000    1.600    2.000    3.200    1.867    1.067 
#    0.000   11.333    0.000    0.000    0.000    0.000 
#    0.000    0.000    0.000    0.000    0.000    0.000 
#
# Total GULP energy -167032.033955 kJ/mol
# GULP energy per Si atom -5567.734465 kJ/mol
# Density = 1.960069 g / cm^3
# Si number density = 19.645406 Si / 1000 Ang^3
#
#
#
# Elastic Constant Matrix: (Units=GPa)
#
#
# Indices 1 2 3 4 5 6 
#
# 1 120.7380 19.7371 36.4967 0.0005 2.6020 0.0000
# 2 19.7371 72.6833 26.8309 0.0002 -7.9181 0.0001
# 3 36.4967 26.8309 123.7496 0.0020 -4.0668 0.0011
# 4 0.0005 0.0002 0.0020 16.1400 0.0007 0.2075
# 5 2.6020 -7.9181 -4.0668 0.0007 38.7282 0.0003
# 6 0.0000 0.0001 0.0011 0.2075 0.0003 9.3587
#
#
#
# Elastic Compliance Matrix: (Units=1/GPa)
#
#
# Indices 1 2 3 4 5 6 
#
# 1 0.009327 -0.001780 -0.002406 0.000000 -0.001243 0.000000
# 2 -0.001780 0.015588 -0.002755 0.000000 0.003017 0.000000
# 3 -0.002406 -0.002755 0.009407 -0.000001 0.000586 -0.000001
# 4 0.000000 0.000000 -0.000001 0.061976 -0.000001 -0.001374
# 5 -0.001243 0.003017 0.000586 -0.000001 0.026583 -0.000001
# 6 0.000000 0.000000 -0.000001 -0.001374 -0.000001 0.106883
#
#
# Mechanical properties :
#
#
# Convention : Reuss Voigt Hill
#
# Bulk Modulus (GPa) = 48.92559 53.70002 51.31280
# Shear Modulus (GPa) = 19.96329 28.45245 24.20787
#
# Velocity S-wave (km/s) = 3.19122 3.80978 3.51414
# Velocity P-wave (km/s) = 6.20781 6.83715 6.53006
#
# Compressibility (1/GPa) = 0.02043920
#
# Stress axis : x y z
#
# Youngs Moduli (GPa) = 107.21088 64.15350 106.30344
#
# Poissons Ratio (x) = 0.11421 0.25574
# Poissons Ratio (y) = 0.19086 0.29291
# Poissons Ratio (z) = 0.25792 0.17677
#
# Static dielectric constant tensor:
#      x y z
#    x 1.769680 0.000000 -0.045430 
#    y 0.000000 1.699550 0.000000 
#    z -0.045430 0.000000 1.765120 
# 
# From -- ./inp_files/234865.got.cif
#   From: 2010.05.17/outbox.cif.g08.bks.cpg/sg15_118_cif.got.tgz:234865.got - 2010.06.03 18:47:42.
