data_PCOD9266054
_publ_section_title
;
Structure prediction by ZEFSAII (Michael W. Deem and Ramdas Pophale) SiO2 
 PCOD9266054
Probable space group: C 2/C
;
_chemical_formula_sum "Si O2"
_cell_formula_units_Z 52
_cell_length_a 14.692178
_cell_length_b 8.564846
_cell_length_c 19.547590
_cell_angle_alpha 90.000000
_cell_angle_beta 56.254029
_cell_angle_gamma 90.000000
_cell_volume 2045.341108
_symmetry_space_group_name_H-M "C 2/C"
_symmetry_group_IT_number 15
_symmetry_cell_setting 'monoclinic'
loop_
_space_group_symop_operation_xyz
x,y,z
-x,y,1/2-z
-x,-y,-z
x,-y,1/2+z
1/2+x,1/2+y,z
1/2-x,1/2+y,1/2-z
1/2-x,1/2-y,-z
1/2+x,1/2-y,1/2+z
loop_
_atom_site_type_symbol
_atom_site_label
_atom_site_fract_x
_atom_site_fract_y
_atom_site_fract_z
Si Si1 0.898487 0.600970 0.924105
Si Si2 0.379501 0.750927 0.963974
Si Si3 0.797198 0.722153 0.644211
Si Si4 0.500000 0.906049 0.250000
Si Si5 0.221489 0.746946 0.415012
Si Si6 0.781370 0.468320 0.276989
Si Si7 0.105541 0.038616 0.660523
O O1 0.924875 0.419325 0.921650
O O2 0.973175 0.676104 0.833532
O O3 0.776616 0.623918 0.942330
O O4 0.886008 0.683865 0.002306
O O5 0.426605 0.607316 0.900600
O O6 0.250000 0.750000 0.000000
O O7 0.376326 0.750129 0.047320
O O8 0.820690 0.581531 0.685993
O O9 0.677145 0.675953 0.665857
O O10 0.790649 0.878874 0.690631
O O11 0.389599 0.994874 0.277676
O O12 0.217310 0.829026 0.343306
O O13 0.307033 0.602751 0.377541
O O14 0.000000 0.004030 0.750000
#
# Coordination Sequence:
#
# PCOD9266054 Si02
#       7
#     8   8   8   4   8   8   8
#     4  10  20  34  61  92 128 164 222 255 324 377
#     4  10  19  37  59  90 129 174 213 263 326 392
#     4  11  24  43  64  94 134 176 215 272 333 389
#     4  10  22  40  68 100 120 172 220 272 302 402
#     4  10  20  37  62  93 127 179 210 267 321 393
#     4  11  25  43  68  95 134 171 222 265 334 385
#     4  11  23  37  65  99 133 171 226 266 321 388
#
# _framework density 25.423632000000001
#
# number of rings (size 3 to 8) (size 9 to 14) (size 15 to 20)
#    0.000    1.538    3.077    4.615   10.769    0.000 
#    0.000    2.308    0.000    2.769    0.000    0.000 
#    0.000    0.000    0.000    0.000    0.000    0.000 
#
# Total GULP energy -145221.895587 kJ/mol
# GULP energy per Si atom -5585.457523 kJ/mol
# Density = 2.536577 g / cm^3
# Si number density = 25.423632 Si / 1000 Ang^3
#
#
#
# Elastic Constant Matrix: (Units=GPa)
#
#
# Indices 1 2 3 4 5 6 
#
# 1 54.2326 4.7724 29.0822 0.0000 5.1787 0.0000
# 2 4.7724 127.1171 61.2892 0.0000 10.2299 0.0000
# 3 29.0822 61.2892 192.1064 0.0000 9.8329 0.0000
# 4 0.0000 0.0000 0.0000 43.5920 0.0000 10.0851
# 5 5.1787 10.2299 9.8329 0.0000 32.4976 0.0000
# 6 0.0000 0.0000 0.0000 10.0851 0.0000 20.6601
#
#
#
# Elastic Compliance Matrix: (Units=1/GPa)
#
#
# Indices 1 2 3 4 5 6 
#
# 1 0.020351 0.001022 -0.003275 0.000000 -0.002574 0.000000
# 2 0.001022 0.009486 -0.003068 0.000000 -0.002221 0.000000
# 3 -0.003275 -0.003068 0.006708 0.000000 -0.000542 0.000000
# 4 0.000000 0.000000 0.000000 0.025861 0.000000 -0.012624
# 5 -0.002574 -0.002221 -0.000542 0.000000 0.032045 0.000000
# 6 0.000000 0.000000 0.000000 -0.012624 0.000000 0.054565
#
#
# Mechanical properties :
#
#
# Convention : Reuss Voigt Hill
#
# Bulk Modulus (GPa) = 38.60409 62.63821 50.62115
# Shear Modulus (GPa) = 29.71046 37.90408 33.80727
#
# Velocity S-wave (km/s) = 3.42221 3.86541 3.65054
# Velocity P-wave (km/s) = 5.55272 6.67930 6.14190
#
# Compressibility (1/GPa) = 0.02590399
#
# Stress axis : x y z
#
# Youngs Moduli (GPa) = 49.13688 105.41739 149.08296
#
# Poissons Ratio (x) = -0.10776 0.48829
# Poissons Ratio (y) = -0.05023 0.45731
# Poissons Ratio (z) = 0.16094 0.32337
#
# Static dielectric constant tensor:
#      x y z
#    x 2.079470 0.000000 0.038390 
#    y 0.000000 2.006670 0.000000 
#    z 0.038390 0.000000 2.053980 
# 
# From -- ./inp_files/247780.got.cif
#   From: 2010.05.17/outbox.cif.g08.bks.cpg/sg15_124_cif.got.tgz:247780.got - 2010.06.03 18:47:42.
