data_PCOD9266426
_publ_section_title
;
Structure prediction by ZEFSAII (Michael W. Deem and Ramdas Pophale) SiO2 
 PCOD9266426
Probable space group: C 2/C
;
_chemical_formula_sum "Si O2"
_cell_formula_units_Z 56
_cell_length_a 19.978969
_cell_length_b 8.995822
_cell_length_c 30.427949
_cell_angle_alpha 90.000000
_cell_angle_beta 30.241264
_cell_angle_gamma 90.000000
_cell_volume 2754.284326
_symmetry_space_group_name_H-M "C 2/C"
_symmetry_group_IT_number 15
_symmetry_cell_setting 'monoclinic'
loop_
_space_group_symop_operation_xyz
x,y,z
-x,y,1/2-z
-x,-y,-z
x,-y,1/2+z
1/2+x,1/2+y,z
1/2-x,1/2+y,1/2-z
1/2-x,1/2-y,-z
1/2+x,1/2-y,1/2+z
loop_
_atom_site_type_symbol
_atom_site_label
_atom_site_fract_x
_atom_site_fract_y
_atom_site_fract_z
Si Si1 0.537695 0.259671 0.681740
Si Si2 0.336386 0.723842 0.529088
Si Si3 0.624629 0.428630 0.955280
Si Si4 0.425833 0.078249 0.250398
Si Si5 0.949407 0.349832 0.552121
Si Si6 0.589859 0.246589 0.832417
Si Si7 0.165535 0.583869 0.286455
O O1 0.500000 0.326811 0.750000
O O2 0.695780 0.266313 0.588821
O O3 0.459641 0.320901 0.684427
O O4 0.492704 0.085609 0.708771
O O5 0.355510 0.545262 0.516253
O O6 0.350568 0.773806 0.572138
O O7 0.459188 0.793964 0.433856
O O8 0.769414 0.432312 0.850662
O O9 0.500000 0.500000 0.000000
O O10 0.573010 0.261511 0.990940
O O11 0.500000 0.151747 0.250000
O O12 0.427921 0.143791 0.199963
O O13 0.880593 0.378239 0.638044
O O14 0.000000 0.500000 0.500000
O O15 0.687625 0.352477 0.802916
O O16 0.666790 0.093520 0.780486
#
# Coordination Sequence:
#
# PCOD9266426 Si02
#       7
#     8   8   8   8   8   8   8
#     4  10  19  37  64  93 120 161 214 270 309 363
#     4  11  20  39  64  94 122 165 216 259 312 374
#     4  10  21  36  67  93 117 166 218 255 301 376
#     4  10  20  40  64  90 120 159 214 263 307 364
#     4  11  23  40  60  94 134 164 203 260 321 376
#     4  11  24  38  63  91 129 164 216 262 317 378
#     4  11  24  39  62  93 124 166 207 260 319 374
#
# _framework density 20.331959999999999
#
# number of rings (size 3 to 8) (size 9 to 14) (size 15 to 20)
#    0.000    1.429    4.286    3.000    8.000    0.000 
#    0.000    0.714    3.143    0.000    0.000    0.000 
#    0.000    0.000    0.000    0.000    0.000    0.000 
#
# Total GULP energy -156097.971391 kJ/mol
# GULP energy per Si atom -5574.927550 kJ/mol
# Density = 2.028568 g / cm^3
# Si number density = 20.331960 Si / 1000 Ang^3
#
#
#
# Elastic Constant Matrix: (Units=GPa)
#
#
# Indices 1 2 3 4 5 6 
#
# 1 156.0676 13.4125 36.5997 0.0000 1.6053 -0.0004
# 2 13.4125 49.4650 -0.4344 0.0001 -17.8712 -0.0002
# 3 36.5997 -0.4344 73.6860 -0.0004 -22.7242 -0.0001
# 4 0.0000 0.0001 -0.0004 13.4233 0.0000 -2.9263
# 5 1.6053 -17.8712 -22.7242 0.0000 37.6384 0.0001
# 6 -0.0004 -0.0002 -0.0001 -2.9263 0.0001 20.5376
#
#
#
# Elastic Compliance Matrix: (Units=1/GPa)
#
#
# Indices 1 2 3 4 5 6 
#
# 1 0.008272 -0.004512 -0.006027 0.000000 -0.006134 0.000000
# 2 -0.004512 0.028182 0.008102 0.000000 0.018465 0.000000
# 3 -0.006027 0.008102 0.021968 0.000001 0.017367 0.000000
# 4 0.000000 0.000000 0.000001 0.076885 0.000000 0.010955
# 5 -0.006134 0.018465 0.017367 0.000000 0.046083 0.000000
# 6 0.000000 0.000000 0.000000 0.010955 0.000000 0.050252
#
#
# Mechanical properties :
#
#
# Convention : Reuss Voigt Hill
#
# Bulk Modulus (GPa) = 18.67480 42.04158 30.35819
# Shear Modulus (GPa) = 19.65674 29.62925 24.64300
#
# Velocity S-wave (km/s) = 3.11270 3.82157 3.48520
# Velocity P-wave (km/s) = 4.70355 6.33995 5.58204
#
# Compressibility (1/GPa) = 0.05354810
#
# Stress axis : x y z
#
# Youngs Moduli (GPa) = 120.89491 35.48357 45.52039
#
# Poissons Ratio (x) = 0.16010 0.27434
# Poissons Ratio (y) = 0.54546 -0.36879
# Poissons Ratio (z) = 0.72860 -0.28747
#
# Static dielectric constant tensor:
#      x y z
#    x 1.773500 0.000000 0.042230 
#    y 0.000000 1.727000 0.000000 
#    z 0.042230 0.000000 1.768240 
# 
# From -- ./inp_files/317497.got.cif
#   From: 2010.05.17/outbox.cif.g08.bks.cpg/sg15_159_cif.got.tgz:317497.got - 2010.06.03 18:47:42.
