data_PCOD9266632
_publ_section_title
;
Structure prediction by ZEFSAII (Michael W. Deem and Ramdas Pophale) SiO2 
 PCOD9266632
Probable space group: C 2/C
;
_chemical_formula_sum "Si O2"
_cell_formula_units_Z 64
_cell_length_a 12.891246
_cell_length_b 11.883661
_cell_length_c 21.521462
_cell_angle_alpha 90.000000
_cell_angle_beta 99.434949
_cell_angle_gamma 90.000000
_cell_volume 3252.384175
_symmetry_space_group_name_H-M "C 2/C"
_symmetry_group_IT_number 15
_symmetry_cell_setting 'monoclinic'
loop_
_space_group_symop_operation_xyz
x,y,z
-x,y,1/2-z
-x,-y,-z
x,-y,1/2+z
1/2+x,1/2+y,z
1/2-x,1/2+y,1/2-z
1/2-x,1/2-y,-z
1/2+x,1/2-y,1/2+z
loop_
_atom_site_type_symbol
_atom_site_label
_atom_site_fract_x
_atom_site_fract_y
_atom_site_fract_z
Si Si1 0.108779 0.285611 0.545031
Si Si2 0.859575 0.207822 0.084979
Si Si3 0.618343 0.173941 0.236262
Si Si4 0.621888 0.005627 0.120051
Si Si5 0.007644 0.680869 0.681859
Si Si6 0.159342 0.101844 0.207517
Si Si7 0.140710 0.009786 0.842984
Si Si8 0.569659 0.377574 0.154097
O O1 0.085856 0.249304 0.472579
O O2 0.235274 0.285116 0.564812
O O3 0.081856 0.414580 0.560397
O O4 0.068057 0.193596 0.590339
O O5 0.889186 0.082086 0.107632
O O6 0.894278 0.281358 0.146963
O O7 0.500000 0.161347 0.250000
O O8 0.626751 0.093765 0.177336
O O9 0.719158 0.139994 0.287226
O O10 0.628653 0.299968 0.210505
O O11 0.740543 0.957766 0.127224
O O12 0.549485 0.906061 0.135792
O O13 0.083377 0.790374 0.692609
O O14 0.000000 0.631299 0.750000
O O15 0.142049 0.051230 0.275688
O O16 0.125875 0.999024 0.159523
O O17 0.050270 0.102349 0.835724
#
# Coordination Sequence:
#
# PCOD9266632 Si02
#       8
#     8   8   8   8   8   8   8   8
#     4   9  22  41  60  87 112 157 203 241 290 343
#     4  10  20  40  63  83 117 154 200 244 286 352
#     4  10  22  35  53  83 121 154 186 232 299 352
#     4   9  22  36  56  85 119 153 192 240 288 353
#     4  12  22  35  61  90 118 153 191 242 295 354
#     4  11  22  35  55  89 121 148 193 238 294 346
#     4  10  19  38  56  85 114 151 199 237 295 338
#     4  11  21  36  60  83 115 154 195 245 288 345
#
# _framework density 19.677872000000001
#
# number of rings (size 3 to 8) (size 9 to 14) (size 15 to 20)
#    0.000    1.750    2.500    2.250    5.250    2.000 
#    0.000    0.000    0.000    0.750    0.000    0.000 
#    0.000    0.000    0.000    0.000    0.000    0.000 
#
# Total GULP energy -178501.811397 kJ/mol
# GULP energy per Si atom -5578.181606 kJ/mol
# Density = 1.963308 g / cm^3
# Si number density = 19.677872 Si / 1000 Ang^3
#
#
#
# Elastic Constant Matrix: (Units=GPa)
#
#
# Indices 1 2 3 4 5 6 
#
# 1 65.5938 24.5706 7.0481 0.0000 -5.2635 0.0000
# 2 24.5706 75.2870 11.2639 0.0000 -6.2952 0.0000
# 3 7.0481 11.2639 67.1609 0.0000 -9.0211 0.0000
# 4 0.0000 0.0000 0.0000 22.7420 0.0000 -10.5056
# 5 -5.2635 -6.2952 -9.0211 0.0000 20.6835 0.0000
# 6 0.0000 0.0000 0.0000 -10.5056 0.0000 25.8062
#
#
#
# Elastic Compliance Matrix: (Units=1/GPa)
#
#
# Indices 1 2 3 4 5 6 
#
# 1 0.017546 -0.005424 -0.000588 0.000000 0.002558 0.000000
# 2 -0.005424 0.015523 -0.001684 0.000000 0.002610 0.000000
# 3 -0.000588 -0.001684 0.016087 0.000000 0.006354 0.000000
# 4 0.000000 0.000000 0.000000 0.054156 0.000000 0.022047
# 5 0.002558 0.002610 0.006354 0.000000 0.052564 0.000000
# 6 0.000000 0.000000 0.000000 0.022047 0.000000 0.047725
#
#
# Mechanical properties :
#
#
# Convention : Reuss Voigt Hill
#
# Bulk Modulus (GPa) = 29.61750 32.64520 31.13135
# Shear Modulus (GPa) = 21.71572 24.85696 23.28634
#
# Velocity S-wave (km/s) = 3.32559 3.55800 3.44376
# Velocity P-wave (km/s) = 5.46168 5.78835 5.62738
#
# Compressibility (1/GPa) = 0.03376383
#
# Stress axis : x y z
#
# Youngs Moduli (GPa) = 56.99416 64.42095 62.16110
#
# Poissons Ratio (x) = 0.34944 0.03655
# Poissons Ratio (y) = 0.30916 0.10465
# Poissons Ratio (z) = 0.03351 0.10846
#
# Static dielectric constant tensor:
#      x y z
#    x 1.710770 0.000000 -0.010770 
#    y 0.000000 1.717380 0.000000 
#    z -0.010770 0.000000 1.696560 
# 
# From -- ./inp_files/268895.got.cif
#   From: 2010.05.17/outbox.cif.g08.bks.cpg/sg15_135_cif.got.tgz:268895.got - 2010.06.03 18:47:42.
