data_PCOD9266738
_publ_section_title
;
Structure prediction by ZEFSAII (Michael W. Deem and Ramdas Pophale) SiO2 
 PCOD9266738
Probable space group: C 2/C
;
_chemical_formula_sum "Si O2"
_cell_formula_units_Z 48
_cell_length_a 14.540148
_cell_length_b 15.058315
_cell_length_c 12.512110
_cell_angle_alpha 90.000000
_cell_angle_beta 131.031360
_cell_angle_gamma 90.000000
_cell_volume 2066.564068
_symmetry_space_group_name_H-M "C 2/C"
_symmetry_group_IT_number 15
_symmetry_cell_setting 'monoclinic'
loop_
_space_group_symop_operation_xyz
x,y,z
-x,y,1/2-z
-x,-y,-z
x,-y,1/2+z
1/2+x,1/2+y,z
1/2-x,1/2+y,1/2-z
1/2-x,1/2-y,-z
1/2+x,1/2-y,1/2+z
loop_
_atom_site_type_symbol
_atom_site_label
_atom_site_fract_x
_atom_site_fract_y
_atom_site_fract_z
Si Si1 0.453805 0.006837 0.093125
Si Si2 0.561296 0.372034 0.405112
Si Si3 0.722187 0.965219 0.809747
Si Si4 0.183131 0.839169 0.160920
Si Si5 0.630301 0.160164 0.053756
Si Si6 0.872884 0.310892 0.479490
O O1 0.583559 0.028395 0.246633
O O2 0.365482 0.091237 0.022445
O O3 0.395055 0.909443 0.060563
O O4 0.500000 0.000000 0.000000
O O5 0.500000 0.405581 0.250000
O O6 0.671104 0.429205 0.534372
O O7 0.453290 0.365428 0.409179
O O8 0.609196 0.270915 0.427213
O O9 0.711186 0.897454 0.700241
O O10 0.752237 0.067610 0.809629
O O11 0.183754 0.758598 0.076358
O O12 0.256357 0.796908 0.316598
O O13 0.498682 0.183217 0.007108
#
# Coordination Sequence:
#
# PCOD9266738 Si02
#       6
#     8   8   8   8   8   8
#     4  11  22  37  62  88 113 147 197 243 283 328
#     4  11  25  36  55  93 122 146 184 239 298 334
#     4  11  21  40  60  83 117 156 192 232 280 349
#     4  11  21  38  63  82 115 157 195 227 278 350
#     4  10  20  38  61  84 111 154 198 229 279 347
#     4  10  19  38  60  86 114 152 189 233 284 347
#
# _framework density 23.226959999999998
#
# number of rings (size 3 to 8) (size 9 to 14) (size 15 to 20)
#    0.000    1.333    5.000    2.000    2.333    0.667 
#    0.000    1.667    0.000    0.000    0.000    0.000 
#    0.000    0.000    0.000    0.000    0.000    0.000 
#
# Total GULP energy -133886.275463 kJ/mol
# GULP energy per Si atom -5578.594811 kJ/mol
# Density = 2.317409 g / cm^3
# Si number density = 23.226960 Si / 1000 Ang^3
#
#
#
# Elastic Constant Matrix: (Units=GPa)
#
#
# Indices 1 2 3 4 5 6 
#
# 1 27.8881 -2.5905 -2.6664 0.0000 11.1134 0.0000
# 2 -2.5905 119.6411 19.5605 0.0000 -0.9090 0.0000
# 3 -2.6664 19.5605 141.4826 0.0000 4.8422 0.0000
# 4 0.0000 0.0000 0.0000 30.8281 0.0000 -11.2912
# 5 11.1134 -0.9090 4.8422 0.0000 19.9909 0.0000
# 6 0.0000 0.0000 0.0000 -11.2912 0.0000 -5.3843
#
#
#
# Elastic Compliance Matrix: (Units=1/GPa)
#
#
# Indices 1 2 3 4 5 6 
#
# 1 0.046533 0.000530 0.001702 0.000000 -0.026257 0.000000
# 2 0.000530 0.008567 -0.001188 0.000000 0.000383 0.000000
# 3 0.001702 -0.001188 0.007360 0.000000 -0.002783 0.000000
# 4 0.000000 0.000000 0.000000 0.018346 0.000000 -0.038474
# 5 -0.026257 0.000383 -0.002783 0.000000 0.065311 0.000000
# 6 0.000000 0.000000 0.000000 -0.038474 0.000000 -0.105044
#
#
# Mechanical properties :
#
#
# Convention : Reuss Voigt Hill
#
# Bulk Modulus (GPa) = 15.49222 35.29100 25.39161
# Shear Modulus (GPa) = 82.64429 27.40082 55.02256
#
# Velocity S-wave (km/s) = 5.97147 3.43840 4.87242
# Velocity P-wave (km/s) = 7.36403 5.56691 6.52761
#
# Compressibility (1/GPa) = 0.06454854
#
# Stress axis : x y z
#
# Youngs Moduli (GPa) = 21.49013 116.72891 135.87844
#
# Poissons Ratio (x) = -0.06184 -0.23131
# Poissons Ratio (y) = -0.01138 0.16136
# Poissons Ratio (z) = -0.03658 0.13862
#
# Static dielectric constant tensor:
#      x y z
#    x 2.154760 0.000000 -0.234140 
#    y 0.000000 1.798240 0.000000 
#    z -0.234140 0.000000 2.045990 
# 
# From -- ./inp_files/215409.got.cif
#   From: 2010.05.17/outbox.cif.g08.bks.cpg/sg15_108_cif.got.tgz:215409.got - 2010.06.03 18:47:42.
