data_PCOD9266739
_publ_section_title
;
Structure prediction by ZEFSAII (Michael W. Deem and Ramdas Pophale) SiO2 
 PCOD9266739
Probable space group: C 2/C
;
_chemical_formula_sum "Si O2"
_cell_formula_units_Z 36
_cell_length_a 8.974661
_cell_length_b 13.042310
_cell_length_c 13.602537
_cell_angle_alpha 90.000000
_cell_angle_beta 112.955507
_cell_angle_gamma 90.000000
_cell_volume 1466.093169
_symmetry_space_group_name_H-M "C 2/C"
_symmetry_group_IT_number 15
_symmetry_cell_setting 'monoclinic'
loop_
_space_group_symop_operation_xyz
x,y,z
-x,y,1/2-z
-x,-y,-z
x,-y,1/2+z
1/2+x,1/2+y,z
1/2-x,1/2+y,1/2-z
1/2-x,1/2-y,-z
1/2+x,1/2-y,1/2+z
loop_
_atom_site_type_symbol
_atom_site_label
_atom_site_fract_x
_atom_site_fract_y
_atom_site_fract_z
Si Si1 0.381134 0.152445 0.628367
Si Si2 0.189173 0.054179 0.091690
Si Si3 0.153702 0.341040 0.593780
Si Si4 0.603397 0.483243 0.365127
Si Si5 0.500000 0.828485 0.750000
O O1 0.500000 0.136894 0.750000
O O2 0.245356 0.064460 0.599452
O O3 0.299637 0.262542 0.615186
O O4 0.446813 0.146397 0.533380
O O5 0.338892 0.110448 0.177734
O O6 0.157742 0.085979 0.970759
O O7 0.029035 0.058164 0.116398
O O8 0.242831 0.451118 0.633402
O O9 0.055784 0.290712 0.657626
O O10 0.500000 0.434432 0.250000
#
# Coordination Sequence:
#
# PCOD9266739 Si02
#       5
#     8   8   8   8   4
#     4  10  21  41  62  87 116 163 199 248 292 363
#     4  10  22  35  62  91 118 147 206 244 296 344
#     4  10  23  39  64  84 123 160 200 238 311 349
#     4  10  19  38  60  86 116 163 190 240 294 363
#     4  12  22  40  58  98 118 156 200 256 288 362
#
# _framework density 24.555057000000001
#
# number of rings (size 3 to 8) (size 9 to 14) (size 15 to 20)
#    0.000    1.778    3.333    0.667    0.000    5.333 
#    2.000    1.111    0.000    0.000    0.000    0.000 
#    0.000    0.000    0.000    0.000    0.000    0.000 
#
# Total GULP energy -100450.853834 kJ/mol
# GULP energy per Si atom -5580.602991 kJ/mol
# Density = 2.449917 g / cm^3
# Si number density = 24.555057 Si / 1000 Ang^3
#
#
#
# Elastic Constant Matrix: (Units=GPa)
#
#
# Indices 1 2 3 4 5 6 
#
# 1 78.2776 5.2422 53.8647 0.0000 -15.1932 0.0000
# 2 5.2422 25.2563 7.6469 0.0000 -1.0408 0.0000
# 3 53.8647 7.6469 240.3359 0.0000 4.4504 0.0000
# 4 0.0000 0.0000 0.0000 15.9247 0.0000 -1.4034
# 5 -15.1932 -1.0408 4.4504 0.0000 53.8803 0.0000
# 6 0.0000 0.0000 0.0000 -1.4034 0.0000 11.0802
#
#
#
# Elastic Compliance Matrix: (Units=1/GPa)
#
#
# Indices 1 2 3 4 5 6 
#
# 1 0.016412 -0.002084 -0.003703 0.000000 0.004894 0.000000
# 2 -0.002084 0.040285 -0.000820 0.000000 0.000258 0.000000
# 3 -0.003703 -0.000820 0.005044 0.000000 -0.001477 0.000000
# 4 0.000000 0.000000 0.000000 0.063504 0.000000 0.008044
# 5 0.004894 0.000258 -0.001477 0.000000 0.020066 0.000000
# 6 0.000000 0.000000 0.000000 0.008044 0.000000 0.091270
#
#
# Mechanical properties :
#
#
# Convention : Reuss Voigt Hill
#
# Bulk Modulus (GPa) = 20.60594 53.04195 36.82395
# Shear Modulus (GPa) = 18.79903 34.65144 26.72523
#
# Velocity S-wave (km/s) = 2.76993 3.76063 3.30264
# Velocity P-wave (km/s) = 4.31740 6.36432 5.43804
#
# Compressibility (1/GPa) = 0.04852969
#
# Stress axis : x y z
#
# Youngs Moduli (GPa) = 60.92994 24.82291 198.25095
#
# Poissons Ratio (x) = 0.05173 0.73406
# Poissons Ratio (y) = 0.12697 0.16247
# Poissons Ratio (z) = 0.22560 0.02034
#
# Static dielectric constant tensor:
#      x y z
#    x 1.912160 0.000000 -0.062250 
#    y 0.000000 1.908030 0.000000 
#    z -0.062250 0.000000 2.068470 
# 
# From -- ./inp_files/76457.got.cif
#   From: 2010.05.17/outbox.cif.g08.bks.cpg/sg15_39_cif.got.tgz:76457.got - 2010.06.03 18:47:42.
