data_PCOD9266887
_publ_section_title
;
Structure prediction by ZEFSAII (Michael W. Deem and Ramdas Pophale) SiO2 
 PCOD9266887
Probable space group: C 2/C
;
_chemical_formula_sum "Si O2"
_cell_formula_units_Z 52
_cell_length_a 20.340616
_cell_length_b 8.767890
_cell_length_c 17.556881
_cell_angle_alpha 90.000000
_cell_angle_beta 41.545611
_cell_angle_gamma 90.000000
_cell_volume 2076.641789
_symmetry_space_group_name_H-M "C 2/C"
_symmetry_group_IT_number 15
_symmetry_cell_setting 'monoclinic'
loop_
_space_group_symop_operation_xyz
x,y,z
-x,y,1/2-z
-x,-y,-z
x,-y,1/2+z
1/2+x,1/2+y,z
1/2-x,1/2+y,1/2-z
1/2-x,1/2-y,-z
1/2+x,1/2-y,1/2+z
loop_
_atom_site_type_symbol
_atom_site_label
_atom_site_fract_x
_atom_site_fract_y
_atom_site_fract_z
Si Si1 0.392071 0.234108 0.092685
Si Si2 0.638796 0.005688 0.188508
Si Si3 0.774348 0.956609 0.690922
Si Si4 0.500000 0.529515 0.750000
Si Si5 0.535217 0.773523 0.602354
Si Si6 0.633699 0.668020 0.245853
Si Si7 0.653615 0.943251 0.998511
O O1 0.314579 0.372130 0.158829
O O2 0.478816 0.278845 0.074874
O O3 0.331032 0.089217 0.179272
O O4 0.415340 0.177834 0.987322
O O5 0.742813 0.073561 0.130774
O O6 0.622919 0.846992 0.245318
O O7 0.549920 0.121430 0.283282
O O8 0.643096 0.953599 0.097806
O O9 0.853599 0.871980 0.675986
O O10 0.561089 0.643401 0.640909
O O11 0.444169 0.425421 0.737038
O O12 0.623063 0.885726 0.501937
O O13 0.737138 0.610231 0.118290
#
# Coordination Sequence:
#
# PCOD9266887 Si02
#       7
#     8   8   8   4   8   8   8
#     4  10  21  38  66  91 129 165 215 263 314 382
#     4  11  22  42  69  92 127 173 214 254 324 389
#     4  10  19  38  62  91 122 168 207 258 316 374
#     4  12  24  42  64  92 130 164 212 266 318 384
#     4  11  23  42  66  92 128 175 210 258 329 383
#     4  11  25  40  66  95 129 164 217 265 318 375
#     4  11  22  41  68  97 123 169 218 265 310 383
#
# _framework density 25.040431000000002
#
# number of rings (size 3 to 8) (size 9 to 14) (size 15 to 20)
#    0.000    1.231    6.154    0.923    2.154    0.615 
#    0.000    0.000    3.385    2.769    0.000    0.000 
#    0.000    0.000    0.000    0.000    0.000    0.000 
#
# Total GULP energy -145215.627232 kJ/mol
# GULP energy per Si atom -5585.216432 kJ/mol
# Density = 2.498344 g / cm^3
# Si number density = 25.040431 Si / 1000 Ang^3
#
#
#
# Elastic Constant Matrix: (Units=GPa)
#
#
# Indices 1 2 3 4 5 6 
#
# 1 143.8111 30.2957 21.7778 -0.0001 40.6816 0.0003
# 2 30.2957 63.1769 13.3855 -0.0002 -3.8517 0.0010
# 3 21.7778 13.3855 89.2936 0.0000 7.0256 0.0003
# 4 -0.0001 -0.0002 0.0000 19.0544 0.0000 -5.2440
# 5 40.6816 -3.8517 7.0256 0.0000 37.1234 -0.0001
# 6 0.0003 0.0010 0.0003 -5.2440 -0.0001 36.3063
#
#
#
# Elastic Compliance Matrix: (Units=1/GPa)
#
#
# Indices 1 2 3 4 5 6 
#
# 1 0.012534 -0.006682 -0.000934 0.000000 -0.014252 0.000000
# 2 -0.006682 0.020087 -0.002154 0.000000 0.009814 0.000000
# 3 -0.000934 -0.002154 0.011863 0.000000 -0.001445 0.000000
# 4 0.000000 0.000000 0.000000 0.054654 0.000000 0.007894
# 5 -0.014252 0.009814 -0.001445 0.000000 0.043847 0.000000
# 6 0.000000 0.000000 0.000000 0.007894 0.000000 0.028684
#
#
# Mechanical properties :
#
#
# Convention : Reuss Voigt Hill
#
# Bulk Modulus (GPa) = 40.08641 47.46664 43.77652
# Shear Modulus (GPa) = 25.05971 33.88501 29.47236
#
# Velocity S-wave (km/s) = 3.16693 3.68259 3.43445
# Velocity P-wave (km/s) = 5.42365 6.08926 5.76607
#
# Compressibility (1/GPa) = 0.02494611
#
# Stress axis : x y z
#
# Youngs Moduli (GPa) = 79.78139 49.78265 84.29318
#
# Poissons Ratio (x) = 0.33263 0.07873
# Poissons Ratio (y) = 0.53307 0.18155
# Poissons Ratio (z) = 0.07452 0.10722
#
# Static dielectric constant tensor:
#      x y z
#    x 2.081630 0.000000 0.027420 
#    y 0.000000 1.960080 0.000000 
#    z 0.027420 0.000000 2.062250 
# 
# From -- ./inp_files/214230.got.cif
#   From: 2010.05.17/outbox.cif.g08.bks.cpg/sg15_108_cif.got.tgz:214230.got - 2010.06.03 18:47:42.
