data_PCOD9266723
_publ_section_title
;
Structure prediction by ZEFSAII (Michael W. Deem and Ramdas Pophale) SiO2 
 PCOD9266723
Probable space group: C 2/C
;
_chemical_formula_sum "Si O2"
_cell_formula_units_Z 40
_cell_length_a 11.932620
_cell_length_b 7.208561
_cell_length_c 18.242075
_cell_angle_alpha 90.000000
_cell_angle_beta 111.208781
_cell_angle_gamma 90.000000
_cell_volume 1462.849254
_symmetry_space_group_name_H-M "C 2/C"
_symmetry_group_IT_number 15
_symmetry_cell_setting 'monoclinic'
loop_
_space_group_symop_operation_xyz
x,y,z
-x,y,1/2-z
-x,-y,-z
x,-y,1/2+z
1/2+x,1/2+y,z
1/2-x,1/2+y,1/2-z
1/2-x,1/2-y,-z
1/2+x,1/2-y,1/2+z
loop_
_atom_site_type_symbol
_atom_site_label
_atom_site_fract_x
_atom_site_fract_y
_atom_site_fract_z
Si Si1 0.957723 0.256405 0.820518
Si Si2 0.519379 0.392519 0.895945
Si Si3 0.351409 0.038783 0.603600
Si Si4 0.777903 0.792617 0.808624
Si Si5 0.883387 0.632726 0.964315
O O1 0.000000 0.201743 0.750000
O O2 0.015440 0.455732 0.849442
O O3 0.184435 0.260186 0.722036
O O4 0.021781 0.112009 0.889378
O O5 0.410365 0.344004 0.813138
O O6 0.453574 0.320389 0.954524
O O7 0.630800 0.256814 0.906524
O O8 0.275211 0.959317 0.652889
O O9 0.311931 0.929728 0.520272
O O10 0.794678 0.626455 0.872438
O O11 0.000000 0.500000 0.000000
#
# Coordination Sequence:
#
# PCOD9266723 Si02
#       5
#     8   8   8   8   8
#     4  10  22  37  54  83 116 149 196 246 288 362
#     4   9  21  35  55  85 112 148 199 238 300 353
#     4  10  19  38  60  80 119 154 193 248 300 350
#     4   9  20  35  59  85 113 158 194 238 306 347
#     4   8  17  34  61  84 111 156 195 242 295 360
#
# _framework density 27.343896999999998
#
# number of rings (size 3 to 8) (size 9 to 14) (size 15 to 20)
#    1.200    1.600    0.000    0.600    2.800    3.200 
#    0.000    0.000    0.000   10.800    0.000    0.000 
#    0.000    0.000    0.000    0.000    0.000    0.000 
#
# Total GULP energy -111442.081092 kJ/mol
# GULP energy per Si atom -5572.104055 kJ/mol
# Density = 2.728166 g / cm^3
# Si number density = 27.343897 Si / 1000 Ang^3
#
#
#
# Elastic Constant Matrix: (Units=GPa)
#
#
# Indices 1 2 3 4 5 6 
#
# 1 60.2198 31.3787 16.3155 0.0000 7.4985 0.0000
# 2 31.3787 100.1758 34.8849 0.0000 -7.8574 0.0000
# 3 16.3155 34.8849 96.0602 0.0000 3.1588 0.0000
# 4 0.0000 0.0000 0.0000 30.8941 0.0000 -7.0305
# 5 7.4985 -7.8574 3.1588 0.0000 51.8234 0.0000
# 6 0.0000 0.0000 0.0000 -7.0305 0.0000 27.0496
#
#
#
# Elastic Compliance Matrix: (Units=1/GPa)
#
#
# Indices 1 2 3 4 5 6 
#
# 1 0.020731 -0.006432 -0.001056 0.000000 -0.003910 0.000000
# 2 -0.006432 0.013632 -0.003965 0.000000 0.003239 0.000000
# 3 -0.001056 -0.003965 0.012068 0.000000 -0.001184 0.000000
# 4 0.000000 0.000000 0.000000 0.034404 0.000000 0.008942
# 5 -0.003910 0.003239 -0.001184 0.000000 0.020425 0.000000
# 6 0.000000 0.000000 0.000000 0.008942 0.000000 0.039293
#
#
# Mechanical properties :
#
#
# Convention : Reuss Voigt Hill
#
# Bulk Modulus (GPa) = 42.50960 46.84599 44.67780
# Shear Modulus (GPa) = 29.18833 33.54521 31.36677
#
# Velocity S-wave (km/s) = 3.27073 3.50636 3.39059
# Velocity P-wave (km/s) = 5.46293 5.79328 5.63053
#
# Compressibility (1/GPa) = 0.02352410
#
# Stress axis : x y z
#
# Youngs Moduli (GPa) = 48.23751 73.35680 82.86203
#
# Poissons Ratio (x) = 0.47186 0.08754
# Poissons Ratio (y) = 0.31029 0.32851
# Poissons Ratio (z) = 0.05096 0.29083
#
# Static dielectric constant tensor:
#      x y z
#    x 2.194840 0.000000 0.025010 
#    y 0.000000 2.195140 0.000000 
#    z 0.025010 0.000000 2.285400 
# 
# From -- ./inp_files/241795.got.cif
#   From: 2010.05.17/outbox.cif.g08.bks.cpg/sg15_121_cif.got.tgz:241795.got - 2010.06.03 18:47:42.
