data_PCOD9266411
_publ_section_title
;
Structure prediction by ZEFSAII (Michael W. Deem and Ramdas Pophale) SiO2 
 PCOD9266411
Probable space group: C 2/C
;
_chemical_formula_sum "Si O2"
_cell_formula_units_Z 52
_cell_length_a 9.052832
_cell_length_b 18.116304
_cell_length_c 21.624566
_cell_angle_alpha 90.000000
_cell_angle_beta 42.093640
_cell_angle_gamma 90.000000
_cell_volume 2377.384087
_symmetry_space_group_name_H-M "C 2/C"
_symmetry_group_IT_number 15
_symmetry_cell_setting 'monoclinic'
loop_
_space_group_symop_operation_xyz
x,y,z
-x,y,1/2-z
-x,-y,-z
x,-y,1/2+z
1/2+x,1/2+y,z
1/2-x,1/2+y,1/2-z
1/2-x,1/2-y,-z
1/2+x,1/2-y,1/2+z
loop_
_atom_site_type_symbol
_atom_site_label
_atom_site_fract_x
_atom_site_fract_y
_atom_site_fract_z
Si Si1 0.496773 0.174336 0.929366
Si Si2 0.979627 0.220208 0.961252
Si Si3 0.709503 0.578418 0.423766
Si Si4 0.090342 0.925128 0.160474
Si Si5 0.500000 0.183002 0.250000
Si Si6 0.294312 0.466368 0.980322
Si Si7 0.254694 0.702423 0.737847
O O1 0.722687 0.133465 0.878904
O O2 0.526620 0.190647 0.846544
O O3 0.478832 0.239979 0.985297
O O4 0.308014 0.113649 0.996224
O O5 0.182838 0.230235 0.850331
O O6 0.750000 0.250000 0.000000
O O7 0.931016 0.134173 0.989563
O O8 0.867875 0.630883 0.336858
O O9 0.822520 0.515865 0.430437
O O10 0.542380 0.541295 0.428038
O O11 0.000000 0.963249 0.250000
O O12 0.889759 0.874827 0.198024
O O13 0.196719 0.984406 0.082950
O O14 0.640694 0.236878 0.249082
#
# Coordination Sequence:
#
# PCOD9266411 Si02
#       7
#     8   8   8   8   4   8   8
#     4  11  22  39  67  96 125 166 217 273 319 384
#     4  12  19  38  69  92 117 167 218 260 316 377
#     4  11  24  42  66  87 126 170 216 265 321 404
#     4  10  19  37  64  90 125 166 206 261 317 382
#     4  12  20  40  68  94 112 168 224 268 308 386
#     4  11  25  43  58  93 137 171 207 264 342 388
#     4  11  19  37  67  94 121 157 223 271 307 375
#
# _framework density 21.872781
#
# number of rings (size 3 to 8) (size 9 to 14) (size 15 to 20)
#    0.000    0.923    8.462    0.462    0.000    3.077 
#    2.769    0.000    0.000    0.000    0.000    0.000 
#    0.000    0.000    0.000    0.000    0.000    0.000 
#
# Total GULP energy -145121.376879 kJ/mol
# GULP energy per Si atom -5581.591418 kJ/mol
# Density = 2.182300 g / cm^3
# Si number density = 21.872781 Si / 1000 Ang^3
#
#
#
# Elastic Constant Matrix: (Units=GPa)
#
#
# Indices 1 2 3 4 5 6 
#
# 1 38.0204 15.9836 19.5235 0.0017 12.8028 0.0015
# 2 15.9836 74.2242 19.2453 -0.0045 1.1150 -0.0005
# 3 19.5235 19.2453 111.9871 -0.0117 22.7007 -0.0005
# 4 0.0017 -0.0045 -0.0117 34.2419 0.0057 3.4566
# 5 12.8028 1.1150 22.7007 0.0057 15.7725 -0.0019
# 6 0.0015 -0.0005 -0.0005 3.4566 -0.0019 26.1275
#
#
#
# Elastic Compliance Matrix: (Units=1/GPa)
#
#
# Indices 1 2 3 4 5 6 
#
# 1 0.040851 -0.008630 0.001354 0.000004 -0.034498 -0.000005
# 2 -0.008630 0.016064 -0.003453 -0.000001 0.010840 0.000002
# 3 0.001354 -0.003453 0.013357 0.000008 -0.020080 -0.000002
# 4 0.000004 -0.000001 0.000008 0.029599 -0.000025 -0.003916
# 5 -0.034498 0.010840 -0.020080 -0.000025 0.119538 0.000014
# 6 -0.000005 0.000002 -0.000002 -0.003916 0.000014 0.038792
#
#
# Mechanical properties :
#
#
# Convention : Reuss Voigt Hill
#
# Bulk Modulus (GPa) = 20.48586 37.08185 28.78386
# Shear Modulus (GPa) = 16.89588 26.52701 21.71144
#
# Velocity S-wave (km/s) = 2.78233 3.48629 3.15401
# Velocity P-wave (km/s) = 4.43938 5.76158 5.14315
#
# Compressibility (1/GPa) = 0.04881416
#
# Stress axis : x y z
#
# Youngs Moduli (GPa) = 24.47921 62.25235 74.86545
#
# Poissons Ratio (x) = 0.53723 -0.10139
# Poissons Ratio (y) = 0.21125 0.25854
# Poissons Ratio (z) = -0.03315 0.21498
#
# Static dielectric constant tensor:
#      x y z
#    x 1.861380 0.000010 0.018320 
#    y 0.000010 1.786540 0.000000 
#    z 0.018320 0.000000 1.867070 
# 
# From -- ./inp_files/233010.got.cif
#   From: 2010.05.17/outbox.cif.g08.bks.cpg/sg15_117_cif.got.tgz:233010.got - 2010.06.03 18:47:42.
