data_PCOD9266476
_publ_section_title
;
Structure prediction by ZEFSAII (Michael W. Deem and Ramdas Pophale) SiO2 
 PCOD9266476
Probable space group: C 2/C
;
_chemical_formula_sum "Si O2"
_cell_formula_units_Z 56
_cell_length_a 12.375900
_cell_length_b 13.989483
_cell_length_c 18.541534
_cell_angle_alpha 90.000000
_cell_angle_beta 47.256599
_cell_angle_gamma 90.000000
_cell_volume 2357.529802
_symmetry_space_group_name_H-M "C 2/C"
_symmetry_group_IT_number 15
_symmetry_cell_setting 'monoclinic'
loop_
_space_group_symop_operation_xyz
x,y,z
-x,y,1/2-z
-x,-y,-z
x,-y,1/2+z
1/2+x,1/2+y,z
1/2-x,1/2+y,1/2-z
1/2-x,1/2-y,-z
1/2+x,1/2-y,1/2+z
loop_
_atom_site_type_symbol
_atom_site_label
_atom_site_fract_x
_atom_site_fract_y
_atom_site_fract_z
Si Si1 0.114028 0.297908 0.522957
Si Si2 0.960689 0.247772 0.456785
Si Si3 0.168140 0.389982 0.781086
Si Si4 0.174906 0.475065 0.159343
Si Si5 0.169994 0.528132 0.902618
Si Si6 0.212965 0.098882 0.039633
Si Si7 0.365248 0.220583 0.755198
O O1 0.250000 0.250000 0.500000
O O2 0.181859 0.369905 0.433108
O O3 0.019843 0.233794 0.509963
O O4 0.998081 0.349559 0.630023
O O5 0.926621 0.148964 0.432061
O O6 0.815008 0.313683 0.522172
O O7 0.061215 0.305956 0.354701
O O8 0.217193 0.425070 0.679299
O O9 0.181815 0.490478 0.816960
O O10 0.266614 0.310333 0.776065
O O11 0.214753 0.462761 0.057638
O O12 0.218602 0.371167 0.173628
O O13 0.000000 0.474215 0.250000
O O14 0.293767 0.468341 0.889310
O O15 0.000000 0.500000 0.000000
O O16 0.500000 0.243217 0.750000
#
# Coordination Sequence:
#
# PCOD9266476 Si02
#       7
#     8   8   8   8   8   8   8
#     4  11  24  42  66  93 127 176 226 262 329 401
#     4  11  21  38  64  93 127 165 214 268 317 381
#     4  11  23  41  63  91 134 169 214 277 329 380
#     4  11  21  36  62  96 122 165 221 270 316 385
#     4  10  19  37  65  90 121 175 220 253 319 400
#     4  11  20  37  65  95 124 161 218 272 312 370
#     4  11  22  38  63  97 128 168 220 270 329 386
#
# _framework density 23.753675999999999
#
# number of rings (size 3 to 8) (size 9 to 14) (size 15 to 20)
#    0.000    1.143    5.714    4.286    0.000    2.286 
#    0.000    7.143    0.000    0.000    0.000    0.000 
#    0.000    0.000    0.000    0.000    0.000    0.000 
#
# Total GULP energy -156203.437691 kJ/mol
# GULP energy per Si atom -5578.694203 kJ/mol
# Density = 2.369961 g / cm^3
# Si number density = 23.753676 Si / 1000 Ang^3
#
#
#
# Elastic Constant Matrix: (Units=GPa)
#
#
# Indices 1 2 3 4 5 6 
#
# 1 146.5103 66.2273 28.7972 0.0000 20.7053 0.0000
# 2 66.2273 85.2809 0.3068 0.0000 -1.8325 0.0000
# 3 28.7972 0.3068 43.9390 0.0000 13.6265 0.0000
# 4 0.0000 0.0000 0.0000 28.3739 0.0000 10.3744
# 5 20.7053 -1.8325 13.6265 0.0000 27.0967 0.0000
# 6 0.0000 0.0000 0.0000 10.3744 0.0000 44.8290
#
#
#
# Elastic Compliance Matrix: (Units=1/GPa)
#
#
# Indices 1 2 3 4 5 6 
#
# 1 0.014534 -0.011443 -0.006826 0.000000 -0.008447 0.000000
# 2 -0.011443 0.020759 0.004985 0.000000 0.007641 0.000000
# 3 -0.006826 0.004985 0.030183 0.000000 -0.009626 0.000000
# 4 0.000000 0.000000 0.000000 0.038501 0.000000 -0.008910
# 5 -0.008447 0.007641 -0.009626 0.000000 0.048717 0.000000
# 6 0.000000 0.000000 0.000000 -0.008910 0.000000 0.024369
#
#
# Mechanical properties :
#
#
# Convention : Reuss Voigt Hill
#
# Bulk Modulus (GPa) = 25.70203 51.82141 38.76172
# Shear Modulus (GPa) = 23.08413 32.08653 27.58533
#
# Velocity S-wave (km/s) = 3.12077 3.67931 3.41149
# Velocity P-wave (km/s) = 4.88153 6.31770 5.64547
#
# Compressibility (1/GPa) = 0.03890743
#
# Stress axis : x y z
#
# Youngs Moduli (GPa) = 68.80599 48.17200 33.13166
#
# Poissons Ratio (x) = 0.55125 0.22615
# Poissons Ratio (y) = 0.78738 -0.16517
# Poissons Ratio (z) = 0.46965 -0.24015
#
# Static dielectric constant tensor:
#      x y z
#    x 2.179000 0.000000 0.082960 
#    y 0.000000 2.054760 0.000000 
#    z 0.082960 0.000000 2.002420 
# 
# From -- ./inp_files/198233.got.cif
#   From: 2010.05.17/outbox.cif.g08.bks.cpg/sg15_100_cif.got.tgz:198233.got - 2010.06.03 18:47:42.
