data_PCOD9266357
_publ_section_title
;
Structure prediction by ZEFSAII (Michael W. Deem and Ramdas Pophale) SiO2 
 PCOD9266357
Probable space group: C 2/C
;
_chemical_formula_sum "Si O2"
_cell_formula_units_Z 60
_cell_length_a 16.319897
_cell_length_b 11.420521
_cell_length_c 25.103923
_cell_angle_alpha 90.000000
_cell_angle_beta 44.358106
_cell_angle_gamma 90.000000
_cell_volume 3271.218351
_symmetry_space_group_name_H-M "C 2/C"
_symmetry_group_IT_number 15
_symmetry_cell_setting 'monoclinic'
loop_
_space_group_symop_operation_xyz
x,y,z
-x,y,1/2-z
-x,-y,-z
x,-y,1/2+z
1/2+x,1/2+y,z
1/2-x,1/2+y,1/2-z
1/2-x,1/2-y,-z
1/2+x,1/2-y,1/2+z
loop_
_atom_site_type_symbol
_atom_site_label
_atom_site_fract_x
_atom_site_fract_y
_atom_site_fract_z
Si Si1 0.835362 0.069650 0.657691
Si Si2 0.547455 0.292756 0.011589
Si Si3 0.913122 0.397651 0.184151
Si Si4 0.437926 0.975609 0.973320
Si Si5 0.765995 0.538294 0.399148
Si Si6 0.000000 0.479554 0.750000
Si Si7 0.241237 0.110447 0.010539
Si Si8 0.014736 0.844829 0.900901
O O1 0.728404 0.104421 0.745587
O O2 0.943636 0.156810 0.597052
O O3 0.782128 0.047690 0.623852
O O4 0.885378 0.942496 0.649893
O O5 0.581668 0.163508 0.015112
O O6 0.663390 0.372406 0.960575
O O7 0.507282 0.306427 0.967395
O O8 0.957478 0.270671 0.145466
O O9 0.969112 0.486398 0.115231
O O10 0.959101 0.439357 0.220165
O O11 0.500000 0.000000 0.000000
O O12 0.319505 0.054044 0.021086
O O13 0.794921 0.458476 0.435792
O O14 0.886383 0.592574 0.321299
O O15 0.102077 0.094600 0.068242
O O16 0.250000 0.250000 0.000000
#
# Coordination Sequence:
#
# PCOD9266357 Si02
#       8
#     8   8   8   8   8   4   8   8
#     4  10  22  37  65  92 125 167 212 261 318 382
#     4  11  21  40  65  92 125 165 217 258 312 394
#     4  11  23  39  62  93 128 163 214 268 320 376
#     4  12  25  40  61  95 127 166 210 264 330 373
#     4  10  19  37  63  91 118 164 214 256 312 383
#     4  10  20  40  58  94 124 162 214 264 318 366
#     4  12  20  37  63  89 121 160 214 265 306 373
#     4  11  20  42  64  92 123 170 216 263 317 387
#
# _framework density 18.34179
#
# number of rings (size 3 to 8) (size 9 to 14) (size 15 to 20)
#    0.000    1.067    6.667    0.800    1.867    0.533 
#    0.000    0.000    0.000    0.000    0.000    0.000 
#    0.000    0.000    0.000    0.000    0.000    0.000 
#
# Total GULP energy -167151.670422 kJ/mol
# GULP energy per Si atom -5571.722347 kJ/mol
# Density = 1.830004 g / cm^3
# Si number density = 18.341790 Si / 1000 Ang^3
#
#
#
# Elastic Constant Matrix: (Units=GPa)
#
#
# Indices 1 2 3 4 5 6 
#
# 1 103.8686 34.4881 43.3791 0.0000 -5.7126 0.0000
# 2 34.4881 92.8187 45.2150 0.0000 -4.0853 0.0000
# 3 43.3791 45.2150 123.2361 0.0000 -24.1476 0.0000
# 4 0.0000 0.0000 0.0000 14.1506 0.0000 -2.8913
# 5 -5.7126 -4.0853 -24.1476 0.0000 35.9886 0.0000
# 6 0.0000 0.0000 0.0000 -2.8913 0.0000 21.4001
#
#
#
# Elastic Compliance Matrix: (Units=1/GPa)
#
#
# Indices 1 2 3 4 5 6 
#
# 1 0.011906 -0.002862 -0.003263 0.000000 -0.000625 0.000000
# 2 -0.002862 0.013933 -0.004472 0.000000 -0.001873 0.000000
# 3 -0.003263 -0.004472 0.012323 0.000000 0.007243 0.000000
# 4 0.000000 0.000000 0.000000 0.072674 0.000000 0.009819
# 5 -0.000625 -0.001873 0.007243 0.000000 0.032335 0.000000
# 6 0.000000 0.000000 0.000000 0.009819 0.000000 0.048055
#
#
# Mechanical properties :
#
#
# Convention : Reuss Voigt Hill
#
# Bulk Modulus (GPa) = 58.93213 62.89863 60.91538
# Shear Modulus (GPa) = 22.92776 27.43062 25.17919
#
# Velocity S-wave (km/s) = 3.53941 3.87140 3.70912
# Velocity P-wave (km/s) = 6.99306 7.37229 7.18518
#
# Compressibility (1/GPa) = 0.01696867
#
# Stress axis : x y z
#
# Youngs Moduli (GPa) = 83.98897 71.77301 81.14856
#
# Poissons Ratio (x) = 0.20539 0.26483
# Poissons Ratio (y) = 0.24035 0.36286
# Poissons Ratio (z) = 0.27410 0.32094
#
# Static dielectric constant tensor:
#      x y z
#    x 1.555970 0.000000 -0.159750 
#    y 0.000000 1.679130 0.000000 
#    z -0.159750 0.000000 1.530850 
# 
# From -- ./inp_files/273848.got.cif
#   From: 2010.05.17/outbox.cif.g08.bks.cpg/sg15_137_cif.got.tgz:273848.got - 2010.06.03 18:47:42.
