data_PCOD9266885
_publ_section_title
;
Structure prediction by ZEFSAII (Michael W. Deem and Ramdas Pophale) SiO2 
 PCOD9266885
Probable space group: C 2/C
;
_chemical_formula_sum "Si O2"
_cell_formula_units_Z 48
_cell_length_a 16.322748
_cell_length_b 10.166572
_cell_length_c 14.970754
_cell_angle_alpha 90.000000
_cell_angle_beta 105.697837
_cell_angle_gamma 90.000000
_cell_volume 2391.681516
_symmetry_space_group_name_H-M "C 2/C"
_symmetry_group_IT_number 15
_symmetry_cell_setting 'monoclinic'
loop_
_space_group_symop_operation_xyz
x,y,z
-x,y,1/2-z
-x,-y,-z
x,-y,1/2+z
1/2+x,1/2+y,z
1/2-x,1/2+y,1/2-z
1/2-x,1/2-y,-z
1/2+x,1/2-y,1/2+z
loop_
_atom_site_type_symbol
_atom_site_label
_atom_site_fract_x
_atom_site_fract_y
_atom_site_fract_z
Si Si1 0.188080 0.950633 0.755455
Si Si2 0.153781 0.180670 0.065472
Si Si3 0.908089 0.277531 0.172306
Si Si4 0.877004 0.544650 0.244907
Si Si5 0.156424 0.796578 0.363979
Si Si6 0.480816 0.102562 0.919164
O O1 0.290100 0.935318 0.775568
O O2 0.163811 0.087989 0.793803
O O3 0.150296 0.926894 0.644172
O O4 0.149944 0.838980 0.809480
O O5 0.250442 0.232082 0.096199
O O6 0.096296 0.302171 0.079724
O O7 0.130705 0.151449 0.955170
O O8 0.861545 0.414679 0.180989
O O9 0.000000 0.261062 0.250000
O O10 0.940439 0.302126 0.081725
O O11 0.895322 0.674269 0.192696
O O12 0.952325 0.491657 0.329353
O O13 0.500000 0.000000 0.000000
#
# Coordination Sequence:
#
# PCOD9266885 Si02
#       6
#     8   8   8   8   8   8
#     4  11  19  39  64  91 128 166 206 271 326 378
#     4  10  20  39  62  90 128 167 210 267 327 379
#     4  10  20  38  63  86 125 167 203 259 330 372
#     4  10  19  38  62  91 121 167 220 258 313 386
#     4  10  21  36  65  93 122 164 218 269 319 382
#     4  11  21  39  64  89 126 174 218 264 318 393
#
# _framework density 20.069561
#
# number of rings (size 3 to 8) (size 9 to 14) (size 15 to 20)
#    0.000    1.667    5.000    2.000    0.000    0.000 
#    3.000    5.833    0.000    0.000    0.000    0.000 
#    0.000    0.000    0.000    0.000    0.000    0.000 
#
# Total GULP energy -133693.422390 kJ/mol
# GULP energy per Si atom -5570.559266 kJ/mol
# Density = 2.002388 g / cm^3
# Si number density = 20.069561 Si / 1000 Ang^3
#
#
#
# Elastic Constant Matrix: (Units=GPa)
#
#
# Indices 1 2 3 4 5 6 
#
# 1 61.3494 -0.8352 2.1507 0.0000 -7.4503 0.0000
# 2 -0.8352 75.5355 35.6095 0.0000 1.5745 0.0000
# 3 2.1507 35.6095 94.8562 0.0000 -14.1650 0.0000
# 4 0.0000 0.0000 0.0000 29.3295 0.0000 -13.4057
# 5 -7.4503 1.5745 -14.1650 0.0000 15.8138 0.0000
# 6 0.0000 0.0000 0.0000 -13.4057 0.0000 35.9634
#
#
#
# Elastic Compliance Matrix: (Units=1/GPa)
#
#
# Indices 1 2 3 4 5 6 
#
# 1 0.017383 -0.000576 0.001216 0.000000 0.009337 0.000000
# 2 -0.000576 0.017055 -0.007716 0.000000 -0.008880 0.000000
# 3 0.001216 -0.007716 0.015713 0.000000 0.015416 0.000000
# 4 0.000000 0.000000 0.000000 0.041097 0.000000 0.015319
# 5 0.009337 -0.008880 0.015416 0.000000 0.082328 0.000000
# 6 0.000000 0.000000 0.000000 0.015319 0.000000 0.033516
#
#
# Mechanical properties :
#
#
# Convention : Reuss Voigt Hill
#
# Bulk Modulus (GPa) = 27.77669 33.95457 30.86563
# Shear Modulus (GPa) = 21.43681 29.20908 25.32294
#
# Velocity S-wave (km/s) = 3.27176 3.81910 3.55598
# Velocity P-wave (km/s) = 5.30498 6.03345 5.68091
#
# Compressibility (1/GPa) = 0.03600140
#
# Stress axis : x y z
#
# Youngs Moduli (GPa) = 57.52601 58.63431 63.64046
#
# Poissons Ratio (x) = 0.03376 -0.07740
# Poissons Ratio (y) = 0.03312 0.49102
# Poissons Ratio (z) = -0.06997 0.45240
#
# Static dielectric constant tensor:
#      x y z
#    x 1.750730 0.000000 -0.047000 
#    y 0.000000 1.683580 0.000000 
#    z -0.047000 0.000000 1.790450 
# 
# From -- ./inp_files/208681.got.cif
#   From: 2010.05.17/outbox.cif.g08.bks.cpg/sg15_105_cif.got.tgz:208681.got - 2010.06.03 18:47:42.
