data_PCOD9266082
_publ_section_title
;
Structure prediction by ZEFSAII (Michael W. Deem and Ramdas Pophale) SiO2 
 PCOD9266082
Probable space group: C 2/C
;
_chemical_formula_sum "Si O2"
_cell_formula_units_Z 64
_cell_length_a 12.533019
_cell_length_b 34.213704
_cell_length_c 8.469484
_cell_angle_alpha 90.000000
_cell_angle_beta 123.864390
_cell_angle_gamma 90.000000
_cell_volume 3015.633232
_symmetry_space_group_name_H-M "C 2/C"
_symmetry_group_IT_number 15
_symmetry_cell_setting 'monoclinic'
loop_
_space_group_symop_operation_xyz
x,y,z
-x,y,1/2-z
-x,-y,-z
x,-y,1/2+z
1/2+x,1/2+y,z
1/2-x,1/2+y,1/2-z
1/2-x,1/2-y,-z
1/2+x,1/2-y,1/2+z
loop_
_atom_site_type_symbol
_atom_site_label
_atom_site_fract_x
_atom_site_fract_y
_atom_site_fract_z
Si Si1 0.883115 0.888405 0.031828
Si Si2 0.557566 0.829367 0.468981
Si Si3 0.209107 0.803872 0.640355
Si Si4 0.799697 0.986400 0.410230
Si Si5 0.554357 0.922856 0.471598
Si Si6 0.144031 0.055599 0.250427
Si Si7 0.175617 0.552294 0.509186
Si Si8 0.098310 0.730120 0.457683
O O1 0.756942 0.912045 0.996284
O O2 0.000000 0.894257 0.250000
O O3 0.858125 0.843021 0.976690
O O4 0.912039 0.907223 0.884274
O O5 0.500000 0.820294 0.250000
O O6 0.699192 0.814948 0.637453
O O7 0.553619 0.875945 0.483969
O O8 0.467271 0.806745 0.515579
O O9 0.128257 0.764618 0.605361
O O10 0.289190 0.788179 0.555111
O O11 0.879830 0.959672 0.594283
O O12 0.744038 0.958925 0.230084
O O13 0.877193 0.020148 0.386835
O O14 0.695778 0.013012 0.421328
O O15 0.500000 0.932630 0.250000
O O16 0.700298 0.936979 0.609566
O O17 0.466847 0.938332 0.544360
O O18 0.000000 0.748246 0.250000
#
# Coordination Sequence:
#
# PCOD9266082 Si02
#       8
#     8   8   8   8   8   8   8   8
#     4  11  23  39  59  82 110 152 205 248 292 340
#     4  10  21  35  55  89 120 155 187 231 300 352
#     4  10  19  37  60  83 114 150 195 245 281 345
#     4   9  20  36  56  83 118 148 192 235 297 353
#     4  11  20  33  59  87 122 154 186 236 294 358
#     4  10  20  37  55  84 116 152 190 240 288 352
#     4  10  21  36  56  84 115 149 192 239 292 354
#     4   9  19  35  59  87 117 151 191 234 290 346
#
# _framework density 21.222738
#
# number of rings (size 3 to 8) (size 9 to 14) (size 15 to 20)
#    0.000    2.000    2.500    1.125    0.000    5.500 
#    0.000   10.625    0.000    1.500    0.000    0.000 
#    0.000    0.000    0.000    0.000    0.000    0.000 
#
# Total GULP energy -178501.979429 kJ/mol
# GULP energy per Si atom -5578.186857 kJ/mol
# Density = 2.117443 g / cm^3
# Si number density = 21.222738 Si / 1000 Ang^3
#
#
#
# Elastic Constant Matrix: (Units=GPa)
#
#
# Indices 1 2 3 4 5 6 
#
# 1 45.4250 15.1176 14.5936 0.0000 -3.2902 0.0000
# 2 15.1176 100.6032 42.5366 0.0000 -1.1596 0.0000
# 3 14.5936 42.5366 118.2583 0.0000 -9.4092 0.0000
# 4 0.0000 0.0000 0.0000 32.2725 0.0000 -5.4766
# 5 -3.2902 -1.1596 -9.4092 0.0000 30.6795 0.0000
# 6 0.0000 0.0000 0.0000 -5.4766 0.0000 10.4759
#
#
#
# Elastic Compliance Matrix: (Units=1/GPa)
#
#
# Indices 1 2 3 4 5 6 
#
# 1 0.023645 -0.002785 -0.001766 0.000000 0.001889 0.000000
# 2 -0.002785 0.012074 -0.004086 0.000000 -0.001096 0.000000
# 3 -0.001766 -0.004086 0.010369 0.000000 0.002836 0.000000
# 4 0.000000 0.000000 0.000000 0.034003 0.000000 0.017776
# 5 0.001889 -0.001096 0.002836 0.000000 0.033626 0.000000
# 6 0.000000 0.000000 0.000000 0.017776 0.000000 0.104750
#
#
# Mechanical properties :
#
#
# Convention : Reuss Voigt Hill
#
# Bulk Modulus (GPa) = 34.70492 45.42022 40.06257
# Shear Modulus (GPa) = 20.37939 27.48817 23.93378
#
# Velocity S-wave (km/s) = 3.10217 3.60282 3.36183
# Velocity P-wave (km/s) = 5.40551 6.22537 5.82987
#
# Compressibility (1/GPa) = 0.02881436
#
# Stress axis : x y z
#
# Youngs Moduli (GPa) = 42.29181 82.82512 96.43672
#
# Poissons Ratio (x) = 0.23064 0.17031
# Poissons Ratio (y) = 0.11777 0.39407
# Poissons Ratio (z) = 0.07469 0.33845
#
# Static dielectric constant tensor:
#      x y z
#    x 1.936260 0.000000 0.114370 
#    y 0.000000 1.744470 0.000000 
#    z 0.114370 0.000000 1.939440 
# 
# From -- ./inp_files/44872.got.cif
#   From: 2010.05.17/outbox.cif.g08.bks.cpg/sg15_23_cif.got.tgz:44872.got - 2010.06.03 18:47:42.
