data_PCOD9266006
_publ_section_title
;
Structure prediction by ZEFSAII (Michael W. Deem and Ramdas Pophale) SiO2 
 PCOD9266006
Probable space group: C 2/C
;
_chemical_formula_sum "Si O2"
_cell_formula_units_Z 44
_cell_length_a 20.114880
_cell_length_b 12.332692
_cell_length_c 15.422887
_cell_angle_alpha 90.000000
_cell_angle_beta 36.402888
_cell_angle_gamma 90.000000
_cell_volume 2270.555190
_symmetry_space_group_name_H-M "C 2/C"
_symmetry_group_IT_number 15
_symmetry_cell_setting 'monoclinic'
loop_
_space_group_symop_operation_xyz
x,y,z
-x,y,1/2-z
-x,-y,-z
x,-y,1/2+z
1/2+x,1/2+y,z
1/2-x,1/2+y,1/2-z
1/2-x,1/2-y,-z
1/2+x,1/2-y,1/2+z
loop_
_atom_site_type_symbol
_atom_site_label
_atom_site_fract_x
_atom_site_fract_y
_atom_site_fract_z
Si Si1 0.862476 0.361966 0.647184
Si Si2 0.116221 0.868394 0.662288
Si Si3 0.251415 0.793215 0.359285
Si Si4 0.500000 0.422675 0.250000
Si Si5 0.306757 0.282047 0.530876
Si Si6 0.115831 0.404553 0.428962
O O1 0.842311 0.260001 0.604843
O O2 0.772704 0.347949 0.818949
O O3 0.853701 0.469511 0.597309
O O4 0.984406 0.377465 0.560991
O O5 0.198662 0.859733 0.493695
O O6 0.173633 0.803469 0.679064
O O7 0.000000 0.815057 0.750000
O O8 0.079059 0.992077 0.719376
O O9 0.330059 0.866479 0.218111
O O10 0.419275 0.349696 0.392934
O O11 0.250000 0.250000 0.500000
O O12 0.334402 0.169550 0.548817
#
# Coordination Sequence:
#
# PCOD9266006 Si02
#       6
#     8   8   8   4   8   8
#     4  10  22  39  59  86 119 159 195 244 300 360
#     4   9  20  34  59  87 117 151 193 250 292 355
#     4  10  19  37  59  85 118 154 195 245 298 351
#     4  10  22  38  58  90 114 150 204 244 294 352
#     4  11  23  40  64  87 121 158 201 254 299 362
#     4  10  22  39  57  86 120 156 199 244 300 355
#
# _framework density 19.378520000000002
#
# number of rings (size 3 to 8) (size 9 to 14) (size 15 to 20)
#    0.545    1.455    0.000    3.273    2.545    0.000 
#    0.000    1.818    2.000    0.000    0.000    0.000 
#    0.000    0.000    0.000    0.000    0.000    0.000 
#
# Total GULP energy -122660.129559 kJ/mol
# GULP energy per Si atom -5575.460435 kJ/mol
# Density = 1.933441 g / cm^3
# Si number density = 19.378520 Si / 1000 Ang^3
#
#
#
# Elastic Constant Matrix: (Units=GPa)
#
#
# Indices 1 2 3 4 5 6 
#
# 1 44.3987 6.0001 -1.0058 0.0000 -4.5125 0.0000
# 2 6.0001 56.0467 5.5149 0.0000 -14.5068 0.0000
# 3 -1.0058 5.5149 42.5816 0.0000 -21.0102 0.0000
# 4 0.0000 0.0000 0.0000 19.0269 0.0000 3.4894
# 5 -4.5125 -14.5068 -21.0102 0.0000 18.4100 0.0000
# 6 0.0000 0.0000 0.0000 3.4894 0.0000 7.9623
#
#
#
# Elastic Compliance Matrix: (Units=1/GPa)
#
#
# Indices 1 2 3 4 5 6 
#
# 1 0.024262 0.000771 0.008485 0.000000 0.016237 0.000000
# 2 0.000771 0.026297 0.015861 0.000000 0.039011 0.000000
# 3 0.008485 0.015861 0.065973 0.000000 0.089868 0.000000
# 4 0.000000 0.000000 0.000000 0.057151 0.000000 -0.025046
# 5 0.016237 0.039011 0.089868 0.000000 0.191600 0.000000
# 6 0.000000 0.000000 0.000000 -0.025046 0.000000 0.136569
#
#
# Mechanical properties :
#
#
# Convention : Reuss Voigt Hill
#
# Bulk Modulus (GPa) = 5.99651 18.22726 12.11189
# Shear Modulus (GPa) = 9.85795 17.91435 13.88615
#
# Velocity S-wave (km/s) = 2.25790 3.04377 2.67979
# Velocity P-wave (km/s) = 3.14620 4.66680 3.97980
#
# Compressibility (1/GPa) = 0.16676363
#
# Stress axis : x y z
#
# Youngs Moduli (GPa) = 41.21750 38.02784 15.15780
#
# Poissons Ratio (x) = -0.02930 -0.12861
# Poissons Ratio (y) = -0.03176 -0.24042
# Poissons Ratio (z) = -0.34973 -0.60316
#
# Static dielectric constant tensor:
#      x y z
#    x 1.676490 0.000000 -0.020390 
#    y 0.000000 1.700290 0.000000 
#    z -0.020390 0.000000 1.659140 
# 
# From -- ./inp_files/104352.got.cif
#   From: 2010.05.17/outbox.cif.g08.bks.cpg/sg15_53_cif.got.tgz:104352.got - 2010.06.03 18:47:42.
