data_PCOD9266943
_publ_section_title
;
Structure prediction by ZEFSAII (Michael W. Deem and Ramdas Pophale) SiO2 
 PCOD9266943
Probable space group: C 2/C
;
_chemical_formula_sum "Si O2"
_cell_formula_units_Z 40
_cell_length_a 27.565549
_cell_length_b 14.779937
_cell_length_c 8.513779
_cell_angle_alpha 90.000000
_cell_angle_beta 149.032137
_cell_angle_gamma 90.000000
_cell_volume 1784.823483
_symmetry_space_group_name_H-M "C 2/C"
_symmetry_group_IT_number 15
_symmetry_cell_setting 'monoclinic'
loop_
_space_group_symop_operation_xyz
x,y,z
-x,y,1/2-z
-x,-y,-z
x,-y,1/2+z
1/2+x,1/2+y,z
1/2-x,1/2+y,1/2-z
1/2-x,1/2-y,-z
1/2+x,1/2-y,1/2+z
loop_
_atom_site_type_symbol
_atom_site_label
_atom_site_fract_x
_atom_site_fract_y
_atom_site_fract_z
Si Si1 0.449526 0.119681 0.357148
Si Si2 0.382652 0.051845 0.835636
Si Si3 0.071151 0.812375 0.095905
Si Si4 0.179286 0.964780 0.226277
Si Si5 0.566677 0.579070 0.121172
O O1 0.560990 0.123060 0.619700
O O2 0.403083 0.209457 0.299341
O O3 0.437943 0.040299 0.449837
O O4 0.396797 0.089049 0.050351
O O5 0.277872 0.016683 0.509353
O O6 0.153672 0.884639 0.282115
O O7 0.000000 0.818819 0.750000
O O8 0.001140 0.836400 0.046115
O O9 0.106813 0.045242 0.069569
O O10 0.153831 0.922113 0.987164
O O11 0.500000 0.500000 0.000000
#
# Coordination Sequence:
#
# PCOD9266943 Si02
#       5
#     8   8   8   8   8
#     4  10  22  40  60  86 120 166 202 245 304 367
#     4  10  22  38  62  82 121 163 202 242 305 361
#     4   9  20  37  63  91 117 158 207 248 299 363
#     4  10  19  38  63  90 117 158 204 252 300 361
#     4   9  18  36  61  89 119 157 195 247 314 358
#
# _framework density 22.411180999999999
#
# number of rings (size 3 to 8) (size 9 to 14) (size 15 to 20)
#    0.000    2.400    0.000    3.000    5.600    0.800 
#   14.400    1.000    4.400    0.000    0.000    0.000 
#    0.000    0.000    0.000    0.000    0.000    0.000 
#
# Total GULP energy -111348.047964 kJ/mol
# GULP energy per Si atom -5567.402398 kJ/mol
# Density = 2.236017 g / cm^3
# Si number density = 22.411181 Si / 1000 Ang^3
#
#
#
# Elastic Constant Matrix: (Units=GPa)
#
#
# Indices 1 2 3 4 5 6 
#
# 1 65.6667 4.2014 31.0229 0.0000 4.6249 0.0000
# 2 4.2014 77.1413 -2.4542 0.0000 3.7535 0.0000
# 3 31.0229 -2.4542 85.7869 0.0000 16.8499 0.0000
# 4 0.0000 0.0000 0.0000 19.5096 0.0000 -1.3386
# 5 4.6249 3.7535 16.8499 0.0000 30.5372 0.0000
# 6 0.0000 0.0000 0.0000 -1.3386 0.0000 17.4711
#
#
#
# Elastic Compliance Matrix: (Units=1/GPa)
#
#
# Indices 1 2 3 4 5 6 
#
# 1 0.018519 -0.001289 -0.006969 0.000000 0.001199 0.000000
# 2 -0.001289 0.013177 0.001259 0.000000 -0.002119 0.000000
# 3 -0.006969 0.001259 0.015742 0.000000 -0.007786 0.000000
# 4 0.000000 0.000000 0.000000 0.051528 0.000000 0.003948
# 5 0.001199 -0.002119 -0.007786 0.000000 0.037122 0.000000
# 6 0.000000 0.000000 0.000000 0.003948 0.000000 0.057540
#
#
# Mechanical properties :
#
#
# Convention : Reuss Voigt Hill
#
# Bulk Modulus (GPa) = 29.90409 32.68167 31.29288
# Shear Modulus (GPa) = 22.85486 26.55856 24.70671
#
# Velocity S-wave (km/s) = 3.19689 3.44620 3.32388
# Velocity P-wave (km/s) = 5.19607 5.51811 5.35951
#
# Compressibility (1/GPa) = 0.03344024
#
# Stress axis : x y z
#
# Youngs Moduli (GPa) = 53.99871 75.89217 63.52284
#
# Poissons Ratio (x) = 0.09780 0.44272
# Poissons Ratio (y) = 0.06959 -0.07999
# Poissons Ratio (z) = 0.37634 -0.09557
#
# Static dielectric constant tensor:
#      x y z
#    x 1.939640 0.000000 0.008000 
#    y 0.000000 1.870630 0.000000 
#    z 0.008000 0.000000 1.967990 
# 
# From -- ./inp_files/55508.got.cif
#   From: 2010.05.17/outbox.cif.g08.bks.cpg/sg15_28_cif.got.tgz:55508.got - 2010.06.03 18:47:42.
