data_PCOD9266557
_publ_section_title
;
Structure prediction by ZEFSAII (Michael W. Deem and Ramdas Pophale) SiO2 
 PCOD9266557
Probable space group: C 2/C
;
_chemical_formula_sum "Si O2"
_cell_formula_units_Z 36
_cell_length_a 16.515518
_cell_length_b 7.736069
_cell_length_c 19.085183
_cell_angle_alpha 90.000000
_cell_angle_beta 50.365973
_cell_angle_gamma 90.000000
_cell_volume 1877.913011
_symmetry_space_group_name_H-M "C 2/C"
_symmetry_group_IT_number 15
_symmetry_cell_setting 'monoclinic'
loop_
_space_group_symop_operation_xyz
x,y,z
-x,y,1/2-z
-x,-y,-z
x,-y,1/2+z
1/2+x,1/2+y,z
1/2-x,1/2+y,1/2-z
1/2-x,1/2-y,-z
1/2+x,1/2-y,1/2+z
loop_
_atom_site_type_symbol
_atom_site_label
_atom_site_fract_x
_atom_site_fract_y
_atom_site_fract_z
Si Si1 0.663037 0.072521 0.430371
Si Si2 0.665035 0.633961 0.587254
Si Si3 0.000000 0.617516 0.250000
Si Si4 0.958711 0.555710 0.628084
Si Si5 0.052265 0.900667 0.535210
O O1 0.566910 0.990045 0.530043
O O2 0.645369 0.275618 0.454634
O O3 0.771130 0.999467 0.399213
O O4 0.635397 0.020664 0.366390
O O5 0.750000 0.750000 0.500000
O O6 0.592699 0.759724 0.672109
O O7 0.596278 0.528517 0.569133
O O8 0.961380 0.503372 0.206052
O O9 0.969995 0.761847 0.612692
O O10 0.000000 0.000000 0.500000
#
# Coordination Sequence:
#
# PCOD9266557 Si02
#       5
#     8   8   4   8   8
#     4   9  19  40  66  89 124 164 212 254 328 369
#     4  12  22  39  63  95 125 170 210 261 320 381
#     4  12  24  40  62  94 132 168 216 268 312 384
#     4   9  20  40  65  90 126 161 211 261 324 368
#     4  10  19  37  67  94 121 167 211 260 321 384
#
# _framework density 19.170217000000001
#
# number of rings (size 3 to 8) (size 9 to 14) (size 15 to 20)
#    1.333    0.444    2.222    3.333    0.000    0.889 
#    0.000    8.889    0.000    0.000    0.000    0.000 
#    0.000    0.000    0.000    0.000    0.000    0.000 
#
# Total GULP energy -100389.822177 kJ/mol
# GULP energy per Si atom -5577.212343 kJ/mol
# Density = 1.912658 g / cm^3
# Si number density = 19.170217 Si / 1000 Ang^3
#
#
#
# Elastic Constant Matrix: (Units=GPa)
#
#
# Indices 1 2 3 4 5 6 
#
# 1 127.7079 52.0088 54.9306 0.0000 49.2097 0.0000
# 2 52.0088 114.3244 53.3420 0.0000 26.7559 0.0000
# 3 54.9306 53.3420 91.0433 0.0000 25.7209 0.0000
# 4 0.0000 0.0000 0.0000 28.3288 0.0000 16.1622
# 5 49.2097 26.7559 25.7209 0.0000 42.1162 0.0000
# 6 0.0000 0.0000 0.0000 16.1622 0.0000 41.4960
#
#
#
# Elastic Compliance Matrix: (Units=1/GPa)
#
#
# Indices 1 2 3 4 5 6 
#
# 1 0.016373 -0.001764 -0.004540 0.000000 -0.015237 0.000000
# 2 -0.001764 0.012824 -0.005716 0.000000 -0.002595 0.000000
# 3 -0.004540 -0.005716 0.017581 0.000000 -0.001800 0.000000
# 4 0.000000 0.000000 0.000000 0.045385 0.000000 -0.017677
# 5 -0.015237 -0.002595 -0.001800 0.000000 0.044295 0.000000
# 6 0.000000 0.000000 0.000000 -0.017677 0.000000 0.030984
#
#
# Mechanical properties :
#
#
# Convention : Reuss Voigt Hill
#
# Bulk Modulus (GPa) = 43.98143 72.62650 58.30396
# Shear Modulus (GPa) = 25.11787 33.90782 29.51284
#
# Velocity S-wave (km/s) = 3.62367 4.21024 3.92792
# Velocity P-wave (km/s) = 6.36399 7.84871 7.14502
#
# Compressibility (1/GPa) = 0.02273687
#
# Stress axis : x y z
#
# Youngs Moduli (GPa) = 61.07609 77.97976 56.87993
#
# Poissons Ratio (x) = 0.13755 0.25826
# Poissons Ratio (y) = 0.10773 0.32513
# Poissons Ratio (z) = 0.27731 0.44574
#
# Static dielectric constant tensor:
#      x y z
#    x 1.649250 0.000000 -0.013450 
#    y 0.000000 1.674780 0.000000 
#    z -0.013450 0.000000 1.664690 
# 
# From -- ./inp_files/202153.got.cif
#   From: 2010.05.17/outbox.cif.g08.bks.cpg/sg15_102_cif.got.tgz:202153.got - 2010.06.03 18:47:42.
