data_PCOD9266436
_publ_section_title
;
Structure prediction by ZEFSAII (Michael W. Deem and Ramdas Pophale) SiO2 
 PCOD9266436
Probable space group: C 2/C
;
_chemical_formula_sum "Si O2"
_cell_formula_units_Z 60
_cell_length_a 19.484428
_cell_length_b 14.912377
_cell_length_c 13.010278
_cell_angle_alpha 90.000000
_cell_angle_beta 46.081363
_cell_angle_gamma 90.000000
_cell_volume 2723.014268
_symmetry_space_group_name_H-M "C 2/C"
_symmetry_group_IT_number 15
_symmetry_cell_setting 'monoclinic'
loop_
_space_group_symop_operation_xyz
x,y,z
-x,y,1/2-z
-x,-y,-z
x,-y,1/2+z
1/2+x,1/2+y,z
1/2-x,1/2+y,1/2-z
1/2-x,1/2-y,-z
1/2+x,1/2-y,1/2+z
loop_
_atom_site_type_symbol
_atom_site_label
_atom_site_fract_x
_atom_site_fract_y
_atom_site_fract_z
Si Si1 0.134927 0.859505 0.783740
Si Si2 0.702435 0.005324 0.897286
Si Si3 0.108563 0.253915 0.617822
Si Si4 0.624468 0.431210 0.009915
Si Si5 0.651856 0.172289 0.845718
Si Si6 0.000000 0.918966 0.750000
Si Si7 0.007774 0.558298 0.861858
Si Si8 0.831172 0.583424 0.341350
O O1 0.085683 0.892555 0.942062
O O2 0.180059 0.761377 0.754790
O O3 0.061513 0.861990 0.766363
O O4 0.215957 0.932360 0.678726
O O5 0.719613 0.088316 0.801601
O O6 0.690464 0.046566 0.022987
O O7 0.597857 0.962362 0.987503
O O8 0.119074 0.147474 0.601259
O O9 0.129336 0.290929 0.482762
O O10 0.162780 0.309235 0.649769
O O11 0.000000 0.276692 0.750000
O O12 0.737941 0.440973 0.874116
O O13 0.569533 0.516198 0.110978
O O14 0.563675 0.129069 0.874483
O O15 0.072442 0.467397 0.790895
O O16 0.000000 0.587599 0.750000
#
# Coordination Sequence:
#
# PCOD9266436 Si02
#       8
#     8   8   8   8   8   4   8   8
#     4  11  25  42  68  97 130 179 222 270 332 391
#     4  10  20  41  65  97 134 166 220 275 331 381
#     4  10  20  36  61  96 128 163 221 272 336 386
#     4  11  22  40  64  92 126 175 221 271 331 394
#     4  10  22  39  63  97 134 170 220 271 324 409
#     4  12  24  46  64  86 142 180 226 264 326 406
#     4  10  21  38  66  95 133 171 213 271 339 388
#     4  10  19  37  64  94 128 169 209 279 331 387
#
# _framework density 22.034405
#
# number of rings (size 3 to 8) (size 9 to 14) (size 15 to 20)
#    0.000    1.600    2.000    4.000    0.933    1.067 
#    0.000    8.000    0.000    0.000    0.000    0.000 
#    0.000    0.000    0.000    0.000    0.000    0.000 
#
# Total GULP energy -167488.196748 kJ/mol
# GULP energy per Si atom -5582.939892 kJ/mol
# Density = 2.198425 g / cm^3
# Si number density = 22.034405 Si / 1000 Ang^3
#
#
#
# Elastic Constant Matrix: (Units=GPa)
#
#
# Indices 1 2 3 4 5 6 
#
# 1 103.3273 8.0369 2.8222 0.0000 -3.0539 0.0000
# 2 8.0369 90.5289 5.6897 0.0000 -8.7443 0.0000
# 3 2.8222 5.6897 25.7042 0.0000 -14.1103 0.0000
# 4 0.0000 0.0000 0.0000 9.6979 0.0000 -6.8891
# 5 -3.0539 -8.7443 -14.1103 0.0000 21.6883 0.0000
# 6 0.0000 0.0000 0.0000 -6.8891 0.0000 30.2294
#
#
#
# Elastic Compliance Matrix: (Units=1/GPa)
#
#
# Indices 1 2 3 4 5 6 
#
# 1 0.009773 -0.000764 -0.000494 0.000000 0.000747 0.000000
# 2 -0.000764 0.011554 0.000038 0.000000 0.004575 0.000000
# 3 -0.000494 0.000038 0.060542 0.000000 0.039334 0.000000
# 4 0.000000 0.000000 0.000000 0.123032 0.000000 0.028038
# 5 0.000747 0.004575 0.039334 0.000000 0.073648 0.000000
# 6 0.000000 0.000000 0.000000 0.028038 0.000000 0.039470
#
#
# Mechanical properties :
#
#
# Convention : Reuss Voigt Hill
#
# Bulk Modulus (GPa) = 12.58995 28.07312 20.33153
# Shear Modulus (GPa) = 14.41185 25.85723 20.13454
#
# Velocity S-wave (km/s) = 2.56024 3.42935 3.02615
# Velocity P-wave (km/s) = 3.80341 5.33374 4.63221
#
# Compressibility (1/GPa) = 0.07942845
#
# Stress axis : x y z
#
# Youngs Moduli (GPa) = 102.32274 86.55300 16.51732
#
# Poissons Ratio (x) = 0.06617 0.00816
# Poissons Ratio (y) = 0.07822 -0.00063
# Poissons Ratio (z) = 0.05055 -0.00330
#
# Static dielectric constant tensor:
#      x y z
#    x 1.867210 0.000000 0.013380 
#    y 0.000000 1.827450 0.000000 
#    z 0.013380 0.000000 1.819950 
# 
# From -- ./inp_files/168611.got.cif
#   From: 2010.05.17/outbox.cif.g08.bks.cpg/sg15_85_cif.got.tgz:168611.got - 2010.06.03 18:47:42.
