data_PCOD9266089
_publ_section_title
;
Structure prediction by ZEFSAII (Michael W. Deem and Ramdas Pophale) SiO2 
 PCOD9266089
Probable space group: C 2/C
;
_chemical_formula_sum "Si O2"
_cell_formula_units_Z 48
_cell_length_a 15.115848
_cell_length_b 9.952487
_cell_length_c 16.611811
_cell_angle_alpha 90.000000
_cell_angle_beta 62.645311
_cell_angle_gamma 90.000000
_cell_volume 2219.635383
_symmetry_space_group_name_H-M "C 2/C"
_symmetry_group_IT_number 15
_symmetry_cell_setting 'monoclinic'
loop_
_space_group_symop_operation_xyz
x,y,z
-x,y,1/2-z
-x,-y,-z
x,-y,1/2+z
1/2+x,1/2+y,z
1/2-x,1/2+y,1/2-z
1/2-x,1/2-y,-z
1/2+x,1/2-y,1/2+z
loop_
_atom_site_type_symbol
_atom_site_label
_atom_site_fract_x
_atom_site_fract_y
_atom_site_fract_z
Si Si1 0.776331 0.977941 0.398786
Si Si2 0.408209 0.890826 0.434812
Si Si3 0.620280 0.644292 0.931143
Si Si4 0.116882 0.348660 0.377985
Si Si5 0.660829 0.756178 0.191168
Si Si6 0.592269 0.360441 0.030350
O O1 0.685212 0.022937 0.495679
O O2 0.838064 0.109977 0.349809
O O3 0.718389 0.930729 0.343618
O O4 0.844492 0.868764 0.414664
O O5 0.401899 0.752751 0.489073
O O6 0.519137 0.941615 0.408386
O O7 0.394159 0.855540 0.347608
O O8 0.725415 0.691063 0.852881
O O9 0.620713 0.498316 0.971991
O O10 0.527037 0.643593 0.909447
O O11 0.117262 0.257555 0.298434
O O12 0.115099 0.259872 0.459453
#
# Coordination Sequence:
#
# PCOD9266089 Si02
#       6
#     8   8   8   8   8   8
#     4  11  21  39  62  82 113 158 193 228 284 345
#     4  10  19  40  60  82 110 156 196 226 272 359
#     4   9  18  35  62  83 110 149 194 230 277 336
#     4  11  25  34  56  91 120 142 188 244 296 323
#     4  11  21  38  58  85 115 148 190 243 281 331
#     4  10  19  37  60  84 112 153 191 230 276 350
#
# _framework density 21.625171000000002
#
# number of rings (size 3 to 8) (size 9 to 14) (size 15 to 20)
#    0.000    1.667    3.333    2.500    2.333    0.000 
#    0.000    0.833    0.000    0.000    0.000    0.000 
#    0.000    0.000    0.000    0.000    0.000    0.000 
#
# Total GULP energy -134015.301030 kJ/mol
# GULP energy per Si atom -5583.970876 kJ/mol
# Density = 2.157595 g / cm^3
# Si number density = 21.625171 Si / 1000 Ang^3
#
#
#
# Elastic Constant Matrix: (Units=GPa)
#
#
# Indices 1 2 3 4 5 6 
#
# 1 142.5425 10.6286 30.4066 0.0000 13.3271 0.0000
# 2 10.6286 29.1514 0.8505 0.0000 6.9147 0.0000
# 3 30.4066 0.8505 58.8939 0.0000 14.1984 0.0000
# 4 0.0000 0.0000 0.0000 16.7607 0.0000 6.3405
# 5 13.3271 6.9147 14.1984 0.0000 26.5978 0.0000
# 6 0.0000 0.0000 0.0000 6.3405 0.0000 29.7746
#
#
#
# Elastic Compliance Matrix: (Units=1/GPa)
#
#
# Indices 1 2 3 4 5 6 
#
# 1 0.008152 -0.002534 -0.003841 0.000000 -0.001376 0.000000
# 2 -0.002534 0.037557 0.003229 0.000000 -0.010218 0.000000
# 3 -0.003841 0.003229 0.021410 0.000000 -0.010344 0.000000
# 4 0.000000 0.000000 0.000000 0.064891 0.000000 -0.013818
# 5 -0.001376 -0.010218 -0.010344 0.000000 0.046465 0.000000
# 6 0.000000 0.000000 0.000000 -0.013818 0.000000 0.036528
#
#
# Mechanical properties :
#
#
# Convention : Reuss Voigt Hill
#
# Bulk Modulus (GPa) = 16.43971 34.92881 25.68426
# Shear Modulus (GPa) = 20.69796 27.20676 23.95236
#
# Velocity S-wave (km/s) = 3.09710 3.55083 3.33170
# Velocity P-wave (km/s) = 4.51752 5.74440 5.16750
#
# Compressibility (1/GPa) = 0.06082831
#
# Stress axis : x y z
#
# Youngs Moduli (GPa) = 122.66458 26.62620 46.70768
#
# Poissons Ratio (x) = 0.06747 0.17939
# Poissons Ratio (y) = 0.31082 -0.15083
# Poissons Ratio (z) = 0.47112 -0.08598
#
# Static dielectric constant tensor:
#      x y z
#    x 1.858870 0.000000 -0.020140 
#    y 0.000000 1.779780 0.000000 
#    z -0.020140 0.000000 1.775260 
# 
# From -- ./inp_files/151812.got.cif
#   From: 2010.05.17/outbox.cif.g08.bks.cpg/sg15_76_cif.got.tgz:151812.got - 2010.06.03 18:47:42.
