data_PCOD9266317
_publ_section_title
;
Structure prediction by ZEFSAII (Michael W. Deem and Ramdas Pophale) SiO2 
 PCOD9266317
Probable space group: C 2/C
;
_chemical_formula_sum "Si O2"
_cell_formula_units_Z 64
_cell_length_a 25.777208
_cell_length_b 17.712843
_cell_length_c 20.390908
_cell_angle_alpha 90.000000
_cell_angle_beta 18.720160
_cell_angle_gamma 90.000000
_cell_volume 2988.085543
_symmetry_space_group_name_H-M "C 2/C"
_symmetry_group_IT_number 15
_symmetry_cell_setting 'monoclinic'
loop_
_space_group_symop_operation_xyz
x,y,z
-x,y,1/2-z
-x,-y,-z
x,-y,1/2+z
1/2+x,1/2+y,z
1/2-x,1/2+y,1/2-z
1/2-x,1/2-y,-z
1/2+x,1/2-y,1/2+z
loop_
_atom_site_type_symbol
_atom_site_label
_atom_site_fract_x
_atom_site_fract_y
_atom_site_fract_z
Si Si1 0.572653 0.123523 0.732090
Si Si2 0.554250 0.370404 0.942294
Si Si3 0.691010 0.026734 0.038488
Si Si4 0.065867 0.283744 0.365193
Si Si5 0.310698 0.868785 0.158449
Si Si6 0.803042 0.512663 0.108960
Si Si7 0.217686 0.212328 0.353212
Si Si8 0.306582 0.323303 0.473034
O O1 0.500000 0.151706 0.750000
O O2 0.607858 0.188771 0.742196
O O3 0.700094 0.056106 0.562232
O O4 0.431356 0.076111 0.936362
O O5 0.614050 0.302806 0.822170
O O6 0.664491 0.443144 0.811871
O O7 0.573909 0.332659 0.990022
O O8 0.376694 0.387398 0.129694
O O9 0.500000 0.037595 0.250000
O O10 0.754498 0.098179 0.001869
O O11 0.767285 0.019979 0.874995
O O12 0.154089 0.338165 0.311748
O O13 0.876558 0.288436 0.615517
O O14 0.341373 0.798818 0.073143
O O15 0.392981 0.946576 0.040520
O O16 0.262139 0.182055 0.370747
O O17 0.500000 0.320829 0.250000
O O18 0.250000 0.250000 0.500000
#
# Coordination Sequence:
#
# PCOD9266317 Si02
#       8
#     8   8   8   8   8   8   8   8
#     4   9  20  40  63  88 117 162 203 251 306 369
#     4  10  21  39  60  91 121 157 198 254 311 359
#     4   9  22  41  61  84 124 161 208 248 307 366
#     4  10  21  39  65  91 118 155 210 254 295 361
#     4  10  22  34  60  91 122 151 198 258 299 359
#     4  10  19  37  63  83 123 163 195 249 316 364
#     4  10  23  39  63  86 124 158 207 245 299 364
#     4  12  27  41  62  91 126 169 205 250 305 368
#
# _framework density 21.418396999999999
#
# number of rings (size 3 to 8) (size 9 to 14) (size 15 to 20)
#    0.000    2.250    1.250    1.500   10.500    1.500 
#    2.250    2.500    0.000    0.000    0.000    0.000 
#    0.000    0.000    0.000    0.000    0.000    0.000 
#
# Total GULP energy -178569.303617 kJ/mol
# GULP energy per Si atom -5580.290738 kJ/mol
# Density = 2.136965 g / cm^3
# Si number density = 21.418397 Si / 1000 Ang^3
#
#
#
# Elastic Constant Matrix: (Units=GPa)
#
#
# Indices 1 2 3 4 5 6 
#
# 1 77.6552 53.0842 -8.7000 0.0051 6.5501 -0.0007
# 2 53.0842 100.1864 1.1030 0.0026 14.0899 -0.0007
# 3 -8.7000 1.1030 29.8414 0.0064 -9.6417 -0.0048
# 4 0.0051 0.0026 0.0064 14.0042 -0.0052 3.1506
# 5 6.5501 14.0899 -9.6417 -0.0052 29.8088 0.0025
# 6 -0.0007 -0.0007 -0.0048 3.1506 0.0025 35.3674
#
#
#
# Elastic Compliance Matrix: (Units=1/GPa)
#
#
# Indices 1 2 3 4 5 6 
#
# 1 0.021739 -0.012098 0.007917 -0.000008 0.003502 0.000002
# 2 -0.012098 0.017564 -0.006700 0.000001 -0.007811 0.000000
# 3 0.007917 -0.006700 0.040790 -0.000016 0.014621 0.000006
# 4 -0.000008 0.000001 -0.000016 0.072868 0.000009 -0.006491
# 5 0.003502 -0.007811 0.014621 0.000009 0.041199 -0.000002
# 6 0.000002 0.000000 0.000006 -0.006491 -0.000002 0.028853
#
#
# Mechanical properties :
#
#
# Convention : Reuss Voigt Hill
#
# Bulk Modulus (GPa) = 17.14387 33.18418 25.16402
# Shear Modulus (GPa) = 18.92369 26.64913 22.78641
#
# Velocity S-wave (km/s) = 2.97564 3.53117 3.26524
# Velocity P-wave (km/s) = 4.45281 5.67032 5.09804
#
# Compressibility (1/GPa) = 0.05832990
#
# Stress axis : x y z
#
# Youngs Moduli (GPa) = 45.99980 56.93470 24.51577
#
# Poissons Ratio (x) = 0.68881 -0.19408
# Poissons Ratio (y) = 0.55652 0.16425
# Poissons Ratio (z) = -0.36416 0.38146
#
# Static dielectric constant tensor:
#      x y z
#    x 1.790610 0.000000 0.022850 
#    y 0.000000 1.827750 0.000000 
#    z 0.022850 0.000000 1.850120 
# 
# From -- ./inp_files/258054.got.cif
#   From: 2010.05.17/outbox.cif.g08.bks.cpg/sg15_130_cif.got.tgz:258054.got - 2010.06.03 18:47:42.
