data_PCOD9266084
_publ_section_title
;
Structure prediction by ZEFSAII (Michael W. Deem and Ramdas Pophale) SiO2 
 PCOD9266084
Probable space group: C 2/C
;
_chemical_formula_sum "Si O2"
_cell_formula_units_Z 48
_cell_length_a 12.931704
_cell_length_b 19.247773
_cell_length_c 8.395745
_cell_angle_alpha 90.000000
_cell_angle_beta 81.355272
_cell_angle_gamma 90.000000
_cell_volume 2066.014537
_symmetry_space_group_name_H-M "C 2/C"
_symmetry_group_IT_number 15
_symmetry_cell_setting 'monoclinic'
loop_
_space_group_symop_operation_xyz
x,y,z
-x,y,1/2-z
-x,-y,-z
x,-y,1/2+z
1/2+x,1/2+y,z
1/2-x,1/2+y,1/2-z
1/2-x,1/2-y,-z
1/2+x,1/2-y,1/2+z
loop_
_atom_site_type_symbol
_atom_site_label
_atom_site_fract_x
_atom_site_fract_y
_atom_site_fract_z
Si Si1 0.766976 0.589269 0.714286
Si Si2 0.197950 0.304722 0.791323
Si Si3 0.332360 0.524563 0.460865
Si Si4 0.619316 0.397676 0.839028
Si Si5 0.388831 0.200082 0.838446
Si Si6 0.597097 0.693104 0.615645
O O1 0.755760 0.517682 0.619657
O O2 0.870371 0.629733 0.739419
O O3 0.693186 0.643814 0.641532
O O4 0.715079 0.573748 0.896228
O O5 0.258778 0.373194 0.719690
O O6 0.293639 0.252769 0.817570
O O7 0.135339 0.269487 0.658934
O O8 0.125915 0.311068 0.966575
O O9 0.390218 0.463073 0.540926
O O10 0.402719 0.571804 0.330523
O O11 0.571508 0.332193 0.943902
O O12 0.500000 0.225263 0.750000
O O13 0.500000 0.676226 0.750000
#
# Coordination Sequence:
#
# PCOD9266084 Si02
#       6
#     8   8   8   8   8   8
#     4   9  18  38  58  82 119 153 200 239 297 348
#     4  10  21  38  60  88 123 155 195 243 306 354
#     4   9  18  35  63  80 111 166 194 241 300 340
#     4  10  19  37  60  83 116 157 196 246 293 354
#     4  10  21  37  61  89 119 156 196 246 301 360
#     4  10  22  37  58  91 121 152 198 249 304 359
#
# _framework density 23.233135999999998
#
# number of rings (size 3 to 8) (size 9 to 14) (size 15 to 20)
#    0.000    2.333    1.667    0.500    2.333    0.000 
#    0.000   15.000    0.000    1.000    0.000    0.000 
#    0.000    0.000    0.000    0.000    0.000    0.000 
#
# Total GULP energy -133839.745262 kJ/mol
# GULP energy per Si atom -5576.656053 kJ/mol
# Density = 2.318026 g / cm^3
# Si number density = 23.233136 Si / 1000 Ang^3
#
#
#
# Elastic Constant Matrix: (Units=GPa)
#
#
# Indices 1 2 3 4 5 6 
#
# 1 55.8037 19.4946 37.1712 0.0000 -4.6480 0.0000
# 2 19.4946 65.3895 33.5192 0.0000 14.3647 0.0000
# 3 37.1712 33.5192 145.4769 0.0000 -4.5585 0.0000
# 4 0.0000 0.0000 0.0000 12.7580 0.0000 -7.9952
# 5 -4.6480 14.3647 -4.5585 0.0000 32.4512 0.0000
# 6 0.0000 0.0000 0.0000 -7.9952 0.0000 15.3981
#
#
#
# Elastic Compliance Matrix: (Units=1/GPa)
#
#
# Indices 1 2 3 4 5 6 
#
# 1 0.023376 -0.005851 -0.004458 0.000000 0.005312 0.000000
# 2 -0.005851 0.021340 -0.003761 0.000000 -0.010813 0.000000
# 3 -0.004458 -0.003761 0.008951 0.000000 0.002284 0.000000
# 4 0.000000 0.000000 0.000000 0.116189 0.000000 0.060329
# 5 0.005312 -0.010813 0.002284 0.000000 0.036683 0.000000
# 6 0.000000 0.000000 0.000000 0.060329 0.000000 0.096268
#
#
# Mechanical properties :
#
#
# Convention : Reuss Voigt Hill
#
# Bulk Modulus (GPa) = 39.17287 49.67111 44.42199
# Shear Modulus (GPa) = 14.72940 23.88714 19.30827
#
# Velocity S-wave (km/s) = 2.52063 3.20996 2.88595
# Velocity P-wave (km/s) = 5.03675 5.92995 5.50150
#
# Compressibility (1/GPa) = 0.02552787
#
# Stress axis : x y z
#
# Youngs Moduli (GPa) = 42.77898 46.85940 111.71637
#
# Poissons Ratio (x) = 0.27415 0.49808
# Poissons Ratio (y) = 0.25028 0.42016
# Poissons Ratio (z) = 0.19073 0.17624
#
# Static dielectric constant tensor:
#      x y z
#    x 1.960300 0.000000 0.085680 
#    y 0.000000 1.925030 0.000000 
#    z 0.085680 0.000000 1.909680 
# 
# From -- ./inp_files/40673.got.cif
#   From: 2010.05.17/outbox.cif.g08.bks.cpg/sg15_21_cif.got.tgz:40673.got - 2010.06.03 18:47:42.
