data_PCOD9266982
_publ_section_title
;
Structure prediction by ZEFSAII (Michael W. Deem and Ramdas Pophale) SiO2 
 PCOD9266982
Probable space group: C 2/C
;
_chemical_formula_sum "Si O2"
_cell_formula_units_Z 40
_cell_length_a 16.084952
_cell_length_b 9.696006
_cell_length_c 25.382878
_cell_angle_alpha 90.000000
_cell_angle_beta 28.323150
_cell_angle_gamma 90.000000
_cell_volume 1878.185115
_symmetry_space_group_name_H-M "C 2/C"
_symmetry_group_IT_number 15
_symmetry_cell_setting 'monoclinic'
loop_
_space_group_symop_operation_xyz
x,y,z
-x,y,1/2-z
-x,-y,-z
x,-y,1/2+z
1/2+x,1/2+y,z
1/2-x,1/2+y,1/2-z
1/2-x,1/2-y,-z
1/2+x,1/2-y,1/2+z
loop_
_atom_site_type_symbol
_atom_site_label
_atom_site_fract_x
_atom_site_fract_y
_atom_site_fract_z
Si Si1 0.629143 0.162119 0.322158
Si Si2 0.518871 0.836430 0.997471
Si Si3 0.381700 0.654806 0.768182
Si Si4 0.888289 0.604442 0.939148
Si Si5 0.990287 0.117182 0.158671
O O1 0.608063 0.214203 0.394193
O O2 0.573044 0.279315 0.313072
O O3 0.833107 0.119053 0.203861
O O4 0.509710 0.028752 0.377700
O O5 0.315727 0.796261 0.111982
O O6 0.609857 0.822657 0.003525
O O7 0.500000 0.000000 0.000000
O O8 0.500000 0.703158 0.750000
O O9 0.410903 0.489713 0.745653
O O10 0.970621 0.719607 0.854618
O O11 0.688606 0.566353 0.036682
#
# Coordination Sequence:
#
# PCOD9266982 Si02
#       5
#     8   8   8   8   8
#     4  11  22  42  67  93 134 169 211 273 318 381
#     4  10  19  38  63  95 124 163 215 258 313 384
#     4  12  24  40  68  96 127 172 219 264 322 381
#     4  10  22  39  65  97 129 166 221 262 317 394
#     4  11  21  39  67  93 129 170 212 264 321 378
#
# _framework density 21.297155
#
# number of rings (size 3 to 8) (size 9 to 14) (size 15 to 20)
#    0.000    1.200    6.000    2.400    0.000    3.200 
#    0.000    2.000    8.800    0.000    0.000    0.000 
#    0.000    0.000    0.000    0.000    0.000    0.000 
#
# Total GULP energy -111373.481330 kJ/mol
# GULP energy per Si atom -5568.674067 kJ/mol
# Density = 2.124868 g / cm^3
# Si number density = 21.297155 Si / 1000 Ang^3
#
#
#
# Elastic Constant Matrix: (Units=GPa)
#
#
# Indices 1 2 3 4 5 6 
#
# 1 127.9773 34.1447 47.3708 0.0000 -4.4358 0.0000
# 2 34.1447 38.8958 33.7199 -0.0003 -5.1517 0.0000
# 3 47.3708 33.7199 114.2851 -0.0019 -27.8138 0.0000
# 4 0.0000 -0.0003 -0.0019 25.5316 -0.0002 0.9912
# 5 -4.4358 -5.1517 -27.8138 -0.0002 37.5522 0.0000
# 6 0.0000 0.0000 0.0000 0.9912 0.0000 27.7491
#
#
#
# Elastic Compliance Matrix: (Units=1/GPa)
#
#
# Indices 1 2 3 4 5 6 
#
# 1 0.010697 -0.007269 -0.002714 0.000000 -0.001743 0.000000
# 2 -0.007269 0.039851 -0.009300 0.000000 -0.002280 0.000000
# 3 -0.002714 -0.009300 0.014920 0.000001 0.009454 0.000000
# 4 0.000000 0.000000 0.000001 0.039221 0.000001 -0.001401
# 5 -0.001743 -0.002280 0.009454 0.000001 0.033113 0.000000
# 6 0.000000 0.000000 0.000000 -0.001401 0.000000 0.036087
#
#
# Mechanical properties :
#
#
# Convention : Reuss Voigt Hill
#
# Bulk Modulus (GPa) = 37.17048 56.84766 47.00907
# Shear Modulus (GPa) = 22.58116 29.22810 25.90463
#
# Velocity S-wave (km/s) = 3.25974 3.70860 3.49139
# Velocity P-wave (km/s) = 5.62664 6.71482 6.19467
#
# Compressibility (1/GPa) = 0.02690307
#
# Stress axis : x y z
#
# Youngs Moduli (GPa) = 93.48158 25.09321 67.02566
#
# Poissons Ratio (x) = 0.18240 0.18188
# Poissons Ratio (y) = 0.67953 0.62334
# Poissons Ratio (z) = 0.25367 0.23337
#
# Static dielectric constant tensor:
#      x y z
#    x 1.794960 0.000000 0.003780 
#    y 0.000000 1.797720 0.000000 
#    z 0.003780 0.000000 1.915130 
# 
# From -- ./inp_files/295697.got.cif
#   From: 2010.05.17/outbox.cif.g08.bks.cpg/sg15_148_cif.got.tgz:295697.got - 2010.06.03 18:47:42.
