data_PCOD9266882
_publ_section_title
;
Structure prediction by ZEFSAII (Michael W. Deem and Ramdas Pophale) SiO2 
 PCOD9266882
Probable space group: C 2/C
;
_chemical_formula_sum "Si O2"
_cell_formula_units_Z 48
_cell_length_a 9.352117
_cell_length_b 15.875238
_cell_length_c 13.757047
_cell_angle_alpha 90.000000
_cell_angle_beta 75.795730
_cell_angle_gamma 90.000000
_cell_volume 1980.024381
_symmetry_space_group_name_H-M "C 2/C"
_symmetry_group_IT_number 15
_symmetry_cell_setting 'monoclinic'
loop_
_space_group_symop_operation_xyz
x,y,z
-x,y,1/2-z
-x,-y,-z
x,-y,1/2+z
1/2+x,1/2+y,z
1/2-x,1/2+y,1/2-z
1/2-x,1/2-y,-z
1/2+x,1/2-y,1/2+z
loop_
_atom_site_type_symbol
_atom_site_label
_atom_site_fract_x
_atom_site_fract_y
_atom_site_fract_z
Si Si1 0.185350 0.378480 0.317953
Si Si2 0.802978 0.829392 0.889087
Si Si3 0.663955 0.864931 0.103152
Si Si4 0.674890 0.191157 0.210194
Si Si5 0.581266 0.388767 0.923809
Si Si6 0.948594 0.937666 0.366302
O O1 0.200627 0.405797 0.201566
O O2 0.260831 0.285696 0.313454
O O3 0.273570 0.440569 0.374234
O O4 0.013158 0.369730 0.371626
O O5 0.771586 0.729910 0.898151
O O6 0.742259 0.853271 0.794911
O O7 0.978551 0.830706 0.874257
O O8 0.733700 0.885633 0.986946
O O9 0.500000 0.193025 0.250000
O O10 0.748468 0.135266 0.113462
O O11 0.531852 0.479055 0.889426
O O12 0.533897 0.377727 0.043751
O O13 0.000000 0.912930 0.250000
#
# Coordination Sequence:
#
# PCOD9266882 Si02
#       6
#     8   8   8   8   8   8
#     4  10  20  38  61  99 132 166 218 277 329 387
#     4  10  19  38  62  90 130 173 215 269 329 391
#     4   9  19  34  64  96 130 168 210 275 338 377
#     4  11  23  38  65  99 129 169 229 281 317 382
#     4  11  24  43  67  92 129 181 220 262 339 398
#     4  11  24  41  67  91 129 173 221 265 327 409
#
# _framework density 24.242127
#
# number of rings (size 3 to 8) (size 9 to 14) (size 15 to 20)
#    0.000    1.667    1.667    3.000    2.333    3.333 
#    0.000    0.833   22.000    0.000    0.000    0.000 
#    0.000    0.000    0.000    0.000    0.000    0.000 
#
# Total GULP energy -133898.411154 kJ/mol
# GULP energy per Si atom -5579.100465 kJ/mol
# Density = 2.418695 g / cm^3
# Si number density = 24.242127 Si / 1000 Ang^3
#
#
#
# Elastic Constant Matrix: (Units=GPa)
#
#
# Indices 1 2 3 4 5 6 
#
# 1 135.6156 32.7957 48.5962 0.0000 -15.1658 0.0000
# 2 32.7957 49.3881 24.7766 0.0000 -8.1956 0.0000
# 3 48.5962 24.7766 134.6188 0.0000 -8.5195 0.0000
# 4 0.0000 0.0000 0.0000 21.9929 0.0000 -1.4343
# 5 -15.1658 -8.1956 -8.5195 0.0000 36.2503 0.0000
# 6 0.0000 0.0000 0.0000 -1.4343 0.0000 21.8318
#
#
#
# Elastic Compliance Matrix: (Units=1/GPa)
#
#
# Indices 1 2 3 4 5 6 
#
# 1 0.009683 -0.004799 -0.002461 0.000000 0.002388 0.000000
# 2 -0.004799 0.025315 -0.002732 0.000000 0.003073 0.000000
# 3 -0.002461 -0.002732 0.008847 0.000000 0.000432 0.000000
# 4 0.000000 0.000000 0.000000 0.045665 0.000000 0.003000
# 5 0.002388 0.003073 0.000432 0.000000 0.029381 0.000000
# 6 0.000000 0.000000 0.000000 0.003000 0.000000 0.046002
#
#
# Mechanical properties :
#
#
# Convention : Reuss Voigt Hill
#
# Bulk Modulus (GPa) = 41.91048 59.10662 50.50855
# Shear Modulus (GPa) = 25.92923 30.24528 28.08725
#
# Velocity S-wave (km/s) = 3.27401 3.53602 3.40753
# Velocity P-wave (km/s) = 5.62299 6.41139 6.03009
#
# Compressibility (1/GPa) = 0.02386038
#
# Stress axis : x y z
#
# Youngs Moduli (GPa) = 103.27043 39.50161 113.03178
#
# Poissons Ratio (x) = 0.18958 0.27819
# Poissons Ratio (y) = 0.49561 0.30884
# Poissons Ratio (z) = 0.25417 0.10793
#
# Static dielectric constant tensor:
#      x y z
#    x 1.949420 0.000000 -0.031170 
#    y 0.000000 1.977080 0.000000 
#    z -0.031170 0.000000 2.084480 
# 
# From -- ./inp_files/135898.got.cif
#   From: 2010.05.17/outbox.cif.g08.bks.cpg/sg15_68_cif.got.tgz:135898.got - 2010.06.03 18:47:42.
