data_PCOD9266911
_publ_section_title
;
Structure prediction by ZEFSAII (Michael W. Deem and Ramdas Pophale) SiO2 
 PCOD9266911
Probable space group: C 2/C
;
_chemical_formula_sum "Si O2"
_cell_formula_units_Z 56
_cell_length_a 11.442800
_cell_length_b 28.824603
_cell_length_c 9.429750
_cell_angle_alpha 90.000000
_cell_angle_beta 67.630503
_cell_angle_gamma 90.000000
_cell_volume 2876.203337
_symmetry_space_group_name_H-M "C 2/C"
_symmetry_group_IT_number 15
_symmetry_cell_setting 'monoclinic'
loop_
_space_group_symop_operation_xyz
x,y,z
-x,y,1/2-z
-x,-y,-z
x,-y,1/2+z
1/2+x,1/2+y,z
1/2-x,1/2+y,1/2-z
1/2-x,1/2-y,-z
1/2+x,1/2-y,1/2+z
loop_
_atom_site_type_symbol
_atom_site_label
_atom_site_fract_x
_atom_site_fract_y
_atom_site_fract_z
Si Si1 0.606923 0.067535 0.983199
Si Si2 0.218272 0.604995 0.653485
Si Si3 0.815215 0.679112 0.058555
Si Si4 0.181479 0.536263 0.430905
Si Si5 0.562586 0.731573 0.070356
Si Si6 0.255329 0.605075 0.173168
Si Si7 0.502628 0.355383 0.417804
O O1 0.646836 0.099528 0.833764
O O2 0.682144 0.018922 0.932023
O O3 0.460467 0.053345 0.043396
O O4 0.649258 0.091700 0.108038
O O5 0.153824 0.642314 0.578924
O O6 0.211180 0.556672 0.571767
O O7 0.363223 0.620607 0.607583
O O8 0.690801 0.705483 0.059053
O O9 0.784745 0.649222 0.212083
O O10 0.914492 0.720663 0.023725
O O11 0.268882 0.562336 0.276783
O O12 0.500000 0.742487 0.250000
O O13 0.494679 0.693757 0.003565
O O14 0.384448 0.615335 0.030339
O O15 0.500000 0.349399 0.250000
#
# Coordination Sequence:
#
# PCOD9266911 Si02
#       7
#     8   8   8   8   8   8   8
#     4  11  21  40  62  90 127 160 204 254 305 358
#     4  10  21  38  62  87 121 160 207 248 298 370
#     4   9  21  36  58  93 112 154 210 242 297 365
#     4  10  23  38  61  91 123 167 205 249 304 360
#     4  10  19  38  63  83 120 159 198 250 298 368
#     4  11  21  39  63  91 127 162 204 253 307 368
#     4  11  22  41  62  89 122 166 201 253 319 362
#
# _framework density 19.470113000000001
#
# number of rings (size 3 to 8) (size 9 to 14) (size 15 to 20)
#    0.000    1.714    2.857    1.714    0.000    4.571 
#    0.000    9.286    0.000    0.000    0.000    0.000 
#    0.000    0.000    0.000    0.000    0.000    0.000 
#
# Total GULP energy -156316.556325 kJ/mol
# GULP energy per Si atom -5582.734154 kJ/mol
# Density = 1.942580 g / cm^3
# Si number density = 19.470113 Si / 1000 Ang^3
#
#
#
# Elastic Constant Matrix: (Units=GPa)
#
#
# Indices 1 2 3 4 5 6 
#
# 1 53.1357 28.4553 17.2063 0.0000 9.0601 0.0000
# 2 28.4553 95.0220 40.8430 0.0000 -2.7682 0.0000
# 3 17.2063 40.8430 117.3659 0.0000 9.1956 0.0000
# 4 0.0000 0.0000 0.0000 7.0814 0.0000 -4.8231
# 5 9.0601 -2.7682 9.1956 0.0000 30.0480 0.0000
# 6 0.0000 0.0000 0.0000 -4.8231 0.0000 23.7585
#
#
#
# Elastic Compliance Matrix: (Units=1/GPa)
#
#
# Indices 1 2 3 4 5 6 
#
# 1 0.024198 -0.007308 -0.000389 0.000000 -0.007850 0.000000
# 2 -0.007308 0.014771 -0.004455 0.000000 0.004927 0.000000
# 3 -0.000389 -0.004455 0.010400 0.000000 -0.003476 0.000000
# 4 0.000000 0.000000 0.000000 0.163872 0.000000 0.033267
# 5 -0.007850 0.004927 -0.003476 0.000000 0.037165 0.000000
# 6 0.000000 0.000000 0.000000 0.033267 0.000000 0.048843
#
#
# Mechanical properties :
#
#
# Convention : Reuss Voigt Hill
#
# Bulk Modulus (GPa) = 39.89682 48.72586 44.31134
# Shear Modulus (GPa) = 15.06445 24.11218 19.58831
#
# Velocity S-wave (km/s) = 2.78460 3.52294 3.17530
# Velocity P-wave (km/s) = 5.55648 6.45201 6.02092
#
# Compressibility (1/GPa) = 0.02506466
#
# Stress axis : x y z
#
# Youngs Moduli (GPa) = 41.32625 67.70221 96.15337
#
# Poissons Ratio (x) = 0.49474 0.03744
# Poissons Ratio (y) = 0.30199 0.42835
# Poissons Ratio (z) = 0.01609 0.30160
#
# Static dielectric constant tensor:
#      x y z
#    x 1.686710 0.000000 -0.014670 
#    y 0.000000 1.686000 0.000000 
#    z -0.014670 0.000000 1.667240 
# 
# From -- ./inp_files/34214.got.cif
#   From: 2010.05.17/outbox.cif.g08.bks.cpg/sg15_18_cif.got.tgz:34214.got - 2010.06.03 18:47:42.
