data_PCOD9266214
_publ_section_title
;
Structure prediction by ZEFSAII (Michael W. Deem and Ramdas Pophale) SiO2 
 PCOD9266214
Probable space group: C 2/C
;
_chemical_formula_sum "Si O2"
_cell_formula_units_Z 64
_cell_length_a 8.406691
_cell_length_b 14.078159
_cell_length_c 29.996012
_cell_angle_alpha 90.000000
_cell_angle_beta 123.167110
_cell_angle_gamma 90.000000
_cell_volume 2971.670517
_symmetry_space_group_name_H-M "C 2/C"
_symmetry_group_IT_number 15
_symmetry_cell_setting 'monoclinic'
loop_
_space_group_symop_operation_xyz
x,y,z
-x,y,1/2-z
-x,-y,-z
x,-y,1/2+z
1/2+x,1/2+y,z
1/2-x,1/2+y,1/2-z
1/2-x,1/2-y,-z
1/2+x,1/2-y,1/2+z
loop_
_atom_site_type_symbol
_atom_site_label
_atom_site_fract_x
_atom_site_fract_y
_atom_site_fract_z
Si Si1 0.555482 0.474643 0.135381
Si Si2 0.755930 0.639480 0.880690
Si Si3 0.648620 0.453692 0.558572
Si Si4 0.832219 0.441629 0.256647
Si Si5 0.895032 0.163349 0.143136
Si Si6 0.936055 0.761746 0.556164
Si Si7 0.788073 0.250415 0.713497
Si Si8 0.413295 0.950627 0.858183
O O1 0.431863 0.380844 0.121075
O O2 0.652723 0.479274 0.102949
O O3 0.685151 0.483297 0.198691
O O4 0.421705 0.566412 0.119132
O O5 0.725855 0.723548 0.840785
O O6 0.814803 0.544320 0.864019
O O7 0.934109 0.671931 0.935786
O O8 0.500000 0.500000 0.500000
O O9 0.555024 0.353909 0.558980
O O10 0.877076 0.438916 0.587659
O O11 0.731966 0.350675 0.264254
O O12 0.905355 0.518216 0.304500
O O13 0.000000 0.406915 0.250000
O O14 0.876408 0.238234 0.099692
O O15 0.724089 0.138735 0.150637
O O16 0.098359 0.190866 0.196267
O O17 0.750000 0.750000 0.500000
O O18 0.000000 0.292229 0.750000
#
# Coordination Sequence:
#
# PCOD9266214 Si02
#       8
#     8   8   8   8   8   8   8   8
#     4  10  20  40  61  89 121 166 214 249 314 380
#     4   9  19  37  64  86 118 164 200 252 311 374
#     4  11  23  40  63  92 122 159 212 270 318 374
#     4  11  21  38  62  92 128 168 206 250 318 384
#     4   9  22  39  60  92 125 163 210 256 312 380
#     4  10  21  41  63  87 122 166 212 256 319 382
#     4  10  19  37  61  91 127 163 205 251 311 376
#     4  10  21  40  64  91 127 160 209 262 313 377
#
# _framework density 21.536708000000001
#
# number of rings (size 3 to 8) (size 9 to 14) (size 15 to 20)
#    0.000    2.000    2.500    0.750    0.000    1.500 
#    6.750    5.000    0.000    0.000    0.000    0.000 
#    0.000    0.000    0.000    0.000    0.000    0.000 
#
# Total GULP energy -178177.808071 kJ/mol
# GULP energy per Si atom -5568.056502 kJ/mol
# Density = 2.148769 g / cm^3
# Si number density = 21.536708 Si / 1000 Ang^3
#
#
#
# Elastic Constant Matrix: (Units=GPa)
#
#
# Indices 1 2 3 4 5 6 
#
# 1 106.2602 23.8433 42.1177 0.0000 21.6776 0.0000
# 2 23.8433 38.0500 17.7849 0.0000 1.6730 0.0000
# 3 42.1177 17.7849 105.2928 0.0000 26.2901 0.0000
# 4 0.0000 0.0000 0.0000 20.0503 0.0000 19.2252
# 5 21.6776 1.6730 26.2901 0.0000 32.3090 0.0000
# 6 0.0000 0.0000 0.0000 19.2252 0.0000 17.7756
#
#
#
# Elastic Compliance Matrix: (Units=1/GPa)
#
#
# Indices 1 2 3 4 5 6 
#
# 1 0.013276 -0.006850 -0.002532 0.000000 -0.006492 0.000000
# 2 -0.006850 0.032313 -0.004327 0.000000 0.006444 0.000000
# 3 -0.002532 -0.004327 0.013505 0.000000 -0.009066 0.000000
# 4 0.000000 0.000000 0.000000 -1.346566 0.000000 1.456374
# 5 -0.006492 0.006444 -0.009066 0.000000 0.042350 0.000000
# 6 0.000000 0.000000 0.000000 1.456374 0.000000 -1.518880
#
#
# Mechanical properties :
#
#
# Convention : Reuss Voigt Hill
#
# Bulk Modulus (GPa) = 31.57057 46.34385 38.95721
# Shear Modulus (GPa) = -1.83417 25.08411 11.62497
#
# Velocity S-wave (km/s) = -0.92385 3.41649 2.32583
# Velocity P-wave (km/s) = 3.68141 6.09332 5.03395
#
# Compressibility (1/GPa) = 0.03167507
#
# Stress axis : x y z
#
# Youngs Moduli (GPa) = 75.32304 30.94756 74.04810
#
# Poissons Ratio (x) = 0.21199 0.18753
# Poissons Ratio (y) = 0.51597 0.32038
# Poissons Ratio (z) = 0.19075 0.13390
#
# Static dielectric constant tensor:
#      x y z
#    x 1.843220 0.000000 -0.010820 
#    y 0.000000 1.824110 0.000000 
#    z -0.010820 0.000000 1.740960 
# 
# From -- ./inp_files/308288.got.cif
#   From: 2010.05.17/outbox.cif.g08.bks.cpg/sg15_155_cif.got.tgz:308288.got - 2010.06.03 18:47:42.
