data_PCOD9266507
_publ_section_title
;
Structure prediction by ZEFSAII (Michael W. Deem and Ramdas Pophale) SiO2 
 PCOD9266507
Probable space group: C 2/C
;
_chemical_formula_sum "Si O2"
_cell_formula_units_Z 56
_cell_length_a 11.870271
_cell_length_b 29.668858
_cell_length_c 9.230176
_cell_angle_alpha 90.000000
_cell_angle_beta 55.496914
_cell_angle_gamma 90.000000
_cell_volume 2678.854241
_symmetry_space_group_name_H-M "C 2/C"
_symmetry_group_IT_number 15
_symmetry_cell_setting 'monoclinic'
loop_
_space_group_symop_operation_xyz
x,y,z
-x,y,1/2-z
-x,-y,-z
x,-y,1/2+z
1/2+x,1/2+y,z
1/2-x,1/2+y,1/2-z
1/2-x,1/2-y,-z
1/2+x,1/2-y,1/2+z
loop_
_atom_site_type_symbol
_atom_site_label
_atom_site_fract_x
_atom_site_fract_y
_atom_site_fract_z
Si Si1 0.615802 0.163406 0.040076
Si Si2 0.857354 0.715268 0.764698
Si Si3 0.357691 0.476836 0.629065
Si Si4 0.236101 0.115879 0.340898
Si Si5 0.162696 0.817601 0.641679
Si Si6 0.826202 0.487849 0.476266
Si Si7 0.496408 0.927408 0.971161
O O1 0.500000 0.171398 0.250000
O O2 0.748542 0.149641 0.036473
O O3 0.584478 0.119163 0.964317
O O4 0.625870 0.202359 0.915067
O O5 0.815635 0.767660 0.807717
O O6 0.000000 0.710004 0.750000
O O7 0.743230 0.685414 0.930934
O O8 0.500000 0.500000 0.500000
O O9 0.368551 0.425045 0.568918
O O10 0.234716 0.503153 0.636353
O O11 0.307979 0.478178 0.829968
O O12 0.219468 0.144481 0.207371
O O13 0.377979 0.088025 0.223070
O O14 0.000000 0.824362 0.750000
O O15 0.929124 0.447485 0.441587
O O16 0.905121 0.532692 0.471978
#
# Coordination Sequence:
#
# PCOD9266507 Si02
#       7
#     8   8   8   8   8   8   8
#     4  10  19  37  65  99 130 156 205 273 332 380
#     4  10  21  42  69  98 127 169 218 265 329 396
#     4  11  23  41  57  81 124 174 210 253 318 386
#     4  10  21  39  62  86 126 166 205 268 324 380
#     4  10  23  44  65  91 135 174 212 267 326 399
#     4  10  21  38  59  84 120 160 207 262 318 370
#     4   9  19  35  61  89 117 152 204 264 323 363
#
# _framework density 20.90446
#
# number of rings (size 3 to 8) (size 9 to 14) (size 15 to 20)
#    0.000    2.000    1.429    2.143    2.000    4.571 
#   12.857    0.714    0.000    0.000    0.000    0.000 
#    0.000    0.000    0.000    0.000    0.000    0.000 
#
# Total GULP energy -156204.133993 kJ/mol
# GULP energy per Si atom -5578.719071 kJ/mol
# Density = 2.085688 g / cm^3
# Si number density = 20.904460 Si / 1000 Ang^3
#
#
#
# Elastic Constant Matrix: (Units=GPa)
#
#
# Indices 1 2 3 4 5 6 
#
# 1 61.5234 32.0583 35.6296 0.0000 -3.6609 0.0000
# 2 32.0583 60.7428 36.2260 0.0000 10.1902 0.0000
# 3 35.6296 36.2260 101.8063 0.0000 9.6682 0.0000
# 4 0.0000 0.0000 0.0000 28.6746 0.0000 7.1285
# 5 -3.6609 10.1902 9.6682 0.0000 32.5121 0.0000
# 6 0.0000 0.0000 0.0000 7.1285 0.0000 21.0475
#
#
#
# Elastic Compliance Matrix: (Units=1/GPa)
#
#
# Indices 1 2 3 4 5 6 
#
# 1 0.026257 -0.011816 -0.005781 0.000000 0.008379 0.000000
# 2 -0.011816 0.026864 -0.004629 0.000000 -0.008374 0.000000
# 3 -0.005781 -0.004629 0.013807 0.000000 -0.003306 0.000000
# 4 0.000000 0.000000 0.000000 0.038080 0.000000 -0.012897
# 5 0.008379 -0.008374 -0.003306 0.000000 0.035309 0.000000
# 6 0.000000 0.000000 0.000000 -0.012897 0.000000 0.051880
#
#
# Mechanical properties :
#
#
# Convention : Reuss Voigt Hill
#
# Bulk Modulus (GPa) = 44.48862 47.98893 46.23877
# Shear Modulus (GPa) = 20.48003 24.45741 22.46872
#
# Velocity S-wave (km/s) = 3.13341 3.42418 3.28202
# Velocity P-wave (km/s) = 5.86678 6.21607 6.04395
#
# Compressibility (1/GPa) = 0.02247766
#
# Stress axis : x y z
#
# Youngs Moduli (GPa) = 38.08469 37.22414 72.42924
#
# Poissons Ratio (x) = 0.43984 0.41868
# Poissons Ratio (y) = 0.45001 0.33525
# Poissons Ratio (z) = 0.22015 0.17230
#
# Static dielectric constant tensor:
#      x y z
#    x 1.787930 0.000000 -0.000860 
#    y 0.000000 1.759990 0.000000 
#    z -0.000860 0.000000 1.743860 
# 
# From -- ./inp_files/35600.got.cif
#   From: 2010.05.17/outbox.cif.g08.bks.cpg/sg15_18_cif.got.tgz:35600.got - 2010.06.03 18:47:42.
