data_PCOD9266026
_publ_section_title
;
Structure prediction by ZEFSAII (Michael W. Deem and Ramdas Pophale) SiO2 
 PCOD9266026
Probable space group: C 2/C
;
_chemical_formula_sum "Si O2"
_cell_formula_units_Z 48
_cell_length_a 22.347652
_cell_length_b 12.301467
_cell_length_c 24.850926
_cell_angle_alpha 90.000000
_cell_angle_beta 18.347500
_cell_angle_gamma 90.000000
_cell_volume 2150.491628
_symmetry_space_group_name_H-M "C 2/C"
_symmetry_group_IT_number 15
_symmetry_cell_setting 'monoclinic'
loop_
_space_group_symop_operation_xyz
x,y,z
-x,y,1/2-z
-x,-y,-z
x,-y,1/2+z
1/2+x,1/2+y,z
1/2-x,1/2+y,1/2-z
1/2-x,1/2-y,-z
1/2+x,1/2-y,1/2+z
loop_
_atom_site_type_symbol
_atom_site_label
_atom_site_fract_x
_atom_site_fract_y
_atom_site_fract_z
Si Si1 0.178766 0.348170 0.632654
Si Si2 0.675337 0.904880 0.135524
Si Si3 0.218930 0.633862 0.715265
Si Si4 0.279019 0.911663 0.170485
Si Si5 0.058248 0.130640 0.354067
Si Si6 0.988407 0.291701 0.617505
O O1 0.221224 0.471262 0.578884
O O2 0.341035 0.258675 0.492540
O O3 0.000000 0.313421 0.750000
O O4 0.138176 0.354320 0.731332
O O5 0.500000 0.863219 0.250000
O O6 0.612041 0.902542 0.252193
O O7 0.882689 0.848963 0.962231
O O8 0.151779 0.578274 0.827209
O O9 0.185227 0.762939 0.748897
O O10 0.439722 0.613324 0.510861
O O11 0.430270 0.865012 0.999318
O O12 0.124170 0.814128 0.306551
O O13 0.176677 0.022747 0.240694
#
# Coordination Sequence:
#
# PCOD9266026 Si02
#       6
#     8   8   8   8   8   8
#     4  10  19  37  59  87 122 159 202 247 303 359
#     4   9  21  39  62  82 117 161 207 248 302 348
#     4  10  22  38  63  85 120 163 199 250 310 348
#     4  11  21  39  60  93 126 156 202 251 301 369
#     4  10  22  40  61  87 125 159 203 253 304 355
#     4  10  21  34  60  91 122 162 198 247 305 364
#
# _framework density 22.320477
#
# number of rings (size 3 to 8) (size 9 to 14) (size 15 to 20)
#    1.000    1.000    1.667    2.000    0.000    4.667 
#    0.000    2.500    0.000    0.000    0.000    0.000 
#    0.000    0.000    0.000    0.000    0.000    0.000 
#
# Total GULP energy -133876.446477 kJ/mol
# GULP energy per Si atom -5578.185270 kJ/mol
# Density = 2.226967 g / cm^3
# Si number density = 22.320477 Si / 1000 Ang^3
#
#
#
# Elastic Constant Matrix: (Units=GPa)
#
#
# Indices 1 2 3 4 5 6 
#
# 1 89.3900 1.5776 5.8547 -0.0151 -8.1411 -0.0025
# 2 1.5776 81.9937 18.0846 -0.0354 -12.1217 -0.0050
# 3 5.8547 18.0846 52.2123 -0.0450 4.2232 -0.0029
# 4 -0.0151 -0.0354 -0.0450 31.4427 0.0042 -4.1398
# 5 -8.1411 -12.1217 4.2232 0.0042 35.8901 0.0053
# 6 -0.0025 -0.0050 -0.0029 -4.1398 0.0053 9.9240
#
#
#
# Elastic Compliance Matrix: (Units=1/GPa)
#
#
# Indices 1 2 3 4 5 6 
#
# 1 0.011568 0.000614 -0.001755 0.000004 0.003038 0.000003
# 2 0.000614 0.014209 -0.005442 0.000009 0.005579 0.000006
# 3 -0.001755 -0.005442 0.021621 0.000027 -0.004780 0.000017
# 4 0.000004 0.000009 0.000027 0.033652 -0.000005 0.014038
# 5 0.003038 0.005579 -0.004780 -0.000005 0.030999 -0.000017
# 6 0.000003 0.000006 0.000017 0.014038 -0.000017 0.106622
#
#
# Mechanical properties :
#
#
# Convention : Reuss Voigt Hill
#
# Bulk Modulus (GPa) = 29.21313 30.51441 29.86377
# Shear Modulus (GPa) = 20.55518 28.65663 24.60591
#
# Velocity S-wave (km/s) = 3.03794 3.58700 3.32383
# Velocity P-wave (km/s) = 5.04202 5.55483 5.30463
#
# Compressibility (1/GPa) = 0.03423118
#
# Stress axis : x y z
#
# Youngs Moduli (GPa) = 86.44736 70.37693 46.25154
#
# Poissons Ratio (x) = -0.04319 0.08119
# Poissons Ratio (y) = -0.05305 0.25168
# Poissons Ratio (z) = 0.15175 0.38297
#
# Static dielectric constant tensor:
#      x y z
#    x 1.868330 0.000000 -0.009260 
#    y 0.000000 1.807440 0.000020 
#    z -0.009260 0.000020 1.852950 
# 
# From -- ./inp_files/302205.got.cif
#   From: 2010.05.17/outbox.cif.g08.bks.cpg/sg15_152_cif.got.tgz:302205.got - 2010.06.03 18:47:42.
