data_PCOD9266444
_publ_section_title
;
Structure prediction by ZEFSAII (Michael W. Deem and Ramdas Pophale) SiO2 
 PCOD9266444
Probable space group: C 2/C
;
_chemical_formula_sum "Si O2"
_cell_formula_units_Z 32
_cell_length_a 4.972936
_cell_length_b 18.525756
_cell_length_c 13.197477
_cell_angle_alpha 90.000000
_cell_angle_beta 105.917802
_cell_angle_gamma 90.000000
_cell_volume 1169.228880
_symmetry_space_group_name_H-M "C 2/C"
_symmetry_group_IT_number 15
_symmetry_cell_setting 'monoclinic'
loop_
_space_group_symop_operation_xyz
x,y,z
-x,y,1/2-z
-x,-y,-z
x,-y,1/2+z
1/2+x,1/2+y,z
1/2-x,1/2+y,1/2-z
1/2-x,1/2-y,-z
1/2+x,1/2-y,1/2+z
loop_
_atom_site_type_symbol
_atom_site_label
_atom_site_fract_x
_atom_site_fract_y
_atom_site_fract_z
Si Si1 0.191220 0.447649 0.902559
Si Si2 0.680855 0.646629 0.392055
Si Si3 0.412279 0.783336 0.417552
Si Si4 0.754412 0.065570 0.649047
O O1 0.459860 0.417371 0.874398
O O2 0.949324 0.386346 0.864753
O O3 0.034774 0.521928 0.860701
O O4 0.282691 0.448585 0.030591
O O5 0.503779 0.718541 0.355049
O O6 0.817453 0.672937 0.512458
O O7 0.250000 0.750000 0.500000
O O8 0.256222 0.847723 0.345986
O O9 0.000000 0.043071 0.750000
#
# Coordination Sequence:
#
# PCOD9266444 Si02
#       4
#     8   8   8   8
#     4  10  22  41  65  91 127 173 209 261 324 374
#     4  10  19  39  66  90 123 171 210 251 325 386
#     4  10  19  37  64  96 122 167 210 259 320 383
#     4  10  22  41  64  97 127 166 217 267 315 380
#
# _framework density 27.368466000000002
#
# number of rings (size 3 to 8) (size 9 to 14) (size 15 to 20)
#    0.000    2.000    5.000    0.000    0.000    9.000 
#    0.000   13.750    0.000    0.000    0.000    0.000 
#    0.000    0.000    0.000    0.000    0.000    0.000 
#
# Total GULP energy -89468.404980 kJ/mol
# GULP energy per Si atom -5591.775311 kJ/mol
# Density = 2.730617 g / cm^3
# Si number density = 27.368466 Si / 1000 Ang^3
#
#
#
# Elastic Constant Matrix: (Units=GPa)
#
#
# Indices 1 2 3 4 5 6 
#
# 1 161.0882 58.0124 67.8203 0.0000 25.2397 0.0000
# 2 58.0124 231.8716 60.7776 0.0000 19.8081 0.0000
# 3 67.8203 60.7776 172.8115 0.0000 25.7499 0.0000
# 4 0.0000 0.0000 0.0000 -5.2069 0.0000 38.3946
# 5 25.2397 19.8081 25.7499 0.0000 31.3617 0.0000
# 6 0.0000 0.0000 0.0000 38.3946 0.0000 42.5096
#
#
#
# Elastic Compliance Matrix: (Units=1/GPa)
#
#
# Indices 1 2 3 4 5 6 
#
# 1 0.008178 -0.001120 -0.002211 0.000000 -0.004059 0.000000
# 2 -0.001120 0.005001 -0.001120 0.000000 -0.001338 0.000000
# 3 -0.002211 -0.001120 0.007608 0.000000 -0.003760 0.000000
# 4 0.000000 0.000000 0.000000 -0.025072 0.000000 0.022645
# 5 -0.004059 -0.001338 -0.003760 0.000000 0.039085 0.000000
# 6 0.000000 0.000000 0.000000 0.022645 0.000000 0.003071
#
#
# Mechanical properties :
#
#
# Convention : Reuss Voigt Hill
#
# Bulk Modulus (GPa) = 84.13258 104.33243 94.23251
# Shear Modulus (GPa) = 98.55327 39.01029 68.78178
#
# Velocity S-wave (km/s) = 6.00733 3.77951 5.01860
# Velocity P-wave (km/s) = 8.88396 7.56640 8.25152
#
# Compressibility (1/GPa) = 0.01188600
#
# Stress axis : x y z
#
# Youngs Moduli (GPa) = 122.28268 199.97072 131.43226
#
# Poissons Ratio (x) = 0.22392 0.29056
# Poissons Ratio (y) = 0.13693 0.14720
# Poissons Ratio (z) = 0.27034 0.22396
#
# Static dielectric constant tensor:
#      x y z
#    x 2.198200 0.000000 -0.075890 
#    y 0.000000 2.203000 0.000000 
#    z -0.075890 0.000000 2.133970 
# 
# From -- ./inp_files/128382.got.cif
#   From: 2010.05.17/outbox.cif.g08.bks.cpg/sg15_65_cif.got.tgz:128382.got - 2010.06.03 18:47:42.
