data_PCOD9266751
_publ_section_title
;
Structure prediction by ZEFSAII (Michael W. Deem and Ramdas Pophale) SiO2 
 PCOD9266751
Probable space group: C 2/C
;
_chemical_formula_sum "Si O2"
_cell_formula_units_Z 56
_cell_length_a 8.923062
_cell_length_b 31.576204
_cell_length_c 14.536275
_cell_angle_alpha 90.000000
_cell_angle_beta 135.749093
_cell_angle_gamma 90.000000
_cell_volume 2857.979076
_symmetry_space_group_name_H-M "C 2/C"
_symmetry_group_IT_number 15
_symmetry_cell_setting 'monoclinic'
loop_
_space_group_symop_operation_xyz
x,y,z
-x,y,1/2-z
-x,-y,-z
x,-y,1/2+z
1/2+x,1/2+y,z
1/2-x,1/2+y,1/2-z
1/2-x,1/2-y,-z
1/2+x,1/2-y,1/2+z
loop_
_atom_site_type_symbol
_atom_site_label
_atom_site_fract_x
_atom_site_fract_y
_atom_site_fract_z
Si Si1 0.998289 0.725944 0.142435
Si Si2 0.999004 0.903268 0.107710
Si Si3 0.022054 0.192433 0.961298
Si Si4 0.734685 0.079685 0.317462
Si Si5 0.252794 0.464446 0.649222
Si Si6 0.676538 0.062550 0.612456
Si Si7 0.117490 0.165224 0.204894
O O1 0.153586 0.687475 0.190309
O O2 0.000000 0.739492 0.250000
O O3 0.760093 0.705999 0.029045
O O4 0.090580 0.765177 0.123908
O O5 0.807366 0.908837 0.097702
O O6 0.213873 0.924582 0.243032
O O7 0.034942 0.853480 0.104080
O O8 0.900022 0.925591 0.973848
O O9 0.013061 0.186626 0.067559
O O10 0.500000 0.093449 0.250000
O O11 0.696152 0.040811 0.232064
O O12 0.836683 0.116940 0.301686
O O13 0.500000 0.452071 0.750000
O O14 0.234371 0.513725 0.615053
O O15 0.079883 0.437026 0.515390
O O16 0.000000 0.169399 0.250000
#
# Coordination Sequence:
#
# PCOD9266751 Si02
#       7
#     8   8   8   8   8   8   8
#     4   9  18  33  55  89 120 154 207 257 304 372
#     4  10  19  38  60  88 121 162 211 259 308 375
#     4   9  19  34  58  87 117 159 210 254 308 374
#     4  11  21  37  63  88 114 164 215 264 308 379
#     4  11  22  40  60  88 124 159 211 258 316 383
#     4  10  22  38  59  90 123 162 201 260 322 377
#     4  10  20  35  54  82 120 158 205 262 311 371
#
# _framework density 19.594265
#
# number of rings (size 3 to 8) (size 9 to 14) (size 15 to 20)
#    0.000    2.000    2.857    2.571    2.000    1.143 
#    0.000    0.714    0.000    3.429    0.000    0.000 
#    0.000    0.000    0.000    0.000    0.000    0.000 
#
# Total GULP energy -155909.147472 kJ/mol
# GULP energy per Si atom -5568.183838 kJ/mol
# Density = 1.954967 g / cm^3
# Si number density = 19.594265 Si / 1000 Ang^3
#
#
#
# Elastic Constant Matrix: (Units=GPa)
#
#
# Indices 1 2 3 4 5 6 
#
# 1 75.1742 11.0810 28.6058 0.0000 -11.3982 0.0000
# 2 11.0810 33.9251 20.2089 0.0000 -5.7813 0.0000
# 3 28.6058 20.2089 118.5507 0.0000 16.1425 0.0000
# 4 0.0000 0.0000 0.0000 7.9272 0.0000 -15.5479
# 5 -11.3982 -5.7813 16.1425 0.0000 27.6228 0.0000
# 6 0.0000 0.0000 0.0000 -15.5479 0.0000 5.8518
#
#
#
# Elastic Compliance Matrix: (Units=1/GPa)
#
#
# Indices 1 2 3 4 5 6 
#
# 1 0.016940 -0.000658 -0.005333 0.000000 0.009969 0.000000
# 2 -0.000658 0.036236 -0.007620 0.000000 0.011766 0.000000
# 3 -0.005333 -0.007620 0.012535 0.000000 -0.011121 0.000000
# 4 0.000000 0.000000 0.000000 -0.029956 0.000000 -0.079591
# 5 0.009969 0.011766 -0.011121 0.000000 0.049277 0.000000
# 6 0.000000 0.000000 0.000000 -0.079591 0.000000 -0.040580
#
#
# Mechanical properties :
#
#
# Convention : Reuss Voigt Hill
#
# Bulk Modulus (GPa) = 25.98099 38.60459 32.29279
# Shear Modulus (GPa) = 59.16833 19.46398 39.31615
#
# Velocity S-wave (km/s) = 5.50112 3.15517 4.48427
# Velocity P-wave (km/s) = 7.32380 5.74615 6.58241
#
# Compressibility (1/GPa) = 0.03848968
#
# Stress axis : x y z
#
# Youngs Moduli (GPa) = 59.03107 27.59681 79.77433
#
# Poissons Ratio (x) = 0.01815 0.42543
# Poissons Ratio (y) = 0.03882 0.60792
# Poissons Ratio (z) = 0.31481 0.21030
#
# Static dielectric constant tensor:
#      x y z
#    x 1.699310 0.000000 -0.020930 
#    y 0.000000 1.694120 0.000000 
#    z -0.020930 0.000000 1.818200 
# 
# From -- ./inp_files/139580.got.cif
#   From: 2010.05.17/outbox.cif.g08.bks.cpg/sg15_70_cif.got.tgz:139580.got - 2010.06.03 18:47:42.
