data_PCOD9266405
_publ_section_title
;
Structure prediction by ZEFSAII (Michael W. Deem and Ramdas Pophale) SiO2 
 PCOD9266405
Probable space group: C 2/C
;
_chemical_formula_sum "Si O2"
_cell_formula_units_Z 48
_cell_length_a 8.869722
_cell_length_b 21.554709
_cell_length_c 22.617795
_cell_angle_alpha 90.000000
_cell_angle_beta 34.362999
_cell_angle_gamma 90.000000
_cell_volume 2440.706907
_symmetry_space_group_name_H-M "C 2/C"
_symmetry_group_IT_number 15
_symmetry_cell_setting 'monoclinic'
loop_
_space_group_symop_operation_xyz
x,y,z
-x,y,1/2-z
-x,-y,-z
x,-y,1/2+z
1/2+x,1/2+y,z
1/2-x,1/2+y,1/2-z
1/2-x,1/2-y,-z
1/2+x,1/2-y,1/2+z
loop_
_atom_site_type_symbol
_atom_site_label
_atom_site_fract_x
_atom_site_fract_y
_atom_site_fract_z
Si Si1 0.776827 0.564496 0.526595
Si Si2 0.674124 0.167035 0.361114
Si Si3 0.838412 0.745231 0.242676
Si Si4 0.457120 0.063789 0.931478
Si Si5 0.804984 0.810643 0.945533
Si Si6 0.791870 0.619283 0.763881
O O1 0.776962 0.497450 0.495726
O O2 0.495882 0.599497 0.617737
O O3 0.011409 0.603376 0.418499
O O4 0.854828 0.559400 0.571059
O O5 0.548770 0.211921 0.352372
O O6 0.647756 0.195691 0.434876
O O7 0.000000 0.159009 0.250000
O O8 0.617287 0.694390 0.332177
O O9 0.723521 0.811158 0.258120
O O10 0.000000 0.757469 0.250000
O O11 0.618570 0.073714 0.818601
O O12 0.283462 0.125920 0.996102
O O13 0.750000 0.750000 0.000000
O O14 0.000000 0.618191 0.750000
#
# Coordination Sequence:
#
# PCOD9266405 Si02
#       6
#     8   8   8   8   8   8
#     4  10  23  42  66  94 124 169 214 255 311 381
#     4   9  21  40  62  93 126 161 209 260 322 372
#     4  11  23  39  62  92 124 163 213 264 317 374
#     4  10  22  41  66  91 124 167 212 258 310 379
#     4  10  19  37  64  89 122 163 199 258 316 370
#     4  12  25  40  62  92 130 166 208 263 315 376
#
# _framework density 19.666433999999999
#
# number of rings (size 3 to 8) (size 9 to 14) (size 15 to 20)
#    0.000    1.667    1.667    3.000    2.333    8.000 
#    0.000    1.667    0.000    0.000    0.000    0.000 
#    0.000    0.000    0.000    0.000    0.000    0.000 
#
# Total GULP energy -133811.800655 kJ/mol
# GULP energy per Si atom -5575.491694 kJ/mol
# Density = 1.962167 g / cm^3
# Si number density = 19.666434 Si / 1000 Ang^3
#
#
#
# Elastic Constant Matrix: (Units=GPa)
#
#
# Indices 1 2 3 4 5 6 
#
# 1 80.1587 42.7360 23.8723 -0.0071 4.1887 -0.0097
# 2 42.7360 120.2258 51.7072 -0.0015 11.4997 -0.0032
# 3 23.8723 51.7072 67.3689 -0.0144 6.9588 0.0121
# 4 -0.0071 -0.0015 -0.0144 23.9903 0.0008 1.4941
# 5 4.1887 11.4997 6.9588 0.0008 28.5624 -0.0001
# 6 -0.0097 -0.0032 0.0121 1.4941 -0.0001 23.6616
#
#
#
# Elastic Compliance Matrix: (Units=1/GPa)
#
#
# Indices 1 2 3 4 5 6 
#
# 1 0.015552 -0.004721 -0.001896 0.000003 0.000082 0.000007
# 2 -0.004721 0.014063 -0.008830 -0.000006 -0.002818 0.000005
# 3 -0.001896 -0.008830 0.022462 0.000013 -0.001639 -0.000014
# 4 0.000003 -0.000006 0.000013 0.041848 -0.000002 -0.002643
# 5 0.000082 -0.002818 -0.001639 -0.000002 0.036533 0.000001
# 6 0.000007 0.000005 -0.000014 -0.002643 0.000001 0.042429
#
#
# Mechanical properties :
#
#
# Convention : Reuss Voigt Hill
#
# Bulk Modulus (GPa) = 47.20534 56.04270 51.62402
# Shear Modulus (GPa) = 23.71439 25.20537 24.45988
#
# Velocity S-wave (km/s) = 3.47627 3.58389 3.53049
# Velocity P-wave (km/s) = 6.33780 6.75901 6.55179
#
# Compressibility (1/GPa) = 0.02118404
#
# Stress axis : x y z
#
# Youngs Moduli (GPa) = 64.29847 71.10986 44.51981
#
# Poissons Ratio (x) = 0.33568 0.08442
# Poissons Ratio (y) = 0.30353 0.39309
# Poissons Ratio (z) = 0.12193 0.62787
#
# Static dielectric constant tensor:
#      x y z
#    x 1.706220 0.000000 0.019220 
#    y 0.000000 1.677410 -0.000010 
#    z 0.019220 -0.000010 1.970770 
# 
# From -- ./inp_files/233689.got.cif
#   From: 2010.05.17/outbox.cif.g08.bks.cpg/sg15_117_cif.got.tgz:233689.got - 2010.06.03 18:47:42.
