data_PCOD9266654
_publ_section_title
;
Structure prediction by ZEFSAII (Michael W. Deem and Ramdas Pophale) SiO2 
 PCOD9266654
Probable space group: C 2/C
;
_chemical_formula_sum "Si O2"
_cell_formula_units_Z 48
_cell_length_a 10.726684
_cell_length_b 14.728702
_cell_length_c 20.936359
_cell_angle_alpha 90.000000
_cell_angle_beta 138.175877
_cell_angle_gamma 90.000000
_cell_volume 2205.752849
_symmetry_space_group_name_H-M "C 2/C"
_symmetry_group_IT_number 15
_symmetry_cell_setting 'monoclinic'
loop_
_space_group_symop_operation_xyz
x,y,z
-x,y,1/2-z
-x,-y,-z
x,-y,1/2+z
1/2+x,1/2+y,z
1/2-x,1/2+y,1/2-z
1/2-x,1/2-y,-z
1/2+x,1/2-y,1/2+z
loop_
_atom_site_type_symbol
_atom_site_label
_atom_site_fract_x
_atom_site_fract_y
_atom_site_fract_z
Si Si1 0.908336 0.135129 0.859619
Si Si2 0.669155 0.749351 0.364731
Si Si3 0.133570 0.933694 0.622189
Si Si4 0.891551 0.292595 0.774955
Si Si5 0.686185 0.912144 0.949563
Si Si6 0.291953 0.109144 0.514420
O O1 0.828724 0.196981 0.886367
O O2 0.846077 0.190086 0.774216
O O3 0.831861 0.034008 0.837936
O O4 0.133131 0.125675 0.944661
O O5 0.500000 0.732618 0.250000
O O6 0.614722 0.819612 0.401049
O O7 0.752535 0.661167 0.432750
O O8 0.216051 0.857232 0.699330
O O9 0.231982 0.928132 0.591032
O O10 0.913928 0.915050 0.535888
O O11 0.000000 0.295126 0.750000
O O12 0.024369 0.338644 0.878796
O O13 0.618465 0.008773 0.951889
#
# Coordination Sequence:
#
# PCOD9266654 Si02
#       6
#     8   8   8   8   8   8
#     4  11  20  38  59  82 116 154 188 245 298 338
#     4  11  22  33  59  90 118 148 196 246 293 346
#     4  10  19  38  58  84 115 155 199 236 291 354
#     4  10  23  37  59  88 113 152 204 242 285 357
#     4  10  19  38  59  81 115 157 195 236 288 363
#     4  10  20  37  56  88 118 152 192 245 293 339
#
# _framework density 21.761278000000001
#
# number of rings (size 3 to 8) (size 9 to 14) (size 15 to 20)
#    0.000    1.667    3.333    2.500    2.333    0.000 
#    0.000    7.500    0.000    0.000    0.000    0.000 
#    0.000    0.000    0.000    0.000    0.000    0.000 
#
# Total GULP energy -134013.225530 kJ/mol
# GULP energy per Si atom -5583.884397 kJ/mol
# Density = 2.171175 g / cm^3
# Si number density = 21.761278 Si / 1000 Ang^3
#
#
#
# Elastic Constant Matrix: (Units=GPa)
#
#
# Indices 1 2 3 4 5 6 
#
# 1 14.1493 12.9110 7.8193 0.0000 -3.0944 0.0000
# 2 12.9110 124.5788 40.1522 0.0000 -15.0805 0.0000
# 3 7.8193 40.1522 78.4418 0.0000 -13.2620 0.0000
# 4 0.0000 0.0000 0.0000 37.3543 0.0000 -16.9786
# 5 -3.0944 -15.0805 -13.2620 0.0000 16.3209 0.0000
# 6 0.0000 0.0000 0.0000 -16.9786 0.0000 25.9111
#
#
#
# Elastic Compliance Matrix: (Units=1/GPa)
#
#
# Indices 1 2 3 4 5 6 
#
# 1 0.079854 -0.006335 -0.003649 0.000000 0.006322 0.000000
# 2 -0.006335 0.010589 -0.003869 0.000000 0.005439 0.000000
# 3 -0.003649 -0.003869 0.016660 0.000000 0.009271 0.000000
# 4 0.000000 0.000000 0.000000 0.038126 0.000000 0.024983
# 5 0.006322 0.005439 0.009271 0.000000 0.075029 0.000000
# 6 0.000000 0.000000 0.000000 0.024983 0.000000 0.054964
#
#
# Mechanical properties :
#
#
# Convention : Reuss Voigt Hill
#
# Bulk Modulus (GPa) = 12.59473 37.65942 25.12708
# Shear Modulus (GPa) = 15.17945 26.33642 20.75794
#
# Velocity S-wave (km/s) = 2.64397 3.48263 3.09187
# Velocity P-wave (km/s) = 3.88858 5.78920 4.93132
#
# Compressibility (1/GPa) = 0.07939826
#
# Stress axis : x y z
#
# Youngs Moduli (GPa) = 12.52281 94.43739 60.02441
#
# Poissons Ratio (x) = 0.59822 0.21901
# Poissons Ratio (y) = 0.07933 0.23225
# Poissons Ratio (z) = 0.04569 0.36540
#
# Static dielectric constant tensor:
#      x y z
#    x 1.797110 0.000000 0.002940 
#    y 0.000000 1.833700 0.000000 
#    z 0.002940 0.000000 1.830880 
# 
# From -- ./inp_files/143461.got.cif
#   From: 2010.05.17/outbox.cif.g08.bks.cpg/sg15_72_cif.got.tgz:143461.got - 2010.06.03 18:47:42.
