data_PCOD9266659
_publ_section_title
;
Structure prediction by ZEFSAII (Michael W. Deem and Ramdas Pophale) SiO2 
 PCOD9266659
Probable space group: C 2/C
;
_chemical_formula_sum "Si O2"
_cell_formula_units_Z 56
_cell_length_a 23.223387
_cell_length_b 8.068181
_cell_length_c 19.429349
_cell_angle_alpha 90.000000
_cell_angle_beta 39.883353
_cell_angle_gamma 90.000000
_cell_volume 2334.377264
_symmetry_space_group_name_H-M "C 2/C"
_symmetry_group_IT_number 15
_symmetry_cell_setting 'monoclinic'
loop_
_space_group_symop_operation_xyz
x,y,z
-x,y,1/2-z
-x,-y,-z
x,-y,1/2+z
1/2+x,1/2+y,z
1/2-x,1/2+y,1/2-z
1/2-x,1/2-y,-z
1/2+x,1/2-y,1/2+z
loop_
_atom_site_type_symbol
_atom_site_label
_atom_site_fract_x
_atom_site_fract_y
_atom_site_fract_z
Si Si1 0.650156 0.712566 0.642024
Si Si2 0.005946 0.305965 0.977929
Si Si3 0.454539 0.340056 0.387462
Si Si4 0.764017 0.607385 0.044384
Si Si5 0.404811 0.311267 0.977841
Si Si6 0.222185 0.265072 0.216419
Si Si7 0.313314 0.117221 0.256311
O O1 0.607746 0.762908 0.607748
O O2 0.556879 0.660969 0.766058
O O3 0.722555 0.567698 0.561814
O O4 0.693985 0.838322 0.656978
O O5 0.013666 0.214379 0.044034
O O6 0.103165 0.286091 0.853016
O O7 0.944650 0.232080 0.973794
O O8 0.000000 0.500000 0.000000
O O9 0.424243 0.531693 0.413443
O O10 0.867478 0.644657 0.973983
O O11 0.706032 0.645908 0.167054
O O12 0.750000 0.750000 0.000000
O O13 0.315853 0.349283 0.104333
O O14 0.234787 0.171514 0.276215
O O15 0.161870 0.425138 0.276298
#
# Coordination Sequence:
#
# PCOD9266659 Si02
#       7
#     8   8   8   8   8   8   8
#     4  10  20  36  60  83 117 157 190 243 292 353
#     4  10  22  38  57  82 116 149 196 243 289 350
#     4  10  20  38  59  83 115 158 196 231 299 359
#     4  10  19  38  58  86 118 141 193 245 283 349
#     4   9  20  38  57  83 111 148 191 237 288 353
#     4   9  20  34  56  81 112 146 186 242 285 344
#     4  10  20  37  55  84 114 148 195 234 295 351
#
# _framework density 23.989267000000002
#
# number of rings (size 3 to 8) (size 9 to 14) (size 15 to 20)
#    0.857    1.429    1.429    1.286    0.000    2.286 
#    2.571    1.429    0.000    0.000    0.000    0.000 
#    0.000    0.000    0.000    0.000    0.000    0.000 
#
# Total GULP energy -155937.547668 kJ/mol
# GULP energy per Si atom -5569.198131 kJ/mol
# Density = 2.393467 g / cm^3
# Si number density = 23.989267 Si / 1000 Ang^3
#
#
#
# Elastic Constant Matrix: (Units=GPa)
#
#
# Indices 1 2 3 4 5 6 
#
# 1 137.1623 30.5612 27.8806 0.0020 35.3512 -0.0011
# 2 30.5612 50.2301 3.0158 0.0090 3.0086 -0.0050
# 3 27.8806 3.0158 71.0653 0.0035 -5.4302 -0.0025
# 4 0.0020 0.0090 0.0035 32.6408 -0.0017 2.4010
# 5 35.3512 3.0086 -5.4302 -0.0017 21.0389 0.0007
# 6 -0.0011 -0.0050 -0.0025 2.4010 0.0007 34.0186
#
#
#
# Elastic Compliance Matrix: (Units=1/GPa)
#
#
# Indices 1 2 3 4 5 6 
#
# 1 0.021286 -0.010083 -0.010758 0.000001 -0.037102 -0.000001
# 2 -0.010083 0.024940 0.003998 -0.000006 0.014408 0.000004
# 3 -0.010758 0.003998 0.019852 -0.000001 0.022629 0.000001
# 4 0.000001 -0.000006 -0.000001 0.030796 0.000002 -0.002174
# 5 -0.037102 0.014408 0.022629 0.000002 0.113652 0.000000
# 6 -0.000001 0.000004 0.000001 -0.002174 0.000000 0.029549
#
#
# Mechanical properties :
#
#
# Convention : Reuss Voigt Hill
#
# Bulk Modulus (GPa) = 30.87148 42.37475 36.62312
# Shear Modulus (GPa) = 17.57105 30.67301 24.12203
#
# Velocity S-wave (km/s) = 2.70933 3.57965 3.17446
# Velocity P-wave (km/s) = 4.76278 5.89810 5.36058
#
# Compressibility (1/GPa) = 0.03239236
#
# Stress axis : x y z
#
# Youngs Moduli (GPa) = 46.97846 40.09613 50.37359
#
# Poissons Ratio (x) = 0.40429 0.54193
# Poissons Ratio (y) = 0.47368 -0.20141
# Poissons Ratio (z) = 0.50540 -0.16032
#
# Static dielectric constant tensor:
#      x y z
#    x 2.053960 0.000010 -0.018100 
#    y 0.000010 1.943490 0.000000 
#    z -0.018100 0.000000 1.993480 
# 
# From -- ./inp_files/254813.got.cif
#   From: 2010.05.17/outbox.cif.g08.bks.cpg/sg15_128_cif.got.tgz:254813.got - 2010.06.03 18:47:42.
