data_PCOD9266424
_publ_section_title
;
Structure prediction by ZEFSAII (Michael W. Deem and Ramdas Pophale) SiO2 
 PCOD9266424
Probable space group: C 2/C
;
_chemical_formula_sum "Si O2"
_cell_formula_units_Z 48
_cell_length_a 12.200556
_cell_length_b 20.754805
_cell_length_c 12.322119
_cell_angle_alpha 90.000000
_cell_angle_beta 129.812637
_cell_angle_gamma 90.000000
_cell_volume 2396.764557
_symmetry_space_group_name_H-M "C 2/C"
_symmetry_group_IT_number 15
_symmetry_cell_setting 'monoclinic'
loop_
_space_group_symop_operation_xyz
x,y,z
-x,y,1/2-z
-x,-y,-z
x,-y,1/2+z
1/2+x,1/2+y,z
1/2-x,1/2+y,1/2-z
1/2-x,1/2-y,-z
1/2+x,1/2-y,1/2+z
loop_
_atom_site_type_symbol
_atom_site_label
_atom_site_fract_x
_atom_site_fract_y
_atom_site_fract_z
Si Si1 0.400196 0.718291 0.287700
Si Si2 0.000000 0.027853 0.750000
Si Si3 0.567746 0.194381 0.053246
Si Si4 0.246906 0.447644 0.970126
Si Si5 0.500000 0.849252 0.750000
Si Si6 0.606674 0.051130 0.012636
Si Si7 0.388294 0.571280 0.332957
O O1 0.500000 0.737251 0.250000
O O2 0.451580 0.760237 0.422550
O O3 0.232415 0.719283 0.148295
O O4 0.433064 0.644063 0.339126
O O5 0.852904 0.065523 0.639301
O O6 0.004486 0.978859 0.651951
O O7 0.546173 0.187590 0.169797
O O8 0.550970 0.124440 0.982338
O O9 0.126678 0.394762 0.873231
O O10 0.345918 0.441201 0.928225
O O11 0.165895 0.515534 0.942150
O O12 0.743652 0.058350 0.175689
O O13 0.500000 0.000000 0.000000
#
# Coordination Sequence:
#
# PCOD9266424 Si02
#       7
#     8   4   8   8   4   8   8
#     4  11  23  47  68  91 131 176 227 273 323 389
#     4  10  22  36  61  97 128 164 218 258 336 396
#     4  11  25  45  67  99 130 179 220 276 328 391
#     4  11  20  39  63  92 131 168 207 270 327 395
#     4  12  22  44  65  91 138 172 212 272 336 386
#     4  10  19  37  64  92 126 165 211 258 331 392
#     4  10  20  39  63  89 129 171 205 271 332 377
#
# _framework density 20.026997999999999
#
# number of rings (size 3 to 8) (size 9 to 14) (size 15 to 20)
#    0.000    1.333    5.833    1.000    0.000    0.667 
#    7.500    0.000    0.000    0.000    0.000    0.000 
#    0.000    0.000    0.000    0.000    0.000    0.000 
#
# Total GULP energy -133724.334855 kJ/mol
# GULP energy per Si atom -5571.847286 kJ/mol
# Density = 1.998142 g / cm^3
# Si number density = 20.026998 Si / 1000 Ang^3
#
#
#
# Elastic Constant Matrix: (Units=GPa)
#
#
# Indices 1 2 3 4 5 6 
#
# 1 57.2183 6.9566 5.3150 0.0000 2.4628 0.0000
# 2 6.9566 62.7411 51.5291 0.0000 12.9263 0.0000
# 3 5.3150 51.5291 55.5521 0.0000 11.9217 0.0000
# 4 0.0000 0.0000 0.0000 41.8105 0.0000 -0.9922
# 5 2.4628 12.9263 11.9217 0.0000 32.1961 0.0000
# 6 0.0000 0.0000 0.0000 -0.9922 0.0000 18.4613
#
#
#
# Elastic Compliance Matrix: (Units=1/GPa)
#
#
# Indices 1 2 3 4 5 6 
#
# 1 0.017732 -0.002324 0.000598 0.000000 -0.000645 0.000000
# 2 -0.002324 0.067754 -0.061731 0.000000 -0.004167 0.000000
# 3 0.000598 -0.061731 0.075929 0.000000 -0.003377 0.000000
# 4 0.000000 0.000000 0.000000 0.023948 0.000000 0.001287
# 5 -0.000645 -0.004167 -0.003377 0.000000 0.034032 0.000000
# 6 0.000000 0.000000 0.000000 0.001287 0.000000 0.054237
#
#
# Mechanical properties :
#
#
# Convention : Reuss Voigt Hill
#
# Bulk Modulus (GPa) = 28.98542 33.67923 31.33232
# Shear Modulus (GPa) = 12.13452 25.94097 19.03775
#
# Velocity S-wave (km/s) = 2.46419 3.60293 3.08653
# Velocity P-wave (km/s) = 4.75404 5.84479 5.32740
#
# Compressibility (1/GPa) = 0.03450011
#
# Stress axis : x y z
#
# Youngs Moduli (GPa) = 56.39614 14.75920 13.17014
#
# Poissons Ratio (x) = 0.03430 -0.00787
# Poissons Ratio (y) = 0.13107 0.81301
# Poissons Ratio (z) = -0.03370 0.91110
#
# Static dielectric constant tensor:
#      x y z
#    x 1.507110 0.000000 0.059040 
#    y 0.000000 1.750510 0.000000 
#    z 0.059040 0.000000 1.707770 
# 
# From -- ./inp_files/89828.got.cif
#   From: 2010.05.17/outbox.cif.g08.bks.cpg/sg15_45_cif.got.tgz:89828.got - 2010.06.03 18:47:42.
