data_PCOD9266506
_publ_section_title
;
Structure prediction by ZEFSAII (Michael W. Deem and Ramdas Pophale) SiO2 
 PCOD9266506
Probable space group: C 2/C
;
_chemical_formula_sum "Si O2"
_cell_formula_units_Z 44
_cell_length_a 15.168414
_cell_length_b 8.888309
_cell_length_c 14.629792
_cell_angle_alpha 90.000000
_cell_angle_beta 113.915935
_cell_angle_gamma 90.000000
_cell_volume 1803.062465
_symmetry_space_group_name_H-M "C 2/C"
_symmetry_group_IT_number 15
_symmetry_cell_setting 'monoclinic'
loop_
_space_group_symop_operation_xyz
x,y,z
-x,y,1/2-z
-x,-y,-z
x,-y,1/2+z
1/2+x,1/2+y,z
1/2-x,1/2+y,1/2-z
1/2-x,1/2-y,-z
1/2+x,1/2-y,1/2+z
loop_
_atom_site_type_symbol
_atom_site_label
_atom_site_fract_x
_atom_site_fract_y
_atom_site_fract_z
Si Si1 0.959905 0.143016 0.431226
Si Si2 0.860751 0.692282 0.426861
Si Si3 0.818804 0.388626 0.166715
Si Si4 0.794704 0.632686 0.876740
Si Si5 0.111545 0.713604 0.280604
Si Si6 0.500000 0.678534 0.250000
O O1 0.859570 0.218163 0.420464
O O2 0.038521 0.271492 0.484069
O O3 0.961932 0.098860 0.325160
O O4 0.000000 0.000000 0.500000
O O5 0.778270 0.815774 0.414563
O O6 0.829157 0.522426 0.434869
O O7 0.874351 0.702861 0.322876
O O8 0.804744 0.386384 0.271032
O O9 0.851223 0.557505 0.159858
O O10 0.909099 0.281597 0.184624
O O11 0.683113 0.661319 0.849726
O O12 0.000000 0.737876 0.250000
#
# Coordination Sequence:
#
# PCOD9266506 Si02
#       6
#     8   8   8   8   8   4
#     4  11  23  43  68  95 131 176 224 279 333 398
#     4  10  21  39  64  95 136 178 219 276 331 385
#     4   9  18  37  64  94 128 177 223 267 322 397
#     4   9  20  38  62  95 136 177 217 274 336 386
#     4  10  19  37  65  98 136 181 220 269 327 388
#     4  10  22  40  68  96 128 172 230 270 332 400
#
# _framework density 24.402925
#
# number of rings (size 3 to 8) (size 9 to 14) (size 15 to 20)
#    0.000    2.182    0.909    1.636    0.000    5.091 
#    6.545    0.909    0.000    1.091    0.000    0.000 
#    0.000    0.000    0.000    0.000    0.000    0.000 
#
# Total GULP energy -123119.382096 kJ/mol
# GULP energy per Si atom -5596.335550 kJ/mol
# Density = 2.434738 g / cm^3
# Si number density = 24.402925 Si / 1000 Ang^3
#
#
#
# Elastic Constant Matrix: (Units=GPa)
#
#
# Indices 1 2 3 4 5 6 
#
# 1 133.7668 48.5022 28.5584 0.0000 43.9507 0.0000
# 2 48.5022 104.5719 23.5767 0.0000 6.8933 0.0000
# 3 28.5584 23.5767 60.0196 0.0000 2.8785 0.0000
# 4 0.0000 0.0000 0.0000 32.3720 0.0000 11.2400
# 5 43.9507 6.8933 2.8785 0.0000 44.6728 0.0000
# 6 0.0000 0.0000 0.0000 11.2400 0.0000 13.4699
#
#
#
# Elastic Compliance Matrix: (Units=1/GPa)
#
#
# Indices 1 2 3 4 5 6 
#
# 1 0.014537 -0.004885 -0.004362 0.000000 -0.013267 0.000000
# 2 -0.004885 0.012216 -0.002623 0.000000 0.003090 0.000000
# 3 -0.004362 -0.002623 0.019602 0.000000 0.003433 0.000000
# 4 0.000000 0.000000 0.000000 0.043492 0.000000 -0.036292
# 5 -0.013267 0.003090 0.003433 0.000000 0.034740 0.000000
# 6 0.000000 0.000000 0.000000 -0.036292 0.000000 0.104524
#
#
# Mechanical properties :
#
#
# Convention : Reuss Voigt Hill
#
# Bulk Modulus (GPa) = 44.21450 55.51478 49.86464
# Shear Modulus (GPa) = 19.20204 31.28432 25.24318
#
# Velocity S-wave (km/s) = 2.80817 3.58437 3.21975
# Velocity P-wave (km/s) = 5.35465 6.31893 5.85667
#
# Compressibility (1/GPa) = 0.02261702
#
# Stress axis : x y z
#
# Youngs Moduli (GPa) = 68.78892 81.85996 51.01430
#
# Poissons Ratio (x) = 0.39985 0.22253
# Poissons Ratio (y) = 0.33600 0.13379
# Poissons Ratio (z) = 0.30006 0.21469
#
# Static dielectric constant tensor:
#      x y z
#    x 1.938840 0.000000 -0.056970 
#    y 0.000000 1.938540 0.000000 
#    z -0.056970 0.000000 1.935230 
# 
# From -- ./inp_files/203084.got.cif
#   From: 2010.05.17/outbox.cif.g08.bks.cpg/sg15_102_cif.got.tgz:203084.got - 2010.06.03 18:47:42.
