data_PCOD9266615
_publ_section_title
;
Structure prediction by ZEFSAII (Michael W. Deem and Ramdas Pophale) SiO2 
 PCOD9266615
Probable space group: C 2/C
;
_chemical_formula_sum "Si O2"
_cell_formula_units_Z 60
_cell_length_a 24.685153
_cell_length_b 7.457204
_cell_length_c 19.639506
_cell_angle_alpha 90.000000
_cell_angle_beta 130.606572
_cell_angle_gamma 90.000000
_cell_volume 2744.711447
_symmetry_space_group_name_H-M "C 2/C"
_symmetry_group_IT_number 15
_symmetry_cell_setting 'monoclinic'
loop_
_space_group_symop_operation_xyz
x,y,z
-x,y,1/2-z
-x,-y,-z
x,-y,1/2+z
1/2+x,1/2+y,z
1/2-x,1/2+y,1/2-z
1/2-x,1/2-y,-z
1/2+x,1/2-y,1/2+z
loop_
_atom_site_type_symbol
_atom_site_label
_atom_site_fract_x
_atom_site_fract_y
_atom_site_fract_z
Si Si1 0.879889 0.279808 0.888095
Si Si2 0.000000 0.000000 0.500000
Si Si3 0.428407 0.703419 0.363408
Si Si4 0.089307 0.653430 0.507371
Si Si5 0.767449 0.587157 0.934684
Si Si6 0.455624 0.071884 0.319030
Si Si7 0.827224 0.427146 0.629582
Si Si8 0.726539 0.240961 0.814380
O O1 0.901798 0.337960 0.830123
O O2 0.797232 0.225653 0.826665
O O3 0.900127 0.459932 0.947651
O O4 0.927062 0.122602 0.956830
O O5 0.970008 0.021387 0.392400
O O6 0.444290 0.722203 0.459645
O O7 0.344344 0.713824 0.286326
O O8 0.459201 0.864093 0.345602
O O9 0.168509 0.697534 0.549186
O O10 0.033637 0.644757 0.400569
O O11 0.703594 0.726728 0.889561
O O12 0.742552 0.413460 0.873811
O O13 0.801892 0.519744 0.033532
O O14 0.412061 0.076065 0.213495
O O15 0.792608 0.567610 0.655315
#
# Coordination Sequence:
#
# PCOD9266615 Si02
#       8
#     8   4   8   8   8   8   8   8
#     4  10  21  33  55  87 116 150 184 230 299 355
#     4  12  20  30  56  88 122 148 184 228 296 364
#     4  10  21  33  55  87 116 150 184 230 299 355
#     4  10  19  38  55  78 118 151 185 235 283 353
#     4  10  23  40  59  82 110 152 201 243 286 338
#     4  10  19  38  55  78 118 151 185 235 283 353
#     4  10  23  40  59  82 110 152 201 243 286 338
#     4  10  23  38  60  84 117 150 196 240 296 348
#
# _framework density 21.860222
#
# number of rings (size 3 to 8) (size 9 to 14) (size 15 to 20)
#    0.000    1.867    2.667    1.200    5.600    2.667 
#    0.000    0.000    0.000    0.000    0.000    1.867 
#    0.000    0.000    0.000    0.000    0.000    0.000 
#
# Total GULP energy -167079.118865 kJ/mol
# GULP energy per Si atom -5569.303962 kJ/mol
# Density = 2.181047 g / cm^3
# Si number density = 21.860222 Si / 1000 Ang^3
#
#
#
# Elastic Constant Matrix: (Units=GPa)
#
#
# Indices 1 2 3 4 5 6 
#
# 1 12.1817 -3.6814 13.7117 0.0000 1.5461 0.0000
# 2 -3.6814 69.0944 27.5389 0.0000 4.4557 0.0001
# 3 13.7117 27.5389 143.9231 0.0000 17.0531 0.0000
# 4 0.0000 0.0000 0.0000 26.0375 0.0000 4.4576
# 5 1.5461 4.4557 17.0531 0.0000 28.0740 0.0000
# 6 0.0000 0.0001 0.0000 4.4576 0.0000 22.7461
#
#
#
# Elastic Compliance Matrix: (Units=1/GPa)
#
#
# Indices 1 2 3 4 5 6 
#
# 1 0.097538 0.009638 -0.011119 0.000000 -0.000147 0.000000
# 2 0.009638 0.016634 -0.004014 0.000000 -0.000732 0.000000
# 3 -0.011119 -0.004014 0.009297 0.000000 -0.004398 0.000000
# 4 0.000000 0.000000 0.000000 0.039739 0.000000 -0.007788
# 5 -0.000147 -0.000732 -0.004398 0.000000 0.038416 0.000000
# 6 0.000000 0.000000 0.000000 -0.007788 0.000000 0.045490
#
#
# Mechanical properties :
#
#
# Convention : Reuss Voigt Hill
#
# Bulk Modulus (GPa) = 8.89065 33.37084 21.13074
# Shear Modulus (GPa) = 16.91494 27.88019 22.39756
#
# Velocity S-wave (km/s) = 2.78470 3.57513 3.20438
# Velocity P-wave (km/s) = 3.79675 5.68689 4.83508
#
# Compressibility (1/GPa) = 0.11247775
#
# Stress axis : x y z
#
# Youngs Moduli (GPa) = 10.25240 60.11904 107.56531
#
# Poissons Ratio (x) = -0.57944 1.19606
# Poissons Ratio (y) = -0.09882 0.43179
# Poissons Ratio (z) = 0.11400 0.24133
#
# Static dielectric constant tensor:
#      x y z
#    x 1.863240 0.000000 0.010330 
#    y 0.000000 2.040750 0.000000 
#    z 0.010330 0.000000 1.850460 
# 
# From -- ./inp_files/257207.got.cif
#   From: 2010.05.17/outbox.cif.g08.bks.cpg/sg15_129_cif.got.tgz:257207.got - 2010.06.03 18:47:42.
