data_PCOD9266468
_publ_section_title
;
Structure prediction by ZEFSAII (Michael W. Deem and Ramdas Pophale) SiO2 
 PCOD9266468
Probable space group: C 2/C
;
_chemical_formula_sum "Si O2"
_cell_formula_units_Z 48
_cell_length_a 10.430742
_cell_length_b 15.385825
_cell_length_c 14.028224
_cell_angle_alpha 90.000000
_cell_angle_beta 125.345366
_cell_angle_gamma 90.000000
_cell_volume 1836.362385
_symmetry_space_group_name_H-M "C 2/C"
_symmetry_group_IT_number 15
_symmetry_cell_setting 'monoclinic'
loop_
_space_group_symop_operation_xyz
x,y,z
-x,y,1/2-z
-x,-y,-z
x,-y,1/2+z
1/2+x,1/2+y,z
1/2-x,1/2+y,1/2-z
1/2-x,1/2-y,-z
1/2+x,1/2-y,1/2+z
loop_
_atom_site_type_symbol
_atom_site_label
_atom_site_fract_x
_atom_site_fract_y
_atom_site_fract_z
Si Si1 0.237344 0.453774 0.287483
Si Si2 0.089345 0.546191 0.935544
Si Si3 0.637529 0.664923 0.386085
Si Si4 0.085888 0.643624 0.392494
Si Si5 0.160989 0.774571 0.149840
Si Si6 0.653131 0.352452 0.629808
O O1 0.168258 0.452096 0.364446
O O2 0.357588 0.374712 0.330542
O O3 0.305472 0.551269 0.309336
O O4 0.090041 0.426269 0.158583
O O5 0.070875 0.443844 0.946604
O O6 0.217730 0.597823 0.051582
O O7 0.500000 0.645125 0.250000
O O8 0.718933 0.754266 0.386872
O O9 0.532396 0.661886 0.436622
O O10 0.266012 0.650949 0.438487
O O11 0.000000 0.632825 0.250000
O O12 0.998750 0.719285 0.411411
O O13 0.263097 0.724204 0.275670
#
# Coordination Sequence:
#
# PCOD9266468 Si02
#       6
#     8   8   8   8   8   8
#     4  10  20  37  65  91 116 166 210 248 300 380
#     4  10  19  37  65  86 121 166 213 238 307 374
#     4  10  23  38  58  95 125 156 202 270 303 346
#     4   9  16  37  62  86 116 167 202 237 303 375
#     4  10  20  37  59  92 127 146 208 259 306 356
#     4   9  19  40  60  87 122 165 206 242 310 364
#
# _framework density 26.138629999999999
#
# number of rings (size 3 to 8) (size 9 to 14) (size 15 to 20)
#    0.000    2.333    5.000    0.000    7.000    4.000 
#    0.000    7.500    0.000    4.000    0.000    3.500 
#    0.000    0.000    0.000    0.000    0.000    0.000 
#
# Total GULP energy -134093.764373 kJ/mol
# GULP energy per Si atom -5587.240182 kJ/mol
# Density = 2.607914 g / cm^3
# Si number density = 26.138630 Si / 1000 Ang^3
#
#
#
# Elastic Constant Matrix: (Units=GPa)
#
#
# Indices 1 2 3 4 5 6 
#
# 1 111.4437 39.3313 21.6739 0.0000 33.5454 0.0000
# 2 39.3313 152.5278 32.5366 0.0000 29.6111 0.0000
# 3 21.6739 32.5366 123.5216 0.0000 29.8797 0.0000
# 4 0.0000 0.0000 0.0000 39.8332 0.0000 22.9048
# 5 33.5454 29.6111 29.8797 0.0000 52.6872 0.0000
# 6 0.0000 0.0000 0.0000 22.9048 0.0000 25.2005
#
#
#
# Elastic Compliance Matrix: (Units=1/GPa)
#
#
# Indices 1 2 3 4 5 6 
#
# 1 0.011494 -0.001729 -0.000030 0.000000 -0.006330 0.000000
# 2 -0.001729 0.007747 -0.001101 0.000000 -0.002629 0.000000
# 3 -0.000030 -0.001101 0.009546 0.000000 -0.004776 0.000000
# 4 0.000000 0.000000 0.000000 0.052590 0.000000 -0.047799
# 5 -0.006330 -0.002629 -0.004776 0.000000 0.027196 0.000000
# 6 0.000000 0.000000 0.000000 -0.047799 0.000000 0.083127
#
#
# Mechanical properties :
#
#
# Convention : Reuss Voigt Hill
#
# Bulk Modulus (GPa) = 43.35218 63.84187 53.59702
# Shear Modulus (GPa) = 24.37708 43.14094 33.75901
#
# Velocity S-wave (km/s) = 3.05718 4.06700 3.59769
# Velocity P-wave (km/s) = 5.39289 6.82139 6.14876
#
# Compressibility (1/GPa) = 0.02306689
#
# Stress axis : x y z
#
# Youngs Moduli (GPa) = 86.99888 129.07806 104.75146
#
# Poissons Ratio (x) = 0.22314 0.00319
# Poissons Ratio (y) = 0.15040 0.11538
# Poissons Ratio (z) = 0.00265 0.14217
#
# Static dielectric constant tensor:
#      x y z
#    x 2.144540 0.000000 -0.075040 
#    y 0.000000 2.028950 0.000000 
#    z -0.075040 0.000000 2.186280 
# 
# From -- ./inp_files/239654.got.cif
#   From: 2010.05.17/outbox.cif.g08.bks.cpg/sg15_120_cif.got.tgz:239654.got - 2010.06.03 18:47:42.
