data_PCOD9266918
_publ_section_title
;
Structure prediction by ZEFSAII (Michael W. Deem and Ramdas Pophale) SiO2 
 PCOD9266918
Probable space group: C 2/C
;
_chemical_formula_sum "Si O2"
_cell_formula_units_Z 56
_cell_length_a 16.517132
_cell_length_b 14.320757
_cell_length_c 12.207011
_cell_angle_alpha 90.000000
_cell_angle_beta 105.442052
_cell_angle_gamma 90.000000
_cell_volume 2783.184773
_symmetry_space_group_name_H-M "C 2/C"
_symmetry_group_IT_number 15
_symmetry_cell_setting 'monoclinic'
loop_
_space_group_symop_operation_xyz
x,y,z
-x,y,1/2-z
-x,-y,-z
x,-y,1/2+z
1/2+x,1/2+y,z
1/2-x,1/2+y,1/2-z
1/2-x,1/2-y,-z
1/2+x,1/2-y,1/2+z
loop_
_atom_site_type_symbol
_atom_site_label
_atom_site_fract_x
_atom_site_fract_y
_atom_site_fract_z
Si Si1 0.390467 0.806248 0.160891
Si Si2 0.545837 0.230205 0.582679
Si Si3 0.165361 0.042951 0.763382
Si Si4 0.462517 0.400612 0.451543
Si Si5 0.296111 0.978808 0.115621
Si Si6 0.318883 0.372426 0.579636
Si Si7 0.210324 0.345905 0.029330
O O1 0.425592 0.754077 0.281705
O O2 0.453786 0.811493 0.080008
O O3 0.369800 0.912403 0.185574
O O4 0.313525 0.735517 0.110581
O O5 0.530367 0.320052 0.500058
O O6 0.621670 0.172234 0.557398
O O7 0.081625 0.089769 0.682871
O O8 0.224698 0.020770 0.681422
O O9 0.219895 0.107348 0.865198
O O10 0.149087 0.944599 0.816858
O O11 0.500000 0.500000 0.500000
O O12 0.388340 0.376895 0.509737
O O13 0.264257 0.918755 0.999358
O O14 0.308808 0.082077 0.076021
O O15 0.250000 0.250000 0.000000
#
# Coordination Sequence:
#
# PCOD9266918 Si02
#       7
#     8   8   8   8   8   8   8
#     4  10  19  38  63  85 121 164 209 256 308 361
#     4  10  22  38  61  90 125 162 208 259 307 369
#     4  10  21  39  62  92 128 165 202 252 319 379
#     4  10  21  36  62  93 128 161 201 255 318 379
#     4  10  21  37  62  89 118 167 208 254 309 367
#     4   9  20  34  58  94 117 159 206 254 306 370
#     4  11  25  42  63  93 130 163 208 263 318 380
#
# _framework density 20.120835
#
# number of rings (size 3 to 8) (size 9 to 14) (size 15 to 20)
#    0.000    2.000    1.429    1.286    8.000    2.286 
#    0.000    0.000    6.286    0.000    0.000    0.000 
#    0.000    0.000    0.000    0.000    0.000    0.000 
#
# Total GULP energy -155873.827577 kJ/mol
# GULP energy per Si atom -5566.922413 kJ/mol
# Density = 2.007504 g / cm^3
# Si number density = 20.120835 Si / 1000 Ang^3
#
#
#
# Elastic Constant Matrix: (Units=GPa)
#
#
# Indices 1 2 3 4 5 6 
#
# 1 44.8092 22.6374 12.7057 0.0000 -1.4533 0.0000
# 2 22.6374 122.2206 39.1814 0.0000 2.6912 0.0000
# 3 12.7057 39.1814 82.9166 0.0000 6.9446 0.0000
# 4 0.0000 0.0000 0.0000 28.8665 0.0000 -0.0325
# 5 -1.4533 2.6912 6.9446 0.0000 27.4164 0.0000
# 6 0.0000 0.0000 0.0000 -0.0325 0.0000 16.5819
#
#
#
# Elastic Compliance Matrix: (Units=1/GPa)
#
#
# Indices 1 2 3 4 5 6 
#
# 1 0.025015 -0.003999 -0.002133 0.000000 0.002259 0.000000
# 2 -0.003999 0.010283 -0.004234 0.000000 -0.000149 0.000000
# 3 -0.002133 -0.004234 0.014674 0.000000 -0.003414 0.000000
# 4 0.000000 0.000000 0.000000 0.034642 0.000000 0.000068
# 5 0.002259 -0.000149 -0.003414 0.000000 0.037474 0.000000
# 6 0.000000 0.000000 0.000000 0.000068 0.000000 0.060307
#
#
# Mechanical properties :
#
#
# Convention : Reuss Voigt Hill
#
# Bulk Modulus (GPa) = 34.19898 44.33282 39.26590
# Shear Modulus (GPa) = 23.48809 26.26774 24.87792
#
# Velocity S-wave (km/s) = 3.42036 3.61709 3.52010
# Velocity P-wave (km/s) = 5.71246 6.28694 6.00657
#
# Compressibility (1/GPa) = 0.02924064
#
# Stress axis : x y z
#
# Youngs Moduli (GPa) = 39.97556 97.24525 68.14884
#
# Poissons Ratio (x) = 0.38892 0.14533
# Poissons Ratio (y) = 0.15988 0.28854
# Poissons Ratio (z) = 0.08525 0.41173
#
# Static dielectric constant tensor:
#      x y z
#    x 1.783720 0.000000 0.074650 
#    y 0.000000 1.737740 0.000000 
#    z 0.074650 0.000000 1.775930 
# 
# From -- ./inp_files/105412.got.cif
#   From: 2010.05.17/outbox.cif.g08.bks.cpg/sg15_53_cif.got.tgz:105412.got - 2010.06.03 18:47:42.
