data_PCOD9266711
_publ_section_title
;
Structure prediction by ZEFSAII (Michael W. Deem and Ramdas Pophale) SiO2 
 PCOD9266711
Probable space group: C 2/C
;
_chemical_formula_sum "Si O2"
_cell_formula_units_Z 64
_cell_length_a 9.238401
_cell_length_b 23.429388
_cell_length_c 30.514408
_cell_angle_alpha 90.000000
_cell_angle_beta 150.685973
_cell_angle_gamma 90.000000
_cell_volume 3233.705800
_symmetry_space_group_name_H-M "C 2/C"
_symmetry_group_IT_number 15
_symmetry_cell_setting 'monoclinic'
loop_
_space_group_symop_operation_xyz
x,y,z
-x,y,1/2-z
-x,-y,-z
x,-y,1/2+z
1/2+x,1/2+y,z
1/2-x,1/2+y,1/2-z
1/2-x,1/2-y,-z
1/2+x,1/2-y,1/2+z
loop_
_atom_site_type_symbol
_atom_site_label
_atom_site_fract_x
_atom_site_fract_y
_atom_site_fract_z
Si Si1 0.073174 0.131544 0.493365
Si Si2 0.218806 0.978655 0.983314
Si Si3 0.648397 0.687553 0.154117
Si Si4 0.704219 0.390260 0.488387
Si Si5 0.579840 0.524384 0.818600
Si Si6 0.356617 0.413677 0.628497
Si Si7 0.173153 0.316335 0.184322
Si Si8 0.700779 0.620699 0.695133
O O1 0.056881 0.066827 0.471287
O O2 0.415568 0.144934 0.595309
O O3 0.965476 0.171354 0.424754
O O4 0.886468 0.135225 0.488794
O O5 0.200875 0.953451 0.929538
O O6 0.104883 0.042870 0.959291
O O7 0.567021 0.978527 0.085312
O O8 0.520814 0.641273 0.153996
O O9 0.571194 0.751672 0.147961
O O10 0.000000 0.683114 0.250000
O O11 0.531784 0.359704 0.403139
O O12 0.051765 0.393254 0.569927
O O13 0.500000 0.546101 0.750000
O O14 0.471242 0.458972 0.795844
O O15 0.444723 0.567700 0.817763
O O16 0.500000 0.322840 0.250000
O O17 0.213043 0.332629 0.245702
O O18 0.000000 0.602728 0.750000
#
# Coordination Sequence:
#
# PCOD9266711 Si02
#       8
#     8   8   8   8   8   8   8   8
#     4  11  22  40  66  93 127 167 210 255 317 373
#     4  10  19  38  59  88 130 169 198 247 306 381
#     4  10  25  46  65  86 119 169 220 265 310 370
#     4  11  21  38  61  99 131 161 200 257 322 381
#     4  11  21  35  59  93 125 165 210 243 309 380
#     4  10  21  41  63  84 130 172 202 251 313 378
#     4  11  24  43  67  93 121 163 219 266 308 373
#     4  12  22  37  61  97 133 155 200 267 320 363
#
# _framework density 19.791533999999999
#
# number of rings (size 3 to 8) (size 9 to 14) (size 15 to 20)
#    0.000    1.250    3.750    3.375    1.750    2.500 
#    0.000    3.750    0.000    0.000    0.000    0.000 
#    0.000    0.000    0.000    0.000    0.000    0.000 
#
# Total GULP energy -178699.217875 kJ/mol
# GULP energy per Si atom -5584.350559 kJ/mol
# Density = 1.974649 g / cm^3
# Si number density = 19.791534 Si / 1000 Ang^3
#
#
#
# Elastic Constant Matrix: (Units=GPa)
#
#
# Indices 1 2 3 4 5 6 
#
# 1 98.2418 18.8383 23.4086 0.0003 -19.3316 -0.0114
# 2 18.8383 83.2201 23.7881 0.0029 -17.4067 -0.0070
# 3 23.4086 23.7881 35.8817 0.0284 -10.8526 0.0250
# 4 0.0003 0.0029 0.0284 27.0506 0.0061 -2.0427
# 5 -19.3316 -17.4067 -10.8526 0.0061 27.6246 -0.0037
# 6 -0.0114 -0.0070 0.0250 -2.0427 -0.0037 15.4331
#
#
#
# Elastic Compliance Matrix: (Units=1/GPa)
#
#
# Indices 1 2 3 4 5 6 
#
# 1 0.013029 0.000375 -0.006718 0.000007 0.006715 0.000023
# 2 0.000375 0.015842 -0.008680 0.000008 0.006835 0.000024
# 3 -0.006718 -0.008680 0.039641 -0.000048 0.005402 -0.000078
# 4 0.000007 0.000008 -0.000048 0.037341 -0.000016 0.004942
# 5 0.006715 0.006835 0.005402 -0.000016 0.047328 0.000009
# 6 0.000023 0.000024 -0.000078 0.004942 0.000009 0.065450
#
#
# Mechanical properties :
#
#
# Convention : Reuss Voigt Hill
#
# Bulk Modulus (GPa) = 25.99668 38.82374 32.41021
# Shear Modulus (GPa) = 19.12052 24.10890 21.61471
#
# Velocity S-wave (km/s) = 3.11158 3.49398 3.30831
# Velocity P-wave (km/s) = 5.10617 5.99467 5.56817
#
# Compressibility (1/GPa) = 0.03846646
#
# Stress axis : x y z
#
# Youngs Moduli (GPa) = 76.75165 63.12234 25.22649
#
# Poissons Ratio (x) = -0.02370 0.16947
# Poissons Ratio (y) = -0.02882 0.21898
# Poissons Ratio (z) = 0.51561 0.54793
#
# Static dielectric constant tensor:
#      x y z
#    x 1.706990 0.000000 -0.027400 
#    y 0.000000 1.724610 -0.000010 
#    z -0.027400 -0.000010 1.695130 
# 
# From -- ./inp_files/309149.got.cif
#   From: 2010.05.17/outbox.cif.g08.bks.cpg/sg15_155_cif.got.tgz:309149.got - 2010.06.03 18:47:42.
