data_PCOD9266688
_publ_section_title
;
Structure prediction by ZEFSAII (Michael W. Deem and Ramdas Pophale) SiO2 
 PCOD9266688
Probable space group: C 2/C
;
_chemical_formula_sum "Si O2"
_cell_formula_units_Z 52
_cell_length_a 12.522228
_cell_length_b 7.159673
_cell_length_c 20.931146
_cell_angle_alpha 90.000000
_cell_angle_beta 83.980458
_cell_angle_gamma 90.000000
_cell_volume 1866.235972
_symmetry_space_group_name_H-M "C 2/C"
_symmetry_group_IT_number 15
_symmetry_cell_setting 'monoclinic'
loop_
_space_group_symop_operation_xyz
x,y,z
-x,y,1/2-z
-x,-y,-z
x,-y,1/2+z
1/2+x,1/2+y,z
1/2-x,1/2+y,1/2-z
1/2-x,1/2-y,-z
1/2+x,1/2-y,1/2+z
loop_
_atom_site_type_symbol
_atom_site_label
_atom_site_fract_x
_atom_site_fract_y
_atom_site_fract_z
Si Si1 0.479850 0.970709 0.112692
Si Si2 0.000000 0.199812 0.750000
Si Si3 0.281810 0.268052 0.303788
Si Si4 0.854824 0.483629 0.992904
Si Si5 0.728232 0.170488 0.335206
Si Si6 0.936495 0.087622 0.143880
Si Si7 0.651242 0.609557 0.958676
O O1 0.578793 0.074860 0.073424
O O2 0.395872 0.093065 0.157709
O O3 0.505535 0.775914 0.145017
O O4 0.405975 0.912204 0.055036
O O5 0.901848 0.309678 0.789208
O O6 0.955989 0.056059 0.699108
O O7 0.291879 0.475739 0.332010
O O8 0.187714 0.157054 0.343728
O O9 0.243961 0.275928 0.231713
O O10 0.727592 0.469002 0.992263
O O11 0.876465 0.709065 0.998503
O O12 0.726565 0.296580 0.397950
O O13 0.943758 0.984941 0.075029
#
# Coordination Sequence:
#
# PCOD9266688 Si02
#       7
#     8   4   8   8   8   8   8
#     4   9  21  38  61  89 119 162 213 257 317 393
#     4  12  24  40  66  94 128 174 210 262 322 390
#     4  11  22  40  62  90 131 165 213 264 310 400
#     4   9  20  39  62  87 119 162 214 258 320 385
#     4  10  19  38  59  84 127 158 205 264 314 374
#     4  11  24  41  62  95 129 164 214 264 324 382
#     4  10  20  38  62  87 124 163 204 272 318 373
#
# _framework density 27.863568999999998
#
# number of rings (size 3 to 8) (size 9 to 14) (size 15 to 20)
#    0.000    1.846    3.077    0.000    2.154    2.462 
#    2.769    3.077    0.000    0.000    0.000    0.000 
#    0.000    0.000    0.000    0.000    0.000    0.000 
#
# Total GULP energy -145495.090727 kJ/mol
# GULP energy per Si atom -5595.965028 kJ/mol
# Density = 2.780015 g / cm^3
# Si number density = 27.863569 Si / 1000 Ang^3
#
#
#
# Elastic Constant Matrix: (Units=GPa)
#
#
# Indices 1 2 3 4 5 6 
#
# 1 80.3132 -9.4500 -5.2774 0.0000 -12.8215 0.0000
# 2 -9.4500 87.2167 24.3516 0.0000 -0.0220 0.0000
# 3 -5.2774 24.3516 89.1355 0.0000 -12.4985 0.0000
# 4 0.0000 0.0000 0.0000 45.0835 0.0000 -1.4871
# 5 -12.8215 -0.0220 -12.4985 0.0000 47.3538 0.0000
# 6 0.0000 0.0000 0.0000 -1.4871 0.0000 28.4241
#
#
#
# Elastic Compliance Matrix: (Units=1/GPa)
#
#
# Indices 1 2 3 4 5 6 
#
# 1 0.013270 0.001157 0.001011 0.000000 0.003860 0.000000
# 2 0.001157 0.012552 -0.003444 0.000000 -0.000590 0.000000
# 3 0.001011 -0.003444 0.012729 0.000000 0.003632 0.000000
# 4 0.000000 0.000000 0.000000 0.022219 0.000000 0.001162
# 5 0.003860 -0.000590 0.003632 0.000000 0.023121 0.000000
# 6 0.000000 0.000000 0.000000 0.001162 0.000000 0.035242
#
#
# Mechanical properties :
#
#
# Convention : Reuss Voigt Hill
#
# Bulk Modulus (GPa) = 27.77845 30.65710 29.21777
# Shear Modulus (GPa) = 37.40120 40.64170 39.02145
#
# Velocity S-wave (km/s) = 3.66771 3.82330 3.74631
# Velocity P-wave (km/s) = 5.28462 5.52419 5.40573
#
# Compressibility (1/GPa) = 0.03599913
#
# Stress axis : x y z
#
# Youngs Moduli (GPa) = 75.35768 79.66657 78.56243
#
# Poissons Ratio (x) = -0.09214 -0.07943
# Poissons Ratio (y) = -0.08715 0.27053
# Poissons Ratio (z) = -0.07619 0.27433
#
# Static dielectric constant tensor:
#      x y z
#    x 2.285530 0.000000 0.058880 
#    y 0.000000 2.168640 0.000000 
#    z 0.058880 0.000000 2.105180 
# 
# From -- ./inp_files/242494.got.cif
#   From: 2010.05.17/outbox.cif.g08.bks.cpg/sg15_122_cif.got.tgz:242494.got - 2010.06.03 18:47:42.
