data_PCOD9266758
_publ_section_title
;
Structure prediction by ZEFSAII (Michael W. Deem and Ramdas Pophale) SiO2 
 PCOD9266758
Probable space group: C 2/C
;
_chemical_formula_sum "Si O2"
_cell_formula_units_Z 64
_cell_length_a 30.237175
_cell_length_b 8.175386
_cell_length_c 13.583274
_cell_angle_alpha 90.000000
_cell_angle_beta 64.385537
_cell_angle_gamma 90.000000
_cell_volume 3027.800769
_symmetry_space_group_name_H-M "C 2/C"
_symmetry_group_IT_number 15
_symmetry_cell_setting 'monoclinic'
loop_
_space_group_symop_operation_xyz
x,y,z
-x,y,1/2-z
-x,-y,-z
x,-y,1/2+z
1/2+x,1/2+y,z
1/2-x,1/2+y,1/2-z
1/2-x,1/2-y,-z
1/2+x,1/2-y,1/2+z
loop_
_atom_site_type_symbol
_atom_site_label
_atom_site_fract_x
_atom_site_fract_y
_atom_site_fract_z
Si Si1 0.142791 0.081595 0.739799
Si Si2 0.556439 0.542999 0.454554
Si Si3 0.855194 0.561455 0.527974
Si Si4 0.445915 0.932848 0.071364
Si Si5 0.309606 0.256359 0.726924
Si Si6 0.380282 0.912677 0.310914
Si Si7 0.876510 0.078598 0.438054
Si Si8 0.305002 0.753809 0.654736
O O1 0.089960 0.043878 0.839488
O O2 0.178164 0.935694 0.744995
O O3 0.138341 0.055456 0.628437
O O4 0.166353 0.238235 0.769196
O O5 0.500000 0.500000 0.500000
O O6 0.558127 0.737590 0.438472
O O7 0.579725 0.484505 0.535202
O O8 0.905496 0.502608 0.532862
O O9 0.836320 0.726442 0.596832
O O10 0.864489 0.548345 0.404124
O O11 0.814166 0.430152 0.598263
O O12 0.426138 0.965611 0.200264
O O13 0.500000 0.000000 0.000000
O O14 0.337226 0.136087 0.776545
O O15 0.252256 0.224217 0.778214
O O16 0.389860 0.744544 0.363747
O O17 0.831976 0.130976 0.552722
#
# Coordination Sequence:
#
# PCOD9266758 Si02
#       8
#     8   8   8   8   8   8   8   8
#     4  10  20  41  59  85 127 159 200 258 303 359
#     4  11  23  41  65  87 119 160 206 262 312 372
#     4  10  21  40  59  90 125 162 202 252 307 366
#     4  11  24  43  64  91 126 162 202 262 319 370
#     4  10  19  38  60  90 125 167 203 253 303 349
#     4   9  20  41  64  88 126 166 204 253 306 376
#     4   9  20  39  62  89 118 161 205 257 305 365
#     4  10  21  33  63  93 119 164 210 247 298 368
#
# _framework density 21.137454999999999
#
# number of rings (size 3 to 8) (size 9 to 14) (size 15 to 20)
#    0.000    2.000    3.750    0.750    5.250    6.500 
#    4.500    1.250    0.000    6.000    0.000    0.000 
#    0.000    0.000    0.000    0.000    0.000    0.000 
#
# Total GULP energy -178808.467659 kJ/mol
# GULP energy per Si atom -5587.764614 kJ/mol
# Density = 2.108935 g / cm^3
# Si number density = 21.137455 Si / 1000 Ang^3
#
#
#
# Elastic Constant Matrix: (Units=GPa)
#
#
# Indices 1 2 3 4 5 6 
#
# 1 110.7282 12.2122 70.2199 0.0000 -27.0715 0.0000
# 2 12.2122 46.2369 15.1958 0.0000 1.4042 0.0000
# 3 70.2199 15.1958 125.3359 0.0000 1.0115 0.0000
# 4 0.0000 0.0000 0.0000 33.5944 0.0000 2.3304
# 5 -27.0715 1.4042 1.0115 0.0000 45.6475 0.0000
# 6 0.0000 0.0000 0.0000 2.3304 0.0000 33.5120
#
#
#
# Elastic Compliance Matrix: (Units=1/GPa)
#
#
# Indices 1 2 3 4 5 6 
#
# 1 0.018451 -0.001861 -0.010202 0.000000 0.011226 0.000000
# 2 -0.001861 0.022731 -0.001699 0.000000 -0.001765 0.000000
# 3 -0.010202 -0.001699 0.013951 0.000000 -0.006307 0.000000
# 4 0.000000 0.000000 0.000000 0.029911 0.000000 -0.002080
# 5 0.011226 -0.001765 -0.006307 0.000000 0.028758 0.000000
# 6 0.000000 0.000000 0.000000 -0.002080 0.000000 0.029985
#
#
# Mechanical properties :
#
#
# Convention : Reuss Voigt Hill
#
# Bulk Modulus (GPa) = 36.22037 53.06184 44.64110
# Shear Modulus (GPa) = 27.69859 34.86233 31.28046
#
# Velocity S-wave (km/s) = 3.62388 4.06558 3.85107
# Velocity P-wave (km/s) = 5.88921 6.86996 6.39840
#
# Compressibility (1/GPa) = 0.02760878
#
# Stress axis : x y z
#
# Youngs Moduli (GPa) = 54.19870 43.99213 71.67882
#
# Poissons Ratio (x) = 0.08188 0.73126
# Poissons Ratio (y) = 0.10088 0.12178
# Poissons Ratio (z) = 0.55293 0.07474
#
# Static dielectric constant tensor:
#      x y z
#    x 1.742810 0.000000 0.029640 
#    y 0.000000 1.876130 0.000000 
#    z 0.029640 0.000000 1.757300 
# 
# From -- ./inp_files/180788.got.cif
#   From: 2010.05.17/outbox.cif.g08.bks.cpg/sg15_91_cif.got.tgz:180788.got - 2010.06.03 18:47:42.
