data_PCOD9266379
_publ_section_title
;
Structure prediction by ZEFSAII (Michael W. Deem and Ramdas Pophale) SiO2 
 PCOD9266379
Probable space group: C 2/C
;
_chemical_formula_sum "Si O2"
_cell_formula_units_Z 52
_cell_length_a 9.510961
_cell_length_b 16.671715
_cell_length_c 21.747590
_cell_angle_alpha 90.000000
_cell_angle_beta 138.688769
_cell_angle_gamma 90.000000
_cell_volume 2276.447977
_symmetry_space_group_name_H-M "C 2/C"
_symmetry_group_IT_number 15
_symmetry_cell_setting 'monoclinic'
loop_
_space_group_symop_operation_xyz
x,y,z
-x,y,1/2-z
-x,-y,-z
x,-y,1/2+z
1/2+x,1/2+y,z
1/2-x,1/2+y,1/2-z
1/2-x,1/2-y,-z
1/2+x,1/2-y,1/2+z
loop_
_atom_site_type_symbol
_atom_site_label
_atom_site_fract_x
_atom_site_fract_y
_atom_site_fract_z
Si Si1 0.798627 0.997964 0.293715
Si Si2 0.372807 0.860024 0.951329
Si Si3 0.000000 0.364961 0.250000
Si Si4 0.500000 0.131623 0.250000
Si Si5 0.228356 0.969779 0.001372
Si Si6 0.500000 0.574568 0.250000
Si Si7 0.673458 0.137147 0.432056
Si Si8 0.876251 0.813724 0.454519
O O1 0.692121 0.075025 0.290802
O O2 0.840406 0.019962 0.236986
O O3 0.030719 0.989535 0.400837
O O4 0.646224 0.923184 0.256114
O O5 0.392633 0.932222 0.006367
O O6 0.141697 0.874650 0.844003
O O7 0.538172 0.856623 0.949513
O O8 0.388855 0.773661 0.988907
O O9 0.833798 0.314667 0.156172
O O10 0.571289 0.174275 0.336468
O O11 0.144364 0.892305 0.010116
O O12 0.313895 0.039984 0.073065
O O13 0.908671 0.172883 0.513656
#
# Coordination Sequence:
#
# PCOD9266379 Si02
#       8
#     8   8   4   4   8   4   8   8
#     4  10  19  37  63  95 122 163 220 268 308 366
#     4  11  25  41  64  95 136 171 203 268 329 376
#     4  11  23  40  64  94 127 167 214 270 306 372
#     4  11  20  36  65  91 122 165 212 266 313 364
#     4  11  22  41  67  94 125 170 218 262 315 380
#     4  10  21  38  63  93 129 170 214 256 323 386
#     4  12  23  43  66  98 124 169 223 264 310 381
#     4  12  24  42  65  96 133 168 215 260 321 382
#
# _framework density 22.842604999999999
#
# number of rings (size 3 to 8) (size 9 to 14) (size 15 to 20)
#    0.000    0.923    4.615    4.154    0.000    0.000 
#    0.000    0.000    0.000    0.923    0.000    0.000 
#    0.000    0.000    0.000    0.000    0.000    0.000 
#
# Total GULP energy -145348.389224 kJ/mol
# GULP energy per Si atom -5590.322662 kJ/mol
# Density = 2.279061 g / cm^3
# Si number density = 22.842605 Si / 1000 Ang^3
#
#
#
# Elastic Constant Matrix: (Units=GPa)
#
#
# Indices 1 2 3 4 5 6 
#
# 1 144.1135 20.9424 14.1055 0.0000 0.2024 0.0000
# 2 20.9424 83.5892 7.8250 0.0000 5.9691 0.0000
# 3 14.1055 7.8250 80.1032 0.0000 5.0701 0.0000
# 4 0.0000 0.0000 0.0000 13.8428 0.0000 -9.2191
# 5 0.2024 5.9691 5.0701 0.0000 23.6988 0.0000
# 6 0.0000 0.0000 0.0000 -9.2191 0.0000 14.2458
#
#
#
# Elastic Compliance Matrix: (Units=1/GPa)
#
#
# Indices 1 2 3 4 5 6 
#
# 1 0.007308 -0.001768 -0.001154 0.000000 0.000630 0.000000
# 2 -0.001768 0.012691 -0.000737 0.000000 -0.003024 0.000000
# 3 -0.001154 -0.000737 0.012922 0.000000 -0.002569 0.000000
# 4 0.000000 0.000000 0.000000 0.126956 0.000000 0.082159
# 5 0.000630 -0.003024 -0.002569 0.000000 0.043502 0.000000
# 6 0.000000 0.000000 0.000000 0.082159 0.000000 0.123365
#
#
# Mechanical properties :
#
#
# Convention : Reuss Voigt Hill
#
# Bulk Modulus (GPa) = 39.05811 43.72796 41.39303
# Shear Modulus (GPa) = 14.59442 28.01968 21.30705
#
# Velocity S-wave (km/s) = 2.53041 3.50614 3.05745
# Velocity P-wave (km/s) = 5.06688 5.96451 5.53393
#
# Compressibility (1/GPa) = 0.02560288
#
# Stress axis : x y z
#
# Youngs Moduli (GPa) = 136.83729 78.79527 77.38909
#
# Poissons Ratio (x) = 0.13930 0.08931
# Poissons Ratio (y) = 0.24191 0.05704
# Poissons Ratio (z) = 0.15792 0.05808
#
# Static dielectric constant tensor:
#      x y z
#    x 1.875170 0.000000 -0.010080 
#    y 0.000000 1.859770 0.000000 
#    z -0.010080 0.000000 1.889880 
# 
# From -- ./inp_files/190363.got.cif
#   From: 2010.05.17/outbox.cif.g08.bks.cpg/sg15_96_cif.got.tgz:190363.got - 2010.06.03 18:47:42.
