data_PCOD9266640
_publ_section_title
;
Structure prediction by ZEFSAII (Michael W. Deem and Ramdas Pophale) SiO2 
 PCOD9266640
Probable space group: C 2/C
;
_chemical_formula_sum "Si O2"
_cell_formula_units_Z 52
_cell_length_a 27.002581
_cell_length_b 6.618717
_cell_length_c 13.223302
_cell_angle_alpha 90.000000
_cell_angle_beta 108.905717
_cell_angle_gamma 90.000000
_cell_volume 2235.807913
_symmetry_space_group_name_H-M "C 2/C"
_symmetry_group_IT_number 15
_symmetry_cell_setting 'monoclinic'
loop_
_space_group_symop_operation_xyz
x,y,z
-x,y,1/2-z
-x,-y,-z
x,-y,1/2+z
1/2+x,1/2+y,z
1/2-x,1/2+y,1/2-z
1/2-x,1/2-y,-z
1/2+x,1/2-y,1/2+z
loop_
_atom_site_type_symbol
_atom_site_label
_atom_site_fract_x
_atom_site_fract_y
_atom_site_fract_z
Si Si1 0.500000 0.785677 0.250000
Si Si2 0.300981 0.477576 0.497879
Si Si3 0.727396 0.109727 0.605408
Si Si4 0.318599 0.231322 0.303752
Si Si5 0.430342 0.224091 0.434537
Si Si6 0.461119 0.867172 0.578551
Si Si7 0.412292 0.521521 0.127046
O O1 0.450234 0.638891 0.228936
O O2 0.514016 0.941980 0.346871
O O3 0.304844 0.710908 0.465440
O O4 0.248160 0.468286 0.528255
O O5 0.304552 0.358234 0.395555
O O6 0.351238 0.434080 0.600742
O O7 0.779932 0.201647 0.690134
O O8 0.696269 0.993882 0.671183
O O9 0.380623 0.254793 0.328574
O O10 0.488137 0.250691 0.428627
O O11 0.423046 0.375941 0.523746
O O12 0.428468 0.989878 0.472697
O O13 0.428238 0.712186 0.624195
#
# Coordination Sequence:
#
# PCOD9266640 Si02
#       7
#     4   8   8   8   8   8   8
#     4  10  22  34  54  86 120 150 196 234 292 356
#     4  10  23  41  61  87 119 159 201 246 301 356
#     4  11  22  39  62  86 119 159 198 249 300 350
#     4  11  21  40  59  89 120 155 204 248 296 361
#     4   9  21  36  59  86 112 152 197 241 299 355
#     4  10  19  38  57  83 118 152 189 248 293 355
#     4  10  20  38  60  83 118 155 193 242 298 358
#
# _framework density 23.257811
#
# number of rings (size 3 to 8) (size 9 to 14) (size 15 to 20)
#    0.000    1.846    1.538    2.308    0.000    2.462 
#    2.769    3.077    0.000    0.000    0.000    0.000 
#    0.000    0.000    0.000    0.000    0.000    0.000 
#
# Total GULP energy -145187.580159 kJ/mol
# GULP energy per Si atom -5584.137698 kJ/mol
# Density = 2.320487 g / cm^3
# Si number density = 23.257811 Si / 1000 Ang^3
#
#
#
# Elastic Constant Matrix: (Units=GPa)
#
#
# Indices 1 2 3 4 5 6 
#
# 1 38.8048 1.6076 5.8718 0.0000 11.3053 0.0000
# 2 1.6076 60.5239 6.1243 0.0000 4.9564 0.0000
# 3 5.8718 6.1243 49.3583 0.0000 21.0089 0.0000
# 4 0.0000 0.0000 0.0000 33.6759 0.0000 -3.9069
# 5 11.3053 4.9564 21.0089 0.0000 35.4465 0.0000
# 6 0.0000 0.0000 0.0000 -3.9069 0.0000 22.0180
#
#
#
# Elastic Compliance Matrix: (Units=1/GPa)
#
#
# Indices 1 2 3 4 5 6 
#
# 1 0.028425 -0.000047 0.000642 0.000000 -0.009440 0.000000
# 2 -0.000047 0.016791 -0.001451 0.000000 -0.001473 0.000000
# 3 0.000642 -0.001451 0.027235 0.000000 -0.016144 0.000000
# 4 0.000000 0.000000 0.000000 0.030319 0.000000 0.005380
# 5 -0.009440 -0.001473 -0.016144 0.000000 0.040997 0.000000
# 6 0.000000 0.000000 0.000000 0.005380 0.000000 0.046372
#
#
# Mechanical properties :
#
#
# Convention : Reuss Voigt Hill
#
# Bulk Modulus (GPa) = 14.13618 19.54383 16.84000
# Shear Modulus (GPa) = 23.20937 27.23363 25.22150
#
# Velocity S-wave (km/s) = 3.16241 3.42562 3.29664
# Velocity P-wave (km/s) = 4.40746 4.90590 4.66334
#
# Compressibility (1/GPa) = 0.07074046
#
# Stress axis : x y z
#
# Youngs Moduli (GPa) = 35.18027 59.55542 36.71710
#
# Poissons Ratio (x) = 0.00280 -0.02359
# Poissons Ratio (y) = 0.00165 0.05327
# Poissons Ratio (z) = -0.02260 0.08641
#
# Static dielectric constant tensor:
#      x y z
#    x 1.887990 0.000000 -0.005860 
#    y 0.000000 1.905900 0.000000 
#    z -0.005860 0.000000 1.926620 
# 
# From -- ./inp_files/180178.got.cif
#   From: 2010.05.17/outbox.cif.g08.bks.cpg/sg15_91_cif.got.tgz:180178.got - 2010.06.03 18:47:42.
