data_PCOD9266539
_publ_section_title
;
Structure prediction by ZEFSAII (Michael W. Deem and Ramdas Pophale) SiO2 
 PCOD9266539
Probable space group: C 2/C
;
_chemical_formula_sum "Si O2"
_cell_formula_units_Z 56
_cell_length_a 17.200782
_cell_length_b 25.226554
_cell_length_c 9.461110
_cell_angle_alpha 90.000000
_cell_angle_beta 42.070541
_cell_angle_gamma 90.000000
_cell_volume 2750.756883
_symmetry_space_group_name_H-M "C 2/C"
_symmetry_group_IT_number 15
_symmetry_cell_setting 'monoclinic'
loop_
_space_group_symop_operation_xyz
x,y,z
-x,y,1/2-z
-x,-y,-z
x,-y,1/2+z
1/2+x,1/2+y,z
1/2-x,1/2+y,1/2-z
1/2-x,1/2-y,-z
1/2+x,1/2-y,1/2+z
loop_
_atom_site_type_symbol
_atom_site_label
_atom_site_fract_x
_atom_site_fract_y
_atom_site_fract_z
Si Si1 0.000000 0.974253 0.250000
Si Si2 0.748516 0.346010 0.655340
Si Si3 0.248243 0.024391 0.872560
Si Si4 0.778170 0.255147 0.128299
Si Si5 0.627346 0.047566 0.512751
Si Si6 0.702581 0.641500 0.889917
Si Si7 0.500000 0.293283 0.250000
Si Si8 0.987634 0.119847 0.559291
O O1 0.035008 0.935728 0.333354
O O2 0.886186 0.006497 0.450117
O O3 0.775534 0.292273 0.703888
O O4 0.846726 0.390221 0.544540
O O5 0.723413 0.339548 0.522225
O O6 0.625762 0.370703 0.873477
O O7 0.282333 0.028346 0.990071
O O8 0.262223 0.084005 0.794557
O O9 0.335284 0.984892 0.675673
O O10 0.750341 0.311996 0.228022
O O11 0.750000 0.250000 0.000000
O O12 0.914665 0.242823 0.953394
O O13 0.500000 0.039436 0.750000
O O14 0.572311 0.629063 0.009984
O O15 0.562300 0.333979 0.271871
#
# Coordination Sequence:
#
# PCOD9266539 Si02
#       8
#     4   8   8   8   8   8   4   8
#     4  11  22  38  70 102 138 164 221 274 336 396
#     4  10  23  41  64  94 128 165 217 271 326 387
#     4  11  25  40  66 100 131 175 216 275 330 393
#     4  11  22  43  64  91 124 170 218 267 327 396
#     4  11  24  46  65  92 133 179 225 264 323 395
#     4  11  23  38  61  97 130 165 209 268 336 391
#     4   9  20  38  62  90 118 162 215 268 312 382
#     4  10  19  37  66  96 127 164 204 268 333 390
#
# _framework density 20.358032999999999
#
# number of rings (size 3 to 8) (size 9 to 14) (size 15 to 20)
#    0.000    1.429    2.857    2.143    4.000    2.286 
#    6.429    1.429    0.000    0.000    0.000    0.000 
#    0.000    0.000    0.000    0.000    0.000    0.000 
#
# Total GULP energy -156212.946677 kJ/mol
# GULP energy per Si atom -5579.033810 kJ/mol
# Density = 2.031170 g / cm^3
# Si number density = 20.358033 Si / 1000 Ang^3
#
#
#
# Elastic Constant Matrix: (Units=GPa)
#
#
# Indices 1 2 3 4 5 6 
#
# 1 54.6033 36.3085 4.9302 0.0000 19.9347 0.0000
# 2 36.3085 123.0671 54.0062 0.0000 11.7717 0.0000
# 3 4.9302 54.0062 84.4287 0.0000 2.0492 0.0000
# 4 0.0000 0.0000 0.0000 30.1880 0.0000 5.0603
# 5 19.9347 11.7717 2.0492 0.0000 36.5369 0.0000
# 6 0.0000 0.0000 0.0000 5.0603 0.0000 19.2058
#
#
#
# Elastic Compliance Matrix: (Units=1/GPa)
#
#
# Indices 1 2 3 4 5 6 
#
# 1 0.028795 -0.009250 0.004551 0.000000 -0.012985 0.000000
# 2 -0.009250 0.014665 -0.008860 0.000000 0.000819 0.000000
# 3 0.004551 -0.008860 0.017261 0.000000 -0.000596 0.000000
# 4 0.000000 0.000000 0.000000 0.034656 0.000000 -0.009131
# 5 -0.012985 0.000819 -0.000596 0.000000 0.034224 0.000000
# 6 0.000000 0.000000 0.000000 -0.009131 0.000000 0.054473
#
#
# Mechanical properties :
#
#
# Convention : Reuss Voigt Hill
#
# Bulk Modulus (GPa) = 29.76135 50.28766 40.02450
# Shear Modulus (GPa) = 22.48274 28.30978 25.39626
#
# Velocity S-wave (km/s) = 3.32681 3.73311 3.53580
# Velocity P-wave (km/s) = 5.42287 6.58307 6.03093
#
# Compressibility (1/GPa) = 0.03360062
#
# Stress axis : x y z
#
# Youngs Moduli (GPa) = 34.72860 68.19175 57.93550
#
# Poissons Ratio (x) = 0.63079 -0.26365
# Poissons Ratio (y) = 0.32125 0.51332
# Poissons Ratio (z) = -0.15804 0.60419
#
# Static dielectric constant tensor:
#      x y z
#    x 1.787840 0.000000 0.000110 
#    y 0.000000 1.745170 0.000000 
#    z 0.000110 0.000000 1.740780 
# 
# From -- ./inp_files/52335.got.cif
#   From: 2010.05.17/outbox.cif.g08.bks.cpg/sg15_27_cif.got.tgz:52335.got - 2010.06.03 18:47:42.
