data_PCOD9266708
_publ_section_title
;
Structure prediction by ZEFSAII (Michael W. Deem and Ramdas Pophale) SiO2 
 PCOD9266708
Probable space group: C 2/C
;
_chemical_formula_sum "Si O2"
_cell_formula_units_Z 64
_cell_length_a 20.929230
_cell_length_b 14.660278
_cell_length_c 12.537778
_cell_angle_alpha 90.000000
_cell_angle_beta 64.654560
_cell_angle_gamma 90.000000
_cell_volume 3476.651354
_symmetry_space_group_name_H-M "C 2/C"
_symmetry_group_IT_number 15
_symmetry_cell_setting 'monoclinic'
loop_
_space_group_symop_operation_xyz
x,y,z
-x,y,1/2-z
-x,-y,-z
x,-y,1/2+z
1/2+x,1/2+y,z
1/2-x,1/2+y,1/2-z
1/2-x,1/2-y,-z
1/2+x,1/2-y,1/2+z
loop_
_atom_site_type_symbol
_atom_site_label
_atom_site_fract_x
_atom_site_fract_y
_atom_site_fract_z
Si Si1 0.285381 0.878579 0.050919
Si Si2 0.325682 0.672770 0.052849
Si Si3 0.922696 0.731155 0.855275
Si Si4 0.423440 0.601987 0.499383
Si Si5 0.708726 0.684055 0.179828
Si Si6 0.181736 0.431064 0.040194
Si Si7 0.970347 0.078655 0.883405
Si Si8 0.734458 0.384817 0.323807
O O1 0.325135 0.782793 0.040267
O O2 0.245233 0.896740 0.190804
O O3 0.331151 0.967749 0.993096
O O4 0.230962 0.864526 0.992163
O O5 0.304814 0.650433 0.189983
O O6 0.401483 0.632588 0.970354
O O7 0.932007 0.797143 0.948928
O O8 0.865768 0.784881 0.820067
O O9 0.000000 0.717264 0.750000
O O10 0.884042 0.637540 0.914749
O O11 0.469612 0.588364 0.571118
O O12 0.448589 0.527733 0.395500
O O13 0.342318 0.584891 0.585172
O O14 0.753689 0.615096 0.074116
O O15 0.754142 0.777476 0.157224
O O16 0.208315 0.434942 0.143507
O O17 0.000000 0.110455 0.750000
#
# Coordination Sequence:
#
# PCOD9266708 Si02
#       8
#     8   8   8   8   8   8   8   8
#     4  10  23  37  61  85 116 152 201 241 288 349
#     4  10  22  41  57  85 119 158 192 240 298 345
#     4  11  21  38  60  89 122 150 189 247 301 346
#     4  11  21  36  57  85 114 154 190 237 302 351
#     4  10  20  37  64  87 115 151 194 249 293 341
#     4  11  21  37  62  92 115 150 199 249 290 339
#     4  11  24  37  53  82 120 156 195 231 291 361
#     4  10  19  38  59  88 116 145 196 248 290 339
#
# _framework density 18.408517
#
# number of rings (size 3 to 8) (size 9 to 14) (size 15 to 20)
#    0.000    1.500    2.500    3.375    3.500    1.000 
#    0.000    0.625    0.000   10.500    0.000    0.000 
#    0.000    0.000    0.000    0.000    0.000    0.000 
#
# Total GULP energy -178730.698735 kJ/mol
# GULP energy per Si atom -5585.334335 kJ/mol
# Density = 1.836662 g / cm^3
# Si number density = 18.408517 Si / 1000 Ang^3
#
#
#
# Elastic Constant Matrix: (Units=GPa)
#
#
# Indices 1 2 3 4 5 6 
#
# 1 63.3426 19.2576 17.6922 0.0000 -15.5327 0.0000
# 2 19.2576 75.7445 21.7764 0.0000 -5.1913 0.0000
# 3 17.6922 21.7764 91.4190 0.0000 2.5843 0.0000
# 4 0.0000 0.0000 0.0000 -18.3131 0.0000 -5.4436
# 5 -15.5327 -5.1913 2.5843 0.0000 26.7262 0.0000
# 6 0.0000 0.0000 0.0000 -5.4436 0.0000 15.3827
#
#
#
# Elastic Compliance Matrix: (Units=1/GPa)
#
#
# Indices 1 2 3 4 5 6 
#
# 1 0.020683 -0.003448 -0.003512 0.000000 0.011690 0.000000
# 2 -0.003448 0.015006 -0.002941 0.000000 0.001196 0.000000
# 3 -0.003512 -0.002941 0.012427 0.000000 -0.003814 0.000000
# 4 0.000000 0.000000 0.000000 -0.049408 0.000000 -0.017485
# 5 0.011690 0.001196 -0.003814 0.000000 0.044812 0.000000
# 6 0.000000 0.000000 0.000000 -0.017485 0.000000 0.058821
#
#
# Mechanical properties :
#
#
# Convention : Reuss Voigt Hill
#
# Bulk Modulus (GPa) = 35.31760 38.66206 36.98983
# Shear Modulus (GPa) = 37.99975 16.21114 27.10545
#
# Velocity S-wave (km/s) = 4.54833 2.97076 3.84140
# Velocity P-wave (km/s) = 6.84180 5.72845 6.30973
#
# Compressibility (1/GPa) = 0.02831449
#
# Stress axis : x y z
#
# Youngs Moduli (GPa) = 48.34904 66.63856 80.47174
#
# Poissons Ratio (x) = 0.22974 0.28262
# Poissons Ratio (y) = 0.16669 0.23668
# Poissons Ratio (z) = 0.16980 0.19599
#
# Static dielectric constant tensor:
#      x y z
#    x 1.610750 0.000000 0.013590 
#    y 0.000000 1.647720 0.000000 
#    z 0.013590 0.000000 1.624230 
# 
# From -- ./inp_files/112731.got.cif
#   From: 2010.05.17/outbox.cif.g08.bks.cpg/sg15_57_cif.got.tgz:112731.got - 2010.06.03 18:47:42.
