data_PCOD9266592
_publ_section_title
;
Structure prediction by ZEFSAII (Michael W. Deem and Ramdas Pophale) SiO2 
 PCOD9266592
Probable space group: C 2/C
;
_chemical_formula_sum "Si O2"
_cell_formula_units_Z 40
_cell_length_a 26.886034
_cell_length_b 9.783546
_cell_length_c 10.187666
_cell_angle_alpha 90.000000
_cell_angle_beta 143.327897
_cell_angle_gamma 90.000000
_cell_volume 1600.452403
_symmetry_space_group_name_H-M "C 2/C"
_symmetry_group_IT_number 15
_symmetry_cell_setting 'monoclinic'
loop_
_space_group_symop_operation_xyz
x,y,z
-x,y,1/2-z
-x,-y,-z
x,-y,1/2+z
1/2+x,1/2+y,z
1/2-x,1/2+y,1/2-z
1/2-x,1/2-y,-z
1/2+x,1/2-y,1/2+z
loop_
_atom_site_type_symbol
_atom_site_label
_atom_site_fract_x
_atom_site_fract_y
_atom_site_fract_z
Si Si1 0.377606 0.391074 0.182851
Si Si2 0.721583 0.026125 0.966899
Si Si3 0.043010 0.824028 0.661446
Si Si4 0.347037 0.744212 0.350788
Si Si5 0.945477 0.477021 0.255137
O O1 0.445197 0.347499 0.434480
O O2 0.411314 0.537554 0.198452
O O3 0.288104 0.416987 0.058042
O O4 0.373328 0.289250 0.052681
O O5 0.683239 0.106683 0.760156
O O6 0.645970 0.975791 0.895539
O O7 0.772173 0.140315 0.155617
O O8 0.079319 0.796418 0.592788
O O9 0.063810 0.687260 0.783855
O O10 0.000000 0.533041 0.250000
O O11 0.000000 0.500000 0.500000
#
# Coordination Sequence:
#
# PCOD9266592 Si02
#       5
#     8   8   8   8   8
#     4  10  19  37  71  96 134 164 217 276 336 391
#     4   9  21  39  59  96 128 172 216 267 332 392
#     4   9  21  40  64 102 124 168 226 271 330 392
#     4   9  18  37  64  91 133 172 207 271 332 391
#     4  11  26  45  67  90 134 181 227 271 330 400
#
# _framework density 24.992934000000002
#
# number of rings (size 3 to 8) (size 9 to 14) (size 15 to 20)
#    0.000    2.400    0.000    1.800    2.800    8.000 
#    0.000    1.000    4.400    0.000    0.000    0.000 
#    0.000    0.000    0.000    0.000    0.000    0.000 
#
# Total GULP energy -112001.665110 kJ/mol
# GULP energy per Si atom -5600.083256 kJ/mol
# Density = 2.493605 g / cm^3
# Si number density = 24.992934 Si / 1000 Ang^3
#
#
#
# Elastic Constant Matrix: (Units=GPa)
#
#
# Indices 1 2 3 4 5 6 
#
# 1 195.0409 40.2180 78.0546 0.0000 39.4793 0.0000
# 2 40.2180 103.0617 28.5768 0.0000 5.4911 0.0000
# 3 78.0546 28.5768 82.7644 0.0000 28.7309 0.0000
# 4 0.0000 0.0000 0.0000 29.8453 0.0000 -2.6710
# 5 39.4793 5.4911 28.7309 0.0000 45.7436 0.0000
# 6 0.0000 0.0000 0.0000 -2.6710 0.0000 28.3667
#
#
#
# Elastic Compliance Matrix: (Units=1/GPa)
#
#
# Indices 1 2 3 4 5 6 
#
# 1 0.008713 -0.001392 -0.006629 0.000000 -0.003189 0.000000
# 2 -0.001392 0.011016 -0.003132 0.000000 0.001846 0.000000
# 3 -0.006629 -0.003132 0.022123 0.000000 -0.007798 0.000000
# 4 0.000000 0.000000 0.000000 0.033791 0.000000 0.003182
# 5 -0.003189 0.001846 -0.007798 0.000000 0.029289 0.000000
# 6 0.000000 0.000000 0.000000 0.003182 0.000000 0.035552
#
#
# Mechanical properties :
#
#
# Convention : Reuss Voigt Hill
#
# Bulk Modulus (GPa) = 51.16249 74.95177 63.05713
# Shear Modulus (GPa) = 29.53260 36.39229 32.96245
#
# Velocity S-wave (km/s) = 3.44123 3.82003 3.63557
# Velocity P-wave (km/s) = 6.02533 7.03642 6.55041
#
# Compressibility (1/GPa) = 0.01954557
#
# Stress axis : x y z
#
# Youngs Moduli (GPa) = 114.77649 90.77619 45.20234
#
# Poissons Ratio (x) = 0.12635 0.29966
# Poissons Ratio (y) = 0.15976 0.14156
# Poissons Ratio (z) = 0.76089 0.28429
#
# Static dielectric constant tensor:
#      x y z
#    x 1.931800 0.000000 -0.010980 
#    y 0.000000 2.085680 0.000000 
#    z -0.010980 0.000000 2.000840 
# 
# From -- ./inp_files/126515.got.cif
#   From: 2010.05.17/outbox.cif.g08.bks.cpg/sg15_64_cif.got.tgz:126515.got - 2010.06.03 18:47:42.
