data_PCOD9266419
_publ_section_title
;
Structure prediction by ZEFSAII (Michael W. Deem and Ramdas Pophale) SiO2 
 PCOD9266419
Probable space group: C 2/C
;
_chemical_formula_sum "Si O2"
_cell_formula_units_Z 32
_cell_length_a 13.131809
_cell_length_b 11.082858
_cell_length_c 9.737304
_cell_angle_alpha 90.000000
_cell_angle_beta 99.578529
_cell_angle_gamma 90.000000
_cell_volume 1397.390286
_symmetry_space_group_name_H-M "C 2/C"
_symmetry_group_IT_number 15
_symmetry_cell_setting 'monoclinic'
loop_
_space_group_symop_operation_xyz
x,y,z
-x,y,1/2-z
-x,-y,-z
x,-y,1/2+z
1/2+x,1/2+y,z
1/2-x,1/2+y,1/2-z
1/2-x,1/2-y,-z
1/2+x,1/2-y,1/2+z
loop_
_atom_site_type_symbol
_atom_site_label
_atom_site_fract_x
_atom_site_fract_y
_atom_site_fract_z
Si Si1 0.922269 0.994748 0.107049
Si Si2 0.216148 0.383663 0.115238
Si Si3 0.118836 0.246204 0.322867
Si Si4 0.614430 0.010237 0.336044
O O1 0.138737 0.122834 0.404769
O O2 0.000000 0.979847 0.250000
O O3 0.833982 0.894935 0.096430
O O4 0.000000 0.000000 0.000000
O O5 0.186570 0.268373 0.201329
O O6 0.188323 0.489973 0.220276
O O7 0.147889 0.401039 0.963834
O O8 0.120459 0.373793 0.401746
O O9 0.000000 0.235748 0.250000
O O10 0.500000 0.031004 0.250000
#
# Coordination Sequence:
#
# PCOD9266419 Si02
#       4
#     8   8   8   8
#     4  11  23  43  64  89 131 175 210 259 316 379
#     4  10  19  37  64  91 126 169 209 263 317 371
#     4   8  20  38  65  85 129 159 210 263 321 360
#     4   9  18  34  64  92 129 156 206 270 324 363
#
# _framework density 22.899829
#
# number of rings (size 3 to 8) (size 9 to 14) (size 15 to 20)
#    1.500    1.000    0.000    2.250    0.000    1.000 
#    0.000   11.250    0.000    0.000    0.000    0.000 
#    0.000    0.000    0.000    0.000    0.000    0.000 
#
# Total GULP energy -89160.373800 kJ/mol
# GULP energy per Si atom -5572.523362 kJ/mol
# Density = 2.284771 g / cm^3
# Si number density = 22.899829 Si / 1000 Ang^3
#
#
#
# Elastic Constant Matrix: (Units=GPa)
#
#
# Indices 1 2 3 4 5 6 
#
# 1 144.5630 35.5773 40.8871 0.0000 -28.5594 0.0000
# 2 35.5773 77.0584 22.6231 0.0000 -8.5171 0.0000
# 3 40.8871 22.6231 110.3000 0.0000 -20.0844 0.0000
# 4 0.0000 0.0000 0.0000 10.7958 0.0000 -16.6753
# 5 -28.5594 -8.5171 -20.0844 0.0000 43.5493 0.0000
# 6 0.0000 0.0000 0.0000 -16.6753 0.0000 2.3048
#
#
#
# Elastic Compliance Matrix: (Units=1/GPa)
#
#
# Indices 1 2 3 4 5 6 
#
# 1 0.009121 -0.003153 -0.001919 0.000000 0.004480 0.000000
# 2 -0.003153 0.014991 -0.001909 0.000000 -0.000016 0.000000
# 3 -0.001919 -0.001909 0.010777 0.000000 0.003339 0.000000
# 4 0.000000 0.000000 0.000000 -0.009103 0.000000 -0.065863
# 5 0.004480 -0.000016 0.003339 0.000000 0.027437 0.000000
# 6 0.000000 0.000000 0.000000 -0.065863 0.000000 -0.042641
#
#
# Mechanical properties :
#
#
# Convention : Reuss Voigt Hill
#
# Bulk Modulus (GPa) = 47.78164 58.89959 53.34062
# Shear Modulus (GPa) = 158.63248 26.85224 92.74236
#
# Velocity S-wave (km/s) = 8.33203 3.42803 6.37080
# Velocity P-wave (km/s) = 10.65244 6.43777 8.80112
#
# Compressibility (1/GPa) = 0.02092854
#
# Stress axis : x y z
#
# Youngs Moduli (GPa) = 109.63707 66.70481 92.79117
#
# Poissons Ratio (x) = 0.21030 0.17804
# Poissons Ratio (y) = 0.34565 0.17715
# Poissons Ratio (z) = 0.21036 0.12735
#
# Static dielectric constant tensor:
#      x y z
#    x 1.862110 0.000000 0.008140 
#    y 0.000000 2.056270 0.000000 
#    z 0.008140 0.000000 1.824110 
# 
# From -- ./inp_files/84785.got.cif
#   From: 2010.05.17/outbox.cif.g08.bks.cpg/sg15_43_cif.got.tgz:84785.got - 2010.06.03 18:47:42.
