data_PCOD9266504
_publ_section_title
;
Structure prediction by ZEFSAII (Michael W. Deem and Ramdas Pophale) SiO2 
 PCOD9266504
Probable space group: C 2/C
;
_chemical_formula_sum "Si O2"
_cell_formula_units_Z 60
_cell_length_a 10.520279
_cell_length_b 15.106975
_cell_length_c 21.213442
_cell_angle_alpha 90.000000
_cell_angle_beta 65.006792
_cell_angle_gamma 90.000000
_cell_volume 3055.734542
_symmetry_space_group_name_H-M "C 2/C"
_symmetry_group_IT_number 15
_symmetry_cell_setting 'monoclinic'
loop_
_space_group_symop_operation_xyz
x,y,z
-x,y,1/2-z
-x,-y,-z
x,-y,1/2+z
1/2+x,1/2+y,z
1/2-x,1/2+y,1/2-z
1/2-x,1/2-y,-z
1/2+x,1/2-y,1/2+z
loop_
_atom_site_type_symbol
_atom_site_label
_atom_site_fract_x
_atom_site_fract_y
_atom_site_fract_z
Si Si1 0.882115 0.682642 0.912987
Si Si2 0.649849 0.206289 0.721702
Si Si3 0.500000 0.376947 0.750000
Si Si4 0.919502 0.752450 0.463655
Si Si5 0.581619 0.361456 0.528355
Si Si6 0.952124 0.815039 0.190682
Si Si7 0.577249 0.080922 0.951431
Si Si8 0.606203 0.492428 0.122288
O O1 0.815680 0.702323 0.859143
O O2 0.943134 0.777523 0.920784
O O3 0.005480 0.612073 0.900683
O O4 0.747662 0.648450 0.979662
O O5 0.500000 0.156858 0.750000
O O6 0.611044 0.304981 0.753390
O O7 0.784856 0.176026 0.729082
O O8 0.418452 0.435904 0.817370
O O9 0.750000 0.750000 0.500000
O O10 0.953382 0.664345 0.496204
O O11 0.985350 0.836255 0.488365
O O12 0.987218 0.754892 0.379502
O O13 0.564421 0.454397 0.567450
O O14 0.000000 0.786698 0.250000
O O15 0.007963 0.911353 0.160755
O O16 0.738736 0.050753 0.912615
O O17 0.500000 0.000000 0.000000
#
# Coordination Sequence:
#
# PCOD9266504 Si02
#       8
#     8   8   4   8   8   8   8   8
#     4  10  19  37  65  98 123 169 223 278 325 395
#     4  10  23  42  70  92 121 182 234 274 321 419
#     4  10  24  40  70  92 130 174 232 270 334 412
#     4  11  24  44  65  99 139 182 224 282 356 415
#     4  10  20  37  68  95 131 170 226 280 330 398
#     4  12  27  44  68  98 145 183 225 281 356 419
#     4  11  24  38  69 101 136 170 229 285 341 403
#     4  12  23  42  66 106 133 178 226 288 344 411
#
# _framework density 19.635213
#
# number of rings (size 3 to 8) (size 9 to 14) (size 15 to 20)
#    0.400    0.800    6.000    0.000    3.733    1.600 
#    2.400    0.000    0.000    0.000    0.000    0.000 
#    0.000    0.000    0.000    0.000    0.000    0.000 
#
# Total GULP energy -167012.183963 kJ/mol
# GULP energy per Si atom -5567.072799 kJ/mol
# Density = 1.959052 g / cm^3
# Si number density = 19.635213 Si / 1000 Ang^3
#
#
#
# Elastic Constant Matrix: (Units=GPa)
#
#
# Indices 1 2 3 4 5 6 
#
# 1 140.3386 36.2720 36.9111 0.0000 -8.2948 0.0000
# 2 36.2720 68.3371 26.5462 0.0000 -16.5017 0.0000
# 3 36.9111 26.5462 86.0540 0.0000 1.4679 0.0000
# 4 0.0000 0.0000 0.0000 24.4988 0.0000 -10.7630
# 5 -8.2948 -16.5017 1.4679 0.0000 37.4574 0.0000
# 6 0.0000 0.0000 0.0000 -10.7630 0.0000 27.4335
#
#
#
# Elastic Compliance Matrix: (Units=1/GPa)
#
#
# Indices 1 2 3 4 5 6 
#
# 1 0.008764 -0.003482 -0.002694 0.000000 0.000513 0.000000
# 2 -0.003482 0.020442 -0.004956 0.000000 0.008429 0.000000
# 3 -0.002694 -0.004956 0.014362 0.000000 -0.003343 0.000000
# 4 0.000000 0.000000 0.000000 0.049319 0.000000 0.019350
# 5 0.000513 0.008429 -0.003343 0.000000 0.030655 0.000000
# 6 0.000000 0.000000 0.000000 0.019350 0.000000 0.044043
#
#
# Mechanical properties :
#
#
# Convention : Reuss Voigt Hill
#
# Bulk Modulus (GPa) = 46.93870 54.90982 50.92426
# Shear Modulus (GPa) = 25.38697 30.87796 28.13246
#
# Velocity S-wave (km/s) = 3.59964 3.96988 3.78928
# Velocity P-wave (km/s) = 6.42135 7.00278 6.71836
#
# Compressibility (1/GPa) = 0.02130438
#
# Stress axis : x y z
#
# Youngs Moduli (GPa) = 114.09854 48.91874 69.62747
#
# Poissons Ratio (x) = 0.17032 0.18758
# Poissons Ratio (y) = 0.39725 0.34510
# Poissons Ratio (z) = 0.30738 0.24246
#
# Static dielectric constant tensor:
#      x y z
#    x 1.747130 0.000000 0.018010 
#    y 0.000000 1.699950 0.000000 
#    z 0.018010 0.000000 1.852230 
# 
# From -- ./inp_files/238716.got.cif
#   From: 2010.05.17/outbox.cif.g08.bks.cpg/sg15_120_cif.got.tgz:238716.got - 2010.06.03 18:47:42.
