data_PCOD9266567
_publ_section_title
;
Structure prediction by ZEFSAII (Michael W. Deem and Ramdas Pophale) SiO2 
 PCOD9266567
Probable space group: C 2/C
;
_chemical_formula_sum "Si O2"
_cell_formula_units_Z 44
_cell_length_a 10.083647
_cell_length_b 12.558182
_cell_length_c 19.241402
_cell_angle_alpha 90.000000
_cell_angle_beta 120.412005
_cell_angle_gamma 90.000000
_cell_volume 2101.327317
_symmetry_space_group_name_H-M "C 2/C"
_symmetry_group_IT_number 15
_symmetry_cell_setting 'monoclinic'
loop_
_space_group_symop_operation_xyz
x,y,z
-x,y,1/2-z
-x,-y,-z
x,-y,1/2+z
1/2+x,1/2+y,z
1/2-x,1/2+y,1/2-z
1/2-x,1/2-y,-z
1/2+x,1/2-y,1/2+z
loop_
_atom_site_type_symbol
_atom_site_label
_atom_site_fract_x
_atom_site_fract_y
_atom_site_fract_z
Si Si1 0.232458 0.234236 0.726661
Si Si2 0.230851 0.377148 0.994445
Si Si3 0.002984 0.050882 0.851194
Si Si4 0.000000 0.141261 0.250000
Si Si5 0.484218 0.934206 0.822649
Si Si6 0.315223 0.892180 0.368512
O O1 0.350637 0.284797 0.703575
O O2 0.329478 0.208799 0.822300
O O3 0.872046 0.393673 0.462835
O O4 0.102425 0.321682 0.706049
O O5 0.145552 0.415355 0.903500
O O6 0.250000 0.250000 0.000000
O O7 0.391465 0.438056 0.051761
O O8 0.131361 0.098428 0.831784
O O9 0.854677 0.125693 0.817811
O O10 0.973647 0.935458 0.810072
O O11 0.500000 0.980654 0.750000
O O12 0.384311 0.009966 0.845181
#
# Coordination Sequence:
#
# PCOD9266567 Si02
#       6
#     8   8   8   4   8   8
#     4  12  20  39  64  95 134 177 226 276 335 399
#     4  10  19  37  67  99 127 181 225 272 343 401
#     4  10  19  40  63  97 135 172 222 278 330 399
#     4  12  24  38  68 102 134 182 224 280 340 392
#     4  12  22  37  67 102 130 181 232 272 338 409
#     4  10  22  37  64  95 136 171 225 277 332 397
#
# _framework density 20.939146000000001
#
# number of rings (size 3 to 8) (size 9 to 14) (size 15 to 20)
#    1.091    0.000    5.455    2.727    1.273    0.000 
#    0.000    0.000    4.000    5.455    0.000    0.000 
#    0.000    0.000    0.000    0.000    0.000    0.000 
#
# Total GULP energy -122611.868790 kJ/mol
# GULP energy per Si atom -5573.266763 kJ/mol
# Density = 2.089149 g / cm^3
# Si number density = 20.939146 Si / 1000 Ang^3
#
#
#
# Elastic Constant Matrix: (Units=GPa)
#
#
# Indices 1 2 3 4 5 6 
#
# 1 70.5996 39.9212 25.2780 0.0000 4.9982 0.0000
# 2 39.9212 88.7138 35.8708 0.0000 2.3455 0.0000
# 3 25.2780 35.8708 124.2652 0.0000 -3.4751 0.0000
# 4 0.0000 0.0000 0.0000 8.2805 0.0000 3.1747
# 5 4.9982 2.3455 -3.4751 0.0000 30.4082 0.0000
# 6 0.0000 0.0000 0.0000 3.1747 0.0000 30.9431
#
#
#
# Elastic Compliance Matrix: (Units=1/GPa)
#
#
# Indices 1 2 3 4 5 6 
#
# 1 0.019509 -0.008003 -0.001736 0.000000 -0.002788 0.000000
# 2 -0.008003 0.016106 -0.003029 0.000000 -0.000273 0.000000
# 3 -0.001736 -0.003029 0.009319 0.000000 0.001584 0.000000
# 4 0.000000 0.000000 0.000000 0.125710 0.000000 -0.012898
# 5 -0.002788 -0.000273 0.001584 0.000000 0.033546 0.000000
# 6 0.000000 0.000000 0.000000 -0.012898 0.000000 0.033641
#
#
# Mechanical properties :
#
#
# Convention : Reuss Voigt Hill
#
# Bulk Modulus (GPa) = 51.55396 53.96874 52.76135
# Shear Modulus (GPa) = 18.53002 26.09362 22.31182
#
# Velocity S-wave (km/s) = 2.97803 3.53394 3.26783
# Velocity P-wave (km/s) = 6.04146 6.51779 6.28414
#
# Compressibility (1/GPa) = 0.01939715
#
# Stress axis : x y z
#
# Youngs Moduli (GPa) = 51.25866 62.09051 107.30705
#
# Poissons Ratio (x) = 0.49693 0.18631
# Poissons Ratio (y) = 0.41024 0.32500
# Poissons Ratio (z) = 0.08900 0.18805
#
# Static dielectric constant tensor:
#      x y z
#    x 1.765030 0.000000 -0.017900 
#    y 0.000000 1.761630 0.000000 
#    z -0.017900 0.000000 1.852830 
# 
# From -- ./inp_files/231419.got.cif
#   From: 2010.05.17/outbox.cif.g08.bks.cpg/sg15_116_cif.got.tgz:231419.got - 2010.06.03 18:47:42.
