data_PCOD9266274
_publ_section_title
;
Structure prediction by ZEFSAII (Michael W. Deem and Ramdas Pophale) SiO2 
 PCOD9266274
Probable space group: C 2/C
;
_chemical_formula_sum "Si O2"
_cell_formula_units_Z 56
_cell_length_a 11.914935
_cell_length_b 17.355993
_cell_length_c 15.631961
_cell_angle_alpha 90.000000
_cell_angle_beta 124.702733
_cell_angle_gamma 90.000000
_cell_volume 2657.591187
_symmetry_space_group_name_H-M "C 2/C"
_symmetry_group_IT_number 15
_symmetry_cell_setting 'monoclinic'
loop_
_space_group_symop_operation_xyz
x,y,z
-x,y,1/2-z
-x,-y,-z
x,-y,1/2+z
1/2+x,1/2+y,z
1/2-x,1/2+y,1/2-z
1/2-x,1/2-y,-z
1/2+x,1/2-y,1/2+z
loop_
_atom_site_type_symbol
_atom_site_label
_atom_site_fract_x
_atom_site_fract_y
_atom_site_fract_z
Si Si1 0.593065 0.422558 0.545130
Si Si2 0.224545 0.108907 0.257487
Si Si3 0.000000 0.007293 0.250000
Si Si4 0.500000 0.247326 0.250000
Si Si5 0.107741 0.795540 0.992072
Si Si6 0.494295 0.841318 0.931096
Si Si7 0.151218 0.741051 0.821240
Si Si8 0.309164 0.624688 0.595490
O O1 0.500000 0.500000 0.500000
O O2 0.729437 0.421829 0.662399
O O3 0.499847 0.361721 0.552442
O O4 0.631583 0.379499 0.474581
O O5 0.368923 0.098493 0.368409
O O6 0.189822 0.199114 0.263705
O O7 0.095526 0.062331 0.236472
O O8 0.116772 0.951169 0.337036
O O9 0.508528 0.199237 0.164957
O O10 0.629550 0.303765 0.323846
O O11 0.047059 0.719339 0.011818
O O12 0.230789 0.819524 0.109365
O O13 0.151910 0.786157 0.912795
O O14 0.645577 0.871583 0.017949
O O15 0.000000 0.709246 0.750000
#
# Coordination Sequence:
#
# PCOD9266274 Si02
#       8
#     8   8   4   4   8   8   8   8
#     4  12  22  40  65  88 123 166 210 247 305 383
#     4  11  22  39  67  89 118 170 208 251 316 369
#     4  11  22  44  62  86 126 171 212 250 311 386
#     4  11  22  40  64  90 132 161 202 260 317 374
#     4  10  22  36  60  94 118 152 205 253 312 355
#     4  11  24  39  64  96 126 159 208 267 311 364
#     4  10  19  37  62  89 119 153 201 258 302 368
#     4  11  25  40  61  93 128 165 208 259 309 375
#
# _framework density 21.071712999999999
#
# number of rings (size 3 to 8) (size 9 to 14) (size 15 to 20)
#    0.000    1.143    5.000    1.286    2.000    0.571 
#    0.000    0.000    3.143    0.000    0.000    0.000 
#    0.000    0.000    0.000    0.000    0.000    0.000 
#
# Total GULP energy -155871.271503 kJ/mol
# GULP energy per Si atom -5566.831125 kJ/mol
# Density = 2.102375 g / cm^3
# Si number density = 21.071713 Si / 1000 Ang^3
#
#
#
# Elastic Constant Matrix: (Units=GPa)
#
#
# Indices 1 2 3 4 5 6 
#
# 1 80.0821 20.3106 46.4889 0.0000 26.9798 0.0000
# 2 20.3106 39.9376 41.2540 0.0000 6.0144 0.0000
# 3 46.4889 41.2540 129.9688 0.0000 30.2771 0.0000
# 4 0.0000 0.0000 0.0000 46.6440 0.0000 1.7214
# 5 26.9798 6.0144 30.2771 0.0000 51.0813 0.0000
# 6 0.0000 0.0000 0.0000 1.7214 0.0000 16.7814
#
#
#
# Elastic Compliance Matrix: (Units=1/GPa)
#
#
# Indices 1 2 3 4 5 6 
#
# 1 0.017937 -0.004644 -0.003321 0.000000 -0.006959 0.000000
# 2 -0.004644 0.038868 -0.011813 0.000000 0.004878 0.000000
# 3 -0.003321 -0.011813 0.013805 0.000000 -0.005038 0.000000
# 4 0.000000 0.000000 0.000000 0.021520 0.000000 -0.002208
# 5 -0.006959 0.004878 -0.005038 0.000000 0.025664 0.000000
# 6 0.000000 0.000000 0.000000 -0.002208 0.000000 0.059816
#
#
# Mechanical properties :
#
#
# Convention : Reuss Voigt Hill
#
# Bulk Modulus (GPa) = 32.20013 51.78840 41.99426
# Shear Modulus (GPa) = 21.97636 32.36367 27.17001
#
# Velocity S-wave (km/s) = 3.23295 3.92329 3.59473
# Velocity P-wave (km/s) = 5.40836 6.71963 6.09934
#
# Compressibility (1/GPa) = 0.03105578
#
# Stress axis : x y z
#
# Youngs Moduli (GPa) = 55.74990 25.72810 72.43715
#
# Poissons Ratio (x) = 0.11948 0.24056
# Poissons Ratio (y) = 0.25889 0.85567
# Poissons Ratio (z) = 0.18514 0.30391
#
# Static dielectric constant tensor:
#      x y z
#    x 1.942240 0.000000 0.030610 
#    y 0.000000 1.771340 0.000000 
#    z 0.030610 0.000000 1.955470 
# 
# From -- ./inp_files/119829.got.cif
#   From: 2010.05.17/outbox.cif.g08.bks.cpg/sg15_60_cif.got.tgz:119829.got - 2010.06.03 18:47:42.
