data_PCOD9266311
_publ_section_title
;
Structure prediction by ZEFSAII (Michael W. Deem and Ramdas Pophale) SiO2 
 PCOD9266311
Probable space group: C 2/C
;
_chemical_formula_sum "Si O2"
_cell_formula_units_Z 44
_cell_length_a 21.014545
_cell_length_b 12.916363
_cell_length_c 15.284855
_cell_angle_alpha 90.000000
_cell_angle_beta 27.427867
_cell_angle_gamma 90.000000
_cell_volume 1911.063974
_symmetry_space_group_name_H-M "C 2/C"
_symmetry_group_IT_number 15
_symmetry_cell_setting 'monoclinic'
loop_
_space_group_symop_operation_xyz
x,y,z
-x,y,1/2-z
-x,-y,-z
x,-y,1/2+z
1/2+x,1/2+y,z
1/2-x,1/2+y,1/2-z
1/2-x,1/2-y,-z
1/2+x,1/2-y,1/2+z
loop_
_atom_site_type_symbol
_atom_site_label
_atom_site_fract_x
_atom_site_fract_y
_atom_site_fract_z
Si Si1 0.868591 0.207294 0.242283
Si Si2 0.153477 0.756193 0.202628
Si Si3 0.138585 0.393686 0.123007
Si Si4 0.809121 0.855181 0.174595
Si Si5 0.736925 0.958399 0.649374
Si Si6 0.000000 0.857224 0.250000
O O1 0.886441 0.280214 0.305573
O O2 0.765714 0.117118 0.400901
O O3 0.784067 0.275224 0.271539
O O4 0.024758 0.169681 0.032215
O O5 0.217317 0.838336 0.191007
O O6 0.152378 0.648801 0.257804
O O7 0.016303 0.791609 0.319858
O O8 0.250000 0.750000 0.000000
O O9 0.160068 0.464738 0.179639
O O10 0.000000 0.432086 0.250000
O O11 0.777585 0.972083 0.182378
O O12 0.872527 0.929013 0.428987
#
# Coordination Sequence:
#
# PCOD9266311 Si02
#       6
#     8   8   8   8   8   4
#     4  10  21  37  66 103 143 178 225 292 350 411
#     4  10  25  46  67  97 143 181 233 294 348 410
#     4  10  19  37  63 102 145 181 221 283 359 414
#     4  11  23  43  69 102 139 182 238 293 340 415
#     4  10  23  42  69 102 132 186 240 278 353 424
#     4  10  22  46  70  98 140 190 224 288 356 420
#
# _framework density 23.023824000000001
#
# number of rings (size 3 to 8) (size 9 to 14) (size 15 to 20)
#    0.000    1.818    1.818    1.091    6.364    0.727 
#    6.545    3.636    0.000    0.000    0.000    0.000 
#    0.000    0.000    0.000    0.000    0.000    0.000 
#
# Total GULP energy -122700.120268 kJ/mol
# GULP energy per Si atom -5577.278194 kJ/mol
# Density = 2.297142 g / cm^3
# Si number density = 23.023824 Si / 1000 Ang^3
#
#
#
# Elastic Constant Matrix: (Units=GPa)
#
#
# Indices 1 2 3 4 5 6 
#
# 1 152.7501 48.8915 33.9842 0.0000 4.6860 0.0000
# 2 48.8915 92.2340 -6.0040 0.0000 5.7739 0.0000
# 3 33.9842 -6.0040 41.8257 0.0000 -3.5238 0.0000
# 4 0.0000 0.0000 0.0000 -3.9459 0.0000 8.1839
# 5 4.6860 5.7739 -3.5238 0.0000 34.4088 0.0000
# 6 0.0000 0.0000 0.0000 8.1839 0.0000 23.0109
#
#
#
# Elastic Compliance Matrix: (Units=1/GPa)
#
#
# Indices 1 2 3 4 5 6 
#
# 1 0.010763 -0.006252 -0.009762 0.000000 -0.001416 0.000000
# 2 -0.006252 0.014674 0.007112 0.000000 -0.000883 0.000000
# 3 -0.009762 0.007112 0.033159 0.000000 0.003532 0.000000
# 4 0.000000 0.000000 0.000000 -0.145846 0.000000 0.051870
# 5 -0.001416 -0.000883 0.003532 0.000000 0.029765 0.000000
# 6 0.000000 0.000000 0.000000 0.051870 0.000000 0.025010
#
#
# Mechanical properties :
#
#
# Convention : Reuss Voigt Hill
#
# Bulk Modulus (GPa) = 24.51443 48.95037 36.73240
# Shear Modulus (GPa) = -4659.75702 24.69062 -2317.53320
#
# Velocity S-wave (km/s) = -45.03641 3.27830 -31.76107
# Velocity P-wave (km/s) = 51.90088 5.96963 36.45589
#
# Compressibility (1/GPa) = 0.04079230
#
# Stress axis : x y z
#
# Youngs Moduli (GPa) = 92.90980 68.14625 30.15768
#
# Poissons Ratio (x) = 0.42606 0.29440
# Poissons Ratio (y) = 0.58088 -0.21448
# Poissons Ratio (z) = 0.90699 -0.48466
#
# Static dielectric constant tensor:
#      x y z
#    x 10.421650 0.000000 -2.361970 
#    y 0.000000 1.885880 0.000000 
#    z -2.361970 0.000000 2.562980 
# 
# From -- ./inp_files/161814.got.cif
#   From: 2010.05.17/outbox.cif.g08.bks.cpg/sg15_81_cif.got.tgz:161814.got - 2010.06.03 18:47:42.
