data_PCOD9266341
_publ_section_title
;
Structure prediction by ZEFSAII (Michael W. Deem and Ramdas Pophale) SiO2 
 PCOD9266341
Probable space group: C 2/C
;
_chemical_formula_sum "Si O2"
_cell_formula_units_Z 40
_cell_length_a 18.846370
_cell_length_b 6.852855
_cell_length_c 27.243454
_cell_angle_alpha 90.000000
_cell_angle_beta 152.464940
_cell_angle_gamma 90.000000
_cell_volume 1626.586426
_symmetry_space_group_name_H-M "C 2/C"
_symmetry_group_IT_number 15
_symmetry_cell_setting 'monoclinic'
loop_
_space_group_symop_operation_xyz
x,y,z
-x,y,1/2-z
-x,-y,-z
x,-y,1/2+z
1/2+x,1/2+y,z
1/2-x,1/2+y,1/2-z
1/2-x,1/2-y,-z
1/2+x,1/2-y,1/2+z
loop_
_atom_site_type_symbol
_atom_site_label
_atom_site_fract_x
_atom_site_fract_y
_atom_site_fract_z
Si Si1 0.361291 0.005684 0.847042
Si Si2 0.431738 0.337325 0.492485
Si Si3 0.412944 0.004197 0.595119
Si Si4 0.474947 0.628207 0.873113
Si Si5 0.844295 0.816449 0.634251
O O1 0.451734 0.157270 0.935659
O O2 0.425662 0.063425 0.832108
O O3 0.182816 0.040616 0.743562
O O4 0.419629 0.783680 0.881354
O O5 0.500000 0.500000 0.500000
O O6 0.433243 0.452621 0.546245
O O7 0.261406 0.254262 0.385434
O O8 0.273582 0.059374 0.472159
O O9 0.394357 0.129093 0.632452
O O10 0.433646 0.768898 0.608040
O O11 0.000000 0.912245 0.750000
#
# Coordination Sequence:
#
# PCOD9266341 Si02
#       5
#     8   8   8   8   8
#     4   9  19  36  61  88 115 161 193 250 303 355
#     4  11  23  37  61  92 122 150 204 258 302 364
#     4   8  20  39  59  87 121 163 205 248 302 366
#     4  10  19  37  63  89 117 157 206 240 312 356
#     4  10  21  39  61  86 124 165 202 256 309 356
#
# _framework density 24.591377000000001
#
# number of rings (size 3 to 8) (size 9 to 14) (size 15 to 20)
#    1.200    1.200    2.000    0.000    5.600    1.600 
#    0.000    1.000    0.000    0.000    0.000    0.000 
#    0.000    0.000    0.000    0.000    0.000    0.000 
#
# Total GULP energy -111568.838345 kJ/mol
# GULP energy per Si atom -5578.441917 kJ/mol
# Density = 2.453541 g / cm^3
# Si number density = 24.591377 Si / 1000 Ang^3
#
#
#
# Elastic Constant Matrix: (Units=GPa)
#
#
# Indices 1 2 3 4 5 6 
#
# 1 55.9436 -1.7877 14.0306 -0.0001 9.6805 0.0001
# 2 -1.7877 123.6609 24.2887 0.0000 -1.2934 -0.0002
# 3 14.0306 24.2887 115.3123 0.0001 24.3956 0.0000
# 4 -0.0001 0.0000 0.0001 36.5953 -0.0001 6.0591
# 5 9.6805 -1.2934 24.3956 -0.0001 30.5368 0.0000
# 6 0.0001 -0.0002 0.0000 6.0591 0.0000 41.4282
#
#
#
# Elastic Compliance Matrix: (Units=1/GPa)
#
#
# Indices 1 2 3 4 5 6 
#
# 1 0.019091 0.000497 -0.001386 0.000000 -0.004924 0.000000
# 2 0.000497 0.008566 -0.002296 0.000000 0.002040 0.000000
# 3 -0.001386 -0.002296 0.011134 0.000000 -0.008553 0.000000
# 4 0.000000 0.000000 0.000000 0.028004 0.000000 -0.004096
# 5 -0.004924 0.002040 -0.008553 0.000000 0.041227 0.000000
# 6 0.000000 0.000000 0.000000 -0.004096 0.000000 0.024737
#
#
# Mechanical properties :
#
#
# Convention : Reuss Voigt Hill
#
# Bulk Modulus (GPa) = 30.84544 40.88666 35.86605
# Shear Modulus (GPa) = 33.34746 38.93776 36.14261
#
# Velocity S-wave (km/s) = 3.68647 3.98350 3.83786
# Velocity P-wave (km/s) = 5.53990 6.14982 5.85281
#
# Compressibility (1/GPa) = 0.03241970
#
# Stress axis : x y z
#
# Youngs Moduli (GPa) = 52.38188 116.73827 89.81655
#
# Poissons Ratio (x) = -0.05798 0.12447
# Poissons Ratio (y) = -0.02602 0.20625
# Poissons Ratio (z) = 0.07259 0.26807
#
# Static dielectric constant tensor:
#      x y z
#    x 2.046260 0.000000 -0.043670 
#    y 0.000000 1.913910 0.000000 
#    z -0.043670 0.000000 1.922590 
# 
# From -- ./inp_files/317627.got.cif
#   From: 2010.05.17/outbox.cif.g08.bks.cpg/sg15_159_cif.got.tgz:317627.got - 2010.06.03 18:47:42.
