data_PCOD9266516
_publ_section_title
;
Structure prediction by ZEFSAII (Michael W. Deem and Ramdas Pophale) SiO2 
 PCOD9266516
Probable space group: C 2/C
;
_chemical_formula_sum "Si O2"
_cell_formula_units_Z 44
_cell_length_a 8.872682
_cell_length_b 17.215362
_cell_length_c 19.245070
_cell_angle_alpha 90.000000
_cell_angle_beta 134.076313
_cell_angle_gamma 90.000000
_cell_volume 2111.860953
_symmetry_space_group_name_H-M "C 2/C"
_symmetry_group_IT_number 15
_symmetry_cell_setting 'monoclinic'
loop_
_space_group_symop_operation_xyz
x,y,z
-x,y,1/2-z
-x,-y,-z
x,-y,1/2+z
1/2+x,1/2+y,z
1/2-x,1/2+y,1/2-z
1/2-x,1/2-y,-z
1/2+x,1/2-y,1/2+z
loop_
_atom_site_type_symbol
_atom_site_label
_atom_site_fract_x
_atom_site_fract_y
_atom_site_fract_z
Si Si1 0.677648 0.437616 0.034272
Si Si2 0.000000 0.482653 0.250000
Si Si3 0.774154 0.884492 0.593041
Si Si4 0.020921 0.774093 0.024297
Si Si5 0.231890 0.605997 0.234481
Si Si6 0.462227 0.261008 0.162551
O O1 0.581296 0.351815 0.004616
O O2 0.867920 0.438429 0.149652
O O3 0.500000 0.500000 0.000000
O O4 0.759881 0.443305 0.981697
O O5 0.165133 0.537253 0.263188
O O6 0.662660 0.800436 0.551592
O O7 0.697563 0.915927 0.643000
O O8 0.024798 0.873604 0.679232
O O9 0.036162 0.794756 0.111833
O O10 0.783746 0.752966 0.927930
O O11 0.087994 0.679815 0.205535
O O12 0.500000 0.300347 0.250000
#
# Coordination Sequence:
#
# PCOD9266516 Si02
#       6
#     8   4   8   8   8   8
#     4  12  24  41  61  91 134 170 206 271 329 392
#     4  12  24  38  64  92 132 172 210 252 338 402
#     4  10  22  41  69  90 125 165 226 272 311 378
#     4  10  23  39  62 100 122 162 223 270 315 378
#     4  10  20  40  65  94 120 178 215 253 322 400
#     4  10  19  37  66  88 128 165 209 265 323 376
#
# _framework density 20.834705
#
# number of rings (size 3 to 8) (size 9 to 14) (size 15 to 20)
#    0.000    1.455    2.727    2.727    0.000    5.091 
#    0.000    1.818    0.000    0.000    0.000    0.000 
#    0.000    0.000    0.000    0.000    0.000    0.000 
#
# Total GULP energy -122817.292820 kJ/mol
# GULP energy per Si atom -5582.604219 kJ/mol
# Density = 2.078728 g / cm^3
# Si number density = 20.834705 Si / 1000 Ang^3
#
#
#
# Elastic Constant Matrix: (Units=GPa)
#
#
# Indices 1 2 3 4 5 6 
#
# 1 95.3937 14.0194 35.1363 0.0000 -6.4228 0.0000
# 2 14.0194 21.5242 5.6508 0.0000 7.8389 0.0000
# 3 35.1363 5.6508 115.2905 0.0000 -21.4565 0.0000
# 4 0.0000 0.0000 0.0000 23.3997 0.0000 -3.7093
# 5 -6.4228 7.8389 -21.4565 0.0000 43.5421 0.0000
# 6 0.0000 0.0000 0.0000 -3.7093 0.0000 20.1766
#
#
#
# Elastic Compliance Matrix: (Units=1/GPa)
#
#
# Indices 1 2 3 4 5 6 
#
# 1 0.013010 -0.008294 -0.003219 0.000000 0.001826 0.000000
# 2 -0.008294 0.057239 -0.002668 0.000000 -0.012843 0.000000
# 3 -0.003219 -0.002668 0.010775 0.000000 0.005315 0.000000
# 4 0.000000 0.000000 0.000000 0.044018 0.000000 0.008092
# 5 0.001826 -0.012843 0.005315 0.000000 0.028167 0.000000
# 6 0.000000 0.000000 0.000000 0.008092 0.000000 0.051050
#
#
# Mechanical properties :
#
#
# Convention : Reuss Voigt Hill
#
# Bulk Modulus (GPa) = 18.98880 37.98016 28.48448
# Shear Modulus (GPa) = 19.98603 29.25048 24.61826
#
# Velocity S-wave (km/s) = 3.10056 3.75097 3.44117
# Velocity P-wave (km/s) = 4.68527 6.08511 5.43049
#
# Compressibility (1/GPa) = 0.05266263
#
# Stress axis : x y z
#
# Youngs Moduli (GPa) = 76.86228 17.47059 92.81095
#
# Poissons Ratio (x) = 0.14490 0.29873
# Poissons Ratio (y) = 0.63750 0.24761
# Poissons Ratio (z) = 0.24739 0.04661
#
# Static dielectric constant tensor:
#      x y z
#    x 1.832760 0.000000 -0.085490 
#    y 0.000000 1.681670 0.000000 
#    z -0.085490 0.000000 1.803710 
# 
# From -- ./inp_files/134520.got.cif
#   From: 2010.05.17/outbox.cif.g08.bks.cpg/sg15_68_cif.got.tgz:134520.got - 2010.06.03 18:47:42.
