data_PCOD9266008
_publ_section_title
;
Structure prediction by ZEFSAII (Michael W. Deem and Ramdas Pophale) SiO2 
 PCOD9266008
Probable space group: C 2/C
;
_chemical_formula_sum "Si O2"
_cell_formula_units_Z 44
_cell_length_a 13.207964
_cell_length_b 16.003635
_cell_length_c 15.524324
_cell_angle_alpha 90.000000
_cell_angle_beta 134.776464
_cell_angle_gamma 90.000000
_cell_volume 2329.378135
_symmetry_space_group_name_H-M "C 2/C"
_symmetry_group_IT_number 15
_symmetry_cell_setting 'monoclinic'
loop_
_space_group_symop_operation_xyz
x,y,z
-x,y,1/2-z
-x,-y,-z
x,-y,1/2+z
1/2+x,1/2+y,z
1/2-x,1/2+y,1/2-z
1/2-x,1/2-y,-z
1/2+x,1/2-y,1/2+z
loop_
_atom_site_type_symbol
_atom_site_label
_atom_site_fract_x
_atom_site_fract_y
_atom_site_fract_z
Si Si1 0.000000 0.459286 0.750000
Si Si2 0.882844 0.080268 0.239305
Si Si3 0.615556 0.011327 0.496315
Si Si4 0.777983 0.830450 0.130905
Si Si5 0.718678 0.641334 0.142138
Si Si6 0.998902 0.904092 0.372944
O O1 0.941227 0.508895 0.632381
O O2 0.864690 0.406067 0.703758
O O3 0.813941 0.131710 0.276182
O O4 0.000000 0.125551 0.250000
O O5 0.755461 0.040599 0.106217
O O6 0.968648 0.999721 0.328942
O O7 0.651585 0.109966 0.524032
O O8 0.500000 0.000000 0.500000
O O9 0.737288 0.735259 0.118591
O O10 0.895011 0.854277 0.128437
O O11 0.846637 0.861123 0.262760
O O12 0.581041 0.602394 0.011462
#
# Coordination Sequence:
#
# PCOD9266008 Si02
#       6
#     4   8   8   8   8   8
#     4  12  22  34  62  96 116 160 202 254 324 358
#     4  11  21  41  60  85 124 168 204 254 302 376
#     4  11  22  39  60  89 127 158 206 258 309 371
#     4  10  21  36  58  88 121 151 197 264 304 356
#     4  12  23  33  63  91 122 156 205 255 320 367
#     4  10  19  37  59  85 120 155 203 255 305 360
#
# _framework density 18.889161999999999
#
# number of rings (size 3 to 8) (size 9 to 14) (size 15 to 20)
#    0.000    1.091    7.273    2.182    2.545    0.000 
#    0.000    0.000    2.000    2.182    0.000    0.000 
#    0.000    0.000    0.000    0.000    0.000    0.000 
#
# Total GULP energy -122627.383818 kJ/mol
# GULP energy per Si atom -5573.971992 kJ/mol
# Density = 1.884617 g / cm^3
# Si number density = 18.889162 Si / 1000 Ang^3
#
#
#
# Elastic Constant Matrix: (Units=GPa)
#
#
# Indices 1 2 3 4 5 6 
#
# 1 109.1771 8.7069 25.5152 0.0000 -13.6464 0.0000
# 2 8.7069 34.6331 4.6719 0.0000 -8.9420 0.0000
# 3 25.5152 4.6719 123.0617 0.0000 -14.3459 0.0000
# 4 0.0000 0.0000 0.0000 0.0221 0.0000 -4.7046
# 5 -13.6464 -8.9420 -14.3459 0.0000 24.7051 0.0000
# 6 0.0000 0.0000 0.0000 -4.7046 0.0000 14.5789
#
#
#
# Elastic Compliance Matrix: (Units=1/GPa)
#
#
# Indices 1 2 3 4 5 6 
#
# 1 0.010155 -0.001245 -0.001563 0.000000 0.004252 0.000000
# 2 -0.001245 0.032006 0.000336 0.000000 0.011092 0.000000
# 3 -0.001563 0.000336 0.008957 0.000000 0.004460 0.000000
# 4 0.000000 0.000000 0.000000 -0.668408 0.000000 -0.215696
# 5 0.004252 0.011092 0.004460 0.000000 0.049430 0.000000
# 6 0.000000 0.000000 0.000000 -0.215696 0.000000 -0.001013
#
#
# Mechanical properties :
#
#
# Convention : Reuss Voigt Hill
#
# Bulk Modulus (GPa) = 21.65643 38.29556 29.97599
# Shear Modulus (GPa) = -9.11514 23.05975 6.97231
#
# Velocity S-wave (km/s) = -2.19911 3.49777 1.92333
# Velocity P-wave (km/s) = 2.24540 6.05231 4.56466
#
# Compressibility (1/GPa) = 0.04617566
#
# Stress axis : x y z
#
# Youngs Moduli (GPa) = 98.47065 31.24452 111.64276
#
# Poissons Ratio (x) = 0.03889 0.17446
# Poissons Ratio (y) = 0.12255 -0.03752
# Poissons Ratio (z) = 0.15388 -0.01050
#
# Static dielectric constant tensor:
#      x y z
#    x 1.655150 0.000000 -0.040700 
#    y 0.000000 1.638830 0.000000 
#    z -0.040700 0.000000 1.708680 
# 
# From -- ./inp_files/119168.got.cif
#   From: 2010.05.17/outbox.cif.g08.bks.cpg/sg15_60_cif.got.tgz:119168.got - 2010.06.03 18:47:42.
