data_PCOD9266917
_publ_section_title
;
Structure prediction by ZEFSAII (Michael W. Deem and Ramdas Pophale) SiO2 
 PCOD9266917
Probable space group: C 2/C
;
_chemical_formula_sum "Si O2"
_cell_formula_units_Z 64
_cell_length_a 27.991032
_cell_length_b 21.015420
_cell_length_c 14.204836
_cell_angle_alpha 90.000000
_cell_angle_beta 160.088491
_cell_angle_gamma 90.000000
_cell_volume 2845.755487
_symmetry_space_group_name_H-M "C 2/C"
_symmetry_group_IT_number 15
_symmetry_cell_setting 'monoclinic'
loop_
_space_group_symop_operation_xyz
x,y,z
-x,y,1/2-z
-x,-y,-z
x,-y,1/2+z
1/2+x,1/2+y,z
1/2-x,1/2+y,1/2-z
1/2-x,1/2-y,-z
1/2+x,1/2-y,1/2+z
loop_
_atom_site_type_symbol
_atom_site_label
_atom_site_fract_x
_atom_site_fract_y
_atom_site_fract_z
Si Si1 0.499203 0.630205 0.138399
Si Si2 0.208564 0.429041 0.691722
Si Si3 0.769458 0.838804 0.945907
Si Si4 0.900565 0.450597 0.201996
Si Si5 0.027096 0.243514 0.547308
Si Si6 0.222036 0.437566 0.318353
Si Si7 0.786520 0.411488 0.484731
Si Si8 0.457095 0.177970 0.073104
O O1 0.500000 0.646173 0.250000
O O2 0.627675 0.582678 0.363897
O O3 0.522860 0.693257 0.121131
O O4 0.353555 0.598371 0.835013
O O5 0.204224 0.422655 0.570912
O O6 0.244949 0.499815 0.797067
O O7 0.051189 0.425595 0.446400
O O8 0.295155 0.370068 0.893186
O O9 0.882698 0.796071 0.208777
O O10 0.756289 0.902437 0.986108
O O11 0.630152 0.794801 0.688955
O O12 0.872006 0.442896 0.260141
O O13 0.876991 0.525553 0.137910
O O14 0.916825 0.280172 0.408617
O O15 0.151287 0.380967 0.125228
O O16 0.891712 0.353127 0.667328
O O17 0.500000 0.211785 0.250000
#
# Coordination Sequence:
#
# PCOD9266917 Si02
#       8
#     8   8   8   8   8   8   8   8
#     4  11  24  42  61  90 126 169 207 250 315 376
#     4  11  21  37  63  97 124 161 205 251 320 374
#     4   9  18  38  63  81 113 161 214 245 287 369
#     4  11  21  36  60  97 128 159 198 256 320 365
#     4   9  21  40  61  85 115 167 212 248 295 365
#     4  12  24  39  64  98 129 156 199 270 315 360
#     4  10  19  38  63  85 121 163 208 244 295 383
#     4  11  21  39  67  92 116 162 216 257 297 365
#
# _framework density 22.489633999999999
#
# number of rings (size 3 to 8) (size 9 to 14) (size 15 to 20)
#    0.000    1.500    2.500    4.875    0.000    1.000 
#    6.750    0.000    0.000    0.000    0.000    0.000 
#    0.000    0.000    0.000    0.000    0.000    0.000 
#
# Total GULP energy -178488.154286 kJ/mol
# GULP energy per Si atom -5577.754821 kJ/mol
# Density = 2.243845 g / cm^3
# Si number density = 22.489634 Si / 1000 Ang^3
#
#
#
# Elastic Constant Matrix: (Units=GPa)
#
#
# Indices 1 2 3 4 5 6 
#
# 1 64.7483 6.3022 10.7580 0.0000 -27.7293 0.0000
# 2 6.3022 60.7145 12.3173 0.0000 -14.3586 0.0000
# 3 10.7580 12.3173 87.9655 0.0000 -14.4981 0.0000
# 4 0.0000 0.0000 0.0000 -2.0781 0.0000 5.5436
# 5 -27.7293 -14.3586 -14.4981 0.0000 35.8126 0.0000
# 6 0.0000 0.0000 0.0000 5.5436 0.0000 13.4592
#
#
#
# Elastic Compliance Matrix: (Units=1/GPa)
#
#
# Indices 1 2 3 4 5 6 
#
# 1 0.023334 0.002048 -0.000029 0.000000 0.018877 0.000000
# 2 0.002048 0.018548 -0.001458 0.000000 0.008432 0.000000
# 3 -0.000029 -0.001458 0.012296 0.000000 0.004371 0.000000
# 4 0.000000 0.000000 0.000000 -0.229283 0.000000 0.094438
# 5 0.018877 0.008432 0.004371 0.000000 0.047689 0.000000
# 6 0.000000 0.000000 0.000000 0.094438 0.000000 0.035401
#
#
# Mechanical properties :
#
#
# Convention : Reuss Voigt Hill
#
# Bulk Modulus (GPa) = 18.08324 30.24259 24.16291
# Shear Modulus (GPa) = -66.93191 21.70881 -22.61155
#
# Velocity S-wave (km/s) = -5.46130 3.11027 -3.17428
# Velocity P-wave (km/s) = 5.63113 5.13565 1.63321
#
# Compressibility (1/GPa) = 0.05529982
#
# Stress axis : x y z
#
# Youngs Moduli (GPa) = 42.85573 53.91466 81.32612
#
# Poissons Ratio (x) = -0.11042 0.00238
# Poissons Ratio (y) = -0.08777 0.11856
# Poissons Ratio (z) = 0.00126 0.07860
#
# Static dielectric constant tensor:
#      x y z
#    x 1.936280 0.000000 -0.002240 
#    y 0.000000 1.849830 0.000000 
#    z -0.002240 0.000000 1.849890 
# 
# From -- ./inp_files/183151.got.cif
#   From: 2010.05.17/outbox.cif.g08.bks.cpg/sg15_92_cif.got.tgz:183151.got - 2010.06.03 18:47:42.
