data_PCOD9266191
_publ_section_title
;
Structure prediction by ZEFSAII (Michael W. Deem and Ramdas Pophale) SiO2 
 PCOD9266191
Probable space group: C 2/C
;
_chemical_formula_sum "Si O2"
_cell_formula_units_Z 52
_cell_length_a 26.211866
_cell_length_b 21.268186
_cell_length_c 14.175613
_cell_angle_alpha 90.000000
_cell_angle_beta 161.992852
_cell_angle_gamma 90.000000
_cell_volume 2442.976659
_symmetry_space_group_name_H-M "C 2/C"
_symmetry_group_IT_number 15
_symmetry_cell_setting 'monoclinic'
loop_
_space_group_symop_operation_xyz
x,y,z
-x,y,1/2-z
-x,-y,-z
x,-y,1/2+z
1/2+x,1/2+y,z
1/2-x,1/2+y,1/2-z
1/2-x,1/2-y,-z
1/2+x,1/2-y,1/2+z
loop_
_atom_site_type_symbol
_atom_site_label
_atom_site_fract_x
_atom_site_fract_y
_atom_site_fract_z
Si Si1 0.829477 0.609033 0.651493
Si Si2 0.000000 0.070416 0.250000
Si Si3 0.629053 0.628351 0.831217
Si Si4 0.219280 0.508909 0.327112
Si Si5 0.755058 0.909479 0.707976
Si Si6 0.966685 0.163680 0.046600
Si Si7 0.373536 0.805994 0.890242
O O1 0.880850 0.550472 0.808614
O O2 0.791696 0.578541 0.482213
O O3 0.662688 0.646281 0.388327
O O4 0.974593 0.658817 0.893398
O O5 0.894879 0.116041 0.998243
O O6 0.103772 0.025643 0.366468
O O7 0.450771 0.604903 0.555401
O O8 0.602349 0.649655 0.678016
O O9 0.750838 0.568931 0.054902
O O10 0.712825 0.682793 0.041374
O O11 0.198007 0.538314 0.184458
O O12 0.670079 0.844984 0.592752
O O13 0.923661 0.234757 0.995694
#
# Coordination Sequence:
#
# PCOD9266191 Si02
#       7
#     8   4   8   8   8   8   8
#     4  10  23  36  61  91 119 161 191 249 297 345
#     4  10  20  34  62  88 114 148 198 250 288 340
#     4  10  21  39  64  86 113 160 195 250 292 352
#     4  10  19  37  61  87 121 143 207 241 296 350
#     4  10  21  37  64  89 114 161 198 245 294 351
#     4  10  23  37  61  88 116 157 200 240 294 351
#     4  11  21  40  58  86 126 155 199 238 295 358
#
# _framework density 21.285509000000001
#
# number of rings (size 3 to 8) (size 9 to 14) (size 15 to 20)
#    0.000    1.846    1.538    2.769    4.308    4.308 
#    2.769    0.000    0.000    0.000    0.000    0.000 
#    0.000    0.000    0.000    0.000    0.000    0.000 
#
# Total GULP energy -145049.124093 kJ/mol
# GULP energy per Si atom -5578.812465 kJ/mol
# Density = 2.123706 g / cm^3
# Si number density = 21.285509 Si / 1000 Ang^3
#
#
#
# Elastic Constant Matrix: (Units=GPa)
#
#
# Indices 1 2 3 4 5 6 
#
# 1 76.5557 30.7055 13.4608 0.0000 -12.2540 0.0000
# 2 30.7055 152.3063 18.9284 0.0000 5.0826 0.0000
# 3 13.4608 18.9284 78.4224 0.0000 5.1263 0.0000
# 4 0.0000 0.0000 0.0000 26.8955 0.0000 7.6119
# 5 -12.2540 5.0826 5.1263 0.0000 22.9653 0.0000
# 6 0.0000 0.0000 0.0000 7.6119 0.0000 4.3698
#
#
#
# Elastic Compliance Matrix: (Units=1/GPa)
#
#
# Indices 1 2 3 4 5 6 
#
# 1 0.016493 -0.003329 -0.002690 0.000000 0.010138 0.000000
# 2 -0.003329 0.007471 -0.001022 0.000000 -0.003202 0.000000
# 3 -0.002690 -0.001022 0.013740 0.000000 -0.004276 0.000000
# 4 0.000000 0.000000 0.000000 0.073334 0.000000 -0.127743
# 5 0.010138 -0.003202 -0.004276 0.000000 0.050616 0.000000
# 6 0.000000 0.000000 0.000000 -0.127743 0.000000 0.451365
#
#
# Mechanical properties :
#
#
# Convention : Reuss Voigt Hill
#
# Bulk Modulus (GPa) = 42.33668 48.16376 45.25022
# Shear Modulus (GPa) = 7.87431 27.12545 17.49988
#
# Velocity S-wave (km/s) = 1.92546 3.57369 2.87043
# Velocity P-wave (km/s) = 4.98761 6.30119 5.68249
#
# Compressibility (1/GPa) = 0.02362018
#
# Stress axis : x y z
#
# Youngs Moduli (GPa) = 60.63033 133.85475 72.78277
#
# Poissons Ratio (x) = 0.44562 0.19580
# Poissons Ratio (y) = 0.20184 0.07442
# Poissons Ratio (z) = 0.16311 0.13686
#
# Static dielectric constant tensor:
#      x y z
#    x 1.872060 0.000000 0.055360 
#    y 0.000000 1.740750 0.000000 
#    z 0.055360 0.000000 1.816570 
# 
# From -- ./inp_files/179060.got.cif
#   From: 2010.05.17/outbox.cif.g08.bks.cpg/sg15_90_cif.got.tgz:179060.got - 2010.06.03 18:47:42.
