data_PCOD9266657
_publ_section_title
;
Structure prediction by ZEFSAII (Michael W. Deem and Ramdas Pophale) SiO2 
 PCOD9266657
Probable space group: C 2/C
;
_chemical_formula_sum "Si O2"
_cell_formula_units_Z 48
_cell_length_a 18.724685
_cell_length_b 20.654133
_cell_length_c 16.594506
_cell_angle_alpha 90.000000
_cell_angle_beta 157.087263
_cell_angle_gamma 90.000000
_cell_volume 2498.631799
_symmetry_space_group_name_H-M "C 2/C"
_symmetry_group_IT_number 15
_symmetry_cell_setting 'monoclinic'
loop_
_space_group_symop_operation_xyz
x,y,z
-x,y,1/2-z
-x,-y,-z
x,-y,1/2+z
1/2+x,1/2+y,z
1/2-x,1/2+y,1/2-z
1/2-x,1/2-y,-z
1/2+x,1/2-y,1/2+z
loop_
_atom_site_type_symbol
_atom_site_label
_atom_site_fract_x
_atom_site_fract_y
_atom_site_fract_z
Si Si1 0.914749 0.548013 0.744100
Si Si2 0.597859 0.702109 0.931412
Si Si3 0.143158 0.913913 0.087539
Si Si4 0.746424 0.832582 0.156028
Si Si5 0.384700 0.097069 0.242566
Si Si6 0.260057 0.051169 0.287243
O O1 0.737577 0.582305 0.598560
O O2 0.861858 0.472450 0.678311
O O3 0.000000 0.573486 0.750000
O O4 0.073517 0.549571 0.977126
O O5 0.500000 0.729088 0.750000
O O6 0.441778 0.662580 0.815790
O O7 0.675188 0.760000 0.066051
O O8 0.758368 0.653015 0.075128
O O9 0.219202 0.853181 0.216546
O O10 0.212642 0.978434 0.207819
O O11 0.923414 0.918923 0.864243
O O12 0.593703 0.879776 0.960566
O O13 0.321571 0.088636 0.270376
#
# Coordination Sequence:
#
# PCOD9266657 Si02
#       6
#     8   8   8   8   8   8
#     4  11  23  36  58  90 120 153 197 254 309 348
#     4  12  27  37  55  91 126 161 207 241 283 350
#     4  10  20  37  61  81 113 157 205 245 290 362
#     4  12  22  39  58  80 119 166 199 241 281 348
#     4  11  22  38  58  81 122 166 198 239 295 354
#     4  10  19  38  58  85 110 152 206 243 296 368
#
# _framework density 19.210514
#
# number of rings (size 3 to 8) (size 9 to 14) (size 15 to 20)
#    0.000    1.000    6.667    1.500    2.333    0.667 
#    0.000    0.000    0.000    0.000    0.000    4.667 
#    0.000    0.000    0.000    0.000    0.000    0.000 
#
# Total GULP energy -134127.074385 kJ/mol
# GULP energy per Si atom -5588.628099 kJ/mol
# Density = 1.916679 g / cm^3
# Si number density = 19.210514 Si / 1000 Ang^3
#
#
#
# Elastic Constant Matrix: (Units=GPa)
#
#
# Indices 1 2 3 4 5 6 
#
# 1 120.8254 17.9633 14.1849 0.0000 19.9078 0.0000
# 2 17.9633 59.5379 21.6923 0.0000 -3.3190 0.0000
# 3 14.1849 21.6923 62.8518 0.0000 18.0851 0.0000
# 4 0.0000 0.0000 0.0000 17.9060 0.0000 5.1487
# 5 19.9078 -3.3190 18.0851 0.0000 28.5480 0.0000
# 6 0.0000 0.0000 0.0000 5.1487 0.0000 20.3645
#
#
#
# Elastic Compliance Matrix: (Units=1/GPa)
#
#
# Indices 1 2 3 4 5 6 
#
# 1 0.010106 -0.004104 0.001591 0.000000 -0.008532 0.000000
# 2 -0.004104 0.022442 -0.010264 0.000000 0.011973 0.000000
# 3 0.001591 -0.010264 0.024161 0.000000 -0.017608 0.000000
# 4 0.000000 0.000000 0.000000 0.060226 0.000000 -0.015227
# 5 -0.008532 0.011973 -0.017608 0.000000 0.053525 0.000000
# 6 0.000000 0.000000 0.000000 -0.015227 0.000000 0.052955
#
#
# Mechanical properties :
#
#
# Convention : Reuss Voigt Hill
#
# Bulk Modulus (GPa) = 32.10037 38.98844 35.54441
# Shear Modulus (GPa) = 19.27876 25.98868 22.63372
#
# Velocity S-wave (km/s) = 3.17133 3.68208 3.43621
# Velocity P-wave (km/s) = 5.49143 6.19810 5.85543
#
# Compressibility (1/GPa) = 0.03115229
#
# Stress axis : x y z
#
# Youngs Moduli (GPa) = 98.95510 44.56029 41.38969
#
# Poissons Ratio (x) = 0.18288 -0.06584
# Poissons Ratio (y) = 0.40613 0.42484
# Poissons Ratio (z) = -0.15742 0.45738
#
# Static dielectric constant tensor:
#      x y z
#    x 1.711210 0.000000 0.016820 
#    y 0.000000 1.665750 0.000000 
#    z 0.016820 0.000000 1.672330 
# 
# From -- ./inp_files/216582.got.cif
#   From: 2010.05.17/outbox.cif.g08.bks.cpg/sg15_109_cif.got.tgz:216582.got - 2010.06.03 18:47:42.
