data_PCOD9266551
_publ_section_title
;
Structure prediction by ZEFSAII (Michael W. Deem and Ramdas Pophale) SiO2 
 PCOD9266551
Probable space group: C 2/C
;
_chemical_formula_sum "Si O2"
_cell_formula_units_Z 64
_cell_length_a 27.771780
_cell_length_b 9.832692
_cell_length_c 15.962237
_cell_angle_alpha 90.000000
_cell_angle_beta 138.851996
_cell_angle_gamma 90.000000
_cell_volume 2868.137748
_symmetry_space_group_name_H-M "C 2/C"
_symmetry_group_IT_number 15
_symmetry_cell_setting 'monoclinic'
loop_
_space_group_symop_operation_xyz
x,y,z
-x,y,1/2-z
-x,-y,-z
x,-y,1/2+z
1/2+x,1/2+y,z
1/2-x,1/2+y,1/2-z
1/2-x,1/2-y,-z
1/2+x,1/2-y,1/2+z
loop_
_atom_site_type_symbol
_atom_site_label
_atom_site_fract_x
_atom_site_fract_y
_atom_site_fract_z
Si Si1 0.180092 0.218487 0.727408
Si Si2 0.165339 0.921015 0.743373
Si Si3 0.442305 0.100596 0.465730
Si Si4 0.882494 0.900154 0.529334
Si Si5 0.583179 0.041988 0.390865
Si Si6 0.985317 0.110220 0.406282
Si Si7 0.692888 0.832379 0.484902
Si Si8 0.655827 0.684131 0.042794
O O1 0.130303 0.350579 0.678269
O O2 0.161284 0.158246 0.610090
O O3 0.263259 0.256215 0.848912
O O4 0.162648 0.082802 0.755548
O O5 0.100501 0.870127 0.717129
O O6 0.141684 0.866105 0.620236
O O7 0.248168 0.875436 0.866618
O O8 0.416006 0.038899 0.519482
O O9 0.483417 0.243414 0.528809
O O10 0.500000 0.000000 0.500000
O O11 0.868540 0.777366 0.572400
O O12 0.965257 0.928148 0.608453
O O13 0.849245 0.043054 0.514206
O O14 0.500000 0.033191 0.250000
O O15 0.643225 0.968889 0.408694
O O16 0.604505 0.197205 0.440596
O O17 0.000000 0.000000 0.500000
O O18 0.750000 0.750000 0.500000
#
# Coordination Sequence:
#
# PCOD9266551 Si02
#       8
#     8   8   8   8   8   8   8   8
#     4  10  19  37  67 104 137 160 222 299 343 390
#     4  11  21  38  73 102 130 171 232 291 339 402
#     4  11  23  39  68 105 135 174 229 288 346 404
#     4  10  22  40  66  99 133 167 225 278 343 406
#     4  12  27  48  64  98 151 186 223 285 353 423
#     4  11  19  36  61 101 133 157 212 284 347 398
#     4  12  26  46  69  97 136 192 230 278 347 416
#     4  11  21  40  73  98 135 174 228 294 343 398
#
# _framework density 22.314129999999999
#
# number of rings (size 3 to 8) (size 9 to 14) (size 15 to 20)
#    0.000    1.000    8.750    0.750    3.500    1.000 
#    0.000    3.750    0.000    0.000    0.000    0.000 
#    0.000    0.000    0.000    0.000    0.000    0.000 
#
# Total GULP energy -178395.155038 kJ/mol
# GULP energy per Si atom -5574.848595 kJ/mol
# Density = 2.226334 g / cm^3
# Si number density = 22.314130 Si / 1000 Ang^3
#
#
#
# Elastic Constant Matrix: (Units=GPa)
#
#
# Indices 1 2 3 4 5 6 
#
# 1 48.7367 6.5371 14.9733 0.0000 26.6741 0.0000
# 2 6.5371 123.5770 15.1003 0.0000 3.3479 0.0000
# 3 14.9733 15.1003 67.3757 0.0000 25.6776 0.0000
# 4 0.0000 0.0000 0.0000 22.5928 0.0000 24.6810
# 5 26.6741 3.3479 25.6776 0.0000 35.2218 0.0000
# 6 0.0000 0.0000 0.0000 24.6810 0.0000 32.9583
#
#
#
# Elastic Compliance Matrix: (Units=1/GPa)
#
#
# Indices 1 2 3 4 5 6 
#
# 1 0.035839 -0.001543 0.003696 0.000000 -0.029689 0.000000
# 2 -0.001543 0.008402 -0.002328 0.000000 0.002067 0.000000
# 3 0.003696 -0.002328 0.021498 0.000000 -0.018250 0.000000
# 4 0.000000 0.000000 0.000000 0.243291 0.000000 -0.182190
# 5 -0.029689 0.002067 -0.018250 0.000000 0.063984 0.000000
# 6 0.000000 0.000000 0.000000 -0.182190 0.000000 0.166775
#
#
# Mechanical properties :
#
#
# Convention : Reuss Voigt Hill
#
# Bulk Modulus (GPa) = 15.29310 34.76786 25.03048
# Shear Modulus (GPa) = 8.89782 31.69318 20.29550
#
# Velocity S-wave (km/s) = 1.99905 3.77280 3.01912
# Velocity P-wave (km/s) = 3.49237 5.88163 4.83685
#
# Compressibility (1/GPa) = 0.06538895
#
# Stress axis : x y z
#
# Youngs Moduli (GPa) = 27.90243 119.01626 46.51633
#
# Poissons Ratio (x) = 0.18366 -0.17192
# Poissons Ratio (y) = 0.04306 0.10829
# Poissons Ratio (z) = -0.10313 0.27707
#
# Static dielectric constant tensor:
#      x y z
#    x 1.907860 0.000000 -0.010340 
#    y 0.000000 1.847720 0.000000 
#    z -0.010340 0.000000 1.894250 
# 
# From -- ./inp_files/224652.got.cif
#   From: 2010.05.17/outbox.cif.g08.bks.cpg/sg15_113_cif.got.tgz:224652.got - 2010.06.03 18:47:42.
