data_PCOD9266630
_publ_section_title
;
Structure prediction by ZEFSAII (Michael W. Deem and Ramdas Pophale) SiO2 
 PCOD9266630
Probable space group: C 2/C
;
_chemical_formula_sum "Si O2"
_cell_formula_units_Z 44
_cell_length_a 14.562188
_cell_length_b 25.329565
_cell_length_c 5.924568
_cell_angle_alpha 90.000000
_cell_angle_beta 117.372004
_cell_angle_gamma 90.000000
_cell_volume 1940.634070
_symmetry_space_group_name_H-M "C 2/C"
_symmetry_group_IT_number 15
_symmetry_cell_setting 'monoclinic'
loop_
_space_group_symop_operation_xyz
x,y,z
-x,y,1/2-z
-x,-y,-z
x,-y,1/2+z
1/2+x,1/2+y,z
1/2-x,1/2+y,1/2-z
1/2-x,1/2-y,-z
1/2+x,1/2-y,1/2+z
loop_
_atom_site_type_symbol
_atom_site_label
_atom_site_fract_x
_atom_site_fract_y
_atom_site_fract_z
Si Si1 0.635015 0.159220 0.718041
Si Si2 0.232279 0.375401 0.722476
Si Si3 0.190411 0.015890 0.305001
Si Si4 0.389195 0.055940 0.048087
Si Si5 0.181439 0.200326 0.846729
Si Si6 0.000000 0.264923 0.750000
O O1 0.598918 0.098986 0.636476
O O2 0.752864 0.170524 0.768561
O O3 0.564838 0.198112 0.493571
O O4 0.652189 0.162830 0.003012
O O5 0.289322 0.421712 0.650422
O O6 0.161208 0.406734 0.818639
O O7 0.316637 0.340546 0.944726
O O8 0.144585 0.995482 0.496868
O O9 0.302784 0.987547 0.405813
O O10 0.500000 0.034636 0.250000
O O11 0.071377 0.225894 0.683161
O O12 0.250000 0.250000 0.000000
#
# Coordination Sequence:
#
# PCOD9266630 Si02
#       6
#     8   8   8   8   8   4
#     4  10  19  38  56  83 116 155 196 239 306 356
#     4  10  21  36  57  78 119 159 197 248 293 363
#     4  10  20  35  55  86 120 162 204 240 301 368
#     4  10  20  35  50  83 121 156 193 238 291 369
#     4   9  21  39  56  82 115 153 201 257 302 360
#     4  10  20  38  60  82 118 152 200 260 302 356
#
# _framework density 22.673002
#
# number of rings (size 3 to 8) (size 9 to 14) (size 15 to 20)
#    0.000    2.182    2.727    0.000    0.000    6.545 
#    0.000    6.364    0.000    0.000    0.000   11.455 
#    0.000    0.182    0.000    0.000    0.000    0.000 
#
# Total GULP energy -122613.778897 kJ/mol
# GULP energy per Si atom -5573.353586 kJ/mol
# Density = 2.262140 g / cm^3
# Si number density = 22.673002 Si / 1000 Ang^3
#
#
#
# Elastic Constant Matrix: (Units=GPa)
#
#
# Indices 1 2 3 4 5 6 
#
# 1 28.7454 17.5962 12.0741 0.0000 -1.2560 0.0000
# 2 17.5962 111.8502 36.9230 0.0000 3.4511 0.0000
# 3 12.0741 36.9230 82.6335 0.0000 -16.8385 0.0000
# 4 0.0000 0.0000 0.0000 27.3316 0.0000 4.1906
# 5 -1.2560 3.4511 -16.8385 0.0000 17.1325 0.0000
# 6 0.0000 0.0000 0.0000 4.1906 0.0000 21.7410
#
#
#
# Elastic Compliance Matrix: (Units=1/GPa)
#
#
# Indices 1 2 3 4 5 6 
#
# 1 0.039344 -0.005107 -0.003338 0.000000 0.000633 0.000000
# 2 -0.005107 0.012216 -0.006614 0.000000 -0.009336 0.000000
# 3 -0.003338 -0.006614 0.019715 0.000000 0.020464 0.000000
# 4 0.000000 0.000000 0.000000 0.037702 0.000000 -0.007267
# 5 0.000633 -0.009336 0.020464 0.000000 0.080408 0.000000
# 6 0.000000 0.000000 0.000000 -0.007267 0.000000 0.047397
#
#
# Mechanical properties :
#
#
# Convention : Reuss Voigt Hill
#
# Bulk Modulus (GPa) = 24.29804 39.60174 31.94989
# Shear Modulus (GPa) = 17.81773 23.68342 20.75057
#
# Velocity S-wave (km/s) = 2.80635 3.23548 3.02853
# Velocity P-wave (km/s) = 4.60878 5.60911 5.13337
#
# Compressibility (1/GPa) = 0.04115559
#
# Stress axis : x y z
#
# Youngs Moduli (GPa) = 25.41671 81.86285 50.72300
#
# Poissons Ratio (x) = 0.41809 0.16931
# Poissons Ratio (y) = 0.12981 0.33550
# Poissons Ratio (z) = 0.08484 0.54148
#
# Static dielectric constant tensor:
#      x y z
#    x 1.932800 0.000000 -0.082440 
#    y 0.000000 1.862150 0.000000 
#    z -0.082440 0.000000 1.934350 
# 
# From -- ./inp_files/8088.got.cif
#   From: 2010.05.17/outbox.cif.g08.bks.cpg/sg15_5_cif.got.tgz:8088.got - 2010.06.03 18:47:42.
