data_PCOD9266895
_publ_section_title
;
Structure prediction by ZEFSAII (Michael W. Deem and Ramdas Pophale) SiO2 
 PCOD9266895
Probable space group: C 2/C
;
_chemical_formula_sum "Si O2"
_cell_formula_units_Z 60
_cell_length_a 11.315677
_cell_length_b 18.992648
_cell_length_c 20.917371
_cell_angle_alpha 90.000000
_cell_angle_beta 39.762036
_cell_angle_gamma 90.000000
_cell_volume 2875.291982
_symmetry_space_group_name_H-M "C 2/C"
_symmetry_group_IT_number 15
_symmetry_cell_setting 'monoclinic'
loop_
_space_group_symop_operation_xyz
x,y,z
-x,y,1/2-z
-x,-y,-z
x,-y,1/2+z
1/2+x,1/2+y,z
1/2-x,1/2+y,1/2-z
1/2-x,1/2-y,-z
1/2+x,1/2-y,1/2+z
loop_
_atom_site_type_symbol
_atom_site_label
_atom_site_fract_x
_atom_site_fract_y
_atom_site_fract_z
Si Si1 0.624790 0.007062 0.293027
Si Si2 0.848109 0.665043 0.172134
Si Si3 0.197143 0.286833 0.678496
Si Si4 0.500000 0.402359 0.750000
Si Si5 0.257210 0.526588 0.598972
Si Si6 0.938953 0.881642 0.493653
Si Si7 0.753409 0.335059 0.053480
Si Si8 0.283422 0.015865 0.605700
O O1 0.431943 0.968190 0.361165
O O2 0.725729 0.001301 0.183935
O O3 0.725548 0.977098 0.313462
O O4 0.596337 0.089224 0.320351
O O5 0.799679 0.721645 0.246836
O O6 0.656556 0.645913 0.217032
O O7 0.033134 0.681855 0.055224
O O8 0.349194 0.339719 0.589392
O O9 0.197906 0.219966 0.631422
O O10 0.000000 0.323026 0.750000
O O11 0.632829 0.454961 0.652953
O O12 0.363344 0.462185 0.520213
O O13 0.353360 0.601328 0.571337
O O14 0.874063 0.840114 0.457118
O O15 0.741046 0.412145 0.088689
O O16 0.500000 0.000000 0.500000
#
# Coordination Sequence:
#
# PCOD9266895 Si02
#       8
#     8   8   8   4   8   8   8   8
#     4  10  19  38  62  92 131 162 203 260 339 393
#     4  11  22  45  66  91 133 174 223 270 336 406
#     4  12  25  42  65  89 128 180 219 273 335 395
#     4  10  24  40  72  98 128 178 216 274 348 398
#     4  10  20  35  64  94 124 167 205 265 323 394
#     4  11  22  37  61  95 127 160 219 267 326 389
#     4  12  25  41  63  96 132 168 223 279 328 397
#     4  11  22  40  65  98 132 164 209 282 337 398
#
# _framework density 20.867446999999999
#
# number of rings (size 3 to 8) (size 9 to 14) (size 15 to 20)
#    0.000    1.067    6.667    0.400    4.667    1.067 
#    0.000    0.667    0.000    0.000    0.000    0.000 
#    0.000    0.000    0.000    0.000    0.000    0.000 
#
# Total GULP energy -167251.072827 kJ/mol
# GULP energy per Si atom -5575.035761 kJ/mol
# Density = 2.081995 g / cm^3
# Si number density = 20.867447 Si / 1000 Ang^3
#
#
#
# Elastic Constant Matrix: (Units=GPa)
#
#
# Indices 1 2 3 4 5 6 
#
# 1 118.3419 31.9265 44.9002 -0.0010 -5.9340 0.0005
# 2 31.9265 52.2979 29.1051 0.0046 0.1905 -0.0025
# 3 44.9002 29.1051 72.7583 0.0182 -1.0477 -0.0140
# 4 -0.0010 0.0046 0.0182 71.4830 -0.0002 -23.2764
# 5 -5.9340 0.1905 -1.0477 -0.0002 31.6726 -0.0009
# 6 0.0005 -0.0025 -0.0140 -23.2764 -0.0009 66.9153
#
#
#
# Elastic Compliance Matrix: (Units=1/GPa)
#
#
# Indices 1 2 3 4 5 6 
#
# 1 0.011781 -0.004078 -0.005610 0.000002 0.002046 -0.000001
# 2 -0.004078 0.026016 -0.007908 0.000000 -0.001182 -0.000001
# 3 -0.005610 -0.007908 0.020364 -0.000004 -0.000330 0.000003
# 4 0.000002 0.000000 -0.000004 0.015776 0.000000 0.005488
# 5 0.002046 -0.001182 -0.000330 0.000000 0.031953 0.000000
# 6 -0.000001 -0.000001 0.000003 0.005488 0.000000 0.016853
#
#
# Mechanical properties :
#
#
# Convention : Reuss Voigt Hill
#
# Bulk Modulus (GPa) = 43.53236 50.58466 47.05851
# Shear Modulus (GPa) = 30.19507 43.17860 36.68684
#
# Velocity S-wave (km/s) = 3.80806 4.55376 4.19751
# Velocity P-wave (km/s) = 6.34364 7.20712 6.78912
#
# Compressibility (1/GPa) = 0.02297142
#
# Stress axis : x y z
#
# Youngs Moduli (GPa) = 84.88143 38.43857 49.10526
#
# Poissons Ratio (x) = 0.15674 0.27547
# Poissons Ratio (y) = 0.34611 0.38830
# Poissons Ratio (z) = 0.47616 0.30395
#
# Static dielectric constant tensor:
#      x y z
#    x 1.819700 0.000000 -0.016680 
#    y 0.000000 1.744740 0.000000 
#    z -0.016680 0.000000 1.819990 
# 
# From -- ./inp_files/239948.got.cif
#   From: 2010.05.17/outbox.cif.g08.bks.cpg/sg15_120_cif.got.tgz:239948.got - 2010.06.03 18:47:42.
