data_PCOD9266079
_publ_section_title
;
Structure prediction by ZEFSAII (Michael W. Deem and Ramdas Pophale) SiO2 
 PCOD9266079
Probable space group: C 2/C
;
_chemical_formula_sum "Si O2"
_cell_formula_units_Z 64
_cell_length_a 15.899047
_cell_length_b 10.786620
_cell_length_c 25.870127
_cell_angle_alpha 90.000000
_cell_angle_beta 148.424799
_cell_angle_gamma 90.000000
_cell_volume 2323.105562
_symmetry_space_group_name_H-M "C 2/C"
_symmetry_group_IT_number 15
_symmetry_cell_setting 'monoclinic'
loop_
_space_group_symop_operation_xyz
x,y,z
-x,y,1/2-z
-x,-y,-z
x,-y,1/2+z
1/2+x,1/2+y,z
1/2-x,1/2+y,1/2-z
1/2-x,1/2-y,-z
1/2+x,1/2-y,1/2+z
loop_
_atom_site_type_symbol
_atom_site_label
_atom_site_fract_x
_atom_site_fract_y
_atom_site_fract_z
Si Si1 0.525319 0.189596 0.415473
Si Si2 0.483988 0.184135 0.816307
Si Si3 0.727882 0.716431 0.099269
Si Si4 0.737614 0.400701 0.840050
Si Si5 0.819065 0.943669 0.473669
Si Si6 0.970023 0.301474 0.037102
Si Si7 0.922024 0.039041 0.824548
Si Si8 0.359848 0.938340 0.749535
O O1 0.700553 0.214099 0.530764
O O2 0.393040 0.134727 0.386169
O O3 0.445176 0.319279 0.354634
O O4 0.517586 0.090959 0.365909
O O5 0.400642 0.300846 0.746473
O O6 0.664662 0.142023 0.901644
O O7 0.384139 0.071847 0.738813
O O8 0.474864 0.186838 0.874521
O O9 0.683523 0.573643 0.058044
O O10 0.857114 0.673747 0.208456
O O11 0.620082 0.808868 0.077852
O O12 0.820803 0.386631 0.939842
O O13 0.647856 0.519995 0.769242
O O14 0.928202 0.841994 0.502571
O O15 0.908654 0.973909 0.574570
O O16 0.795131 0.963116 0.795237
#
# Coordination Sequence:
#
# PCOD9266079 Si02
#       8
#     8   8   8   8   8   8   8   8
#     4   9  20  37  59  91 117 164 216 271 299 371
#     4  12  24  39  58  97 133 154 206 283 333 362
#     4  10  21  38  64  90 118 171 222 245 309 403
#     4  10  20  35  59  91 121 165 206 251 324 393
#     4  11  22  37  61  91 126 163 204 271 318 382
#     4  11  21  38  61  93 129 161 206 262 330 398
#     4  10  19  37  60  82 123 163 214 251 319 383
#     4  11  21  38  62  89 123 163 213 267 316 387
#
# _framework density 27.549329
#
# number of rings (size 3 to 8) (size 9 to 14) (size 15 to 20)
#    0.000    1.500    3.750    2.250    1.750    2.000 
#    2.250    4.375    0.000    0.000    0.000    0.000 
#    0.000    0.000    0.000    0.000    0.000    0.000 
#
# Total GULP energy -178516.079033 kJ/mol
# GULP energy per Si atom -5578.627470 kJ/mol
# Density = 2.748663 g / cm^3
# Si number density = 27.549329 Si / 1000 Ang^3
#
#
#
# Elastic Constant Matrix: (Units=GPa)
#
#
# Indices 1 2 3 4 5 6 
#
# 1 79.1447 -1.8771 27.9203 0.0000 -15.8569 0.0000
# 2 -1.8771 32.6287 -1.8568 0.0000 -2.5223 0.0000
# 3 27.9203 -1.8568 83.3416 0.0000 -10.7004 0.0000
# 4 0.0000 0.0000 0.0000 80.7613 0.0000 15.1151
# 5 -15.8569 -2.5223 -10.7004 0.0000 32.4656 0.0000
# 6 0.0000 0.0000 0.0000 15.1151 0.0000 37.7623
#
#
#
# Elastic Compliance Matrix: (Units=1/GPa)
#
#
# Indices 1 2 3 4 5 6 
#
# 1 0.015438 0.001119 -0.004352 0.000000 0.006193 0.000000
# 2 0.001119 0.031000 0.000726 0.000000 0.003194 0.000000
# 3 -0.004352 0.000726 0.013791 0.000000 0.002476 0.000000
# 4 0.000000 0.000000 0.000000 0.013385 0.000000 -0.005358
# 5 0.006193 0.003194 0.002476 0.000000 0.034891 0.000000
# 6 0.000000 0.000000 0.000000 -0.005358 0.000000 0.028626
#
#
# Mechanical properties :
#
#
# Convention : Reuss Voigt Hill
#
# Bulk Modulus (GPa) = 18.11088 27.05421 22.58255
# Shear Modulus (GPa) = 31.14316 41.59308 36.36812
#
# Velocity S-wave (km/s) = 3.36587 3.88979 3.63727
# Velocity P-wave (km/s) = 4.65764 5.47864 5.08474
#
# Compressibility (1/GPa) = 0.05521544
#
# Stress axis : x y z
#
# Youngs Moduli (GPa) = 64.77715 32.25757 72.51224
#
# Poissons Ratio (x) = -0.03610 0.31555
# Poissons Ratio (y) = -0.07250 -0.05263
# Poissons Ratio (z) = 0.28189 -0.02341
#
# Static dielectric constant tensor:
#      x y z
#    x 2.305840 0.000000 0.013290 
#    y 0.000000 2.143490 0.000000 
#    z 0.013290 0.000000 2.306050 
# 
# From -- ./inp_files/316220.got.cif
#   From: 2010.05.17/outbox.cif.g08.bks.cpg/sg15_159_cif.got.tgz:316220.got - 2010.06.03 18:47:42.
