data_PCOD9266028
_publ_section_title
;
Structure prediction by ZEFSAII (Michael W. Deem and Ramdas Pophale) SiO2 
 PCOD9266028
Probable space group: C 2/C
;
_chemical_formula_sum "Si O2"
_cell_formula_units_Z 48
_cell_length_a 20.545950
_cell_length_b 18.654757
_cell_length_c 14.320448
_cell_angle_alpha 90.000000
_cell_angle_beta 22.054515
_cell_angle_gamma 90.000000
_cell_volume 2060.958245
_symmetry_space_group_name_H-M "C 2/C"
_symmetry_group_IT_number 15
_symmetry_cell_setting 'monoclinic'
loop_
_space_group_symop_operation_xyz
x,y,z
-x,y,1/2-z
-x,-y,-z
x,-y,1/2+z
1/2+x,1/2+y,z
1/2-x,1/2+y,1/2-z
1/2-x,1/2-y,-z
1/2+x,1/2-y,1/2+z
loop_
_atom_site_type_symbol
_atom_site_label
_atom_site_fract_x
_atom_site_fract_y
_atom_site_fract_z
Si Si1 0.355093 0.153015 0.247659
Si Si2 0.632828 0.344005 0.354295
Si Si3 0.428569 0.959026 0.948617
Si Si4 0.434546 0.732923 0.954403
Si Si5 0.006017 0.619831 0.852532
Si Si6 0.850146 0.825082 0.877210
O O1 0.421642 0.074150 0.184337
O O2 0.161423 0.181462 0.491202
O O3 0.432838 0.200379 0.229945
O O4 0.437265 0.164377 0.033327
O O5 0.550724 0.316921 0.366474
O O6 0.769103 0.282618 0.209415
O O7 0.456558 0.350430 0.646726
O O8 0.750718 0.414812 0.196292
O O9 0.500000 0.948714 0.750000
O O10 0.411382 0.043893 0.983774
O O11 0.211854 0.616588 0.594336
O O12 0.000000 0.643618 0.750000
O O13 0.000000 0.812644 0.750000
O O14 0.750000 0.750000 0.000000
#
# Coordination Sequence:
#
# PCOD9266028 Si02
#       6
#     8   8   8   8   8   8
#     4  10  19  38  61  86 123 160 198 263 322 378
#     4  10  19  37  59  87 123 160 200 263 325 382
#     4  10  23  43  61  83 122 173 223 264 307 377
#     4   9  18  34  60  89 116 151 202 251 318 381
#     4  11  23  39  60  90 127 169 210 256 323 395
#     4  12  22  35  61  95 127 161 204 265 334 395
#
# _framework density 23.290137000000001
#
# number of rings (size 3 to 8) (size 9 to 14) (size 15 to 20)
#    0.000    1.667    0.000    7.000    0.000    0.000 
#    0.000   25.000    0.000    0.000    0.000    0.000 
#    0.000    0.000    0.000    0.000    0.000    0.000 
#
# Total GULP energy -133635.101506 kJ/mol
# GULP energy per Si atom -5568.129229 kJ/mol
# Density = 2.323713 g / cm^3
# Si number density = 23.290137 Si / 1000 Ang^3
#
#
#
# Elastic Constant Matrix: (Units=GPa)
#
#
# Indices 1 2 3 4 5 6 
#
# 1 104.1477 8.5891 23.7965 0.0008 -17.0204 -0.0011
# 2 8.5891 68.1510 36.8945 -0.0020 -15.1034 0.0005
# 3 23.7965 36.8945 145.4272 -0.0108 -6.7322 0.0016
# 4 0.0008 -0.0020 -0.0108 28.8616 0.0011 -23.4151
# 5 -17.0204 -15.1034 -6.7322 0.0011 46.1404 0.0009
# 6 -0.0011 0.0005 0.0016 -23.4151 0.0009 45.0805
#
#
#
# Elastic Compliance Matrix: (Units=1/GPa)
#
#
# Indices 1 2 3 4 5 6 
#
# 1 0.010566 0.000405 -0.001656 -0.000001 0.003788 -0.000001
# 2 0.000405 0.018239 -0.004440 -0.000001 0.005472 -0.000001
# 3 -0.001656 -0.004440 0.008234 0.000005 -0.000863 0.000002
# 4 -0.000001 -0.000001 0.000005 0.059881 -0.000002 0.031103
# 5 0.003788 0.005472 -0.000863 -0.000002 0.024736 -0.000002
# 6 -0.000001 -0.000001 0.000002 0.031103 -0.000002 0.038337
#
#
# Mechanical properties :
#
#
# Convention : Reuss Voigt Hill
#
# Bulk Modulus (GPa) = 38.97878 50.69845 44.83861
# Shear Modulus (GPa) = 27.78899 40.57957 34.18428
#
# Velocity S-wave (km/s) = 3.45797 4.17868 3.83529
# Velocity P-wave (km/s) = 5.71978 6.71545 6.23751
#
# Compressibility (1/GPa) = 0.02565499
#
# Stress axis : x y z
#
# Youngs Moduli (GPa) = 94.64394 54.82894 121.45125
#
# Poissons Ratio (x) = -0.02218 0.20115
# Poissons Ratio (y) = -0.03829 0.53924
# Poissons Ratio (z) = 0.15675 0.24344
#
# Static dielectric constant tensor:
#      x y z
#    x -0.243820 0.000030 -2.650810 
#    y 0.000030 1.898540 0.000050 
#    z -2.650810 0.000050 -1.332240 
# 
# From -- ./inp_files/219946.got.cif
#   From: 2010.05.17/outbox.cif.g08.bks.cpg/sg15_110_cif.got.tgz:219946.got - 2010.06.03 18:47:42.
