data_PCOD9266684
_publ_section_title
;
Structure prediction by ZEFSAII (Michael W. Deem and Ramdas Pophale) SiO2 
 PCOD9266684
Probable space group: C 2/C
;
_chemical_formula_sum "Si O2"
_cell_formula_units_Z 52
_cell_length_a 11.049677
_cell_length_b 14.938919
_cell_length_c 13.526831
_cell_angle_alpha 90.000000
_cell_angle_beta 101.015496
_cell_angle_gamma 90.000000
_cell_volume 2191.737550
_symmetry_space_group_name_H-M "C 2/C"
_symmetry_group_IT_number 15
_symmetry_cell_setting 'monoclinic'
loop_
_space_group_symop_operation_xyz
x,y,z
-x,y,1/2-z
-x,-y,-z
x,-y,1/2+z
1/2+x,1/2+y,z
1/2-x,1/2+y,1/2-z
1/2-x,1/2-y,-z
1/2+x,1/2-y,1/2+z
loop_
_atom_site_type_symbol
_atom_site_label
_atom_site_fract_x
_atom_site_fract_y
_atom_site_fract_z
Si Si1 0.500000 0.955834 0.750000
Si Si2 0.121197 0.765025 0.533030
Si Si3 0.798093 0.287047 0.147220
Si Si4 0.101114 0.862318 0.980886
Si Si5 0.379806 0.487197 0.170878
Si Si6 0.127335 0.396375 0.151529
Si Si7 0.759819 0.359633 0.727813
O O1 0.383477 0.897260 0.699656
O O2 0.450687 0.016450 0.832935
O O3 0.250000 0.750000 0.500000
O O4 0.072833 0.667669 0.559286
O O5 0.163900 0.817442 0.637701
O O6 0.015721 0.829072 0.473531
O O7 0.881000 0.217245 0.098112
O O8 0.862877 0.343493 0.242692
O O9 0.706888 0.218157 0.189156
O O10 0.723777 0.354066 0.065369
O O11 0.088028 0.956456 0.923034
O O12 0.500000 0.455702 0.250000
O O13 0.268145 0.417743 0.141216
O O14 0.312858 0.561388 0.229531
#
# Coordination Sequence:
#
# PCOD9266684 Si02
#       7
#     4   8   8   8   8   8   8
#     4  10  20  38  64  86 114 154 196 240 298 350
#     4  11  23  39  59  88 119 156 202 242 288 350
#     4   9  20  38  62  90 116 152 204 243 289 350
#     4  10  20  38  64  88 115 157 200 244 288 353
#     4  10  19  38  59  84 116 154 193 237 295 352
#     4  10  22  40  60  89 118 156 194 242 296 349
#     4   9  20  37  61  84 117 157 196 239 295 349
#
# _framework density 23.725469
#
# number of rings (size 3 to 8) (size 9 to 14) (size 15 to 20)
#    0.000    2.154    1.538    0.923    2.154    1.231 
#    8.308    2.308    0.000    0.000    0.000    0.000 
#    0.000    0.000    0.000    0.000    0.000    0.000 
#
# Total GULP energy -145233.736626 kJ/mol
# GULP energy per Si atom -5585.912947 kJ/mol
# Density = 2.367147 g / cm^3
# Si number density = 23.725469 Si / 1000 Ang^3
#
#
#
# Elastic Constant Matrix: (Units=GPa)
#
#
# Indices 1 2 3 4 5 6 
#
# 1 121.3366 24.9757 4.4196 0.0000 3.6679 0.0000
# 2 24.9757 52.8639 11.0690 0.0000 7.4448 0.0000
# 3 4.4196 11.0690 24.3986 0.0000 -1.8002 0.0000
# 4 0.0000 0.0000 0.0000 17.4636 0.0000 2.1993
# 5 3.6679 7.4448 -1.8002 0.0000 20.8924 0.0000
# 6 0.0000 0.0000 0.0000 2.1993 0.0000 46.3311
#
#
#
# Elastic Compliance Matrix: (Units=1/GPa)
#
#
# Indices 1 2 3 4 5 6 
#
# 1 0.009132 -0.004382 0.000333 0.000000 -0.000013 0.000000
# 2 -0.004382 0.024548 -0.011001 0.000000 -0.008926 0.000000
# 3 0.000333 -0.011001 0.046497 0.000000 0.007868 0.000000
# 4 0.000000 0.000000 0.000000 0.057606 0.000000 -0.002735
# 5 -0.000013 -0.008926 0.007868 0.000000 0.051725 0.000000
# 6 0.000000 0.000000 0.000000 -0.002735 0.000000 0.021714
#
#
# Mechanical properties :
#
#
# Convention : Reuss Voigt Hill
#
# Bulk Modulus (GPa) = 19.96988 31.05862 25.51425
# Shear Modulus (GPa) = 19.37875 27.47975 23.42925
#
# Velocity S-wave (km/s) = 2.86106 3.40698 3.14588
# Velocity P-wave (km/s) = 4.39881 5.34752 4.89620
#
# Compressibility (1/GPa) = 0.05007541
#
# Stress axis : x y z
#
# Youngs Moduli (GPa) = 109.50701 40.73734 21.50662
#
# Poissons Ratio (x) = 0.17852 -0.00716
# Poissons Ratio (y) = 0.47989 0.23660
# Poissons Ratio (z) = -0.03647 0.44817
#
# Static dielectric constant tensor:
#      x y z
#    x 1.951640 0.000000 -0.043010 
#    y 0.000000 1.929800 0.000000 
#    z -0.043010 0.000000 1.895160 
# 
# From -- ./inp_files/144333.got.cif
#   From: 2010.05.17/outbox.cif.g08.bks.cpg/sg15_73_cif.got.tgz:144333.got - 2010.06.03 18:47:42.
