data_PCOD9266041
_publ_section_title
;
Structure prediction by ZEFSAII (Michael W. Deem and Ramdas Pophale) SiO2 
 PCOD9266041
Probable space group: C 2/C
;
_chemical_formula_sum "Si O2"
_cell_formula_units_Z 48
_cell_length_a 10.660113
_cell_length_b 7.835750
_cell_length_c 25.582905
_cell_angle_alpha 90.000000
_cell_angle_beta 117.834766
_cell_angle_gamma 90.000000
_cell_volume 1889.690984
_symmetry_space_group_name_H-M "C 2/C"
_symmetry_group_IT_number 15
_symmetry_cell_setting 'monoclinic'
loop_
_space_group_symop_operation_xyz
x,y,z
-x,y,1/2-z
-x,-y,-z
x,-y,1/2+z
1/2+x,1/2+y,z
1/2-x,1/2+y,1/2-z
1/2-x,1/2-y,-z
1/2+x,1/2-y,1/2+z
loop_
_atom_site_type_symbol
_atom_site_label
_atom_site_fract_x
_atom_site_fract_y
_atom_site_fract_z
Si Si1 0.321777 0.800742 0.085966
Si Si2 0.150645 0.907085 0.517896
Si Si3 0.203904 0.367054 0.303517
Si Si4 0.626491 0.667936 0.128077
Si Si5 0.476592 0.879717 0.945127
Si Si6 0.656601 0.993632 0.685859
O O1 0.364957 0.865525 0.152473
O O2 0.457275 0.697209 0.093286
O O3 0.178301 0.699163 0.071804
O O4 0.266906 0.944399 0.034599
O O5 0.183747 0.824417 0.580510
O O6 0.101559 0.761516 0.468720
O O7 0.000000 0.000000 0.500000
O O8 0.343108 0.483727 0.341237
O O9 0.239506 0.170823 0.296233
O O10 0.130308 0.465280 0.241505
O O11 0.704408 0.819475 0.174393
O O12 0.455710 0.951321 0.882498
O O13 0.500000 0.000000 0.000000
#
# Coordination Sequence:
#
# PCOD9266041 Si02
#       6
#     8   8   8   8   8   8
#     4   9  22  39  65  93 122 165 216 265 323 388
#     4   9  19  38  62  88 128 165 206 257 320 389
#     4  10  22  42  65  90 128 167 216 266 335 394
#     4  11  21  41  67  93 127 166 213 273 321 388
#     4  10  19  37  59  88 126 164 204 255 323 382
#     4  11  21  39  65  89 123 174 208 262 332 382
#
# _framework density 25.400979
#
# number of rings (size 3 to 8) (size 9 to 14) (size 15 to 20)
#    0.000    2.000    3.333    1.000    0.000    3.333 
#    3.000    0.833    7.333    0.000    0.000    0.000 
#    0.000    0.000    0.000    0.000    0.000    0.000 
#
# Total GULP energy -134017.798737 kJ/mol
# GULP energy per Si atom -5584.074947 kJ/mol
# Density = 2.534317 g / cm^3
# Si number density = 25.400979 Si / 1000 Ang^3
#
#
#
# Elastic Constant Matrix: (Units=GPa)
#
#
# Indices 1 2 3 4 5 6 
#
# 1 110.4644 35.4244 48.3564 0.0000 -0.2155 0.0000
# 2 35.4244 109.3584 37.5632 0.0000 -6.3491 0.0000
# 3 48.3564 37.5632 179.4324 0.0000 -21.3492 0.0000
# 4 0.0000 0.0000 0.0000 73.1978 0.0000 1.6620
# 5 -0.2155 -6.3491 -21.3492 0.0000 54.6489 0.0000
# 6 0.0000 0.0000 0.0000 1.6620 0.0000 34.2031
#
#
#
# Elastic Compliance Matrix: (Units=1/GPa)
#
#
# Indices 1 2 3 4 5 6 
#
# 1 0.011058 -0.002780 -0.002550 0.000000 -0.001276 0.000000
# 2 -0.002780 0.010558 -0.001381 0.000000 0.000676 0.000000
# 3 -0.002550 -0.001381 0.006847 0.000000 0.002505 0.000000
# 4 0.000000 0.000000 0.000000 0.013677 0.000000 -0.000665
# 5 -0.001276 0.000676 0.002505 0.000000 0.019351 0.000000
# 6 0.000000 0.000000 0.000000 -0.000665 0.000000 0.029269
#
#
# Mechanical properties :
#
#
# Convention : Reuss Voigt Hill
#
# Bulk Modulus (GPa) = 66.47904 71.32701 68.90302
# Shear Modulus (GPa) = 45.78934 50.93736 48.36335
#
# Velocity S-wave (km/s) = 4.25038 4.48295 4.36821
# Velocity P-wave (km/s) = 7.09340 7.41196 7.25443
#
# Compressibility (1/GPa) = 0.01504234
#
# Stress axis : x y z
#
# Youngs Moduli (GPa) = 90.43235 94.71194 146.04269
#
# Poissons Ratio (x) = 0.26332 0.37238
# Poissons Ratio (y) = 0.25142 0.20163
# Poissons Ratio (z) = 0.23059 0.13076
#
# Static dielectric constant tensor:
#      x y z
#    x 2.027580 0.000000 0.041090 
#    y 0.000000 2.128680 0.000000 
#    z 0.041090 0.000000 2.022050 
# 
# From -- ./inp_files/291310.got.cif
#   From: 2010.05.17/outbox.cif.g08.bks.cpg/sg15_146_cif.got.tgz:291310.got - 2010.06.03 18:47:42.
