data_PCOD9266086
_publ_section_title
;
Structure prediction by ZEFSAII (Michael W. Deem and Ramdas Pophale) SiO2 
 PCOD9266086
Probable space group: C 2/C
;
_chemical_formula_sum "Si O2"
_cell_formula_units_Z 48
_cell_length_a 13.473234
_cell_length_b 17.931360
_cell_length_c 17.850063
_cell_angle_alpha 90.000000
_cell_angle_beta 31.392173
_cell_angle_gamma 90.000000
_cell_volume 2246.329076
_symmetry_space_group_name_H-M "C 2/C"
_symmetry_group_IT_number 15
_symmetry_cell_setting 'monoclinic'
loop_
_space_group_symop_operation_xyz
x,y,z
-x,y,1/2-z
-x,-y,-z
x,-y,1/2+z
1/2+x,1/2+y,z
1/2-x,1/2+y,1/2-z
1/2-x,1/2-y,-z
1/2+x,1/2-y,1/2+z
loop_
_atom_site_type_symbol
_atom_site_label
_atom_site_fract_x
_atom_site_fract_y
_atom_site_fract_z
Si Si1 0.276890 0.801224 0.411450
Si Si2 0.716989 0.698912 0.639071
Si Si3 0.282881 0.478997 0.361680
Si Si4 0.585192 0.714737 0.880057
Si Si5 0.525662 0.460571 0.405021
Si Si6 0.329183 0.965548 0.420134
O O1 0.500000 0.803690 0.250000
O O2 0.250000 0.750000 0.500000
O O3 0.170763 0.769952 0.406644
O O4 0.228921 0.886656 0.465151
O O5 0.500000 0.709457 0.750000
O O6 0.755354 0.609948 0.609530
O O7 0.721278 0.728912 0.721900
O O8 0.887236 0.743795 0.491546
O O9 0.500000 0.493418 0.250000
O O10 0.311401 0.494657 0.254483
O O11 0.144670 0.525344 0.506466
O O12 0.562948 0.625826 0.892090
O O13 0.500000 0.500000 0.500000
O O14 0.319453 0.468929 0.500116
O O15 0.500000 0.972342 0.250000
#
# Coordination Sequence:
#
# PCOD9266086 Si02
#       6
#     8   8   8   8   8   8
#     4  11  24  42  62  86 123 166 210 257 299 354
#     4  10  21  38  61  94 128 155 197 253 313 373
#     4   8  18  36  59  86 118 159 190 242 307 370
#     4  11  22  39  64  90 124 163 202 252 307 369
#     4  10  19  37  60  83 118 154 199 247 304 358
#     4  10  21  39  62  88 118 156 205 255 303 361
#
# _framework density 21.368195
#
# number of rings (size 3 to 8) (size 9 to 14) (size 15 to 20)
#    0.000    2.000    1.667    2.500    0.000    4.000 
#    3.000    0.833    0.000    0.000    0.000    0.000 
#    0.000    0.000    0.000    0.000    0.000    0.000 
#
# Total GULP energy -133752.771810 kJ/mol
# GULP energy per Si atom -5573.032159 kJ/mol
# Density = 2.131956 g / cm^3
# Si number density = 21.368195 Si / 1000 Ang^3
#
#
#
# Elastic Constant Matrix: (Units=GPa)
#
#
# Indices 1 2 3 4 5 6 
#
# 1 70.5105 9.1644 21.7799 0.0056 17.8310 0.0004
# 2 9.1644 10.1272 28.2474 0.0046 14.8978 -0.0034
# 3 21.7799 28.2474 115.1136 0.0057 35.0400 -0.0042
# 4 0.0056 0.0046 0.0057 18.2432 -0.0021 5.2661
# 5 17.8310 14.8978 35.0400 -0.0021 43.5397 0.0028
# 6 0.0004 -0.0034 -0.0042 5.2661 0.0028 27.7596
#
#
#
# Elastic Compliance Matrix: (Units=1/GPa)
#
#
# Indices 1 2 3 4 5 6 
#
# 1 0.016349 -0.013759 0.001176 -0.000002 -0.002934 -0.000001
# 2 -0.013759 0.514449 -0.095055 -0.000131 -0.093893 0.000084
# 3 0.001176 -0.095055 0.029186 0.000019 0.008555 -0.000012
# 4 -0.000002 -0.000131 0.000019 0.057991 0.000034 -0.011001
# 5 -0.002934 -0.093893 0.008555 0.000034 0.049411 -0.000022
# 6 -0.000001 0.000084 -0.000012 -0.011001 -0.000022 0.038111
#
#
# Mechanical properties :
#
#
# Convention : Reuss Voigt Hill
#
# Bulk Modulus (GPa) = 2.90101 34.90388 18.90244
# Shear Modulus (GPa) = 4.82777 27.01247 15.92012
#
# Velocity S-wave (km/s) = 1.50474 3.55934 2.73250
# Velocity P-wave (km/s) = 2.09274 5.76730 4.33828
#
# Compressibility (1/GPa) = 0.34470805
#
# Stress axis : x y z
#
# Youngs Moduli (GPa) = 61.16467 1.94383 34.26310
#
# Poissons Ratio (x) = 0.02674 -0.04030
# Poissons Ratio (y) = 0.84155 3.25689
# Poissons Ratio (z) = -0.07193 0.18477
#
# Static dielectric constant tensor:
#      x y z
#    x 1.956840 0.000020 0.076230 
#    y 0.000020 1.747560 0.000010 
#    z 0.076230 0.000010 1.801640 
# 
# From -- ./inp_files/39648.got.cif
#   From: 2010.05.17/outbox.cif.g08.bks.cpg/sg15_20_cif.got.tgz:39648.got - 2010.06.03 18:47:42.
