data_PCOD9266952
_publ_section_title
;
Structure prediction by ZEFSAII (Michael W. Deem and Ramdas Pophale) SiO2 
 PCOD9266952
Probable space group: C 2/C
;
_chemical_formula_sum "Si O2"
_cell_formula_units_Z 48
_cell_length_a 11.935937
_cell_length_b 14.080817
_cell_length_c 19.983697
_cell_angle_alpha 90.000000
_cell_angle_beta 136.445875
_cell_angle_gamma 90.000000
_cell_volume 2314.218321
_symmetry_space_group_name_H-M "C 2/C"
_symmetry_group_IT_number 15
_symmetry_cell_setting 'monoclinic'
loop_
_space_group_symop_operation_xyz
x,y,z
-x,y,1/2-z
-x,-y,-z
x,-y,1/2+z
1/2+x,1/2+y,z
1/2-x,1/2+y,1/2-z
1/2-x,1/2-y,-z
1/2+x,1/2-y,1/2+z
loop_
_atom_site_type_symbol
_atom_site_label
_atom_site_fract_x
_atom_site_fract_y
_atom_site_fract_z
Si Si1 0.767881 0.767536 0.750231
Si Si2 0.885291 0.169195 0.065993
Si Si3 0.515578 0.109321 0.331176
Si Si4 0.305310 0.463650 0.041753
Si Si5 0.464830 0.663387 0.946916
Si Si6 0.762659 0.211844 0.611517
O O1 0.656421 0.862179 0.711194
O O2 0.691438 0.702580 0.659656
O O3 0.749376 0.716077 0.814174
O O4 0.956309 0.793074 0.827154
O O5 0.825671 0.071486 0.071969
O O6 0.750000 0.250000 0.000000
O O7 0.932364 0.140653 0.010044
O O8 0.500000 0.066105 0.250000
O O9 0.635335 0.048868 0.428654
O O10 0.607473 0.210112 0.357338
O O11 0.446431 0.421813 0.053978
O O12 0.303856 0.390607 0.102232
O O13 0.594929 0.749883 0.007176
#
# Coordination Sequence:
#
# PCOD9266952 Si02
#       6
#     8   8   8   8   8   8
#     4  10  19  38  63  91 123 159 205 248 313 359
#     4  11  27  44  54  84 138 172 197 251 308 366
#     4   9  16  31  62  98 119 144 200 263 304 352
#     4  11  19  39  65  95 122 154 204 260 313 357
#     4  10  19  39  67  88 117 160 211 259 299 355
#     4   9  17  32  65  99 120 141 197 277 309 340
#
# _framework density 20.741344000000002
#
# number of rings (size 3 to 8) (size 9 to 14) (size 15 to 20)
#    0.000    2.000    3.333    2.500    0.000    0.667 
#    6.000    6.667    0.000    0.000    0.000    0.000 
#    0.000    0.000    0.000    0.000    0.000    0.000 
#
# Total GULP energy -134083.897983 kJ/mol
# GULP energy per Si atom -5586.829083 kJ/mol
# Density = 2.069414 g / cm^3
# Si number density = 20.741344 Si / 1000 Ang^3
#
#
#
# Elastic Constant Matrix: (Units=GPa)
#
#
# Indices 1 2 3 4 5 6 
#
# 1 14.4147 17.5245 7.4176 0.0000 11.4523 0.0000
# 2 17.5245 100.1769 27.4825 0.0000 18.3219 0.0000
# 3 7.4176 27.4825 139.5684 0.0000 23.0208 0.0000
# 4 0.0000 0.0000 0.0000 12.8581 0.0000 -1.0334
# 5 11.4523 18.3219 23.0208 0.0000 38.4042 0.0000
# 6 0.0000 0.0000 0.0000 -1.0334 0.0000 12.9650
#
#
#
# Elastic Compliance Matrix: (Units=1/GPa)
#
#
# Indices 1 2 3 4 5 6 
#
# 1 0.106528 -0.014306 0.001409 0.000000 -0.025787 0.000000
# 2 -0.014306 0.013123 -0.001659 0.000000 -0.001000 0.000000
# 3 0.001409 -0.001659 0.008163 0.000000 -0.004522 0.000000
# 4 0.000000 0.000000 0.000000 0.078273 0.000000 0.006239
# 5 -0.025787 -0.001000 -0.004522 0.000000 0.036916 0.000000
# 6 0.000000 0.000000 0.000000 0.006239 0.000000 0.077628
#
#
# Mechanical properties :
#
#
# Convention : Reuss Voigt Hill
#
# Bulk Modulus (GPa) = 10.13154 39.88992 25.01073
# Shear Modulus (GPa) = 13.06702 26.29449 19.68075
#
# Velocity S-wave (km/s) = 2.51270 3.56439 3.08371
# Velocity P-wave (km/s) = 3.64877 6.01778 4.97630
#
# Compressibility (1/GPa) = 0.09870171
#
# Stress axis : x y z
#
# Youngs Moduli (GPa) = 9.38723 76.20249 122.51129
#
# Poissons Ratio (x) = 1.09013 -0.17258
# Poissons Ratio (y) = 0.13429 0.20322
# Poissons Ratio (z) = -0.01322 0.12640
#
# Static dielectric constant tensor:
#      x y z
#    x 1.788330 0.000000 0.000650 
#    y 0.000000 1.716350 0.000000 
#    z 0.000650 0.000000 1.777570 
# 
# From -- ./inp_files/239016.got.cif
#   From: 2010.05.17/outbox.cif.g08.bks.cpg/sg15_120_cif.got.tgz:239016.got - 2010.06.03 18:47:42.
