data_PCOD9266645
_publ_section_title
;
Structure prediction by ZEFSAII (Michael W. Deem and Ramdas Pophale) SiO2 
 PCOD9266645
Probable space group: C 2/C
;
_chemical_formula_sum "Si O2"
_cell_formula_units_Z 40
_cell_length_a 12.028223
_cell_length_b 16.588795
_cell_length_c 8.598153
_cell_angle_alpha 90.000000
_cell_angle_beta 94.815384
_cell_angle_gamma 90.000000
_cell_volume 1709.565967
_symmetry_space_group_name_H-M "C 2/C"
_symmetry_group_IT_number 15
_symmetry_cell_setting 'monoclinic'
loop_
_space_group_symop_operation_xyz
x,y,z
-x,y,1/2-z
-x,-y,-z
x,-y,1/2+z
1/2+x,1/2+y,z
1/2-x,1/2+y,1/2-z
1/2-x,1/2-y,-z
1/2+x,1/2-y,1/2+z
loop_
_atom_site_type_symbol
_atom_site_label
_atom_site_fract_x
_atom_site_fract_y
_atom_site_fract_z
Si Si1 0.111676 0.283751 0.872379
Si Si2 0.768956 0.332470 0.911007
Si Si3 0.866971 0.054354 0.909065
Si Si4 0.629132 0.399660 0.428260
Si Si5 0.495470 0.090088 0.564402
O O1 0.206618 0.311182 0.763750
O O2 0.132587 0.196073 0.947714
O O3 0.000000 0.274942 0.750000
O O4 0.087790 0.351979 0.996777
O O5 0.671104 0.392431 0.948683
O O6 0.879184 0.373348 0.992964
O O7 0.750000 0.250000 0.000000
O O8 0.820277 0.082507 0.736895
O O9 0.998888 0.072003 0.910269
O O10 0.828066 0.963405 0.940076
O O11 0.500000 0.090471 0.750000
O O12 0.500000 0.000000 0.500000
#
# Coordination Sequence:
#
# PCOD9266645 Si02
#       5
#     8   8   8   8   8
#     4  10  19  40  65  92 130 173 210 268 334 394
#     4  11  21  41  71  94 129 175 227 271 332 395
#     4  10  20  35  61  89 124 169 211 264 318 389
#     4  10  19  38  57  91 132 166 211 259 337 382
#     4  11  25  46  70  97 133 180 221 274 342 406
#
# _framework density 23.397751
#
# number of rings (size 3 to 8) (size 9 to 14) (size 15 to 20)
#    0.000    1.600    4.000    3.000    0.000    3.200 
#   10.800    1.000    0.000    0.000    0.000    0.000 
#    0.000    0.000    0.000    0.000    0.000    0.000 
#
# Total GULP energy -111900.935230 kJ/mol
# GULP energy per Si atom -5595.046761 kJ/mol
# Density = 2.334450 g / cm^3
# Si number density = 23.397751 Si / 1000 Ang^3
#
#
#
# Elastic Constant Matrix: (Units=GPa)
#
#
# Indices 1 2 3 4 5 6 
#
# 1 32.8927 25.4589 35.8010 0.0000 -7.5912 0.0000
# 2 25.4589 253.5585 112.6337 0.0000 -17.5895 0.0000
# 3 35.8010 112.6337 176.4537 0.0000 -24.9476 0.0000
# 4 0.0000 0.0000 0.0000 -13.2398 0.0000 130.7758
# 5 -7.5912 -17.5895 -24.9476 0.0000 41.0519 0.0000
# 6 0.0000 0.0000 0.0000 130.7758 0.0000 -257.1296
#
#
#
# Elastic Compliance Matrix: (Units=1/GPa)
#
#
# Indices 1 2 3 4 5 6 
#
# 1 0.039333 -0.000540 -0.007264 0.000000 0.002627 0.000000
# 2 -0.000540 0.005514 -0.003381 0.000000 0.000208 0.000000
# 3 -0.007264 -0.003381 0.009741 0.000000 0.003128 0.000000
# 4 0.000000 0.000000 0.000000 0.018771 0.000000 0.009547
# 5 0.002627 0.000208 0.003128 0.000000 0.026835 0.000000
# 6 0.000000 0.000000 0.000000 0.009547 0.000000 0.000967
#
#
# Mechanical properties :
#
#
# Convention : Reuss Voigt Hill
#
# Bulk Modulus (GPa) = 31.03834 90.07690 60.55762
# Shear Modulus (GPa) = 37.23805 -26.59607 5.32099
#
# Velocity S-wave (km/s) = 3.99372 -3.37515 1.50966
# Velocity P-wave (km/s) = 5.87883 4.83662 5.38301
#
# Compressibility (1/GPa) = 0.03221822
#
# Stress axis : x y z
#
# Youngs Moduli (GPa) = 25.42417 181.34407 102.65539
#
# Poissons Ratio (x) = 0.09797 0.74568
# Poissons Ratio (y) = 0.01374 0.34706
# Poissons Ratio (z) = 0.18468 0.61310
#
# Static dielectric constant tensor:
#      x y z
#    x 1.978570 0.000000 0.028280 
#    y 0.000000 1.851340 0.000000 
#    z 0.028280 0.000000 1.878800 
# 
# From -- ./inp_files/37836.got.cif
#   From: 2010.05.17/outbox.cif.g08.bks.cpg/sg15_19_cif.got.tgz:37836.got - 2010.06.03 18:47:42.
