data_PCOD9266600
_publ_section_title
;
Structure prediction by ZEFSAII (Michael W. Deem and Ramdas Pophale) SiO2 
 PCOD9266600
Probable space group: C 2/C
;
_chemical_formula_sum "Si O2"
_cell_formula_units_Z 64
_cell_length_a 21.409003
_cell_length_b 26.630547
_cell_length_c 9.965810
_cell_angle_alpha 90.000000
_cell_angle_beta 138.515594
_cell_angle_gamma 90.000000
_cell_volume 3763.743919
_symmetry_space_group_name_H-M "C 2/C"
_symmetry_group_IT_number 15
_symmetry_cell_setting 'monoclinic'
loop_
_space_group_symop_operation_xyz
x,y,z
-x,y,1/2-z
-x,-y,-z
x,-y,1/2+z
1/2+x,1/2+y,z
1/2-x,1/2+y,1/2-z
1/2-x,1/2-y,-z
1/2+x,1/2-y,1/2+z
loop_
_atom_site_type_symbol
_atom_site_label
_atom_site_fract_x
_atom_site_fract_y
_atom_site_fract_z
Si Si1 0.598463 0.552778 0.225219
Si Si2 0.785808 0.142590 0.688162
Si Si3 0.617959 0.454433 0.074568
Si Si4 0.890638 0.201327 0.091527
Si Si5 0.602144 0.817039 0.463594
Si Si6 0.899946 0.814735 0.128122
Si Si7 0.345646 0.785387 0.650542
Si Si8 0.700126 0.346805 0.797228
O O1 0.618701 0.505863 0.160036
O O2 0.623356 0.540401 0.421267
O O3 0.655286 0.599104 0.254522
O O4 0.486853 0.566185 0.055802
O O5 0.801417 0.084940 0.752450
O O6 0.849518 0.153000 0.660465
O O7 0.685026 0.167406 0.490221
O O8 0.831639 0.175797 0.878821
O O9 0.888776 0.260911 0.079495
O O10 0.840833 0.185324 0.147034
O O11 0.000000 0.185124 0.250000
O O12 0.500000 0.835824 0.250000
O O13 0.618463 0.807164 0.649699
O O14 0.687630 0.848742 0.539311
O O15 0.913954 0.757583 0.202835
O O16 0.000000 0.836874 0.250000
O O17 0.835635 0.819155 0.894167
O O18 0.250000 0.750000 0.500000
#
# Coordination Sequence:
#
# PCOD9266600 Si02
#       8
#     8   8   8   8   8   8   8   8
#     4  10  22  36  55  81 118 141 189 224 280 346
#     4  11  19  36  55  71 116 153 179 226 280 330
#     4  10  21  37  54  83 113 152 174 230 282 346
#     4  11  20  33  55  82 117 152 185 229 282 338
#     4  11  23  38  56  79 116 157 198 240 279 320
#     4  11  21  32  55  82 113 150 187 226 277 342
#     4  10  19  38  51  75 111 147 187 234 279 325
#     4  12  22  36  55  85 113 152 200 228 276 346
#
# _framework density 17.004344
#
# number of rings (size 3 to 8) (size 9 to 14) (size 15 to 20)
#    0.000    1.250    6.250    2.625    3.500    0.000 
#    0.000    0.000    0.000    0.000    0.000    4.375 
#    0.000    0.000    0.000    0.000    0.000    0.000 
#
# Total GULP energy -178328.368088 kJ/mol
# GULP energy per Si atom -5572.761503 kJ/mol
# Density = 1.696564 g / cm^3
# Si number density = 17.004344 Si / 1000 Ang^3
#
#
#
# Elastic Constant Matrix: (Units=GPa)
#
#
# Indices 1 2 3 4 5 6 
#
# 1 66.2902 9.6738 35.2988 0.0000 -13.6527 0.0000
# 2 9.6738 66.0962 18.9647 0.0000 -5.5535 0.0000
# 3 35.2988 18.9647 95.9595 0.0000 -11.8225 0.0000
# 4 0.0000 0.0000 0.0000 18.1338 0.0000 5.5365
# 5 -13.6527 -5.5535 -11.8225 0.0000 30.8989 0.0000
# 6 0.0000 0.0000 0.0000 5.5365 0.0000 21.3952
#
#
#
# Elastic Compliance Matrix: (Units=1/GPa)
#
#
# Indices 1 2 3 4 5 6 
#
# 1 0.019873 -0.000539 -0.006437 0.000000 0.006221 0.000000
# 2 -0.000539 0.016145 -0.002796 0.000000 0.001594 0.000000
# 3 -0.006437 -0.002796 0.013569 0.000000 0.001845 0.000000
# 4 0.000000 0.000000 0.000000 0.059876 0.000000 -0.015495
# 5 0.006221 0.001594 0.001845 0.000000 0.036105 0.000000
# 6 0.000000 0.000000 0.000000 -0.015495 0.000000 0.050749
#
#
# Mechanical properties :
#
#
# Convention : Reuss Voigt Hill
#
# Bulk Modulus (GPa) = 33.28702 39.58003 36.43353
# Shear Modulus (GPa) = 22.13615 25.04615 23.59115
#
# Velocity S-wave (km/s) = 3.61195 3.84204 3.72877
# Velocity P-wave (km/s) = 6.08383 6.55810 6.32541
#
# Compressibility (1/GPa) = 0.03004174
#
# Stress axis : x y z
#
# Youngs Moduli (GPa) = 50.31993 61.94058 73.69780
#
# Poissons Ratio (x) = 0.03338 0.47442
# Poissons Ratio (y) = 0.02712 0.20607
# Poissons Ratio (z) = 0.32392 0.17319
#
# Static dielectric constant tensor:
#      x y z
#    x 1.592380 0.000000 0.018170 
#    y 0.000000 1.586440 0.000000 
#    z 0.018170 0.000000 1.626960 
# 
# From -- ./inp_files/59040.got.cif
#   From: 2010.05.17/outbox.cif.g08.bks.cpg/sg15_30_cif.got.tgz:59040.got - 2010.06.03 18:47:42.
