data_PCOD9266146
_publ_section_title
;
Structure prediction by ZEFSAII (Michael W. Deem and Ramdas Pophale) SiO2 
 PCOD9266146
Probable space group: C 2/C
;
_chemical_formula_sum "Si O2"
_cell_formula_units_Z 64
_cell_length_a 16.431242
_cell_length_b 15.148794
_cell_length_c 15.561981
_cell_angle_alpha 90.000000
_cell_angle_beta 131.654336
_cell_angle_gamma 90.000000
_cell_volume 2894.220857
_symmetry_space_group_name_H-M "C 2/C"
_symmetry_group_IT_number 15
_symmetry_cell_setting 'monoclinic'
loop_
_space_group_symop_operation_xyz
x,y,z
-x,y,1/2-z
-x,-y,-z
x,-y,1/2+z
1/2+x,1/2+y,z
1/2-x,1/2+y,1/2-z
1/2-x,1/2-y,-z
1/2+x,1/2-y,1/2+z
loop_
_atom_site_type_symbol
_atom_site_label
_atom_site_fract_x
_atom_site_fract_y
_atom_site_fract_z
Si Si1 0.392361 0.354224 0.809689
Si Si2 0.132214 0.045692 0.698391
Si Si3 0.765859 0.097036 0.552609
Si Si4 0.936994 0.784940 0.435702
Si Si5 0.291152 0.220070 0.620933
Si Si6 0.842532 0.358353 0.768132
Si Si7 0.211006 0.523896 0.855587
Si Si8 0.618778 0.229660 0.369173
O O1 0.432878 0.455158 0.828058
O O2 0.376084 0.291329 0.716813
O O3 0.268080 0.367014 0.755320
O O4 0.467613 0.304627 0.931013
O O5 0.210153 0.061796 0.835267
O O6 0.065464 0.135082 0.634536
O O7 0.195914 0.033567 0.652456
O O8 0.659678 0.159473 0.467440
O O9 0.858808 0.168985 0.594481
O O10 0.756543 0.020874 0.474566
O O11 0.819312 0.783909 0.399701
O O12 0.934805 0.690849 0.386936
O O13 0.250000 0.250000 0.500000
O O14 0.334967 0.120110 0.655693
O O15 0.869572 0.452188 0.744256
O O16 0.811018 0.294239 0.666936
O O17 0.500000 0.213966 0.250000
#
# Coordination Sequence:
#
# PCOD9266146 Si02
#       8
#     8   8   8   8   8   8   8   8
#     4  10  21  36  63  86 116 159 193 251 300 357
#     4  10  19  37  60  93 119 153 198 244 311 363
#     4  10  20  38  60  84 123 158 190 250 307 350
#     4  10  20  36  59  91 118 150 199 247 299 367
#     4  10  21  39  59  81 118 161 203 247 294 352
#     4   9  19  38  58  84 120 147 189 242 305 355
#     4   9  20  37  60  82 120 155 199 247 290 358
#     4  10  21  37  59  90 118 153 196 246 305 368
#
# _framework density 22.113033000000001
#
# number of rings (size 3 to 8) (size 9 to 14) (size 15 to 20)
#    0.000    2.250    1.250    1.125    0.000    4.500 
#    4.500    0.625   24.750    0.000    0.000    0.000 
#    0.000    0.000    0.000    0.000    0.000    0.000 
#
# Total GULP energy -178448.706726 kJ/mol
# GULP energy per Si atom -5576.522085 kJ/mol
# Density = 2.206270 g / cm^3
# Si number density = 22.113033 Si / 1000 Ang^3
#
#
#
# Elastic Constant Matrix: (Units=GPa)
#
#
# Indices 1 2 3 4 5 6 
#
# 1 35.0230 6.0257 0.1767 0.0000 -0.7894 0.0000
# 2 6.0257 130.5931 37.1354 0.0000 -4.5428 0.0000
# 3 0.1767 37.1354 128.4644 0.0000 1.5489 0.0000
# 4 0.0000 0.0000 0.0000 40.8066 0.0000 -7.6906
# 5 -0.7894 -4.5428 1.5489 0.0000 26.2613 0.0000
# 6 0.0000 0.0000 0.0000 -7.6906 0.0000 6.1609
#
#
#
# Elastic Compliance Matrix: (Units=1/GPa)
#
#
# Indices 1 2 3 4 5 6 
#
# 1 0.028807 -0.001411 0.000361 0.000000 0.000601 0.000000
# 2 -0.001411 0.008479 -0.002468 0.000000 0.001570 0.000000
# 3 0.000361 -0.002468 0.008508 0.000000 -0.000918 0.000000
# 4 0.000000 0.000000 0.000000 0.032045 0.000000 0.040001
# 5 0.000601 0.001570 -0.000918 0.000000 0.038423 0.000000
# 6 0.000000 0.000000 0.000000 0.040001 0.000000 0.212246
#
#
# Mechanical properties :
#
#
# Convention : Reuss Voigt Hill
#
# Bulk Modulus (GPa) = 25.80088 42.30623 34.05355
# Shear Modulus (GPa) = 14.34873 31.36195 22.85534
#
# Velocity S-wave (km/s) = 2.55008 3.77006 3.21840
# Velocity P-wave (km/s) = 4.51260 6.17450 5.40778
#
# Compressibility (1/GPa) = 0.03875837
#
# Stress axis : x y z
#
# Youngs Moduli (GPa) = 34.71366 117.94006 117.53297
#
# Poissons Ratio (x) = 0.16641 -0.04243
# Poissons Ratio (y) = 0.04898 0.29007
# Poissons Ratio (z) = -0.01253 0.29107
#
# Static dielectric constant tensor:
#      x y z
#    x 1.900040 0.000000 -0.028950 
#    y 0.000000 1.879550 0.000000 
#    z -0.028950 0.000000 1.784390 
# 
# From -- ./inp_files/162586.got.cif
#   From: 2010.05.17/outbox.cif.g08.bks.cpg/sg15_82_cif.got.tgz:162586.got - 2010.06.03 18:47:42.
