data_PCOD9266579
_publ_section_title
;
Structure prediction by ZEFSAII (Michael W. Deem and Ramdas Pophale) SiO2 
 PCOD9266579
Probable space group: C 2/C
;
_chemical_formula_sum "Si O2"
_cell_formula_units_Z 32
_cell_length_a 16.608427
_cell_length_b 14.996191
_cell_length_c 5.560141
_cell_angle_alpha 90.000000
_cell_angle_beta 85.120026
_cell_angle_gamma 90.000000
_cell_volume 1379.806326
_symmetry_space_group_name_H-M "C 2/C"
_symmetry_group_IT_number 15
_symmetry_cell_setting 'monoclinic'
loop_
_space_group_symop_operation_xyz
x,y,z
-x,y,1/2-z
-x,-y,-z
x,-y,1/2+z
1/2+x,1/2+y,z
1/2-x,1/2+y,1/2-z
1/2-x,1/2-y,-z
1/2+x,1/2-y,1/2+z
loop_
_atom_site_type_symbol
_atom_site_label
_atom_site_fract_x
_atom_site_fract_y
_atom_site_fract_z
Si Si1 0.500000 0.703742 0.750000
Si Si2 0.599646 0.025742 0.822042
Si Si3 0.170964 0.108270 0.691187
Si Si4 0.500000 0.810790 0.250000
Si Si5 0.231447 0.918030 0.676050
O O1 0.582356 0.647821 0.715848
O O2 0.496161 0.757719 0.500066
O O3 0.579834 0.126087 0.742745
O O4 0.566730 0.973145 0.600418
O O5 0.684908 0.974114 0.842098
O O6 0.217752 0.132565 0.430678
O O7 0.168101 0.000213 0.691457
O O8 0.217596 0.132117 0.928229
#
# Coordination Sequence:
#
# PCOD9266579 Si02
#       5
#     4   8   8   4   8
#     4  12  26  45  59  92 148 174 204 240 328 424
#     4  12  21  43  72  97 123 157 225 283 310 358
#     4  10  20  38  65  93 128 167 209 269 311 374
#     4  12  28  43  63  98 132 182 202 248 334 396
#     4  10  19  37  68  98 119 154 227 276 312 343
#
# _framework density 23.191662000000001
#
# number of rings (size 3 to 8) (size 9 to 14) (size 15 to 20)
#    0.000    1.000    5.000    3.750    0.000    4.000 
#    0.000    2.500    0.000    0.000    0.000    0.000 
#    0.000    0.000    0.000    0.000    0.000    0.000 
#
# Total GULP energy -89088.701074 kJ/mol
# GULP energy per Si atom -5568.043817 kJ/mol
# Density = 2.313888 g / cm^3
# Si number density = 23.191662 Si / 1000 Ang^3
#
#
#
# Elastic Constant Matrix: (Units=GPa)
#
#
# Indices 1 2 3 4 5 6 
#
# 1 175.7268 53.6708 96.0936 0.0000 1.9228 0.0000
# 2 53.6708 52.4710 47.2922 0.0000 1.2809 0.0000
# 3 96.0936 47.2922 281.6302 0.0000 18.9145 0.0000
# 4 0.0000 0.0000 0.0000 38.5322 0.0000 -4.9846
# 5 1.9228 1.2809 18.9145 0.0000 35.9804 0.0000
# 6 0.0000 0.0000 0.0000 -4.9846 0.0000 -1.0341
#
#
#
# Elastic Compliance Matrix: (Units=1/GPa)
#
#
# Indices 1 2 3 4 5 6 
#
# 1 0.009005 -0.007558 -0.001855 0.000000 0.000763 0.000000
# 2 -0.007558 0.028853 -0.002306 0.000000 0.000589 0.000000
# 3 -0.001855 -0.002306 0.004725 0.000000 -0.002303 0.000000
# 4 0.000000 0.000000 0.000000 0.015985 0.000000 -0.077052
# 5 0.000763 0.000589 -0.002303 0.000000 0.028942 0.000000
# 6 0.000000 0.000000 0.000000 -0.077052 0.000000 -0.595630
#
#
# Mechanical properties :
#
#
# Convention : Reuss Voigt Hill
#
# Bulk Modulus (GPa) = 52.22903 100.43790 76.33347
# Shear Modulus (GPa) = -10.45363 35.54715 12.54676
#
# Velocity S-wave (km/s) = -2.12539 3.91929 2.32847
# Velocity P-wave (km/s) = 4.06773 7.99268 6.34150
#
# Compressibility (1/GPa) = 0.01914644
#
# Stress axis : x y z
#
# Youngs Moduli (GPa) = 111.05261 34.65902 211.62189
#
# Poissons Ratio (x) = 0.26194 0.39247
# Poissons Ratio (y) = 0.83930 0.48796
# Poissons Ratio (z) = 0.20596 0.07992
#
# Static dielectric constant tensor:
#      x y z
#    x 2.187840 0.000000 -0.086940 
#    y 0.000000 1.861380 0.000000 
#    z -0.086940 0.000000 2.028910 
# 
# From -- ./inp_files/9544.got.cif
#   From: 2010.05.17/outbox.cif.g08.bks.cpg/sg15_5_cif.got.tgz:9544.got - 2010.06.03 18:47:42.
