data_PCOD9266000
_publ_section_title
;
Structure prediction by ZEFSAII (Michael W. Deem and Ramdas Pophale) SiO2 
 PCOD9266000
Probable space group: C 2/C
;
_chemical_formula_sum "Si O2"
_cell_formula_units_Z 64
_cell_length_a 15.465494
_cell_length_b 9.638872
_cell_length_c 26.666697
_cell_angle_alpha 90.000000
_cell_angle_beta 133.868592
_cell_angle_gamma 90.000000
_cell_volume 2865.847005
_symmetry_space_group_name_H-M "C 2/C"
_symmetry_group_IT_number 15
_symmetry_cell_setting 'monoclinic'
loop_
_space_group_symop_operation_xyz
x,y,z
-x,y,1/2-z
-x,-y,-z
x,-y,1/2+z
1/2+x,1/2+y,z
1/2-x,1/2+y,1/2-z
1/2-x,1/2-y,-z
1/2+x,1/2-y,1/2+z
loop_
_atom_site_type_symbol
_atom_site_label
_atom_site_fract_x
_atom_site_fract_y
_atom_site_fract_z
Si Si1 0.234231 0.091935 0.221837
Si Si2 0.721873 0.450374 0.996153
Si Si3 0.399126 0.899704 0.155316
Si Si4 0.330877 0.194963 0.730354
Si Si5 0.148897 0.224981 0.024224
Si Si6 0.934431 0.489013 0.026395
Si Si7 0.123370 0.710106 0.314401
Si Si8 0.017463 0.203144 0.075147
O O1 0.226847 0.165466 0.272349
O O2 0.316759 0.173380 0.214935
O O3 0.105384 0.116401 0.145270
O O4 0.272498 0.933472 0.236432
O O5 0.827017 0.406396 0.075913
O O6 0.679431 0.601802 0.998287
O O7 0.793722 0.443140 0.972596
O O8 0.612220 0.351916 0.963007
O O9 0.525528 0.821148 0.204139
O O10 0.317605 0.833177 0.166119
O O11 0.415546 0.061455 0.177200
O O12 0.272021 0.263183 0.105332
O O13 0.059560 0.181638 0.034145
O O14 0.085661 0.349560 0.967912
O O15 0.015759 0.369215 0.083954
O O16 0.000000 0.500000 0.000000
O O17 0.000000 0.788694 0.250000
#
# Coordination Sequence:
#
# PCOD9266000 Si02
#       8
#     8   8   8   8   8   8   8   8
#     4  10  20  36  59  86 111 152 192 243 289 347
#     4  11  20  36  62  87 115 155 201 242 286 344
#     4   9  18  35  61  81 110 159 199 228 282 361
#     4  10  19  37  59  84 116 147 199 239 290 344
#     4   9  20  34  58  87 115 149 199 244 274 344
#     4  10  21  38  54  82 121 157 187 229 299 357
#     4   9  15  34  59  80 109 154 196 226 287 346
#     4  10  21  38  58  83 121 157 189 231 305 361
#
# _framework density 22.331966999999999
#
# number of rings (size 3 to 8) (size 9 to 14) (size 15 to 20)
#    0.000    2.250    2.500    2.625    0.000    0.000 
#    2.250   10.000    2.750    0.000    0.000    0.000 
#    0.000    0.000    0.000    0.000    0.000    0.000 
#
# Total GULP energy -178283.090861 kJ/mol
# GULP energy per Si atom -5571.346589 kJ/mol
# Density = 2.228114 g / cm^3
# Si number density = 22.331967 Si / 1000 Ang^3
#
#
#
# Elastic Constant Matrix: (Units=GPa)
#
#
# Indices 1 2 3 4 5 6 
#
# 1 119.2501 39.4653 12.1368 0.0000 9.7580 0.0000
# 2 39.4653 65.6660 6.5453 0.0000 -2.0998 0.0000
# 3 12.1368 6.5453 30.1301 0.0000 13.7736 0.0000
# 4 0.0000 0.0000 0.0000 11.4273 0.0000 1.5784
# 5 9.7580 -2.0998 13.7736 0.0000 22.2499 0.0000
# 6 0.0000 0.0000 0.0000 1.5784 0.0000 31.5954
#
#
#
# Elastic Compliance Matrix: (Units=1/GPa)
#
#
# Indices 1 2 3 4 5 6 
#
# 1 0.011114 -0.006775 -0.000676 0.000000 -0.005095 0.000000
# 2 -0.006775 0.020100 -0.005387 0.000000 0.008203 0.000000
# 3 -0.000676 -0.005387 0.048435 0.000000 -0.030196 0.000000
# 4 0.000000 0.000000 0.000000 0.088117 0.000000 -0.004402
# 5 -0.005095 0.008203 -0.030196 0.000000 0.066645 0.000000
# 6 0.000000 0.000000 0.000000 -0.004402 0.000000 0.031870
#
#
# Mechanical properties :
#
#
# Convention : Reuss Voigt Hill
#
# Bulk Modulus (GPa) = 18.52788 36.81568 27.67178
# Shear Modulus (GPa) = 16.13176 23.51445 19.82310
#
# Velocity S-wave (km/s) = 2.69059 3.24844 2.98259
# Velocity P-wave (km/s) = 4.23875 5.53094 4.92738
#
# Compressibility (1/GPa) = 0.05397271
#
# Stress axis : x y z
#
# Youngs Moduli (GPa) = 89.98042 49.75236 20.64606
#
# Poissons Ratio (x) = 0.33706 0.01395
# Poissons Ratio (y) = 0.60960 0.11123
# Poissons Ratio (z) = 0.06081 0.26803
#
# Static dielectric constant tensor:
#      x y z
#    x 1.636180 0.000000 -0.055820 
#    y 0.000000 1.878180 0.000000 
#    z -0.055820 0.000000 1.863440 
# 
# From -- ./inp_files/313161.got.cif
#   From: 2010.05.17/outbox.cif.g08.bks.cpg/sg15_157_cif.got.tgz:313161.got - 2010.06.03 18:47:42.
