data_PCOD9266816
_publ_section_title
;
Structure prediction by ZEFSAII (Michael W. Deem and Ramdas Pophale) SiO2 
 PCOD9266816
Probable space group: C 2/C
;
_chemical_formula_sum "Si O2"
_cell_formula_units_Z 56
_cell_length_a 23.908847
_cell_length_b 11.385447
_cell_length_c 18.966953
_cell_angle_alpha 90.000000
_cell_angle_beta 24.996563
_cell_angle_gamma 90.000000
_cell_volume 2181.718293
_symmetry_space_group_name_H-M "C 2/C"
_symmetry_group_IT_number 15
_symmetry_cell_setting 'monoclinic'
loop_
_space_group_symop_operation_xyz
x,y,z
-x,y,1/2-z
-x,-y,-z
x,-y,1/2+z
1/2+x,1/2+y,z
1/2-x,1/2+y,1/2-z
1/2-x,1/2-y,-z
1/2+x,1/2-y,1/2+z
loop_
_atom_site_type_symbol
_atom_site_label
_atom_site_fract_x
_atom_site_fract_y
_atom_site_fract_z
Si Si1 0.016118 0.050991 0.398732
Si Si2 0.357546 0.595097 0.380591
Si Si3 0.259945 0.814874 0.774190
Si Si4 0.109823 0.576119 0.182335
Si Si5 0.536332 0.712382 0.852753
Si Si6 0.891892 0.468392 0.178130
Si Si7 0.292436 0.272452 0.094061
O O1 0.130163 0.117520 0.218375
O O2 0.897177 0.137510 0.513762
O O3 0.031568 0.924703 0.343873
O O4 0.000000 0.000000 0.500000
O O5 0.500000 0.558473 0.250000
O O6 0.246555 0.493554 0.515060
O O7 0.325853 0.703735 0.472702
O O8 0.374889 0.740872 0.680465
O O9 0.272294 0.941586 0.797403
O O10 0.285842 0.829815 0.661018
O O11 0.117811 0.758602 0.955431
O O12 0.107817 0.710810 0.210865
O O13 0.048364 0.504537 0.316776
O O14 0.000000 0.566797 0.250000
O O15 0.846078 0.337444 0.234166
O O16 0.000000 0.500000 0.000000
#
# Coordination Sequence:
#
# PCOD9266816 Si02
#       7
#     8   8   8   8   8   8   8
#     4  11  21  38  63  91 123 172 224 272 329 395
#     4   9  22  39  62  91 129 173 219 274 332 387
#     4  11  22  40  65  98 132 174 224 272 326 392
#     4  10  23  40  59  96 136 171 210 276 349 394
#     4  11  24  38  61  97 131 171 224 271 336 399
#     4  10  21  40  65  96 133 178 219 274 328 395
#     4  10  19  38  61  90 128 171 217 273 323 387
#
# _framework density 25.667842
#
# number of rings (size 3 to 8) (size 9 to 14) (size 15 to 20)
#    0.000    1.714    2.857    1.714    4.000    3.429 
#    0.000    0.000    0.000    3.429    0.000    0.000 
#    0.000    0.000    0.000    0.000    0.000    0.000 
#
# Total GULP energy -155883.658834 kJ/mol
# GULP energy per Si atom -5567.273530 kJ/mol
# Density = 2.560942 g / cm^3
# Si number density = 25.667842 Si / 1000 Ang^3
#
#
#
# Elastic Constant Matrix: (Units=GPa)
#
#
# Indices 1 2 3 4 5 6 
#
# 1 185.5038 9.5358 39.1517 0.0000 31.6233 0.0000
# 2 9.5358 52.9966 8.9850 0.0000 4.4729 0.0000
# 3 39.1517 8.9850 125.9994 0.0000 19.0747 0.0000
# 4 0.0000 0.0000 0.0000 17.5419 0.0000 9.9475
# 5 31.6233 4.4729 19.0747 0.0000 41.6199 0.0000
# 6 0.0000 0.0000 0.0000 9.9475 0.0000 22.6955
#
#
#
# Elastic Compliance Matrix: (Units=1/GPa)
#
#
# Indices 1 2 3 4 5 6 
#
# 1 0.006416 -0.000576 -0.001315 0.000000 -0.004210 0.000000
# 2 -0.000576 0.019243 -0.001017 0.000000 -0.001164 0.000000
# 3 -0.001315 -0.001017 0.008865 0.000000 -0.002954 0.000000
# 4 0.000000 0.000000 0.000000 0.075862 0.000000 -0.033250
# 5 -0.004210 -0.001164 -0.002954 0.000000 0.028705 0.000000
# 6 0.000000 0.000000 0.000000 -0.033250 0.000000 0.058635
#
#
# Mechanical properties :
#
#
# Convention : Reuss Voigt Hill
#
# Bulk Modulus (GPa) = 34.83388 53.31611 44.07500
# Shear Modulus (GPa) = 23.46190 36.82662 30.14426
#
# Velocity S-wave (km/s) = 3.02662 3.79190 3.43067
# Velocity P-wave (km/s) = 5.08079 6.32361 5.73596
#
# Compressibility (1/GPa) = 0.02870768
#
# Stress axis : x y z
#
# Youngs Moduli (GPa) = 155.87038 51.96569 112.80375
#
# Poissons Ratio (x) = 0.02994 0.14835
# Poissons Ratio (y) = 0.08980 0.11472
# Poissons Ratio (z) = 0.20498 0.05285
#
# Static dielectric constant tensor:
#      x y z
#    x 2.262850 0.000000 -0.131940 
#    y 0.000000 3.484870 0.000000 
#    z -0.131940 0.000000 2.334910 
# 
# From -- ./inp_files/215724.got.cif
#   From: 2010.05.17/outbox.cif.g08.bks.cpg/sg15_108_cif.got.tgz:215724.got - 2010.06.03 18:47:42.
