data_PCOD9266057
_publ_section_title
;
Structure prediction by ZEFSAII (Michael W. Deem and Ramdas Pophale) SiO2 
 PCOD9266057
Probable space group: C 2/C
;
_chemical_formula_sum "Si O2"
_cell_formula_units_Z 56
_cell_length_a 9.083552
_cell_length_b 22.018965
_cell_length_c 13.831687
_cell_angle_alpha 90.000000
_cell_angle_beta 114.043846
_cell_angle_gamma 90.000000
_cell_volume 2526.444721
_symmetry_space_group_name_H-M "C 2/C"
_symmetry_group_IT_number 15
_symmetry_cell_setting 'monoclinic'
loop_
_space_group_symop_operation_xyz
x,y,z
-x,y,1/2-z
-x,-y,-z
x,-y,1/2+z
1/2+x,1/2+y,z
1/2-x,1/2+y,1/2-z
1/2-x,1/2-y,-z
1/2+x,1/2-y,1/2+z
loop_
_atom_site_type_symbol
_atom_site_label
_atom_site_fract_x
_atom_site_fract_y
_atom_site_fract_z
Si Si1 0.665985 0.069568 0.241611
Si Si2 0.500000 0.580923 0.750000
Si Si3 0.039634 0.140996 0.105859
Si Si4 0.108398 0.986432 0.936895
Si Si5 0.736973 0.692225 0.566952
Si Si6 0.659612 0.929479 0.220067
Si Si7 0.098492 0.418909 0.497714
Si Si8 0.000000 0.753834 0.750000
O O1 0.500000 0.072426 0.250000
O O2 0.783707 0.113708 0.332960
O O3 0.716236 0.998633 0.256639
O O4 0.630094 0.086180 0.120178
O O5 0.575542 0.538553 0.852839
O O6 0.667722 0.606858 0.743871
O O7 0.029994 0.199569 0.170982
O O8 0.941835 0.080841 0.114645
O O9 0.945690 0.164853 0.984513
O O10 0.294830 0.975834 0.011116
O O11 0.000000 0.000000 0.000000
O O12 0.750000 0.750000 0.500000
O O13 0.835594 0.640346 0.538310
O O14 0.841934 0.713184 0.686900
O O15 0.500000 0.918077 0.250000
O O16 0.577798 0.926777 0.092721
#
# Coordination Sequence:
#
# PCOD9266057 Si02
#       8
#     8   4   8   8   8   8   8   4
#     4  11  22  36  60  88 129 179 227 262 327 410
#     4  12  21  38  58  80 132 184 220 257 330 390
#     4  10  19  37  59  91 124 157 218 271 321 398
#     4  11  21  34  59  92 127 173 214 264 316 401
#     4   9  20  36  66  96 118 159 214 288 346 380
#     4  11  24  38  57  90 133 180 225 272 329 412
#     4  11  22  38  59  90 137 168 220 286 334 388
#     4  10  19  38  68  94 122 154 220 287 350 394
#
# _framework density 22.165535999999999
#
# number of rings (size 3 to 8) (size 9 to 14) (size 15 to 20)
#    0.000    1.429    2.857    4.286    3.000    0.000 
#    0.000    0.000    0.000    7.714    1.857    0.000 
#    0.000    0.000    0.000    0.000    0.000    0.000 
#
# Total GULP energy -155910.523614 kJ/mol
# GULP energy per Si atom -5568.232986 kJ/mol
# Density = 2.211509 g / cm^3
# Si number density = 22.165536 Si / 1000 Ang^3
#
#
#
# Elastic Constant Matrix: (Units=GPa)
#
#
# Indices 1 2 3 4 5 6 
#
# 1 134.9205 21.6051 43.0487 0.0000 18.4896 0.0000
# 2 21.6051 74.4249 27.5803 0.0000 5.0440 0.0000
# 3 43.0487 27.5803 118.0049 0.0000 20.0857 0.0000
# 4 0.0000 0.0000 0.0000 37.9796 0.0000 5.6817
# 5 18.4896 5.0440 20.0857 0.0000 44.7184 0.0000
# 6 0.0000 0.0000 0.0000 5.6817 0.0000 14.6089
#
#
#
# Elastic Compliance Matrix: (Units=1/GPa)
#
#
# Indices 1 2 3 4 5 6 
#
# 1 0.008751 -0.001474 -0.002447 0.000000 -0.002353 0.000000
# 2 -0.001474 0.014959 -0.003005 0.000000 0.000272 0.000000
# 3 -0.002447 -0.003005 0.010654 0.000000 -0.003434 0.000000
# 4 0.000000 0.000000 0.000000 0.027956 0.000000 -0.010873
# 5 -0.002353 0.000272 -0.003434 0.000000 0.024847 0.000000
# 6 0.000000 0.000000 0.000000 -0.010873 0.000000 0.072680
#
#
# Mechanical properties :
#
#
# Convention : Reuss Voigt Hill
#
# Bulk Modulus (GPa) = 48.75242 56.86872 52.81057
# Shear Modulus (GPa) = 27.69500 35.13579 31.41539
#
# Velocity S-wave (km/s) = 3.53861 3.98572 3.76880
# Velocity P-wave (km/s) = 6.22399 6.84787 6.54337
#
# Compressibility (1/GPa) = 0.02051180
#
# Stress axis : x y z
#
# Youngs Moduli (GPa) = 114.27088 66.84770 93.86175
#
# Poissons Ratio (x) = 0.09853 0.22973
# Poissons Ratio (y) = 0.16843 0.28204
# Poissons Ratio (z) = 0.27968 0.20087
#
# Static dielectric constant tensor:
#      x y z
#    x 1.929540 0.000000 0.025780 
#    y 0.000000 1.820270 0.000000 
#    z 0.025780 0.000000 1.936230 
# 
# From -- ./inp_files/138007.got.cif
#   From: 2010.05.17/outbox.cif.g08.bks.cpg/sg15_70_cif.got.tgz:138007.got - 2010.06.03 18:47:42.
