data_PCOD9266352
_publ_section_title
;
Structure prediction by ZEFSAII (Michael W. Deem and Ramdas Pophale) SiO2 
 PCOD9266352
Probable space group: C 2/C
;
_chemical_formula_sum "Si O2"
_cell_formula_units_Z 40
_cell_length_a 10.818829
_cell_length_b 13.233938
_cell_length_c 11.091555
_cell_angle_alpha 90.000000
_cell_angle_beta 92.451987
_cell_angle_gamma 90.000000
_cell_volume 1586.587313
_symmetry_space_group_name_H-M "C 2/C"
_symmetry_group_IT_number 15
_symmetry_cell_setting 'monoclinic'
loop_
_space_group_symop_operation_xyz
x,y,z
-x,y,1/2-z
-x,-y,-z
x,-y,1/2+z
1/2+x,1/2+y,z
1/2-x,1/2+y,1/2-z
1/2-x,1/2-y,-z
1/2+x,1/2-y,1/2+z
loop_
_atom_site_type_symbol
_atom_site_label
_atom_site_fract_x
_atom_site_fract_y
_atom_site_fract_z
Si Si1 0.906979 0.111662 0.855123
Si Si2 0.392587 0.216307 0.520956
Si Si3 0.156572 0.318885 0.214558
Si Si4 0.616160 0.041783 0.164363
Si Si5 0.131803 0.100443 0.184255
O O1 0.955671 0.188569 0.957715
O O2 0.790058 0.159426 0.781301
O O3 0.000000 0.099504 0.750000
O O4 0.874419 0.998931 0.900794
O O5 0.250000 0.250000 0.500000
O O6 0.417607 0.198840 0.661841
O O7 0.408020 0.112570 0.450309
O O8 0.127892 0.422081 0.143788
O O9 0.158600 0.214181 0.142620
O O10 0.500000 0.056381 0.250000
O O11 0.748513 0.076338 0.226015
O O12 0.000000 0.103644 0.250000
#
# Coordination Sequence:
#
# PCOD9266352 Si02
#       5
#     8   8   8   8   8
#     4   9  18  34  59  85 118 162 203 241 298 364
#     4  10  19  37  63  90 119 165 206 240 310 373
#     4  10  21  37  63  88 124 160 206 252 306 359
#     4  11  22  38  65  93 121 162 205 254 302 362
#     4  10  20  37  60  87 123 163 200 246 308 352
#
# _framework density 25.211344
#
# number of rings (size 3 to 8) (size 9 to 14) (size 15 to 20)
#    0.000    2.000    4.000    1.200    0.000    0.800 
#    0.000    4.000    4.400   14.400    0.000    0.000 
#    0.000    0.000    0.000    0.000    0.000    0.000 
#
# Total GULP energy -111757.917883 kJ/mol
# GULP energy per Si atom -5587.895894 kJ/mol
# Density = 2.515396 g / cm^3
# Si number density = 25.211344 Si / 1000 Ang^3
#
#
#
# Elastic Constant Matrix: (Units=GPa)
#
#
# Indices 1 2 3 4 5 6 
#
# 1 112.2720 47.6988 27.0130 0.0000 18.0189 0.0000
# 2 47.6988 285.9067 75.2516 0.0000 20.3907 0.0000
# 3 27.0130 75.2516 84.8418 0.0000 27.2222 0.0000
# 4 0.0000 0.0000 0.0000 -0.0377 0.0000 -18.9194
# 5 18.0189 20.3907 27.2222 0.0000 35.2603 0.0000
# 6 0.0000 0.0000 0.0000 -18.9194 0.0000 27.3015
#
#
#
# Elastic Compliance Matrix: (Units=1/GPa)
#
#
# Indices 1 2 3 4 5 6 
#
# 1 0.010256 -0.001176 -0.001009 0.000000 -0.003782 0.000000
# 2 -0.001176 0.004709 -0.004149 0.000000 0.001081 0.000000
# 3 -0.001009 -0.004149 0.019743 0.000000 -0.012328 0.000000
# 4 0.000000 0.000000 0.000000 -0.076055 0.000000 -0.052704
# 5 -0.003782 0.001081 -0.012328 0.000000 0.039185 0.000000
# 6 0.000000 0.000000 0.000000 -0.052704 0.000000 0.000105
#
#
# Mechanical properties :
#
#
# Convention : Reuss Voigt Hill
#
# Bulk Modulus (GPa) = 45.37077 86.99416 66.18246
# Shear Modulus (GPa) = 278.41555 34.70862 156.56208
#
# Velocity S-wave (km/s) = 10.52009 3.71442 7.88890
# Velocity P-wave (km/s) = 12.86851 7.27852 10.45407
#
# Compressibility (1/GPa) = 0.02204062
#
# Stress axis : x y z
#
# Youngs Moduli (GPa) = 97.50134 212.37182 50.65014
#
# Poissons Ratio (x) = 0.24969 0.05111
# Poissons Ratio (y) = 0.11464 0.21014
# Poissons Ratio (z) = 0.09839 0.88112
#
# Static dielectric constant tensor:
#      x y z
#    x 2.138170 0.000000 -0.085160 
#    y 0.000000 2.116230 0.000000 
#    z -0.085160 0.000000 2.170490 
# 
# From -- ./inp_files/141745.got.cif
#   From: 2010.05.17/outbox.cif.g08.bks.cpg/sg15_71_cif.got.tgz:141745.got - 2010.06.03 18:47:42.
