data_PCOD9266377
_publ_section_title
;
Structure prediction by ZEFSAII (Michael W. Deem and Ramdas Pophale) SiO2 
 PCOD9266377
Probable space group: C 2/C
;
_chemical_formula_sum "Si O2"
_cell_formula_units_Z 52
_cell_length_a 8.278280
_cell_length_b 15.895780
_cell_length_c 16.185375
_cell_angle_alpha 90.000000
_cell_angle_beta 76.538877
_cell_angle_gamma 90.000000
_cell_volume 2071.318472
_symmetry_space_group_name_H-M "C 2/C"
_symmetry_group_IT_number 15
_symmetry_cell_setting 'monoclinic'
loop_
_space_group_symop_operation_xyz
x,y,z
-x,y,1/2-z
-x,-y,-z
x,-y,1/2+z
1/2+x,1/2+y,z
1/2-x,1/2+y,1/2-z
1/2-x,1/2-y,-z
1/2+x,1/2-y,1/2+z
loop_
_atom_site_type_symbol
_atom_site_label
_atom_site_fract_x
_atom_site_fract_y
_atom_site_fract_z
Si Si1 0.154809 0.126008 0.018373
Si Si2 0.094150 0.940711 0.826790
Si Si3 0.058605 0.600968 0.391966
Si Si4 0.605790 0.058104 0.657741
Si Si5 0.500000 0.227429 0.250000
Si Si6 0.914601 0.284578 0.023063
Si Si7 0.348246 0.752555 0.207683
O O1 0.282769 0.103726 0.928361
O O2 0.266959 0.130396 0.089102
O O3 0.016357 0.062739 0.075190
O O4 0.057677 0.211610 0.003014
O O5 0.169074 0.846374 0.813222
O O6 0.000000 0.955564 0.750000
O O7 0.246370 0.003327 0.818409
O O8 0.006371 0.666142 0.327615
O O9 0.023629 0.507319 0.368532
O O10 0.937418 0.625290 0.479849
O O11 0.500000 0.093114 0.750000
O O12 0.663274 0.282335 0.248166
O O13 0.898764 0.301000 0.120786
O O14 0.750000 0.250000 0.000000
O O15 0.500000 0.748301 0.250000
#
# Coordination Sequence:
#
# PCOD9266377 Si02
#       7
#     8   8   8   8   4   8   8
#     4  11  25  40  66 103 138 183 230 301 372 434
#     4  10  19  37  63  94 130 174 234 288 347 429
#     4  12  22  40  69  96 132 179 237 293 360 443
#     4  12  23  43  69 100 140 183 241 300 366 441
#     4  12  18  36  66  96 124 178 234 292 354 440
#     4  11  22  43  65  98 137 178 231 291 358 441
#     4  10  20  36  62  98 133 174 231 289 359 433
#
# _framework density 25.104783000000001
#
# number of rings (size 3 to 8) (size 9 to 14) (size 15 to 20)
#    0.000    0.923    3.846    6.000    0.000    0.000 
#    0.000    2.308    1.692    2.769    0.000    0.000 
#    0.000    0.000    0.000    0.000    0.000    0.000 
#
# Total GULP energy -145017.512538 kJ/mol
# GULP energy per Si atom -5577.596636 kJ/mol
# Density = 2.504764 g / cm^3
# Si number density = 25.104783 Si / 1000 Ang^3
#
#
#
# Elastic Constant Matrix: (Units=GPa)
#
#
# Indices 1 2 3 4 5 6 
#
# 1 159.2015 21.5450 63.0913 0.0000 -5.9584 0.0000
# 2 21.5450 55.6774 36.4168 0.0000 -6.9664 0.0000
# 3 63.0913 36.4168 166.1474 0.0000 -0.6856 0.0000
# 4 0.0000 0.0000 0.0000 90.9840 0.0000 10.7146
# 5 -5.9584 -6.9664 -0.6856 0.0000 44.6647 0.0000
# 6 0.0000 0.0000 0.0000 10.7146 0.0000 9.9525
#
#
#
# Elastic Compliance Matrix: (Units=1/GPa)
#
#
# Indices 1 2 3 4 5 6 
#
# 1 0.007490 -0.001099 -0.002600 0.000000 0.000788 0.000000
# 2 -0.001099 0.021595 -0.004303 0.000000 0.003156 0.000000
# 3 -0.002600 -0.004303 0.007945 0.000000 -0.000896 0.000000
# 4 0.000000 0.000000 0.000000 0.012587 0.000000 -0.013550
# 5 0.000788 0.003156 -0.000896 0.000000 0.022973 0.000000
# 6 0.000000 0.000000 0.000000 -0.013550 0.000000 0.115065
#
#
# Mechanical properties :
#
#
# Convention : Reuss Voigt Hill
#
# Bulk Modulus (GPa) = 47.55916 69.23696 58.39806
# Shear Modulus (GPa) = 23.73409 46.45180 35.09295
#
# Velocity S-wave (km/s) = 3.07807 4.30620 3.74285
# Velocity P-wave (km/s) = 5.62300 7.23626 6.48003
#
# Compressibility (1/GPa) = 0.02102644
#
# Stress axis : x y z
#
# Youngs Moduli (GPa) = 133.51200 46.30672 125.85772
#
# Poissons Ratio (x) = 0.05090 0.32723
# Poissons Ratio (y) = 0.14675 0.54155
# Poissons Ratio (z) = 0.34713 0.19925
#
# Static dielectric constant tensor:
#      x y z
#    x 2.184650 0.000000 -0.009990 
#    y 0.000000 2.013390 0.000000 
#    z -0.009990 0.000000 2.154200 
# 
# From -- ./inp_files/135985.got.cif
#   From: 2010.05.17/outbox.cif.g08.bks.cpg/sg15_68_cif.got.tgz:135985.got - 2010.06.03 18:47:42.
