data_PCOD9266621
_publ_section_title
;
Structure prediction by ZEFSAII (Michael W. Deem and Ramdas Pophale) SiO2 
 PCOD9266621
Probable space group: C 2/C
;
_chemical_formula_sum "Si O2"
_cell_formula_units_Z 36
_cell_length_a 15.253759
_cell_length_b 15.251676
_cell_length_c 13.678030
_cell_angle_alpha 90.000000
_cell_angle_beta 145.166590
_cell_angle_gamma 90.000000
_cell_volume 1817.608493
_symmetry_space_group_name_H-M "C 2/C"
_symmetry_group_IT_number 15
_symmetry_cell_setting 'monoclinic'
loop_
_space_group_symop_operation_xyz
x,y,z
-x,y,1/2-z
-x,-y,-z
x,-y,1/2+z
1/2+x,1/2+y,z
1/2-x,1/2+y,1/2-z
1/2-x,1/2-y,-z
1/2+x,1/2-y,1/2+z
loop_
_atom_site_type_symbol
_atom_site_label
_atom_site_fract_x
_atom_site_fract_y
_atom_site_fract_z
Si Si1 0.820226 0.652847 0.060136
Si Si2 0.747598 0.371521 0.923010
Si Si3 0.500000 0.754425 0.250000
Si Si4 0.205105 0.035817 0.778638
Si Si5 0.154558 0.998304 0.015159
O O1 0.741141 0.587834 0.066411
O O2 0.000000 0.655534 0.250000
O O3 0.750000 0.750000 0.000000
O O4 0.781247 0.607852 0.918947
O O5 0.891271 0.314068 0.085091
O O6 0.696112 0.430782 0.967899
O O7 0.606019 0.306019 0.778238
O O8 0.780502 0.441118 0.869388
O O9 0.025854 0.021871 0.644385
O O10 0.205085 0.046557 0.662692
#
# Coordination Sequence:
#
# PCOD9266621 Si02
#       5
#     8   8   4   8   8
#     4  11  23  42  63  87 119 161 204 250 295 358
#     4  10  19  38  55  85 115 154 181 241 284 345
#     4  10  20  34  58  80 118 148 192 224 296 338
#     4  10  21  40  62  86 119 156 195 242 303 349
#     4  10  21  40  62  86 119 156 195 242 303 349
#
# _framework density 19.806245000000001
#
# number of rings (size 3 to 8) (size 9 to 14) (size 15 to 20)
#    0.000    1.778    2.222    3.333    6.222    0.889 
#    8.000    0.000    0.000    0.000    0.000    0.000 
#    0.000    0.000    0.000    0.000    0.000    0.000 
#
# Total GULP energy -100495.973580 kJ/mol
# GULP energy per Si atom -5583.109643 kJ/mol
# Density = 1.976116 g / cm^3
# Si number density = 19.806245 Si / 1000 Ang^3
#
#
#
# Elastic Constant Matrix: (Units=GPa)
#
#
# Indices 1 2 3 4 5 6 
#
# 1 42.5387 23.0726 32.2638 0.0000 -16.2704 0.0000
# 2 23.0726 117.1076 61.6861 0.0000 19.0118 0.0000
# 3 32.2638 61.6861 126.1628 -0.0001 -2.7509 -0.0001
# 4 0.0000 0.0000 -0.0001 13.8422 -0.0001 7.7199
# 5 -16.2704 19.0118 -2.7509 -0.0001 29.1523 0.0000
# 6 0.0000 0.0000 -0.0001 7.7199 0.0000 10.7600
#
#
#
# Elastic Compliance Matrix: (Units=1/GPa)
#
#
# Indices 1 2 3 4 5 6 
#
# 1 0.046714 -0.011688 -0.005508 0.000000 0.033174 0.000000
# 2 -0.011688 0.016679 -0.005557 0.000000 -0.017925 0.000000
# 3 -0.005508 -0.005557 0.012089 0.000000 0.001691 0.000000
# 4 0.000000 0.000000 0.000000 0.120432 0.000001 -0.086406
# 5 0.033174 -0.017925 0.001691 0.000001 0.064667 0.000000
# 6 0.000000 0.000000 0.000000 -0.086406 0.000000 0.154930
#
#
# Mechanical properties :
#
#
# Convention : Reuss Voigt Hill
#
# Bulk Modulus (GPa) = 33.36049 57.76156 45.56103
# Shear Modulus (GPa) = 10.61552 22.00334 16.30943
#
# Velocity S-wave (km/s) = 2.31761 3.33668 2.87269
# Velocity P-wave (km/s) = 4.90324 6.63861 5.83579
#
# Compressibility (1/GPa) = 0.02997558
#
# Stress axis : x y z
#
# Youngs Moduli (GPa) = 21.40701 59.95558 82.72150
#
# Poissons Ratio (x) = 0.70075 0.45564
# Poissons Ratio (y) = 0.25020 0.45968
# Poissons Ratio (z) = 0.11791 0.33317
#
# Static dielectric constant tensor:
#      x y z
#    x 1.629610 0.000000 -0.029630 
#    y 0.000000 1.706670 0.000000 
#    z -0.029630 0.000000 1.693780 
# 
# From -- ./inp_files/37668.got.cif
#   From: 2010.05.17/outbox.cif.g08.bks.cpg/sg15_19_cif.got.tgz:37668.got - 2010.06.03 18:47:42.
