data_PCOD9266946
_publ_section_title
;
Structure prediction by ZEFSAII (Michael W. Deem and Ramdas Pophale) SiO2 
 PCOD9266946
Probable space group: C 2/C
;
_chemical_formula_sum "Si O2"
_cell_formula_units_Z 56
_cell_length_a 18.052462
_cell_length_b 8.499142
_cell_length_c 18.151746
_cell_angle_alpha 90.000000
_cell_angle_beta 53.479647
_cell_angle_gamma 90.000000
_cell_volume 2238.177135
_symmetry_space_group_name_H-M "C 2/C"
_symmetry_group_IT_number 15
_symmetry_cell_setting 'monoclinic'
loop_
_space_group_symop_operation_xyz
x,y,z
-x,y,1/2-z
-x,-y,-z
x,-y,1/2+z
1/2+x,1/2+y,z
1/2-x,1/2+y,1/2-z
1/2-x,1/2-y,-z
1/2+x,1/2-y,1/2+z
loop_
_atom_site_type_symbol
_atom_site_label
_atom_site_fract_x
_atom_site_fract_y
_atom_site_fract_z
Si Si1 0.359811 0.396372 0.171399
Si Si2 0.159463 0.841432 0.581921
Si Si3 0.935985 0.370993 0.466581
Si Si4 0.827637 0.655560 0.781605
Si Si5 0.043289 0.378567 0.802643
Si Si6 0.603140 0.715678 0.415498
Si Si7 0.741614 0.068959 0.888651
O O1 0.281737 0.333327 0.162090
O O2 0.428157 0.271800 0.166988
O O3 0.406560 0.533892 0.096973
O O4 0.298474 0.452031 0.278990
O O5 0.250000 0.750000 0.500000
O O6 0.084893 0.789488 0.566755
O O7 0.134782 0.757152 0.673415
O O8 0.190116 0.017616 0.585584
O O9 0.844902 0.449342 0.554341
O O10 0.976980 0.498459 0.384485
O O11 0.010665 0.315759 0.482153
O O12 0.863186 0.477699 0.768154
O O13 0.865773 0.716321 0.682105
O O14 0.000000 0.333742 0.750000
O O15 0.687525 0.764792 0.418879
#
# Coordination Sequence:
#
# PCOD9266946 Si02
#       7
#     8   8   8   8   8   8   8
#     4  11  23  39  66  94 126 173 222 270 326 398
#     4  10  20  36  64  95 122 165 220 270 332 400
#     4  10  22  40  65  92 130 167 213 270 346 385
#     4  10  19  38  63  90 121 167 223 264 323 399
#     4  11  23  40  65  97 133 175 219 280 333 396
#     4  10  21  37  63  93 121 163 215 275 324 391
#     4  10  21  40  65  95 121 171 222 271 326 401
#
# _framework density 25.02036
#
# number of rings (size 3 to 8) (size 9 to 14) (size 15 to 20)
#    0.000    1.714    2.857    2.143    4.000    1.143 
#    0.000    1.429    9.429    0.000    0.000    0.000 
#    0.000    0.000    0.000    0.000    0.000    0.000 
#
# Total GULP energy -156516.228513 kJ/mol
# GULP energy per Si atom -5589.865304 kJ/mol
# Density = 2.496341 g / cm^3
# Si number density = 25.020360 Si / 1000 Ang^3
#
#
#
# Elastic Constant Matrix: (Units=GPa)
#
#
# Indices 1 2 3 4 5 6 
#
# 1 102.8322 66.1491 32.2498 0.0001 8.3642 -0.0001
# 2 66.1491 125.6040 33.1454 0.0001 1.1283 -0.0001
# 3 32.2498 33.1454 97.8162 0.0000 -3.6508 0.0000
# 4 0.0001 0.0001 0.0000 33.0499 0.0000 9.1963
# 5 8.3642 1.1283 -3.6508 0.0000 27.2021 0.0000
# 6 -0.0001 -0.0001 0.0000 9.1963 0.0000 48.8274
#
#
#
# Elastic Compliance Matrix: (Units=1/GPa)
#
#
# Indices 1 2 3 4 5 6 
#
# 1 0.015896 -0.007572 -0.002860 0.000000 -0.004957 0.000000
# 2 -0.007572 0.012366 -0.001634 0.000000 0.001596 0.000000
# 3 -0.002860 -0.001634 0.011814 0.000000 0.002533 0.000000
# 4 0.000000 0.000000 0.000000 0.031931 0.000000 -0.006014
# 5 -0.004957 0.001596 0.002533 0.000000 0.038560 0.000000
# 6 0.000000 0.000000 0.000000 -0.006014 0.000000 0.021613
#
#
# Mechanical properties :
#
#
# Convention : Reuss Voigt Hill
#
# Bulk Modulus (GPa) = 62.72069 65.48234 64.10152
# Shear Modulus (GPa) = 30.93529 34.79640 32.86585
#
# Velocity S-wave (km/s) = 3.52007 3.73329 3.62824
# Velocity P-wave (km/s) = 6.45317 6.69415 6.57477
#
# Compressibility (1/GPa) = 0.01594370
#
# Stress axis : x y z
#
# Youngs Moduli (GPa) = 62.90997 80.86458 84.64187
#
# Poissons Ratio (x) = 0.61232 0.24207
# Poissons Ratio (y) = 0.47637 0.13833
# Poissons Ratio (z) = 0.17992 0.13215
#
# Static dielectric constant tensor:
#      x y z
#    x 2.000770 0.000000 -0.066380 
#    y 0.000000 2.038180 0.000000 
#    z -0.066380 0.000000 2.006510 
# 
# From -- ./inp_files/247365.got.cif
#   From: 2010.05.17/outbox.cif.g08.bks.cpg/sg15_124_cif.got.tgz:247365.got - 2010.06.03 18:47:42.
