data_PCOD9266331
_publ_section_title
;
Structure prediction by ZEFSAII (Michael W. Deem and Ramdas Pophale) SiO2 
 PCOD9266331
Probable space group: C 2/C
;
_chemical_formula_sum "Si O2"
_cell_formula_units_Z 56
_cell_length_a 29.169879
_cell_length_b 17.477119
_cell_length_c 9.215005
_cell_angle_alpha 90.000000
_cell_angle_beta 34.501123
_cell_angle_gamma 90.000000
_cell_volume 2660.972940
_symmetry_space_group_name_H-M "C 2/C"
_symmetry_group_IT_number 15
_symmetry_cell_setting 'monoclinic'
loop_
_space_group_symop_operation_xyz
x,y,z
-x,y,1/2-z
-x,-y,-z
x,-y,1/2+z
1/2+x,1/2+y,z
1/2-x,1/2+y,1/2-z
1/2-x,1/2-y,-z
1/2+x,1/2-y,1/2+z
loop_
_atom_site_type_symbol
_atom_site_label
_atom_site_fract_x
_atom_site_fract_y
_atom_site_fract_z
Si Si1 0.421320 0.570173 0.853577
Si Si2 0.685631 0.285408 0.858746
Si Si3 0.337851 0.462199 0.296908
Si Si4 0.911875 0.373362 0.414061
Si Si5 0.151462 0.337514 0.204639
Si Si6 0.283967 0.152684 0.494911
Si Si7 0.175968 0.468321 0.360772
O O1 0.500000 0.573876 0.750000
O O2 0.414489 0.541270 0.705364
O O3 0.384356 0.654544 0.930597
O O4 0.361928 0.514621 0.099481
O O5 0.761836 0.334176 0.602413
O O6 0.655225 0.231060 0.808439
O O7 0.714241 0.229418 0.913610
O O8 0.301827 0.380036 0.339540
O O9 0.262484 0.500512 0.578767
O O10 0.911181 0.330183 0.262258
O O11 0.847336 0.341020 0.698298
O O12 0.880547 0.459304 0.464463
O O13 0.000000 0.373642 0.250000
O O14 0.142128 0.414391 0.321280
O O15 0.313346 0.084559 0.526141
#
# Coordination Sequence:
#
# PCOD9266331 Si02
#       7
#     8   8   8   8   8   8   8
#     4  12  25  40  63  93 131 167 201 264 326 377
#     4  10  22  42  63  91 119 162 218 251 309 378
#     4  11  21  41  64  92 123 158 221 258 304 375
#     4  11  23  36  56  92 128 158 199 254 317 371
#     4  10  21  38  62  85 118 162 205 258 302 366
#     4  10  22  38  67  91 119 166 212 260 304 363
#     4  10  19  37  63  88 115 160 209 262 302 355
#
# _framework density 21.044934000000001
#
# number of rings (size 3 to 8) (size 9 to 14) (size 15 to 20)
#    0.000    1.429    2.857    3.857    0.000    5.714 
#    0.000    2.857    0.000    1.714    0.000    0.000 
#    0.000    0.000    0.000    0.000    0.000    0.000 
#
# Total GULP energy -156422.780734 kJ/mol
# GULP energy per Si atom -5586.527883 kJ/mol
# Density = 2.099704 g / cm^3
# Si number density = 21.044934 Si / 1000 Ang^3
#
#
#
# Elastic Constant Matrix: (Units=GPa)
#
#
# Indices 1 2 3 4 5 6 
#
# 1 172.8881 44.9770 29.7851 0.0000 9.2953 0.0000
# 2 44.9770 59.2783 23.3799 0.0000 0.4602 0.0000
# 3 29.7851 23.3799 20.2841 0.0000 5.9155 0.0000
# 4 0.0000 0.0000 0.0000 7.8474 0.0000 -0.3706
# 5 9.2953 0.4602 5.9155 0.0000 33.0552 0.0000
# 6 0.0000 0.0000 0.0000 -0.3706 0.0000 21.5682
#
#
#
# Elastic Compliance Matrix: (Units=1/GPa)
#
#
# Indices 1 2 3 4 5 6 
#
# 1 0.007974 -0.002767 -0.008311 0.000000 -0.000716 0.000000
# 2 -0.002767 0.033177 -0.036157 0.000000 0.006787 0.000000
# 3 -0.008311 -0.036157 0.107987 0.000000 -0.016484 0.000000
# 4 0.000000 0.000000 0.000000 0.127533 0.000000 0.002191
# 5 -0.000716 0.006787 -0.016484 0.000000 0.033309 0.000000
# 6 0.000000 0.000000 0.000000 0.002191 0.000000 0.046402
#
#
# Mechanical properties :
#
#
# Convention : Reuss Voigt Hill
#
# Bulk Modulus (GPa) = 18.29231 49.85940 34.07585
# Shear Modulus (GPa) = 10.65928 22.78139 16.72034
#
# Velocity S-wave (km/s) = 2.25300 3.29372 2.82176
# Velocity P-wave (km/s) = 3.93432 6.18127 5.18107
#
# Compressibility (1/GPa) = 0.05466779
#
# Stress axis : x y z
#
# Youngs Moduli (GPa) = 125.40326 30.14170 9.26041
#
# Poissons Ratio (x) = 0.08339 0.07697
# Poissons Ratio (y) = 0.34696 0.33483
# Poissons Ratio (z) = 1.04228 1.08982
#
# Static dielectric constant tensor:
#      x y z
#    x 1.791670 0.000000 0.008340 
#    y 0.000000 1.737490 0.000000 
#    z 0.008340 0.000000 1.727120 
# 
# From -- ./inp_files/67129.got.cif
#   From: 2010.05.17/outbox.cif.g08.bks.cpg/sg15_34_cif.got.tgz:67129.got - 2010.06.03 18:47:42.
