data_PCOD9266707
_publ_section_title
;
Structure prediction by ZEFSAII (Michael W. Deem and Ramdas Pophale) SiO2 
 PCOD9266707
Probable space group: C 2/C
;
_chemical_formula_sum "Si O2"
_cell_formula_units_Z 56
_cell_length_a 25.470631
_cell_length_b 9.302885
_cell_length_c 17.692346
_cell_angle_alpha 90.000000
_cell_angle_beta 45.443093
_cell_angle_gamma 90.000000
_cell_volume 2987.174057
_symmetry_space_group_name_H-M "C 2/C"
_symmetry_group_IT_number 15
_symmetry_cell_setting 'monoclinic'
loop_
_space_group_symop_operation_xyz
x,y,z
-x,y,1/2-z
-x,-y,-z
x,-y,1/2+z
1/2+x,1/2+y,z
1/2-x,1/2+y,1/2-z
1/2-x,1/2-y,-z
1/2+x,1/2-y,1/2+z
loop_
_atom_site_type_symbol
_atom_site_label
_atom_site_fract_x
_atom_site_fract_y
_atom_site_fract_z
Si Si1 0.383858 0.075007 0.530767
Si Si2 0.852932 0.215605 0.199914
Si Si3 0.527486 0.826772 0.804888
Si Si4 0.379864 0.411554 0.214618
Si Si5 0.807522 0.338990 0.699313
Si Si6 0.254507 0.903084 0.037695
Si Si7 0.170894 0.521092 0.674621
O O1 0.378656 0.194884 0.601274
O O2 0.462583 0.088639 0.412389
O O3 0.319370 0.099644 0.534501
O O4 0.366800 0.924778 0.589509
O O5 0.768388 0.171858 0.268628
O O6 0.851580 0.323508 0.272115
O O7 0.897523 0.069957 0.168060
O O8 0.500000 0.784840 0.750000
O O9 0.553282 0.687093 0.825065
O O10 0.598628 0.929054 0.726375
O O11 0.336752 0.315793 0.195851
O O12 0.321929 0.428764 0.342194
O O13 0.795777 0.433603 0.787302
O O14 0.250000 0.750000 0.000000
O O15 0.275622 0.016279 0.951135
#
# Coordination Sequence:
#
# PCOD9266707 Si02
#       7
#     8   8   8   8   8   8   8
#     4  11  22  37  65  83 121 159 203 243 301 360
#     4  11  21  38  58  93 122 151 196 260 303 346
#     4  11  22  41  60  86 118 167 204 239 296 372
#     4  11  22  36  63  88 125 152 202 248 301 355
#     4  10  19  38  59  88 115 155 198 246 290 358
#     4  12  18  36  62  92 112 160 204 250 290 346
#     4  10  22  35  63  88 120 157 202 246 296 357
#
# _framework density 18.746815999999999
#
# number of rings (size 3 to 8) (size 9 to 14) (size 15 to 20)
#    0.000    1.143    7.143    0.857    0.000    6.286 
#    0.000    0.714    0.000    0.000    0.000    0.000 
#    0.000    0.000    0.000    0.000    0.000    0.000 
#
# Total GULP energy -156414.961578 kJ/mol
# GULP energy per Si atom -5586.248628 kJ/mol
# Density = 1.870415 g / cm^3
# Si number density = 18.746816 Si / 1000 Ang^3
#
#
#
# Elastic Constant Matrix: (Units=GPa)
#
#
# Indices 1 2 3 4 5 6 
#
# 1 68.0283 17.0827 -3.8689 0.0009 8.5926 -0.0005
# 2 17.0827 91.4717 -3.4397 0.0032 12.8229 -0.0018
# 3 -3.8689 -3.4397 61.3472 0.0035 12.1192 -0.0017
# 4 0.0009 0.0032 0.0035 19.3770 -0.0021 7.6525
# 5 8.5926 12.8229 12.1192 -0.0021 25.9247 0.0012
# 6 -0.0005 -0.0018 -0.0017 7.6525 0.0012 6.4377
#
#
#
# Elastic Compliance Matrix: (Units=1/GPa)
#
#
# Indices 1 2 3 4 5 6 
#
# 1 0.016005 -0.002203 0.001893 -0.000004 -0.005100 0.000007
# 2 -0.002203 0.012275 0.001768 -0.000009 -0.006168 0.000016
# 3 0.001893 0.001768 0.018527 -0.000015 -0.010163 0.000025
# 4 -0.000004 -0.000009 -0.000015 0.097272 0.000026 -0.115628
# 5 -0.005100 -0.006168 -0.010163 0.000026 0.048065 -0.000045
# 6 0.000007 0.000016 0.000025 -0.115628 -0.000045 0.292784
#
#
# Mechanical properties :
#
#
# Convention : Reuss Voigt Hill
#
# Bulk Modulus (GPa) = 20.11132 26.71057 23.41095
# Shear Modulus (GPa) = 10.02836 24.41941 17.22389
#
# Velocity S-wave (km/s) = 2.31538 3.61306 3.03440
# Velocity P-wave (km/s) = 4.23074 5.62890 4.97914
#
# Compressibility (1/GPa) = 0.04972323
#
# Stress axis : x y z
#
# Youngs Moduli (GPa) = 62.48127 81.46780 53.97568
#
# Poissons Ratio (x) = 0.17945 -0.10220
# Poissons Ratio (y) = 0.13763 -0.09542
# Poissons Ratio (z) = -0.11830 -0.14401
#
# Static dielectric constant tensor:
#      x y z
#    x 1.640800 0.000000 0.009870 
#    y 0.000000 1.652650 0.000000 
#    z 0.009870 0.000000 1.654500 
# 
# From -- ./inp_files/218499.got.cif
#   From: 2010.05.17/outbox.cif.g08.bks.cpg/sg15_110_cif.got.tgz:218499.got - 2010.06.03 18:47:42.
