data_PCOD9266611
_publ_section_title
;
Structure prediction by ZEFSAII (Michael W. Deem and Ramdas Pophale) SiO2 
 PCOD9266611
Probable space group: C 2/C
;
_chemical_formula_sum "Si O2"
_cell_formula_units_Z 52
_cell_length_a 5.428128
_cell_length_b 26.846181
_cell_length_c 20.277455
_cell_angle_alpha 90.000000
_cell_angle_beta 116.649053
_cell_angle_gamma 90.000000
_cell_volume 2641.022424
_symmetry_space_group_name_H-M "C 2/C"
_symmetry_group_IT_number 15
_symmetry_cell_setting 'monoclinic'
loop_
_space_group_symop_operation_xyz
x,y,z
-x,y,1/2-z
-x,-y,-z
x,-y,1/2+z
1/2+x,1/2+y,z
1/2-x,1/2+y,1/2-z
1/2-x,1/2-y,-z
1/2+x,1/2-y,1/2+z
loop_
_atom_site_type_symbol
_atom_site_label
_atom_site_fract_x
_atom_site_fract_y
_atom_site_fract_z
Si Si1 0.502741 0.500858 0.891716
Si Si2 0.332420 0.231457 0.405216
Si Si3 0.000000 0.531889 0.750000
Si Si4 0.000000 0.846264 0.250000
Si Si5 0.567986 0.687491 0.034074
Si Si6 0.877737 0.081179 0.992192
Si Si7 0.169426 0.419162 0.136660
Si Si8 0.000000 0.283055 0.250000
O O1 0.248092 0.499546 0.810341
O O2 0.435938 0.541249 0.941177
O O3 0.747599 0.527432 0.882385
O O4 0.587055 0.449902 0.936522
O O5 0.432064 0.279231 0.459915
O O6 0.617014 0.204680 0.419372
O O7 0.128570 0.198683 0.426675
O O8 0.165036 0.250324 0.322435
O O9 0.084710 0.567933 0.700778
O O10 0.914620 0.880302 0.176738
O O11 0.731092 0.815093 0.238593
O O12 0.565426 0.629487 0.015440
O O13 0.571897 0.100548 0.938447
#
# Coordination Sequence:
#
# PCOD9266611 Si02
#       8
#     8   8   4   4   8   8   8   4
#     4  10  21  38  58  90 129 167 206 271 305 379
#     4  10  23  42  65  90 127 160 207 270 319 373
#     4  10  19  38  54  83 128 172 207 258 321 362
#     4  12  24  34  66  98 128 165 207 260 342 382
#     4  10  22  42  65  91 123 169 209 257 318 381
#     4  10  23  37  61  91 123 167 224 251 316 377
#     4  11  21  35  59  89 132 163 207 268 314 381
#     4  12  25  42  64 101 126 161 210 274 333 386
#
# _framework density 19.689346
#
# number of rings (size 3 to 8) (size 9 to 14) (size 15 to 20)
#    0.000    1.538    1.538    2.769    6.462    1.231 
#    0.000    1.538    0.000    0.000    0.000    0.000 
#    0.000    0.000    0.000    0.000    0.000    0.000 
#
# Total GULP energy -145168.086508 kJ/mol
# GULP energy per Si atom -5583.387943 kJ/mol
# Density = 1.964453 g / cm^3
# Si number density = 19.689346 Si / 1000 Ang^3
#
#
#
# Elastic Constant Matrix: (Units=GPa)
#
#
# Indices 1 2 3 4 5 6 
#
# 1 93.1384 26.9797 37.0399 0.0000 15.0305 0.0000
# 2 26.9797 79.0214 46.5876 0.0000 20.2261 0.0000
# 3 37.0399 46.5876 123.1179 0.0000 27.2474 0.0000
# 4 0.0000 0.0000 0.0000 -39.8967 0.0000 -8.7944
# 5 15.0305 20.2261 27.2474 0.0000 27.7813 0.0000
# 6 0.0000 0.0000 0.0000 -8.7944 0.0000 13.8733
#
#
#
# Elastic Compliance Matrix: (Units=1/GPa)
#
#
# Indices 1 2 3 4 5 6 
#
# 1 0.012797 -0.002216 -0.002345 0.000000 -0.003010 0.000000
# 2 -0.002216 0.017967 -0.004473 0.000000 -0.007494 0.000000
# 3 -0.002345 -0.004473 0.012158 0.000000 -0.007399 0.000000
# 4 0.000000 0.000000 0.000000 -0.021992 0.000000 -0.013941
# 5 -0.003010 -0.007494 -0.007399 0.000000 0.050337 0.000000
# 6 0.000000 0.000000 0.000000 -0.013941 0.000000 0.063244
#
#
# Mechanical properties :
#
#
# Convention : Reuss Voigt Hill
#
# Bulk Modulus (GPa) = 40.23738 57.38801 48.81269
# Shear Modulus (GPa) = 31.08206 12.66294 21.87250
#
# Velocity S-wave (km/s) = 3.97750 2.53876 3.33660
# Velocity P-wave (km/s) = 6.44783 6.14848 6.29993
#
# Compressibility (1/GPa) = 0.02485252
#
# Stress axis : x y z
#
# Youngs Moduli (GPa) = 78.14276 55.65761 82.25047
#
# Poissons Ratio (x) = 0.12334 0.19290
# Poissons Ratio (y) = 0.17317 0.36794
# Poissons Ratio (z) = 0.18327 0.24898
#
# Static dielectric constant tensor:
#      x y z
#    x 1.779530 0.000000 0.007310 
#    y 0.000000 1.683350 0.000000 
#    z 0.007310 0.000000 1.711090 
# 
# From -- ./inp_files/185852.got.cif
#   From: 2010.05.17/outbox.cif.g08.bks.cpg/sg15_93_cif.got.tgz:185852.got - 2010.06.03 18:47:42.
