data_PCOD9266381
_publ_section_title
;
Structure prediction by ZEFSAII (Michael W. Deem and Ramdas Pophale) SiO2 
 PCOD9266381
Probable space group: C 2/C
;
_chemical_formula_sum "Si O2"
_cell_formula_units_Z 32
_cell_length_a 30.428664
_cell_length_b 7.443250
_cell_length_c 12.199539
_cell_angle_alpha 90.000000
_cell_angle_beta 31.071725
_cell_angle_gamma 90.000000
_cell_volume 1426.040231
_symmetry_space_group_name_H-M "C 2/C"
_symmetry_group_IT_number 15
_symmetry_cell_setting 'monoclinic'
loop_
_space_group_symop_operation_xyz
x,y,z
-x,y,1/2-z
-x,-y,-z
x,-y,1/2+z
1/2+x,1/2+y,z
1/2-x,1/2+y,1/2-z
1/2-x,1/2-y,-z
1/2+x,1/2-y,1/2+z
loop_
_atom_site_type_symbol
_atom_site_label
_atom_site_fract_x
_atom_site_fract_y
_atom_site_fract_z
Si Si1 0.724104 0.754242 0.704473
Si Si2 0.228982 0.680504 0.664435
Si Si3 0.043712 0.655006 0.044423
Si Si4 0.106568 0.693461 0.277076
O O1 0.713205 0.739351 0.857183
O O2 0.812266 0.663588 0.476547
O O3 0.646696 0.692744 0.791751
O O4 0.734172 0.965158 0.657464
O O5 0.250000 0.750000 0.500000
O O6 0.131938 0.745713 0.891404
O O7 0.000000 0.589717 0.250000
O O8 0.973051 0.760738 0.124599
O O9 0.074622 0.489771 0.902480
#
# Coordination Sequence:
#
# PCOD9266381 Si02
#       4
#     8   8   8   8
#     4  10  22  39  63  94 126 168 219 265 323 387
#     4  11  25  40  67  90 132 170 216 268 332 384
#     4  10  19  37  63  95 125 170 219 262 316 387
#     4   9  20  35  63  89 126 159 217 262 308 372
#
# _framework density 22.439758999999999
#
# number of rings (size 3 to 8) (size 9 to 14) (size 15 to 20)
#    0.000    2.000    2.500    0.000   10.500    2.000 
#    0.000    1.250    5.500    0.000    0.000    0.000 
#    0.000    0.000    0.000    0.000    0.000    0.000 
#
# Total GULP energy -89188.917194 kJ/mol
# GULP energy per Si atom -5574.307325 kJ/mol
# Density = 2.238869 g / cm^3
# Si number density = 22.439759 Si / 1000 Ang^3
#
#
#
# Elastic Constant Matrix: (Units=GPa)
#
#
# Indices 1 2 3 4 5 6 
#
# 1 188.7260 8.9619 45.4622 0.0000 2.4765 0.0000
# 2 8.9619 52.2121 12.3941 0.0000 15.8309 0.0000
# 3 45.4622 12.3941 86.3644 0.0000 1.2514 0.0000
# 4 0.0000 0.0000 0.0000 20.9011 0.0000 6.6856
# 5 2.4765 15.8309 1.2514 0.0000 49.8097 0.0000
# 6 0.0000 0.0000 0.0000 6.6856 0.0000 24.3693
#
#
#
# Elastic Compliance Matrix: (Units=1/GPa)
#
#
# Indices 1 2 3 4 5 6 
#
# 1 0.006073 -0.000249 -0.003159 0.000000 -0.000143 0.000000
# 2 -0.000249 0.021982 -0.002923 0.000000 -0.006901 0.000000
# 3 -0.003159 -0.002923 0.013651 0.000000 0.000743 0.000000
# 4 0.000000 0.000000 0.000000 0.052447 0.000000 -0.014389
# 5 -0.000143 -0.006901 0.000743 0.000000 0.022258 0.000000
# 6 0.000000 0.000000 0.000000 -0.014389 0.000000 0.044983
#
#
# Mechanical properties :
#
#
# Convention : Reuss Voigt Hill
#
# Bulk Modulus (GPa) = 34.43268 51.21545 42.82407
# Shear Modulus (GPa) = 27.21270 36.38163 31.79716
#
# Velocity S-wave (km/s) = 3.48616 4.03091 3.76839
# Velocity P-wave (km/s) = 5.61981 6.67363 6.16926
#
# Compressibility (1/GPa) = 0.02904217
#
# Stress axis : x y z
#
# Youngs Moduli (GPa) = 164.65178 45.49253 73.25663
#
# Poissons Ratio (x) = 0.01133 0.23143
# Poissons Ratio (y) = 0.04100 0.21417
# Poissons Ratio (z) = 0.52017 0.13300
#
# Static dielectric constant tensor:
#      x y z
#    x 1.945900 0.000000 -0.043320 
#    y 0.000000 1.855400 0.000000 
#    z -0.043320 0.000000 1.860490 
# 
# From -- ./inp_files/93246.got.cif
#   From: 2010.05.17/outbox.cif.g08.bks.cpg/sg15_47_cif.got.tgz:93246.got - 2010.06.03 18:47:42.
