data_PCOD9266566
_publ_section_title
;
Structure prediction by ZEFSAII (Michael W. Deem and Ramdas Pophale) SiO2 
 PCOD9266566
Probable space group: C 2/C
;
_chemical_formula_sum "Si O2"
_cell_formula_units_Z 52
_cell_length_a 21.423686
_cell_length_b 9.301571
_cell_length_c 17.395212
_cell_angle_alpha 90.000000
_cell_angle_beta 48.704990
_cell_angle_gamma 90.000000
_cell_volume 2604.390528
_symmetry_space_group_name_H-M "C 2/C"
_symmetry_group_IT_number 15
_symmetry_cell_setting 'monoclinic'
loop_
_space_group_symop_operation_xyz
x,y,z
-x,y,1/2-z
-x,-y,-z
x,-y,1/2+z
1/2+x,1/2+y,z
1/2-x,1/2+y,1/2-z
1/2-x,1/2-y,-z
1/2+x,1/2-y,1/2+z
loop_
_atom_site_type_symbol
_atom_site_label
_atom_site_fract_x
_atom_site_fract_y
_atom_site_fract_z
Si Si1 0.409380 0.642759 0.134865
Si Si2 0.000000 0.259741 0.750000
Si Si3 0.226916 0.921510 0.002971
Si Si4 0.347722 0.155488 0.294297
Si Si5 0.550788 0.566483 0.573232
Si Si6 0.236425 0.033779 0.664262
Si Si7 0.589195 0.032877 0.890193
O O1 0.489857 0.565320 0.105715
O O2 0.326376 0.567066 0.236057
O O3 0.411880 0.811300 0.148495
O O4 0.419692 0.625162 0.033783
O O5 0.913384 0.339733 0.811528
O O6 0.000119 0.171972 0.829462
O O7 0.277656 0.950487 0.884357
O O8 0.250000 0.750000 0.000000
O O9 0.132488 0.953394 0.057935
O O10 0.244199 0.003879 0.067652
O O11 0.305916 0.307067 0.304277
O O12 0.393144 0.090104 0.185234
O O13 0.329389 0.036451 0.621623
O O14 0.500000 0.000000 0.000000
#
# Coordination Sequence:
#
# PCOD9266566 Si02
#       7
#     8   4   8   8   8   8   8
#     4  11  24  41  68  99 134 178 221 280 329 402
#     4  12  20  40  70  96 126 174 228 268 320 400
#     4  10  19  37  67  99 124 170 225 278 318 386
#     4  11  24  40  71  98 132 179 223 280 330 400
#     4  11  20  38  67  98 125 170 231 267 326 393
#     4  11  22  44  71  94 130 176 229 277 329 396
#     4  12  27  43  63  99 141 174 218 280 345 398
#
# _framework density 19.966284000000002
#
# number of rings (size 3 to 8) (size 9 to 14) (size 15 to 20)
#    0.000    0.923    4.615    4.615    4.308    0.000 
#    2.769    3.077    0.000    0.000    0.000    0.000 
#    0.000    0.000    0.000    0.000    0.000    0.000 
#
# Total GULP energy -144955.419413 kJ/mol
# GULP energy per Si atom -5575.208439 kJ/mol
# Density = 1.992084 g / cm^3
# Si number density = 19.966284 Si / 1000 Ang^3
#
#
#
# Elastic Constant Matrix: (Units=GPa)
#
#
# Indices 1 2 3 4 5 6 
#
# 1 132.8780 30.9929 18.4939 0.0000 -17.3416 0.0000
# 2 30.9929 60.5733 28.2865 0.0001 -9.8978 0.0000
# 3 18.4939 28.2865 130.7690 0.0000 -15.6858 0.0000
# 4 0.0000 0.0001 0.0000 7.4323 0.0000 -11.3984
# 5 -17.3416 -9.8978 -15.6858 0.0000 38.3337 0.0000
# 6 0.0000 0.0000 0.0000 -11.3984 0.0000 7.6669
#
#
#
# Elastic Compliance Matrix: (Units=1/GPa)
#
#
# Indices 1 2 3 4 5 6 
#
# 1 0.008856 -0.004037 -0.000025 0.000000 0.002954 0.000000
# 2 -0.004037 0.020604 -0.003646 0.000000 0.002002 0.000000
# 3 -0.000025 -0.003646 0.008755 0.000000 0.002630 0.000000
# 4 0.000000 0.000000 0.000000 -0.105111 0.000000 -0.156269
# 5 0.002954 0.002002 0.002630 0.000000 0.029016 0.000000
# 6 0.000000 0.000000 0.000000 -0.156269 0.000000 -0.101895
#
#
# Mechanical properties :
#
#
# Convention : Reuss Voigt Hill
#
# Bulk Modulus (GPa) = 43.86066 53.30744 48.58405
# Shear Modulus (GPa) = -42.82296 27.11639 -7.85328
#
# Velocity S-wave (km/s) = -4.63618 3.68925 -1.98540
# Velocity P-wave (km/s) = 2.57757 6.70105 4.37380
#
# Compressibility (1/GPa) = 0.02279948
#
# Stress axis : x y z
#
# Youngs Moduli (GPa) = 112.91405 48.53392 114.22507
#
# Poissons Ratio (x) = 0.19594 0.00285
# Poissons Ratio (y) = 0.45584 0.41644
# Poissons Ratio (z) = 0.00281 0.17694
#
# Static dielectric constant tensor:
#      x y z
#    x 1.750480 0.000000 -0.056480 
#    y 0.000000 1.710420 0.000000 
#    z -0.056480 0.000000 1.864420 
# 
# From -- ./inp_files/214223.got.cif
#   From: 2010.05.17/outbox.cif.g08.bks.cpg/sg15_108_cif.got.tgz:214223.got - 2010.06.03 18:47:42.
