data_PCOD9266221
_publ_section_title
;
Structure prediction by ZEFSAII (Michael W. Deem and Ramdas Pophale) SiO2 
 PCOD9266221
Probable space group: C 2/C
;
_chemical_formula_sum "Si O2"
_cell_formula_units_Z 52
_cell_length_a 19.644292
_cell_length_b 19.800741
_cell_length_c 9.153073
_cell_angle_alpha 90.000000
_cell_angle_beta 141.762068
_cell_angle_gamma 90.000000
_cell_volume 2203.561879
_symmetry_space_group_name_H-M "C 2/C"
_symmetry_group_IT_number 15
_symmetry_cell_setting 'monoclinic'
loop_
_space_group_symop_operation_xyz
x,y,z
-x,y,1/2-z
-x,-y,-z
x,-y,1/2+z
1/2+x,1/2+y,z
1/2-x,1/2+y,1/2-z
1/2-x,1/2-y,-z
1/2+x,1/2-y,1/2+z
loop_
_atom_site_type_symbol
_atom_site_label
_atom_site_fract_x
_atom_site_fract_y
_atom_site_fract_z
Si Si1 0.326454 0.850889 0.296454
Si Si2 0.175971 0.494746 0.358887
Si Si3 0.877517 0.151852 0.873635
Si Si4 0.104568 0.005281 0.574696
Si Si5 0.702943 0.392340 0.577785
Si Si6 0.000000 0.561397 0.250000
Si Si7 0.928581 0.787432 0.976682
O O1 0.315262 0.916691 0.175299
O O2 0.215325 0.818832 0.177225
O O3 0.401192 0.887886 0.544161
O O4 0.393338 0.785687 0.360241
O O5 0.281678 0.501385 0.642729
O O6 0.194500 0.555753 0.270769
O O7 0.060716 0.512384 0.238808
O O8 0.818222 0.140132 0.615993
O O9 0.992783 0.182196 0.016372
O O10 0.896698 0.080618 0.985116
O O11 0.111873 0.947733 0.467656
O O12 0.000000 0.000000 0.500000
O O13 0.675703 0.334863 0.652777
O O14 0.000000 0.782318 0.250000
#
# Coordination Sequence:
#
# PCOD9266221 Si02
#       7
#     8   8   8   8   8   4   8
#     4  12  23  41  62  95 129 168 213 260 331 389
#     4  11  24  39  63  98 127 168 216 266 314 391
#     4  10  21  37  61  96 123 158 215 264 323 371
#     4  11  20  37  67  94 124 162 213 266 322 371
#     4  10  19  37  61  93 122 159 208 264 313 368
#     4  12  22  42  62  92 128 172 214 260 318 390
#     4  10  22  36  61  93 128 165 208 266 323 379
#
# _framework density 23.598158000000002
#
# number of rings (size 3 to 8) (size 9 to 14) (size 15 to 20)
#    0.000    1.231    6.923    0.462    2.154    3.692 
#    0.000    0.769    0.000    0.000    0.000    0.000 
#    0.000    0.000    0.000    0.000    0.000    0.000 
#
# Total GULP energy -144857.540867 kJ/mol
# GULP energy per Si atom -5571.443880 kJ/mol
# Density = 2.354445 g / cm^3
# Si number density = 23.598158 Si / 1000 Ang^3
#
#
#
# Elastic Constant Matrix: (Units=GPa)
#
#
# Indices 1 2 3 4 5 6 
#
# 1 122.7555 58.8715 2.9198 0.0000 46.9737 0.0000
# 2 58.8715 161.2673 16.9471 0.0000 17.1191 0.0000
# 3 2.9198 16.9471 41.0453 0.0000 5.3983 0.0000
# 4 0.0000 0.0000 0.0000 56.6759 0.0000 25.8358
# 5 46.9737 17.1191 5.3983 0.0000 24.2155 0.0000
# 6 0.0000 0.0000 0.0000 25.8358 0.0000 27.2915
#
#
#
# Elastic Compliance Matrix: (Units=1/GPa)
#
#
# Indices 1 2 3 4 5 6 
#
# 1 0.040434 -0.007859 0.010254 0.000000 -0.075164 0.000000
# 2 -0.007859 0.008432 -0.004269 0.000000 0.010236 0.000000
# 3 0.010254 -0.004269 0.028450 0.000000 -0.023216 0.000000
# 4 0.000000 0.000000 0.000000 0.031038 0.000000 -0.029383
# 5 -0.075164 0.010236 -0.023216 0.000000 0.185040 0.000000
# 6 0.000000 0.000000 0.000000 -0.029383 0.000000 0.064457
#
#
# Mechanical properties :
#
#
# Convention : Reuss Voigt Hill
#
# Bulk Modulus (GPa) = 13.59276 53.61608 33.60442
# Shear Modulus (GPa) = 12.94930 38.05858 25.50394
#
# Velocity S-wave (km/s) = 2.34507 4.02030 3.29106
# Velocity P-wave (km/s) = 3.62009 6.65734 5.35841
#
# Compressibility (1/GPa) = 0.07356860
#
# Stress axis : x y z
#
# Youngs Moduli (GPa) = 24.73167 118.59696 35.14971
#
# Poissons Ratio (x) = 0.93209 -0.36044
# Poissons Ratio (y) = 0.19437 0.15004
# Poissons Ratio (z) = -0.25361 0.50625
#
# Static dielectric constant tensor:
#      x y z
#    x 1.977640 0.000000 -0.037050 
#    y 0.000000 1.902660 0.000000 
#    z -0.037050 0.000000 1.933950 
# 
# From -- ./inp_files/113717.got.cif
#   From: 2010.05.17/outbox.cif.g08.bks.cpg/sg15_57_cif.got.tgz:113717.got - 2010.06.03 18:47:42.
