data_PCOD9266583
_publ_section_title
;
Structure prediction by ZEFSAII (Michael W. Deem and Ramdas Pophale) SiO2 
 PCOD9266583
Probable space group: C 2/C
;
_chemical_formula_sum "Si O2"
_cell_formula_units_Z 56
_cell_length_a 12.175412
_cell_length_b 15.209655
_cell_length_c 15.595790
_cell_angle_alpha 90.000000
_cell_angle_beta 113.509176
_cell_angle_gamma 90.000000
_cell_volume 2648.365642
_symmetry_space_group_name_H-M "C 2/C"
_symmetry_group_IT_number 15
_symmetry_cell_setting 'monoclinic'
loop_
_space_group_symop_operation_xyz
x,y,z
-x,y,1/2-z
-x,-y,-z
x,-y,1/2+z
1/2+x,1/2+y,z
1/2-x,1/2+y,1/2-z
1/2-x,1/2-y,-z
1/2+x,1/2-y,1/2+z
loop_
_atom_site_type_symbol
_atom_site_label
_atom_site_fract_x
_atom_site_fract_y
_atom_site_fract_z
Si Si1 0.505345 0.269478 0.600418
Si Si2 0.251085 0.482398 0.650555
Si Si3 0.765777 0.719229 0.102672
Si Si4 0.850261 0.437024 0.535250
Si Si5 0.500000 0.406211 0.750000
Si Si6 0.428932 0.177574 0.417859
Si Si7 0.500000 0.754875 0.750000
Si Si8 0.972679 0.426633 0.336625
O O1 0.642483 0.282277 0.613806
O O2 0.473970 0.345291 0.658434
O O3 0.426832 0.254919 0.488479
O O4 0.504438 0.176269 0.648098
O O5 0.253906 0.533523 0.560623
O O6 0.381511 0.464082 0.727632
O O7 0.182610 0.388655 0.616247
O O8 0.158885 0.540389 0.677787
O O9 0.809648 0.618169 0.105067
O O10 0.870591 0.778584 0.176668
O O11 0.750000 0.750000 0.000000
O O12 0.948415 0.374506 0.519603
O O13 0.927560 0.522208 0.578593
O O14 0.453608 0.202263 0.326044
O O15 0.000000 0.456835 0.250000
#
# Coordination Sequence:
#
# PCOD9266583 Si02
#       8
#     8   8   8   8   4   8   4   8
#     4  12  22  44  62 104 134 176 222 291 335 396
#     4  11  22  44  63  96 134 181 218 274 343 410
#     4  11  21  38  67 100 138 173 229 288 335 395
#     4  10  20  38  68  95 122 175 224 283 325 389
#     4  12  30  40  66  94 154 184 210 270 366 416
#     4  10  19  37  69  94 124 168 232 281 322 382
#     4  10  20  34  58 102 128 176 216 274 348 384
#     4  11  22  40  72  95 122 169 240 276 320 390
#
# _framework density 21.145116000000002
#
# number of rings (size 3 to 8) (size 9 to 14) (size 15 to 20)
#    0.000    1.143    6.429    1.714   11.000    0.571 
#    0.000    3.571    0.000    0.000    0.000    0.000 
#    0.000    0.000    0.000    0.000    0.000    0.000 
#
# Total GULP energy -156051.610237 kJ/mol
# GULP energy per Si atom -5573.271794 kJ/mol
# Density = 2.109699 g / cm^3
# Si number density = 21.145116 Si / 1000 Ang^3
#
#
#
# Elastic Constant Matrix: (Units=GPa)
#
#
# Indices 1 2 3 4 5 6 
#
# 1 49.6152 7.1316 14.1352 0.0000 8.4482 0.0000
# 2 7.1316 42.2918 15.7103 0.0000 5.1517 0.0000
# 3 14.1352 15.7103 106.2301 0.0000 -3.8135 0.0000
# 4 0.0000 0.0000 0.0000 26.3255 0.0000 -5.1672
# 5 8.4482 5.1517 -3.8135 0.0000 35.4774 0.0000
# 6 0.0000 0.0000 0.0000 -5.1672 0.0000 23.4590
#
#
#
# Elastic Compliance Matrix: (Units=1/GPa)
#
#
# Indices 1 2 3 4 5 6 
#
# 1 0.022156 -0.002039 -0.002836 0.000000 -0.005285 0.000000
# 2 -0.002039 0.025800 -0.003675 0.000000 -0.003656 0.000000
# 3 -0.002836 -0.003675 0.010418 0.000000 0.002329 0.000000
# 4 0.000000 0.000000 0.000000 0.039702 0.000000 0.008745
# 5 -0.005285 -0.003656 0.002329 0.000000 0.030227 0.000000
# 6 0.000000 0.000000 0.000000 0.008745 0.000000 0.044554
#
#
# Mechanical properties :
#
#
# Convention : Reuss Voigt Hill
#
# Bulk Modulus (GPa) = 24.22903 30.23237 27.23070
# Shear Modulus (GPa) = 24.54403 27.79638 26.17020
#
# Velocity S-wave (km/s) = 3.41066 3.62961 3.52184
# Velocity P-wave (km/s) = 5.19553 5.64748 5.42621
#
# Compressibility (1/GPa) = 0.04127281
#
# Stress axis : x y z
#
# Youngs Moduli (GPa) = 45.13430 38.76011 95.98663
#
# Poissons Ratio (x) = 0.07902 0.27225
# Poissons Ratio (y) = 0.09202 0.35280
# Poissons Ratio (z) = 0.12802 0.14246
#
# Static dielectric constant tensor:
#      x y z
#    x 1.751100 0.000000 -0.013030 
#    y 0.000000 1.860980 0.000000 
#    z -0.013030 0.000000 1.833730 
# 
# From -- ./inp_files/146201.got.cif
#   From: 2010.05.17/outbox.cif.g08.bks.cpg/sg15_74_cif.got.tgz:146201.got - 2010.06.03 18:47:42.
