data_PCOD9266949
_publ_section_title
;
Structure prediction by ZEFSAII (Michael W. Deem and Ramdas Pophale) SiO2 
 PCOD9266949
Probable space group: C 2/C
;
_chemical_formula_sum "Si O2"
_cell_formula_units_Z 44
_cell_length_a 25.802075
_cell_length_b 15.190737
_cell_length_c 12.436578
_cell_angle_alpha 90.000000
_cell_angle_beta 23.774702
_cell_angle_gamma 90.000000
_cell_volume 1965.131592
_symmetry_space_group_name_H-M "C 2/C"
_symmetry_group_IT_number 15
_symmetry_cell_setting 'monoclinic'
loop_
_space_group_symop_operation_xyz
x,y,z
-x,y,1/2-z
-x,-y,-z
x,-y,1/2+z
1/2+x,1/2+y,z
1/2-x,1/2+y,1/2-z
1/2-x,1/2-y,-z
1/2+x,1/2-y,1/2+z
loop_
_atom_site_type_symbol
_atom_site_label
_atom_site_fract_x
_atom_site_fract_y
_atom_site_fract_z
Si Si1 0.889544 0.029514 0.791720
Si Si2 0.861982 0.493049 0.874902
Si Si3 0.767257 0.642570 0.714713
Si Si4 0.623297 0.732323 0.669715
Si Si5 0.923215 0.638954 0.623221
Si Si6 0.500000 0.602665 0.250000
O O1 0.901077 0.130358 0.804769
O O2 0.000000 0.000000 0.500000
O O3 0.915257 0.962086 0.838061
O O4 0.752345 0.023192 0.993599
O O5 0.892927 0.595725 0.796228
O O6 0.984302 0.434052 0.609641
O O7 0.811205 0.452429 0.082442
O O8 0.850562 0.713117 0.488976
O O9 0.803462 0.651328 0.770765
O O10 0.616105 0.656507 0.976219
O O11 0.750000 0.750000 0.500000
O O12 0.505368 0.773053 0.960585
#
# Coordination Sequence:
#
# PCOD9266949 Si02
#       6
#     8   8   8   8   8   4
#     4  12  23  41  65  93 124 167 215 256 321 377
#     4  10  19  38  63  90 124 170 205 256 321 374
#     4  11  22  40  66  93 129 170 214 260 320 377
#     4  11  21  40  65  89 122 167 212 260 319 373
#     4  10  21  37  63  96 127 165 214 260 312 381
#     4  12  24  38  66  90 130 166 212 268 314 378
#
# _framework density 22.390357999999999
#
# number of rings (size 3 to 8) (size 9 to 14) (size 15 to 20)
#    0.000    1.091    7.273    2.182    2.545    0.000 
#    0.000    0.909    8.000    0.000    0.000    0.000 
#    0.000    0.000    0.000    0.000    0.000    0.000 
#
# Total GULP energy -122806.870855 kJ/mol
# GULP energy per Si atom -5582.130493 kJ/mol
# Density = 2.233940 g / cm^3
# Si number density = 22.390358 Si / 1000 Ang^3
#
#
#
# Elastic Constant Matrix: (Units=GPa)
#
#
# Indices 1 2 3 4 5 6 
#
# 1 51.3935 2.2995 4.9544 0.0000 -21.0645 0.0000
# 2 2.2995 69.3571 34.4040 0.0000 -7.1848 0.0000
# 3 4.9544 34.4040 96.6889 0.0000 -14.1080 0.0000
# 4 0.0000 0.0000 0.0000 26.0021 0.0000 -6.4215
# 5 -21.0645 -7.1848 -14.1080 0.0000 41.5115 0.0000
# 6 0.0000 0.0000 0.0000 -6.4215 0.0000 21.4259
#
#
#
# Elastic Compliance Matrix: (Units=1/GPa)
#
#
# Indices 1 2 3 4 5 6 
#
# 1 0.024603 0.000250 0.000503 0.000000 0.012699 0.000000
# 2 0.000250 0.017547 -0.006097 0.000000 0.001092 0.000000
# 3 0.000503 -0.006097 0.013015 0.000000 0.003623 0.000000
# 4 0.000000 0.000000 0.000000 0.041533 0.000000 0.012448
# 5 0.012699 0.001092 0.003623 0.000000 0.031954 0.000000
# 6 0.000000 0.000000 0.000000 0.012448 0.000000 0.050403
#
#
# Mechanical properties :
#
#
# Convention : Reuss Voigt Hill
#
# Bulk Modulus (GPa) = 22.48334 33.41723 27.95029
# Shear Modulus (GPa) = 24.44172 29.50668 26.97420
#
# Velocity S-wave (km/s) = 3.30755 3.63413 3.47468
# Velocity P-wave (km/s) = 4.96486 5.70670 5.34866
#
# Compressibility (1/GPa) = 0.04447737
#
# Stress axis : x y z
#
# Youngs Moduli (GPa) = 40.64579 56.98834 76.83512
#
# Poissons Ratio (x) = -0.01426 -0.03866
# Poissons Ratio (y) = -0.01017 0.46848
# Poissons Ratio (z) = -0.02045 0.34747
#
# Static dielectric constant tensor:
#      x y z
#    x 1.919540 0.000000 0.138350 
#    y 0.000000 1.894650 0.000000 
#    z 0.138350 0.000000 2.032760 
# 
# From -- ./inp_files/182269.got.cif
#   From: 2010.05.17/outbox.cif.g08.bks.cpg/sg15_92_cif.got.tgz:182269.got - 2010.06.03 18:47:42.
