data_PCOD9266574
_publ_section_title
;
Structure prediction by ZEFSAII (Michael W. Deem and Ramdas Pophale) SiO2 
 PCOD9266574
Probable space group: C 2/C
;
_chemical_formula_sum "Si O2"
_cell_formula_units_Z 56
_cell_length_a 13.288544
_cell_length_b 14.015535
_cell_length_c 16.776187
_cell_angle_alpha 90.000000
_cell_angle_beta 46.386994
_cell_angle_gamma 90.000000
_cell_volume 2262.184810
_symmetry_space_group_name_H-M "C 2/C"
_symmetry_group_IT_number 15
_symmetry_cell_setting 'monoclinic'
loop_
_space_group_symop_operation_xyz
x,y,z
-x,y,1/2-z
-x,-y,-z
x,-y,1/2+z
1/2+x,1/2+y,z
1/2-x,1/2+y,1/2-z
1/2-x,1/2-y,-z
1/2+x,1/2-y,1/2+z
loop_
_atom_site_type_symbol
_atom_site_label
_atom_site_fract_x
_atom_site_fract_y
_atom_site_fract_z
Si Si1 0.208372 0.456538 0.740781
Si Si2 0.142230 0.261140 0.186141
Si Si3 0.390471 0.622747 0.585112
Si Si4 0.871554 0.761035 0.260564
Si Si5 0.054222 0.451053 0.050689
Si Si6 0.082867 0.742828 0.901702
Si Si7 0.842544 0.950991 0.844425
O O1 0.325667 0.518321 0.630206
O O2 0.158291 0.351326 0.741468
O O3 0.272866 0.454211 0.795019
O O4 0.064714 0.517460 0.822546
O O5 0.273547 0.323315 0.097474
O O6 0.138165 0.241861 0.282609
O O7 0.136552 0.160527 0.145377
O O8 0.000000 0.315098 0.250000
O O9 0.400241 0.674583 0.666480
O O10 0.528602 0.658558 0.466527
O O11 0.718816 0.795111 0.374638
O O12 0.000000 0.769475 0.250000
O O13 0.033800 0.338649 0.042000
O O14 0.215660 0.481558 0.972094
O O15 0.000000 0.500000 0.000000
O O16 0.000000 0.992344 0.750000
#
# Coordination Sequence:
#
# PCOD9266574 Si02
#       7
#     8   8   8   8   8   8   8
#     4  11  21  42  64  94 133 177 221 280 336 398
#     4  10  20  38  61  91 127 161 206 265 326 393
#     4  11  22  41  68  92 132 176 216 273 337 400
#     4  11  25  46  65  96 138 176 226 283 331 399
#     4  10  19  37  68  91 125 178 222 263 327 396
#     4  11  21  43  66  92 131 175 217 275 342 398
#     4  10  20  39  62  94 130 167 218 272 323 395
#
# _framework density 24.754829999999998
#
# number of rings (size 3 to 8) (size 9 to 14) (size 15 to 20)
#    0.000    1.429    7.143    0.857    0.000    2.857 
#    2.571    0.000    0.000    0.000    0.000    0.000 
#    0.000    0.000    0.000    0.000    0.000    0.000 
#
# Total GULP energy -156148.714521 kJ/mol
# GULP energy per Si atom -5576.739804 kJ/mol
# Density = 2.469849 g / cm^3
# Si number density = 24.754830 Si / 1000 Ang^3
#
#
#
# Elastic Constant Matrix: (Units=GPa)
#
#
# Indices 1 2 3 4 5 6 
#
# 1 105.8822 6.5386 35.7381 0.0000 -40.2999 0.0000
# 2 6.5386 127.6124 27.0449 0.0000 0.6264 0.0000
# 3 35.7381 27.0449 90.9761 0.0000 -32.6584 0.0000
# 4 0.0000 0.0000 0.0000 26.8174 0.0000 -12.9311
# 5 -40.2999 0.6264 -32.6584 0.0000 44.3834 0.0000
# 6 0.0000 0.0000 0.0000 -12.9311 0.0000 -3.2679
#
#
#
# Elastic Compliance Matrix: (Units=1/GPa)
#
#
# Indices 1 2 3 4 5 6 
#
# 1 0.014587 -0.000578 -0.001088 0.000000 0.012452 0.000000
# 2 -0.000578 0.008621 -0.003490 0.000000 -0.003214 0.000000
# 3 -0.001088 -0.003490 0.016470 0.000000 0.011180 0.000000
# 4 0.000000 0.000000 0.000000 0.012823 0.000000 -0.050740
# 5 0.012452 -0.003214 0.011180 0.000000 0.042110 0.000000
# 6 0.000000 0.000000 0.000000 -0.050740 0.000000 -0.105229
#
#
# Mechanical properties :
#
#
# Convention : Reuss Voigt Hill
#
# Bulk Modulus (GPa) = 34.05223 51.45710 42.75467
# Shear Modulus (GPa) = 527.26869 30.59651 278.93260
#
# Velocity S-wave (km/s) = 14.61023 3.51947 10.62651
# Velocity P-wave (km/s) = 17.27418 6.11125 12.95655
#
# Compressibility (1/GPa) = 0.02936665
#
# Stress axis : x y z
#
# Youngs Moduli (GPa) = 68.55452 115.99336 60.71540
#
# Poissons Ratio (x) = 0.06703 0.06608
# Poissons Ratio (y) = 0.03962 0.21188
# Poissons Ratio (z) = 0.07461 0.40478
#
# Static dielectric constant tensor:
#      x y z
#    x 2.033800 0.000000 -0.026950 
#    y 0.000000 2.045260 0.000000 
#    z -0.026950 0.000000 2.047940 
# 
# From -- ./inp_files/244508.got.cif
#   From: 2010.05.17/outbox.cif.g08.bks.cpg/sg15_123_cif.got.tgz:244508.got - 2010.06.03 18:47:42.
